ver_1.2
     RDKit          3D

 28 32  0  0  0  0  0  0  0  0999 V2000
    7.2574    0.6256   -0.4521 N   0  0  0  0  0  0  0  0  0  0  0  0
    6.7861    1.7706   -1.1385 N   0  0  0  0  0  0  0  0  0  0  0  0
    6.2348    1.4081   -2.4290 C   0  0  0  0  0  0  0  0  0  0  0  0
    4.8196    1.0762   -2.1320 C   0  0  0  0  0  0  0  0  0  0  0  0
    3.9010    0.3537   -2.8439 C   0  0  0  0  0  0  0  0  0  0  0  0
    2.6006    0.1543   -2.3680 C   0  0  0  0  0  0  0  0  0  0  0  0
    2.2584    0.7173   -1.1335 C   0  0  0  0  0  0  0  0  0  0  0  0
    0.9279    0.5189   -0.6321 N   0  0  0  0  0  0  0  0  0  0  0  0
    0.6931   -0.6283    0.1843 C   0  0  0  0  0  0  0  0  0  0  0  0
    1.7102   -1.3682    0.3862 O   0  0  0  0  0  0  0  0  0  0  0  0
   -0.5865   -0.9586    0.7568 C   0  0  0  0  0  0  0  0  0  0  0  0
   -0.7363   -2.1536    1.4291 C   0  0  0  0  0  0  0  0  0  0  0  0
   -1.9245   -2.5524    2.0066 C   0  0  0  0  0  0  0  0  0  0  0  0
   -1.9456   -3.7524    2.6402 F   0  0  0  0  0  0  0  0  0  0  0  0
   -3.0187   -1.7236    1.9119 C   0  0  0  0  0  0  0  0  0  0  0  0
   -2.9022   -0.5176    1.2446 C   0  0  0  0  0  0  0  0  0  0  0  0
   -1.6910   -0.1387    0.6702 C   0  0  0  0  0  0  0  0  0  0  0  0
   -1.8919    1.0509    0.1103 N   0  0  0  0  0  0  0  0  0  0  0  0
   -3.1785    1.4273    0.3142 C   0  0  0  0  0  0  0  0  0  0  0  0
   -3.8038    0.4646    1.0123 N   0  0  0  0  0  0  0  0  0  0  0  0
   -5.1754    0.4048    1.4726 C   0  0  0  0  0  0  0  0  0  0  0  0
   -5.9643   -0.6491    0.6861 C   0  0  0  0  0  0  0  0  0  0  0  0
   -5.9588   -0.0075   -0.6894 C   0  0  0  0  0  0  0  0  0  0  0  0
   -5.9367    1.4562   -0.3381 C   0  0  0  0  0  0  0  0  0  0  0  0
   -5.8538    1.5556    1.0453 O   0  0  0  0  0  0  0  0  0  0  0  0
    3.1985    1.4477   -0.4222 C   0  0  0  0  0  0  0  0  0  0  0  0
    4.4913    1.6399   -0.9063 C   0  0  0  0  0  0  0  0  0  0  0  0
    5.6888    2.3560   -0.3854 C   0  0  0  0  0  0  0  0  0  0  0  0
  1  2  1  0
  2  3  1  0
  3  4  1  0
  4  5  2  0
  5  6  1  0
  6  7  2  0
  7  8  1  0
  8  9  1  0
  9 10  2  0
  9 11  1  0
 11 12  2  0
 12 13  1  0
 13 14  1  0
 13 15  2  0
 15 16  1  0
 16 17  2  0
 17 18  1  0
 18 19  2  0
 19 20  1  0
 20 21  1  0
 21 22  1  0
 22 23  1  0
 23 24  1  0
 24 25  1  0
  7 26  1  0
 26 27  2  0
 27 28  1  0
 28  2  1  0
 27  4  1  0
 17 11  1  0
 25 21  1  0
 20 16  1  0
M  END
>  <ref_url>  (1) 
https://github.com/mwinokan/BulkDock

>  <submitter_name>  (1) 
Max Winokan

>  <submitter_email>  (1) 
max.winokan@diamond.ac.uk

>  <submitter_institution>  (1) 
DLS

>  <generation_date>  (1) 
2025-08-28

>  <method>  (1) 
openbind_xx01zvns2b_c1_fragmenstein

>  <Energy>  (1) 
Energy

>  <scratch_subdir>  (1) 
scratch_subdir

>  <fragmenstein_runtime>  (1) 
fragmenstein_runtime

>  <fragmenstein_outcome>  (1) 
fragmenstein_outcome

>  <fragmenstein_mode>  (1) 
fragmenstein_mode

>  <fragmenstein_error>  (1) 
fragmenstein_error

>  <HIPPO Pose ID>  (1) 
HIPPO Pose ID

>  <HIPPO Compound ID>  (1) 
HIPPO Compound ID

>  <smiles>  (1) 
smiles

>  <ref_pdb>  (1) 
protein reference

>  <ref_mols>  (1) 
fragment inspirations

>  <original ID>  (1) 
alias

>  <compound inchikey>  (1) 
compound inchikey

>  <distance_score>  (1) 
distance_score

>  <energy_score>  (1) 
energy_score

>  <subsites>  (1) 
subsites

$$$$
CCn1cnc2cccc(NN=[S@@](C)(=O)c3ccc(N4CCNCC4)cc3)c21
     RDKit          3D

 28 31  0  0  0  0  0  0  0  0999 V2000
   -2.8734    5.0376  -17.1915 C   0  0  0  0  0  0  0  0  0  0  0  0
   -4.2445    5.4507  -16.6790 C   0  0  0  0  0  0  0  0  0  0  0  0
   -5.3449    5.2750  -17.6020 N   0  0  0  0  0  0  0  0  0  0  0  0
   -5.2258    5.1057  -18.9499 C   0  0  0  0  0  0  0  0  0  0  0  0
   -6.3577    4.7512  -19.4946 N   0  0  0  0  0  0  0  0  0  0  0  0
   -7.2671    4.7491  -18.4763 C   0  0  0  0  0  0  0  0  0  0  0  0
   -8.6252    4.4211  -18.5396 C   0  0  0  0  0  0  0  0  0  0  0  0
   -9.3537    4.4247  -17.3615 C   0  0  0  0  0  0  0  0  0  0  0  0
   -8.7515    4.8390  -16.1709 C   0  0  0  0  0  0  0  0  0  0  0  0
   -7.4258    5.3118  -16.0842 C   0  0  0  0  0  0  0  0  0  0  0  0
   -6.9176    5.9043  -14.8885 N   0  0  0  0  0  0  0  0  0  0  0  0
   -7.5528    7.1459  -14.2292 N   0  0  0  0  0  0  0  0  0  0  0  0
   -8.8647    7.0028  -13.4181 S   0  0  1  0  0  0  0  0  0  0  0  0
   -9.4144    8.5861  -12.8560 C   0  0  0  0  0  0  0  0  0  0  0  0
  -10.0691    6.3632  -13.9067 O   0  0  0  0  0  0  0  0  0  0  0  0
   -8.4053    6.1163  -11.9621 C   0  0  0  0  0  0  0  0  0  0  0  0
   -8.2072    6.7756  -10.7576 C   0  0  0  0  0  0  0  0  0  0  0  0
   -8.1953    6.0316   -9.5825 C   0  0  0  0  0  0  0  0  0  0  0  0
   -8.3483    4.6341   -9.5859 C   0  0  0  0  0  0  0  0  0  0  0  0
   -8.5956    3.9463   -8.3973 N   0  0  0  0  0  0  0  0  0  0  0  0
   -8.8283    2.4812   -8.4782 C   0  0  0  0  0  0  0  0  0  0  0  0
   -9.4437    1.9474   -7.1746 C   0  0  0  0  0  0  0  0  0  0  0  0
   -8.6503    2.3107   -6.0036 N   0  0  0  0  0  0  0  0  0  0  0  0
   -8.5252    3.7571   -5.9154 C   0  0  0  0  0  0  0  0  0  0  0  0
   -7.8891    4.3735   -7.1772 C   0  0  0  0  0  0  0  0  0  0  0  0
   -8.3822    4.0000  -10.8399 C   0  0  0  0  0  0  0  0  0  0  0  0
   -8.4236    4.7281  -12.0230 C   0  0  0  0  0  0  0  0  0  0  0  0
   -6.6794    5.1405  -17.2686 C   0  0  0  0  0  0  0  0  0  0  0  0
  1  2  1  0
  2  3  1  0
  3  4  1  0
  4  5  2  0
  5  6  1  0
  6  7  2  0
  7  8  1  0
  8  9  2  0
  9 10  1  0
 10 11  1  0
 11 12  1  0
 12 13  2  0
 13 14  1  1
 13 15  2  0
 13 16  1  0
 16 17  2  0
 17 18  1  0
 18 19  2  0
 19 20  1  0
 20 21  1  0
 21 22  1  0
 22 23  1  0
 23 24  1  0
 24 25  1  0
 19 26  1  0
 26 27  2  0
 10 28  2  0
 28  3  1  0
 28  6  1  0
 27 16  1  0
 25 20  1  0
M  END
>  <smiles>  (1) 
C70476-P1

>  <fragmenstein_outcome>  (1) 
acceptable

>  <inchikey>  (1) 
WSKYFPIRAZNLCT-UHFFFAOYSA-N

>  <fragmenstein_mode>  (1) 
expansion

>  <HIPPO Pose ID>  (1) 
341

>  <Energy>  (1) 
170.604346

>  <fragmenstein_error>  (1) 


>  <tags>  (1) 
{'openbind_xx01zvns2b_c1_fragmenstein', 'fragmenstein_placed'}

>  <ref_pdb>  (1) 
1

>  <scratch_subdir>  (1) 
/opt/xchem-fragalysis-2/maxwin/BulkDock/SCRATCH/511027/C70476-P1

>  <alias>  (1) 
CCn1cnc2cccc(NN=[S@@](C)(=O)c3ccc(N4CCNCC4)cc3)c21

>  <HIPPO Compound ID>  (1) 
106760

>  <fragmenstein_runtime>  (1) 
6.031252

$$$$
c1cc2c3c(c1)NCN3CCC2
     RDKit          3D

 12 14  0  0  0  0  0  0  0  0999 V2000
   -9.4772    4.3682  -17.3997 C   0  0  0  0  0  0  0  0  0  0  0  0
   -8.8424    4.3406  -16.1433 C   0  0  0  0  0  0  0  0  0  0  0  0
   -7.5009    4.7027  -16.0164 C   0  0  0  0  0  0  0  0  0  0  0  0
   -6.8504    5.1086  -17.1628 C   0  0  0  0  0  0  0  0  0  0  0  0
   -7.4514    5.0960  -18.4129 C   0  0  0  0  0  0  0  0  0  0  0  0
   -8.7745    4.7407  -18.5502 C   0  0  0  0  0  0  0  0  0  0  0  0
   -6.5450    5.5897  -19.3750 N   0  0  0  0  0  0  0  0  0  0  0  0
   -5.2692    5.4250  -18.6828 C   0  0  0  0  0  0  0  0  0  0  0  0
   -5.5184    5.5773  -17.2460 N   0  0  0  0  0  0  0  0  0  0  0  0
   -4.6741    4.9874  -16.2309 C   0  0  0  0  0  0  0  0  0  0  0  0
   -5.3204    5.2066  -14.8523 C   0  0  0  0  0  0  0  0  0  0  0  0
   -6.7227    4.5778  -14.7438 C   0  0  0  0  0  0  0  0  0  0  0  0
  1  2  2  0
  2  3  1  0
  3  4  2  0
  4  5  1  0
  5  6  2  0
  5  7  1  0
  7  8  1  0
  8  9  1  0
  9 10  1  0
 10 11  1  0
 11 12  1  0
  6  1  1  0
 12  3  1  0
  9  4  1  0
M  END
>  <smiles>  (2) 
C70478-P1

>  <fragmenstein_outcome>  (2) 
acceptable

>  <inchikey>  (2) 
UMTKULONWPJCOZ-UHFFFAOYSA-N

>  <fragmenstein_mode>  (2) 
expansion

>  <HIPPO Pose ID>  (2) 
342

>  <Energy>  (2) 
-5.431385

>  <fragmenstein_error>  (2) 


>  <tags>  (2) 
{'openbind_xx01zvns2b_c1_fragmenstein', 'fragmenstein_placed'}

>  <ref_pdb>  (2) 
1

>  <scratch_subdir>  (2) 
/opt/xchem-fragalysis-2/maxwin/BulkDock/SCRATCH/511027/C70478-P1

>  <alias>  (2) 
c1cc2c3c(c1)NCN3CCC2

>  <HIPPO Compound ID>  (2) 
70478

>  <fragmenstein_runtime>  (2) 
0.914108

$$$$
CCn1cnc2cc(Br)cc(C)c21
     RDKit          3D

 13 14  0  0  0  0  0  0  0  0999 V2000
   -2.7179    5.0223  -16.6957 C   0  0  0  0  0  0  0  0  0  0  0  0
   -4.1535    5.2287  -16.2440 C   0  0  0  0  0  0  0  0  0  0  0  0
   -5.1420    5.1710  -17.2951 N   0  0  0  0  0  0  0  0  0  0  0  0
   -4.8874    5.2819  -18.6318 C   0  0  0  0  0  0  0  0  0  0  0  0
   -5.9591    5.0808  -19.3472 N   0  0  0  0  0  0  0  0  0  0  0  0
   -6.9562    4.8635  -18.4405 C   0  0  0  0  0  0  0  0  0  0  0  0
   -8.2941    4.5883  -18.6911 C   0  0  0  0  0  0  0  0  0  0  0  0
   -9.1436    4.4772  -17.6068 C   0  0  0  0  0  0  0  0  0  0  0  0
  -10.9633    4.3250  -17.9606 Br  0  0  0  0  0  0  0  0  0  0  0  0
   -8.6900    4.5659  -16.2959 C   0  0  0  0  0  0  0  0  0  0  0  0
   -7.3405    4.8224  -16.0033 C   0  0  0  0  0  0  0  0  0  0  0  0
   -6.9187    4.8986  -14.5660 C   0  0  0  0  0  0  0  0  0  0  0  0
   -6.4941    4.9610  -17.1260 C   0  0  0  0  0  0  0  0  0  0  0  0
  1  2  1  0
  2  3  1  0
  3  4  1  0
  4  5  2  0
  5  6  1  0
  6  7  2  0
  7  8  1  0
  8  9  1  0
  8 10  2  0
 10 11  1  0
 11 12  1  0
 11 13  2  0
 13  3  1  0
 13  6  1  0
M  END
>  <smiles>  (3) 
C70482-P1

>  <fragmenstein_outcome>  (3) 
acceptable

>  <inchikey>  (3) 
OEVBXDCBFLNYQW-UHFFFAOYSA-N

>  <fragmenstein_mode>  (3) 
expansion

>  <HIPPO Pose ID>  (3) 
343

>  <Energy>  (3) 
12.1645

>  <fragmenstein_error>  (3) 


>  <tags>  (3) 
{'openbind_xx01zvns2b_c1_fragmenstein', 'fragmenstein_placed'}

>  <ref_pdb>  (3) 
1

>  <scratch_subdir>  (3) 
/opt/xchem-fragalysis-2/maxwin/BulkDock/SCRATCH/511027/C70482-P1

>  <alias>  (3) 
CCn1cnc2cc(Br)cc(C)c21

>  <HIPPO Compound ID>  (3) 
70482

>  <fragmenstein_runtime>  (3) 
0.685617

$$$$
CCn1cnc2cccc(CNC(C)=O)c21
     RDKit          3D

 16 17  0  0  0  0  0  0  0  0999 V2000
   -3.2714    4.6459  -16.5281 C   0  0  0  0  0  0  0  0  0  0  0  0
   -4.3624    5.6974  -16.6236 C   0  0  0  0  0  0  0  0  0  0  0  0
   -5.4627    5.2846  -17.4611 N   0  0  0  0  0  0  0  0  0  0  0  0
   -5.3526    5.2667  -18.8247 C   0  0  0  0  0  0  0  0  0  0  0  0
   -6.4796    4.9508  -19.3946 N   0  0  0  0  0  0  0  0  0  0  0  0
   -7.3609    4.7586  -18.3699 C   0  0  0  0  0  0  0  0  0  0  0  0
   -8.7218    4.4483  -18.4736 C   0  0  0  0  0  0  0  0  0  0  0  0
   -9.4572    4.2815  -17.3114 C   0  0  0  0  0  0  0  0  0  0  0  0
   -8.8351    4.4083  -16.0705 C   0  0  0  0  0  0  0  0  0  0  0  0
   -7.4646    4.7414  -15.9070 C   0  0  0  0  0  0  0  0  0  0  0  0
   -6.9825    4.9610  -14.4932 C   0  0  0  0  0  0  0  0  0  0  0  0
   -5.9222    4.1046  -14.0345 N   0  0  0  0  0  0  0  0  0  0  0  0
   -5.9707    2.6751  -13.4354 C   0  0  0  0  0  0  0  0  0  0  0  0
   -4.5321    2.2880  -13.1584 C   0  0  0  0  0  0  0  0  0  0  0  0
   -6.8822    2.0051  -13.1516 O   0  0  0  0  0  0  0  0  0  0  0  0
   -6.7494    4.9256  -17.1163 C   0  0  0  0  0  0  0  0  0  0  0  0
  1  2  1  0
  2  3  1  0
  3  4  1  0
  4  5  2  0
  5  6  1  0
  6  7  2  0
  7  8  1  0
  8  9  2  0
  9 10  1  0
 10 11  1  0
 11 12  1  0
 12 13  1  0
 13 14  1  0
 13 15  2  0
 10 16  2  0
 16  3  1  0
 16  6  1  0
M  END
>  <smiles>  (4) 
C70488-P1

>  <fragmenstein_outcome>  (4) 
acceptable

>  <inchikey>  (4) 
FYJTXJIOXUVZMV-UHFFFAOYSA-N

>  <fragmenstein_mode>  (4) 
expansion

>  <HIPPO Pose ID>  (4) 
345

>  <Energy>  (4) 
8.117078

>  <fragmenstein_error>  (4) 


>  <tags>  (4) 
{'openbind_xx01zvns2b_c1_fragmenstein', 'fragmenstein_placed'}

>  <ref_pdb>  (4) 
1

>  <scratch_subdir>  (4) 
/opt/xchem-fragalysis-2/maxwin/BulkDock/SCRATCH/511027/C70488-P1

>  <alias>  (4) 
CCn1cnc2cccc(CNC(C)=O)c21

>  <HIPPO Compound ID>  (4) 
92907

>  <fragmenstein_runtime>  (4) 
1.349455

$$$$
CC(O)(O)n1cnc2ccccc21
     RDKit          3D

 13 14  0  0  0  0  0  0  0  0999 V2000
   -3.0486    4.7280  -16.7767 C   0  0  0  0  0  0  0  0  0  0  0  0
   -4.3976    5.2567  -16.3021 C   0  0  0  0  0  0  0  0  0  0  0  0
   -4.7484    4.5435  -15.1213 O   0  0  0  0  0  0  0  0  0  0  0  0
   -4.2186    6.6114  -15.9323 O   0  0  0  0  0  0  0  0  0  0  0  0
   -5.4629    5.1741  -17.3018 N   0  0  0  0  0  0  0  0  0  0  0  0
   -5.2745    5.2979  -18.6524 C   0  0  0  0  0  0  0  0  0  0  0  0
   -6.3745    5.0715  -19.3223 N   0  0  0  0  0  0  0  0  0  0  0  0
   -7.3398    4.8457  -18.3821 C   0  0  0  0  0  0  0  0  0  0  0  0
   -8.7002    4.5520  -18.5556 C   0  0  0  0  0  0  0  0  0  0  0  0
   -9.5023    4.3729  -17.4284 C   0  0  0  0  0  0  0  0  0  0  0  0
   -8.9568    4.4886  -16.1513 C   0  0  0  0  0  0  0  0  0  0  0  0
   -7.6075    4.7945  -15.9543 C   0  0  0  0  0  0  0  0  0  0  0  0
   -6.8106    4.9483  -17.0955 C   0  0  0  0  0  0  0  0  0  0  0  0
  1  2  1  0
  2  3  1  0
  2  4  1  0
  2  5  1  0
  5  6  1  0
  6  7  2  0
  7  8  1  0
  8  9  2  0
  9 10  1  0
 10 11  2  0
 11 12  1  0
 12 13  2  0
 13  5  1  0
 13  8  1  0
M  END
>  <smiles>  (5) 
C70490-P1

>  <fragmenstein_outcome>  (5) 
acceptable

>  <inchikey>  (5) 
VIASGGTUXBHUOR-UHFFFAOYSA-N

>  <fragmenstein_mode>  (5) 
expansion

>  <HIPPO Pose ID>  (5) 
347

>  <Energy>  (5) 
-4.433906

>  <fragmenstein_error>  (5) 


>  <tags>  (5) 
{'openbind_xx01zvns2b_c1_fragmenstein', 'fragmenstein_placed'}

>  <ref_pdb>  (5) 
1

>  <scratch_subdir>  (5) 
/opt/xchem-fragalysis-2/maxwin/BulkDock/SCRATCH/511027/C70490-P1

>  <alias>  (5) 
CC(O)(O)n1cnc2ccccc21

>  <HIPPO Compound ID>  (5) 
86715

>  <fragmenstein_runtime>  (5) 
0.895402

$$$$
CCn1c(NCCN[C@@H](C)c2cn(-c3ccccc3)nn2)nc2ccccc21
     RDKit          3D

 28 31  0  0  0  0  0  0  0  0999 V2000
   -3.2891    4.7043  -16.5715 C   0  0  0  0  0  0  0  0  0  0  0  0
   -4.4530    5.6402  -16.2894 C   0  0  0  0  0  0  0  0  0  0  0  0
   -5.5063    5.5530  -17.2752 N   0  0  0  0  0  0  0  0  0  0  0  0
   -5.4258    6.0368  -18.5562 C   0  0  0  0  0  0  0  0  0  0  0  0
   -4.3717    6.7946  -18.9514 N   0  0  0  0  0  0  0  0  0  0  0  0
   -3.7691    6.3661  -20.2216 C   0  0  0  0  0  0  0  0  0  0  0  0
   -4.2253    7.2244  -21.4281 C   0  0  0  0  0  0  0  0  0  0  0  0
   -3.3072    7.0478  -22.5754 N   0  0  0  0  0  0  0  0  0  0  0  0
   -3.4679    8.1207  -23.5811 C   0  0  1  0  0  0  0  0  0  0  0  0
   -2.1444    8.2612  -24.3424 C   0  0  0  0  0  0  0  0  0  0  0  0
   -4.5919    7.8762  -24.5365 C   0  0  0  0  0  0  0  0  0  0  0  0
   -5.7143    8.6439  -24.7767 C   0  0  0  0  0  0  0  0  0  0  0  0
   -6.3515    8.0269  -25.8309 N   0  0  0  0  0  0  0  0  0  0  0  0
   -7.5524    8.4073  -26.4831 C   0  0  0  0  0  0  0  0  0  0  0  0
   -8.0853    9.6953  -26.3286 C   0  0  0  0  0  0  0  0  0  0  0  0
   -9.3117   10.0233  -26.9182 C   0  0  0  0  0  0  0  0  0  0  0  0
  -10.0047    9.0729  -27.6657 C   0  0  0  0  0  0  0  0  0  0  0  0
   -9.4587    7.8040  -27.8521 C   0  0  0  0  0  0  0  0  0  0  0  0
   -8.2335    7.4700  -27.2703 C   0  0  0  0  0  0  0  0  0  0  0  0
   -5.6265    6.9563  -26.2259 N   0  0  0  0  0  0  0  0  0  0  0  0
   -4.5556    6.8585  -25.4505 N   0  0  0  0  0  0  0  0  0  0  0  0
   -6.5078    5.7730  -19.2330 N   0  0  0  0  0  0  0  0  0  0  0  0
   -7.3652    5.1712  -18.3454 C   0  0  0  0  0  0  0  0  0  0  0  0
   -8.6852    4.7301  -18.5267 C   0  0  0  0  0  0  0  0  0  0  0  0
   -9.4155    4.3075  -17.4148 C   0  0  0  0  0  0  0  0  0  0  0  0
   -8.8235    4.2753  -16.1538 C   0  0  0  0  0  0  0  0  0  0  0  0
   -7.4856    4.6328  -15.9611 C   0  0  0  0  0  0  0  0  0  0  0  0
   -6.7851    5.0891  -17.0810 C   0  0  0  0  0  0  0  0  0  0  0  0
  1  2  1  0
  2  3  1  0
  3  4  1  0
  4  5  1  0
  5  6  1  0
  6  7  1  0
  7  8  1  0
  8  9  1  0
  9 10  1  6
  9 11  1  0
 11 12  2  0
 12 13  1  0
 13 14  1  0
 14 15  2  0
 15 16  1  0
 16 17  2  0
 17 18  1  0
 18 19  2  0
 13 20  1  0
 20 21  2  0
  4 22  2  0
 22 23  1  0
 23 24  2  0
 24 25  1  0
 25 26  2  0
 26 27  1  0
 27 28  2  0
 28  3  1  0
 21 11  1  0
 28 23  1  0
 19 14  1  0
M  END
>  <smiles>  (6) 
C70493-P1

>  <fragmenstein_outcome>  (6) 
acceptable

>  <inchikey>  (6) 
VVAGDYMGOHXXQC-UHFFFAOYSA-N

>  <fragmenstein_mode>  (6) 
expansion

>  <HIPPO Pose ID>  (6) 
349

>  <Energy>  (6) 
64.888418

>  <fragmenstein_error>  (6) 


>  <tags>  (6) 
{'openbind_xx01zvns2b_c1_fragmenstein', 'fragmenstein_placed'}

>  <ref_pdb>  (6) 
1

>  <scratch_subdir>  (6) 
/opt/xchem-fragalysis-2/maxwin/BulkDock/SCRATCH/511027/C70493-P1

>  <alias>  (6) 
CCn1c(NCCN[C@@H](C)c2cn(-c3ccccc3)nn2)nc2ccccc21

>  <HIPPO Compound ID>  (6) 
104341

>  <fragmenstein_runtime>  (6) 
2.441947

$$$$
CCn1cnc2ccc(NCCc3ccc(CNc4nc5ccccc5[nH]4)c(O)c3)cc21
     RDKit          3D

 32 36  0  0  0  0  0  0  0  0999 V2000
   -3.0793    4.5698  -16.8740 C   0  0  0  0  0  0  0  0  0  0  0  0
   -4.0463    5.6959  -17.1667 C   0  0  0  0  0  0  0  0  0  0  0  0
   -5.1922    5.2578  -17.9269 N   0  0  0  0  0  0  0  0  0  0  0  0
   -5.2697    5.2077  -19.2831 C   0  0  0  0  0  0  0  0  0  0  0  0
   -6.4696    4.8618  -19.6804 N   0  0  0  0  0  0  0  0  0  0  0  0
   -7.2100    4.7058  -18.5473 C   0  0  0  0  0  0  0  0  0  0  0  0
   -8.5706    4.4030  -18.3960 C   0  0  0  0  0  0  0  0  0  0  0  0
   -9.0907    4.3192  -17.1007 C   0  0  0  0  0  0  0  0  0  0  0  0
   -8.2561    4.5003  -15.9900 C   0  0  0  0  0  0  0  0  0  0  0  0
   -8.7768    4.6800  -14.6883 N   0  0  0  0  0  0  0  0  0  0  0  0
   -9.0585    6.1081  -14.5262 C   0  0  0  0  0  0  0  0  0  0  0  0
   -8.8191    6.5293  -13.0926 C   0  0  0  0  0  0  0  0  0  0  0  0
   -9.5295    7.7782  -12.6213 C   0  0  0  0  0  0  0  0  0  0  0  0
   -9.0638    8.2982  -11.4039 C   0  0  0  0  0  0  0  0  0  0  0  0
   -9.8023    9.2448  -10.7134 C   0  0  0  0  0  0  0  0  0  0  0  0
  -11.0191    9.6877  -11.2347 C   0  0  0  0  0  0  0  0  0  0  0  0
  -11.9420   10.4975  -10.3845 C   0  0  0  0  0  0  0  0  0  0  0  0
  -11.4342   11.8469  -10.2193 N   0  0  0  0  0  0  0  0  0  0  0  0
  -12.3344   12.7399   -9.7724 C   0  0  0  0  0  0  0  0  0  0  0  0
  -12.5673   13.9207  -10.2783 N   0  0  0  0  0  0  0  0  0  0  0  0
  -13.6255   14.3966   -9.5568 C   0  0  0  0  0  0  0  0  0  0  0  0
  -14.3795   15.5479   -9.7525 C   0  0  0  0  0  0  0  0  0  0  0  0
  -15.4370   15.8178   -8.8961 C   0  0  0  0  0  0  0  0  0  0  0  0
  -15.6823   15.0030   -7.7945 C   0  0  0  0  0  0  0  0  0  0  0  0
  -14.9715   13.8144   -7.6010 C   0  0  0  0  0  0  0  0  0  0  0  0
  -13.9838   13.5318   -8.5358 C   0  0  0  0  0  0  0  0  0  0  0  0
  -13.1837   12.4482   -8.7385 N   0  0  0  0  0  0  0  0  0  0  0  0
  -11.4230    9.2794  -12.5033 C   0  0  0  0  0  0  0  0  0  0  0  0
  -12.5697    9.8245  -12.9884 O   0  0  0  0  0  0  0  0  0  0  0  0
  -10.6975    8.3207  -13.1983 C   0  0  0  0  0  0  0  0  0  0  0  0
   -6.8939    4.7809  -16.1369 C   0  0  0  0  0  0  0  0  0  0  0  0
   -6.4147    4.9081  -17.4277 C   0  0  0  0  0  0  0  0  0  0  0  0
  1  2  1  0
  2  3  1  0
  3  4  1  0
  4  5  2  0
  5  6  1  0
  6  7  2  0
  7  8  1  0
  8  9  2  0
  9 10  1  0
 10 11  1  0
 11 12  1  0
 12 13  1  0
 13 14  2  0
 14 15  1  0
 15 16  2  0
 16 17  1  0
 17 18  1  0
 18 19  1  0
 19 20  2  0
 20 21  1  0
 21 22  2  0
 22 23  1  0
 23 24  2  0
 24 25  1  0
 25 26  2  0
 26 27  1  0
 16 28  1  0
 28 29  1  0
 28 30  2  0
  9 31  1  0
 31 32  2  0
 32  3  1  0
 32  6  1  0
 30 13  1  0
 27 19  1  0
 26 21  1  0
M  END
>  <smiles>  (7) 
C70496-P1

>  <fragmenstein_outcome>  (7) 
acceptable

>  <inchikey>  (7) 
AKJGWODDFBYWDW-UHFFFAOYSA-N

>  <fragmenstein_mode>  (7) 
expansion

>  <HIPPO Pose ID>  (7) 
351

>  <Energy>  (7) 
27.033515

>  <fragmenstein_error>  (7) 


>  <tags>  (7) 
{'openbind_xx01zvns2b_c1_fragmenstein', 'fragmenstein_placed'}

>  <ref_pdb>  (7) 
1

>  <scratch_subdir>  (7) 
/opt/xchem-fragalysis-2/maxwin/BulkDock/SCRATCH/511027/C70496-P1

>  <alias>  (7) 
CCn1cnc2ccc(NCCc3ccc(CNc4nc5ccccc5[nH]4)c(O)c3)cc21

>  <HIPPO Compound ID>  (7) 
70496

>  <fragmenstein_runtime>  (7) 
6.57865

$$$$
CCn1c(NCc2ccc(CNc3nc4ccccc4[nH]3)c(O)c2)nc2ccccc21
     RDKit          3D

 31 35  0  0  0  0  0  0  0  0999 V2000
   -3.2474    4.7888  -16.6242 C   0  0  0  0  0  0  0  0  0  0  0  0
   -4.4298    5.6722  -16.2596 C   0  0  0  0  0  0  0  0  0  0  0  0
   -5.4908    5.6219  -17.2395 N   0  0  0  0  0  0  0  0  0  0  0  0
   -5.4380    6.1874  -18.4887 C   0  0  0  0  0  0  0  0  0  0  0  0
   -4.4590    7.0731  -18.8157 N   0  0  0  0  0  0  0  0  0  0  0  0
   -3.7631    6.7852  -20.0689 C   0  0  0  0  0  0  0  0  0  0  0  0
   -4.1773    7.7364  -21.1675 C   0  0  0  0  0  0  0  0  0  0  0  0
   -3.4796    8.9186  -21.4277 C   0  0  0  0  0  0  0  0  0  0  0  0
   -3.8904    9.7725  -22.4619 C   0  0  0  0  0  0  0  0  0  0  0  0
   -4.9916    9.4532  -23.2745 C   0  0  0  0  0  0  0  0  0  0  0  0
   -5.4550   10.4036  -24.3537 C   0  0  0  0  0  0  0  0  0  0  0  0
   -5.3425    9.8505  -25.6978 N   0  0  0  0  0  0  0  0  0  0  0  0
   -6.4256    9.3648  -26.3481 C   0  0  0  0  0  0  0  0  0  0  0  0
   -6.4626    8.2953  -27.1046 N   0  0  0  0  0  0  0  0  0  0  0  0
   -7.7736    8.1660  -27.4977 C   0  0  0  0  0  0  0  0  0  0  0  0
   -8.3844    7.1753  -28.2777 C   0  0  0  0  0  0  0  0  0  0  0  0
   -9.7520    7.2895  -28.5569 C   0  0  0  0  0  0  0  0  0  0  0  0
  -10.5037    8.3545  -28.0521 C   0  0  0  0  0  0  0  0  0  0  0  0
   -9.9139    9.3493  -27.2647 C   0  0  0  0  0  0  0  0  0  0  0  0
   -8.5448    9.2187  -27.0170 C   0  0  0  0  0  0  0  0  0  0  0  0
   -7.6491    9.9810  -26.3135 N   0  0  0  0  0  0  0  0  0  0  0  0
   -5.6700    8.2672  -23.0056 C   0  0  0  0  0  0  0  0  0  0  0  0
   -6.7182    7.8943  -23.7893 O   0  0  0  0  0  0  0  0  0  0  0  0
   -5.3040    7.4522  -21.9404 C   0  0  0  0  0  0  0  0  0  0  0  0
   -6.4954    5.8774  -19.1884 N   0  0  0  0  0  0  0  0  0  0  0  0
   -7.3369    5.2210  -18.3237 C   0  0  0  0  0  0  0  0  0  0  0  0
   -8.6456    4.7521  -18.5194 C   0  0  0  0  0  0  0  0  0  0  0  0
   -9.3714    4.2946  -17.4185 C   0  0  0  0  0  0  0  0  0  0  0  0
   -8.7824    4.2487  -16.1570 C   0  0  0  0  0  0  0  0  0  0  0  0
   -7.4503    4.6220  -15.9541 C   0  0  0  0  0  0  0  0  0  0  0  0
   -6.7576    5.1196  -17.0610 C   0  0  0  0  0  0  0  0  0  0  0  0
  1  2  1  0
  2  3  1  0
  3  4  1  0
  4  5  1  0
  5  6  1  0
  6  7  1  0
  7  8  2  0
  8  9  1  0
  9 10  2  0
 10 11  1  0
 11 12  1  0
 12 13  1  0
 13 14  2  0
 14 15  1  0
 15 16  2  0
 16 17  1  0
 17 18  2  0
 18 19  1  0
 19 20  2  0
 20 21  1  0
 10 22  1  0
 22 23  1  0
 22 24  2  0
  4 25  2  0
 25 26  1  0
 26 27  2  0
 27 28  1  0
 28 29  2  0
 29 30  1  0
 30 31  2  0
 31  3  1  0
 24  7  1  0
 31 26  1  0
 21 13  1  0
 20 15  1  0
M  END
>  <smiles>  (8) 
C70497-P1

>  <fragmenstein_outcome>  (8) 
acceptable

>  <inchikey>  (8) 
OMLZCTZDYQAHGB-UHFFFAOYSA-N

>  <fragmenstein_mode>  (8) 
expansion

>  <HIPPO Pose ID>  (8) 
352

>  <Energy>  (8) 
-14.759428

>  <fragmenstein_error>  (8) 


>  <tags>  (8) 
{'openbind_xx01zvns2b_c1_fragmenstein', 'fragmenstein_placed'}

>  <ref_pdb>  (8) 
1

>  <scratch_subdir>  (8) 
/opt/xchem-fragalysis-2/maxwin/BulkDock/SCRATCH/511027/C70497-P1

>  <alias>  (8) 
CCn1c(NCc2ccc(CNc3nc4ccccc4[nH]3)c(O)c2)nc2ccccc21

>  <HIPPO Compound ID>  (8) 
88329

>  <fragmenstein_runtime>  (8) 
3.779702

$$$$
CCn1cnc2cccc(NCCCc3cnn4c3CNCC4)c21
     RDKit          3D

 24 27  0  0  0  0  0  0  0  0999 V2000
   -2.9573    4.9722  -16.9391 C   0  0  0  0  0  0  0  0  0  0  0  0
   -4.3756    5.0903  -16.4004 C   0  0  0  0  0  0  0  0  0  0  0  0
   -5.4304    5.1015  -17.3895 N   0  0  0  0  0  0  0  0  0  0  0  0
   -5.2590    5.2645  -18.7332 C   0  0  0  0  0  0  0  0  0  0  0  0
   -6.3760    5.1020  -19.3879 N   0  0  0  0  0  0  0  0  0  0  0  0
   -7.3209    4.8409  -18.4345 C   0  0  0  0  0  0  0  0  0  0  0  0
   -8.6784    4.5569  -18.6230 C   0  0  0  0  0  0  0  0  0  0  0  0
   -9.4671    4.3205  -17.5107 C   0  0  0  0  0  0  0  0  0  0  0  0
   -8.9016    4.3730  -16.2373 C   0  0  0  0  0  0  0  0  0  0  0  0
   -7.5441    4.6883  -15.9816 C   0  0  0  0  0  0  0  0  0  0  0  0
   -7.0246    4.7488  -14.6835 N   0  0  0  0  0  0  0  0  0  0  0  0
   -7.9535    4.8534  -13.5738 C   0  0  0  0  0  0  0  0  0  0  0  0
   -7.2846    4.9697  -12.2005 C   0  0  0  0  0  0  0  0  0  0  0  0
   -8.4196    5.2329  -11.2187 C   0  0  0  0  0  0  0  0  0  0  0  0
   -8.1660    5.1091   -9.7639 C   0  0  0  0  0  0  0  0  0  0  0  0
   -7.9188    6.1411   -8.8295 C   0  0  0  0  0  0  0  0  0  0  0  0
   -7.9857    5.7242   -7.5608 N   0  0  0  0  0  0  0  0  0  0  0  0
   -8.2795    4.4149   -7.6859 N   0  0  0  0  0  0  0  0  0  0  0  0
   -8.3394    3.9845   -8.9789 C   0  0  0  0  0  0  0  0  0  0  0  0
   -8.6820    2.5762   -9.3079 C   0  0  0  0  0  0  0  0  0  0  0  0
   -8.7122    1.7103   -8.1315 N   0  0  0  0  0  0  0  0  0  0  0  0
   -9.3432    2.3377   -6.9761 C   0  0  0  0  0  0  0  0  0  0  0  0
   -8.6046    3.5975   -6.5327 C   0  0  0  0  0  0  0  0  0  0  0  0
   -6.7745    4.8857  -17.1470 C   0  0  0  0  0  0  0  0  0  0  0  0
  1  2  1  0
  2  3  1  0
  3  4  1  0
  4  5  2  0
  5  6  1  0
  6  7  2  0
  7  8  1  0
  8  9  2  0
  9 10  1  0
 10 11  1  0
 11 12  1  0
 12 13  1  0
 13 14  1  0
 14 15  1  0
 15 16  1  0
 16 17  2  0
 17 18  1  0
 18 19  1  0
 19 20  1  0
 20 21  1  0
 21 22  1  0
 22 23  1  0
 10 24  2  0
 24  3  1  0
 24  6  1  0
 19 15  2  0
 23 18  1  0
M  END
>  <smiles>  (9) 
C70505-P1

>  <fragmenstein_outcome>  (9) 
acceptable

>  <inchikey>  (9) 
XRHACUVAYITXOV-UHFFFAOYSA-N

>  <fragmenstein_mode>  (9) 
expansion

>  <HIPPO Pose ID>  (9) 
358

>  <Energy>  (9) 
13.123617

>  <fragmenstein_error>  (9) 


>  <tags>  (9) 
{'openbind_xx01zvns2b_c1_fragmenstein', 'fragmenstein_placed'}

>  <ref_pdb>  (9) 
1

>  <scratch_subdir>  (9) 
/opt/xchem-fragalysis-2/maxwin/BulkDock/SCRATCH/511027/C70505-P1

>  <alias>  (9) 
CCn1cnc2cccc(NCCCc3cnn4c3CNCC4)c21

>  <HIPPO Compound ID>  (9) 
99854

>  <fragmenstein_runtime>  (9) 
2.4628

$$$$
CCn1cnc2ccc(Cl)c(Cl)c21
     RDKit          3D

 13 14  0  0  0  0  0  0  0  0999 V2000
   -2.8122    5.0389  -17.5391 C   0  0  0  0  0  0  0  0  0  0  0  0
   -4.1498    5.1463  -16.8281 C   0  0  0  0  0  0  0  0  0  0  0  0
   -5.3286    5.0045  -17.6557 N   0  0  0  0  0  0  0  0  0  0  0  0
   -5.3611    4.9335  -19.0169 C   0  0  0  0  0  0  0  0  0  0  0  0
   -6.5720    4.7196  -19.4635 N   0  0  0  0  0  0  0  0  0  0  0  0
   -7.3710    4.6924  -18.3616 C   0  0  0  0  0  0  0  0  0  0  0  0
   -8.7567    4.4999  -18.2909 C   0  0  0  0  0  0  0  0  0  0  0  0
   -9.3754    4.5467  -17.0400 C   0  0  0  0  0  0  0  0  0  0  0  0
   -8.6233    4.7947  -15.8887 C   0  0  0  0  0  0  0  0  0  0  0  0
   -9.4213    5.0500  -14.3802 Cl  0  0  0  0  0  0  0  0  0  0  0  0
   -7.2314    4.9389  -15.9387 C   0  0  0  0  0  0  0  0  0  0  0  0
   -6.3352    5.2245  -14.4930 Cl  0  0  0  0  0  0  0  0  0  0  0  0
   -6.6255    4.8927  -17.1997 C   0  0  0  0  0  0  0  0  0  0  0  0
  1  2  1  0
  2  3  1  0
  3  4  1  0
  4  5  2  0
  5  6  1  0
  6  7  2  0
  7  8  1  0
  8  9  2  0
  9 10  1  0
  9 11  1  0
 11 12  1  0
 11 13  2  0
 13  3  1  0
 13  6  1  0
M  END
>  <smiles>  (10) 
C70529-P1

>  <fragmenstein_outcome>  (10) 
acceptable

>  <inchikey>  (10) 
DCERVIRPXXXNIH-UHFFFAOYSA-N

>  <fragmenstein_mode>  (10) 
expansion

>  <HIPPO Pose ID>  (10) 
370

>  <Energy>  (10) 
17.489915

>  <fragmenstein_error>  (10) 


>  <tags>  (10) 
{'openbind_xx01zvns2b_c1_fragmenstein', 'fragmenstein_placed'}

>  <ref_pdb>  (10) 
1

>  <scratch_subdir>  (10) 
/opt/xchem-fragalysis-2/maxwin/BulkDock/SCRATCH/511027/C70529-P1

>  <alias>  (10) 
CCn1cnc2ccc(Cl)c(Cl)c21

>  <HIPPO Compound ID>  (10) 
19791

>  <fragmenstein_runtime>  (10) 
0.600127

$$$$
Cc1ccc2c(C(=O)Nc3ccc4c(c3)CNC4)ccc3c2c1C=N3
     RDKit          3D

 25 29  0  0  0  0  0  0  0  0999 V2000
   -3.1453    5.5912  -18.5772 C   0  0  0  0  0  0  0  0  0  0  0  0
   -4.1829    5.2868  -17.5478 C   0  0  0  0  0  0  0  0  0  0  0  0
   -3.8354    4.9843  -16.2142 C   0  0  0  0  0  0  0  0  0  0  0  0
   -4.8138    4.6377  -15.2486 C   0  0  0  0  0  0  0  0  0  0  0  0
   -6.1867    4.6014  -15.5968 C   0  0  0  0  0  0  0  0  0  0  0  0
   -7.3407    4.2650  -14.8537 C   0  0  0  0  0  0  0  0  0  0  0  0
   -7.2476    3.6005  -13.5394 C   0  0  0  0  0  0  0  0  0  0  0  0
   -6.9047    2.4849  -13.5059 O   0  0  0  0  0  0  0  0  0  0  0  0
   -7.7409    4.5314  -12.4088 N   0  0  0  0  0  0  0  0  0  0  0  0
   -7.9961    4.2666  -11.0684 C   0  0  0  0  0  0  0  0  0  0  0  0
   -8.2301    2.9420  -10.6750 C   0  0  0  0  0  0  0  0  0  0  0  0
   -8.5264    2.6215   -9.3514 C   0  0  0  0  0  0  0  0  0  0  0  0
   -8.5203    3.6359   -8.4265 C   0  0  0  0  0  0  0  0  0  0  0  0
   -8.2550    4.9496   -8.8023 C   0  0  0  0  0  0  0  0  0  0  0  0
   -8.0406    5.2971  -10.1299 C   0  0  0  0  0  0  0  0  0  0  0  0
   -8.2377    5.7925   -7.5742 C   0  0  0  0  0  0  0  0  0  0  0  0
   -8.2054    4.8414   -6.4293 N   0  0  0  0  0  0  0  0  0  0  0  0
   -8.7569    3.5598   -6.9595 C   0  0  0  0  0  0  0  0  0  0  0  0
   -8.6306    4.3415  -15.4359 C   0  0  0  0  0  0  0  0  0  0  0  0
   -8.8025    4.6560  -16.7887 C   0  0  0  0  0  0  0  0  0  0  0  0
   -7.6754    4.9244  -17.5281 C   0  0  0  0  0  0  0  0  0  0  0  0
   -6.4537    4.9152  -16.9216 C   0  0  0  0  0  0  0  0  0  0  0  0
   -5.5246    5.2222  -17.8627 C   0  0  0  0  0  0  0  0  0  0  0  0
   -6.2941    5.4065  -19.0870 C   0  0  0  0  0  0  0  0  0  0  0  0
   -7.5683    5.2341  -18.8866 N   0  0  0  0  0  0  0  0  0  0  0  0
  1  2  1  0
  2  3  2  0
  3  4  1  0
  4  5  2  0
  5  6  1  0
  6  7  1  0
  7  8  2  0
  7  9  1  0
  9 10  1  0
 10 11  2  0
 11 12  1  0
 12 13  2  0
 13 14  1  0
 14 15  2  0
 14 16  1  0
 16 17  1  0
 17 18  1  0
  6 19  2  0
 19 20  1  0
 20 21  2  0
 21 22  1  0
 22 23  2  0
 23 24  1  0
 24 25  2  0
 23  2  1  0
 22  5  1  0
 15 10  1  0
 25 21  1  0
 18 13  1  0
M  END
>  <smiles>  (11) 
C70569-P1

>  <fragmenstein_outcome>  (11) 
acceptable

>  <inchikey>  (11) 
IZJCLGIGPIBRIF-UHFFFAOYSA-N

>  <fragmenstein_mode>  (11) 
expansion

>  <HIPPO Pose ID>  (11) 
391

>  <Energy>  (11) 
96.696648

>  <fragmenstein_error>  (11) 


>  <tags>  (11) 
{'openbind_xx01zvns2b_c1_fragmenstein', 'fragmenstein_placed'}

>  <ref_pdb>  (11) 
1

>  <scratch_subdir>  (11) 
/opt/xchem-fragalysis-2/maxwin/BulkDock/SCRATCH/511027/C70569-P1

>  <alias>  (11) 
Cc1ccc2c(C(=O)Nc3ccc4c(c3)CNC4)ccc3c2c1C=N3

>  <HIPPO Compound ID>  (11) 
79261

>  <fragmenstein_runtime>  (11) 
4.173537

$$$$
CCn1cnc2cc(Cl)cc([C@@H](Nc3ccc4c(c3)C(=O)OC4)C(=O)NC)c21
     RDKit          3D

 28 31  0  0  0  0  0  0  0  0999 V2000
   -2.5716    4.8193  -15.2908 C   0  0  0  0  0  0  0  0  0  0  0  0
   -3.8786    5.5927  -15.1933 C   0  0  0  0  0  0  0  0  0  0  0  0
   -4.8082    5.3426  -16.2686 N   0  0  0  0  0  0  0  0  0  0  0  0
   -4.4437    5.6508  -17.5537 C   0  0  0  0  0  0  0  0  0  0  0  0
   -5.4260    5.5014  -18.3902 N   0  0  0  0  0  0  0  0  0  0  0  0
   -6.4732    5.0698  -17.6229 C   0  0  0  0  0  0  0  0  0  0  0  0
   -7.7553    4.7940  -18.0895 C   0  0  0  0  0  0  0  0  0  0  0  0
   -8.7142    4.4317  -17.1679 C   0  0  0  0  0  0  0  0  0  0  0  0
  -10.3080    4.1672  -17.7398 Cl  0  0  0  0  0  0  0  0  0  0  0  0
   -8.4012    4.2943  -15.8122 C   0  0  0  0  0  0  0  0  0  0  0  0
   -7.0896    4.4798  -15.2776 C   0  0  0  0  0  0  0  0  0  0  0  0
   -6.8265    4.1980  -13.7670 C   0  0  1  0  0  0  0  0  0  0  0  0
   -8.0914    3.9057  -13.0052 N   0  0  0  0  0  0  0  0  0  0  0  0
   -8.2554    4.1961  -11.6439 C   0  0  0  0  0  0  0  0  0  0  0  0
   -7.7849    5.3877  -11.0682 C   0  0  0  0  0  0  0  0  0  0  0  0
   -7.7900    5.5824   -9.6789 C   0  0  0  0  0  0  0  0  0  0  0  0
   -8.2560    4.5637   -8.8666 C   0  0  0  0  0  0  0  0  0  0  0  0
   -8.7515    3.4026   -9.4124 C   0  0  0  0  0  0  0  0  0  0  0  0
   -8.7960    3.2103  -10.7860 C   0  0  0  0  0  0  0  0  0  0  0  0
   -9.1777    2.5236   -8.3184 C   0  0  0  0  0  0  0  0  0  0  0  0
   -9.6873    1.4265   -8.3810 O   0  0  0  0  0  0  0  0  0  0  0  0
   -8.9504    3.2109   -7.1555 O   0  0  0  0  0  0  0  0  0  0  0  0
   -8.3292    4.4817   -7.3967 C   0  0  0  0  0  0  0  0  0  0  0  0
   -5.6718    3.0875  -13.5333 C   0  0  0  0  0  0  0  0  0  0  0  0
   -4.7282    3.0548  -14.2191 O   0  0  0  0  0  0  0  0  0  0  0  0
   -6.0232    2.2628  -12.2739 N   0  0  0  0  0  0  0  0  0  0  0  0
   -5.2515    1.3012  -11.5472 C   0  0  0  0  0  0  0  0  0  0  0  0
   -6.1389    4.9400  -16.2579 C   0  0  0  0  0  0  0  0  0  0  0  0
  1  2  1  0
  2  3  1  0
  3  4  1  0
  4  5  2  0
  5  6  1  0
  6  7  2  0
  7  8  1  0
  8  9  1  0
  8 10  2  0
 10 11  1  0
 11 12  1  0
 12 13  1  6
 13 14  1  0
 14 15  2  0
 15 16  1  0
 16 17  2  0
 17 18  1  0
 18 19  2  0
 18 20  1  0
 20 21  2  0
 20 22  1  0
 22 23  1  0
 12 24  1  0
 24 25  2  0
 24 26  1  0
 26 27  1  0
 11 28  2  0
 28  3  1  0
 28  6  1  0
 19 14  1  0
 23 17  1  0
M  END
>  <smiles>  (12) 
C70573-P1

>  <fragmenstein_outcome>  (12) 
acceptable

>  <inchikey>  (12) 
PAZPXPIGACEFPX-UHFFFAOYSA-N

>  <fragmenstein_mode>  (12) 
expansion

>  <HIPPO Pose ID>  (12) 
395

>  <Energy>  (12) 
100.579535

>  <fragmenstein_error>  (12) 


>  <tags>  (12) 
{'openbind_xx01zvns2b_c1_fragmenstein', 'fragmenstein_placed'}

>  <ref_pdb>  (12) 
1

>  <scratch_subdir>  (12) 
/opt/xchem-fragalysis-2/maxwin/BulkDock/SCRATCH/511027/C70573-P1

>  <alias>  (12) 
CCn1cnc2cc(Cl)cc([C@@H](Nc3ccc4c(c3)C(=O)OC4)C(=O)NC)c21

>  <HIPPO Compound ID>  (12) 
80542

>  <fragmenstein_runtime>  (12) 
5.892828

$$$$
CCn1c[n+]([O-])c2cccc(C(=O)Nc3ccc4c(c3)CNC4)c21
     RDKit          3D

 24 27  0  0  0  0  0  0  0  0999 V2000
   -3.0009    4.5792  -15.2597 C   0  0  0  0  0  0  0  0  0  0  0  0
   -4.3382    5.2559  -14.9697 C   0  0  0  0  0  0  0  0  0  0  0  0
   -5.1434    5.3895  -16.1664 N   0  0  0  0  0  0  0  0  0  0  0  0
   -4.6505    5.6441  -17.4042 C   0  0  0  0  0  0  0  0  0  0  0  0
   -5.6444    5.3559  -18.3947 N   0  0  0  0  0  0  0  0  0  0  0  0
   -5.3138    5.5025  -19.5891 O   0  0  0  0  0  0  0  0  0  0  0  0
   -6.7726    4.9839  -17.7541 C   0  0  0  0  0  0  0  0  0  0  0  0
   -8.0172    4.6078  -18.2615 C   0  0  0  0  0  0  0  0  0  0  0  0
   -9.0292    4.3364  -17.3391 C   0  0  0  0  0  0  0  0  0  0  0  0
   -8.8089    4.4822  -15.9655 C   0  0  0  0  0  0  0  0  0  0  0  0
   -7.5612    4.8789  -15.4494 C   0  0  0  0  0  0  0  0  0  0  0  0
   -7.4546    5.3122  -14.0276 C   0  0  0  0  0  0  0  0  0  0  0  0
   -6.9687    6.3569  -13.8276 O   0  0  0  0  0  0  0  0  0  0  0  0
   -8.0800    4.2915  -13.0449 N   0  0  0  0  0  0  0  0  0  0  0  0
   -8.1499    4.3010  -11.6490 C   0  0  0  0  0  0  0  0  0  0  0  0
   -7.8860    5.4771  -10.9277 C   0  0  0  0  0  0  0  0  0  0  0  0
   -7.9823    5.5048   -9.5311 C   0  0  0  0  0  0  0  0  0  0  0  0
   -8.3316    4.3400   -8.8752 C   0  0  0  0  0  0  0  0  0  0  0  0
   -8.5698    3.1659   -9.5804 C   0  0  0  0  0  0  0  0  0  0  0  0
   -8.4977    3.1329  -10.9664 C   0  0  0  0  0  0  0  0  0  0  0  0
   -8.8382    2.0667   -8.6033 C   0  0  0  0  0  0  0  0  0  0  0  0
   -9.1458    2.7536   -7.3193 N   0  0  0  0  0  0  0  0  0  0  0  0
   -8.4895    4.0747   -7.4157 C   0  0  0  0  0  0  0  0  0  0  0  0
   -6.4982    5.0826  -16.3583 C   0  0  0  0  0  0  0  0  0  0  0  0
  1  2  1  0
  2  3  1  0
  3  4  1  0
  4  5  2  0
  5  6  1  0
  5  7  1  0
  7  8  2  0
  8  9  1  0
  9 10  2  0
 10 11  1  0
 11 12  1  0
 12 13  2  0
 12 14  1  0
 14 15  1  0
 15 16  2  0
 16 17  1  0
 17 18  2  0
 18 19  1  0
 19 20  2  0
 19 21  1  0
 21 22  1  0
 22 23  1  0
 11 24  2  0
 24  3  1  0
 24  7  1  0
 20 15  1  0
 23 18  1  0
M  CHG  2   5   1   6  -1
M  END
>  <smiles>  (13) 
C70574-P1

>  <fragmenstein_outcome>  (13) 
acceptable

>  <inchikey>  (13) 
CHJYVTCQEOZSTM-UHFFFAOYSA-N

>  <fragmenstein_mode>  (13) 
expansion

>  <HIPPO Pose ID>  (13) 
396

>  <Energy>  (13) 
76.620975

>  <fragmenstein_error>  (13) 


>  <tags>  (13) 
{'openbind_xx01zvns2b_c1_fragmenstein', 'fragmenstein_placed'}

>  <ref_pdb>  (13) 
1

>  <scratch_subdir>  (13) 
/opt/xchem-fragalysis-2/maxwin/BulkDock/SCRATCH/511027/C70574-P1

>  <alias>  (13) 
CCn1c[n+]([O-])c2cccc(C(=O)Nc3ccc4c(c3)CNC4)c21

>  <HIPPO Compound ID>  (13) 
39621

>  <fragmenstein_runtime>  (13) 
2.323795

$$$$
CCCn1cnc2cccc(C(=O)Nc3ccc4c(c3)CNC4)c21
     RDKit          3D

 24 27  0  0  0  0  0  0  0  0999 V2000
   -3.5582    3.4947  -14.4097 C   0  0  0  0  0  0  0  0  0  0  0  0
   -3.2230    4.6644  -15.3265 C   0  0  0  0  0  0  0  0  0  0  0  0
   -4.3430    5.7130  -15.3033 C   0  0  0  0  0  0  0  0  0  0  0  0
   -5.2860    5.5185  -16.3858 N   0  0  0  0  0  0  0  0  0  0  0  0
   -4.8919    5.6492  -17.6925 C   0  0  0  0  0  0  0  0  0  0  0  0
   -5.8273    5.2853  -18.5240 N   0  0  0  0  0  0  0  0  0  0  0  0
   -6.8974    4.9587  -17.7343 C   0  0  0  0  0  0  0  0  0  0  0  0
   -8.1691    4.5326  -18.1462 C   0  0  0  0  0  0  0  0  0  0  0  0
   -9.1456    4.2875  -17.1848 C   0  0  0  0  0  0  0  0  0  0  0  0
   -8.8620    4.4873  -15.8356 C   0  0  0  0  0  0  0  0  0  0  0  0
   -7.6017    4.9337  -15.3937 C   0  0  0  0  0  0  0  0  0  0  0  0
   -7.4640    5.3720  -13.9786 C   0  0  0  0  0  0  0  0  0  0  0  0
   -7.0268    6.4388  -13.7806 O   0  0  0  0  0  0  0  0  0  0  0  0
   -8.0425    4.3233  -12.9919 N   0  0  0  0  0  0  0  0  0  0  0  0
   -8.1126    4.3324  -11.5954 C   0  0  0  0  0  0  0  0  0  0  0  0
   -7.8828    5.5084  -10.8642 C   0  0  0  0  0  0  0  0  0  0  0  0
   -8.0032    5.5244   -9.4680 C   0  0  0  0  0  0  0  0  0  0  0  0
   -8.3464    4.3505   -8.8233 C   0  0  0  0  0  0  0  0  0  0  0  0
   -8.5554    3.1777   -9.5390 C   0  0  0  0  0  0  0  0  0  0  0  0
   -8.4534    3.1541  -10.9232 C   0  0  0  0  0  0  0  0  0  0  0  0
   -8.8358    2.0692   -8.5759 C   0  0  0  0  0  0  0  0  0  0  0  0
   -9.1678    2.7435   -7.2910 N   0  0  0  0  0  0  0  0  0  0  0  0
   -8.5251    4.0728   -7.3682 C   0  0  0  0  0  0  0  0  0  0  0  0
   -6.6089    5.1386  -16.3726 C   0  0  0  0  0  0  0  0  0  0  0  0
  1  2  1  0
  2  3  1  0
  3  4  1  0
  4  5  1  0
  5  6  2  0
  6  7  1  0
  7  8  2  0
  8  9  1  0
  9 10  2  0
 10 11  1  0
 11 12  1  0
 12 13  2  0
 12 14  1  0
 14 15  1  0
 15 16  2  0
 16 17  1  0
 17 18  2  0
 18 19  1  0
 19 20  2  0
 19 21  1  0
 21 22  1  0
 22 23  1  0
 11 24  2  0
 24  4  1  0
 24  7  1  0
 20 15  1  0
 23 18  1  0
M  END
>  <smiles>  (14) 
C70579-P1

>  <fragmenstein_outcome>  (14) 
acceptable

>  <inchikey>  (14) 
KJONBVVHFCBSAO-UHFFFAOYSA-N

>  <fragmenstein_mode>  (14) 
expansion

>  <HIPPO Pose ID>  (14) 
399

>  <Energy>  (14) 
45.738938

>  <fragmenstein_error>  (14) 


>  <tags>  (14) 
{'openbind_xx01zvns2b_c1_fragmenstein', 'fragmenstein_placed'}

>  <ref_pdb>  (14) 
1

>  <scratch_subdir>  (14) 
/opt/xchem-fragalysis-2/maxwin/BulkDock/SCRATCH/511027/C70579-P1

>  <alias>  (14) 
CCCn1cnc2cccc(C(=O)Nc3ccc4c(c3)CNC4)c21

>  <HIPPO Compound ID>  (14) 
96013

>  <fragmenstein_runtime>  (14) 
5.86856

$$$$
Cc1nc2c(C(=O)Nc3ccc4c(c3)CNC4)ccc3ncn1c32
     RDKit          3D

 24 28  0  0  0  0  0  0  0  0999 V2000
  -10.9260    4.5930  -18.0112 C   0  0  0  0  0  0  0  0  0  0  0  0
   -9.6470    4.4745  -17.3061 C   0  0  0  0  0  0  0  0  0  0  0  0
   -9.3848    4.6607  -15.9855 N   0  0  0  0  0  0  0  0  0  0  0  0
   -8.0027    4.8062  -15.8722 C   0  0  0  0  0  0  0  0  0  0  0  0
   -6.9887    5.1607  -14.9872 C   0  0  0  0  0  0  0  0  0  0  0  0
   -7.2314    5.6000  -13.6076 C   0  0  0  0  0  0  0  0  0  0  0  0
   -6.8362    6.6601  -13.3141 O   0  0  0  0  0  0  0  0  0  0  0  0
   -7.8987    4.5048  -12.7443 N   0  0  0  0  0  0  0  0  0  0  0  0
   -8.1255    4.4481  -11.3685 C   0  0  0  0  0  0  0  0  0  0  0  0
   -7.9500    5.5909  -10.5718 C   0  0  0  0  0  0  0  0  0  0  0  0
   -8.0958    5.5299   -9.1827 C   0  0  0  0  0  0  0  0  0  0  0  0
   -8.4084    4.3118   -8.6098 C   0  0  0  0  0  0  0  0  0  0  0  0
   -8.5889    3.1787   -9.3926 C   0  0  0  0  0  0  0  0  0  0  0  0
   -8.4658    3.2296  -10.7753 C   0  0  0  0  0  0  0  0  0  0  0  0
   -8.8459    2.0086   -8.5037 C   0  0  0  0  0  0  0  0  0  0  0  0
   -9.0524    2.5620   -7.1383 N   0  0  0  0  0  0  0  0  0  0  0  0
   -8.5729    3.9582   -7.1717 C   0  0  0  0  0  0  0  0  0  0  0  0
   -5.6515    5.2703  -15.5359 C   0  0  0  0  0  0  0  0  0  0  0  0
   -5.3136    5.0481  -16.9185 C   0  0  0  0  0  0  0  0  0  0  0  0
   -6.3725    4.7203  -17.7557 C   0  0  0  0  0  0  0  0  0  0  0  0
   -6.6553    4.4911  -19.0975 N   0  0  0  0  0  0  0  0  0  0  0  0
   -7.9904    4.2972  -19.1705 C   0  0  0  0  0  0  0  0  0  0  0  0
   -8.4898    4.3539  -17.9465 N   0  0  0  0  0  0  0  0  0  0  0  0
   -7.5431    4.6181  -17.1158 C   0  0  0  0  0  0  0  0  0  0  0  0
  1  2  1  0
  2  3  2  0
  3  4  1  0
  4  5  1  0
  5  6  1  0
  6  7  2  0
  6  8  1  0
  8  9  1  0
  9 10  2  0
 10 11  1  0
 11 12  2  0
 12 13  1  0
 13 14  2  0
 13 15  1  0
 15 16  1  0
 16 17  1  0
  5 18  2  0
 18 19  1  0
 19 20  2  0
 20 21  1  0
 21 22  2  0
 22 23  1  0
 23 24  1  0
 23  2  1  0
 24  4  2  0
 14  9  1  0
 24 20  1  0
 17 12  1  0
M  END
>  <smiles>  (15) 
C70584-P1

>  <fragmenstein_outcome>  (15) 
acceptable

>  <inchikey>  (15) 
VBICFGRVHUMGEE-UHFFFAOYSA-N

>  <fragmenstein_mode>  (15) 
expansion

>  <HIPPO Pose ID>  (15) 
402

>  <Energy>  (15) 
97.111591

>  <fragmenstein_error>  (15) 


>  <tags>  (15) 
{'openbind_xx01zvns2b_c1_fragmenstein', 'fragmenstein_placed'}

>  <ref_pdb>  (15) 
1

>  <scratch_subdir>  (15) 
/opt/xchem-fragalysis-2/maxwin/BulkDock/SCRATCH/511027/C70584-P1

>  <alias>  (15) 
Cc1nc2c(C(=O)Nc3ccc4c(c3)CNC4)ccc3ncn1c32

>  <HIPPO Compound ID>  (15) 
70584

>  <fragmenstein_runtime>  (15) 
7.194707

$$$$
CCCNC(=O)[C@@H](Nc1ccc2c(c1)CNC2)c1ccc(NCNCC)cc1CNN
     RDKit          3D

 31 33  0  0  0  0  0  0  0  0999 V2000
  -12.0123    9.9989  -12.8079 C   0  0  0  0  0  0  0  0  0  0  0  0
  -11.2657    8.7756  -13.3139 C   0  0  0  0  0  0  0  0  0  0  0  0
   -9.9396    8.5920  -12.5844 C   0  0  0  0  0  0  0  0  0  0  0  0
   -9.2994    7.3322  -12.8764 N   0  0  0  0  0  0  0  0  0  0  0  0
   -7.8922    7.0274  -13.4480 C   0  0  0  0  0  0  0  0  0  0  0  0
   -7.0619    7.7505  -13.8436 O   0  0  0  0  0  0  0  0  0  0  0  0
   -7.6944    5.4524  -13.4226 C   0  0  1  0  0  0  0  0  0  0  0  0
   -8.7352    4.6837  -12.6988 N   0  0  0  0  0  0  0  0  0  0  0  0
   -8.4713    4.4877  -11.3109 C   0  0  0  0  0  0  0  0  0  0  0  0
   -8.0873    5.5565  -10.4685 C   0  0  0  0  0  0  0  0  0  0  0  0
   -8.0430    5.4266   -9.0775 C   0  0  0  0  0  0  0  0  0  0  0  0
   -8.3869    4.2118   -8.5298 C   0  0  0  0  0  0  0  0  0  0  0  0
   -8.7014    3.1260   -9.3379 C   0  0  0  0  0  0  0  0  0  0  0  0
   -8.7609    3.2477  -10.7198 C   0  0  0  0  0  0  0  0  0  0  0  0
   -8.9370    1.9422   -8.4580 C   0  0  0  0  0  0  0  0  0  0  0  0
   -9.2272    2.5179   -7.1172 N   0  0  0  0  0  0  0  0  0  0  0  0
   -8.5175    3.8149   -7.0978 C   0  0  0  0  0  0  0  0  0  0  0  0
   -7.5699    4.9720  -14.8554 C   0  0  0  0  0  0  0  0  0  0  0  0
   -8.6885    4.9589  -15.7179 C   0  0  0  0  0  0  0  0  0  0  0  0
   -8.5590    4.7871  -17.1055 C   0  0  0  0  0  0  0  0  0  0  0  0
   -7.2966    4.6776  -17.6584 C   0  0  0  0  0  0  0  0  0  0  0  0
   -7.0507    4.7563  -19.0389 N   0  0  0  0  0  0  0  0  0  0  0  0
   -5.9769    5.6909  -19.3982 C   0  0  0  0  0  0  0  0  0  0  0  0
   -4.5824    5.2849  -19.2553 N   0  0  0  0  0  0  0  0  0  0  0  0
   -3.8744    6.0043  -18.2022 C   0  0  0  0  0  0  0  0  0  0  0  0
   -2.6884    5.1872  -17.7100 C   0  0  0  0  0  0  0  0  0  0  0  0
   -6.2472    4.4643  -16.7698 C   0  0  0  0  0  0  0  0  0  0  0  0
   -6.3226    4.6531  -15.3889 C   0  0  0  0  0  0  0  0  0  0  0  0
   -5.0333    4.4929  -14.6072 C   0  0  0  0  0  0  0  0  0  0  0  0
   -4.4357    5.6791  -13.9655 N   0  0  0  0  0  0  0  0  0  0  0  0
   -4.4225    6.8329  -14.8280 N   0  0  0  0  0  0  0  0  0  0  0  0
  1  2  1  0
  2  3  1  0
  3  4  1  0
  4  5  1  0
  5  6  2  0
  5  7  1  0
  7  8  1  6
  8  9  1  0
  9 10  2  0
 10 11  1  0
 11 12  2  0
 12 13  1  0
 13 14  2  0
 13 15  1  0
 15 16  1  0
 16 17  1  0
  7 18  1  0
 18 19  2  0
 19 20  1  0
 20 21  2  0
 21 22  1  0
 22 23  1  0
 23 24  1  0
 24 25  1  0
 25 26  1  0
 21 27  1  0
 27 28  2  0
 28 29  1  0
 29 30  1  0
 30 31  1  0
 14  9  1  0
 28 18  1  0
 17 12  1  0
M  END
>  <smiles>  (16) 
C70586-P1

>  <fragmenstein_outcome>  (16) 
acceptable

>  <inchikey>  (16) 
YZOZAAMRCRMDKW-UHFFFAOYSA-N

>  <fragmenstein_mode>  (16) 
expansion

>  <HIPPO Pose ID>  (16) 
404

>  <Energy>  (16) 
104.698413

>  <fragmenstein_error>  (16) 


>  <tags>  (16) 
{'openbind_xx01zvns2b_c1_fragmenstein', 'fragmenstein_placed'}

>  <ref_pdb>  (16) 
1

>  <scratch_subdir>  (16) 
/opt/xchem-fragalysis-2/maxwin/BulkDock/SCRATCH/511027/C70586-P1

>  <alias>  (16) 
CCCNC(=O)[C@@H](Nc1ccc2c(c1)CNC2)c1ccc(NCNCC)cc1CNN

>  <HIPPO Compound ID>  (16) 
70586

>  <fragmenstein_runtime>  (16) 
13.066363

$$$$
CC(C)[C@@H]1NN[C@@]2(CNc3cccc(C(=O)Nc4ccc5c(c4)CNC5)c32)S1
     RDKit          3D

 28 32  0  0  0  0  0  0  0  0999 V2000
   -3.5783    4.3587  -12.6274 C   0  0  0  0  0  0  0  0  0  0  0  0
   -3.7586    5.6824  -13.3872 C   0  0  0  0  0  0  0  0  0  0  0  0
   -2.9490    6.7657  -12.6581 C   0  0  0  0  0  0  0  0  0  0  0  0
   -3.3492    5.5712  -14.8849 C   0  0  2  0  0  0  0  0  0  0  0  0
   -3.5846    6.7974  -15.6731 N   0  0  0  0  0  0  0  0  0  0  0  0
   -4.9881    6.7674  -16.0798 N   0  0  0  0  0  0  0  0  0  0  0  0
   -5.2584    5.4603  -16.6882 C   0  0  2  0  0  0  0  0  0  0  0  0
   -4.8967    5.4850  -18.2275 C   0  0  0  0  0  0  0  0  0  0  0  0
   -5.9239    4.7573  -18.9714 N   0  0  0  0  0  0  0  0  0  0  0  0
   -7.0271    4.7584  -18.0857 C   0  0  0  0  0  0  0  0  0  0  0  0
   -8.2995    4.3541  -18.4619 C   0  0  0  0  0  0  0  0  0  0  0  0
   -9.2823    4.2453  -17.4883 C   0  0  0  0  0  0  0  0  0  0  0  0
   -8.9744    4.5403  -16.1573 C   0  0  0  0  0  0  0  0  0  0  0  0
   -7.6950    4.9803  -15.7777 C   0  0  0  0  0  0  0  0  0  0  0  0
   -7.5733    5.4873  -14.3817 C   0  0  0  0  0  0  0  0  0  0  0  0
   -7.2952    6.6131  -14.2270 O   0  0  0  0  0  0  0  0  0  0  0  0
   -7.9536    4.3925  -13.3462 N   0  0  0  0  0  0  0  0  0  0  0  0
   -7.9762    4.4333  -11.9479 C   0  0  0  0  0  0  0  0  0  0  0  0
   -7.7349    5.6256  -11.2476 C   0  0  0  0  0  0  0  0  0  0  0  0
   -7.8383    5.6759   -9.8503 C   0  0  0  0  0  0  0  0  0  0  0  0
   -8.1819    4.5210   -9.1720 C   0  0  0  0  0  0  0  0  0  0  0  0
   -8.4029    3.3316   -9.8552 C   0  0  0  0  0  0  0  0  0  0  0  0
   -8.3063    3.2710  -11.2397 C   0  0  0  0  0  0  0  0  0  0  0  0
   -8.6989    2.2524   -8.8631 C   0  0  0  0  0  0  0  0  0  0  0  0
   -8.9931    2.9605   -7.5861 N   0  0  0  0  0  0  0  0  0  0  0  0
   -8.3448    4.2824   -7.7086 C   0  0  0  0  0  0  0  0  0  0  0  0
   -6.7079    5.0808  -16.7550 C   0  0  0  0  0  0  0  0  0  0  0  0
   -4.2429    4.2670  -15.7689 S   0  0  0  0  0  0  0  0  0  0  0  0
  1  2  1  0
  2  3  1  0
  4  2  1  1
  4  5  1  0
  5  6  1  0
  6  7  1  0
  7  8  1  6
  8  9  1  0
  9 10  1  0
 10 11  2  0
 11 12  1  0
 12 13  2  0
 13 14  1  0
 14 15  1  0
 15 16  2  0
 15 17  1  0
 17 18  1  0
 18 19  2  0
 19 20  1  0
 20 21  2  0
 21 22  1  0
 22 23  2  0
 22 24  1  0
 24 25  1  0
 25 26  1  0
 14 27  2  0
  7 28  1  0
 28  4  1  0
 27  7  1  0
 27 10  1  0
 23 18  1  0
 26 21  1  0
M  END
>  <smiles>  (17) 
C70608-P1

>  <fragmenstein_outcome>  (17) 
acceptable

>  <inchikey>  (17) 
GFFPFDDTDHCDCZ-UHFFFAOYSA-N

>  <fragmenstein_mode>  (17) 
expansion

>  <HIPPO Pose ID>  (17) 
418

>  <Energy>  (17) 
120.042921

>  <fragmenstein_error>  (17) 


>  <tags>  (17) 
{'openbind_xx01zvns2b_c1_fragmenstein', 'fragmenstein_placed'}

>  <ref_pdb>  (17) 
1

>  <scratch_subdir>  (17) 
/opt/xchem-fragalysis-2/maxwin/BulkDock/SCRATCH/511027/C70608-P1

>  <alias>  (17) 
CC(C)[C@@H]1NN[C@@]2(CNc3cccc(C(=O)Nc4ccc5c(c4)CNC5)c32)S1

>  <HIPPO Compound ID>  (17) 
73697

>  <fragmenstein_runtime>  (17) 
7.845232

$$$$
CO[C@@]1(C)c2c(C(=O)Nc3ccc4c(c3)CNC4)ccc3ncn(c23)[C@@H]1C
     RDKit          3D

 27 31  0  0  0  0  0  0  0  0999 V2000
   -5.3443    8.0358  -15.5224 C   0  0  0  0  0  0  0  0  0  0  0  0
   -4.6001    6.9139  -15.0830 O   0  0  0  0  0  0  0  0  0  0  0  0
   -4.9231    5.6424  -15.6560 C   0  0  1  0  0  0  0  0  0  0  0  0
   -4.2294    4.6047  -14.7642 C   0  0  0  0  0  0  0  0  0  0  0  0
   -6.3830    5.2808  -15.7825 C   0  0  0  0  0  0  0  0  0  0  0  0
   -7.5248    5.1292  -15.0146 C   0  0  0  0  0  0  0  0  0  0  0  0
   -7.5273    5.5417  -13.5924 C   0  0  0  0  0  0  0  0  0  0  0  0
   -7.1735    6.6214  -13.3299 O   0  0  0  0  0  0  0  0  0  0  0  0
   -7.9824    4.3886  -12.6756 N   0  0  0  0  0  0  0  0  0  0  0  0
   -8.1813    4.3531  -11.2994 C   0  0  0  0  0  0  0  0  0  0  0  0
   -8.0364    5.5135  -10.5227 C   0  0  0  0  0  0  0  0  0  0  0  0
   -8.1819    5.4680   -9.1338 C   0  0  0  0  0  0  0  0  0  0  0  0
   -8.4706    4.2507   -8.5464 C   0  0  0  0  0  0  0  0  0  0  0  0
   -8.6240    3.1033   -9.3139 C   0  0  0  0  0  0  0  0  0  0  0  0
   -8.4916    3.1368  -10.6931 C   0  0  0  0  0  0  0  0  0  0  0  0
   -8.8669    1.9399   -8.4139 C   0  0  0  0  0  0  0  0  0  0  0  0
   -9.1140    2.5128   -7.0645 N   0  0  0  0  0  0  0  0  0  0  0  0
   -8.6316    3.9080   -7.1052 C   0  0  0  0  0  0  0  0  0  0  0  0
   -8.7329    4.6763  -15.6194 C   0  0  0  0  0  0  0  0  0  0  0  0
   -8.8457    4.4020  -17.0150 C   0  0  0  0  0  0  0  0  0  0  0  0
   -7.6930    4.5833  -17.7791 C   0  0  0  0  0  0  0  0  0  0  0  0
   -7.3270    4.4911  -19.1060 N   0  0  0  0  0  0  0  0  0  0  0  0
   -6.0516    4.8736  -19.1732 C   0  0  0  0  0  0  0  0  0  0  0  0
   -5.5672    5.0821  -17.9449 N   0  0  0  0  0  0  0  0  0  0  0  0
   -6.5963    4.9706  -17.0894 C   0  0  0  0  0  0  0  0  0  0  0  0
   -4.4046    5.5911  -17.2257 C   0  0  2  0  0  0  0  0  0  0  0  0
   -3.1435    4.7841  -17.4858 C   0  0  0  0  0  0  0  0  0  0  0  0
  1  2  1  0
  2  3  1  0
  3  4  1  1
  3  5  1  0
  5  6  2  0
  6  7  1  0
  7  8  2  0
  7  9  1  0
  9 10  1  0
 10 11  2  0
 11 12  1  0
 12 13  2  0
 13 14  1  0
 14 15  2  0
 14 16  1  0
 16 17  1  0
 17 18  1  0
  6 19  1  0
 19 20  2  0
 20 21  1  0
 21 22  1  0
 22 23  2  0
 23 24  1  0
 24 25  1  0
 24 26  1  0
 26 27  1  1
 26  3  1  0
 25  5  1  0
 15 10  1  0
 25 21  2  0
 18 13  1  0
M  END
>  <smiles>  (18) 
C70624-P1

>  <fragmenstein_outcome>  (18) 
acceptable

>  <inchikey>  (18) 
LCBVWEDEEPBWPW-UHFFFAOYSA-N

>  <fragmenstein_mode>  (18) 
expansion

>  <HIPPO Pose ID>  (18) 
428

>  <Energy>  (18) 
106.603303

>  <fragmenstein_error>  (18) 


>  <tags>  (18) 
{'openbind_xx01zvns2b_c1_fragmenstein', 'fragmenstein_placed'}

>  <ref_pdb>  (18) 
1

>  <scratch_subdir>  (18) 
/opt/xchem-fragalysis-2/maxwin/BulkDock/SCRATCH/511027/C70624-P1

>  <alias>  (18) 
CO[C@@]1(C)c2c(C(=O)Nc3ccc4c(c3)CNC4)ccc3ncn(c23)[C@@H]1C

>  <HIPPO Compound ID>  (18) 
70624

>  <fragmenstein_runtime>  (18) 
3.543374

$$$$
CCn1cnc2ccc([C@@H](Nc3ccc4c(c3)CNC4)C(=O)NCC(F)F)c(OCc3ccccn3)c21
     RDKit          3D

 37 41  0  0  0  0  0  0  0  0999 V2000
   -4.4537    7.4146  -17.9034 C   0  0  0  0  0  0  0  0  0  0  0  0
   -4.4076    5.9123  -18.1269 C   0  0  0  0  0  0  0  0  0  0  0  0
   -5.7199    5.3094  -18.1637 N   0  0  0  0  0  0  0  0  0  0  0  0
   -6.3998    5.0213  -19.3054 C   0  0  0  0  0  0  0  0  0  0  0  0
   -7.5904    4.5333  -19.0633 N   0  0  0  0  0  0  0  0  0  0  0  0
   -7.7362    4.6242  -17.7122 C   0  0  0  0  0  0  0  0  0  0  0  0
   -8.8593    4.3596  -16.9284 C   0  0  0  0  0  0  0  0  0  0  0  0
   -8.7722    4.6162  -15.5577 C   0  0  0  0  0  0  0  0  0  0  0  0
   -7.5922    5.0877  -14.9491 C   0  0  0  0  0  0  0  0  0  0  0  0
   -7.6711    5.4816  -13.4768 C   0  0  1  0  0  0  0  0  0  0  0  0
   -7.6526    4.2584  -12.6458 N   0  0  0  0  0  0  0  0  0  0  0  0
   -8.1101    4.2944  -11.3133 C   0  0  0  0  0  0  0  0  0  0  0  0
   -8.1575    5.4683  -10.5318 C   0  0  0  0  0  0  0  0  0  0  0  0
   -8.3728    5.4329   -9.1502 C   0  0  0  0  0  0  0  0  0  0  0  0
   -8.5901    4.2095   -8.5568 C   0  0  0  0  0  0  0  0  0  0  0  0
   -8.5944    3.0445   -9.3093 C   0  0  0  0  0  0  0  0  0  0  0  0
   -8.3275    3.0694  -10.6690 C   0  0  0  0  0  0  0  0  0  0  0  0
   -8.8565    1.8863   -8.4046 C   0  0  0  0  0  0  0  0  0  0  0  0
   -9.3485    2.4884   -7.1338 N   0  0  0  0  0  0  0  0  0  0  0  0
   -8.8180    3.8666   -7.1249 C   0  0  0  0  0  0  0  0  0  0  0  0
   -6.5959    6.5628  -13.0674 C   0  0  0  0  0  0  0  0  0  0  0  0
   -6.6717    7.6800  -13.4096 O   0  0  0  0  0  0  0  0  0  0  0  0
   -5.5401    5.8525  -12.1718 N   0  0  0  0  0  0  0  0  0  0  0  0
   -4.4162    6.3915  -11.4373 C   0  0  0  0  0  0  0  0  0  0  0  0
   -3.9279    7.7606  -11.8981 C   0  0  0  0  0  0  0  0  0  0  0  0
   -4.6460    8.7414  -11.2903 F   0  0  0  0  0  0  0  0  0  0  0  0
   -2.6393    7.9381  -11.4923 F   0  0  0  0  0  0  0  0  0  0  0  0
   -6.4292    5.1964  -15.7269 C   0  0  0  0  0  0  0  0  0  0  0  0
   -5.2162    5.5193  -15.1807 O   0  0  0  0  0  0  0  0  0  0  0  0
   -4.4812    4.3119  -14.8991 C   0  0  0  0  0  0  0  0  0  0  0  0
   -3.1147    4.6231  -14.3220 C   0  0  0  0  0  0  0  0  0  0  0  0
   -2.4398    5.8017  -14.6375 C   0  0  0  0  0  0  0  0  0  0  0  0
   -1.1838    6.0347  -14.0831 C   0  0  0  0  0  0  0  0  0  0  0  0
   -0.6266    5.0869  -13.2354 C   0  0  0  0  0  0  0  0  0  0  0  0
   -1.3487    3.9350  -12.9830 C   0  0  0  0  0  0  0  0  0  0  0  0
   -2.5642    3.6798  -13.5146 N   0  0  0  0  0  0  0  0  0  0  0  0
   -6.5582    5.0564  -17.1102 C   0  0  0  0  0  0  0  0  0  0  0  0
  1  2  1  0
  2  3  1  0
  3  4  1  0
  4  5  2  0
  5  6  1  0
  6  7  2  0
  7  8  1  0
  8  9  2  0
  9 10  1  0
 10 11  1  1
 11 12  1  0
 12 13  2  0
 13 14  1  0
 14 15  2  0
 15 16  1  0
 16 17  2  0
 16 18  1  0
 18 19  1  0
 19 20  1  0
 10 21  1  0
 21 22  2  0
 21 23  1  0
 23 24  1  0
 24 25  1  0
 25 26  1  0
 25 27  1  0
  9 28  1  0
 28 29  1  0
 29 30  1  0
 30 31  1  0
 31 32  2  0
 32 33  1  0
 33 34  2  0
 34 35  1  0
 35 36  2  0
 28 37  2  0
 37  3  1  0
 37  6  1  0
 17 12  1  0
 36 31  1  0
 20 15  1  0
M  END
>  <smiles>  (19) 
C70633-P1

>  <fragmenstein_outcome>  (19) 
acceptable

>  <inchikey>  (19) 
YSLNLFGZFSYDPK-UHFFFAOYSA-N

>  <fragmenstein_mode>  (19) 
expansion

>  <HIPPO Pose ID>  (19) 
430

>  <Energy>  (19) 
152.407911

>  <fragmenstein_error>  (19) 


>  <tags>  (19) 
{'openbind_xx01zvns2b_c1_fragmenstein', 'fragmenstein_placed'}

>  <ref_pdb>  (19) 
1

>  <scratch_subdir>  (19) 
/opt/xchem-fragalysis-2/maxwin/BulkDock/SCRATCH/511027/C70633-P1

>  <alias>  (19) 
CCn1cnc2ccc([C@@H](Nc3ccc4c(c3)CNC4)C(=O)NCC(F)F)c(OCc3ccccn3)c21

>  <HIPPO Compound ID>  (19) 
105279

>  <fragmenstein_runtime>  (19) 
5.975505

$$$$
Cc1cc2c(C(=O)Oc3ccc4c(c3)CNC4)ccc3ncn1c32
     RDKit          3D

 24 28  0  0  0  0  0  0  0  0999 V2000
   -2.9720    5.0971  -17.6274 C   0  0  0  0  0  0  0  0  0  0  0  0
   -4.3076    5.0275  -17.0096 C   0  0  0  0  0  0  0  0  0  0  0  0
   -4.7110    4.9975  -15.6452 C   0  0  0  0  0  0  0  0  0  0  0  0
   -6.1458    4.8538  -15.5761 C   0  0  0  0  0  0  0  0  0  0  0  0
   -7.2521    4.7121  -14.7275 C   0  0  0  0  0  0  0  0  0  0  0  0
   -7.0591    4.7206  -13.2604 C   0  0  0  0  0  0  0  0  0  0  0  0
   -5.9821    4.9418  -12.7277 O   0  0  0  0  0  0  0  0  0  0  0  0
   -8.2696    4.4689  -12.6493 O   0  0  0  0  0  0  0  0  0  0  0  0
   -8.2349    4.4069  -11.2513 C   0  0  0  0  0  0  0  0  0  0  0  0
   -8.0222    5.5653  -10.4913 C   0  0  0  0  0  0  0  0  0  0  0  0
   -8.0849    5.5004   -9.0974 C   0  0  0  0  0  0  0  0  0  0  0  0
   -8.3806    4.2807   -8.5079 C   0  0  0  0  0  0  0  0  0  0  0  0
   -8.5964    3.1400   -9.2746 C   0  0  0  0  0  0  0  0  0  0  0  0
   -8.5304    3.1828  -10.6552 C   0  0  0  0  0  0  0  0  0  0  0  0
   -8.8543    1.9799   -8.3747 C   0  0  0  0  0  0  0  0  0  0  0  0
   -9.0538    2.5575   -7.0184 N   0  0  0  0  0  0  0  0  0  0  0  0
   -8.5126    3.9316   -7.0640 C   0  0  0  0  0  0  0  0  0  0  0  0
   -8.5377    4.5625  -15.3762 C   0  0  0  0  0  0  0  0  0  0  0  0
   -8.7451    4.5486  -16.8005 C   0  0  0  0  0  0  0  0  0  0  0  0
   -7.6068    4.6977  -17.5860 C   0  0  0  0  0  0  0  0  0  0  0  0
   -7.2380    4.7386  -18.9242 N   0  0  0  0  0  0  0  0  0  0  0  0
   -5.8992    4.8966  -18.9416 C   0  0  0  0  0  0  0  0  0  0  0  0
   -5.4597    4.9387  -17.6870 N   0  0  0  0  0  0  0  0  0  0  0  0
   -6.4686    4.8367  -16.8814 C   0  0  0  0  0  0  0  0  0  0  0  0
  1  2  1  0
  2  3  2  0
  3  4  1  0
  4  5  1  0
  5  6  1  0
  6  7  2  0
  6  8  1  0
  8  9  1  0
  9 10  2  0
 10 11  1  0
 11 12  2  0
 12 13  1  0
 13 14  2  0
 13 15  1  0
 15 16  1  0
 16 17  1  0
  5 18  2  0
 18 19  1  0
 19 20  2  0
 20 21  1  0
 21 22  2  0
 22 23  1  0
 23 24  1  0
 23  2  1  0
 24  4  2  0
 14  9  1  0
 24 20  1  0
 17 12  1  0
M  END
>  <smiles>  (20) 
C70635-P1

>  <fragmenstein_outcome>  (20) 
acceptable

>  <inchikey>  (20) 
JPYWJLDHPBKKQH-UHFFFAOYSA-N

>  <fragmenstein_mode>  (20) 
expansion

>  <HIPPO Pose ID>  (20) 
431

>  <Energy>  (20) 
105.268705

>  <fragmenstein_error>  (20) 


>  <tags>  (20) 
{'openbind_xx01zvns2b_c1_fragmenstein', 'fragmenstein_placed'}

>  <ref_pdb>  (20) 
1

>  <scratch_subdir>  (20) 
/opt/xchem-fragalysis-2/maxwin/BulkDock/SCRATCH/511027/C70635-P1

>  <alias>  (20) 
Cc1cc2c(C(=O)Oc3ccc4c(c3)CNC4)ccc3ncn1c32

>  <HIPPO Compound ID>  (20) 
100976

>  <fragmenstein_runtime>  (20) 
2.226437

$$$$
CCn1c[n+]([O-])c2cccc(C(=O)Nc3cnc4c(c3)CNC4)c21
     RDKit          3D

 24 27  0  0  0  0  0  0  0  0999 V2000
   -4.0341    3.9002  -14.4123 C   0  0  0  0  0  0  0  0  0  0  0  0
   -4.2268    5.2422  -15.0971 C   0  0  0  0  0  0  0  0  0  0  0  0
   -5.0430    5.1577  -16.2832 N   0  0  0  0  0  0  0  0  0  0  0  0
   -4.5232    5.1465  -17.5361 C   0  0  0  0  0  0  0  0  0  0  0  0
   -5.5601    4.8954  -18.4887 N   0  0  0  0  0  0  0  0  0  0  0  0
   -5.2294    4.8088  -19.6861 O   0  0  0  0  0  0  0  0  0  0  0  0
   -6.7236    4.7632  -17.8219 C   0  0  0  0  0  0  0  0  0  0  0  0
   -8.0066    4.4931  -18.3077 C   0  0  0  0  0  0  0  0  0  0  0  0
   -9.0363    4.3758  -17.3773 C   0  0  0  0  0  0  0  0  0  0  0  0
   -8.7878    4.5773  -16.0192 C   0  0  0  0  0  0  0  0  0  0  0  0
   -7.5035    4.8942  -15.5287 C   0  0  0  0  0  0  0  0  0  0  0  0
   -7.3990    5.3523  -14.1223 C   0  0  0  0  0  0  0  0  0  0  0  0
   -7.0063    6.4362  -13.9364 O   0  0  0  0  0  0  0  0  0  0  0  0
   -7.9444    4.2997  -13.1292 N   0  0  0  0  0  0  0  0  0  0  0  0
   -8.0288    4.3258  -11.7368 C   0  0  0  0  0  0  0  0  0  0  0  0
   -7.7613    5.4853  -10.9964 C   0  0  0  0  0  0  0  0  0  0  0  0
   -7.8558    5.5818   -9.6423 N   0  0  0  0  0  0  0  0  0  0  0  0
   -8.2173    4.4415   -9.0277 C   0  0  0  0  0  0  0  0  0  0  0  0
   -8.4885    3.2459   -9.6663 C   0  0  0  0  0  0  0  0  0  0  0  0
   -8.4077    3.1771  -11.0455 C   0  0  0  0  0  0  0  0  0  0  0  0
   -8.7957    2.1999   -8.6492 C   0  0  0  0  0  0  0  0  0  0  0  0
   -9.0654    2.9357   -7.3826 N   0  0  0  0  0  0  0  0  0  0  0  0
   -8.3884    4.2464   -7.5462 C   0  0  0  0  0  0  0  0  0  0  0  0
   -6.4240    4.9537  -16.4387 C   0  0  0  0  0  0  0  0  0  0  0  0
  1  2  1  0
  2  3  1  0
  3  4  1  0
  4  5  2  0
  5  6  1  0
  5  7  1  0
  7  8  2  0
  8  9  1  0
  9 10  2  0
 10 11  1  0
 11 12  1  0
 12 13  2  0
 12 14  1  0
 14 15  1  0
 15 16  2  0
 16 17  1  0
 17 18  2  0
 18 19  1  0
 19 20  2  0
 19 21  1  0
 21 22  1  0
 22 23  1  0
 11 24  2  0
 24  3  1  0
 24  7  1  0
 20 15  1  0
 23 18  1  0
M  CHG  2   5   1   6  -1
M  END
>  <smiles>  (21) 
C70636-P1

>  <fragmenstein_outcome>  (21) 
acceptable

>  <inchikey>  (21) 
HYPTWMZRAMJBGZ-UHFFFAOYSA-N

>  <fragmenstein_mode>  (21) 
expansion

>  <HIPPO Pose ID>  (21) 
432

>  <Energy>  (21) 
103.30518

>  <fragmenstein_error>  (21) 


>  <tags>  (21) 
{'openbind_xx01zvns2b_c1_fragmenstein', 'fragmenstein_placed'}

>  <ref_pdb>  (21) 
1

>  <scratch_subdir>  (21) 
/opt/xchem-fragalysis-2/maxwin/BulkDock/SCRATCH/511027/C70636-P1

>  <alias>  (21) 
CCn1c[n+]([O-])c2cccc(C(=O)Nc3cnc4c(c3)CNC4)c21

>  <HIPPO Compound ID>  (21) 
80205

>  <fragmenstein_runtime>  (21) 
3.971063

$$$$
CNCc1nc2ccc(C(=O)Nc3ccc4c(c3)CNC4)c3nc(C4=CC=C(OC)NN4C)n1c23
     RDKit          3D

 35 40  0  0  0  0  0  0  0  0999 V2000
   -5.3001    7.4797  -20.8203 C   0  0  0  0  0  0  0  0  0  0  0  0
   -4.2157    7.1687  -19.8966 N   0  0  0  0  0  0  0  0  0  0  0  0
   -4.1757    5.7403  -19.5508 C   0  0  0  0  0  0  0  0  0  0  0  0
   -5.3047    5.3171  -18.6848 C   0  0  0  0  0  0  0  0  0  0  0  0
   -6.5050    4.8092  -19.0792 N   0  0  0  0  0  0  0  0  0  0  0  0
   -7.2948    4.7100  -17.9379 C   0  0  0  0  0  0  0  0  0  0  0  0
   -8.5838    4.3735  -17.5198 C   0  0  0  0  0  0  0  0  0  0  0  0
   -8.8703    4.5473  -16.1127 C   0  0  0  0  0  0  0  0  0  0  0  0
   -7.9177    5.0387  -15.1547 C   0  0  0  0  0  0  0  0  0  0  0  0
   -8.2801    5.4819  -13.8041 C   0  0  0  0  0  0  0  0  0  0  0  0
   -8.4755    6.6207  -13.6388 O   0  0  0  0  0  0  0  0  0  0  0  0
   -8.2369    4.3183  -12.7941 N   0  0  0  0  0  0  0  0  0  0  0  0
   -8.3278    4.3226  -11.4036 C   0  0  0  0  0  0  0  0  0  0  0  0
   -8.2518    5.5199  -10.6751 C   0  0  0  0  0  0  0  0  0  0  0  0
   -8.3068    5.5131   -9.2765 C   0  0  0  0  0  0  0  0  0  0  0  0
   -8.4641    4.3003   -8.6302 C   0  0  0  0  0  0  0  0  0  0  0  0
   -8.5529    3.1172   -9.3485 C   0  0  0  0  0  0  0  0  0  0  0  0
   -8.4661    3.1082  -10.7327 C   0  0  0  0  0  0  0  0  0  0  0  0
   -8.7610    1.9777   -8.4118 C   0  0  0  0  0  0  0  0  0  0  0  0
   -8.6898    2.5445   -7.0360 N   0  0  0  0  0  0  0  0  0  0  0  0
   -8.6008    4.0133   -7.1762 C   0  0  0  0  0  0  0  0  0  0  0  0
   -6.6314    5.3014  -15.6182 C   0  0  0  0  0  0  0  0  0  0  0  0
   -5.3924    5.7769  -15.1911 N   0  0  0  0  0  0  0  0  0  0  0  0
   -4.6044    5.8537  -16.2930 C   0  0  0  0  0  0  0  0  0  0  0  0
   -3.2525    6.2767  -16.4047 C   0  0  0  0  0  0  0  0  0  0  0  0
   -2.3166    5.4298  -15.9136 C   0  0  0  0  0  0  0  0  0  0  0  0
   -0.9119    5.8117  -15.9124 C   0  0  0  0  0  0  0  0  0  0  0  0
   -0.5397    6.9828  -16.4578 C   0  0  0  0  0  0  0  0  0  0  0  0
    0.7723    7.3963  -16.3921 O   0  0  0  0  0  0  0  0  0  0  0  0
    1.3091    7.5990  -17.6972 C   0  0  0  0  0  0  0  0  0  0  0  0
   -1.4888    7.8389  -17.0045 N   0  0  0  0  0  0  0  0  0  0  0  0
   -2.8527    7.5315  -16.9196 N   0  0  0  0  0  0  0  0  0  0  0  0
   -3.7772    8.6634  -17.0151 C   0  0  0  0  0  0  0  0  0  0  0  0
   -5.3220    5.4369  -17.3510 N   0  0  0  0  0  0  0  0  0  0  0  0
   -6.5001    5.0997  -16.9347 C   0  0  0  0  0  0  0  0  0  0  0  0
  1  2  1  0
  2  3  1  0
  3  4  1  0
  4  5  2  0
  5  6  1  0
  6  7  1  0
  7  8  2  0
  8  9  1  0
  9 10  1  0
 10 11  2  0
 10 12  1  0
 12 13  1  0
 13 14  2  0
 14 15  1  0
 15 16  2  0
 16 17  1  0
 17 18  2  0
 17 19  1  0
 19 20  1  0
 20 21  1  0
  9 22  2  0
 22 23  1  0
 23 24  2  0
 24 25  1  0
 25 26  2  0
 26 27  1  0
 27 28  2  0
 28 29  1  0
 29 30  1  0
 28 31  1  0
 31 32  1  0
 32 33  1  0
 24 34  1  0
 34 35  1  0
 34  4  1  0
 35  6  2  0
 18 13  1  0
 35 22  1  0
 21 16  1  0
 32 25  1  0
M  END
>  <smiles>  (22) 
C70689-P1

>  <fragmenstein_outcome>  (22) 
acceptable

>  <inchikey>  (22) 
YXHILQLVFIKRTG-UHFFFAOYSA-N

>  <fragmenstein_mode>  (22) 
expansion

>  <HIPPO Pose ID>  (22) 
459

>  <Energy>  (22) 
142.646168

>  <fragmenstein_error>  (22) 


>  <tags>  (22) 
{'openbind_xx01zvns2b_c1_fragmenstein', 'fragmenstein_placed'}

>  <ref_pdb>  (22) 
1

>  <scratch_subdir>  (22) 
/opt/xchem-fragalysis-2/maxwin/BulkDock/SCRATCH/511027/C70689-P1

>  <alias>  (22) 
CNCc1nc2ccc(C(=O)Nc3ccc4c(c3)CNC4)c3nc(C4=CC=C(OC)NN4C)n1c23

>  <HIPPO Compound ID>  (22) 
79933

>  <fragmenstein_runtime>  (22) 
8.966104

$$$$
CNCc1nc2ccc(C(=O)Nc3ccc4c(c3)CNC4)c3nc(C)n1c23
     RDKit          3D

 27 31  0  0  0  0  0  0  0  0999 V2000
   -5.7135    7.5353  -19.2185 C   0  0  0  0  0  0  0  0  0  0  0  0
   -5.9634    6.4432  -20.1318 N   0  0  0  0  0  0  0  0  0  0  0  0
   -5.7839    5.0936  -19.5873 C   0  0  0  0  0  0  0  0  0  0  0  0
   -6.5412    4.8367  -18.3603 C   0  0  0  0  0  0  0  0  0  0  0  0
   -7.8684    4.5864  -18.2572 N   0  0  0  0  0  0  0  0  0  0  0  0
   -8.1442    4.5694  -16.9052 C   0  0  0  0  0  0  0  0  0  0  0  0
   -9.2035    4.4269  -16.0309 C   0  0  0  0  0  0  0  0  0  0  0  0
   -8.8905    4.6332  -14.6404 C   0  0  0  0  0  0  0  0  0  0  0  0
   -7.5772    4.9355  -14.1179 C   0  0  0  0  0  0  0  0  0  0  0  0
   -7.3982    5.3198  -12.7097 C   0  0  0  0  0  0  0  0  0  0  0  0
   -6.8437    6.3168  -12.4640 O   0  0  0  0  0  0  0  0  0  0  0  0
   -8.1075    4.3126  -11.7777 N   0  0  0  0  0  0  0  0  0  0  0  0
   -8.1975    4.2743  -10.3918 C   0  0  0  0  0  0  0  0  0  0  0  0
   -7.8477    5.3853   -9.6086 C   0  0  0  0  0  0  0  0  0  0  0  0
   -7.9752    5.3452   -8.2165 C   0  0  0  0  0  0  0  0  0  0  0  0
   -8.4408    4.1799   -7.6371 C   0  0  0  0  0  0  0  0  0  0  0  0
   -8.7758    3.0769   -8.4154 C   0  0  0  0  0  0  0  0  0  0  0  0
   -8.6754    3.1095   -9.7936 C   0  0  0  0  0  0  0  0  0  0  0  0
   -9.1549    1.9467   -7.5227 C   0  0  0  0  0  0  0  0  0  0  0  0
   -9.3701    2.5594   -6.1923 N   0  0  0  0  0  0  0  0  0  0  0  0
   -8.6311    3.8348   -6.1983 C   0  0  0  0  0  0  0  0  0  0  0  0
   -6.5390    4.9816  -15.0401 C   0  0  0  0  0  0  0  0  0  0  0  0
   -5.1570    5.1769  -15.1664 N   0  0  0  0  0  0  0  0  0  0  0  0
   -4.8626    5.0832  -16.4823 C   0  0  0  0  0  0  0  0  0  0  0  0
   -3.5096    5.1279  -17.0761 C   0  0  0  0  0  0  0  0  0  0  0  0
   -6.0114    4.8795  -17.1408 N   0  0  0  0  0  0  0  0  0  0  0  0
   -6.9760    4.7940  -16.2913 C   0  0  0  0  0  0  0  0  0  0  0  0
  1  2  1  0
  2  3  1  0
  3  4  1  0
  4  5  2  0
  5  6  1  0
  6  7  1  0
  7  8  2  0
  8  9  1  0
  9 10  1  0
 10 11  2  0
 10 12  1  0
 12 13  1  0
 13 14  2  0
 14 15  1  0
 15 16  2  0
 16 17  1  0
 17 18  2  0
 17 19  1  0
 19 20  1  0
 20 21  1  0
  9 22  2  0
 22 23  1  0
 23 24  2  0
 24 25  1  0
 24 26  1  0
 26 27  1  0
 26  4  1  0
 27  6  2  0
 18 13  1  0
 27 22  1  0
 21 16  1  0
M  END
>  <smiles>  (23) 
C70710-P1

>  <fragmenstein_outcome>  (23) 
acceptable

>  <inchikey>  (23) 
AGRNBLAHCIDFEA-UHFFFAOYSA-N

>  <fragmenstein_mode>  (23) 
expansion

>  <HIPPO Pose ID>  (23) 
467

>  <Energy>  (23) 
104.874333

>  <fragmenstein_error>  (23) 


>  <tags>  (23) 
{'openbind_xx01zvns2b_c1_fragmenstein', 'fragmenstein_placed'}

>  <ref_pdb>  (23) 
1

>  <scratch_subdir>  (23) 
/opt/xchem-fragalysis-2/maxwin/BulkDock/SCRATCH/511027/C70710-P1

>  <alias>  (23) 
CNCc1nc2ccc(C(=O)Nc3ccc4c(c3)CNC4)c3nc(C)n1c23

>  <HIPPO Compound ID>  (23) 
106080

>  <fragmenstein_runtime>  (23) 
7.412892

$$$$
N#CCC1=N[C@@H]2[C@H](N)CCC[C@H]2N1OC(F)(F)F
     RDKit          3D

 18 19  0  0  0  0  0  0  0  0999 V2000
   -2.6212    5.5266  -20.9081 N   0  0  0  0  0  0  0  0  0  0  0  0
   -3.5218    6.0137  -20.3560 C   0  0  0  0  0  0  0  0  0  0  0  0
   -4.6325    6.6845  -19.7005 C   0  0  0  0  0  0  0  0  0  0  0  0
   -5.4947    5.7394  -18.9192 C   0  0  0  0  0  0  0  0  0  0  0  0
   -6.5539    5.1825  -19.4771 N   0  0  0  0  0  0  0  0  0  0  0  0
   -7.2031    4.5324  -18.2887 C   0  0  2  0  0  0  0  0  0  0  0  0
   -8.7021    4.3163  -18.3519 C   0  0  2  0  0  0  0  0  0  0  0  0
   -9.3428    5.4858  -18.8745 N   0  0  0  0  0  0  0  0  0  0  0  0
   -9.2794    4.0051  -16.9674 C   0  0  0  0  0  0  0  0  0  0  0  0
   -8.6550    4.7245  -15.7610 C   0  0  0  0  0  0  0  0  0  0  0  0
   -7.1213    4.7872  -15.8102 C   0  0  0  0  0  0  0  0  0  0  0  0
   -6.7569    5.4083  -17.1253 C   0  0  1  0  0  0  0  0  0  0  0  0
   -5.3758    5.4876  -17.5528 N   0  0  0  0  0  0  0  0  0  0  0  0
   -4.5022    6.2680  -16.8074 O   0  0  0  0  0  0  0  0  0  0  0  0
   -3.3369    5.4612  -16.5497 C   0  0  0  0  0  0  0  0  0  0  0  0
   -2.4343    6.2088  -15.8796 F   0  0  0  0  0  0  0  0  0  0  0  0
   -3.6532    4.3865  -15.7993 F   0  0  0  0  0  0  0  0  0  0  0  0
   -2.7798    5.0602  -17.7128 F   0  0  0  0  0  0  0  0  0  0  0  0
  1  2  3  0
  2  3  1  0
  3  4  1  0
  4  5  2  0
  6  5  1  6
  6  7  1  0
  7  8  1  1
  7  9  1  0
  9 10  1  0
 10 11  1  0
 12 11  1  1
 12 13  1  0
 13 14  1  0
 14 15  1  0
 15 16  1  0
 15 17  1  0
 15 18  1  0
 13  4  1  0
 12  6  1  0
M  END
>  <smiles>  (24) 
C70718-P1

>  <fragmenstein_outcome>  (24) 
acceptable

>  <inchikey>  (24) 
YPWSBWSZKBWWRH-UHFFFAOYSA-N

>  <fragmenstein_mode>  (24) 
expansion

>  <HIPPO Pose ID>  (24) 
472

>  <Energy>  (24) 
114.396985

>  <fragmenstein_error>  (24) 


>  <tags>  (24) 
{'openbind_xx01zvns2b_c1_fragmenstein', 'fragmenstein_placed'}

>  <ref_pdb>  (24) 
1

>  <scratch_subdir>  (24) 
/opt/xchem-fragalysis-2/maxwin/BulkDock/SCRATCH/511027/C70718-P1

>  <alias>  (24) 
N#CCC1=N[C@@H]2[C@H](N)CCC[C@H]2N1OC(F)(F)F

>  <HIPPO Compound ID>  (24) 
94784

>  <fragmenstein_runtime>  (24) 
2.058999

$$$$
N#Cc1ccccc1[C@@H](N)C1CCCCC1
     RDKit          3D

 16 17  0  0  0  0  0  0  0  0999 V2000
   -2.5650    5.0121  -20.4136 N   0  0  0  0  0  0  0  0  0  0  0  0
   -3.0255    5.3489  -19.3982 C   0  0  0  0  0  0  0  0  0  0  0  0
   -3.5355    5.7969  -18.1263 C   0  0  0  0  0  0  0  0  0  0  0  0
   -2.5886    6.0013  -17.1105 C   0  0  0  0  0  0  0  0  0  0  0  0
   -2.9664    6.5477  -15.8886 C   0  0  0  0  0  0  0  0  0  0  0  0
   -4.2712    6.9822  -15.7121 C   0  0  0  0  0  0  0  0  0  0  0  0
   -5.2107    6.7930  -16.7233 C   0  0  0  0  0  0  0  0  0  0  0  0
   -4.9051    6.0658  -17.8840 C   0  0  0  0  0  0  0  0  0  0  0  0
   -6.0340    5.5702  -18.7896 C   0  0  1  0  0  0  0  0  0  0  0  0
   -5.6633    4.3291  -19.4168 N   0  0  0  0  0  0  0  0  0  0  0  0
   -7.4562    5.3335  -18.1540 C   0  0  0  0  0  0  0  0  0  0  0  0
   -8.2876    4.3391  -18.9790 C   0  0  0  0  0  0  0  0  0  0  0  0
   -9.7437    4.3100  -18.6038 C   0  0  0  0  0  0  0  0  0  0  0  0
  -10.0093    4.5675  -17.1490 C   0  0  0  0  0  0  0  0  0  0  0  0
   -8.8380    4.2092  -16.2622 C   0  0  0  0  0  0  0  0  0  0  0  0
   -7.5173    4.8589  -16.6812 C   0  0  0  0  0  0  0  0  0  0  0  0
  1  2  3  0
  2  3  1  0
  3  4  2  0
  4  5  1  0
  5  6  2  0
  6  7  1  0
  7  8  2  0
  8  9  1  0
  9 10  1  1
  9 11  1  0
 11 12  1  0
 12 13  1  0
 13 14  1  0
 14 15  1  0
 15 16  1  0
  8  3  1  0
 16 11  1  0
M  END
>  <smiles>  (25) 
C70731-P2

>  <fragmenstein_outcome>  (25) 
acceptable

>  <inchikey>  (25) 
PBUIAWMLKWLSRJ-UHFFFAOYSA-N

>  <fragmenstein_mode>  (25) 
expansion

>  <HIPPO Pose ID>  (25) 
477

>  <Energy>  (25) 
59.949813

>  <fragmenstein_error>  (25) 


>  <tags>  (25) 
{'openbind_xx01zvns2b_c1_fragmenstein', 'fragmenstein_placed'}

>  <ref_pdb>  (25) 
1

>  <scratch_subdir>  (25) 
/opt/xchem-fragalysis-2/maxwin/BulkDock/SCRATCH/511027/C70731-P2

>  <alias>  (25) 
N#Cc1ccccc1[C@@H](N)C1CCCCC1

>  <HIPPO Compound ID>  (25) 
77069

>  <fragmenstein_runtime>  (25) 
4.09

$$$$
CN1C(CC#N)=N[C@H]2CCCC[C@@H]21
     RDKit          3D

 13 14  0  0  0  0  0  0  0  0999 V2000
   -8.0202    4.4950  -15.8212 C   0  0  0  0  0  0  0  0  0  0  0  0
   -7.0116    4.6485  -16.8428 N   0  0  0  0  0  0  0  0  0  0  0  0
   -7.2449    4.7299  -18.2208 C   0  0  0  0  0  0  0  0  0  0  0  0
   -8.4487    4.1785  -18.9363 C   0  0  0  0  0  0  0  0  0  0  0  0
   -9.7322    4.6343  -18.4403 C   0  0  0  0  0  0  0  0  0  0  0  0
  -10.7899    4.8600  -18.0246 N   0  0  0  0  0  0  0  0  0  0  0  0
   -6.2644    5.2799  -18.9253 N   0  0  0  0  0  0  0  0  0  0  0  0
   -5.1706    5.3190  -17.9356 C   0  0  1  0  0  0  0  0  0  0  0  0
   -4.0919    6.3542  -18.1167 C   0  0  0  0  0  0  0  0  0  0  0  0
   -3.0496    6.1092  -17.0100 C   0  0  0  0  0  0  0  0  0  0  0  0
   -3.6604    6.0235  -15.5961 C   0  0  0  0  0  0  0  0  0  0  0  0
   -4.9012    5.1176  -15.4962 C   0  0  0  0  0  0  0  0  0  0  0  0
   -5.8693    5.5017  -16.5927 C   0  0  2  0  0  0  0  0  0  0  0  0
  1  2  1  0
  2  3  1  0
  3  4  1  0
  4  5  1  0
  5  6  3  0
  3  7  2  0
  7  8  1  0
  8  9  1  6
  9 10  1  0
 10 11  1  0
 11 12  1  0
 13 12  1  1
 13  2  1  0
 13  8  1  0
M  END
>  <smiles>  (26) 
C70733-P2

>  <fragmenstein_outcome>  (26) 
acceptable

>  <inchikey>  (26) 
FOYRWJZFBZMFPT-UHFFFAOYSA-N

>  <fragmenstein_mode>  (26) 
expansion

>  <HIPPO Pose ID>  (26) 
478

>  <Energy>  (26) 
42.25137

>  <fragmenstein_error>  (26) 


>  <tags>  (26) 
{'openbind_xx01zvns2b_c1_fragmenstein', 'fragmenstein_placed'}

>  <ref_pdb>  (26) 
1

>  <scratch_subdir>  (26) 
/opt/xchem-fragalysis-2/maxwin/BulkDock/SCRATCH/511027/C70733-P2

>  <alias>  (26) 
CN1C(CC#N)=N[C@H]2CCCC[C@@H]21

>  <HIPPO Compound ID>  (26) 
70733

>  <fragmenstein_runtime>  (26) 
1.032207

$$$$
N[C@H]1CC[C@@H](C(=O)Nc2ccc3c(c2)CNC3)[C@@H]2CCC[C@H]3CN=C[C@H](C1)[C@H]32
     RDKit          3D

 28 32  0  0  0  0  0  0  0  0999 V2000
  -10.5703    4.0909  -17.9368 N   0  0  0  0  0  0  0  0  0  0  0  0
   -9.2882    4.4501  -17.3481 C   0  0  1  0  0  0  0  0  0  0  0  0
   -8.8328    3.5249  -16.2729 C   0  0  0  0  0  0  0  0  0  0  0  0
   -8.7680    4.1229  -14.8894 C   0  0  0  0  0  0  0  0  0  0  0  0
   -7.7486    5.2580  -14.6876 C   0  0  1  0  0  0  0  0  0  0  0  0
   -7.7294    5.7461  -13.2077 C   0  0  0  0  0  0  0  0  0  0  0  0
   -7.7600    6.8894  -12.9547 O   0  0  0  0  0  0  0  0  0  0  0  0
   -7.7715    4.5034  -12.2693 N   0  0  0  0  0  0  0  0  0  0  0  0
   -7.9480    4.4173  -10.8970 C   0  0  0  0  0  0  0  0  0  0  0  0
   -7.9429    5.5392  -10.0604 C   0  0  0  0  0  0  0  0  0  0  0  0
   -8.2490    5.4042   -8.7008 C   0  0  0  0  0  0  0  0  0  0  0  0
   -8.6090    4.1530   -8.2270 C   0  0  0  0  0  0  0  0  0  0  0  0
   -8.6310    3.0465   -9.0673 C   0  0  0  0  0  0  0  0  0  0  0  0
   -8.2663    3.1501  -10.3942 C   0  0  0  0  0  0  0  0  0  0  0  0
   -9.1028    1.8512   -8.3109 C   0  0  0  0  0  0  0  0  0  0  0  0
   -9.6405    2.3856   -7.0338 N   0  0  0  0  0  0  0  0  0  0  0  0
   -9.0262    3.7218   -6.8602 C   0  0  0  0  0  0  0  0  0  0  0  0
   -6.3882    4.9761  -15.3831 C   0  0  2  0  0  0  0  0  0  0  0  0
   -5.1815    5.3984  -14.5314 C   0  0  0  0  0  0  0  0  0  0  0  0
   -3.8639    5.0363  -15.2202 C   0  0  0  0  0  0  0  0  0  0  0  0
   -3.8314    5.3829  -16.7076 C   0  0  0  0  0  0  0  0  0  0  0  0
   -4.9888    6.3086  -17.0777 C   0  0  1  0  0  0  0  0  0  0  0  0
   -4.9053    6.8552  -18.4922 C   0  0  0  0  0  0  0  0  0  0  0  0
   -5.0896    5.8410  -19.5066 N   0  0  0  0  0  0  0  0  0  0  0  0
   -5.9322    4.8997  -19.2754 C   0  0  0  0  0  0  0  0  0  0  0  0
   -6.7212    4.6787  -17.9992 C   0  0  2  0  0  0  0  0  0  0  0  0
   -8.2154    4.6320  -18.4208 C   0  0  0  0  0  0  0  0  0  0  0  0
   -6.3469    5.6293  -16.8332 C   0  0  1  0  0  0  0  0  0  0  0  0
  2  1  1  6
  2  3  1  0
  3  4  1  0
  4  5  1  0
  5  6  1  1
  6  7  2  0
  6  8  1  0
  8  9  1  0
  9 10  2  0
 10 11  1  0
 11 12  2  0
 12 13  1  0
 13 14  2  0
 13 15  1  0
 15 16  1  0
 16 17  1  0
  5 18  1  0
 18 19  1  1
 19 20  1  0
 20 21  1  0
 22 21  1  6
 22 23  1  0
 23 24  1  0
 24 25  2  0
 25 26  1  0
 26 27  1  6
 28 26  1  6
 27  2  1  0
 14  9  1  0
 28 18  1  0
 17 12  1  0
 28 22  1  0
M  END
>  <smiles>  (27) 
C70821-P129

>  <fragmenstein_outcome>  (27) 
acceptable

>  <inchikey>  (27) 
UYKRALJECSROCR-UHFFFAOYSA-N

>  <fragmenstein_mode>  (27) 
expansion

>  <HIPPO Pose ID>  (27) 
533

>  <Energy>  (27) 
97.023651

>  <fragmenstein_error>  (27) 


>  <tags>  (27) 
{'openbind_xx01zvns2b_c1_fragmenstein', 'fragmenstein_placed'}

>  <ref_pdb>  (27) 
1

>  <scratch_subdir>  (27) 
/opt/xchem-fragalysis-2/maxwin/BulkDock/SCRATCH/511027/C70821-P129

>  <alias>  (27) 
N[C@H]1CC[C@@H](C(=O)Nc2ccc3c(c2)CNC3)[C@@H]2CCC[C@H]3CN=C[C@H](C1)[C@H]32

>  <HIPPO Compound ID>  (27) 
95558

>  <fragmenstein_runtime>  (27) 
9.859884

$$$$
CC[C@@H]1CC[C@@H]2NC(=N)CC[C@H](C(=O)Nc3ccc4c(c3)CNC4)[C@H]2C1
     RDKit          3D

 26 29  0  0  0  0  0  0  0  0999 V2000
   -2.1611    7.0284  -14.6047 C   0  0  0  0  0  0  0  0  0  0  0  0
   -2.2648    5.6681  -15.2819 C   0  0  0  0  0  0  0  0  0  0  0  0
   -3.5710    5.3968  -16.0535 C   0  0  2  0  0  0  0  0  0  0  0  0
   -3.8689    6.4494  -17.1071 C   0  0  0  0  0  0  0  0  0  0  0  0
   -5.0379    6.0271  -17.9937 C   0  0  0  0  0  0  0  0  0  0  0  0
   -6.0591    5.0976  -17.2979 C   0  0  2  0  0  0  0  0  0  0  0  0
   -7.3174    5.2388  -18.0051 N   0  0  0  0  0  0  0  0  0  0  0  0
   -8.1994    4.2049  -17.9726 C   0  0  0  0  0  0  0  0  0  0  0  0
   -8.3442    3.5266  -19.0643 N   0  0  0  0  0  0  0  0  0  0  0  0
   -8.9934    3.8715  -16.7414 C   0  0  0  0  0  0  0  0  0  0  0  0
   -8.6879    4.6622  -15.4838 C   0  0  0  0  0  0  0  0  0  0  0  0
   -7.2427    4.6608  -14.9713 C   0  0  2  0  0  0  0  0  0  0  0  0
   -7.3150    5.2727  -13.5493 C   0  0  0  0  0  0  0  0  0  0  0  0
   -7.0783    6.3962  -13.3211 O   0  0  0  0  0  0  0  0  0  0  0  0
   -7.7543    4.1191  -12.5961 N   0  0  0  0  0  0  0  0  0  0  0  0
   -8.0696    4.1379  -11.2433 C   0  0  0  0  0  0  0  0  0  0  0  0
   -8.0135    5.3218  -10.4935 C   0  0  0  0  0  0  0  0  0  0  0  0
   -8.2595    5.3039   -9.1169 C   0  0  0  0  0  0  0  0  0  0  0  0
   -8.5726    4.0947   -8.5218 C   0  0  0  0  0  0  0  0  0  0  0  0
   -8.6640    2.9304   -9.2726 C   0  0  0  0  0  0  0  0  0  0  0  0
   -8.4128    2.9297  -10.6332 C   0  0  0  0  0  0  0  0  0  0  0  0
   -8.9978    1.7841   -8.3816 C   0  0  0  0  0  0  0  0  0  0  0  0
   -9.2857    2.3724   -7.0474 N   0  0  0  0  0  0  0  0  0  0  0  0
   -8.8217    3.7750   -7.0879 C   0  0  0  0  0  0  0  0  0  0  0  0
   -6.1664    5.4160  -15.8003 C   0  0  1  0  0  0  0  0  0  0  0  0
   -4.7778    5.2256  -15.1193 C   0  0  0  0  0  0  0  0  0  0  0  0
  1  2  1  0
  3  2  1  1
  3  4  1  0
  4  5  1  0
  6  5  1  6
  6  7  1  0
  7  8  1  0
  8  9  2  3
  8 10  1  0
 10 11  1  0
 11 12  1  0
 12 13  1  1
 13 14  2  0
 13 15  1  0
 15 16  1  0
 16 17  2  0
 17 18  1  0
 18 19  2  0
 19 20  1  0
 20 21  2  0
 20 22  1  0
 22 23  1  0
 23 24  1  0
 12 25  1  0
 25 26  1  1
 26  3  1  0
 25  6  1  0
 21 16  1  0
 24 19  1  0
M  END
>  <smiles>  (28) 
C70862-P185

>  <fragmenstein_outcome>  (28) 
acceptable

>  <inchikey>  (28) 
AEBNODJMXLLJAJ-UHFFFAOYSA-N

>  <fragmenstein_mode>  (28) 
expansion

>  <HIPPO Pose ID>  (28) 
583

>  <Energy>  (28) 
11.831529

>  <fragmenstein_error>  (28) 


>  <tags>  (28) 
{'openbind_xx01zvns2b_c1_fragmenstein', 'fragmenstein_placed'}

>  <ref_pdb>  (28) 
1

>  <scratch_subdir>  (28) 
/opt/xchem-fragalysis-2/maxwin/BulkDock/SCRATCH/511027/C70862-P185

>  <alias>  (28) 
CC[C@@H]1CC[C@@H]2NC(=N)CC[C@H](C(=O)Nc3ccc4c(c3)CNC4)[C@H]2C1

>  <HIPPO Compound ID>  (28) 
86757

>  <fragmenstein_runtime>  (28) 
10.320817

$$$$
NC1=CC2=N[C@H]3CCCC[C@@H]3N2C(C(=O)Nc2ccc3c(c2)CNC3=O)=C1
     RDKit          3D

 27 31  0  0  0  0  0  0  0  0999 V2000
  -10.3478    4.2243  -17.6998 N   0  0  0  0  0  0  0  0  0  0  0  0
   -9.0369    4.4038  -17.2985 C   0  0  0  0  0  0  0  0  0  0  0  0
   -8.0122    4.5284  -18.1655 C   0  0  0  0  0  0  0  0  0  0  0  0
   -6.6739    4.8146  -17.5920 C   0  0  0  0  0  0  0  0  0  0  0  0
   -5.6314    5.1178  -18.3436 N   0  0  0  0  0  0  0  0  0  0  0  0
   -4.5507    5.1758  -17.3326 C   0  0  1  0  0  0  0  0  0  0  0  0
   -3.4222    6.1441  -17.5993 C   0  0  0  0  0  0  0  0  0  0  0  0
   -2.4018    5.9913  -16.4571 C   0  0  0  0  0  0  0  0  0  0  0  0
   -3.0209    6.0005  -15.0439 C   0  0  0  0  0  0  0  0  0  0  0  0
   -4.3005    5.1564  -14.8935 C   0  0  0  0  0  0  0  0  0  0  0  0
   -5.2349    5.5530  -16.0128 C   0  0  2  0  0  0  0  0  0  0  0  0
   -6.4807    4.8565  -16.2078 N   0  0  0  0  0  0  0  0  0  0  0  0
   -7.5872    4.8419  -15.3733 C   0  0  0  0  0  0  0  0  0  0  0  0
   -7.5270    5.3848  -13.9707 C   0  0  0  0  0  0  0  0  0  0  0  0
   -7.1517    6.4744  -13.7701 O   0  0  0  0  0  0  0  0  0  0  0  0
   -8.0676    4.3102  -12.9893 N   0  0  0  0  0  0  0  0  0  0  0  0
   -8.1649    4.3215  -11.5967 C   0  0  0  0  0  0  0  0  0  0  0  0
   -8.0344    5.5252  -10.8787 C   0  0  0  0  0  0  0  0  0  0  0  0
   -8.1626    5.5484   -9.4860 C   0  0  0  0  0  0  0  0  0  0  0  0
   -8.3995    4.3474   -8.8477 C   0  0  0  0  0  0  0  0  0  0  0  0
   -8.5106    3.1425   -9.5353 C   0  0  0  0  0  0  0  0  0  0  0  0
   -8.4122    3.1205  -10.9195 C   0  0  0  0  0  0  0  0  0  0  0  0
   -8.7067    2.0256   -8.5621 C   0  0  0  0  0  0  0  0  0  0  0  0
   -8.8019    2.7233   -7.2975 N   0  0  0  0  0  0  0  0  0  0  0  0
   -8.5754    4.0755   -7.4161 C   0  0  0  0  0  0  0  0  0  0  0  0
   -8.5289    4.9043   -6.5275 O   0  0  0  0  0  0  0  0  0  0  0  0
   -8.8127    4.5856  -15.8661 C   0  0  0  0  0  0  0  0  0  0  0  0
  1  2  1  0
  2  3  2  0
  3  4  1  0
  4  5  2  0
  5  6  1  0
  6  7  1  6
  7  8  1  0
  8  9  1  0
  9 10  1  0
 11 10  1  1
 11 12  1  0
 12 13  1  0
 13 14  1  0
 14 15  2  0
 14 16  1  0
 16 17  1  0
 17 18  2  0
 18 19  1  0
 19 20  2  0
 20 21  1  0
 21 22  2  0
 21 23  1  0
 23 24  1  0
 24 25  1  0
 25 26  2  0
 13 27  2  0
 27  2  1  0
 12  4  1  0
 22 17  1  0
 11  6  1  0
 25 20  1  0
M  END
>  <smiles>  (29) 
C70881-P2

>  <fragmenstein_outcome>  (29) 
acceptable

>  <inchikey>  (29) 
ZYNDFBSJWRCOLM-UHFFFAOYSA-N

>  <fragmenstein_mode>  (29) 
expansion

>  <HIPPO Pose ID>  (29) 
604

>  <Energy>  (29) 
37.707398

>  <fragmenstein_error>  (29) 


>  <tags>  (29) 
{'openbind_xx01zvns2b_c1_fragmenstein', 'fragmenstein_placed'}

>  <ref_pdb>  (29) 
1

>  <scratch_subdir>  (29) 
/opt/xchem-fragalysis-2/maxwin/BulkDock/SCRATCH/511027/C70881-P2

>  <alias>  (29) 
NC1=CC2=N[C@H]3CCCC[C@@H]3N2C(C(=O)Nc2ccc3c(c2)CNC3=O)=C1

>  <HIPPO Compound ID>  (29) 
70881

>  <fragmenstein_runtime>  (29) 
6.162908

$$$$
CC(C)Nc1ccnc2c(OC(F)(F)F)cccc12
     RDKit          3D

 19 20  0  0  0  0  0  0  0  0999 V2000
   -2.7732    7.7484  -18.2881 C   0  0  0  0  0  0  0  0  0  0  0  0
   -3.2822    7.3253  -16.9140 C   0  0  0  0  0  0  0  0  0  0  0  0
   -4.3752    8.2607  -16.4022 C   0  0  0  0  0  0  0  0  0  0  0  0
   -3.6625    5.9011  -16.8601 N   0  0  0  0  0  0  0  0  0  0  0  0
   -4.8930    5.4942  -17.4153 C   0  0  0  0  0  0  0  0  0  0  0  0
   -5.0216    5.4700  -18.7951 C   0  0  0  0  0  0  0  0  0  0  0  0
   -6.2227    5.0658  -19.3286 C   0  0  0  0  0  0  0  0  0  0  0  0
   -7.2708    4.6344  -18.6138 N   0  0  0  0  0  0  0  0  0  0  0  0
   -7.1883    4.6799  -17.2882 C   0  0  0  0  0  0  0  0  0  0  0  0
   -8.2852    4.2527  -16.5456 C   0  0  0  0  0  0  0  0  0  0  0  0
   -9.3267    3.5566  -17.1176 O   0  0  0  0  0  0  0  0  0  0  0  0
  -10.2146    4.3644  -17.8710 C   0  0  0  0  0  0  0  0  0  0  0  0
   -9.8310    4.4701  -19.1546 F   0  0  0  0  0  0  0  0  0  0  0  0
  -11.4237    3.7564  -17.8598 F   0  0  0  0  0  0  0  0  0  0  0  0
  -10.3572    5.5757  -17.3217 F   0  0  0  0  0  0  0  0  0  0  0  0
   -8.2910    4.3520  -15.1559 C   0  0  0  0  0  0  0  0  0  0  0  0
   -7.1822    4.8439  -14.4852 C   0  0  0  0  0  0  0  0  0  0  0  0
   -6.0523    5.2156  -15.2081 C   0  0  0  0  0  0  0  0  0  0  0  0
   -6.0241    5.1410  -16.6205 C   0  0  0  0  0  0  0  0  0  0  0  0
  1  2  1  0
  2  3  1  0
  2  4  1  0
  4  5  1  0
  5  6  2  0
  6  7  1  0
  7  8  2  0
  8  9  1  0
  9 10  2  0
 10 11  1  0
 11 12  1  0
 12 13  1  0
 12 14  1  0
 12 15  1  0
 10 16  1  0
 16 17  2  0
 17 18  1  0
 18 19  2  0
 19  5  1  0
 19  9  1  0
M  END
>  <smiles>  (30) 
C70967-P2

>  <fragmenstein_outcome>  (30) 
acceptable

>  <inchikey>  (30) 
AASZMVHCFNUTCF-UHFFFAOYSA-N

>  <fragmenstein_mode>  (30) 
expansion

>  <HIPPO Pose ID>  (30) 
689

>  <Energy>  (30) 
65.781617

>  <fragmenstein_error>  (30) 


>  <tags>  (30) 
{'openbind_xx01zvns2b_c1_fragmenstein', 'fragmenstein_placed'}

>  <ref_pdb>  (30) 
1

>  <scratch_subdir>  (30) 
/opt/xchem-fragalysis-2/maxwin/BulkDock/SCRATCH/511027/C70967-P2

>  <alias>  (30) 
CC(C)Nc1ccnc2c(OC(F)(F)F)cccc12

>  <HIPPO Compound ID>  (30) 
105003

>  <fragmenstein_runtime>  (30) 
2.49668

$$$$
Nc1ccc2c3c(cccc13)[C@](O)(C(F)(F)F)N2
     RDKit          3D

 18 20  0  0  0  0  0  0  0  0999 V2000
   -5.9125    4.8747  -20.1762 N   0  0  0  0  0  0  0  0  0  0  0  0
   -5.7871    4.9812  -18.7856 C   0  0  0  0  0  0  0  0  0  0  0  0
   -4.5069    5.1244  -18.2011 C   0  0  0  0  0  0  0  0  0  0  0  0
   -4.3112    5.0575  -16.8052 C   0  0  0  0  0  0  0  0  0  0  0  0
   -5.4026    4.8272  -15.9934 C   0  0  0  0  0  0  0  0  0  0  0  0
   -6.6243    4.6679  -16.5777 C   0  0  0  0  0  0  0  0  0  0  0  0
   -7.5394    4.4378  -15.5973 C   0  0  0  0  0  0  0  0  0  0  0  0
   -8.8539    4.2061  -15.9487 C   0  0  0  0  0  0  0  0  0  0  0  0
   -9.2051    4.1848  -17.3006 C   0  0  0  0  0  0  0  0  0  0  0  0
   -8.2371    4.4175  -18.2900 C   0  0  0  0  0  0  0  0  0  0  0  0
   -6.8939    4.6989  -17.9444 C   0  0  0  0  0  0  0  0  0  0  0  0
   -6.8725    4.4952  -14.2453 C   0  0  2  0  0  0  0  0  0  0  0  0
   -7.0509    3.2654  -13.5555 O   0  0  0  0  0  0  0  0  0  0  0  0
   -7.3935    5.7262  -13.4200 C   0  0  0  0  0  0  0  0  0  0  0  0
   -7.0478    6.9000  -14.0206 F   0  0  0  0  0  0  0  0  0  0  0  0
   -8.7426    5.7468  -13.2785 F   0  0  0  0  0  0  0  0  0  0  0  0
   -6.8521    5.7683  -12.1771 F   0  0  0  0  0  0  0  0  0  0  0  0
   -5.4070    4.5974  -14.5942 N   0  0  0  0  0  0  0  0  0  0  0  0
  1  2  1  0
  2  3  2  0
  3  4  1  0
  4  5  2  0
  5  6  1  0
  6  7  2  0
  7  8  1  0
  8  9  2  0
  9 10  1  0
 10 11  2  0
  7 12  1  0
 12 13  1  1
 12 14  1  0
 14 15  1  0
 14 16  1  0
 14 17  1  0
 12 18  1  0
 11  2  1  0
 18  5  1  0
 11  6  1  0
M  END
>  <smiles>  (31) 
C70984-P3

>  <fragmenstein_outcome>  (31) 
acceptable

>  <inchikey>  (31) 
LBQMXMLFZTZSBM-UHFFFAOYSA-N

>  <fragmenstein_mode>  (31) 
expansion

>  <HIPPO Pose ID>  (31) 
695

>  <Energy>  (31) 
136.288139

>  <fragmenstein_error>  (31) 


>  <tags>  (31) 
{'openbind_xx01zvns2b_c1_fragmenstein', 'fragmenstein_placed'}

>  <ref_pdb>  (31) 
1

>  <scratch_subdir>  (31) 
/opt/xchem-fragalysis-2/maxwin/BulkDock/SCRATCH/511027/C70984-P3

>  <alias>  (31) 
Nc1ccc2c3c(cccc13)[C@](O)(C(F)(F)F)N2

>  <HIPPO Compound ID>  (31) 
70984

>  <fragmenstein_runtime>  (31) 
2.402717

$$$$
F[C@]1(Oc2cccc3c4nccc-4c[nH]c23)Oc2ccncc2O1
     RDKit          3D

 24 28  0  0  0  0  0  0  0  0999 V2000
   -6.2980    6.3491  -13.8642 F   0  0  0  0  0  0  0  0  0  0  0  0
   -7.3455    5.6295  -13.3611 C   0  0  2  0  0  0  0  0  0  0  0  0
   -7.4110    4.3766  -14.0486 O   0  0  0  0  0  0  0  0  0  0  0  0
   -7.4983    4.5005  -15.4084 C   0  0  0  0  0  0  0  0  0  0  0  0
   -8.7372    4.2482  -15.9998 C   0  0  0  0  0  0  0  0  0  0  0  0
   -8.8870    4.2602  -17.3869 C   0  0  0  0  0  0  0  0  0  0  0  0
   -7.7879    4.5282  -18.1950 C   0  0  0  0  0  0  0  0  0  0  0  0
   -6.5486    4.7687  -17.6056 C   0  0  0  0  0  0  0  0  0  0  0  0
   -5.3725    5.0768  -18.4174 C   0  0  0  0  0  0  0  0  0  0  0  0
   -5.2726    5.2526  -19.7113 N   0  0  0  0  0  0  0  0  0  0  0  0
   -3.9356    5.5785  -19.9076 C   0  0  0  0  0  0  0  0  0  0  0  0
   -3.1753    5.5943  -18.8001 C   0  0  0  0  0  0  0  0  0  0  0  0
   -4.0720    5.2753  -17.7485 C   0  0  0  0  0  0  0  0  0  0  0  0
   -3.9919    5.1696  -16.4253 C   0  0  0  0  0  0  0  0  0  0  0  0
   -5.0784    4.8621  -15.6453 N   0  0  0  0  0  0  0  0  0  0  0  0
   -6.3749    4.7468  -16.2039 C   0  0  0  0  0  0  0  0  0  0  0  0
   -8.5152    6.4685  -13.5063 O   0  0  0  0  0  0  0  0  0  0  0  0
   -8.5744    7.0103  -12.2576 C   0  0  0  0  0  0  0  0  0  0  0  0
   -9.3687    8.0592  -11.8581 C   0  0  0  0  0  0  0  0  0  0  0  0
   -9.2851    8.4035  -10.5162 C   0  0  0  0  0  0  0  0  0  0  0  0
   -8.4765    7.7779   -9.6170 N   0  0  0  0  0  0  0  0  0  0  0  0
   -7.7102    6.7578  -10.0685 C   0  0  0  0  0  0  0  0  0  0  0  0
   -7.7359    6.3716  -11.3812 C   0  0  0  0  0  0  0  0  0  0  0  0
   -7.0056    5.3977  -11.9742 O   0  0  0  0  0  0  0  0  0  0  0  0
  2  1  1  6
  2  3  1  0
  3  4  1  0
  4  5  2  0
  5  6  1  0
  6  7  2  0
  7  8  1  0
  8  9  1  0
  9 10  2  0
 10 11  1  0
 11 12  2  0
 12 13  1  0
 13 14  2  0
 14 15  1  0
 15 16  1  0
  2 17  1  0
 17 18  1  0
 18 19  2  0
 19 20  1  0
 20 21  2  0
 21 22  1  0
 22 23  2  0
 23 24  1  0
 24  2  1  0
 16  4  1  0
 23 18  1  0
 16  8  2  0
 13  9  1  0
M  END
>  <smiles>  (32) 
C71010-P3

>  <fragmenstein_outcome>  (32) 
acceptable

>  <inchikey>  (32) 
UODJYNBUPNZYMQ-UHFFFAOYSA-N

>  <fragmenstein_mode>  (32) 
expansion

>  <HIPPO Pose ID>  (32) 
704

>  <Energy>  (32) 
100.329172

>  <fragmenstein_error>  (32) 


>  <tags>  (32) 
{'openbind_xx01zvns2b_c1_fragmenstein', 'fragmenstein_placed'}

>  <ref_pdb>  (32) 
1

>  <scratch_subdir>  (32) 
/opt/xchem-fragalysis-2/maxwin/BulkDock/SCRATCH/511027/C71010-P3

>  <alias>  (32) 
F[C@]1(Oc2cccc3c4nccc-4c[nH]c23)Oc2ccncc2O1

>  <HIPPO Compound ID>  (32) 
71010

>  <fragmenstein_runtime>  (32) 
2.272277

$$$$
Nc1cc(OC(F)(F)F)c2nccc(N)c2c1
     RDKit          3D

 17 18  0  0  0  0  0  0  0  0999 V2000
  -10.2881    4.1197  -17.5831 N   0  0  0  0  0  0  0  0  0  0  0  0
   -8.9672    4.3664  -17.1991 C   0  0  0  0  0  0  0  0  0  0  0  0
   -8.5916    4.2598  -15.8743 C   0  0  0  0  0  0  0  0  0  0  0  0
   -7.2680    4.4858  -15.5014 C   0  0  0  0  0  0  0  0  0  0  0  0
   -6.9517    4.3951  -14.1652 O   0  0  0  0  0  0  0  0  0  0  0  0
   -7.2817    5.6050  -13.5019 C   0  0  0  0  0  0  0  0  0  0  0  0
   -6.7500    6.6890  -14.1130 F   0  0  0  0  0  0  0  0  0  0  0  0
   -8.6246    5.7726  -13.4255 F   0  0  0  0  0  0  0  0  0  0  0  0
   -6.8002    5.5606  -12.2386 F   0  0  0  0  0  0  0  0  0  0  0  0
   -6.2610    4.7500  -16.4329 C   0  0  0  0  0  0  0  0  0  0  0  0
   -4.9930    4.9453  -16.0111 N   0  0  0  0  0  0  0  0  0  0  0  0
   -4.0499    5.2090  -16.9328 C   0  0  0  0  0  0  0  0  0  0  0  0
   -4.3020    5.3102  -18.2849 C   0  0  0  0  0  0  0  0  0  0  0  0
   -5.6028    5.1114  -18.7407 C   0  0  0  0  0  0  0  0  0  0  0  0
   -5.8767    5.4200  -20.0774 N   0  0  0  0  0  0  0  0  0  0  0  0
   -6.6224    4.8161  -17.7976 C   0  0  0  0  0  0  0  0  0  0  0  0
   -7.9729    4.5705  -18.1516 C   0  0  0  0  0  0  0  0  0  0  0  0
  1  2  1  0
  2  3  2  0
  3  4  1  0
  4  5  1  0
  5  6  1  0
  6  7  1  0
  6  8  1  0
  6  9  1  0
  4 10  2  0
 10 11  1  0
 11 12  2  0
 12 13  1  0
 13 14  2  0
 14 15  1  0
 14 16  1  0
 16 17  2  0
 17  2  1  0
 16 10  1  0
M  END
>  <smiles>  (33) 
C71022-P3

>  <fragmenstein_outcome>  (33) 
acceptable

>  <inchikey>  (33) 
BMGZBFFRGOHRQE-UHFFFAOYSA-N

>  <fragmenstein_mode>  (33) 
expansion

>  <HIPPO Pose ID>  (33) 
710

>  <Energy>  (33) 
44.237433

>  <fragmenstein_error>  (33) 


>  <tags>  (33) 
{'openbind_xx01zvns2b_c1_fragmenstein', 'fragmenstein_placed'}

>  <ref_pdb>  (33) 
1

>  <scratch_subdir>  (33) 
/opt/xchem-fragalysis-2/maxwin/BulkDock/SCRATCH/511027/C71022-P3

>  <alias>  (33) 
Nc1cc(OC(F)(F)F)c2nccc(N)c2c1

>  <HIPPO Compound ID>  (33) 
77807

>  <fragmenstein_runtime>  (33) 
1.590894

$$$$
CC(=O)NN(CCCC[NH3+])[C@](F)(N=O)Oc1cccc2c(N)ccnc12
     RDKit          3D

 26 27  0  0  0  0  0  0  0  0999 V2000
   -9.9315    8.5937  -12.5212 C   0  0  0  0  0  0  0  0  0  0  0  0
   -9.4834    7.1945  -12.8879 C   0  0  0  0  0  0  0  0  0  0  0  0
  -10.0164    6.5318  -13.6901 O   0  0  0  0  0  0  0  0  0  0  0  0
   -8.2203    6.9080  -12.0179 N   0  0  0  0  0  0  0  0  0  0  0  0
   -7.3352    5.8224  -12.0305 N   0  0  0  0  0  0  0  0  0  0  0  0
   -7.9627    4.6086  -11.4879 C   0  0  0  0  0  0  0  0  0  0  0  0
   -7.9333    4.6794   -9.9606 C   0  0  0  0  0  0  0  0  0  0  0  0
   -8.3765    3.3873   -9.2773 C   0  0  0  0  0  0  0  0  0  0  0  0
   -7.2721    2.3606   -9.0606 C   0  0  0  0  0  0  0  0  0  0  0  0
   -6.9061    1.6333  -10.2851 N   0  0  0  0  0  0  0  0  0  0  0  0
   -6.7320    5.5510  -13.3930 C   0  0  2  0  0  0  0  0  0  0  0  0
   -5.7484    4.6460  -13.0923 F   0  0  0  0  0  0  0  0  0  0  0  0
   -6.0241    6.7951  -13.8893 N   0  0  0  0  0  0  0  0  0  0  0  0
   -6.7778    7.6373  -14.3856 O   0  0  0  0  0  0  0  0  0  0  0  0
   -7.6708    4.8272  -14.1896 O   0  0  0  0  0  0  0  0  0  0  0  0
   -7.6098    4.6798  -15.5428 C   0  0  0  0  0  0  0  0  0  0  0  0
   -8.8637    4.3081  -16.0419 C   0  0  0  0  0  0  0  0  0  0  0  0
   -9.0960    4.1565  -17.3922 C   0  0  0  0  0  0  0  0  0  0  0  0
   -8.0497    4.3820  -18.2641 C   0  0  0  0  0  0  0  0  0  0  0  0
   -6.7633    4.7411  -17.8017 C   0  0  0  0  0  0  0  0  0  0  0  0
   -5.6986    5.0032  -18.6980 C   0  0  0  0  0  0  0  0  0  0  0  0
   -5.8502    4.8513  -20.0899 N   0  0  0  0  0  0  0  0  0  0  0  0
   -4.4245    5.2003  -18.1799 C   0  0  0  0  0  0  0  0  0  0  0  0
   -4.2684    5.2290  -16.8095 C   0  0  0  0  0  0  0  0  0  0  0  0
   -5.2764    5.0639  -15.9279 N   0  0  0  0  0  0  0  0  0  0  0  0
   -6.5201    4.8400  -16.4034 C   0  0  0  0  0  0  0  0  0  0  0  0
  1  2  1  0
  2  3  2  0
  2  4  1  0
  4  5  1  0
  5  6  1  0
  6  7  1  0
  7  8  1  0
  8  9  1  0
  9 10  1  0
  5 11  1  0
 11 12  1  1
 11 13  1  0
 13 14  2  0
 11 15  1  0
 15 16  1  0
 16 17  2  0
 17 18  1  0
 18 19  2  0
 19 20  1  0
 20 21  2  0
 21 22  1  0
 21 23  1  0
 23 24  2  0
 24 25  1  0
 25 26  2  0
 26 16  1  0
 26 20  1  0
M  CHG  1  10   1
M  END
>  <smiles>  (34) 
C71029-P3

>  <fragmenstein_outcome>  (34) 
acceptable

>  <inchikey>  (34) 
SGLVHTOTBHBPER-UHFFFAOYSA-N

>  <fragmenstein_mode>  (34) 
expansion

>  <HIPPO Pose ID>  (34) 
711

>  <Energy>  (34) 
124.870622

>  <fragmenstein_error>  (34) 


>  <tags>  (34) 
{'openbind_xx01zvns2b_c1_fragmenstein', 'fragmenstein_placed'}

>  <ref_pdb>  (34) 
1

>  <scratch_subdir>  (34) 
/opt/xchem-fragalysis-2/maxwin/BulkDock/SCRATCH/511027/C71029-P3

>  <alias>  (34) 
CC(=O)NN(CCCC[NH3+])[C@](F)(N=O)Oc1cccc2c(N)ccnc12

>  <HIPPO Compound ID>  (34) 
72111

>  <fragmenstein_runtime>  (34) 
7.71893

$$$$
NCCc1cccc(OC(F)(F)Oc2cc(Cl)cc3c(NOCc4ccccc4)ccnc23)c1
     RDKit          3D

 34 37  0  0  0  0  0  0  0  0999 V2000
   -5.4406   12.6356  -16.4420 N   0  0  0  0  0  0  0  0  0  0  0  0
   -6.1432   11.5776  -15.7155 C   0  0  0  0  0  0  0  0  0  0  0  0
   -5.5325   11.3131  -14.3326 C   0  0  0  0  0  0  0  0  0  0  0  0
   -6.2702   10.2210  -13.5985 C   0  0  0  0  0  0  0  0  0  0  0  0
   -7.1425   10.5215  -12.5482 C   0  0  0  0  0  0  0  0  0  0  0  0
   -7.8384    9.5005  -11.8992 C   0  0  0  0  0  0  0  0  0  0  0  0
   -7.6842    8.1707  -12.3007 C   0  0  0  0  0  0  0  0  0  0  0  0
   -6.8287    7.8564  -13.3535 C   0  0  0  0  0  0  0  0  0  0  0  0
   -6.6049    6.6215  -13.8830 O   0  0  0  0  0  0  0  0  0  0  0  0
   -7.3676    5.5156  -13.4066 C   0  0  0  0  0  0  0  0  0  0  0  0
   -8.6976    5.8041  -13.4898 F   0  0  0  0  0  0  0  0  0  0  0  0
   -7.0816    5.3288  -12.0909 F   0  0  0  0  0  0  0  0  0  0  0  0
   -7.1313    4.2723  -14.0654 O   0  0  0  0  0  0  0  0  0  0  0  0
   -7.2913    4.4089  -15.4259 C   0  0  0  0  0  0  0  0  0  0  0  0
   -8.5654    4.2312  -15.9514 C   0  0  0  0  0  0  0  0  0  0  0  0
   -8.7506    4.3579  -17.3123 C   0  0  0  0  0  0  0  0  0  0  0  0
  -10.3169    4.2157  -17.9721 Cl  0  0  0  0  0  0  0  0  0  0  0  0
   -7.6816    4.6727  -18.1407 C   0  0  0  0  0  0  0  0  0  0  0  0
   -6.3818    4.8466  -17.6230 C   0  0  0  0  0  0  0  0  0  0  0  0
   -5.2575    5.1834  -18.4181 C   0  0  0  0  0  0  0  0  0  0  0  0
   -5.3884    5.6375  -19.7555 N   0  0  0  0  0  0  0  0  0  0  0  0
   -4.2533    5.8231  -20.5564 O   0  0  0  0  0  0  0  0  0  0  0  0
   -3.8734    7.2058  -20.5025 C   0  0  0  0  0  0  0  0  0  0  0  0
   -4.6791    8.1905  -21.3225 C   0  0  0  0  0  0  0  0  0  0  0  0
   -4.8500    9.5031  -20.8494 C   0  0  0  0  0  0  0  0  0  0  0  0
   -5.4796   10.4711  -21.6347 C   0  0  0  0  0  0  0  0  0  0  0  0
   -5.9446   10.1411  -22.9053 C   0  0  0  0  0  0  0  0  0  0  0  0
   -5.7900    8.8425  -23.3842 C   0  0  0  0  0  0  0  0  0  0  0  0
   -5.1553    7.8771  -22.5994 C   0  0  0  0  0  0  0  0  0  0  0  0
   -4.0048    5.2447  -17.8020 C   0  0  0  0  0  0  0  0  0  0  0  0
   -3.9104    5.0324  -16.4460 C   0  0  0  0  0  0  0  0  0  0  0  0
   -4.9662    4.7785  -15.6602 N   0  0  0  0  0  0  0  0  0  0  0  0
   -6.1806    4.6731  -16.2323 C   0  0  0  0  0  0  0  0  0  0  0  0
   -6.1129    8.8818  -13.9817 C   0  0  0  0  0  0  0  0  0  0  0  0
  1  2  1  0
  2  3  1  0
  3  4  1  0
  4  5  2  0
  5  6  1  0
  6  7  2  0
  7  8  1  0
  8  9  1  0
  9 10  1  0
 10 11  1  0
 10 12  1  0
 10 13  1  0
 13 14  1  0
 14 15  2  0
 15 16  1  0
 16 17  1  0
 16 18  2  0
 18 19  1  0
 19 20  2  0
 20 21  1  0
 21 22  1  0
 22 23  1  0
 23 24  1  0
 24 25  2  0
 25 26  1  0
 26 27  2  0
 27 28  1  0
 28 29  2  0
 20 30  1  0
 30 31  2  0
 31 32  1  0
 32 33  2  0
  8 34  2  0
 34  4  1  0
 33 14  1  0
 33 19  1  0
 29 24  1  0
M  END
>  <smiles>  (35) 
C71048-P3

>  <fragmenstein_outcome>  (35) 
acceptable

>  <inchikey>  (35) 
QPZSWHABCVUKAP-UHFFFAOYSA-N

>  <fragmenstein_mode>  (35) 
expansion

>  <HIPPO Pose ID>  (35) 
719

>  <Energy>  (35) 
122.752517

>  <fragmenstein_error>  (35) 


>  <tags>  (35) 
{'openbind_xx01zvns2b_c1_fragmenstein', 'fragmenstein_placed'}

>  <ref_pdb>  (35) 
1

>  <scratch_subdir>  (35) 
/opt/xchem-fragalysis-2/maxwin/BulkDock/SCRATCH/511027/C71048-P3

>  <alias>  (35) 
NCCc1cccc(OC(F)(F)Oc2cc(Cl)cc3c(NOCc4ccccc4)ccnc23)c1

>  <HIPPO Compound ID>  (35) 
90249

>  <fragmenstein_runtime>  (35) 
5.964429

$$$$
NCCc1ccc(OC(F)(F)Oc2cc(Cl)cc3c(N)c(OCc4ccccc4)cnc23)cc1
     RDKit          3D

 34 37  0  0  0  0  0  0  0  0999 V2000
   -1.0817    7.6923  -10.6024 N   0  0  0  0  0  0  0  0  0  0  0  0
   -1.2913    8.8996  -11.4017 C   0  0  0  0  0  0  0  0  0  0  0  0
   -1.5541    8.5984  -12.8848 C   0  0  0  0  0  0  0  0  0  0  0  0
   -2.9651    8.1451  -13.1765 C   0  0  0  0  0  0  0  0  0  0  0  0
   -3.3626    6.8296  -12.9116 C   0  0  0  0  0  0  0  0  0  0  0  0
   -4.6695    6.4056  -13.1780 C   0  0  0  0  0  0  0  0  0  0  0  0
   -5.6011    7.2934  -13.7119 C   0  0  0  0  0  0  0  0  0  0  0  0
   -6.8973    7.0131  -14.0350 O   0  0  0  0  0  0  0  0  0  0  0  0
   -7.4600    5.7818  -13.5927 C   0  0  0  0  0  0  0  0  0  0  0  0
   -8.8166    5.9254  -13.6646 F   0  0  0  0  0  0  0  0  0  0  0  0
   -7.1941    5.6072  -12.2688 F   0  0  0  0  0  0  0  0  0  0  0  0
   -7.0900    4.5910  -14.2771 O   0  0  0  0  0  0  0  0  0  0  0  0
   -7.3707    4.6412  -15.6227 C   0  0  0  0  0  0  0  0  0  0  0  0
   -8.6697    4.3527  -16.0289 C   0  0  0  0  0  0  0  0  0  0  0  0
   -8.9579    4.3057  -17.3765 C   0  0  0  0  0  0  0  0  0  0  0  0
  -10.5677    4.1482  -17.9032 Cl  0  0  0  0  0  0  0  0  0  0  0  0
   -7.9566    4.4805  -18.3124 C   0  0  0  0  0  0  0  0  0  0  0  0
   -6.6415    4.7857  -17.9208 C   0  0  0  0  0  0  0  0  0  0  0  0
   -5.6096    5.0033  -18.8625 C   0  0  0  0  0  0  0  0  0  0  0  0
   -5.8364    4.8109  -20.2376 N   0  0  0  0  0  0  0  0  0  0  0  0
   -4.3140    5.2050  -18.3841 C   0  0  0  0  0  0  0  0  0  0  0  0
   -3.2556    5.2734  -19.2462 O   0  0  0  0  0  0  0  0  0  0  0  0
   -2.9887    6.6258  -19.6264 C   0  0  0  0  0  0  0  0  0  0  0  0
   -2.3726    6.5954  -21.0031 C   0  0  0  0  0  0  0  0  0  0  0  0
   -3.0547    7.1254  -22.1066 C   0  0  0  0  0  0  0  0  0  0  0  0
   -2.4892    7.0728  -23.3824 C   0  0  0  0  0  0  0  0  0  0  0  0
   -1.2376    6.4904  -23.5689 C   0  0  0  0  0  0  0  0  0  0  0  0
   -0.5522    5.9575  -22.4802 C   0  0  0  0  0  0  0  0  0  0  0  0
   -1.1164    6.0072  -21.2044 C   0  0  0  0  0  0  0  0  0  0  0  0
   -4.1045    5.2572  -17.0199 C   0  0  0  0  0  0  0  0  0  0  0  0
   -5.0864    5.1133  -16.1059 N   0  0  0  0  0  0  0  0  0  0  0  0
   -6.3357    4.8595  -16.5409 C   0  0  0  0  0  0  0  0  0  0  0  0
   -5.2068    8.6072  -13.9809 C   0  0  0  0  0  0  0  0  0  0  0  0
   -3.9034    9.0337  -13.7126 C   0  0  0  0  0  0  0  0  0  0  0  0
  1  2  1  0
  2  3  1  0
  3  4  1  0
  4  5  2  0
  5  6  1  0
  6  7  2  0
  7  8  1  0
  8  9  1  0
  9 10  1  0
  9 11  1  0
  9 12  1  0
 12 13  1  0
 13 14  2  0
 14 15  1  0
 15 16  1  0
 15 17  2  0
 17 18  1  0
 18 19  2  0
 19 20  1  0
 19 21  1  0
 21 22  1  0
 22 23  1  0
 23 24  1  0
 24 25  2  0
 25 26  1  0
 26 27  2  0
 27 28  1  0
 28 29  2  0
 21 30  2  0
 30 31  1  0
 31 32  2  0
  7 33  1  0
 33 34  2  0
 34  4  1  0
 32 13  1  0
 32 18  1  0
 29 24  1  0
M  END
>  <smiles>  (36) 
C71049-P3

>  <fragmenstein_outcome>  (36) 
acceptable

>  <inchikey>  (36) 
QZCQBJLPGBQCNZ-UHFFFAOYSA-N

>  <fragmenstein_mode>  (36) 
expansion

>  <HIPPO Pose ID>  (36) 
720

>  <Energy>  (36) 
138.218813

>  <fragmenstein_error>  (36) 


>  <tags>  (36) 
{'openbind_xx01zvns2b_c1_fragmenstein', 'fragmenstein_placed'}

>  <ref_pdb>  (36) 
1

>  <scratch_subdir>  (36) 
/opt/xchem-fragalysis-2/maxwin/BulkDock/SCRATCH/511027/C71049-P3

>  <alias>  (36) 
NCCc1ccc(OC(F)(F)Oc2cc(Cl)cc3c(N)c(OCc4ccccc4)cnc23)cc1

>  <HIPPO Compound ID>  (36) 
101085

>  <fragmenstein_runtime>  (36) 
7.045744

$$$$
Nc1ccnc2c(N(Nc3ccc4c(c3)CNC4)C(F)(F)F)cc(F)cc12
     RDKit          3D

 27 30  0  0  0  0  0  0  0  0999 V2000
   -5.8743    5.3640  -19.9916 N   0  0  0  0  0  0  0  0  0  0  0  0
   -5.6498    5.0818  -18.6422 C   0  0  0  0  0  0  0  0  0  0  0  0
   -4.3764    5.3124  -18.1319 C   0  0  0  0  0  0  0  0  0  0  0  0
   -4.1826    5.2232  -16.7694 C   0  0  0  0  0  0  0  0  0  0  0  0
   -5.1605    4.9475  -15.8857 N   0  0  0  0  0  0  0  0  0  0  0  0
   -6.4105    4.7302  -16.3478 C   0  0  0  0  0  0  0  0  0  0  0  0
   -7.4717    4.4960  -15.4427 C   0  0  0  0  0  0  0  0  0  0  0  0
   -7.3325    4.5866  -14.0190 N   0  0  0  0  0  0  0  0  0  0  0  0
   -6.5338    3.6827  -13.3274 N   0  0  0  0  0  0  0  0  0  0  0  0
   -6.8493    3.1921  -12.0320 C   0  0  0  0  0  0  0  0  0  0  0  0
   -6.1095    2.1016  -11.5265 C   0  0  0  0  0  0  0  0  0  0  0  0
   -6.4006    1.5371  -10.2788 C   0  0  0  0  0  0  0  0  0  0  0  0
   -7.4137    2.0968   -9.5298 C   0  0  0  0  0  0  0  0  0  0  0  0
   -8.0211    3.2704   -9.9384 C   0  0  0  0  0  0  0  0  0  0  0  0
   -7.7924    3.8026  -11.1936 C   0  0  0  0  0  0  0  0  0  0  0  0
   -8.9866    3.6798   -8.8880 C   0  0  0  0  0  0  0  0  0  0  0  0
   -8.7173    2.8161   -7.7180 N   0  0  0  0  0  0  0  0  0  0  0  0
   -8.1918    1.5858   -8.3559 C   0  0  0  0  0  0  0  0  0  0  0  0
   -7.3480    5.9948  -13.5977 C   0  0  0  0  0  0  0  0  0  0  0  0
   -6.7702    6.8529  -14.4730 F   0  0  0  0  0  0  0  0  0  0  0  0
   -8.6417    6.3982  -13.4555 F   0  0  0  0  0  0  0  0  0  0  0  0
   -6.7470    6.1928  -12.3984 F   0  0  0  0  0  0  0  0  0  0  0  0
   -8.7566    4.2149  -15.9205 C   0  0  0  0  0  0  0  0  0  0  0  0
   -9.0069    4.1677  -17.2745 C   0  0  0  0  0  0  0  0  0  0  0  0
  -10.2323    3.8656  -17.7171 F   0  0  0  0  0  0  0  0  0  0  0  0
   -8.0029    4.4529  -18.1782 C   0  0  0  0  0  0  0  0  0  0  0  0
   -6.6972    4.7611  -17.7414 C   0  0  0  0  0  0  0  0  0  0  0  0
  1  2  1  0
  2  3  2  0
  3  4  1  0
  4  5  2  0
  5  6  1  0
  6  7  2  0
  7  8  1  0
  8  9  1  0
  9 10  1  0
 10 11  2  0
 11 12  1  0
 12 13  2  0
 13 14  1  0
 14 15  2  0
 14 16  1  0
 16 17  1  0
 17 18  1  0
  8 19  1  0
 19 20  1  0
 19 21  1  0
 19 22  1  0
  7 23  1  0
 23 24  2  0
 24 25  1  0
 24 26  1  0
 26 27  2  0
 27  2  1  0
 27  6  1  0
 15 10  1  0
 18 13  1  0
M  END
>  <smiles>  (37) 
C71061-P3

>  <fragmenstein_outcome>  (37) 
acceptable

>  <inchikey>  (37) 
CUBFAICLEFYVQS-UHFFFAOYSA-N

>  <fragmenstein_mode>  (37) 
expansion

>  <HIPPO Pose ID>  (37) 
723

>  <Energy>  (37) 
132.026732

>  <fragmenstein_error>  (37) 


>  <tags>  (37) 
{'openbind_xx01zvns2b_c1_fragmenstein', 'fragmenstein_placed'}

>  <ref_pdb>  (37) 
1

>  <scratch_subdir>  (37) 
/opt/xchem-fragalysis-2/maxwin/BulkDock/SCRATCH/511027/C71061-P3

>  <alias>  (37) 
Nc1ccnc2c(N(Nc3ccc4c(c3)CNC4)C(F)(F)F)cc(F)cc12

>  <HIPPO Compound ID>  (37) 
94476

>  <fragmenstein_runtime>  (37) 
8.129022

$$$$
Nc1ccnc2c(N(Nc3ccc4c(c3)CNC4)C(F)(F)F)cccc12
     RDKit          3D

 26 29  0  0  0  0  0  0  0  0999 V2000
   -5.3639    5.0759  -19.8456 N   0  0  0  0  0  0  0  0  0  0  0  0
   -5.4921    5.0853  -18.4411 C   0  0  0  0  0  0  0  0  0  0  0  0
   -4.3587    5.3406  -17.6772 C   0  0  0  0  0  0  0  0  0  0  0  0
   -4.4608    5.2659  -16.3053 C   0  0  0  0  0  0  0  0  0  0  0  0
   -5.5889    4.9272  -15.6559 N   0  0  0  0  0  0  0  0  0  0  0  0
   -6.6877    4.5970  -16.3715 C   0  0  0  0  0  0  0  0  0  0  0  0
   -7.9015    4.2358  -15.7386 C   0  0  0  0  0  0  0  0  0  0  0  0
   -8.1281    4.3326  -14.3015 N   0  0  0  0  0  0  0  0  0  0  0  0
   -7.1634    3.7833  -13.4158 N   0  0  0  0  0  0  0  0  0  0  0  0
   -7.3330    3.8656  -12.0005 C   0  0  0  0  0  0  0  0  0  0  0  0
   -7.0315    5.0623  -11.3191 C   0  0  0  0  0  0  0  0  0  0  0  0
   -7.2943    5.2182   -9.9517 C   0  0  0  0  0  0  0  0  0  0  0  0
   -7.8497    4.1573   -9.2686 C   0  0  0  0  0  0  0  0  0  0  0  0
   -8.1153    2.9583   -9.9162 C   0  0  0  0  0  0  0  0  0  0  0  0
   -7.8712    2.7987  -11.2745 C   0  0  0  0  0  0  0  0  0  0  0  0
   -8.6672    1.9876   -8.9234 C   0  0  0  0  0  0  0  0  0  0  0  0
   -9.0577    2.8039   -7.7502 N   0  0  0  0  0  0  0  0  0  0  0  0
   -8.2408    4.0355   -7.8346 C   0  0  0  0  0  0  0  0  0  0  0  0
   -8.5354    5.7290  -14.1472 C   0  0  0  0  0  0  0  0  0  0  0  0
   -8.9227    6.0436  -12.8873 F   0  0  0  0  0  0  0  0  0  0  0  0
   -7.5481    6.5816  -14.4994 F   0  0  0  0  0  0  0  0  0  0  0  0
   -9.6178    6.0418  -14.9075 F   0  0  0  0  0  0  0  0  0  0  0  0
   -9.0416    3.9291  -16.5021 C   0  0  0  0  0  0  0  0  0  0  0  0
   -9.0138    3.9531  -17.8766 C   0  0  0  0  0  0  0  0  0  0  0  0
   -7.8294    4.2849  -18.5058 C   0  0  0  0  0  0  0  0  0  0  0  0
   -6.6704    4.6469  -17.7879 C   0  0  0  0  0  0  0  0  0  0  0  0
  1  2  1  0
  2  3  2  0
  3  4  1  0
  4  5  2  0
  5  6  1  0
  6  7  2  0
  7  8  1  0
  8  9  1  0
  9 10  1  0
 10 11  2  0
 11 12  1  0
 12 13  2  0
 13 14  1  0
 14 15  2  0
 14 16  1  0
 16 17  1  0
 17 18  1  0
  8 19  1  0
 19 20  1  0
 19 21  1  0
 19 22  1  0
  7 23  1  0
 23 24  2  0
 24 25  1  0
 25 26  2  0
 26  2  1  0
 26  6  1  0
 15 10  1  0
 18 13  1  0
M  END
>  <smiles>  (38) 
C71065-P3

>  <fragmenstein_outcome>  (38) 
acceptable

>  <inchikey>  (38) 
YEAIZHAAXRMHGQ-UHFFFAOYSA-N

>  <fragmenstein_mode>  (38) 
expansion

>  <HIPPO Pose ID>  (38) 
726

>  <Energy>  (38) 
145.446551

>  <fragmenstein_error>  (38) 


>  <tags>  (38) 
{'openbind_xx01zvns2b_c1_fragmenstein', 'fragmenstein_placed'}

>  <ref_pdb>  (38) 
1

>  <scratch_subdir>  (38) 
/opt/xchem-fragalysis-2/maxwin/BulkDock/SCRATCH/511027/C71065-P3

>  <alias>  (38) 
Nc1ccnc2c(N(Nc3ccc4c(c3)CNC4)C(F)(F)F)cccc12

>  <HIPPO Compound ID>  (38) 
103994

>  <fragmenstein_runtime>  (38) 
21.627522

$$$$
Nc1ccnc2c(N(c3ccc4c(c3)CNC4)C(F)(F)F)cccc12
     RDKit          3D

 25 28  0  0  0  0  0  0  0  0999 V2000
   -6.1108    4.7799  -19.5858 N   0  0  0  0  0  0  0  0  0  0  0  0
   -5.8590    4.8620  -18.1977 C   0  0  0  0  0  0  0  0  0  0  0  0
   -4.5421    5.0276  -17.7838 C   0  0  0  0  0  0  0  0  0  0  0  0
   -4.2689    5.0098  -16.4315 C   0  0  0  0  0  0  0  0  0  0  0  0
   -5.1969    4.8312  -15.4682 N   0  0  0  0  0  0  0  0  0  0  0  0
   -6.4827    4.6160  -15.8247 C   0  0  0  0  0  0  0  0  0  0  0  0
   -7.4998    4.5262  -14.8116 C   0  0  0  0  0  0  0  0  0  0  0  0
   -7.2572    5.0245  -13.4567 N   0  0  0  0  0  0  0  0  0  0  0  0
   -7.7799    4.7386  -12.1282 C   0  0  0  0  0  0  0  0  0  0  0  0
   -7.8335    5.7652  -11.1111 C   0  0  0  0  0  0  0  0  0  0  0  0
   -8.1058    5.5589   -9.7561 C   0  0  0  0  0  0  0  0  0  0  0  0
   -8.3810    4.2871   -9.3667 C   0  0  0  0  0  0  0  0  0  0  0  0
   -8.4259    3.2647  -10.3112 C   0  0  0  0  0  0  0  0  0  0  0  0
   -8.1170    3.4539  -11.6803 C   0  0  0  0  0  0  0  0  0  0  0  0
   -8.8121    2.0364   -9.5523 C   0  0  0  0  0  0  0  0  0  0  0  0
   -9.3310    2.4834   -8.2275 N   0  0  0  0  0  0  0  0  0  0  0  0
   -8.6492    3.7620   -7.9968 C   0  0  0  0  0  0  0  0  0  0  0  0
   -7.0319    6.4561  -13.6187 C   0  0  0  0  0  0  0  0  0  0  0  0
   -6.6156    6.8969  -14.8252 F   0  0  0  0  0  0  0  0  0  0  0  0
   -8.1993    7.1312  -13.4039 F   0  0  0  0  0  0  0  0  0  0  0  0
   -6.1084    6.9076  -12.7340 F   0  0  0  0  0  0  0  0  0  0  0  0
   -8.8063    4.2655  -15.2079 C   0  0  0  0  0  0  0  0  0  0  0  0
   -9.1428    4.1387  -16.5566 C   0  0  0  0  0  0  0  0  0  0  0  0
   -8.1821    4.3090  -17.5460 C   0  0  0  0  0  0  0  0  0  0  0  0
   -6.8456    4.5786  -17.2095 C   0  0  0  0  0  0  0  0  0  0  0  0
  1  2  1  0
  2  3  2  0
  3  4  1  0
  4  5  2  0
  5  6  1  0
  6  7  2  0
  7  8  1  0
  8  9  1  0
  9 10  2  0
 10 11  1  0
 11 12  2  0
 12 13  1  0
 13 14  2  0
 13 15  1  0
 15 16  1  0
 16 17  1  0
  8 18  1  0
 18 19  1  0
 18 20  1  0
 18 21  1  0
  7 22  1  0
 22 23  2  0
 23 24  1  0
 24 25  2  0
 25  2  1  0
 25  6  1  0
 14  9  1  0
 17 12  1  0
M  END
>  <smiles>  (39) 
C71063-P3

>  <fragmenstein_outcome>  (39) 
acceptable

>  <inchikey>  (39) 
VNXIKRNPJBVTPO-UHFFFAOYSA-N

>  <fragmenstein_mode>  (39) 
expansion

>  <HIPPO Pose ID>  (39) 
730

>  <Energy>  (39) 
101.179702

>  <fragmenstein_error>  (39) 


>  <tags>  (39) 
{'openbind_xx01zvns2b_c1_fragmenstein', 'fragmenstein_placed'}

>  <ref_pdb>  (39) 
1

>  <scratch_subdir>  (39) 
/opt/xchem-fragalysis-2/maxwin/BulkDock/SCRATCH/511027/C71063-P3

>  <alias>  (39) 
Nc1ccnc2c(N(c3ccc4c(c3)CNC4)C(F)(F)F)cccc12

>  <HIPPO Compound ID>  (39) 
103729

>  <fragmenstein_runtime>  (39) 
6.345025

$$$$
Nc1ccnc2c(OC(F)(F)Oc3cc4c(c(C5=CCS(=O)(=O)CC5)c3)CNC4)cc(F)cc12
     RDKit          3D

 34 38  0  0  0  0  0  0  0  0999 V2000
   -5.8888    5.4208  -20.1652 N   0  0  0  0  0  0  0  0  0  0  0  0
   -5.6289    5.1274  -18.8258 C   0  0  0  0  0  0  0  0  0  0  0  0
   -4.3367    5.3414  -18.3566 C   0  0  0  0  0  0  0  0  0  0  0  0
   -4.1027    5.2470  -17.0030 C   0  0  0  0  0  0  0  0  0  0  0  0
   -5.0597    4.9870  -16.0942 N   0  0  0  0  0  0  0  0  0  0  0  0
   -6.3211    4.7676  -16.5266 C   0  0  0  0  0  0  0  0  0  0  0  0
   -7.3431    4.5004  -15.6040 C   0  0  0  0  0  0  0  0  0  0  0  0
   -7.0310    4.4369  -14.2638 O   0  0  0  0  0  0  0  0  0  0  0  0
   -7.4527    5.6066  -13.5661 C   0  0  0  0  0  0  0  0  0  0  0  0
   -7.0960    6.7404  -14.2322 F   0  0  0  0  0  0  0  0  0  0  0  0
   -8.8150    5.6244  -13.5092 F   0  0  0  0  0  0  0  0  0  0  0  0
   -6.9973    5.6814  -12.2163 O   0  0  0  0  0  0  0  0  0  0  0  0
   -5.6743    5.9217  -11.9750 C   0  0  0  0  0  0  0  0  0  0  0  0
   -4.7020    6.2094  -12.9303 C   0  0  0  0  0  0  0  0  0  0  0  0
   -3.4079    6.4681  -12.5077 C   0  0  0  0  0  0  0  0  0  0  0  0
   -3.0568    6.4374  -11.1611 C   0  0  0  0  0  0  0  0  0  0  0  0
   -3.9978    6.1334  -10.1879 C   0  0  0  0  0  0  0  0  0  0  0  0
   -3.6597    6.0966   -8.7568 C   0  0  0  0  0  0  0  0  0  0  0  0
   -4.0926    7.0986   -7.9691 C   0  0  0  0  0  0  0  0  0  0  0  0
   -3.8786    7.2552   -6.4911 C   0  0  0  0  0  0  0  0  0  0  0  0
   -3.1547    5.8032   -5.7484 S   0  0  0  0  0  0  0  0  0  0  0  0
   -4.1884    4.7977   -5.5521 O   0  0  0  0  0  0  0  0  0  0  0  0
   -2.3383    6.2305   -4.6277 O   0  0  0  0  0  0  0  0  0  0  0  0
   -2.0606    5.2147   -7.0149 C   0  0  0  0  0  0  0  0  0  0  0  0
   -2.8298    4.9273   -8.2911 C   0  0  0  0  0  0  0  0  0  0  0  0
   -5.3148    5.8838  -10.6129 C   0  0  0  0  0  0  0  0  0  0  0  0
   -1.6021    6.7533  -11.0420 C   0  0  0  0  0  0  0  0  0  0  0  0
   -1.1931    7.2849  -12.3687 N   0  0  0  0  0  0  0  0  0  0  0  0
   -2.2063    6.7840  -13.3311 C   0  0  0  0  0  0  0  0  0  0  0  0
   -8.6466    4.2034  -16.0023 C   0  0  0  0  0  0  0  0  0  0  0  0
   -8.9526    4.1867  -17.3465 C   0  0  0  0  0  0  0  0  0  0  0  0
  -10.1886    3.8733  -17.7572 F   0  0  0  0  0  0  0  0  0  0  0  0
   -7.9810    4.4925  -18.2838 C   0  0  0  0  0  0  0  0  0  0  0  0
   -6.6563    4.8078  -17.9003 C   0  0  0  0  0  0  0  0  0  0  0  0
  1  2  1  0
  2  3  2  0
  3  4  1  0
  4  5  2  0
  5  6  1  0
  6  7  2  0
  7  8  1  0
  8  9  1  0
  9 10  1  0
  9 11  1  0
  9 12  1  0
 12 13  1  0
 13 14  2  0
 14 15  1  0
 15 16  2  0
 16 17  1  0
 17 18  1  0
 18 19  2  0
 19 20  1  0
 20 21  1  0
 21 22  2  0
 21 23  2  0
 21 24  1  0
 24 25  1  0
 17 26  2  0
 16 27  1  0
 27 28  1  0
 28 29  1  0
  7 30  1  0
 30 31  2  0
 31 32  1  0
 31 33  1  0
 33 34  2  0
 34  2  1  0
 34  6  1  0
 26 13  1  0
 29 15  1  0
 25 18  1  0
M  END
>  <smiles>  (40) 
C71090-P3

>  <fragmenstein_outcome>  (40) 
acceptable

>  <inchikey>  (40) 
JLRZTMQUSPVSBU-UHFFFAOYSA-N

>  <fragmenstein_mode>  (40) 
expansion

>  <HIPPO Pose ID>  (40) 
734

>  <Energy>  (40) 
93.403972

>  <fragmenstein_error>  (40) 


>  <tags>  (40) 
{'openbind_xx01zvns2b_c1_fragmenstein', 'fragmenstein_placed'}

>  <ref_pdb>  (40) 
1

>  <scratch_subdir>  (40) 
/opt/xchem-fragalysis-2/maxwin/BulkDock/SCRATCH/511027/C71090-P3

>  <alias>  (40) 
Nc1ccnc2c(OC(F)(F)Oc3cc4c(c(C5=CCS(=O)(=O)CC5)c3)CNC4)cc(F)cc12

>  <HIPPO Compound ID>  (40) 
87063

>  <fragmenstein_runtime>  (40) 
3.79571

$$$$
N#Cc1cc2c(cc1OC(F)(F)Oc1cc(F)cc3c(N)ccnc13)CNC2
     RDKit          3D

 28 31  0  0  0  0  0  0  0  0999 V2000
   -6.7100    8.5220  -10.4852 N   0  0  0  0  0  0  0  0  0  0  0  0
   -7.0849    7.4422  -10.2801 C   0  0  0  0  0  0  0  0  0  0  0  0
   -7.5487    6.1109  -10.0082 C   0  0  0  0  0  0  0  0  0  0  0  0
   -7.9553    5.7987   -8.7049 C   0  0  0  0  0  0  0  0  0  0  0  0
   -8.3328    4.4982   -8.4310 C   0  0  0  0  0  0  0  0  0  0  0  0
   -8.3666    3.5309   -9.4329 C   0  0  0  0  0  0  0  0  0  0  0  0
   -7.9756    3.8208  -10.7400 C   0  0  0  0  0  0  0  0  0  0  0  0
   -7.5367    5.1225  -11.0193 C   0  0  0  0  0  0  0  0  0  0  0  0
   -6.8473    5.4317  -12.1630 O   0  0  0  0  0  0  0  0  0  0  0  0
   -7.5448    5.4047  -13.4055 C   0  0  0  0  0  0  0  0  0  0  0  0
   -7.1862    6.5367  -14.0726 F   0  0  0  0  0  0  0  0  0  0  0  0
   -8.8890    5.4796  -13.2174 F   0  0  0  0  0  0  0  0  0  0  0  0
   -7.2237    4.2540  -14.1799 O   0  0  0  0  0  0  0  0  0  0  0  0
   -7.5010    4.4315  -15.5165 C   0  0  0  0  0  0  0  0  0  0  0  0
   -8.7950    4.1598  -15.9485 C   0  0  0  0  0  0  0  0  0  0  0  0
   -9.0731    4.1461  -17.2979 C   0  0  0  0  0  0  0  0  0  0  0  0
  -10.3034    3.8438  -17.7270 F   0  0  0  0  0  0  0  0  0  0  0  0
   -8.0803    4.4240  -18.2170 C   0  0  0  0  0  0  0  0  0  0  0  0
   -6.7702    4.7445  -17.7991 C   0  0  0  0  0  0  0  0  0  0  0  0
   -5.7316    5.0513  -18.7122 C   0  0  0  0  0  0  0  0  0  0  0  0
   -5.9103    4.9259  -20.1004 N   0  0  0  0  0  0  0  0  0  0  0  0
   -4.4468    5.2536  -18.2180 C   0  0  0  0  0  0  0  0  0  0  0  0
   -4.2511    5.2341  -16.8512 C   0  0  0  0  0  0  0  0  0  0  0  0
   -5.2253    4.9912  -15.9530 N   0  0  0  0  0  0  0  0  0  0  0  0
   -6.4677    4.7358  -16.4130 C   0  0  0  0  0  0  0  0  0  0  0  0
   -8.7879    2.2275   -8.8251 C   0  0  0  0  0  0  0  0  0  0  0  0
   -9.1671    2.5318   -7.4256 N   0  0  0  0  0  0  0  0  0  0  0  0
   -8.6923    3.8859   -7.1175 C   0  0  0  0  0  0  0  0  0  0  0  0
  1  2  3  0
  2  3  1  0
  3  4  2  0
  4  5  1  0
  5  6  2  0
  6  7  1  0
  7  8  2  0
  8  9  1  0
  9 10  1  0
 10 11  1  0
 10 12  1  0
 10 13  1  0
 13 14  1  0
 14 15  2  0
 15 16  1  0
 16 17  1  0
 16 18  2  0
 18 19  1  0
 19 20  2  0
 20 21  1  0
 20 22  1  0
 22 23  2  0
 23 24  1  0
 24 25  2  0
  6 26  1  0
 26 27  1  0
 27 28  1  0
  8  3  1  0
 25 14  1  0
 28  5  1  0
 25 19  1  0
M  END
>  <smiles>  (41) 
C71098-P3

>  <fragmenstein_outcome>  (41) 
acceptable

>  <inchikey>  (41) 
GZDJUUFCXQOFEX-UHFFFAOYSA-N

>  <fragmenstein_mode>  (41) 
expansion

>  <HIPPO Pose ID>  (41) 
739

>  <Energy>  (41) 
86.10947

>  <fragmenstein_error>  (41) 


>  <tags>  (41) 
{'openbind_xx01zvns2b_c1_fragmenstein', 'fragmenstein_placed'}

>  <ref_pdb>  (41) 
1

>  <scratch_subdir>  (41) 
/opt/xchem-fragalysis-2/maxwin/BulkDock/SCRATCH/511027/C71098-P3

>  <alias>  (41) 
N#Cc1cc2c(cc1OC(F)(F)Oc1cc(F)cc3c(N)ccnc13)CNC2

>  <HIPPO Compound ID>  (41) 
85980

>  <fragmenstein_runtime>  (41) 
5.059165

$$$$
Cc1c(N)c2cc(F)cc(N(c3ccc4c(c3)CNC4)C(F)(F)F)c2n(OCCCO)c1=O
     RDKit          3D

 33 36  0  0  0  0  0  0  0  0999 V2000
   -3.2599    5.3196  -18.7130 C   0  0  0  0  0  0  0  0  0  0  0  0
   -4.4474    5.0465  -17.8306 C   0  0  0  0  0  0  0  0  0  0  0  0
   -5.7072    4.8370  -18.2641 C   0  0  0  0  0  0  0  0  0  0  0  0
   -6.0683    4.8522  -19.6049 N   0  0  0  0  0  0  0  0  0  0  0  0
   -6.7741    4.5577  -17.2502 C   0  0  0  0  0  0  0  0  0  0  0  0
   -8.0800    4.2816  -17.6517 C   0  0  0  0  0  0  0  0  0  0  0  0
   -9.0721    4.0993  -16.7052 C   0  0  0  0  0  0  0  0  0  0  0  0
  -10.3077    3.8472  -17.1537 F   0  0  0  0  0  0  0  0  0  0  0  0
   -8.8258    4.2399  -15.3350 C   0  0  0  0  0  0  0  0  0  0  0  0
   -7.5502    4.5160  -14.8563 C   0  0  0  0  0  0  0  0  0  0  0  0
   -7.3948    5.0432  -13.5082 N   0  0  0  0  0  0  0  0  0  0  0  0
   -7.9264    4.7707  -12.1779 C   0  0  0  0  0  0  0  0  0  0  0  0
   -8.0540    5.8295  -11.2040 C   0  0  0  0  0  0  0  0  0  0  0  0
   -8.2487    5.6532   -9.8315 C   0  0  0  0  0  0  0  0  0  0  0  0
   -8.3860    4.3778   -9.3773 C   0  0  0  0  0  0  0  0  0  0  0  0
   -8.3976    3.3178  -10.2779 C   0  0  0  0  0  0  0  0  0  0  0  0
   -8.1659    3.4828  -11.6706 C   0  0  0  0  0  0  0  0  0  0  0  0
   -8.6323    2.0829   -9.4635 C   0  0  0  0  0  0  0  0  0  0  0  0
   -8.9053    2.5036   -8.0655 N   0  0  0  0  0  0  0  0  0  0  0  0
   -8.5019    3.9052   -7.9689 C   0  0  0  0  0  0  0  0  0  0  0  0
   -7.1019    6.4678  -13.6644 C   0  0  0  0  0  0  0  0  0  0  0  0
   -6.5807    6.8682  -14.8494 F   0  0  0  0  0  0  0  0  0  0  0  0
   -8.2591    7.1779  -13.5460 F   0  0  0  0  0  0  0  0  0  0  0  0
   -6.2338    6.9010  -12.7184 F   0  0  0  0  0  0  0  0  0  0  0  0
   -6.4943    4.5819  -15.8508 C   0  0  0  0  0  0  0  0  0  0  0  0
   -5.1261    4.6930  -15.4998 N   0  0  0  0  0  0  0  0  0  0  0  0
   -4.7722    4.6749  -14.1238 O   0  0  0  0  0  0  0  0  0  0  0  0
   -4.5735    3.3146  -13.7114 C   0  0  0  0  0  0  0  0  0  0  0  0
   -4.2537    3.2710  -12.2213 C   0  0  0  0  0  0  0  0  0  0  0  0
   -4.4329    1.8664  -11.6584 C   0  0  0  0  0  0  0  0  0  0  0  0
   -3.5542    0.9567  -12.3103 O   0  0  0  0  0  0  0  0  0  0  0  0
   -4.1031    4.9888  -16.3708 C   0  0  0  0  0  0  0  0  0  0  0  0
   -2.9394    5.1978  -16.0229 O   0  0  0  0  0  0  0  0  0  0  0  0
  1  2  1  0
  2  3  2  0
  3  4  1  0
  3  5  1  0
  5  6  2  0
  6  7  1  0
  7  8  1  0
  7  9  2  0
  9 10  1  0
 10 11  1  0
 11 12  1  0
 12 13  2  0
 13 14  1  0
 14 15  2  0
 15 16  1  0
 16 17  2  0
 16 18  1  0
 18 19  1  0
 19 20  1  0
 11 21  1  0
 21 22  1  0
 21 23  1  0
 21 24  1  0
 10 25  2  0
 25 26  1  0
 26 27  1  0
 27 28  1  0
 28 29  1  0
 29 30  1  0
 30 31  1  0
 26 32  1  0
 32 33  2  0
 32  2  1  0
 25  5  1  0
 17 12  1  0
 20 15  1  0
M  END
>  <smiles>  (42) 
C71109-P3

>  <fragmenstein_outcome>  (42) 
acceptable

>  <inchikey>  (42) 
FIMVUNMROUCJLW-UHFFFAOYSA-N

>  <fragmenstein_mode>  (42) 
expansion

>  <HIPPO Pose ID>  (42) 
743

>  <Energy>  (42) 
105.440209

>  <fragmenstein_error>  (42) 


>  <tags>  (42) 
{'openbind_xx01zvns2b_c1_fragmenstein', 'fragmenstein_placed'}

>  <ref_pdb>  (42) 
1

>  <scratch_subdir>  (42) 
/opt/xchem-fragalysis-2/maxwin/BulkDock/SCRATCH/511027/C71109-P3

>  <alias>  (42) 
Cc1c(N)c2cc(F)cc(N(c3ccc4c(c3)CNC4)C(F)(F)F)c2n(OCCCO)c1=O

>  <HIPPO Compound ID>  (42) 
78676

>  <fragmenstein_runtime>  (42) 
6.602571

$$$$
Nc1ccnc2c(OC(F)(F)Oc3cnc4c(c3)CNC4)cc(F)cc12
     RDKit          3D

 26 29  0  0  0  0  0  0  0  0999 V2000
   -5.9121    4.9228  -20.0884 N   0  0  0  0  0  0  0  0  0  0  0  0
   -5.7223    5.0501  -18.7014 C   0  0  0  0  0  0  0  0  0  0  0  0
   -4.4340    5.2533  -18.2172 C   0  0  0  0  0  0  0  0  0  0  0  0
   -4.2298    5.2466  -16.8513 C   0  0  0  0  0  0  0  0  0  0  0  0
   -5.1992    5.0188  -15.9437 N   0  0  0  0  0  0  0  0  0  0  0  0
   -6.4428    4.7517  -16.3932 C   0  0  0  0  0  0  0  0  0  0  0  0
   -7.4703    4.4566  -15.4861 C   0  0  0  0  0  0  0  0  0  0  0  0
   -7.1870    4.3333  -14.1414 O   0  0  0  0  0  0  0  0  0  0  0  0
   -7.5748    5.4951  -13.4133 C   0  0  0  0  0  0  0  0  0  0  0  0
   -7.2616    6.6134  -14.1296 F   0  0  0  0  0  0  0  0  0  0  0  0
   -8.9248    5.5172  -13.2519 F   0  0  0  0  0  0  0  0  0  0  0  0
   -6.9143    5.6427  -12.1627 O   0  0  0  0  0  0  0  0  0  0  0  0
   -7.5148    5.1813  -11.0299 C   0  0  0  0  0  0  0  0  0  0  0  0
   -7.4443    6.0503   -9.9312 C   0  0  0  0  0  0  0  0  0  0  0  0
   -7.8039    5.7463   -8.6613 N   0  0  0  0  0  0  0  0  0  0  0  0
   -8.2450    4.4881   -8.5012 C   0  0  0  0  0  0  0  0  0  0  0  0
   -8.3653    3.5541   -9.5180 C   0  0  0  0  0  0  0  0  0  0  0  0
   -8.0077    3.8937  -10.8218 C   0  0  0  0  0  0  0  0  0  0  0  0
   -8.8145    2.2557   -8.9308 C   0  0  0  0  0  0  0  0  0  0  0  0
   -9.1459    2.5208   -7.5091 N   0  0  0  0  0  0  0  0  0  0  0  0
   -8.6144    3.8587   -7.1869 C   0  0  0  0  0  0  0  0  0  0  0  0
   -8.7648    4.1706  -15.9108 C   0  0  0  0  0  0  0  0  0  0  0  0
   -9.0496    4.1438  -17.2598 C   0  0  0  0  0  0  0  0  0  0  0  0
  -10.2814    3.8364  -17.6819 F   0  0  0  0  0  0  0  0  0  0  0  0
   -8.0642    4.4206  -18.1872 C   0  0  0  0  0  0  0  0  0  0  0  0
   -6.7532    4.7469  -17.7786 C   0  0  0  0  0  0  0  0  0  0  0  0
  1  2  1  0
  2  3  2  0
  3  4  1  0
  4  5  2  0
  5  6  1  0
  6  7  2  0
  7  8  1  0
  8  9  1  0
  9 10  1  0
  9 11  1  0
  9 12  1  0
 12 13  1  0
 13 14  2  0
 14 15  1  0
 15 16  2  0
 16 17  1  0
 17 18  2  0
 17 19  1  0
 19 20  1  0
 20 21  1  0
  7 22  1  0
 22 23  2  0
 23 24  1  0
 23 25  1  0
 25 26  2  0
 26  2  1  0
 26  6  1  0
 18 13  1  0
 21 16  1  0
M  END
>  <smiles>  (43) 
C71111-P3

>  <fragmenstein_outcome>  (43) 
acceptable

>  <inchikey>  (43) 
IYYKJZSELCTUKO-UHFFFAOYSA-N

>  <fragmenstein_mode>  (43) 
expansion

>  <HIPPO Pose ID>  (43) 
745

>  <Energy>  (43) 
94.320997

>  <fragmenstein_error>  (43) 


>  <tags>  (43) 
{'openbind_xx01zvns2b_c1_fragmenstein', 'fragmenstein_placed'}

>  <ref_pdb>  (43) 
1

>  <scratch_subdir>  (43) 
/opt/xchem-fragalysis-2/maxwin/BulkDock/SCRATCH/511027/C71111-P3

>  <alias>  (43) 
Nc1ccnc2c(OC(F)(F)Oc3cnc4c(c3)CNC4)cc(F)cc12

>  <HIPPO Compound ID>  (43) 
71111

>  <fragmenstein_runtime>  (43) 
4.248637

$$$$
Nc1cc(=O)[nH]c2c(OC(F)(F)Oc3ccc4c(n3)CNC4)cccc12
     RDKit          3D

 26 29  0  0  0  0  0  0  0  0999 V2000
   -5.8002    5.0033  -20.0488 N   0  0  0  0  0  0  0  0  0  0  0  0
   -5.5911    5.1001  -18.6873 C   0  0  0  0  0  0  0  0  0  0  0  0
   -4.4125    5.4402  -18.1370 C   0  0  0  0  0  0  0  0  0  0  0  0
   -4.2042    5.5235  -16.6685 C   0  0  0  0  0  0  0  0  0  0  0  0
   -3.1356    5.9001  -16.1942 O   0  0  0  0  0  0  0  0  0  0  0  0
   -5.2556    5.1676  -15.8845 N   0  0  0  0  0  0  0  0  0  0  0  0
   -6.5132    4.8219  -16.3932 C   0  0  0  0  0  0  0  0  0  0  0  0
   -7.5474    4.5216  -15.5056 C   0  0  0  0  0  0  0  0  0  0  0  0
   -7.3082    4.4273  -14.1649 O   0  0  0  0  0  0  0  0  0  0  0  0
   -7.5762    5.6510  -13.4846 C   0  0  0  0  0  0  0  0  0  0  0  0
   -6.9535    6.7035  -14.0835 F   0  0  0  0  0  0  0  0  0  0  0  0
   -8.9146    5.9090  -13.5740 F   0  0  0  0  0  0  0  0  0  0  0  0
   -7.2725    5.6515  -12.1018 O   0  0  0  0  0  0  0  0  0  0  0  0
   -5.9793    5.2893  -11.8132 C   0  0  0  0  0  0  0  0  0  0  0  0
   -5.7318    4.9908  -10.4698 C   0  0  0  0  0  0  0  0  0  0  0  0
   -4.4450    4.6307  -10.0768 C   0  0  0  0  0  0  0  0  0  0  0  0
   -3.4746    4.5904  -11.0549 C   0  0  0  0  0  0  0  0  0  0  0  0
   -3.8061    4.9166  -12.3597 C   0  0  0  0  0  0  0  0  0  0  0  0
   -5.0352    5.2722  -12.7836 N   0  0  0  0  0  0  0  0  0  0  0  0
   -2.5670    4.8087  -13.2099 C   0  0  0  0  0  0  0  0  0  0  0  0
   -1.5568    4.1028  -12.3648 N   0  0  0  0  0  0  0  0  0  0  0  0
   -2.0261    4.2652  -10.9664 C   0  0  0  0  0  0  0  0  0  0  0  0
   -8.8064    4.1956  -15.9877 C   0  0  0  0  0  0  0  0  0  0  0  0
   -9.0423    4.1555  -17.3543 C   0  0  0  0  0  0  0  0  0  0  0  0
   -8.0025    4.4299  -18.2408 C   0  0  0  0  0  0  0  0  0  0  0  0
   -6.7249    4.7882  -17.7799 C   0  0  0  0  0  0  0  0  0  0  0  0
  1  2  1  0
  2  3  2  0
  3  4  1  0
  4  5  2  0
  4  6  1  0
  6  7  1  0
  7  8  2  0
  8  9  1  0
  9 10  1  0
 10 11  1  0
 10 12  1  0
 10 13  1  0
 13 14  1  0
 14 15  2  0
 15 16  1  0
 16 17  2  0
 17 18  1  0
 18 19  2  0
 18 20  1  0
 20 21  1  0
 21 22  1  0
  8 23  1  0
 23 24  2  0
 24 25  1  0
 25 26  2  0
 26  2  1  0
 26  7  1  0
 19 14  1  0
 22 17  1  0
M  END
>  <smiles>  (44) 
C71117-P3

>  <fragmenstein_outcome>  (44) 
acceptable

>  <inchikey>  (44) 
MZZCRENQRVZNRV-UHFFFAOYSA-N

>  <fragmenstein_mode>  (44) 
expansion

>  <HIPPO Pose ID>  (44) 
749

>  <Energy>  (44) 
9.734832

>  <fragmenstein_error>  (44) 


>  <tags>  (44) 
{'openbind_xx01zvns2b_c1_fragmenstein', 'fragmenstein_placed'}

>  <ref_pdb>  (44) 
1

>  <scratch_subdir>  (44) 
/opt/xchem-fragalysis-2/maxwin/BulkDock/SCRATCH/511027/C71117-P3

>  <alias>  (44) 
Nc1cc(=O)[nH]c2c(OC(F)(F)Oc3ccc4c(n3)CNC4)cccc12

>  <HIPPO Compound ID>  (44) 
30604

>  <fragmenstein_runtime>  (44) 
2.98824

$$$$
Nc1ccnc2c(OC(F)(F)Oc3ccc4c(c3)CNC4=O)cccc12
     RDKit          3D

 26 29  0  0  0  0  0  0  0  0999 V2000
   -5.8915    5.4333  -20.0171 N   0  0  0  0  0  0  0  0  0  0  0  0
   -5.6325    5.1476  -18.6724 C   0  0  0  0  0  0  0  0  0  0  0  0
   -4.3401    5.3648  -18.2025 C   0  0  0  0  0  0  0  0  0  0  0  0
   -4.1023    5.2734  -16.8469 C   0  0  0  0  0  0  0  0  0  0  0  0
   -5.0525    5.0061  -15.9328 N   0  0  0  0  0  0  0  0  0  0  0  0
   -6.3148    4.7955  -16.3634 C   0  0  0  0  0  0  0  0  0  0  0  0
   -7.3303    4.5325  -15.4362 C   0  0  0  0  0  0  0  0  0  0  0  0
   -7.0189    4.4450  -14.0953 O   0  0  0  0  0  0  0  0  0  0  0  0
   -7.4704    5.5841  -13.3591 C   0  0  0  0  0  0  0  0  0  0  0  0
   -6.9347    6.7097  -13.9105 F   0  0  0  0  0  0  0  0  0  0  0  0
   -8.8236    5.7230  -13.4609 F   0  0  0  0  0  0  0  0  0  0  0  0
   -7.1129    5.6043  -11.9713 O   0  0  0  0  0  0  0  0  0  0  0  0
   -7.7218    4.7118  -11.1261 C   0  0  0  0  0  0  0  0  0  0  0  0
   -8.4207    3.5679  -11.5379 C   0  0  0  0  0  0  0  0  0  0  0  0
   -8.9720    2.6897  -10.6014 C   0  0  0  0  0  0  0  0  0  0  0  0
   -8.8061    2.9659   -9.2639 C   0  0  0  0  0  0  0  0  0  0  0  0
   -8.1159    4.0889   -8.8250 C   0  0  0  0  0  0  0  0  0  0  0  0
   -7.5698    4.9738   -9.7489 C   0  0  0  0  0  0  0  0  0  0  0  0
   -8.0870    4.0940   -7.3330 C   0  0  0  0  0  0  0  0  0  0  0  0
   -8.8801    2.9424   -6.9824 N   0  0  0  0  0  0  0  0  0  0  0  0
   -9.2689    2.2154   -8.0895 C   0  0  0  0  0  0  0  0  0  0  0  0
   -9.8818    1.1687   -8.0856 O   0  0  0  0  0  0  0  0  0  0  0  0
   -8.6388    4.2563  -15.8351 C   0  0  0  0  0  0  0  0  0  0  0  0
   -8.9729    4.2613  -17.1770 C   0  0  0  0  0  0  0  0  0  0  0  0
   -7.9926    4.5577  -18.1166 C   0  0  0  0  0  0  0  0  0  0  0  0
   -6.6580    4.8431  -17.7389 C   0  0  0  0  0  0  0  0  0  0  0  0
  1  2  1  0
  2  3  2  0
  3  4  1  0
  4  5  2  0
  5  6  1  0
  6  7  2  0
  7  8  1  0
  8  9  1  0
  9 10  1  0
  9 11  1  0
  9 12  1  0
 12 13  1  0
 13 14  2  0
 14 15  1  0
 15 16  2  0
 16 17  1  0
 17 18  2  0
 17 19  1  0
 19 20  1  0
 20 21  1  0
 21 22  2  0
  7 23  1  0
 23 24  2  0
 24 25  1  0
 25 26  2  0
 26  2  1  0
 26  6  1  0
 18 13  1  0
 21 16  1  0
M  END
>  <smiles>  (45) 
C71127-P3

>  <fragmenstein_outcome>  (45) 
acceptable

>  <inchikey>  (45) 
ASXIUBFWLUOYAS-UHFFFAOYSA-N

>  <fragmenstein_mode>  (45) 
expansion

>  <HIPPO Pose ID>  (45) 
755

>  <Energy>  (45) 
67.250824

>  <fragmenstein_error>  (45) 


>  <tags>  (45) 
{'openbind_xx01zvns2b_c1_fragmenstein', 'fragmenstein_placed'}

>  <ref_pdb>  (45) 
1

>  <scratch_subdir>  (45) 
/opt/xchem-fragalysis-2/maxwin/BulkDock/SCRATCH/511027/C71127-P3

>  <alias>  (45) 
Nc1ccnc2c(OC(F)(F)Oc3ccc4c(c3)CNC4=O)cccc12

>  <HIPPO Compound ID>  (45) 
85377

>  <fragmenstein_runtime>  (45) 
5.507134

$$$$
CNCc1ccnc2c(OC(F)(F)Oc3ccc(F)cc3)cccc12
     RDKit          3D

 25 27  0  0  0  0  0  0  0  0999 V2000
   -4.5414    7.5100  -20.4878 C   0  0  0  0  0  0  0  0  0  0  0  0
   -4.5366    6.0560  -20.5919 N   0  0  0  0  0  0  0  0  0  0  0  0
   -5.6588    5.4499  -19.8612 C   0  0  0  0  0  0  0  0  0  0  0  0
   -5.4312    5.2203  -18.3858 C   0  0  0  0  0  0  0  0  0  0  0  0
   -4.1601    5.3575  -17.8219 C   0  0  0  0  0  0  0  0  0  0  0  0
   -4.0216    5.2160  -16.4597 C   0  0  0  0  0  0  0  0  0  0  0  0
   -5.0442    4.9490  -15.6295 N   0  0  0  0  0  0  0  0  0  0  0  0
   -6.2723    4.7661  -16.1586 C   0  0  0  0  0  0  0  0  0  0  0  0
   -7.3509    4.4871  -15.3183 C   0  0  0  0  0  0  0  0  0  0  0  0
   -7.1310    4.3759  -13.9643 O   0  0  0  0  0  0  0  0  0  0  0  0
   -7.5388    5.5533  -13.2678 C   0  0  0  0  0  0  0  0  0  0  0  0
   -6.9843    6.6503  -13.8584 F   0  0  0  0  0  0  0  0  0  0  0  0
   -8.8900    5.7159  -13.3704 F   0  0  0  0  0  0  0  0  0  0  0  0
   -7.1748    5.6102  -11.8863 O   0  0  0  0  0  0  0  0  0  0  0  0
   -7.7361    4.7092  -11.0223 C   0  0  0  0  0  0  0  0  0  0  0  0
   -7.5113    4.9540   -9.6576 C   0  0  0  0  0  0  0  0  0  0  0  0
   -7.9913    4.0737   -8.6787 C   0  0  0  0  0  0  0  0  0  0  0  0
   -8.7023    2.9484   -9.0654 C   0  0  0  0  0  0  0  0  0  0  0  0
   -9.1719    2.0952   -8.1452 F   0  0  0  0  0  0  0  0  0  0  0  0
   -8.9430    2.7072  -10.4078 C   0  0  0  0  0  0  0  0  0  0  0  0
   -8.4600    3.5777  -11.3875 C   0  0  0  0  0  0  0  0  0  0  0  0
   -8.6320    4.2376  -15.8112 C   0  0  0  0  0  0  0  0  0  0  0  0
   -8.8710    4.2746  -17.1726 C   0  0  0  0  0  0  0  0  0  0  0  0
   -7.8244    4.5901  -18.0305 C   0  0  0  0  0  0  0  0  0  0  0  0
   -6.5192    4.8600  -17.5467 C   0  0  0  0  0  0  0  0  0  0  0  0
  1  2  1  0
  2  3  1  0
  3  4  1  0
  4  5  2  0
  5  6  1  0
  6  7  2  0
  7  8  1  0
  8  9  2  0
  9 10  1  0
 10 11  1  0
 11 12  1  0
 11 13  1  0
 11 14  1  0
 14 15  1  0
 15 16  2  0
 16 17  1  0
 17 18  2  0
 18 19  1  0
 18 20  1  0
 20 21  2  0
  9 22  1  0
 22 23  2  0
 23 24  1  0
 24 25  2  0
 25  4  1  0
 25  8  1  0
 21 15  1  0
M  END
>  <smiles>  (46) 
C71135-P3

>  <fragmenstein_outcome>  (46) 
acceptable

>  <inchikey>  (46) 
GJQSQQSTFOXKDZ-UHFFFAOYSA-N

>  <fragmenstein_mode>  (46) 
expansion

>  <HIPPO Pose ID>  (46) 
758

>  <Energy>  (46) 
71.918781

>  <fragmenstein_error>  (46) 


>  <tags>  (46) 
{'openbind_xx01zvns2b_c1_fragmenstein', 'fragmenstein_placed'}

>  <ref_pdb>  (46) 
1

>  <scratch_subdir>  (46) 
/opt/xchem-fragalysis-2/maxwin/BulkDock/SCRATCH/511027/C71135-P3

>  <alias>  (46) 
CNCc1ccnc2c(OC(F)(F)Oc3ccc(F)cc3)cccc12

>  <HIPPO Compound ID>  (46) 
98352

>  <fragmenstein_runtime>  (46) 
9.754142

$$$$
Cc1ccc(OC(F)(F)Oc2cc(Cl)cc3c(NC=N)ccnc23)cc1C
     RDKit          3D

 27 29  0  0  0  0  0  0  0  0999 V2000
   -9.2975    2.0208   -7.9715 C   0  0  0  0  0  0  0  0  0  0  0  0
   -8.7671    3.0010   -8.9830 C   0  0  0  0  0  0  0  0  0  0  0  0
   -8.9162    2.7216  -10.3445 C   0  0  0  0  0  0  0  0  0  0  0  0
   -8.4191    3.5713  -11.3330 C   0  0  0  0  0  0  0  0  0  0  0  0
   -7.7564    4.7365  -10.9795 C   0  0  0  0  0  0  0  0  0  0  0  0
   -7.1815    5.6149  -11.8579 O   0  0  0  0  0  0  0  0  0  0  0  0
   -7.5259    5.5259  -13.2436 C   0  0  0  0  0  0  0  0  0  0  0  0
   -6.9724    6.6180  -13.8468 F   0  0  0  0  0  0  0  0  0  0  0  0
   -8.8751    5.6730  -13.3767 F   0  0  0  0  0  0  0  0  0  0  0  0
   -7.1030    4.3380  -13.9234 O   0  0  0  0  0  0  0  0  0  0  0  0
   -7.1934    4.4802  -15.2905 C   0  0  0  0  0  0  0  0  0  0  0  0
   -8.4212    4.2704  -15.9090 C   0  0  0  0  0  0  0  0  0  0  0  0
   -8.5071    4.3924  -17.2840 C   0  0  0  0  0  0  0  0  0  0  0  0
  -10.0116    4.1597  -18.0556 Cl  0  0  0  0  0  0  0  0  0  0  0  0
   -7.3913    4.7527  -18.0346 C   0  0  0  0  0  0  0  0  0  0  0  0
   -6.1393    4.9676  -17.4152 C   0  0  0  0  0  0  0  0  0  0  0  0
   -4.9686    5.3731  -18.1110 C   0  0  0  0  0  0  0  0  0  0  0  0
   -4.9979    5.7382  -19.4579 N   0  0  0  0  0  0  0  0  0  0  0  0
   -3.8885    5.6356  -20.5726 C   0  0  0  0  0  0  0  0  0  0  0  0
   -2.7829    5.1439  -20.5390 N   0  0  0  0  0  0  0  0  0  0  0  0
   -3.7644    5.4389  -17.4160 C   0  0  0  0  0  0  0  0  0  0  0  0
   -3.7632    5.1849  -16.0643 C   0  0  0  0  0  0  0  0  0  0  0  0
   -4.8664    4.8785  -15.3641 N   0  0  0  0  0  0  0  0  0  0  0  0
   -6.0364    4.7729  -16.0176 C   0  0  0  0  0  0  0  0  0  0  0  0
   -7.6237    5.0446   -9.6147 C   0  0  0  0  0  0  0  0  0  0  0  0
   -8.1282    4.1918   -8.6082 C   0  0  0  0  0  0  0  0  0  0  0  0
   -8.0191    4.5715   -7.1574 C   0  0  0  0  0  0  0  0  0  0  0  0
  1  2  1  0
  2  3  2  0
  3  4  1  0
  4  5  2  0
  5  6  1  0
  6  7  1  0
  7  8  1  0
  7  9  1  0
  7 10  1  0
 10 11  1  0
 11 12  2  0
 12 13  1  0
 13 14  1  0
 13 15  2  0
 15 16  1  0
 16 17  2  0
 17 18  1  0
 18 19  1  0
 19 20  2  3
 17 21  1  0
 21 22  2  0
 22 23  1  0
 23 24  2  0
  5 25  1  0
 25 26  2  0
 26 27  1  0
 26  2  1  0
 24 11  1  0
 24 16  1  0
M  END
>  <smiles>  (47) 
C71143-P3

>  <fragmenstein_outcome>  (47) 
acceptable

>  <inchikey>  (47) 
ICYGHVUSJYTKNE-UHFFFAOYSA-N

>  <fragmenstein_mode>  (47) 
expansion

>  <HIPPO Pose ID>  (47) 
760

>  <Energy>  (47) 
67.919885

>  <fragmenstein_error>  (47) 


>  <tags>  (47) 
{'openbind_xx01zvns2b_c1_fragmenstein', 'fragmenstein_placed'}

>  <ref_pdb>  (47) 
1

>  <scratch_subdir>  (47) 
/opt/xchem-fragalysis-2/maxwin/BulkDock/SCRATCH/511027/C71143-P3

>  <alias>  (47) 
Cc1ccc(OC(F)(F)Oc2cc(Cl)cc3c(NC=N)ccnc23)cc1C

>  <HIPPO Compound ID>  (47) 
86864

>  <fragmenstein_runtime>  (47) 
13.731141

$$$$
CN1CCC2(CC1)CNc1c(OC(F)(F)Oc3ccc4c(c3)CNC4)cccc1[C@H]2N
     RDKit          3D

 31 35  0  0  0  0  0  0  0  0999 V2000
   -0.8215    8.0223  -19.8649 C   0  0  0  0  0  0  0  0  0  0  0  0
   -1.8358    6.9861  -20.0324 N   0  0  0  0  0  0  0  0  0  0  0  0
   -1.6750    5.9308  -19.0242 C   0  0  0  0  0  0  0  0  0  0  0  0
   -2.9372    5.0794  -18.9146 C   0  0  0  0  0  0  0  0  0  0  0  0
   -4.1545    5.8831  -18.3689 C   0  0  0  0  0  0  0  0  0  0  0  0
   -3.9951    7.3786  -18.8142 C   0  0  0  0  0  0  0  0  0  0  0  0
   -3.1954    7.5394  -20.1092 C   0  0  0  0  0  0  0  0  0  0  0  0
   -4.1268    5.9218  -16.8212 C   0  0  0  0  0  0  0  0  0  0  0  0
   -4.7627    4.7749  -16.2078 N   0  0  0  0  0  0  0  0  0  0  0  0
   -6.1456    4.7547  -16.5310 C   0  0  0  0  0  0  0  0  0  0  0  0
   -7.0919    4.4280  -15.5426 C   0  0  0  0  0  0  0  0  0  0  0  0
   -6.6103    4.2496  -14.2757 O   0  0  0  0  0  0  0  0  0  0  0  0
   -7.2184    5.0952  -13.3082 C   0  0  0  0  0  0  0  0  0  0  0  0
   -7.5246    6.3091  -13.8500 F   0  0  0  0  0  0  0  0  0  0  0  0
   -6.2574    5.3484  -12.3782 F   0  0  0  0  0  0  0  0  0  0  0  0
   -8.3907    4.5312  -12.7213 O   0  0  0  0  0  0  0  0  0  0  0  0
   -8.3533    4.4392  -11.3592 C   0  0  0  0  0  0  0  0  0  0  0  0
   -8.1888    5.5747  -10.5464 C   0  0  0  0  0  0  0  0  0  0  0  0
   -8.2246    5.4609   -9.1549 C   0  0  0  0  0  0  0  0  0  0  0  0
   -8.4772    4.2150   -8.6098 C   0  0  0  0  0  0  0  0  0  0  0  0
   -8.6536    3.0930   -9.4166 C   0  0  0  0  0  0  0  0  0  0  0  0
   -8.5883    3.1840  -10.7958 C   0  0  0  0  0  0  0  0  0  0  0  0
   -8.9238    1.9089   -8.5461 C   0  0  0  0  0  0  0  0  0  0  0  0
   -9.2893    2.4839   -7.2250 N   0  0  0  0  0  0  0  0  0  0  0  0
   -8.6458    3.8133   -7.1816 C   0  0  0  0  0  0  0  0  0  0  0  0
   -8.4299    4.2365  -15.8664 C   0  0  0  0  0  0  0  0  0  0  0  0
   -8.8272    4.3417  -17.1906 C   0  0  0  0  0  0  0  0  0  0  0  0
   -7.8934    4.6814  -18.1732 C   0  0  0  0  0  0  0  0  0  0  0  0
   -6.5474    4.9402  -17.8598 C   0  0  0  0  0  0  0  0  0  0  0  0
   -5.4675    5.1830  -18.8991 C   0  0  1  0  0  0  0  0  0  0  0  0
   -5.9125    5.8384  -20.1300 N   0  0  0  0  0  0  0  0  0  0  0  0
  1  2  1  0
  2  3  1  0
  3  4  1  0
  4  5  1  0
  5  6  1  0
  6  7  1  0
  5  8  1  0
  8  9  1  0
  9 10  1  0
 10 11  2  0
 11 12  1  0
 12 13  1  0
 13 14  1  0
 13 15  1  0
 13 16  1  0
 16 17  1  0
 17 18  2  0
 18 19  1  0
 19 20  2  0
 20 21  1  0
 21 22  2  0
 21 23  1  0
 23 24  1  0
 24 25  1  0
 11 26  1  0
 26 27  2  0
 27 28  1  0
 28 29  2  0
 29 30  1  0
 30 31  1  6
  7  2  1  0
 29 10  1  0
 30  5  1  0
 22 17  1  0
 25 20  1  0
M  END
>  <smiles>  (48) 
C71153-P3

>  <fragmenstein_outcome>  (48) 
acceptable

>  <inchikey>  (48) 
VNOYOUABEMRXLF-UHFFFAOYSA-N

>  <fragmenstein_mode>  (48) 
expansion

>  <HIPPO Pose ID>  (48) 
766

>  <Energy>  (48) 
74.367997

>  <fragmenstein_error>  (48) 


>  <tags>  (48) 
{'openbind_xx01zvns2b_c1_fragmenstein', 'fragmenstein_placed'}

>  <ref_pdb>  (48) 
1

>  <scratch_subdir>  (48) 
/opt/xchem-fragalysis-2/maxwin/BulkDock/SCRATCH/511027/C71153-P3

>  <alias>  (48) 
CN1CCC2(CC1)CNc1c(OC(F)(F)Oc3ccc4c(c3)CNC4)cccc1[C@H]2N

>  <HIPPO Compound ID>  (48) 
72856

>  <fragmenstein_runtime>  (48) 
4.157618

$$$$
CNC[C@@]1(N)CCNc2c(OC(F)(F)F)cc(Cl)cc21
     RDKit          3D

 20 21  0  0  0  0  0  0  0  0999 V2000
   -4.6515    9.1012  -19.8363 C   0  0  0  0  0  0  0  0  0  0  0  0
   -4.5177    7.6558  -19.7389 N   0  0  0  0  0  0  0  0  0  0  0  0
   -5.4439    7.1069  -18.7211 C   0  0  0  0  0  0  0  0  0  0  0  0
   -5.3367    5.5487  -18.5866 C   0  0  1  0  0  0  0  0  0  0  0  0
   -5.4976    4.9658  -19.9289 N   0  0  0  0  0  0  0  0  0  0  0  0
   -3.9674    5.1151  -18.0383 C   0  0  0  0  0  0  0  0  0  0  0  0
   -3.7790    5.5714  -16.6009 C   0  0  0  0  0  0  0  0  0  0  0  0
   -4.8964    5.2301  -15.7369 N   0  0  0  0  0  0  0  0  0  0  0  0
   -6.1428    4.9080  -16.2776 C   0  0  0  0  0  0  0  0  0  0  0  0
   -7.1970    4.5446  -15.4166 C   0  0  0  0  0  0  0  0  0  0  0  0
   -6.9508    4.4535  -14.0704 O   0  0  0  0  0  0  0  0  0  0  0  0
   -7.4176    5.6218  -13.4083 C   0  0  0  0  0  0  0  0  0  0  0  0
   -6.9225    6.7539  -13.9590 F   0  0  0  0  0  0  0  0  0  0  0  0
   -8.7686    5.6915  -13.4100 F   0  0  0  0  0  0  0  0  0  0  0  0
   -7.0030    5.5774  -12.1208 F   0  0  0  0  0  0  0  0  0  0  0  0
   -8.4673    4.2459  -15.8960 C   0  0  0  0  0  0  0  0  0  0  0  0
   -8.7123    4.3551  -17.2514 C   0  0  0  0  0  0  0  0  0  0  0  0
  -10.2852    4.1191  -17.8632 Cl  0  0  0  0  0  0  0  0  0  0  0  0
   -7.7055    4.7537  -18.1163 C   0  0  0  0  0  0  0  0  0  0  0  0
   -6.4182    5.0530  -17.6438 C   0  0  0  0  0  0  0  0  0  0  0  0
  1  2  1  0
  2  3  1  0
  3  4  1  0
  4  5  1  6
  4  6  1  0
  6  7  1  0
  7  8  1  0
  8  9  1  0
  9 10  2  0
 10 11  1  0
 11 12  1  0
 12 13  1  0
 12 14  1  0
 12 15  1  0
 10 16  1  0
 16 17  2  0
 17 18  1  0
 17 19  1  0
 19 20  2  0
 20  4  1  0
 20  9  1  0
M  END
>  <smiles>  (49) 
C71154-P3

>  <fragmenstein_outcome>  (49) 
acceptable

>  <inchikey>  (49) 
YQKCMQBFCUKEIU-UHFFFAOYSA-N

>  <fragmenstein_mode>  (49) 
expansion

>  <HIPPO Pose ID>  (49) 
767

>  <Energy>  (49) 
42.222485

>  <fragmenstein_error>  (49) 


>  <tags>  (49) 
{'openbind_xx01zvns2b_c1_fragmenstein', 'fragmenstein_placed'}

>  <ref_pdb>  (49) 
1

>  <scratch_subdir>  (49) 
/opt/xchem-fragalysis-2/maxwin/BulkDock/SCRATCH/511027/C71154-P3

>  <alias>  (49) 
CNC[C@@]1(N)CCNc2c(OC(F)(F)F)cc(Cl)cc21

>  <HIPPO Compound ID>  (49) 
71154

>  <fragmenstein_runtime>  (49) 
2.183648

$$$$
CN1CCC2(CC1)CNc1c(cccc1N(Nc1ccc3c(c1)CNC3)C(F)(F)F)[C@H]2N
     RDKit          3D

 32 36  0  0  0  0  0  0  0  0999 V2000
   -1.5052    8.5260  -19.7187 C   0  0  0  0  0  0  0  0  0  0  0  0
   -2.1627    7.8774  -18.5863 N   0  0  0  0  0  0  0  0  0  0  0  0
   -3.6129    8.1099  -18.6321 C   0  0  0  0  0  0  0  0  0  0  0  0
   -4.3525    7.2397  -17.6162 C   0  0  0  0  0  0  0  0  0  0  0  0
   -4.1798    5.7176  -17.9054 C   0  0  0  0  0  0  0  0  0  0  0  0
   -2.9336    5.4970  -18.8135 C   0  0  0  0  0  0  0  0  0  0  0  0
   -1.7941    6.4604  -18.4812 C   0  0  0  0  0  0  0  0  0  0  0  0
   -3.9659    4.9718  -16.5740 C   0  0  0  0  0  0  0  0  0  0  0  0
   -5.1081    5.1216  -15.6898 N   0  0  0  0  0  0  0  0  0  0  0  0
   -6.3748    4.8355  -16.2383 C   0  0  0  0  0  0  0  0  0  0  0  0
   -6.5816    4.8101  -17.6329 C   0  0  0  0  0  0  0  0  0  0  0  0
   -7.8504    4.4537  -18.1243 C   0  0  0  0  0  0  0  0  0  0  0  0
   -8.9119    4.2083  -17.2620 C   0  0  0  0  0  0  0  0  0  0  0  0
   -8.7287    4.3462  -15.8912 C   0  0  0  0  0  0  0  0  0  0  0  0
   -7.4841    4.7024  -15.3574 C   0  0  0  0  0  0  0  0  0  0  0  0
   -7.3395    4.9699  -13.9407 N   0  0  0  0  0  0  0  0  0  0  0  0
   -8.2549    4.3007  -13.0559 N   0  0  0  0  0  0  0  0  0  0  0  0
   -8.2042    4.2964  -11.6266 C   0  0  0  0  0  0  0  0  0  0  0  0
   -8.0449    5.4625  -10.8551 C   0  0  0  0  0  0  0  0  0  0  0  0
   -8.0697    5.4406   -9.4521 C   0  0  0  0  0  0  0  0  0  0  0  0
   -8.2966    4.2388   -8.8145 C   0  0  0  0  0  0  0  0  0  0  0  0
   -8.4881    3.0795   -9.5457 C   0  0  0  0  0  0  0  0  0  0  0  0
   -8.4398    3.0902  -10.9378 C   0  0  0  0  0  0  0  0  0  0  0  0
   -8.7519    1.9450   -8.6115 C   0  0  0  0  0  0  0  0  0  0  0  0
   -8.7810    2.5235   -7.2417 N   0  0  0  0  0  0  0  0  0  0  0  0
   -8.4185    3.9484   -7.3593 C   0  0  0  0  0  0  0  0  0  0  0  0
   -7.1622    6.4415  -13.7954 C   0  0  0  0  0  0  0  0  0  0  0  0
   -6.3562    6.7274  -12.7407 F   0  0  0  0  0  0  0  0  0  0  0  0
   -6.6284    7.1004  -14.8547 F   0  0  0  0  0  0  0  0  0  0  0  0
   -8.3579    7.0486  -13.5684 F   0  0  0  0  0  0  0  0  0  0  0  0
   -5.4278    5.0733  -18.5839 C   0  0  1  0  0  0  0  0  0  0  0  0
   -5.8171    5.8350  -19.7773 N   0  0  0  0  0  0  0  0  0  0  0  0
  1  2  1  0
  2  3  1  0
  3  4  1  0
  4  5  1  0
  5  6  1  0
  6  7  1  0
  5  8  1  0
  8  9  1  0
  9 10  1  0
 10 11  2  0
 11 12  1  0
 12 13  2  0
 13 14  1  0
 14 15  2  0
 15 16  1  0
 16 17  1  0
 17 18  1  0
 18 19  2  0
 19 20  1  0
 20 21  2  0
 21 22  1  0
 22 23  2  0
 22 24  1  0
 24 25  1  0
 25 26  1  0
 16 27  1  0
 27 28  1  0
 27 29  1  0
 27 30  1  0
 11 31  1  0
 31 32  1  6
  7  2  1  0
 15 10  1  0
 23 18  1  0
 31  5  1  0
 26 21  1  0
M  END
>  <smiles>  (50) 
C71160-P3

>  <fragmenstein_outcome>  (50) 
acceptable

>  <inchikey>  (50) 
JUHNJPSECFVEBB-UHFFFAOYSA-N

>  <fragmenstein_mode>  (50) 
expansion

>  <HIPPO Pose ID>  (50) 
769

>  <Energy>  (50) 
115.933691

>  <fragmenstein_error>  (50) 


>  <tags>  (50) 
{'openbind_xx01zvns2b_c1_fragmenstein', 'fragmenstein_placed'}

>  <ref_pdb>  (50) 
1

>  <scratch_subdir>  (50) 
/opt/xchem-fragalysis-2/maxwin/BulkDock/SCRATCH/511027/C71160-P3

>  <alias>  (50) 
CN1CCC2(CC1)CNc1c(cccc1N(Nc1ccc3c(c1)CNC3)C(F)(F)F)[C@H]2N

>  <HIPPO Compound ID>  (50) 
84146

>  <fragmenstein_runtime>  (50) 
5.317829

$$$$
CNC[C@@]1(N)CCNc2c(OC(F)(F)Oc3cccc(C4CCN(C)CC4)c3)cc(Cl)cc21
     RDKit          3D

 33 36  0  0  0  0  0  0  0  0999 V2000
   -4.7387    8.9788  -20.0666 C   0  0  0  0  0  0  0  0  0  0  0  0
   -4.4734    7.6066  -19.6805 N   0  0  0  0  0  0  0  0  0  0  0  0
   -5.5117    7.0671  -18.7819 C   0  0  0  0  0  0  0  0  0  0  0  0
   -5.3610    5.5162  -18.5685 C   0  0  1  0  0  0  0  0  0  0  0  0
   -5.4367    4.8651  -19.8976 N   0  0  0  0  0  0  0  0  0  0  0  0
   -3.9815    5.1616  -17.9829 C   0  0  0  0  0  0  0  0  0  0  0  0
   -3.8710    5.6594  -16.5522 C   0  0  0  0  0  0  0  0  0  0  0  0
   -4.9031    5.0674  -15.7252 N   0  0  0  0  0  0  0  0  0  0  0  0
   -6.1984    4.9435  -16.2386 C   0  0  0  0  0  0  0  0  0  0  0  0
   -7.2538    4.5843  -15.3749 C   0  0  0  0  0  0  0  0  0  0  0  0
   -7.0057    4.4781  -14.0268 O   0  0  0  0  0  0  0  0  0  0  0  0
   -7.4933    5.6186  -13.3119 C   0  0  0  0  0  0  0  0  0  0  0  0
   -6.9377    6.7379  -13.8608 F   0  0  0  0  0  0  0  0  0  0  0  0
   -8.8408    5.7487  -13.4559 F   0  0  0  0  0  0  0  0  0  0  0  0
   -7.1594    5.6573  -11.9235 O   0  0  0  0  0  0  0  0  0  0  0  0
   -7.7484    4.7461  -11.0916 C   0  0  0  0  0  0  0  0  0  0  0  0
   -8.4509    3.6229  -11.4960 C   0  0  0  0  0  0  0  0  0  0  0  0
   -8.9552    2.7467  -10.5413 C   0  0  0  0  0  0  0  0  0  0  0  0
   -8.7742    2.9759   -9.1792 C   0  0  0  0  0  0  0  0  0  0  0  0
   -8.0864    4.1057   -8.7316 C   0  0  0  0  0  0  0  0  0  0  0  0
   -7.8010    4.3372   -7.2504 C   0  0  0  0  0  0  0  0  0  0  0  0
   -8.6086    3.4644   -6.2656 C   0  0  0  0  0  0  0  0  0  0  0  0
   -8.1925    3.7416   -4.8163 C   0  0  0  0  0  0  0  0  0  0  0  0
   -8.2479    5.1566   -4.4142 N   0  0  0  0  0  0  0  0  0  0  0  0
   -9.6219    5.5888   -4.1923 C   0  0  0  0  0  0  0  0  0  0  0  0
   -7.5491    6.0140   -5.3704 C   0  0  0  0  0  0  0  0  0  0  0  0
   -7.9648    5.8114   -6.8280 C   0  0  0  0  0  0  0  0  0  0  0  0
   -7.5657    4.9733   -9.7168 C   0  0  0  0  0  0  0  0  0  0  0  0
   -8.5218    4.2856  -15.8645 C   0  0  0  0  0  0  0  0  0  0  0  0
   -8.7551    4.3604  -17.2267 C   0  0  0  0  0  0  0  0  0  0  0  0
  -10.3195    4.0926  -17.8591 Cl  0  0  0  0  0  0  0  0  0  0  0  0
   -7.7403    4.7340  -18.0958 C   0  0  0  0  0  0  0  0  0  0  0  0
   -6.4536    5.0339  -17.6219 C   0  0  0  0  0  0  0  0  0  0  0  0
  1  2  1  0
  2  3  1  0
  3  4  1  0
  4  5  1  6
  4  6  1  0
  6  7  1  0
  7  8  1  0
  8  9  1  0
  9 10  2  0
 10 11  1  0
 11 12  1  0
 12 13  1  0
 12 14  1  0
 12 15  1  0
 15 16  1  0
 16 17  2  0
 17 18  1  0
 18 19  2  0
 19 20  1  0
 20 21  1  0
 21 22  1  0
 22 23  1  0
 23 24  1  0
 24 25  1  0
 24 26  1  0
 26 27  1  0
 20 28  2  0
 10 29  1  0
 29 30  2  0
 30 31  1  0
 30 32  1  0
 32 33  2  0
 33  4  1  0
 33  9  1  0
 28 16  1  0
 27 21  1  0
M  END
>  <smiles>  (51) 
C71167-P3

>  <fragmenstein_outcome>  (51) 
acceptable

>  <inchikey>  (51) 
DUIHABQUPONTIZ-UHFFFAOYSA-N

>  <fragmenstein_mode>  (51) 
expansion

>  <HIPPO Pose ID>  (51) 
773

>  <Energy>  (51) 
76.324479

>  <fragmenstein_error>  (51) 


>  <tags>  (51) 
{'openbind_xx01zvns2b_c1_fragmenstein', 'fragmenstein_placed'}

>  <ref_pdb>  (51) 
1

>  <scratch_subdir>  (51) 
/opt/xchem-fragalysis-2/maxwin/BulkDock/SCRATCH/511027/C71167-P3

>  <alias>  (51) 
CNC[C@@]1(N)CCNc2c(OC(F)(F)Oc3cccc(C4CCN(C)CC4)c3)cc(Cl)cc21

>  <HIPPO Compound ID>  (51) 
71167

>  <fragmenstein_runtime>  (51) 
33.106575

$$$$
CNCc1ccnc2c(OC(F)(F)Oc3ccc(F)cc3)cc(Cl)cc12
     RDKit          3D

 26 28  0  0  0  0  0  0  0  0999 V2000
   -2.6131    5.1678  -19.8551 C   0  0  0  0  0  0  0  0  0  0  0  0
   -3.9583    5.3596  -20.3413 N   0  0  0  0  0  0  0  0  0  0  0  0
   -4.9131    6.0638  -19.4879 C   0  0  0  0  0  0  0  0  0  0  0  0
   -5.0226    5.5928  -18.0519 C   0  0  0  0  0  0  0  0  0  0  0  0
   -3.9250    5.8572  -17.2174 C   0  0  0  0  0  0  0  0  0  0  0  0
   -3.9613    5.4912  -15.8952 C   0  0  0  0  0  0  0  0  0  0  0  0
   -5.0405    4.9568  -15.3195 N   0  0  0  0  0  0  0  0  0  0  0  0
   -6.1434    4.7770  -16.0668 C   0  0  0  0  0  0  0  0  0  0  0  0
   -7.3071    4.3808  -15.4116 C   0  0  0  0  0  0  0  0  0  0  0  0
   -7.2946    4.1831  -14.0558 O   0  0  0  0  0  0  0  0  0  0  0  0
   -7.5129    5.4066  -13.3543 C   0  0  0  0  0  0  0  0  0  0  0  0
   -6.9713    6.4727  -14.0059 F   0  0  0  0  0  0  0  0  0  0  0  0
   -8.8573    5.6228  -13.2932 F   0  0  0  0  0  0  0  0  0  0  0  0
   -6.9782    5.3297  -12.0318 O   0  0  0  0  0  0  0  0  0  0  0  0
   -7.2753    6.4298  -11.2846 C   0  0  0  0  0  0  0  0  0  0  0  0
   -6.5921    7.6330  -11.4766 C   0  0  0  0  0  0  0  0  0  0  0  0
   -6.8660    8.7193  -10.6485 C   0  0  0  0  0  0  0  0  0  0  0  0
   -7.7994    8.5801   -9.6277 C   0  0  0  0  0  0  0  0  0  0  0  0
   -8.0465    9.6191   -8.8201 F   0  0  0  0  0  0  0  0  0  0  0  0
   -8.4634    7.3744   -9.4178 C   0  0  0  0  0  0  0  0  0  0  0  0
   -8.1965    6.2864  -10.2472 C   0  0  0  0  0  0  0  0  0  0  0  0
   -8.5005    4.1639  -16.0763 C   0  0  0  0  0  0  0  0  0  0  0  0
   -8.5394    4.3552  -17.4400 C   0  0  0  0  0  0  0  0  0  0  0  0
  -10.0362    4.1812  -18.2324 Cl  0  0  0  0  0  0  0  0  0  0  0  0
   -7.4045    4.7712  -18.1360 C   0  0  0  0  0  0  0  0  0  0  0  0
   -6.1894    5.0334  -17.4605 C   0  0  0  0  0  0  0  0  0  0  0  0
  1  2  1  0
  2  3  1  0
  3  4  1  0
  4  5  2  0
  5  6  1  0
  6  7  2  0
  7  8  1  0
  8  9  2  0
  9 10  1  0
 10 11  1  0
 11 12  1  0
 11 13  1  0
 11 14  1  0
 14 15  1  0
 15 16  2  0
 16 17  1  0
 17 18  2  0
 18 19  1  0
 18 20  1  0
 20 21  2  0
  9 22  1  0
 22 23  2  0
 23 24  1  0
 23 25  1  0
 25 26  2  0
 26  4  1  0
 26  8  1  0
 21 15  1  0
M  END
>  <smiles>  (52) 
C71177-P3

>  <fragmenstein_outcome>  (52) 
acceptable

>  <inchikey>  (52) 
TUNLHGIHUZCCNO-UHFFFAOYSA-N

>  <fragmenstein_mode>  (52) 
expansion

>  <HIPPO Pose ID>  (52) 
781

>  <Energy>  (52) 
70.332721

>  <fragmenstein_error>  (52) 


>  <tags>  (52) 
{'openbind_xx01zvns2b_c1_fragmenstein', 'fragmenstein_placed'}

>  <ref_pdb>  (52) 
1

>  <scratch_subdir>  (52) 
/opt/xchem-fragalysis-2/maxwin/BulkDock/SCRATCH/511027/C71177-P3

>  <alias>  (52) 
CNCc1ccnc2c(OC(F)(F)Oc3ccc(F)cc3)cc(Cl)cc12

>  <HIPPO Compound ID>  (52) 
91984

>  <fragmenstein_runtime>  (52) 
4.293131

$$$$
CNCc1ccnc2c(OC(F)(F)Oc3ccncn3)cc(F)cc12
     RDKit          3D

 25 27  0  0  0  0  0  0  0  0999 V2000
   -4.3345    7.0713  -21.3588 C   0  0  0  0  0  0  0  0  0  0  0  0
   -4.7570    6.8193  -19.9945 N   0  0  0  0  0  0  0  0  0  0  0  0
   -5.1741    5.4232  -19.8060 C   0  0  0  0  0  0  0  0  0  0  0  0
   -5.2683    5.1479  -18.3224 C   0  0  0  0  0  0  0  0  0  0  0  0
   -4.0843    5.3070  -17.5860 C   0  0  0  0  0  0  0  0  0  0  0  0
   -4.1201    5.1672  -16.2194 C   0  0  0  0  0  0  0  0  0  0  0  0
   -5.2388    4.8827  -15.5354 N   0  0  0  0  0  0  0  0  0  0  0  0
   -6.3855    4.6998  -16.2245 C   0  0  0  0  0  0  0  0  0  0  0  0
   -7.5545    4.4034  -15.5207 C   0  0  0  0  0  0  0  0  0  0  0  0
   -7.5376    4.2738  -14.1571 O   0  0  0  0  0  0  0  0  0  0  0  0
   -7.4605    5.5255  -13.4715 C   0  0  0  0  0  0  0  0  0  0  0  0
   -7.3325    6.5647  -14.3550 F   0  0  0  0  0  0  0  0  0  0  0  0
   -8.6620    5.7528  -12.8688 F   0  0  0  0  0  0  0  0  0  0  0  0
   -6.4196    5.7095  -12.5266 O   0  0  0  0  0  0  0  0  0  0  0  0
   -6.1321    4.5824  -11.8059 C   0  0  0  0  0  0  0  0  0  0  0  0
   -4.8051    4.3766  -11.5055 C   0  0  0  0  0  0  0  0  0  0  0  0
   -4.5397    3.2935  -10.7069 C   0  0  0  0  0  0  0  0  0  0  0  0
   -5.4939    2.4857  -10.2198 N   0  0  0  0  0  0  0  0  0  0  0  0
   -6.7583    2.7857  -10.5707 C   0  0  0  0  0  0  0  0  0  0  0  0
   -7.1323    3.8250  -11.3380 N   0  0  0  0  0  0  0  0  0  0  0  0
   -8.7644    4.1450  -16.1560 C   0  0  0  0  0  0  0  0  0  0  0  0
   -8.8273    4.1986  -17.5298 C   0  0  0  0  0  0  0  0  0  0  0  0
   -9.9813    3.9279  -18.1531 F   0  0  0  0  0  0  0  0  0  0  0  0
   -7.6983    4.5272  -18.2667 C   0  0  0  0  0  0  0  0  0  0  0  0
   -6.4590    4.7971  -17.6370 C   0  0  0  0  0  0  0  0  0  0  0  0
  1  2  1  0
  2  3  1  0
  3  4  1  0
  4  5  2  0
  5  6  1  0
  6  7  2  0
  7  8  1  0
  8  9  2  0
  9 10  1  0
 10 11  1  0
 11 12  1  0
 11 13  1  0
 11 14  1  0
 14 15  1  0
 15 16  2  0
 16 17  1  0
 17 18  2  0
 18 19  1  0
 19 20  2  0
  9 21  1  0
 21 22  2  0
 22 23  1  0
 22 24  1  0
 24 25  2  0
 25  4  1  0
 25  8  1  0
 20 15  1  0
M  END
>  <smiles>  (53) 
C71195-P3

>  <fragmenstein_outcome>  (53) 
acceptable

>  <inchikey>  (53) 
MIQQKCJIOSRSNT-UHFFFAOYSA-N

>  <fragmenstein_mode>  (53) 
expansion

>  <HIPPO Pose ID>  (53) 
789

>  <Energy>  (53) 
-3.125168

>  <fragmenstein_error>  (53) 


>  <tags>  (53) 
{'openbind_xx01zvns2b_c1_fragmenstein', 'fragmenstein_placed'}

>  <ref_pdb>  (53) 
1

>  <scratch_subdir>  (53) 
/opt/xchem-fragalysis-2/maxwin/BulkDock/SCRATCH/511027/C71195-P3

>  <alias>  (53) 
CNCc1ccnc2c(OC(F)(F)Oc3ccncn3)cc(F)cc12

>  <HIPPO Compound ID>  (53) 
79720

>  <fragmenstein_runtime>  (53) 
3.401692

$$$$
CNC[C@@]1(N)CCNc2c(OC(F)(F)Oc3ccc(C)c(C)c3)cc(Cl)cc21
     RDKit          3D

 28 30  0  0  0  0  0  0  0  0999 V2000
   -4.7899    8.9852  -20.0660 C   0  0  0  0  0  0  0  0  0  0  0  0
   -4.7093    7.5341  -20.0178 N   0  0  0  0  0  0  0  0  0  0  0  0
   -5.6266    6.9745  -19.0011 C   0  0  0  0  0  0  0  0  0  0  0  0
   -5.4262    5.4323  -18.7612 C   0  0  1  0  0  0  0  0  0  0  0  0
   -5.5304    4.7356  -20.0619 N   0  0  0  0  0  0  0  0  0  0  0  0
   -4.0210    5.1428  -18.1982 C   0  0  0  0  0  0  0  0  0  0  0  0
   -3.8904    5.6594  -16.7737 C   0  0  0  0  0  0  0  0  0  0  0  0
   -4.8891    5.0635  -15.9114 N   0  0  0  0  0  0  0  0  0  0  0  0
   -6.1921    4.8995  -16.3929 C   0  0  0  0  0  0  0  0  0  0  0  0
   -7.2253    4.5413  -15.5006 C   0  0  0  0  0  0  0  0  0  0  0  0
   -6.9434    4.4229  -14.1641 O   0  0  0  0  0  0  0  0  0  0  0  0
   -7.4038    5.5544  -13.4276 C   0  0  0  0  0  0  0  0  0  0  0  0
   -6.8655    6.6850  -13.9617 F   0  0  0  0  0  0  0  0  0  0  0  0
   -8.7572    5.6485  -13.5043 F   0  0  0  0  0  0  0  0  0  0  0  0
   -7.0038    5.4548  -12.0667 O   0  0  0  0  0  0  0  0  0  0  0  0
   -7.3913    6.4298  -11.1963 C   0  0  0  0  0  0  0  0  0  0  0  0
   -8.1308    7.5688  -11.4986 C   0  0  0  0  0  0  0  0  0  0  0  0
   -8.4560    8.4808  -10.4897 C   0  0  0  0  0  0  0  0  0  0  0  0
   -8.0487    8.2714   -9.1637 C   0  0  0  0  0  0  0  0  0  0  0  0
   -8.4017    9.2944   -8.1192 C   0  0  0  0  0  0  0  0  0  0  0  0
   -7.2857    7.1312   -8.8550 C   0  0  0  0  0  0  0  0  0  0  0  0
   -6.8236    6.8435   -7.4531 C   0  0  0  0  0  0  0  0  0  0  0  0
   -6.9765    6.2193   -9.8775 C   0  0  0  0  0  0  0  0  0  0  0  0
   -8.5104    4.2499  -15.9455 C   0  0  0  0  0  0  0  0  0  0  0  0
   -8.7804    4.3151  -17.2976 C   0  0  0  0  0  0  0  0  0  0  0  0
  -10.3675    4.0917  -17.8821 Cl  0  0  0  0  0  0  0  0  0  0  0  0
   -7.7818    4.6493  -18.1977 C   0  0  0  0  0  0  0  0  0  0  0  0
   -6.4809    4.9571  -17.7692 C   0  0  0  0  0  0  0  0  0  0  0  0
  1  2  1  0
  2  3  1  0
  3  4  1  0
  4  5  1  6
  4  6  1  0
  6  7  1  0
  7  8  1  0
  8  9  1  0
  9 10  2  0
 10 11  1  0
 11 12  1  0
 12 13  1  0
 12 14  1  0
 12 15  1  0
 15 16  1  0
 16 17  2  0
 17 18  1  0
 18 19  2  0
 19 20  1  0
 19 21  1  0
 21 22  1  0
 21 23  2  0
 10 24  1  0
 24 25  2  0
 25 26  1  0
 25 27  1  0
 27 28  2  0
 28  4  1  0
 28  9  1  0
 23 16  1  0
M  END
>  <smiles>  (54) 
C71197-P3

>  <fragmenstein_outcome>  (54) 
acceptable

>  <inchikey>  (54) 
PYMFSXVDTCLIMA-UHFFFAOYSA-N

>  <fragmenstein_mode>  (54) 
expansion

>  <HIPPO Pose ID>  (54) 
791

>  <Energy>  (54) 
69.875829

>  <fragmenstein_error>  (54) 


>  <tags>  (54) 
{'openbind_xx01zvns2b_c1_fragmenstein', 'fragmenstein_placed'}

>  <ref_pdb>  (54) 
1

>  <scratch_subdir>  (54) 
/opt/xchem-fragalysis-2/maxwin/BulkDock/SCRATCH/511027/C71197-P3

>  <alias>  (54) 
CNC[C@@]1(N)CCNc2c(OC(F)(F)Oc3ccc(C)c(C)c3)cc(Cl)cc21

>  <HIPPO Compound ID>  (54) 
71197

>  <fragmenstein_runtime>  (54) 
7.049519

$$$$
Nc1c2c(nc3c(N(c4ccc5c(c4)CNC5)C(F)(F)F)cc(F)cc13)CCCCC2
     RDKit          3D

 31 35  0  0  0  0  0  0  0  0999 V2000
   -5.9255    4.9393  -20.1837 N   0  0  0  0  0  0  0  0  0  0  0  0
   -5.7154    5.2620  -18.8234 C   0  0  0  0  0  0  0  0  0  0  0  0
   -4.4834    5.8009  -18.3860 C   0  0  0  0  0  0  0  0  0  0  0  0
   -4.2961    5.9059  -17.0030 C   0  0  0  0  0  0  0  0  0  0  0  0
   -5.2383    5.5218  -16.1045 N   0  0  0  0  0  0  0  0  0  0  0  0
   -6.4040    4.9867  -16.5010 C   0  0  0  0  0  0  0  0  0  0  0  0
   -7.3520    4.5567  -15.5447 C   0  0  0  0  0  0  0  0  0  0  0  0
   -7.1309    4.5527  -14.1320 N   0  0  0  0  0  0  0  0  0  0  0  0
   -6.2332    3.7602  -13.3806 C   0  0  0  0  0  0  0  0  0  0  0  0
   -4.9981    3.3026  -13.8840 C   0  0  0  0  0  0  0  0  0  0  0  0
   -4.1236    2.5055  -13.1297 C   0  0  0  0  0  0  0  0  0  0  0  0
   -4.4923    2.1676  -11.8463 C   0  0  0  0  0  0  0  0  0  0  0  0
   -5.7101    2.5857  -11.3256 C   0  0  0  0  0  0  0  0  0  0  0  0
   -6.5897    3.3522  -12.0769 C   0  0  0  0  0  0  0  0  0  0  0  0
   -5.8497    2.0540   -9.9370 C   0  0  0  0  0  0  0  0  0  0  0  0
   -4.4635    1.6612   -9.5440 N   0  0  0  0  0  0  0  0  0  0  0  0
   -3.7844    1.3382  -10.8277 C   0  0  0  0  0  0  0  0  0  0  0  0
   -7.4815    5.8356  -13.5407 C   0  0  0  0  0  0  0  0  0  0  0  0
   -6.9365    6.8898  -14.2003 F   0  0  0  0  0  0  0  0  0  0  0  0
   -8.8315    6.0187  -13.5698 F   0  0  0  0  0  0  0  0  0  0  0  0
   -7.1124    5.9690  -12.2409 F   0  0  0  0  0  0  0  0  0  0  0  0
   -8.6267    4.1469  -15.9707 C   0  0  0  0  0  0  0  0  0  0  0  0
   -8.9289    4.0662  -17.3128 C   0  0  0  0  0  0  0  0  0  0  0  0
  -10.1459    3.6827  -17.7166 F   0  0  0  0  0  0  0  0  0  0  0  0
   -7.9723    4.3787  -18.2537 C   0  0  0  0  0  0  0  0  0  0  0  0
   -6.7029    4.8676  -17.8741 C   0  0  0  0  0  0  0  0  0  0  0  0
   -3.0810    6.4965  -16.3272 C   0  0  0  0  0  0  0  0  0  0  0  0
   -1.7464    6.2187  -17.0009 C   0  0  0  0  0  0  0  0  0  0  0  0
   -1.4369    7.1852  -18.1343 C   0  0  0  0  0  0  0  0  0  0  0  0
   -2.6264    7.4846  -19.0362 C   0  0  0  0  0  0  0  0  0  0  0  0
   -3.4474    6.2470  -19.4005 C   0  0  0  0  0  0  0  0  0  0  0  0
  1  2  1  0
  2  3  2  0
  3  4  1  0
  4  5  2  0
  5  6  1  0
  6  7  2  0
  7  8  1  0
  8  9  1  0
  9 10  2  0
 10 11  1  0
 11 12  2  0
 12 13  1  0
 13 14  2  0
 13 15  1  0
 15 16  1  0
 16 17  1  0
  8 18  1  0
 18 19  1  0
 18 20  1  0
 18 21  1  0
  7 22  1  0
 22 23  2  0
 23 24  1  0
 23 25  1  0
 25 26  2  0
  4 27  1  0
 27 28  1  0
 28 29  1  0
 29 30  1  0
 30 31  1  0
 26  2  1  0
 31  3  1  0
 26  6  1  0
 14  9  1  0
 17 12  1  0
M  END
>  <smiles>  (55) 
C71204-P3

>  <fragmenstein_outcome>  (55) 
acceptable

>  <inchikey>  (55) 
USAPBWYWICUKEE-UHFFFAOYSA-N

>  <fragmenstein_mode>  (55) 
expansion

>  <HIPPO Pose ID>  (55) 
795

>  <Energy>  (55) 
92.56956

>  <fragmenstein_error>  (55) 


>  <tags>  (55) 
{'openbind_xx01zvns2b_c1_fragmenstein', 'fragmenstein_placed'}

>  <ref_pdb>  (55) 
1

>  <scratch_subdir>  (55) 
/opt/xchem-fragalysis-2/maxwin/BulkDock/SCRATCH/511027/C71204-P3

>  <alias>  (55) 
Nc1c2c(nc3c(N(c4ccc5c(c4)CNC5)C(F)(F)F)cc(F)cc13)CCCCC2

>  <HIPPO Compound ID>  (55) 
95762

>  <fragmenstein_runtime>  (55) 
7.100183

$$$$
FC(F)(F)N(c1ccc2c(c1)CNC2)c1cccc2c(NC3CNC3)ccnc12
     RDKit          3D

 29 33  0  0  0  0  0  0  0  0999 V2000
   -7.0277    6.7741  -14.1653 F   0  0  0  0  0  0  0  0  0  0  0  0
   -7.5304    5.7148  -13.4757 C   0  0  0  0  0  0  0  0  0  0  0  0
   -8.8853    5.8666  -13.4845 F   0  0  0  0  0  0  0  0  0  0  0  0
   -7.1377    5.8869  -12.1880 F   0  0  0  0  0  0  0  0  0  0  0  0
   -7.1657    4.4248  -14.0545 N   0  0  0  0  0  0  0  0  0  0  0  0
   -6.2989    3.6284  -13.2667 C   0  0  0  0  0  0  0  0  0  0  0  0
   -5.0916    3.0868  -13.7567 C   0  0  0  0  0  0  0  0  0  0  0  0
   -4.2475    2.2742  -12.9893 C   0  0  0  0  0  0  0  0  0  0  0  0
   -4.6146    2.0109  -11.6927 C   0  0  0  0  0  0  0  0  0  0  0  0
   -5.8006    2.5162  -11.1742 C   0  0  0  0  0  0  0  0  0  0  0  0
   -6.6573    3.2895  -11.9456 C   0  0  0  0  0  0  0  0  0  0  0  0
   -5.9319    2.0663   -9.7573 C   0  0  0  0  0  0  0  0  0  0  0  0
   -4.5542    1.6292   -9.3793 N   0  0  0  0  0  0  0  0  0  0  0  0
   -3.9317    1.1901  -10.6534 C   0  0  0  0  0  0  0  0  0  0  0  0
   -7.2768    4.4898  -15.4833 C   0  0  0  0  0  0  0  0  0  0  0  0
   -8.5269    4.1486  -16.0284 C   0  0  0  0  0  0  0  0  0  0  0  0
   -8.7506    4.1874  -17.3941 C   0  0  0  0  0  0  0  0  0  0  0  0
   -7.7251    4.5997  -18.2356 C   0  0  0  0  0  0  0  0  0  0  0  0
   -6.4709    5.0154  -17.7345 C   0  0  0  0  0  0  0  0  0  0  0  0
   -5.4199    5.5333  -18.5435 C   0  0  0  0  0  0  0  0  0  0  0  0
   -5.5706    5.8516  -19.9313 N   0  0  0  0  0  0  0  0  0  0  0  0
   -4.9637    7.0624  -20.4693 C   0  0  0  0  0  0  0  0  0  0  0  0
   -3.5527    6.8560  -21.0595 C   0  0  0  0  0  0  0  0  0  0  0  0
   -3.9159    7.7293  -22.1957 N   0  0  0  0  0  0  0  0  0  0  0  0
   -5.3474    7.4647  -21.9069 C   0  0  0  0  0  0  0  0  0  0  0  0
   -4.1854    5.7981  -17.9452 C   0  0  0  0  0  0  0  0  0  0  0  0
   -4.0679    5.6973  -16.5831 C   0  0  0  0  0  0  0  0  0  0  0  0
   -5.0792    5.3359  -15.7863 N   0  0  0  0  0  0  0  0  0  0  0  0
   -6.2475    4.9447  -16.3320 C   0  0  0  0  0  0  0  0  0  0  0  0
  1  2  1  0
  2  3  1  0
  2  4  1  0
  2  5  1  0
  5  6  1  0
  6  7  2  0
  7  8  1  0
  8  9  2  0
  9 10  1  0
 10 11  2  0
 10 12  1  0
 12 13  1  0
 13 14  1  0
  5 15  1  0
 15 16  2  0
 16 17  1  0
 17 18  2  0
 18 19  1  0
 19 20  2  0
 20 21  1  0
 21 22  1  0
 22 23  1  0
 23 24  1  0
 24 25  1  0
 20 26  1  0
 26 27  2  0
 27 28  1  0
 28 29  2  0
 11  6  1  0
 29 15  1  0
 14  9  1  0
 29 19  1  0
 25 22  1  0
M  END
>  <smiles>  (56) 
C71207-P3

>  <fragmenstein_outcome>  (56) 
acceptable

>  <inchikey>  (56) 
FWCCSPPZPSXTST-UHFFFAOYSA-N

>  <fragmenstein_mode>  (56) 
expansion

>  <HIPPO Pose ID>  (56) 
797

>  <Energy>  (56) 
129.258959

>  <fragmenstein_error>  (56) 


>  <tags>  (56) 
{'openbind_xx01zvns2b_c1_fragmenstein', 'fragmenstein_placed'}

>  <ref_pdb>  (56) 
1

>  <scratch_subdir>  (56) 
/opt/xchem-fragalysis-2/maxwin/BulkDock/SCRATCH/511027/C71207-P3

>  <alias>  (56) 
FC(F)(F)N(c1ccc2c(c1)CNC2)c1cccc2c(NC3CNC3)ccnc12

>  <HIPPO Compound ID>  (56) 
82918

>  <fragmenstein_runtime>  (56) 
7.382695

$$$$
CNCc1cccc(OC(F)(F)Oc2cc(Cl)cc3c(CNC)ccnc23)c1
     RDKit          3D

 28 30  0  0  0  0  0  0  0  0999 V2000
  -11.6738    9.8308  -10.1156 C   0  0  0  0  0  0  0  0  0  0  0  0
  -10.6401    9.6415  -11.1226 N   0  0  0  0  0  0  0  0  0  0  0  0
   -9.3202    9.5422  -10.4995 C   0  0  0  0  0  0  0  0  0  0  0  0
   -8.2525    9.3485  -11.5511 C   0  0  0  0  0  0  0  0  0  0  0  0
   -7.4538   10.4191  -11.9723 C   0  0  0  0  0  0  0  0  0  0  0  0
   -6.4835   10.2268  -12.9546 C   0  0  0  0  0  0  0  0  0  0  0  0
   -6.3123    8.9663  -13.5276 C   0  0  0  0  0  0  0  0  0  0  0  0
   -7.1050    7.8869  -13.1281 C   0  0  0  0  0  0  0  0  0  0  0  0
   -6.8469    6.7204  -13.7903 O   0  0  0  0  0  0  0  0  0  0  0  0
   -7.5058    5.5365  -13.3418 C   0  0  0  0  0  0  0  0  0  0  0  0
   -8.8547    5.7019  -13.4436 F   0  0  0  0  0  0  0  0  0  0  0  0
   -7.2200    5.3516  -12.0256 F   0  0  0  0  0  0  0  0  0  0  0  0
   -7.1493    4.3300  -14.0091 O   0  0  0  0  0  0  0  0  0  0  0  0
   -7.2951    4.4614  -15.3696 C   0  0  0  0  0  0  0  0  0  0  0  0
   -8.5552    4.2550  -15.9215 C   0  0  0  0  0  0  0  0  0  0  0  0
   -8.7112    4.3480  -17.2887 C   0  0  0  0  0  0  0  0  0  0  0  0
  -10.2624    4.1858  -17.9817 Cl  0  0  0  0  0  0  0  0  0  0  0  0
   -7.6206    4.6349  -18.0985 C   0  0  0  0  0  0  0  0  0  0  0  0
   -6.3338    4.8338  -17.5510 C   0  0  0  0  0  0  0  0  0  0  0  0
   -5.1854    5.1186  -18.3363 C   0  0  0  0  0  0  0  0  0  0  0  0
   -5.3038    5.2853  -19.8339 C   0  0  0  0  0  0  0  0  0  0  0  0
   -4.0355    5.5545  -20.5452 N   0  0  0  0  0  0  0  0  0  0  0  0
   -3.7229    6.9800  -20.5546 C   0  0  0  0  0  0  0  0  0  0  0  0
   -3.9477    5.2164  -17.6945 C   0  0  0  0  0  0  0  0  0  0  0  0
   -3.8949    5.1016  -16.3239 C   0  0  0  0  0  0  0  0  0  0  0  0
   -4.9725    4.8850  -15.5525 N   0  0  0  0  0  0  0  0  0  0  0  0
   -6.1691    4.7294  -16.1508 C   0  0  0  0  0  0  0  0  0  0  0  0
   -8.0728    8.0851  -12.1416 C   0  0  0  0  0  0  0  0  0  0  0  0
  1  2  1  0
  2  3  1  0
  3  4  1  0
  4  5  2  0
  5  6  1  0
  6  7  2  0
  7  8  1  0
  8  9  1  0
  9 10  1  0
 10 11  1  0
 10 12  1  0
 10 13  1  0
 13 14  1  0
 14 15  2  0
 15 16  1  0
 16 17  1  0
 16 18  2  0
 18 19  1  0
 19 20  2  0
 20 21  1  0
 21 22  1  0
 22 23  1  0
 20 24  1  0
 24 25  2  0
 25 26  1  0
 26 27  2  0
  8 28  2  0
 28  4  1  0
 27 14  1  0
 27 19  1  0
M  END
>  <smiles>  (57) 
C71210-P3

>  <fragmenstein_outcome>  (57) 
acceptable

>  <inchikey>  (57) 
JIYBNMQXVOLGMJ-UHFFFAOYSA-N

>  <fragmenstein_mode>  (57) 
expansion

>  <HIPPO Pose ID>  (57) 
798

>  <Energy>  (57) 
63.723771

>  <fragmenstein_error>  (57) 


>  <tags>  (57) 
{'openbind_xx01zvns2b_c1_fragmenstein', 'fragmenstein_placed'}

>  <ref_pdb>  (57) 
1

>  <scratch_subdir>  (57) 
/opt/xchem-fragalysis-2/maxwin/BulkDock/SCRATCH/511027/C71210-P3

>  <alias>  (57) 
CNCc1cccc(OC(F)(F)Oc2cc(Cl)cc3c(CNC)ccnc23)c1

>  <HIPPO Compound ID>  (57) 
71210

>  <fragmenstein_runtime>  (57) 
6.742394

$$$$
CC(=O)N[C@H](C(=O)C(=O)[C@@H]1CCC[C@H]2[C@H]1N[C@@H](C)C(=O)[C@@H]2CO)c1cccc2c1CNC2=O
     RDKit          3D

 33 36  0  0  0  0  0  0  0  0999 V2000
   -5.0132    0.6524  -10.5650 C   0  0  0  0  0  0  0  0  0  0  0  0
   -5.4724    1.9454  -11.1997 C   0  0  0  0  0  0  0  0  0  0  0  0
   -4.7351    2.8303  -11.3971 O   0  0  0  0  0  0  0  0  0  0  0  0
   -7.0070    1.8494  -11.4098 N   0  0  0  0  0  0  0  0  0  0  0  0
   -7.9707    2.8625  -11.8192 C   0  0  2  0  0  0  0  0  0  0  0  0
   -7.5828    3.3482  -13.2369 C   0  0  0  0  0  0  0  0  0  0  0  0
   -6.6221    2.9196  -13.8700 O   0  0  0  0  0  0  0  0  0  0  0  0
   -8.4553    4.4125  -13.9083 C   0  0  0  0  0  0  0  0  0  0  0  0
   -9.3641    4.9418  -13.2739 O   0  0  0  0  0  0  0  0  0  0  0  0
   -8.2735    4.7851  -15.3737 C   0  0  2  0  0  0  0  0  0  0  0  0
   -9.2797    3.9513  -16.1516 C   0  0  0  0  0  0  0  0  0  0  0  0
   -9.4403    4.3557  -17.5944 C   0  0  0  0  0  0  0  0  0  0  0  0
   -8.1110    4.5424  -18.2979 C   0  0  0  0  0  0  0  0  0  0  0  0
   -6.9988    5.2496  -17.4989 C   0  0  2  0  0  0  0  0  0  0  0  0
   -5.6669    5.1042  -18.2770 C   0  0  1  0  0  0  0  0  0  0  0  0
   -5.4705    6.2490  -19.2669 C   0  0  0  0  0  0  0  0  0  0  0  0
   -4.6071    5.8697  -20.3331 O   0  0  0  0  0  0  0  0  0  0  0  0
   -4.4963    5.0584  -17.3096 C   0  0  0  0  0  0  0  0  0  0  0  0
   -3.4435    4.4854  -17.5999 O   0  0  0  0  0  0  0  0  0  0  0  0
   -4.6786    5.8337  -16.0054 C   0  0  2  0  0  0  0  0  0  0  0  0
   -3.4420    5.7136  -15.1168 C   0  0  0  0  0  0  0  0  0  0  0  0
   -5.8761    5.4010  -15.2550 N   0  0  0  0  0  0  0  0  0  0  0  0
   -6.8985    4.7090  -16.0530 C   0  0  1  0  0  0  0  0  0  0  0  0
   -8.0231    3.8872  -10.7038 C   0  0  0  0  0  0  0  0  0  0  0  0
   -7.5673    5.2074  -10.8917 C   0  0  0  0  0  0  0  0  0  0  0  0
   -7.5878    6.1602   -9.8613 C   0  0  0  0  0  0  0  0  0  0  0  0
   -8.0191    5.8133   -8.5892 C   0  0  0  0  0  0  0  0  0  0  0  0
   -8.4198    4.5088   -8.3926 C   0  0  0  0  0  0  0  0  0  0  0  0
   -8.4381    3.5482   -9.4071 C   0  0  0  0  0  0  0  0  0  0  0  0
   -8.8840    2.2434   -8.8114 C   0  0  0  0  0  0  0  0  0  0  0  0
   -9.1617    2.5869   -7.4340 N   0  0  0  0  0  0  0  0  0  0  0  0
   -8.8575    3.8914   -7.1388 C   0  0  0  0  0  0  0  0  0  0  0  0
   -8.9201    4.4595   -6.0652 O   0  0  0  0  0  0  0  0  0  0  0  0
  1  2  1  0
  2  3  2  0
  2  4  1  0
  5  4  1  1
  5  6  1  0
  6  7  2  0
  6  8  1  0
  8  9  2  0
 10  8  1  1
 10 11  1  0
 11 12  1  0
 12 13  1  0
 14 13  1  6
 14 15  1  0
 15 16  1  6
 16 17  1  0
 15 18  1  0
 18 19  2  0
 18 20  1  0
 20 21  1  1
 20 22  1  0
 23 22  1  1
  5 24  1  0
 24 25  2  0
 25 26  1  0
 26 27  2  0
 27 28  1  0
 28 29  2  0
 29 30  1  0
 30 31  1  0
 31 32  1  0
 32 33  2  0
 23 10  1  0
 29 24  1  0
 23 14  1  0
 32 28  1  0
M  END
>  <smiles>  (58) 
C71383-P4

>  <fragmenstein_outcome>  (58) 
acceptable

>  <inchikey>  (58) 
ZXVQNNXJZDSKBP-UHFFFAOYSA-N

>  <fragmenstein_mode>  (58) 
expansion

>  <HIPPO Pose ID>  (58) 
906

>  <Energy>  (58) 
117.096281

>  <fragmenstein_error>  (58) 


>  <tags>  (58) 
{'openbind_xx01zvns2b_c1_fragmenstein', 'fragmenstein_placed'}

>  <ref_pdb>  (58) 
1

>  <scratch_subdir>  (58) 
/opt/xchem-fragalysis-2/maxwin/BulkDock/SCRATCH/511027/C71383-P4

>  <alias>  (58) 
CC(=O)N[C@H](C(=O)C(=O)[C@@H]1CCC[C@H]2[C@H]1N[C@@H](C)C(=O)[C@@H]2CO)c1cccc2c1CNC2=O

>  <HIPPO Compound ID>  (58) 
83674

>  <fragmenstein_runtime>  (58) 
13.68759

$$$$
CC(=O)N[C@H](C(=O)C(=O)[C@H]1CCC[C@H]2[C@H]1N[C@@H](C)C(=O)[C@@H]2CO)c1ccnc2c1CNC2
     RDKit          3D

 32 35  0  0  0  0  0  0  0  0999 V2000
   -3.8940    1.2573  -10.4326 C   0  0  0  0  0  0  0  0  0  0  0  0
   -5.3715    0.9900  -10.6045 C   0  0  0  0  0  0  0  0  0  0  0  0
   -5.8589   -0.0564  -10.4366 O   0  0  0  0  0  0  0  0  0  0  0  0
   -6.0109    2.3424  -11.0091 N   0  0  0  0  0  0  0  0  0  0  0  0
   -7.3970    2.6699  -11.3907 C   0  0  2  0  0  0  0  0  0  0  0  0
   -7.3020    2.9695  -12.8921 C   0  0  0  0  0  0  0  0  0  0  0  0
   -6.5111    2.3421  -13.6070 O   0  0  0  0  0  0  0  0  0  0  0  0
   -8.1434    4.0281  -13.6208 C   0  0  0  0  0  0  0  0  0  0  0  0
   -8.8333    4.8375  -13.0175 O   0  0  0  0  0  0  0  0  0  0  0  0
   -8.0558    3.9950  -15.1530 C   0  0  1  0  0  0  0  0  0  0  0  0
   -9.3041    4.5876  -15.7630 C   0  0  0  0  0  0  0  0  0  0  0  0
   -9.4176    4.3214  -17.2521 C   0  0  0  0  0  0  0  0  0  0  0  0
   -8.1586    4.6418  -18.0367 C   0  0  0  0  0  0  0  0  0  0  0  0
   -6.9908    5.2086  -17.2157 C   0  0  2  0  0  0  0  0  0  0  0  0
   -5.6946    5.1287  -18.0723 C   0  0  1  0  0  0  0  0  0  0  0  0
   -5.5847    6.2446  -19.1049 C   0  0  0  0  0  0  0  0  0  0  0  0
   -4.7566    5.8467  -20.1956 O   0  0  0  0  0  0  0  0  0  0  0  0
   -4.4862    5.1408  -17.1462 C   0  0  0  0  0  0  0  0  0  0  0  0
   -3.4115    4.6349  -17.4767 O   0  0  0  0  0  0  0  0  0  0  0  0
   -4.6969    5.8247  -15.7880 C   0  0  2  0  0  0  0  0  0  0  0  0
   -3.4103    5.8111  -14.9674 C   0  0  0  0  0  0  0  0  0  0  0  0
   -5.7912    5.1848  -15.0096 N   0  0  0  0  0  0  0  0  0  0  0  0
   -6.7733    4.4834  -15.8578 C   0  0  1  0  0  0  0  0  0  0  0  0
   -7.8593    3.6841  -10.3778 C   0  0  0  0  0  0  0  0  0  0  0  0
   -7.5767    5.0501  -10.4976 C   0  0  0  0  0  0  0  0  0  0  0  0
   -7.8611    5.9130   -9.4411 C   0  0  0  0  0  0  0  0  0  0  0  0
   -8.3363    5.5227   -8.2408 N   0  0  0  0  0  0  0  0  0  0  0  0
   -8.5786    4.2035   -8.1376 C   0  0  0  0  0  0  0  0  0  0  0  0
   -8.3864    3.2761   -9.1476 C   0  0  0  0  0  0  0  0  0  0  0  0
   -8.7736    1.9241   -8.6362 C   0  0  0  0  0  0  0  0  0  0  0  0
   -9.0288    2.0613   -7.1765 N   0  0  0  0  0  0  0  0  0  0  0  0
   -9.0471    3.5101   -6.8901 C   0  0  0  0  0  0  0  0  0  0  0  0
  1  2  1  0
  2  3  2  0
  2  4  1  0
  5  4  1  1
  5  6  1  0
  6  7  2  0
  6  8  1  0
  8  9  2  0
 10  8  1  1
 10 11  1  0
 11 12  1  0
 12 13  1  0
 14 13  1  6
 14 15  1  0
 15 16  1  6
 16 17  1  0
 15 18  1  0
 18 19  2  0
 18 20  1  0
 20 21  1  1
 20 22  1  0
 23 22  1  1
  5 24  1  0
 24 25  2  0
 25 26  1  0
 26 27  2  0
 27 28  1  0
 28 29  2  0
 29 30  1  0
 30 31  1  0
 31 32  1  0
 23 10  1  0
 29 24  1  0
 23 14  1  0
 32 28  1  0
M  END
>  <smiles>  (59) 
C71384-P4

>  <fragmenstein_outcome>  (59) 
acceptable

>  <inchikey>  (59) 
SUMSXVNUUQVMHL-UHFFFAOYSA-N

>  <fragmenstein_mode>  (59) 
expansion

>  <HIPPO Pose ID>  (59) 
907

>  <Energy>  (59) 
152.006473

>  <fragmenstein_error>  (59) 


>  <tags>  (59) 
{'openbind_xx01zvns2b_c1_fragmenstein', 'fragmenstein_placed'}

>  <ref_pdb>  (59) 
1

>  <scratch_subdir>  (59) 
/opt/xchem-fragalysis-2/maxwin/BulkDock/SCRATCH/511027/C71384-P4

>  <alias>  (59) 
CC(=O)N[C@H](C(=O)C(=O)[C@H]1CCC[C@H]2[C@H]1N[C@@H](C)C(=O)[C@@H]2CO)c1ccnc2c1CNC2

>  <HIPPO Compound ID>  (59) 
71384

>  <fragmenstein_runtime>  (59) 
9.960525

$$$$
CNC[C@]1(C)C[C@@H](C)Nc2c(C(=O)C(=O)[C@H](CCC[C@@H]3CC[C@@H](N(C)C(F)F)C3)NC(C)=O)cc(Cl)cc21
     RDKit          3D

 38 40  0  0  0  0  0  0  0  0999 V2000
   -4.4165    7.2633  -20.9519 C   0  0  0  0  0  0  0  0  0  0  0  0
   -4.0827    6.0902  -20.1476 N   0  0  0  0  0  0  0  0  0  0  0  0
   -5.2864    5.5555  -19.4611 C   0  0  0  0  0  0  0  0  0  0  0  0
   -5.3042    5.7002  -17.8945 C   0  0  2  0  0  0  0  0  0  0  0  0
   -5.3352    7.2072  -17.5429 C   0  0  0  0  0  0  0  0  0  0  0  0
   -4.0312    5.0439  -17.3243 C   0  0  0  0  0  0  0  0  0  0  0  0
   -3.9929    4.8398  -15.8095 C   0  0  1  0  0  0  0  0  0  0  0  0
   -2.9647    5.7584  -15.1544 C   0  0  0  0  0  0  0  0  0  0  0  0
   -5.2657    5.0355  -15.1268 N   0  0  0  0  0  0  0  0  0  0  0  0
   -6.4396    4.7429  -15.8362 C   0  0  0  0  0  0  0  0  0  0  0  0
   -7.6168    4.3456  -15.1689 C   0  0  0  0  0  0  0  0  0  0  0  0
   -7.6689    4.2708  -13.7066 C   0  0  0  0  0  0  0  0  0  0  0  0
   -7.9604    5.2816  -13.0744 O   0  0  0  0  0  0  0  0  0  0  0  0
   -7.3065    2.9648  -13.0022 C   0  0  0  0  0  0  0  0  0  0  0  0
   -7.3952    1.8956  -13.5958 O   0  0  0  0  0  0  0  0  0  0  0  0
   -6.9354    3.0488  -11.5252 C   0  0  2  0  0  0  0  0  0  0  0  0
   -8.2031    2.8987  -10.6766 C   0  0  0  0  0  0  0  0  0  0  0  0
   -7.8630    2.6453   -9.2051 C   0  0  0  0  0  0  0  0  0  0  0  0
   -9.1130    2.5831   -8.3165 C   0  0  0  0  0  0  0  0  0  0  0  0
   -8.8737    3.1345   -6.9009 C   0  0  2  0  0  0  0  0  0  0  0  0
  -10.1156    3.1282   -6.0089 C   0  0  0  0  0  0  0  0  0  0  0  0
  -10.2284    4.5113   -5.3767 C   0  0  0  0  0  0  0  0  0  0  0  0
   -8.9222    5.2650   -5.6377 C   0  0  1  0  0  0  0  0  0  0  0  0
   -7.9273    5.3434   -4.5541 N   0  0  0  0  0  0  0  0  0  0  0  0
   -7.6776    4.0823   -3.8741 C   0  0  0  0  0  0  0  0  0  0  0  0
   -8.2877    6.3557   -3.5724 C   0  0  0  0  0  0  0  0  0  0  0  0
   -9.4664    6.0631   -2.9735 F   0  0  0  0  0  0  0  0  0  0  0  0
   -8.4445    7.5584   -4.1820 F   0  0  0  0  0  0  0  0  0  0  0  0
   -8.3813    4.5897   -6.9043 C   0  0  0  0  0  0  0  0  0  0  0  0
   -6.2522    4.2961  -11.2258 N   0  0  0  0  0  0  0  0  0  0  0  0
   -4.7862    4.7182  -11.4630 C   0  0  0  0  0  0  0  0  0  0  0  0
   -4.6967    6.1730  -11.0584 C   0  0  0  0  0  0  0  0  0  0  0  0
   -3.8799    4.1063  -11.8644 O   0  0  0  0  0  0  0  0  0  0  0  0
   -8.8194    4.1756  -15.8431 C   0  0  0  0  0  0  0  0  0  0  0  0
   -8.8596    4.3987  -17.2057 C   0  0  0  0  0  0  0  0  0  0  0  0
  -10.3589    4.3003  -18.0117 Cl  0  0  0  0  0  0  0  0  0  0  0  0
   -7.7263    4.8193  -17.8972 C   0  0  0  0  0  0  0  0  0  0  0  0
   -6.5138    5.0353  -17.2200 C   0  0  0  0  0  0  0  0  0  0  0  0
  1  2  1  0
  2  3  1  0
  3  4  1  0
  4  5  1  6
  4  6  1  0
  6  7  1  0
  7  8  1  1
  7  9  1  0
  9 10  1  0
 10 11  2  0
 11 12  1  0
 12 13  2  0
 12 14  1  0
 14 15  2  0
 14 16  1  0
 16 17  1  1
 17 18  1  0
 18 19  1  0
 20 19  1  6
 20 21  1  0
 21 22  1  0
 22 23  1  0
 23 24  1  1
 24 25  1  0
 24 26  1  0
 26 27  1  0
 26 28  1  0
 23 29  1  0
 16 30  1  0
 30 31  1  0
 31 32  1  0
 31 33  2  0
 11 34  1  0
 34 35  2  0
 35 36  1  0
 35 37  1  0
 37 38  2  0
 38  4  1  0
 38 10  1  0
 29 20  1  0
M  END
>  <smiles>  (60) 
C71436-P4

>  <fragmenstein_outcome>  (60) 
acceptable

>  <inchikey>  (60) 
DQWOBHQPFYHGDY-UHFFFAOYSA-N

>  <fragmenstein_mode>  (60) 
expansion

>  <HIPPO Pose ID>  (60) 
950

>  <Energy>  (60) 
111.267718

>  <fragmenstein_error>  (60) 


>  <tags>  (60) 
{'openbind_xx01zvns2b_c1_fragmenstein', 'fragmenstein_placed'}

>  <ref_pdb>  (60) 
1

>  <scratch_subdir>  (60) 
/opt/xchem-fragalysis-2/maxwin/BulkDock/SCRATCH/511027/C71436-P4

>  <alias>  (60) 
CNC[C@]1(C)C[C@@H](C)Nc2c(C(=O)C(=O)[C@H](CCC[C@@H]3CC[C@@H](N(C)C(F)F)C3)NC(C)=O)cc(Cl)cc21

>  <HIPPO Compound ID>  (60) 
83051

>  <fragmenstein_runtime>  (60) 
16.778171

$$$$
O=c1[nH]ncn1C1CCN(Cc2c[nH]c3cc(Cl)ccc23)CC1
     RDKit          3D

 23 26  0  0  0  0  0  0  0  0999 V2000
   -5.9946    8.0925  -23.2976 O   0  0  0  0  0  0  0  0  0  0  0  0
   -4.8094    8.2089  -23.5561 C   0  0  0  0  0  0  0  0  0  0  0  0
   -4.2742    8.6711  -24.7539 N   0  0  0  0  0  0  0  0  0  0  0  0
   -2.9241    8.8540  -24.6379 N   0  0  0  0  0  0  0  0  0  0  0  0
   -2.6688    8.4531  -23.4333 C   0  0  0  0  0  0  0  0  0  0  0  0
   -3.7266    7.9902  -22.7400 N   0  0  0  0  0  0  0  0  0  0  0  0
   -3.8099    7.5732  -21.3456 C   0  0  0  0  0  0  0  0  0  0  0  0
   -4.0321    8.7512  -20.3963 C   0  0  0  0  0  0  0  0  0  0  0  0
   -4.2109    8.2385  -18.9640 C   0  0  0  0  0  0  0  0  0  0  0  0
   -3.1334    7.3473  -18.5428 N   0  0  0  0  0  0  0  0  0  0  0  0
   -3.1775    6.8971  -17.1463 C   0  0  0  0  0  0  0  0  0  0  0  0
   -4.5140    6.5657  -16.5351 C   0  0  0  0  0  0  0  0  0  0  0  0
   -4.8312    6.9014  -15.2255 C   0  0  0  0  0  0  0  0  0  0  0  0
   -6.0728    6.4230  -14.9262 N   0  0  0  0  0  0  0  0  0  0  0  0
   -6.6112    5.8025  -16.0226 C   0  0  0  0  0  0  0  0  0  0  0  0
   -7.8704    5.2119  -16.1742 C   0  0  0  0  0  0  0  0  0  0  0  0
   -8.1831    4.6865  -17.4254 C   0  0  0  0  0  0  0  0  0  0  0  0
   -9.7543    4.0818  -17.7092 Cl  0  0  0  0  0  0  0  0  0  0  0  0
   -7.2667    4.6890  -18.4602 C   0  0  0  0  0  0  0  0  0  0  0  0
   -6.0035    5.2513  -18.2755 C   0  0  0  0  0  0  0  0  0  0  0  0
   -5.6566    5.8496  -17.0450 C   0  0  0  0  0  0  0  0  0  0  0  0
   -2.7338    6.2971  -19.4676 C   0  0  0  0  0  0  0  0  0  0  0  0
   -2.5595    6.8238  -20.8856 C   0  0  0  0  0  0  0  0  0  0  0  0
  1  2  2  0
  2  3  1  0
  3  4  1  0
  4  5  2  0
  5  6  1  0
  6  7  1  0
  7  8  1  0
  8  9  1  0
  9 10  1  0
 10 11  1  0
 11 12  1  0
 12 13  2  0
 13 14  1  0
 14 15  1  0
 15 16  2  0
 16 17  1  0
 17 18  1  0
 17 19  2  0
 19 20  1  0
 20 21  2  0
 10 22  1  0
 22 23  1  0
  6  2  1  0
 23  7  1  0
 21 12  1  0
 21 15  1  0
M  END
>  <smiles>  (61) 
C71544-P5

>  <fragmenstein_outcome>  (61) 
acceptable

>  <inchikey>  (61) 
MJWCMMIILPTRFV-UHFFFAOYSA-N

>  <fragmenstein_mode>  (61) 
expansion

>  <HIPPO Pose ID>  (61) 
1036

>  <Energy>  (61) 
4.203219

>  <fragmenstein_error>  (61) 


>  <tags>  (61) 
{'openbind_xx01zvns2b_c1_fragmenstein', 'fragmenstein_placed'}

>  <ref_pdb>  (61) 
1

>  <scratch_subdir>  (61) 
/opt/xchem-fragalysis-2/maxwin/BulkDock/SCRATCH/511027/C71544-P5

>  <alias>  (61) 
O=c1[nH]ncn1C1CCN(Cc2c[nH]c3cc(Cl)ccc23)CC1

>  <HIPPO Compound ID>  (61) 
71544

>  <fragmenstein_runtime>  (61) 
1.489672

$$$$
C[C@@H]1NC2=C(CCC[C@H]2NC(=O)C2CCNCC2)[C@H]1CN1CCC(n2cn[nH]c2=O)CC1
     RDKit          3D

 32 36  0  0  0  0  0  0  0  0999 V2000
   -3.6357    5.2338  -14.2764 C   0  0  0  0  0  0  0  0  0  0  0  0
   -4.2697    6.4138  -15.0065 C   0  0  2  0  0  0  0  0  0  0  0  0
   -5.6986    6.5359  -14.6825 N   0  0  0  0  0  0  0  0  0  0  0  0
   -6.4485    6.0215  -15.7354 C   0  0  0  0  0  0  0  0  0  0  0  0
   -5.7041    5.8596  -16.8403 C   0  0  0  0  0  0  0  0  0  0  0  0
   -6.1873    5.1397  -18.0569 C   0  0  0  0  0  0  0  0  0  0  0  0
   -7.7023    4.9122  -18.0474 C   0  0  0  0  0  0  0  0  0  0  0  0
   -8.2387    4.5097  -16.6709 C   0  0  0  0  0  0  0  0  0  0  0  0
   -7.8449    5.4817  -15.5539 C   0  0  1  0  0  0  0  0  0  0  0  0
   -7.9468    4.8802  -14.2317 N   0  0  0  0  0  0  0  0  0  0  0  0
   -7.1169    3.7421  -13.5742 C   0  0  0  0  0  0  0  0  0  0  0  0
   -6.1775    3.1683  -13.9647 O   0  0  0  0  0  0  0  0  0  0  0  0
   -7.6937    3.5229  -12.1627 C   0  0  0  0  0  0  0  0  0  0  0  0
   -7.0034    2.3231  -11.4921 C   0  0  0  0  0  0  0  0  0  0  0  0
   -7.4432    2.1590  -10.0426 C   0  0  0  0  0  0  0  0  0  0  0  0
   -7.1675    3.3704   -9.2678 N   0  0  0  0  0  0  0  0  0  0  0  0
   -7.8851    4.5111   -9.8343 C   0  0  0  0  0  0  0  0  0  0  0  0
   -7.4946    4.7715  -11.2880 C   0  0  0  0  0  0  0  0  0  0  0  0
   -4.2564    6.2161  -16.5642 C   0  0  1  0  0  0  0  0  0  0  0  0
   -3.6663    7.5006  -17.1825 C   0  0  0  0  0  0  0  0  0  0  0  0
   -3.5887    7.7059  -18.6289 N   0  0  0  0  0  0  0  0  0  0  0  0
   -4.7494    8.3781  -19.1955 C   0  0  0  0  0  0  0  0  0  0  0  0
   -4.3621    9.0300  -20.5244 C   0  0  0  0  0  0  0  0  0  0  0  0
   -3.3950    8.1653  -21.3443 C   0  0  0  0  0  0  0  0  0  0  0  0
   -3.5750    8.2850  -22.7867 N   0  0  0  0  0  0  0  0  0  0  0  0
   -2.5848    8.2586  -23.7029 C   0  0  0  0  0  0  0  0  0  0  0  0
   -2.9655    8.1674  -24.9357 N   0  0  0  0  0  0  0  0  0  0  0  0
   -4.3285    8.1141  -24.8416 N   0  0  0  0  0  0  0  0  0  0  0  0
   -4.7327    8.1352  -23.5098 C   0  0  0  0  0  0  0  0  0  0  0  0
   -5.8803    8.0322  -23.1138 O   0  0  0  0  0  0  0  0  0  0  0  0
   -3.4267    6.7062  -20.8955 C   0  0  0  0  0  0  0  0  0  0  0  0
   -3.1152    6.5659  -19.4039 C   0  0  0  0  0  0  0  0  0  0  0  0
  2  1  1  1
  2  3  1  0
  3  4  1  0
  4  5  2  0
  5  6  1  0
  6  7  1  0
  7  8  1  0
  8  9  1  0
  9 10  1  1
 10 11  1  0
 11 12  2  0
 11 13  1  0
 13 14  1  0
 14 15  1  0
 15 16  1  0
 16 17  1  0
 17 18  1  0
  5 19  1  0
 19 20  1  6
 20 21  1  0
 21 22  1  0
 22 23  1  0
 23 24  1  0
 24 25  1  0
 25 26  1  0
 26 27  2  0
 27 28  1  0
 28 29  1  0
 29 30  2  0
 24 31  1  0
 31 32  1  0
 19  2  1  0
 32 21  1  0
  9  4  1  0
 18 13  1  0
 29 25  1  0
M  END
>  <smiles>  (62) 
C71552-P5

>  <fragmenstein_outcome>  (62) 
acceptable

>  <inchikey>  (62) 
NGLMYFWPSDOTRH-UHFFFAOYSA-N

>  <fragmenstein_mode>  (62) 
expansion

>  <HIPPO Pose ID>  (62) 
1041

>  <Energy>  (62) 
24.607968

>  <fragmenstein_error>  (62) 


>  <tags>  (62) 
{'openbind_xx01zvns2b_c1_fragmenstein', 'fragmenstein_placed'}

>  <ref_pdb>  (62) 
1

>  <scratch_subdir>  (62) 
/opt/xchem-fragalysis-2/maxwin/BulkDock/SCRATCH/511027/C71552-P5

>  <alias>  (62) 
C[C@@H]1NC2=C(CCC[C@H]2NC(=O)C2CCNCC2)[C@H]1CN1CCC(n2cn[nH]c2=O)CC1

>  <HIPPO Compound ID>  (62) 
71552

>  <fragmenstein_runtime>  (62) 
6.749574

$$$$
N#C[C@H](Nc1ccc2c(c1)CNC2)c1c(Cl)ccc2c(CN3CCC(n4cn[nH]c4=O)CC3)c[nH]c12
     RDKit          3D

 36 41  0  0  0  0  0  0  0  0999 V2000
   -9.8882    6.5532  -14.1411 N   0  0  0  0  0  0  0  0  0  0  0  0
   -9.1650    5.7244  -14.5208 C   0  0  0  0  0  0  0  0  0  0  0  0
   -8.2905    4.6145  -14.9411 C   0  0  2  0  0  0  0  0  0  0  0  0
   -7.3065    4.1296  -13.9192 N   0  0  0  0  0  0  0  0  0  0  0  0
   -7.5337    4.2094  -12.5410 C   0  0  0  0  0  0  0  0  0  0  0  0
   -7.4874    3.0314  -11.7675 C   0  0  0  0  0  0  0  0  0  0  0  0
   -7.6325    3.0519  -10.3757 C   0  0  0  0  0  0  0  0  0  0  0  0
   -7.7960    4.2709   -9.7555 C   0  0  0  0  0  0  0  0  0  0  0  0
   -7.8233    5.4457  -10.4925 C   0  0  0  0  0  0  0  0  0  0  0  0
   -7.6974    5.4330  -11.8746 C   0  0  0  0  0  0  0  0  0  0  0  0
   -8.0100    6.5972   -9.5644 C   0  0  0  0  0  0  0  0  0  0  0  0
   -7.7688    6.0547   -8.1993 N   0  0  0  0  0  0  0  0  0  0  0  0
   -7.9753    4.5826   -8.3110 C   0  0  0  0  0  0  0  0  0  0  0  0
   -7.5033    4.9823  -16.1808 C   0  0  0  0  0  0  0  0  0  0  0  0
   -7.9233    4.6464  -17.4820 C   0  0  0  0  0  0  0  0  0  0  0  0
   -9.4857    3.9925  -17.7912 Cl  0  0  0  0  0  0  0  0  0  0  0  0
   -7.0909    4.8365  -18.5773 C   0  0  0  0  0  0  0  0  0  0  0  0
   -5.8411    5.4396  -18.4315 C   0  0  0  0  0  0  0  0  0  0  0  0
   -5.4329    5.9114  -17.1692 C   0  0  0  0  0  0  0  0  0  0  0  0
   -4.2681    6.5902  -16.6627 C   0  0  0  0  0  0  0  0  0  0  0  0
   -3.0166    6.9826  -17.3823 C   0  0  0  0  0  0  0  0  0  0  0  0
   -3.2829    7.2227  -18.7911 N   0  0  0  0  0  0  0  0  0  0  0  0
   -3.9047    8.5151  -19.0795 C   0  0  0  0  0  0  0  0  0  0  0  0
   -3.8282    8.8788  -20.5692 C   0  0  0  0  0  0  0  0  0  0  0  0
   -3.8850    7.6248  -21.4473 C   0  0  0  0  0  0  0  0  0  0  0  0
   -3.8204    7.9588  -22.8653 N   0  0  0  0  0  0  0  0  0  0  0  0
   -2.7587    8.3666  -23.5878 C   0  0  0  0  0  0  0  0  0  0  0  0
   -3.0186    8.7408  -24.7991 N   0  0  0  0  0  0  0  0  0  0  0  0
   -4.3766    8.5999  -24.8887 N   0  0  0  0  0  0  0  0  0  0  0  0
   -4.9082    8.1991  -23.6668 C   0  0  0  0  0  0  0  0  0  0  0  0
   -6.0915    8.1517  -23.3795 O   0  0  0  0  0  0  0  0  0  0  0  0
   -2.7945    6.6117  -21.0440 C   0  0  0  0  0  0  0  0  0  0  0  0
   -2.1881    6.8908  -19.6727 C   0  0  0  0  0  0  0  0  0  0  0  0
   -4.4633    6.7584  -15.3047 C   0  0  0  0  0  0  0  0  0  0  0  0
   -5.6421    6.1670  -14.9692 N   0  0  0  0  0  0  0  0  0  0  0  0
   -6.2745    5.6735  -16.0893 C   0  0  0  0  0  0  0  0  0  0  0  0
  1  2  3  0
  3  2  1  1
  3  4  1  0
  4  5  1  0
  5  6  2  0
  6  7  1  0
  7  8  2  0
  8  9  1  0
  9 10  2  0
  9 11  1  0
 11 12  1  0
 12 13  1  0
  3 14  1  0
 14 15  2  0
 15 16  1  0
 15 17  1  0
 17 18  2  0
 18 19  1  0
 19 20  1  0
 20 21  1  0
 21 22  1  0
 22 23  1  0
 23 24  1  0
 24 25  1  0
 25 26  1  0
 26 27  1  0
 27 28  2  0
 28 29  1  0
 29 30  1  0
 30 31  2  0
 25 32  1  0
 32 33  1  0
 20 34  2  0
 34 35  1  0
 35 36  1  0
 10  5  1  0
 36 14  1  0
 13  8  1  0
 36 19  2  0
 33 22  1  0
 30 26  1  0
M  END
>  <smiles>  (63) 
C71577-P5

>  <fragmenstein_outcome>  (63) 
acceptable

>  <inchikey>  (63) 
XHSQPKJRDFEDGC-UHFFFAOYSA-N

>  <fragmenstein_mode>  (63) 
expansion

>  <HIPPO Pose ID>  (63) 
1063

>  <Energy>  (63) 
59.674881

>  <fragmenstein_error>  (63) 


>  <tags>  (63) 
{'openbind_xx01zvns2b_c1_fragmenstein', 'fragmenstein_placed'}

>  <ref_pdb>  (63) 
1

>  <scratch_subdir>  (63) 
/opt/xchem-fragalysis-2/maxwin/BulkDock/SCRATCH/511027/C71577-P5

>  <alias>  (63) 
N#C[C@H](Nc1ccc2c(c1)CNC2)c1c(Cl)ccc2c(CN3CCC(n4cn[nH]c4=O)CC3)c[nH]c12

>  <HIPPO Compound ID>  (63) 
71577

>  <fragmenstein_runtime>  (63) 
6.624011

$$$$
O=C(Nc1ccc2c(c1)CNC2)c1c(Br)ccc2c(CN3CCC(n4cn[nH]c4=O)CC3)c[nH]c12
     RDKit          3D

 35 40  0  0  0  0  0  0  0  0999 V2000
   -9.2452    6.2669  -14.7432 O   0  0  0  0  0  0  0  0  0  0  0  0
   -8.3954    5.4684  -14.7736 C   0  0  0  0  0  0  0  0  0  0  0  0
   -7.7938    4.6000  -13.6419 N   0  0  0  0  0  0  0  0  0  0  0  0
   -8.0395    4.6039  -12.2727 C   0  0  0  0  0  0  0  0  0  0  0  0
   -8.3229    5.8373  -11.6571 C   0  0  0  0  0  0  0  0  0  0  0  0
   -8.3329    5.9596  -10.2646 C   0  0  0  0  0  0  0  0  0  0  0  0
   -8.1185    4.8223   -9.5092 C   0  0  0  0  0  0  0  0  0  0  0  0
   -7.8999    3.5905  -10.1159 C   0  0  0  0  0  0  0  0  0  0  0  0
   -7.8145    3.4671  -11.4975 C   0  0  0  0  0  0  0  0  0  0  0  0
   -7.8452    2.5326   -9.0628 C   0  0  0  0  0  0  0  0  0  0  0  0
   -7.7837    3.2467   -7.7642 N   0  0  0  0  0  0  0  0  0  0  0  0
   -8.1189    4.6583   -8.0274 C   0  0  0  0  0  0  0  0  0  0  0  0
   -7.6340    5.2349  -16.0306 C   0  0  0  0  0  0  0  0  0  0  0  0
   -8.0732    4.7493  -17.2605 C   0  0  0  0  0  0  0  0  0  0  0  0
   -9.8387    4.2123  -17.6072 Br  0  0  0  0  0  0  0  0  0  0  0  0
   -7.1976    4.6936  -18.3453 C   0  0  0  0  0  0  0  0  0  0  0  0
   -5.8882    5.1796  -18.2534 C   0  0  0  0  0  0  0  0  0  0  0  0
   -5.4452    5.7853  -17.0628 C   0  0  0  0  0  0  0  0  0  0  0  0
   -4.2645    6.4974  -16.6450 C   0  0  0  0  0  0  0  0  0  0  0  0
   -2.9902    6.8260  -17.3646 C   0  0  0  0  0  0  0  0  0  0  0  0
   -3.1052    7.3375  -18.7292 N   0  0  0  0  0  0  0  0  0  0  0  0
   -4.2154    8.2344  -19.0239 C   0  0  0  0  0  0  0  0  0  0  0  0
   -3.9944    9.0050  -20.3356 C   0  0  0  0  0  0  0  0  0  0  0  0
   -3.2092    8.1950  -21.3726 C   0  0  0  0  0  0  0  0  0  0  0  0
   -3.5229    8.5062  -22.7622 N   0  0  0  0  0  0  0  0  0  0  0  0
   -2.6197    8.5320  -23.7659 C   0  0  0  0  0  0  0  0  0  0  0  0
   -3.1108    8.5340  -24.9623 N   0  0  0  0  0  0  0  0  0  0  0  0
   -4.4602    8.4901  -24.7493 N   0  0  0  0  0  0  0  0  0  0  0  0
   -4.7409    8.4019  -23.3887 C   0  0  0  0  0  0  0  0  0  0  0  0
   -5.8440    8.2313  -22.9007 O   0  0  0  0  0  0  0  0  0  0  0  0
   -3.3364    6.7008  -21.1159 C   0  0  0  0  0  0  0  0  0  0  0  0
   -2.8072    6.3335  -19.7381 C   0  0  0  0  0  0  0  0  0  0  0  0
   -4.4785    6.8677  -15.3273 C   0  0  0  0  0  0  0  0  0  0  0  0
   -5.7069    6.4345  -14.9425 N   0  0  0  0  0  0  0  0  0  0  0  0
   -6.3283    5.7790  -15.9840 C   0  0  0  0  0  0  0  0  0  0  0  0
  1  2  2  0
  2  3  1  0
  3  4  1  0
  4  5  2  0
  5  6  1  0
  6  7  2  0
  7  8  1  0
  8  9  2  0
  8 10  1  0
 10 11  1  0
 11 12  1  0
  2 13  1  0
 13 14  2  0
 14 15  1  0
 14 16  1  0
 16 17  2  0
 17 18  1  0
 18 19  1  0
 19 20  1  0
 20 21  1  0
 21 22  1  0
 22 23  1  0
 23 24  1  0
 24 25  1  0
 25 26  1  0
 26 27  2  0
 27 28  1  0
 28 29  1  0
 29 30  2  0
 24 31  1  0
 31 32  1  0
 19 33  2  0
 33 34  1  0
 34 35  1  0
  9  4  1  0
 35 13  1  0
 12  7  1  0
 35 18  2  0
 32 21  1  0
 29 25  1  0
M  END
>  <smiles>  (64) 
C71579-P5

>  <fragmenstein_outcome>  (64) 
acceptable

>  <inchikey>  (64) 
QVDLTIYGSKTUGE-UHFFFAOYSA-N

>  <fragmenstein_mode>  (64) 
expansion

>  <HIPPO Pose ID>  (64) 
1064

>  <Energy>  (64) 
55.763589

>  <fragmenstein_error>  (64) 


>  <tags>  (64) 
{'openbind_xx01zvns2b_c1_fragmenstein', 'fragmenstein_placed'}

>  <ref_pdb>  (64) 
1

>  <scratch_subdir>  (64) 
/opt/xchem-fragalysis-2/maxwin/BulkDock/SCRATCH/511027/C71579-P5

>  <alias>  (64) 
O=C(Nc1ccc2c(c1)CNC2)c1c(Br)ccc2c(CN3CCC(n4cn[nH]c4=O)CC3)c[nH]c12

>  <HIPPO Compound ID>  (64) 
87600

>  <fragmenstein_runtime>  (64) 
8.1246

$$$$
O=C(Nc1ccc2c(c1)CNCCO2)c1c(Cl)ccc2c(CN3CCC(n4cn[nH]c4=O)CC3)c[nH]c12
     RDKit          3D

 37 42  0  0  0  0  0  0  0  0999 V2000
   -9.2150    6.3186  -14.5692 O   0  0  0  0  0  0  0  0  0  0  0  0
   -8.4200    5.4627  -14.5691 C   0  0  0  0  0  0  0  0  0  0  0  0
   -7.8940    4.5792  -13.4066 N   0  0  0  0  0  0  0  0  0  0  0  0
   -8.1596    4.6309  -12.0371 C   0  0  0  0  0  0  0  0  0  0  0  0
   -8.3307    5.8869  -11.4570 C   0  0  0  0  0  0  0  0  0  0  0  0
   -8.3772    6.0246  -10.0701 C   0  0  0  0  0  0  0  0  0  0  0  0
   -8.3280    4.9056   -9.2423 C   0  0  0  0  0  0  0  0  0  0  0  0
   -8.2850    3.6229   -9.8061 C   0  0  0  0  0  0  0  0  0  0  0  0
   -8.1094    3.5056  -11.2133 C   0  0  0  0  0  0  0  0  0  0  0  0
   -8.4607    2.3512   -9.0062 C   0  0  0  0  0  0  0  0  0  0  0  0
   -9.1940    2.4751   -7.7478 N   0  0  0  0  0  0  0  0  0  0  0  0
   -8.4056    3.0902   -6.6846 C   0  0  0  0  0  0  0  0  0  0  0  0
   -7.5856    4.3062   -7.1150 C   0  0  0  0  0  0  0  0  0  0  0  0
   -8.3641    5.2071   -7.9042 O   0  0  0  0  0  0  0  0  0  0  0  0
   -7.6786    5.1803  -15.8291 C   0  0  0  0  0  0  0  0  0  0  0  0
   -8.1601    4.6866  -17.0427 C   0  0  0  0  0  0  0  0  0  0  0  0
   -9.7712    4.1725  -17.2883 Cl  0  0  0  0  0  0  0  0  0  0  0  0
   -7.3283    4.6300  -18.1614 C   0  0  0  0  0  0  0  0  0  0  0  0
   -6.0128    5.1039  -18.1169 C   0  0  0  0  0  0  0  0  0  0  0  0
   -5.5223    5.7087  -16.9446 C   0  0  0  0  0  0  0  0  0  0  0  0
   -4.3119    6.3944  -16.5688 C   0  0  0  0  0  0  0  0  0  0  0  0
   -3.0278    6.6441  -17.3056 C   0  0  0  0  0  0  0  0  0  0  0  0
   -3.0945    7.1625  -18.6735 N   0  0  0  0  0  0  0  0  0  0  0  0
   -4.1851    8.0858  -18.9803 C   0  0  0  0  0  0  0  0  0  0  0  0
   -4.0580    8.6995  -20.3821 C   0  0  0  0  0  0  0  0  0  0  0  0
   -3.8620    7.5937  -21.4208 C   0  0  0  0  0  0  0  0  0  0  0  0
   -3.7894    8.0981  -22.7843 N   0  0  0  0  0  0  0  0  0  0  0  0
   -2.7343    8.5872  -23.4632 C   0  0  0  0  0  0  0  0  0  0  0  0
   -2.9910    9.0088  -24.6603 N   0  0  0  0  0  0  0  0  0  0  0  0
   -4.3384    8.8093  -24.7853 N   0  0  0  0  0  0  0  0  0  0  0  0
   -4.8703    8.3040  -23.6040 C   0  0  0  0  0  0  0  0  0  0  0  0
   -6.0520    8.1341  -23.3602 O   0  0  0  0  0  0  0  0  0  0  0  0
   -2.6141    6.7998  -21.0407 C   0  0  0  0  0  0  0  0  0  0  0  0
   -2.8004    6.1531  -19.6783 C   0  0  0  0  0  0  0  0  0  0  0  0
   -4.4919    6.8027  -15.2567 C   0  0  0  0  0  0  0  0  0  0  0  0
   -5.7156    6.3951  -14.8283 N   0  0  0  0  0  0  0  0  0  0  0  0
   -6.3709    5.7214  -15.8357 C   0  0  0  0  0  0  0  0  0  0  0  0
  1  2  2  0
  2  3  1  0
  3  4  1  0
  4  5  2  0
  5  6  1  0
  6  7  2  0
  7  8  1  0
  8  9  2  0
  8 10  1  0
 10 11  1  0
 11 12  1  0
 12 13  1  0
 13 14  1  0
  2 15  1  0
 15 16  2  0
 16 17  1  0
 16 18  1  0
 18 19  2  0
 19 20  1  0
 20 21  1  0
 21 22  1  0
 22 23  1  0
 23 24  1  0
 24 25  1  0
 25 26  1  0
 26 27  1  0
 27 28  1  0
 28 29  2  0
 29 30  1  0
 30 31  1  0
 31 32  2  0
 26 33  1  0
 33 34  1  0
 21 35  2  0
 35 36  1  0
 36 37  1  0
  9  4  1  0
 37 15  1  0
 14  7  1  0
 37 20  2  0
 34 23  1  0
 31 27  1  0
M  END
>  <smiles>  (65) 
C71581-P5

>  <fragmenstein_outcome>  (65) 
acceptable

>  <inchikey>  (65) 
SEBCWSNNZQHSSU-UHFFFAOYSA-N

>  <fragmenstein_mode>  (65) 
expansion

>  <HIPPO Pose ID>  (65) 
1066

>  <Energy>  (65) 
75.777207

>  <fragmenstein_error>  (65) 


>  <tags>  (65) 
{'openbind_xx01zvns2b_c1_fragmenstein', 'fragmenstein_placed'}

>  <ref_pdb>  (65) 
1

>  <scratch_subdir>  (65) 
/opt/xchem-fragalysis-2/maxwin/BulkDock/SCRATCH/511027/C71581-P5

>  <alias>  (65) 
O=C(Nc1ccc2c(c1)CNCCO2)c1c(Cl)ccc2c(CN3CCC(n4cn[nH]c4=O)CC3)c[nH]c12

>  <HIPPO Compound ID>  (65) 
72444

>  <fragmenstein_runtime>  (65) 
7.912774

$$$$
O=C(Nc1ccc2c(c1)CNC2)c1c(F)ccc2c(CN3CCC(n4cn[nH]c4=O)CC3)c[nH]c12
     RDKit          3D

 35 40  0  0  0  0  0  0  0  0999 V2000
   -9.4302    6.2011  -14.4047 O   0  0  0  0  0  0  0  0  0  0  0  0
   -8.5758    5.4160  -14.5224 C   0  0  0  0  0  0  0  0  0  0  0  0
   -7.8930    4.5139  -13.4704 N   0  0  0  0  0  0  0  0  0  0  0  0
   -8.0475    4.4606  -12.0913 C   0  0  0  0  0  0  0  0  0  0  0  0
   -7.7303    3.2841  -11.4020 C   0  0  0  0  0  0  0  0  0  0  0  0
   -7.6596    3.2744  -10.0058 C   0  0  0  0  0  0  0  0  0  0  0  0
   -7.8490    4.4658   -9.3315 C   0  0  0  0  0  0  0  0  0  0  0  0
   -8.1565    5.6375  -10.0133 C   0  0  0  0  0  0  0  0  0  0  0  0
   -8.2902    5.6485  -11.3927 C   0  0  0  0  0  0  0  0  0  0  0  0
   -8.2256    6.7643   -9.0412 C   0  0  0  0  0  0  0  0  0  0  0  0
   -8.2121    6.1433   -7.6883 N   0  0  0  0  0  0  0  0  0  0  0  0
   -7.7131    4.7520   -7.8764 C   0  0  0  0  0  0  0  0  0  0  0  0
   -7.8905    5.2318  -15.8218 C   0  0  0  0  0  0  0  0  0  0  0  0
   -8.3853    4.6302  -16.9694 C   0  0  0  0  0  0  0  0  0  0  0  0
   -9.5984    4.0660  -16.9996 F   0  0  0  0  0  0  0  0  0  0  0  0
   -7.6112    4.5986  -18.1257 C   0  0  0  0  0  0  0  0  0  0  0  0
   -6.3167    5.1534  -18.1564 C   0  0  0  0  0  0  0  0  0  0  0  0
   -5.7914    5.7953  -17.0125 C   0  0  0  0  0  0  0  0  0  0  0  0
   -4.5676    6.4779  -16.6627 C   0  0  0  0  0  0  0  0  0  0  0  0
   -3.2831    6.6847  -17.4095 C   0  0  0  0  0  0  0  0  0  0  0  0
   -3.3714    7.2374  -18.7578 N   0  0  0  0  0  0  0  0  0  0  0  0
   -4.4333    8.1986  -19.0261 C   0  0  0  0  0  0  0  0  0  0  0  0
   -4.1604    8.9941  -20.3153 C   0  0  0  0  0  0  0  0  0  0  0  0
   -3.3698    8.1838  -21.3480 C   0  0  0  0  0  0  0  0  0  0  0  0
   -3.6001    8.5637  -22.7364 N   0  0  0  0  0  0  0  0  0  0  0  0
   -2.6471    8.5912  -23.6932 C   0  0  0  0  0  0  0  0  0  0  0  0
   -3.0775    8.6380  -24.9120 N   0  0  0  0  0  0  0  0  0  0  0  0
   -4.4369    8.6237  -24.7675 N   0  0  0  0  0  0  0  0  0  0  0  0
   -4.7870    8.5015  -23.4258 C   0  0  0  0  0  0  0  0  0  0  0  0
   -5.9152    8.3305  -22.9981 O   0  0  0  0  0  0  0  0  0  0  0  0
   -3.6140    6.6959  -21.1605 C   0  0  0  0  0  0  0  0  0  0  0  0
   -3.1668    6.2280  -19.7860 C   0  0  0  0  0  0  0  0  0  0  0  0
   -4.7276    6.9259  -15.3607 C   0  0  0  0  0  0  0  0  0  0  0  0
   -5.9476    6.5383  -14.9079 N   0  0  0  0  0  0  0  0  0  0  0  0
   -6.6103    5.8269  -15.8830 C   0  0  0  0  0  0  0  0  0  0  0  0
  1  2  2  0
  2  3  1  0
  3  4  1  0
  4  5  2  0
  5  6  1  0
  6  7  2  0
  7  8  1  0
  8  9  2  0
  8 10  1  0
 10 11  1  0
 11 12  1  0
  2 13  1  0
 13 14  2  0
 14 15  1  0
 14 16  1  0
 16 17  2  0
 17 18  1  0
 18 19  1  0
 19 20  1  0
 20 21  1  0
 21 22  1  0
 22 23  1  0
 23 24  1  0
 24 25  1  0
 25 26  1  0
 26 27  2  0
 27 28  1  0
 28 29  1  0
 29 30  2  0
 24 31  1  0
 31 32  1  0
 19 33  2  0
 33 34  1  0
 34 35  1  0
  9  4  1  0
 35 13  1  0
 12  7  1  0
 35 18  2  0
 32 21  1  0
 29 25  1  0
M  END
>  <smiles>  (66) 
C71582-P5

>  <fragmenstein_outcome>  (66) 
acceptable

>  <inchikey>  (66) 
ZOZKLPQFARZXSU-UHFFFAOYSA-N

>  <fragmenstein_mode>  (66) 
expansion

>  <HIPPO Pose ID>  (66) 
1067

>  <Energy>  (66) 
49.906204

>  <fragmenstein_error>  (66) 


>  <tags>  (66) 
{'openbind_xx01zvns2b_c1_fragmenstein', 'fragmenstein_placed'}

>  <ref_pdb>  (66) 
1

>  <scratch_subdir>  (66) 
/opt/xchem-fragalysis-2/maxwin/BulkDock/SCRATCH/511027/C71582-P5

>  <alias>  (66) 
O=C(Nc1ccc2c(c1)CNC2)c1c(F)ccc2c(CN3CCC(n4cn[nH]c4=O)CC3)c[nH]c12

>  <HIPPO Compound ID>  (66) 
71582

>  <fragmenstein_runtime>  (66) 
5.138541

$$$$
N#Cc1cc2c(CN3CCC(n4cn[nH]c4=O)CC3)c[nH]c2c(C(=O)Nc2ccc3c(c2)CNC3)c1Cl
     RDKit          3D

 37 42  0  0  0  0  0  0  0  0999 V2000
   -7.4489    3.6071  -20.4352 N   0  0  0  0  0  0  0  0  0  0  0  0
   -7.3995    4.1219  -19.3979 C   0  0  0  0  0  0  0  0  0  0  0  0
   -7.1122    4.7179  -18.1338 C   0  0  0  0  0  0  0  0  0  0  0  0
   -5.8312    5.2843  -18.0324 C   0  0  0  0  0  0  0  0  0  0  0  0
   -5.4223    5.9125  -16.8514 C   0  0  0  0  0  0  0  0  0  0  0  0
   -4.2712    6.6693  -16.4496 C   0  0  0  0  0  0  0  0  0  0  0  0
   -3.0129    7.0360  -17.1852 C   0  0  0  0  0  0  0  0  0  0  0  0
   -3.1459    7.4370  -18.5826 N   0  0  0  0  0  0  0  0  0  0  0  0
   -4.2491    8.3120  -18.9468 C   0  0  0  0  0  0  0  0  0  0  0  0
   -4.0007    9.0183  -20.2892 C   0  0  0  0  0  0  0  0  0  0  0  0
   -3.2099    8.1576  -21.2823 C   0  0  0  0  0  0  0  0  0  0  0  0
   -3.5220    8.3973  -22.6869 N   0  0  0  0  0  0  0  0  0  0  0  0
   -2.6213    8.3780  -23.6930 C   0  0  0  0  0  0  0  0  0  0  0  0
   -3.1150    8.3498  -24.8878 N   0  0  0  0  0  0  0  0  0  0  0  0
   -4.4646    8.3341  -24.6706 N   0  0  0  0  0  0  0  0  0  0  0  0
   -4.7438    8.3030  -23.3073 C   0  0  0  0  0  0  0  0  0  0  0  0
   -5.8499    8.1944  -22.8087 O   0  0  0  0  0  0  0  0  0  0  0  0
   -3.3152    6.6765  -20.9401 C   0  0  0  0  0  0  0  0  0  0  0  0
   -2.7822    6.4048  -19.5386 C   0  0  0  0  0  0  0  0  0  0  0  0
   -4.4982    7.0314  -15.1321 C   0  0  0  0  0  0  0  0  0  0  0  0
   -5.7060    6.5430  -14.7367 N   0  0  0  0  0  0  0  0  0  0  0  0
   -6.3022    5.8591  -15.7744 C   0  0  0  0  0  0  0  0  0  0  0  0
   -7.5773    5.2444  -15.8231 C   0  0  0  0  0  0  0  0  0  0  0  0
   -8.3497    5.4412  -14.5672 C   0  0  0  0  0  0  0  0  0  0  0  0
   -9.1683    6.2734  -14.5350 O   0  0  0  0  0  0  0  0  0  0  0  0
   -7.8184    4.5103  -13.4463 N   0  0  0  0  0  0  0  0  0  0  0  0
   -8.1077    4.4792  -12.0815 C   0  0  0  0  0  0  0  0  0  0  0  0
   -8.3260    5.7132  -11.4399 C   0  0  0  0  0  0  0  0  0  0  0  0
   -8.3768    5.8079  -10.0470 C   0  0  0  0  0  0  0  0  0  0  0  0
   -8.2887    4.6430   -9.3152 C   0  0  0  0  0  0  0  0  0  0  0  0
   -8.1356    3.4086   -9.9410 C   0  0  0  0  0  0  0  0  0  0  0  0
   -7.9897    3.3118  -11.3231 C   0  0  0  0  0  0  0  0  0  0  0  0
   -8.1367    2.3419   -8.8919 C   0  0  0  0  0  0  0  0  0  0  0  0
   -8.5273    3.0170   -7.6236 N   0  0  0  0  0  0  0  0  0  0  0  0
   -8.3074    4.4573   -7.8372 C   0  0  0  0  0  0  0  0  0  0  0  0
   -8.0006    4.7233  -17.0520 C   0  0  0  0  0  0  0  0  0  0  0  0
   -9.5949    4.1235  -17.2719 Cl  0  0  0  0  0  0  0  0  0  0  0  0
  1  2  3  0
  2  3  1  0
  3  4  2  0
  4  5  1  0
  5  6  1  0
  6  7  1  0
  7  8  1  0
  8  9  1  0
  9 10  1  0
 10 11  1  0
 11 12  1  0
 12 13  1  0
 13 14  2  0
 14 15  1  0
 15 16  1  0
 16 17  2  0
 11 18  1  0
 18 19  1  0
  6 20  2  0
 20 21  1  0
 21 22  1  0
 22 23  1  0
 23 24  1  0
 24 25  2  0
 24 26  1  0
 26 27  1  0
 27 28  2  0
 28 29  1  0
 29 30  2  0
 30 31  1  0
 31 32  2  0
 31 33  1  0
 33 34  1  0
 34 35  1  0
 23 36  2  0
 36 37  1  0
 36  3  1  0
 22  5  2  0
 32 27  1  0
 19  8  1  0
 35 30  1  0
 16 12  1  0
M  END
>  <smiles>  (67) 
C71590-P5

>  <fragmenstein_outcome>  (67) 
acceptable

>  <inchikey>  (67) 
PZAVCOUCRVRWBJ-UHFFFAOYSA-N

>  <fragmenstein_mode>  (67) 
expansion

>  <HIPPO Pose ID>  (67) 
1075

>  <Energy>  (67) 
54.585346

>  <fragmenstein_error>  (67) 


>  <tags>  (67) 
{'openbind_xx01zvns2b_c1_fragmenstein', 'fragmenstein_placed'}

>  <ref_pdb>  (67) 
1

>  <scratch_subdir>  (67) 
/opt/xchem-fragalysis-2/maxwin/BulkDock/SCRATCH/511027/C71590-P5

>  <alias>  (67) 
N#Cc1cc2c(CN3CCC(n4cn[nH]c4=O)CC3)c[nH]c2c(C(=O)Nc2ccc3c(c2)CNC3)c1Cl

>  <HIPPO Compound ID>  (67) 
71590

>  <fragmenstein_runtime>  (67) 
10.230373

$$$$
O=C(Nc1ccc2c(c1)CNC2)c1c(Cl)ccc2c(CN3CCC(n4cn[nH]c4=O)CC3)c[nH]c12
     RDKit          3D

 35 40  0  0  0  0  0  0  0  0999 V2000
   -7.3568    3.0188  -14.3486 O   0  0  0  0  0  0  0  0  0  0  0  0
   -7.5057    4.1707  -14.4190 C   0  0  0  0  0  0  0  0  0  0  0  0
   -7.8794    5.1985  -13.3315 N   0  0  0  0  0  0  0  0  0  0  0  0
   -8.0491    5.0405  -11.9560 C   0  0  0  0  0  0  0  0  0  0  0  0
   -8.0960    6.1918  -11.1548 C   0  0  0  0  0  0  0  0  0  0  0  0
   -8.1311    6.0879   -9.7608 C   0  0  0  0  0  0  0  0  0  0  0  0
   -8.1256    4.8267   -9.1927 C   0  0  0  0  0  0  0  0  0  0  0  0
   -8.1120    3.6839   -9.9816 C   0  0  0  0  0  0  0  0  0  0  0  0
   -8.0757    3.7697  -11.3668 C   0  0  0  0  0  0  0  0  0  0  0  0
   -8.1613    2.4796   -9.1003 C   0  0  0  0  0  0  0  0  0  0  0  0
   -7.9914    2.9799   -7.7097 N   0  0  0  0  0  0  0  0  0  0  0  0
   -8.1665    4.4431   -7.7530 C   0  0  0  0  0  0  0  0  0  0  0  0
   -7.2124    4.8434  -15.7123 C   0  0  0  0  0  0  0  0  0  0  0  0
   -7.8676    4.6315  -16.9272 C   0  0  0  0  0  0  0  0  0  0  0  0
   -9.4198    3.9294  -17.0581 Cl  0  0  0  0  0  0  0  0  0  0  0  0
   -7.2970    5.0666  -18.1169 C   0  0  0  0  0  0  0  0  0  0  0  0
   -6.0795    5.7511  -18.1225 C   0  0  0  0  0  0  0  0  0  0  0  0
   -5.4287    6.0702  -16.9124 C   0  0  0  0  0  0  0  0  0  0  0  0
   -4.2143    6.7473  -16.5285 C   0  0  0  0  0  0  0  0  0  0  0  0
   -3.0851    7.3861  -17.2855 C   0  0  0  0  0  0  0  0  0  0  0  0
   -3.2437    7.6507  -18.7039 N   0  0  0  0  0  0  0  0  0  0  0  0
   -4.2828    8.5882  -19.0858 C   0  0  0  0  0  0  0  0  0  0  0  0
   -4.0400    9.1565  -20.4902 C   0  0  0  0  0  0  0  0  0  0  0  0
   -3.2805    8.1895  -21.4056 C   0  0  0  0  0  0  0  0  0  0  0  0
   -3.5507    8.3789  -22.8245 N   0  0  0  0  0  0  0  0  0  0  0  0
   -2.6282    8.3312  -23.8082 C   0  0  0  0  0  0  0  0  0  0  0  0
   -3.0979    8.2921  -25.0125 N   0  0  0  0  0  0  0  0  0  0  0  0
   -4.4525    8.2997  -24.8244 N   0  0  0  0  0  0  0  0  0  0  0  0
   -4.7611    8.2966  -23.4673 C   0  0  0  0  0  0  0  0  0  0  0  0
   -5.8790    8.2145  -22.9892 O   0  0  0  0  0  0  0  0  0  0  0  0
   -3.5033    6.7416  -20.9897 C   0  0  0  0  0  0  0  0  0  0  0  0
   -3.0207    6.5018  -19.5645 C   0  0  0  0  0  0  0  0  0  0  0  0
   -4.1665    6.6900  -15.1426 C   0  0  0  0  0  0  0  0  0  0  0  0
   -5.2160    5.9599  -14.6884 N   0  0  0  0  0  0  0  0  0  0  0  0
   -6.0287    5.6058  -15.7377 C   0  0  0  0  0  0  0  0  0  0  0  0
  1  2  2  0
  2  3  1  0
  3  4  1  0
  4  5  2  0
  5  6  1  0
  6  7  2  0
  7  8  1  0
  8  9  2  0
  8 10  1  0
 10 11  1  0
 11 12  1  0
  2 13  1  0
 13 14  2  0
 14 15  1  0
 14 16  1  0
 16 17  2  0
 17 18  1  0
 18 19  1  0
 19 20  1  0
 20 21  1  0
 21 22  1  0
 22 23  1  0
 23 24  1  0
 24 25  1  0
 25 26  1  0
 26 27  2  0
 27 28  1  0
 28 29  1  0
 29 30  2  0
 24 31  1  0
 31 32  1  0
 19 33  2  0
 33 34  1  0
 34 35  1  0
  9  4  1  0
 35 13  1  0
 12  7  1  0
 35 18  2  0
 32 21  1  0
 29 25  1  0
M  END
>  <smiles>  (68) 
C71598-P5

>  <fragmenstein_outcome>  (68) 
acceptable

>  <inchikey>  (68) 
LCCBXCQGOUPYFJ-UHFFFAOYSA-N

>  <fragmenstein_mode>  (68) 
expansion

>  <HIPPO Pose ID>  (68) 
1083

>  <Energy>  (68) 
49.414513

>  <fragmenstein_error>  (68) 


>  <tags>  (68) 
{'openbind_xx01zvns2b_c1_fragmenstein', 'fragmenstein_placed'}

>  <ref_pdb>  (68) 
1

>  <scratch_subdir>  (68) 
/opt/xchem-fragalysis-2/maxwin/BulkDock/SCRATCH/511027/C71598-P5

>  <alias>  (68) 
O=C(Nc1ccc2c(c1)CNC2)c1c(Cl)ccc2c(CN3CCC(n4cn[nH]c4=O)CC3)c[nH]c12

>  <HIPPO Compound ID>  (68) 
75046

>  <fragmenstein_runtime>  (68) 
8.669112

$$$$
CC(C)CNC(=O)[C@H](Nc1ccc2c(c1)CNC2)c1c(Cl)ccc2c(CN3CCC(C4=CN=NC4=O)CC3)c[nH]c12
     RDKit          3D

 41 46  0  0  0  0  0  0  0  0999 V2000
   -2.0634    1.6224  -11.8915 C   0  0  0  0  0  0  0  0  0  0  0  0
   -3.3204    2.4854  -12.0008 C   0  0  0  0  0  0  0  0  0  0  0  0
   -4.3568    2.0335  -10.9681 C   0  0  0  0  0  0  0  0  0  0  0  0
   -3.8701    2.4361  -13.4325 C   0  0  0  0  0  0  0  0  0  0  0  0
   -4.9769    3.3349  -13.6122 N   0  0  0  0  0  0  0  0  0  0  0  0
   -6.5100    3.0452  -13.7407 C   0  0  0  0  0  0  0  0  0  0  0  0
   -7.1025    2.0396  -13.6420 O   0  0  0  0  0  0  0  0  0  0  0  0
   -7.2203    4.4536  -13.9379 C   0  0  2  0  0  0  0  0  0  0  0  0
   -8.5974    4.4814  -13.3969 N   0  0  0  0  0  0  0  0  0  0  0  0
   -8.5259    4.5417  -11.9667 C   0  0  0  0  0  0  0  0  0  0  0  0
   -8.5460    3.3667  -11.1894 C   0  0  0  0  0  0  0  0  0  0  0  0
   -8.3453    3.4014   -9.8059 C   0  0  0  0  0  0  0  0  0  0  0  0
   -8.1388    4.6293   -9.2089 C   0  0  0  0  0  0  0  0  0  0  0  0
   -8.1235    5.7997   -9.9604 C   0  0  0  0  0  0  0  0  0  0  0  0
   -8.2967    5.7748  -11.3361 C   0  0  0  0  0  0  0  0  0  0  0  0
   -7.8656    6.9562   -9.0577 C   0  0  0  0  0  0  0  0  0  0  0  0
   -8.0092    6.4330   -7.6743 N   0  0  0  0  0  0  0  0  0  0  0  0
   -7.8649    4.9521   -7.7802 C   0  0  0  0  0  0  0  0  0  0  0  0
   -7.0336    5.0320  -15.3368 C   0  0  0  0  0  0  0  0  0  0  0  0
   -7.6889    4.6468  -16.5166 C   0  0  0  0  0  0  0  0  0  0  0  0
   -9.2205    3.9023  -16.4983 Cl  0  0  0  0  0  0  0  0  0  0  0  0
   -7.1718    4.9290  -17.7818 C   0  0  0  0  0  0  0  0  0  0  0  0
   -5.9730    5.6247  -17.9212 C   0  0  0  0  0  0  0  0  0  0  0  0
   -5.3693    6.1949  -16.7852 C   0  0  0  0  0  0  0  0  0  0  0  0
   -4.1799    6.9628  -16.5113 C   0  0  0  0  0  0  0  0  0  0  0  0
   -2.9796    7.3488  -17.3208 C   0  0  0  0  0  0  0  0  0  0  0  0
   -3.1228    7.5865  -18.7454 N   0  0  0  0  0  0  0  0  0  0  0  0
   -4.2285    8.4442  -19.1470 C   0  0  0  0  0  0  0  0  0  0  0  0
   -4.1316    8.8410  -20.6217 C   0  0  0  0  0  0  0  0  0  0  0  0
   -3.9168    7.6117  -21.5136 C   0  0  0  0  0  0  0  0  0  0  0  0
   -3.8102    7.9947  -22.9428 C   0  0  0  0  0  0  0  0  0  0  0  0
   -2.8078    8.1056  -23.8077 C   0  0  0  0  0  0  0  0  0  0  0  0
   -3.1959    8.4561  -25.0630 N   0  0  0  0  0  0  0  0  0  0  0  0
   -4.4485    8.5733  -25.0844 N   0  0  0  0  0  0  0  0  0  0  0  0
   -4.9413    8.3114  -23.8199 C   0  0  0  0  0  0  0  0  0  0  0  0
   -6.1036    8.3523  -23.4469 O   0  0  0  0  0  0  0  0  0  0  0  0
   -2.6749    6.8635  -21.0180 C   0  0  0  0  0  0  0  0  0  0  0  0
   -2.8541    6.4247  -19.5720 C   0  0  0  0  0  0  0  0  0  0  0  0
   -4.2467    7.3125  -15.1723 C   0  0  0  0  0  0  0  0  0  0  0  0
   -5.3506    6.7514  -14.6262 N   0  0  0  0  0  0  0  0  0  0  0  0
   -5.9823    5.9534  -15.5514 C   0  0  0  0  0  0  0  0  0  0  0  0
  1  2  1  0
  2  3  1  0
  2  4  1  0
  4  5  1  0
  5  6  1  0
  6  7  2  0
  6  8  1  0
  8  9  1  6
  9 10  1  0
 10 11  2  0
 11 12  1  0
 12 13  2  0
 13 14  1  0
 14 15  2  0
 14 16  1  0
 16 17  1  0
 17 18  1  0
  8 19  1  0
 19 20  2  0
 20 21  1  0
 20 22  1  0
 22 23  2  0
 23 24  1  0
 24 25  1  0
 25 26  1  0
 26 27  1  0
 27 28  1  0
 28 29  1  0
 29 30  1  0
 30 31  1  0
 31 32  2  0
 32 33  1  0
 33 34  2  0
 34 35  1  0
 35 36  2  0
 30 37  1  0
 37 38  1  0
 25 39  2  0
 39 40  1  0
 40 41  1  0
 15 10  1  0
 41 19  1  0
 18 13  1  0
 41 24  2  0
 38 27  1  0
 35 31  1  0
M  END
>  <smiles>  (69) 
C71599-P5

>  <fragmenstein_outcome>  (69) 
acceptable

>  <inchikey>  (69) 
ADGZVADNSSUAGK-UHFFFAOYSA-N

>  <fragmenstein_mode>  (69) 
expansion

>  <HIPPO Pose ID>  (69) 
1084

>  <Energy>  (69) 
127.208602

>  <fragmenstein_error>  (69) 


>  <tags>  (69) 
{'openbind_xx01zvns2b_c1_fragmenstein', 'fragmenstein_placed'}

>  <ref_pdb>  (69) 
1

>  <scratch_subdir>  (69) 
/opt/xchem-fragalysis-2/maxwin/BulkDock/SCRATCH/511027/C71599-P5

>  <alias>  (69) 
CC(C)CNC(=O)[C@H](Nc1ccc2c(c1)CNC2)c1c(Cl)ccc2c(CN3CCC(C4=CN=NC4=O)CC3)c[nH]c12

>  <HIPPO Compound ID>  (69) 
34889

>  <fragmenstein_runtime>  (69) 
9.70844

$$$$
O=C(Nc1ccc2c(c1)CNC2)c1c(F)ccc2c(CN3CCC(n4cn[nH]c4=O)CC3)c(OCCCO)[nH]c12
     RDKit          3D

 40 45  0  0  0  0  0  0  0  0999 V2000
   -7.0558    2.6195  -13.8623 O   0  0  0  0  0  0  0  0  0  0  0  0
   -7.2592    3.7978  -13.8684 C   0  0  0  0  0  0  0  0  0  0  0  0
   -7.5709    4.7049  -12.7935 N   0  0  0  0  0  0  0  0  0  0  0  0
   -7.8188    4.4694  -11.4406 C   0  0  0  0  0  0  0  0  0  0  0  0
   -7.9814    3.1649  -10.9495 C   0  0  0  0  0  0  0  0  0  0  0  0
   -8.1879    2.9269   -9.5875 C   0  0  0  0  0  0  0  0  0  0  0  0
   -8.1927    4.0059   -8.7298 C   0  0  0  0  0  0  0  0  0  0  0  0
   -8.0176    5.3011   -9.2060 C   0  0  0  0  0  0  0  0  0  0  0  0
   -7.8593    5.5573  -10.5612 C   0  0  0  0  0  0  0  0  0  0  0  0
   -8.0321    6.2429   -8.0511 C   0  0  0  0  0  0  0  0  0  0  0  0
   -7.9318    5.3949   -6.8337 N   0  0  0  0  0  0  0  0  0  0  0  0
   -8.3752    4.0321   -7.2515 C   0  0  0  0  0  0  0  0  0  0  0  0
   -7.0798    4.5136  -15.1527 C   0  0  0  0  0  0  0  0  0  0  0  0
   -7.9598    4.4011  -16.2230 C   0  0  0  0  0  0  0  0  0  0  0  0
   -9.0793    3.6767  -16.1293 F   0  0  0  0  0  0  0  0  0  0  0  0
   -7.7079    5.0616  -17.4156 C   0  0  0  0  0  0  0  0  0  0  0  0
   -6.5804    5.8858  -17.5518 C   0  0  0  0  0  0  0  0  0  0  0  0
   -5.6629    6.0405  -16.4854 C   0  0  0  0  0  0  0  0  0  0  0  0
   -4.4466    6.7824  -16.2413 C   0  0  0  0  0  0  0  0  0  0  0  0
   -3.6691    7.7992  -17.0379 C   0  0  0  0  0  0  0  0  0  0  0  0
   -3.7500    7.8096  -18.4928 N   0  0  0  0  0  0  0  0  0  0  0  0
   -4.7813    8.6655  -19.0544 C   0  0  0  0  0  0  0  0  0  0  0  0
   -4.5527    8.9007  -20.5467 C   0  0  0  0  0  0  0  0  0  0  0  0
   -4.3767    7.5765  -21.2940 C   0  0  0  0  0  0  0  0  0  0  0  0
   -4.1587    7.8027  -22.7206 N   0  0  0  0  0  0  0  0  0  0  0  0
   -3.0207    8.1235  -23.3666 C   0  0  0  0  0  0  0  0  0  0  0  0
   -3.1588    8.4648  -24.6084 N   0  0  0  0  0  0  0  0  0  0  0  0
   -4.5100    8.3969  -24.8065 N   0  0  0  0  0  0  0  0  0  0  0  0
   -5.1600    8.0850  -23.6170 C   0  0  0  0  0  0  0  0  0  0  0  0
   -6.3614    8.1472  -23.4200 O   0  0  0  0  0  0  0  0  0  0  0  0
   -3.2454    6.7720  -20.6441 C   0  0  0  0  0  0  0  0  0  0  0  0
   -3.5108    6.5422  -19.1600 C   0  0  0  0  0  0  0  0  0  0  0  0
   -4.0290    6.4466  -14.9519 C   0  0  0  0  0  0  0  0  0  0  0  0
   -2.9761    6.9305  -14.2782 O   0  0  0  0  0  0  0  0  0  0  0  0
   -2.6024    6.3253  -13.0372 C   0  0  0  0  0  0  0  0  0  0  0  0
   -3.3515    6.9295  -11.8466 C   0  0  0  0  0  0  0  0  0  0  0  0
   -3.1755    8.4412  -11.7442 C   0  0  0  0  0  0  0  0  0  0  0  0
   -3.9049    9.1140  -12.7617 O   0  0  0  0  0  0  0  0  0  0  0  0
   -4.9086    5.5369  -14.4434 N   0  0  0  0  0  0  0  0  0  0  0  0
   -5.9402    5.3212  -15.3193 C   0  0  0  0  0  0  0  0  0  0  0  0
  1  2  2  0
  2  3  1  0
  3  4  1  0
  4  5  2  0
  5  6  1  0
  6  7  2  0
  7  8  1  0
  8  9  2  0
  8 10  1  0
 10 11  1  0
 11 12  1  0
  2 13  1  0
 13 14  2  0
 14 15  1  0
 14 16  1  0
 16 17  2  0
 17 18  1  0
 18 19  1  0
 19 20  1  0
 20 21  1  0
 21 22  1  0
 22 23  1  0
 23 24  1  0
 24 25  1  0
 25 26  1  0
 26 27  2  0
 27 28  1  0
 28 29  1  0
 29 30  2  0
 24 31  1  0
 31 32  1  0
 19 33  2  0
 33 34  1  0
 34 35  1  0
 35 36  1  0
 36 37  1  0
 37 38  1  0
 33 39  1  0
 39 40  1  0
  9  4  1  0
 40 13  1  0
 12  7  1  0
 40 18  2  0
 32 21  1  0
 29 25  1  0
M  END
>  <smiles>  (70) 
C71634-P5

>  <fragmenstein_outcome>  (70) 
acceptable

>  <inchikey>  (70) 
PIOCYEWEDQCGSQ-UHFFFAOYSA-N

>  <fragmenstein_mode>  (70) 
expansion

>  <HIPPO Pose ID>  (70) 
1118

>  <Energy>  (70) 
28.920566

>  <fragmenstein_error>  (70) 


>  <tags>  (70) 
{'openbind_xx01zvns2b_c1_fragmenstein', 'fragmenstein_placed'}

>  <ref_pdb>  (70) 
1

>  <scratch_subdir>  (70) 
/opt/xchem-fragalysis-2/maxwin/BulkDock/SCRATCH/511027/C71634-P5

>  <alias>  (70) 
O=C(Nc1ccc2c(c1)CNC2)c1c(F)ccc2c(CN3CCC(n4cn[nH]c4=O)CC3)c(OCCCO)[nH]c12

>  <HIPPO Compound ID>  (70) 
71634

>  <fragmenstein_runtime>  (70) 
23.404452

$$$$
COCCc1c(CN2CCC(n3cn[nH]c3=O)CC2)c2ccc(F)c(C(=O)Nc3ccc4c(c3)CNC4)c2n1C
     RDKit          3D

 40 45  0  0  0  0  0  0  0  0999 V2000
   -1.5092    7.8832  -12.5176 C   0  0  0  0  0  0  0  0  0  0  0  0
   -1.2740    7.0815  -13.6677 O   0  0  0  0  0  0  0  0  0  0  0  0
   -2.4586    6.4425  -14.1504 C   0  0  0  0  0  0  0  0  0  0  0  0
   -3.2683    7.3744  -15.0564 C   0  0  0  0  0  0  0  0  0  0  0  0
   -4.4753    6.6890  -15.6327 C   0  0  0  0  0  0  0  0  0  0  0  0
   -4.6040    6.1020  -16.8809 C   0  0  0  0  0  0  0  0  0  0  0  0
   -3.5455    5.9412  -17.9205 C   0  0  0  0  0  0  0  0  0  0  0  0
   -3.3110    7.1542  -18.7209 N   0  0  0  0  0  0  0  0  0  0  0  0
   -4.5307    7.6347  -19.3973 C   0  0  0  0  0  0  0  0  0  0  0  0
   -4.2253    8.7517  -20.4010 C   0  0  0  0  0  0  0  0  0  0  0  0
   -3.1747    8.3263  -21.4348 C   0  0  0  0  0  0  0  0  0  0  0  0
   -3.5755    8.4045  -22.8347 N   0  0  0  0  0  0  0  0  0  0  0  0
   -2.7101    8.5164  -23.8671 C   0  0  0  0  0  0  0  0  0  0  0  0
   -3.2166    8.3495  -25.0447 N   0  0  0  0  0  0  0  0  0  0  0  0
   -4.5331    8.0948  -24.7857 N   0  0  0  0  0  0  0  0  0  0  0  0
   -4.7751    8.0827  -23.4152 C   0  0  0  0  0  0  0  0  0  0  0  0
   -5.8443    7.8337  -22.8892 O   0  0  0  0  0  0  0  0  0  0  0  0
   -2.5874    6.9502  -21.1160 C   0  0  0  0  0  0  0  0  0  0  0  0
   -2.1990    6.8942  -19.6447 C   0  0  0  0  0  0  0  0  0  0  0  0
   -5.9281    5.5818  -16.9789 C   0  0  0  0  0  0  0  0  0  0  0  0
   -6.6280    4.9435  -18.0244 C   0  0  0  0  0  0  0  0  0  0  0  0
   -7.9210    4.4789  -17.8063 C   0  0  0  0  0  0  0  0  0  0  0  0
   -8.5039    4.5944  -16.5521 C   0  0  0  0  0  0  0  0  0  0  0  0
   -9.7298    4.0841  -16.4119 F   0  0  0  0  0  0  0  0  0  0  0  0
   -7.8419    5.2199  -15.4890 C   0  0  0  0  0  0  0  0  0  0  0  0
   -8.4540    5.4682  -14.1644 C   0  0  0  0  0  0  0  0  0  0  0  0
   -9.0763    6.4497  -14.0347 O   0  0  0  0  0  0  0  0  0  0  0  0
   -8.0572    4.3854  -13.1273 N   0  0  0  0  0  0  0  0  0  0  0  0
   -8.2566    4.3367  -11.7417 C   0  0  0  0  0  0  0  0  0  0  0  0
   -8.3444    5.5445  -11.0247 C   0  0  0  0  0  0  0  0  0  0  0  0
   -8.3974    5.5613   -9.6258 C   0  0  0  0  0  0  0  0  0  0  0  0
   -8.4399    4.3531   -8.9603 C   0  0  0  0  0  0  0  0  0  0  0  0
   -8.3973    3.1511   -9.6590 C   0  0  0  0  0  0  0  0  0  0  0  0
   -8.2501    3.1253  -11.0454 C   0  0  0  0  0  0  0  0  0  0  0  0
   -8.5141    2.0299   -8.6734 C   0  0  0  0  0  0  0  0  0  0  0  0
   -8.9391    2.6623   -7.3911 N   0  0  0  0  0  0  0  0  0  0  0  0
   -8.5206    4.0743   -7.4971 C   0  0  0  0  0  0  0  0  0  0  0  0
   -6.5493    5.7583  -15.7377 C   0  0  0  0  0  0  0  0  0  0  0  0
   -5.6713    6.5135  -14.9641 N   0  0  0  0  0  0  0  0  0  0  0  0
   -5.9520    7.0289  -13.6379 C   0  0  0  0  0  0  0  0  0  0  0  0
  1  2  1  0
  2  3  1  0
  3  4  1  0
  4  5  1  0
  5  6  2  0
  6  7  1  0
  7  8  1  0
  8  9  1  0
  9 10  1  0
 10 11  1  0
 11 12  1  0
 12 13  1  0
 13 14  2  0
 14 15  1  0
 15 16  1  0
 16 17  2  0
 11 18  1  0
 18 19  1  0
  6 20  1  0
 20 21  2  0
 21 22  1  0
 22 23  2  0
 23 24  1  0
 23 25  1  0
 25 26  1  0
 26 27  2  0
 26 28  1  0
 28 29  1  0
 29 30  2  0
 30 31  1  0
 31 32  2  0
 32 33  1  0
 33 34  2  0
 33 35  1  0
 35 36  1  0
 36 37  1  0
 25 38  2  0
 38 39  1  0
 39 40  1  0
 39  5  1  0
 19  8  1  0
 38 20  1  0
 16 12  1  0
 34 29  1  0
 37 32  1  0
M  END
>  <smiles>  (71) 
C71635-P5

>  <fragmenstein_outcome>  (71) 
acceptable

>  <inchikey>  (71) 
NFCLZVXHAMZBMM-UHFFFAOYSA-N

>  <fragmenstein_mode>  (71) 
expansion

>  <HIPPO Pose ID>  (71) 
1119

>  <Energy>  (71) 
70.671246

>  <fragmenstein_error>  (71) 


>  <tags>  (71) 
{'openbind_xx01zvns2b_c1_fragmenstein', 'fragmenstein_placed'}

>  <ref_pdb>  (71) 
1

>  <scratch_subdir>  (71) 
/opt/xchem-fragalysis-2/maxwin/BulkDock/SCRATCH/511027/C71635-P5

>  <alias>  (71) 
COCCc1c(CN2CCC(n3cn[nH]c3=O)CC2)c2ccc(F)c(C(=O)Nc3ccc4c(c3)CNC4)c2n1C

>  <HIPPO Compound ID>  (71) 
71635

>  <fragmenstein_runtime>  (71) 
8.045564

$$$$
O=C(Nc1cnc2c(c1)CNC2)c1c(F)ccc2c(CN3CCC(n4cn[nH]c4=O)CC3)c[nH]c12
     RDKit          3D

 35 40  0  0  0  0  0  0  0  0999 V2000
   -9.2092    6.3271  -14.1107 O   0  0  0  0  0  0  0  0  0  0  0  0
   -8.4956    5.4111  -14.2359 C   0  0  0  0  0  0  0  0  0  0  0  0
   -8.0050    4.3723  -13.1981 N   0  0  0  0  0  0  0  0  0  0  0  0
   -8.2082    4.3035  -11.8161 C   0  0  0  0  0  0  0  0  0  0  0  0
   -8.3832    5.4766  -11.0673 C   0  0  0  0  0  0  0  0  0  0  0  0
   -8.4333    5.5419   -9.7083 N   0  0  0  0  0  0  0  0  0  0  0  0
   -8.3725    4.3493   -9.0928 C   0  0  0  0  0  0  0  0  0  0  0  0
   -8.2397    3.1351   -9.7376 C   0  0  0  0  0  0  0  0  0  0  0  0
   -8.1101    3.1011  -11.1211 C   0  0  0  0  0  0  0  0  0  0  0  0
   -8.2795    2.0364   -8.7301 C   0  0  0  0  0  0  0  0  0  0  0  0
   -8.1801    2.6790   -7.3901 N   0  0  0  0  0  0  0  0  0  0  0  0
   -8.4378    4.1219   -7.6088 C   0  0  0  0  0  0  0  0  0  0  0  0
   -7.8402    5.2029  -15.5498 C   0  0  0  0  0  0  0  0  0  0  0  0
   -8.3708    4.5906  -16.6806 C   0  0  0  0  0  0  0  0  0  0  0  0
   -9.5875    4.0348  -16.6749 F   0  0  0  0  0  0  0  0  0  0  0  0
   -7.6405    4.5426  -17.8659 C   0  0  0  0  0  0  0  0  0  0  0  0
   -6.3460    5.0832  -17.9453 C   0  0  0  0  0  0  0  0  0  0  0  0
   -5.7919    5.7522  -16.8327 C   0  0  0  0  0  0  0  0  0  0  0  0
   -4.5539    6.4321  -16.5409 C   0  0  0  0  0  0  0  0  0  0  0  0
   -3.2775    6.5598  -17.3175 C   0  0  0  0  0  0  0  0  0  0  0  0
   -3.3364    7.1053  -18.6734 N   0  0  0  0  0  0  0  0  0  0  0  0
   -4.4037    8.0603  -18.9661 C   0  0  0  0  0  0  0  0  0  0  0  0
   -4.2351    8.7071  -20.3507 C   0  0  0  0  0  0  0  0  0  0  0  0
   -4.0499    7.6255  -21.4166 C   0  0  0  0  0  0  0  0  0  0  0  0
   -3.9085    8.1596  -22.7628 N   0  0  0  0  0  0  0  0  0  0  0  0
   -2.8160    8.6410  -23.3857 C   0  0  0  0  0  0  0  0  0  0  0  0
   -3.0060    9.0558  -24.5976 N   0  0  0  0  0  0  0  0  0  0  0  0
   -4.3451    8.8570  -24.7951 N   0  0  0  0  0  0  0  0  0  0  0  0
   -4.9406    8.3505  -23.6451 C   0  0  0  0  0  0  0  0  0  0  0  0
   -6.1319    8.1608  -23.4726 O   0  0  0  0  0  0  0  0  0  0  0  0
   -2.8494    6.7690  -21.0265 C   0  0  0  0  0  0  0  0  0  0  0  0
   -3.1111    6.0918  -19.6932 C   0  0  0  0  0  0  0  0  0  0  0  0
   -4.6826    6.9408  -15.2582 C   0  0  0  0  0  0  0  0  0  0  0  0
   -5.8887    6.5691  -14.7533 N   0  0  0  0  0  0  0  0  0  0  0  0
   -6.5736    5.8119  -15.6759 C   0  0  0  0  0  0  0  0  0  0  0  0
  1  2  2  0
  2  3  1  0
  3  4  1  0
  4  5  2  0
  5  6  1  0
  6  7  2  0
  7  8  1  0
  8  9  2  0
  8 10  1  0
 10 11  1  0
 11 12  1  0
  2 13  1  0
 13 14  2  0
 14 15  1  0
 14 16  1  0
 16 17  2  0
 17 18  1  0
 18 19  1  0
 19 20  1  0
 20 21  1  0
 21 22  1  0
 22 23  1  0
 23 24  1  0
 24 25  1  0
 25 26  1  0
 26 27  2  0
 27 28  1  0
 28 29  1  0
 29 30  2  0
 24 31  1  0
 31 32  1  0
 19 33  2  0
 33 34  1  0
 34 35  1  0
  9  4  1  0
 35 13  1  0
 12  7  1  0
 35 18  2  0
 32 21  1  0
 29 25  1  0
M  END
>  <smiles>  (72) 
C71636-P5

>  <fragmenstein_outcome>  (72) 
acceptable

>  <inchikey>  (72) 
JQYIIQRAJXPGFU-UHFFFAOYSA-N

>  <fragmenstein_mode>  (72) 
expansion

>  <HIPPO Pose ID>  (72) 
1120

>  <Energy>  (72) 
74.46589

>  <fragmenstein_error>  (72) 


>  <tags>  (72) 
{'openbind_xx01zvns2b_c1_fragmenstein', 'fragmenstein_placed'}

>  <ref_pdb>  (72) 
1

>  <scratch_subdir>  (72) 
/opt/xchem-fragalysis-2/maxwin/BulkDock/SCRATCH/511027/C71636-P5

>  <alias>  (72) 
O=C(Nc1cnc2c(c1)CNC2)c1c(F)ccc2c(CN3CCC(n4cn[nH]c4=O)CC3)c[nH]c12

>  <HIPPO Compound ID>  (72) 
71636

>  <fragmenstein_runtime>  (72) 
8.274859

$$$$
Cc1cc(CN)cc(NC(=O)[C@H]2CCCCC(=O)c3c(CN4CCC(n5cn[nH]c5=O)CC4)c[nH]c32)c1
     RDKit          3D

 37 41  0  0  0  0  0  0  0  0999 V2000
   -8.2007    6.9180   -8.4057 C   0  0  0  0  0  0  0  0  0  0  0  0
   -8.2926    5.6409   -9.1850 C   0  0  0  0  0  0  0  0  0  0  0  0
   -8.6061    4.4361   -8.5553 C   0  0  0  0  0  0  0  0  0  0  0  0
   -8.7539    3.2456   -9.2869 C   0  0  0  0  0  0  0  0  0  0  0  0
   -9.0740    1.9439   -8.5964 C   0  0  0  0  0  0  0  0  0  0  0  0
   -9.8564    2.1136   -7.3705 N   0  0  0  0  0  0  0  0  0  0  0  0
   -8.5138    3.2613  -10.6699 C   0  0  0  0  0  0  0  0  0  0  0  0
   -8.1832    4.4564  -11.3008 C   0  0  0  0  0  0  0  0  0  0  0  0
   -7.8840    4.4781  -12.6552 N   0  0  0  0  0  0  0  0  0  0  0  0
   -7.5881    5.6736  -13.6048 C   0  0  0  0  0  0  0  0  0  0  0  0
   -7.6273    6.8280  -13.4070 O   0  0  0  0  0  0  0  0  0  0  0  0
   -7.1373    5.0927  -14.9859 C   0  0  1  0  0  0  0  0  0  0  0  0
   -8.4385    4.8949  -15.7641 C   0  0  0  0  0  0  0  0  0  0  0  0
   -8.3275    4.3072  -17.1585 C   0  0  0  0  0  0  0  0  0  0  0  0
   -7.7040    5.2036  -18.2104 C   0  0  0  0  0  0  0  0  0  0  0  0
   -6.3613    4.7497  -18.7235 C   0  0  0  0  0  0  0  0  0  0  0  0
   -5.2079    4.8740  -17.7477 C   0  0  0  0  0  0  0  0  0  0  0  0
   -4.1521    4.2767  -17.9541 O   0  0  0  0  0  0  0  0  0  0  0  0
   -5.2227    5.8894  -16.7111 C   0  0  0  0  0  0  0  0  0  0  0  0
   -4.2191    6.9191  -16.6119 C   0  0  0  0  0  0  0  0  0  0  0  0
   -2.9525    7.0870  -17.4083 C   0  0  0  0  0  0  0  0  0  0  0  0
   -3.0867    7.4174  -18.8329 N   0  0  0  0  0  0  0  0  0  0  0  0
   -4.2032    8.2774  -19.1977 C   0  0  0  0  0  0  0  0  0  0  0  0
   -4.0729    8.7523  -20.6484 C   0  0  0  0  0  0  0  0  0  0  0  0
   -3.8954    7.5625  -21.5988 C   0  0  0  0  0  0  0  0  0  0  0  0
   -3.7890    7.9858  -22.9871 N   0  0  0  0  0  0  0  0  0  0  0  0
   -2.7110    8.4281  -23.6623 C   0  0  0  0  0  0  0  0  0  0  0  0
   -2.9460    8.8569  -24.8621 N   0  0  0  0  0  0  0  0  0  0  0  0
   -4.2998    8.7112  -24.9925 N   0  0  0  0  0  0  0  0  0  0  0  0
   -4.8552    8.2373  -23.8100 C   0  0  0  0  0  0  0  0  0  0  0  0
   -6.0445    8.1312  -23.5639 O   0  0  0  0  0  0  0  0  0  0  0  0
   -2.6958    6.7239  -21.1585 C   0  0  0  0  0  0  0  0  0  0  0  0
   -2.8918    6.2719  -19.7205 C   0  0  0  0  0  0  0  0  0  0  0  0
   -4.5799    7.7059  -15.5411 C   0  0  0  0  0  0  0  0  0  0  0  0
   -5.6829    7.1634  -14.9639 N   0  0  0  0  0  0  0  0  0  0  0  0
   -6.0713    6.0024  -15.6088 C   0  0  0  0  0  0  0  0  0  0  0  0
   -8.1025    5.6425  -10.5659 C   0  0  0  0  0  0  0  0  0  0  0  0
  1  2  1  0
  2  3  2  0
  3  4  1  0
  4  5  1  0
  5  6  1  0
  4  7  2  0
  7  8  1  0
  8  9  1  0
  9 10  1  0
 10 11  2  0
 12 10  1  1
 12 13  1  0
 13 14  1  0
 14 15  1  0
 15 16  1  0
 16 17  1  0
 17 18  2  0
 17 19  1  0
 19 20  1  0
 20 21  1  0
 21 22  1  0
 22 23  1  0
 23 24  1  0
 24 25  1  0
 25 26  1  0
 26 27  1  0
 27 28  2  0
 28 29  1  0
 29 30  1  0
 30 31  2  0
 25 32  1  0
 32 33  1  0
 20 34  2  0
 34 35  1  0
 35 36  1  0
  8 37  2  0
 37  2  1  0
 36 12  1  0
 36 19  2  0
 33 22  1  0
 30 26  1  0
M  END
>  <smiles>  (73) 
C71637-P134

>  <fragmenstein_outcome>  (73) 
acceptable

>  <inchikey>  (73) 
XOZORHMSSIOZEM-UHFFFAOYSA-N

>  <fragmenstein_mode>  (73) 
expansion

>  <HIPPO Pose ID>  (73) 
1121

>  <Energy>  (73) 
72.117249

>  <fragmenstein_error>  (73) 


>  <tags>  (73) 
{'openbind_xx01zvns2b_c1_fragmenstein', 'fragmenstein_placed'}

>  <ref_pdb>  (73) 
1

>  <scratch_subdir>  (73) 
/opt/xchem-fragalysis-2/maxwin/BulkDock/SCRATCH/511027/C71637-P134

>  <alias>  (73) 
Cc1cc(CN)cc(NC(=O)[C@H]2CCCCC(=O)c3c(CN4CCC(n5cn[nH]c5=O)CC4)c[nH]c32)c1

>  <HIPPO Compound ID>  (73) 
71670

>  <fragmenstein_runtime>  (73) 
9.160094

$$$$
CSc1cc2c(cc1NC(=O)c1c(F)ccc3c(CN4CCC(n5cn[nH]c5=O)CC4)c[nH]c13)CNC2
     RDKit          3D

 37 42  0  0  0  0  0  0  0  0999 V2000
   -6.2165    7.6695  -10.9381 C   0  0  0  0  0  0  0  0  0  0  0  0
   -7.7750    7.2915  -11.7836 S   0  0  0  0  0  0  0  0  0  0  0  0
   -8.1397    5.6891  -11.0365 C   0  0  0  0  0  0  0  0  0  0  0  0
   -8.2758    5.6551   -9.6365 C   0  0  0  0  0  0  0  0  0  0  0  0
   -8.4183    4.4342   -9.0057 C   0  0  0  0  0  0  0  0  0  0  0  0
   -8.4227    3.2504   -9.7308 C   0  0  0  0  0  0  0  0  0  0  0  0
   -8.2572    3.2513  -11.1128 C   0  0  0  0  0  0  0  0  0  0  0  0
   -8.1604    4.4792  -11.7839 C   0  0  0  0  0  0  0  0  0  0  0  0
   -7.9516    4.4776  -13.1708 N   0  0  0  0  0  0  0  0  0  0  0  0
   -8.6732    5.2646  -14.3010 C   0  0  0  0  0  0  0  0  0  0  0  0
   -9.6015    5.9746  -14.2564 O   0  0  0  0  0  0  0  0  0  0  0  0
   -7.9417    5.1031  -15.5863 C   0  0  0  0  0  0  0  0  0  0  0  0
   -8.4621    4.5681  -16.7594 C   0  0  0  0  0  0  0  0  0  0  0  0
   -9.7011    4.0685  -16.8036 F   0  0  0  0  0  0  0  0  0  0  0  0
   -7.7074    4.5475  -17.9292 C   0  0  0  0  0  0  0  0  0  0  0  0
   -6.4030    5.0668  -17.9591 C   0  0  0  0  0  0  0  0  0  0  0  0
   -5.8648    5.6884  -16.8114 C   0  0  0  0  0  0  0  0  0  0  0  0
   -4.6349    6.3666  -16.4782 C   0  0  0  0  0  0  0  0  0  0  0  0
   -3.3482    6.5476  -17.2311 C   0  0  0  0  0  0  0  0  0  0  0  0
   -3.3922    7.0812  -18.5926 N   0  0  0  0  0  0  0  0  0  0  0  0
   -4.4551    8.0341  -18.9044 C   0  0  0  0  0  0  0  0  0  0  0  0
   -4.2676    8.6759  -20.2896 C   0  0  0  0  0  0  0  0  0  0  0  0
   -4.0655    7.5917  -21.3503 C   0  0  0  0  0  0  0  0  0  0  0  0
   -3.9072    8.1235  -22.6970 N   0  0  0  0  0  0  0  0  0  0  0  0
   -2.8062    8.6000  -23.3089 C   0  0  0  0  0  0  0  0  0  0  0  0
   -2.9821    9.0200  -24.5213 N   0  0  0  0  0  0  0  0  0  0  0  0
   -4.3204    8.8307  -24.7316 N   0  0  0  0  0  0  0  0  0  0  0  0
   -4.9301    8.3264  -23.5878 C   0  0  0  0  0  0  0  0  0  0  0  0
   -6.1248    8.1495  -23.4269 O   0  0  0  0  0  0  0  0  0  0  0  0
   -2.8686    6.7386  -20.9395 C   0  0  0  0  0  0  0  0  0  0  0  0
   -3.1433    6.0667  -19.6053 C   0  0  0  0  0  0  0  0  0  0  0  0
   -4.7876    6.8232  -15.1773 C   0  0  0  0  0  0  0  0  0  0  0  0
   -6.0017    6.4310  -14.7076 N   0  0  0  0  0  0  0  0  0  0  0  0
   -6.6653    5.6990  -15.6643 C   0  0  0  0  0  0  0  0  0  0  0  0
   -8.6030    2.1110   -8.7765 C   0  0  0  0  0  0  0  0  0  0  0  0
   -8.9969    2.7286   -7.4803 N   0  0  0  0  0  0  0  0  0  0  0  0
   -8.5409    4.1289   -7.5508 C   0  0  0  0  0  0  0  0  0  0  0  0
  1  2  1  0
  2  3  1  0
  3  4  2  0
  4  5  1  0
  5  6  2  0
  6  7  1  0
  7  8  2  0
  8  9  1  0
  9 10  1  0
 10 11  2  0
 10 12  1  0
 12 13  2  0
 13 14  1  0
 13 15  1  0
 15 16  2  0
 16 17  1  0
 17 18  1  0
 18 19  1  0
 19 20  1  0
 20 21  1  0
 21 22  1  0
 22 23  1  0
 23 24  1  0
 24 25  1  0
 25 26  2  0
 26 27  1  0
 27 28  1  0
 28 29  2  0
 23 30  1  0
 30 31  1  0
 18 32  2  0
 32 33  1  0
 33 34  1  0
  6 35  1  0
 35 36  1  0
 36 37  1  0
  8  3  1  0
 34 12  1  0
 37  5  1  0
 34 17  2  0
 31 20  1  0
 28 24  1  0
M  END
>  <smiles>  (74) 
C71638-P5

>  <fragmenstein_outcome>  (74) 
acceptable

>  <inchikey>  (74) 
KAYRJLAKXYZENF-UHFFFAOYSA-N

>  <fragmenstein_mode>  (74) 
expansion

>  <HIPPO Pose ID>  (74) 
1122

>  <Energy>  (74) 
66.066528

>  <fragmenstein_error>  (74) 


>  <tags>  (74) 
{'openbind_xx01zvns2b_c1_fragmenstein', 'fragmenstein_placed'}

>  <ref_pdb>  (74) 
1

>  <scratch_subdir>  (74) 
/opt/xchem-fragalysis-2/maxwin/BulkDock/SCRATCH/511027/C71638-P5

>  <alias>  (74) 
CSc1cc2c(cc1NC(=O)c1c(F)ccc3c(CN4CCC(n5cn[nH]c5=O)CC4)c[nH]c13)CNC2

>  <HIPPO Compound ID>  (74) 
71638

>  <fragmenstein_runtime>  (74) 
5.214772

$$$$
Cc1cc(CCCC(=O)Nc2ccc3c(c2)CNC3)ccc1[C@H](CN)CN1CCC(n2cn[nH]c2=O)CC1
     RDKit          3D

 38 42  0  0  0  0  0  0  0  0999 V2000
   -0.1324    5.7253  -15.9744 C   0  0  0  0  0  0  0  0  0  0  0  0
   -1.3153    6.0399  -15.1067 C   0  0  0  0  0  0  0  0  0  0  0  0
   -1.7534    5.0944  -14.1704 C   0  0  0  0  0  0  0  0  0  0  0  0
   -2.8644    5.3500  -13.3590 C   0  0  0  0  0  0  0  0  0  0  0  0
   -3.5689    4.2284  -12.6433 C   0  0  0  0  0  0  0  0  0  0  0  0
   -4.4966    3.4530  -13.6052 C   0  0  0  0  0  0  0  0  0  0  0  0
   -5.6585    4.2554  -14.2384 C   0  0  0  0  0  0  0  0  0  0  0  0
   -6.4735    5.0493  -13.2218 C   0  0  0  0  0  0  0  0  0  0  0  0
   -6.5352    6.2158  -13.2075 O   0  0  0  0  0  0  0  0  0  0  0  0
   -7.0534    4.0000  -12.2378 N   0  0  0  0  0  0  0  0  0  0  0  0
   -7.7178    4.1666  -11.0352 C   0  0  0  0  0  0  0  0  0  0  0  0
   -7.8412    5.4143  -10.4141 C   0  0  0  0  0  0  0  0  0  0  0  0
   -8.2563    5.4920   -9.0805 C   0  0  0  0  0  0  0  0  0  0  0  0
   -8.5634    4.3158   -8.4166 C   0  0  0  0  0  0  0  0  0  0  0  0
   -8.5079    3.0895   -9.0654 C   0  0  0  0  0  0  0  0  0  0  0  0
   -8.0920    3.0009  -10.3745 C   0  0  0  0  0  0  0  0  0  0  0  0
   -8.8177    1.9985   -8.0999 C   0  0  0  0  0  0  0  0  0  0  0  0
   -9.4184    2.6865   -6.9283 N   0  0  0  0  0  0  0  0  0  0  0  0
   -8.9079    4.0763   -6.9847 C   0  0  0  0  0  0  0  0  0  0  0  0
   -3.4225    6.6253  -13.3524 C   0  0  0  0  0  0  0  0  0  0  0  0
   -3.0490    7.5427  -14.3213 C   0  0  0  0  0  0  0  0  0  0  0  0
   -2.0638    7.2199  -15.2697 C   0  0  0  0  0  0  0  0  0  0  0  0
   -2.0094    8.0244  -16.5685 C   0  0  2  0  0  0  0  0  0  0  0  0
   -1.6628    9.5090  -16.2997 C   0  0  0  0  0  0  0  0  0  0  0  0
   -1.4951   10.3251  -17.5016 N   0  0  0  0  0  0  0  0  0  0  0  0
   -3.3783    7.7903  -17.2774 C   0  0  0  0  0  0  0  0  0  0  0  0
   -3.3445    7.9752  -18.7363 N   0  0  0  0  0  0  0  0  0  0  0  0
   -4.6549    8.3915  -19.2386 C   0  0  0  0  0  0  0  0  0  0  0  0
   -4.4952    8.9415  -20.6556 C   0  0  0  0  0  0  0  0  0  0  0  0
   -3.4125    8.1935  -21.4428 C   0  0  0  0  0  0  0  0  0  0  0  0
   -3.5859    8.2339  -22.8888 N   0  0  0  0  0  0  0  0  0  0  0  0
   -2.5807    8.2515  -23.7890 C   0  0  0  0  0  0  0  0  0  0  0  0
   -2.9334    8.1070  -25.0250 N   0  0  0  0  0  0  0  0  0  0  0  0
   -4.2913    7.9712  -24.9498 N   0  0  0  0  0  0  0  0  0  0  0  0
   -4.7202    8.0050  -23.6257 C   0  0  0  0  0  0  0  0  0  0  0  0
   -5.8703    7.8572  -23.2534 O   0  0  0  0  0  0  0  0  0  0  0  0
   -3.2429    6.7661  -20.9212 C   0  0  0  0  0  0  0  0  0  0  0  0
   -2.8792    6.7642  -19.4302 C   0  0  0  0  0  0  0  0  0  0  0  0
  1  2  1  0
  2  3  2  0
  3  4  1  0
  4  5  1  0
  5  6  1  0
  6  7  1  0
  7  8  1  0
  8  9  2  0
  8 10  1  0
 10 11  1  0
 11 12  2  0
 12 13  1  0
 13 14  2  0
 14 15  1  0
 15 16  2  0
 15 17  1  0
 17 18  1  0
 18 19  1  0
  4 20  2  0
 20 21  1  0
 21 22  2  0
 22 23  1  0
 23 24  1  1
 24 25  1  0
 23 26  1  0
 26 27  1  0
 27 28  1  0
 28 29  1  0
 29 30  1  0
 30 31  1  0
 31 32  1  0
 32 33  2  0
 33 34  1  0
 34 35  1  0
 35 36  2  0
 30 37  1  0
 37 38  1  0
 22  2  1  0
 38 27  1  0
 16 11  1  0
 35 31  1  0
 19 14  1  0
M  END
>  <smiles>  (75) 
C71639-P5

>  <fragmenstein_outcome>  (75) 
acceptable

>  <inchikey>  (75) 
APAKQZDFUXTSNU-UHFFFAOYSA-N

>  <fragmenstein_mode>  (75) 
expansion

>  <HIPPO Pose ID>  (75) 
1123

>  <Energy>  (75) 
72.339271

>  <fragmenstein_error>  (75) 


>  <tags>  (75) 
{'openbind_xx01zvns2b_c1_fragmenstein', 'fragmenstein_placed'}

>  <ref_pdb>  (75) 
1

>  <scratch_subdir>  (75) 
/opt/xchem-fragalysis-2/maxwin/BulkDock/SCRATCH/511027/C71639-P5

>  <alias>  (75) 
Cc1cc(CCCC(=O)Nc2ccc3c(c2)CNC3)ccc1[C@H](CN)CN1CCC(n2cn[nH]c2=O)CC1

>  <HIPPO Compound ID>  (75) 
71639

>  <fragmenstein_runtime>  (75) 
9.679982

$$$$
Cc1c(CN2CCC(n3cn[nH]c3=O)CC2)c2ccc(F)c(C(=O)Nc3ccc4c(c3)CNC4)c2n1C
     RDKit          3D

 37 42  0  0  0  0  0  0  0  0999 V2000
   -3.0663    7.1077  -14.2779 C   0  0  0  0  0  0  0  0  0  0  0  0
   -4.1222    6.5047  -15.1506 C   0  0  0  0  0  0  0  0  0  0  0  0
   -4.3460    6.6716  -16.5163 C   0  0  0  0  0  0  0  0  0  0  0  0
   -3.3822    7.5049  -17.3139 C   0  0  0  0  0  0  0  0  0  0  0  0
   -3.5639    7.6635  -18.7376 N   0  0  0  0  0  0  0  0  0  0  0  0
   -4.6161    8.5556  -19.1762 C   0  0  0  0  0  0  0  0  0  0  0  0
   -4.2823    9.1346  -20.5560 C   0  0  0  0  0  0  0  0  0  0  0  0
   -3.4541    8.1722  -21.4173 C   0  0  0  0  0  0  0  0  0  0  0  0
   -3.6431    8.3513  -22.8498 N   0  0  0  0  0  0  0  0  0  0  0  0
   -2.6684    8.3025  -23.7812 C   0  0  0  0  0  0  0  0  0  0  0  0
   -3.0722    8.2599  -25.0093 N   0  0  0  0  0  0  0  0  0  0  0  0
   -4.4352    8.2655  -24.8946 N   0  0  0  0  0  0  0  0  0  0  0  0
   -4.8168    8.2660  -23.5561 C   0  0  0  0  0  0  0  0  0  0  0  0
   -5.9587    8.1864  -23.1383 O   0  0  0  0  0  0  0  0  0  0  0  0
   -3.6861    6.7236  -21.0030 C   0  0  0  0  0  0  0  0  0  0  0  0
   -3.2852    6.4960  -19.5504 C   0  0  0  0  0  0  0  0  0  0  0  0
   -5.5490    5.9304  -16.8223 C   0  0  0  0  0  0  0  0  0  0  0  0
   -6.3299    5.6824  -17.9783 C   0  0  0  0  0  0  0  0  0  0  0  0
   -7.5212    4.9458  -17.9058 C   0  0  0  0  0  0  0  0  0  0  0  0
   -7.9583    4.4275  -16.6977 C   0  0  0  0  0  0  0  0  0  0  0  0
   -9.1307    3.7770  -16.6870 F   0  0  0  0  0  0  0  0  0  0  0  0
   -7.1912    4.5912  -15.5437 C   0  0  0  0  0  0  0  0  0  0  0  0
   -7.5380    3.9966  -14.2323 C   0  0  0  0  0  0  0  0  0  0  0  0
   -7.4444    2.8464  -14.0725 O   0  0  0  0  0  0  0  0  0  0  0  0
   -7.8921    5.1209  -13.2330 N   0  0  0  0  0  0  0  0  0  0  0  0
   -8.1039    5.0745  -11.8568 C   0  0  0  0  0  0  0  0  0  0  0  0
   -8.0458    6.2867  -11.1470 C   0  0  0  0  0  0  0  0  0  0  0  0
   -8.0634    6.2955   -9.7496 C   0  0  0  0  0  0  0  0  0  0  0  0
   -8.1549    5.0839   -9.0881 C   0  0  0  0  0  0  0  0  0  0  0  0
   -8.2659    3.8878   -9.7889 C   0  0  0  0  0  0  0  0  0  0  0  0
   -8.2383    3.8613  -11.1757 C   0  0  0  0  0  0  0  0  0  0  0  0
   -8.4160    2.7593   -8.8220 C   0  0  0  0  0  0  0  0  0  0  0  0
   -8.1138    3.3354   -7.4816 N   0  0  0  0  0  0  0  0  0  0  0  0
   -8.1803    4.8040   -7.6243 C   0  0  0  0  0  0  0  0  0  0  0  0
   -5.9812    5.3290  -15.6271 C   0  0  0  0  0  0  0  0  0  0  0  0
   -4.9843    5.5445  -14.6938 N   0  0  0  0  0  0  0  0  0  0  0  0
   -4.7534    4.7903  -13.4717 C   0  0  0  0  0  0  0  0  0  0  0  0
  1  2  1  0
  2  3  2  0
  3  4  1  0
  4  5  1  0
  5  6  1  0
  6  7  1  0
  7  8  1  0
  8  9  1  0
  9 10  1  0
 10 11  2  0
 11 12  1  0
 12 13  1  0
 13 14  2  0
  8 15  1  0
 15 16  1  0
  3 17  1  0
 17 18  2  0
 18 19  1  0
 19 20  2  0
 20 21  1  0
 20 22  1  0
 22 23  1  0
 23 24  2  0
 23 25  1  0
 25 26  1  0
 26 27  2  0
 27 28  1  0
 28 29  2  0
 29 30  1  0
 30 31  2  0
 30 32  1  0
 32 33  1  0
 33 34  1  0
 22 35  2  0
 35 36  1  0
 36 37  1  0
 36  2  1  0
 16  5  1  0
 35 17  1  0
 13  9  1  0
 31 26  1  0
 34 29  1  0
M  END
>  <smiles>  (76) 
C71640-P5

>  <fragmenstein_outcome>  (76) 
acceptable

>  <inchikey>  (76) 
DDLHEPCVGKKAQC-UHFFFAOYSA-N

>  <fragmenstein_mode>  (76) 
expansion

>  <HIPPO Pose ID>  (76) 
1124

>  <Energy>  (76) 
55.919605

>  <fragmenstein_error>  (76) 


>  <tags>  (76) 
{'openbind_xx01zvns2b_c1_fragmenstein', 'fragmenstein_placed'}

>  <ref_pdb>  (76) 
1

>  <scratch_subdir>  (76) 
/opt/xchem-fragalysis-2/maxwin/BulkDock/SCRATCH/511027/C71640-P5

>  <alias>  (76) 
Cc1c(CN2CCC(n3cn[nH]c3=O)CC2)c2ccc(F)c(C(=O)Nc3ccc4c(c3)CNC4)c2n1C

>  <HIPPO Compound ID>  (76) 
79780

>  <fragmenstein_runtime>  (76) 
5.506709

$$$$
O=C(O)C[C@@H]1NCc2cc(NC(=O)c3c(Cl)ccc4c(CN5CCC(n6cn[nH]c6=O)CC5)c[nH]c34)ccc21
     RDKit          3D

 39 44  0  0  0  0  0  0  0  0999 V2000
   -6.4009    6.8091   -6.8516 O   0  0  0  0  0  0  0  0  0  0  0  0
   -6.6630    5.6139   -6.9353 C   0  0  0  0  0  0  0  0  0  0  0  0
   -5.7146    4.7021   -7.2038 O   0  0  0  0  0  0  0  0  0  0  0  0
   -8.0324    5.0699   -6.6377 C   0  0  0  0  0  0  0  0  0  0  0  0
   -8.5780    4.0566   -7.6304 C   0  0  2  0  0  0  0  0  0  0  0  0
   -7.9699    2.7247   -7.4550 N   0  0  0  0  0  0  0  0  0  0  0  0
   -8.0633    2.0595   -8.7825 C   0  0  0  0  0  0  0  0  0  0  0  0
   -8.1150    3.1833   -9.7705 C   0  0  0  0  0  0  0  0  0  0  0  0
   -7.9225    3.1654  -11.1529 C   0  0  0  0  0  0  0  0  0  0  0  0
   -8.0649    4.3599  -11.8660 C   0  0  0  0  0  0  0  0  0  0  0  0
   -7.8014    4.4227  -13.2411 N   0  0  0  0  0  0  0  0  0  0  0  0
   -8.2707    5.4449  -14.3121 C   0  0  0  0  0  0  0  0  0  0  0  0
   -9.0112    6.3459  -14.2264 O   0  0  0  0  0  0  0  0  0  0  0  0
   -7.5529    5.2466  -15.6022 C   0  0  0  0  0  0  0  0  0  0  0  0
   -8.0593    4.7269  -16.7933 C   0  0  0  0  0  0  0  0  0  0  0  0
   -9.6499    4.1440  -16.9422 Cl  0  0  0  0  0  0  0  0  0  0  0  0
   -7.2830    4.6982  -17.9511 C   0  0  0  0  0  0  0  0  0  0  0  0
   -5.9857    5.2151  -17.9596 C   0  0  0  0  0  0  0  0  0  0  0  0
   -5.4670    5.8337  -16.8056 C   0  0  0  0  0  0  0  0  0  0  0  0
   -4.2546    6.5359  -16.4740 C   0  0  0  0  0  0  0  0  0  0  0  0
   -2.9923    6.7904  -17.2464 C   0  0  0  0  0  0  0  0  0  0  0  0
   -3.0917    7.2455  -18.6334 N   0  0  0  0  0  0  0  0  0  0  0  0
   -4.1837    8.1598  -18.9556 C   0  0  0  0  0  0  0  0  0  0  0  0
   -4.0637    8.7315  -20.3753 C   0  0  0  0  0  0  0  0  0  0  0  0
   -3.8758    7.5984  -21.3864 C   0  0  0  0  0  0  0  0  0  0  0  0
   -3.7978    8.0732  -22.7614 N   0  0  0  0  0  0  0  0  0  0  0  0
   -2.7396    8.5494  -23.4449 C   0  0  0  0  0  0  0  0  0  0  0  0
   -2.9925    8.9593  -24.6469 N   0  0  0  0  0  0  0  0  0  0  0  0
   -4.3408    8.7662  -24.7709 N   0  0  0  0  0  0  0  0  0  0  0  0
   -4.8770    8.2800  -23.5833 C   0  0  0  0  0  0  0  0  0  0  0  0
   -6.0606    8.1281  -23.3370 O   0  0  0  0  0  0  0  0  0  0  0  0
   -2.6346    6.8017  -20.9888 C   0  0  0  0  0  0  0  0  0  0  0  0
   -2.8134    6.2001  -19.6045 C   0  0  0  0  0  0  0  0  0  0  0  0
   -4.3981    6.9486  -15.1581 C   0  0  0  0  0  0  0  0  0  0  0  0
   -5.5979    6.5207  -14.6823 N   0  0  0  0  0  0  0  0  0  0  0  0
   -6.2718    5.8301  -15.6621 C   0  0  0  0  0  0  0  0  0  0  0  0
   -8.3532    5.5453  -11.1682 C   0  0  0  0  0  0  0  0  0  0  0  0
   -8.5017    5.5585   -9.7735 C   0  0  0  0  0  0  0  0  0  0  0  0
   -8.4029    4.3639   -9.0873 C   0  0  0  0  0  0  0  0  0  0  0  0
  1  2  2  0
  2  3  1  0
  2  4  1  0
  5  4  1  1
  5  6  1  0
  6  7  1  0
  7  8  1  0
  8  9  2  0
  9 10  1  0
 10 11  1  0
 11 12  1  0
 12 13  2  0
 12 14  1  0
 14 15  2  0
 15 16  1  0
 15 17  1  0
 17 18  2  0
 18 19  1  0
 19 20  1  0
 20 21  1  0
 21 22  1  0
 22 23  1  0
 23 24  1  0
 24 25  1  0
 25 26  1  0
 26 27  1  0
 27 28  2  0
 28 29  1  0
 29 30  1  0
 30 31  2  0
 25 32  1  0
 32 33  1  0
 20 34  2  0
 34 35  1  0
 35 36  1  0
 10 37  2  0
 37 38  1  0
 38 39  2  0
 39  5  1  0
 39  8  1  0
 36 14  1  0
 36 19  2  0
 33 22  1  0
 30 26  1  0
M  END
>  <smiles>  (77) 
C71641-P5

>  <fragmenstein_outcome>  (77) 
acceptable

>  <inchikey>  (77) 
HYNNPQYSIPUAQW-UHFFFAOYSA-N

>  <fragmenstein_mode>  (77) 
expansion

>  <HIPPO Pose ID>  (77) 
1125

>  <Energy>  (77) 
24.605084

>  <fragmenstein_error>  (77) 


>  <tags>  (77) 
{'openbind_xx01zvns2b_c1_fragmenstein', 'fragmenstein_placed'}

>  <ref_pdb>  (77) 
1

>  <scratch_subdir>  (77) 
/opt/xchem-fragalysis-2/maxwin/BulkDock/SCRATCH/511027/C71641-P5

>  <alias>  (77) 
O=C(O)C[C@@H]1NCc2cc(NC(=O)c3c(Cl)ccc4c(CN5CCC(n6cn[nH]c6=O)CC5)c[nH]c34)ccc21

>  <HIPPO Compound ID>  (77) 
71641

>  <fragmenstein_runtime>  (77) 
9.461991

$$$$
O=C(Nc1ccc2c(c1)CNCC2)c1cccc2c(CN3CCC(n4cn[nH]c4=O)CC3)c[nH]c12
     RDKit          3D

 35 40  0  0  0  0  0  0  0  0999 V2000
   -8.5574    6.9082  -13.5412 O   0  0  0  0  0  0  0  0  0  0  0  0
   -8.2366    5.8026  -13.7440 C   0  0  0  0  0  0  0  0  0  0  0  0
   -8.1046    4.6020  -12.7749 N   0  0  0  0  0  0  0  0  0  0  0  0
   -8.2433    4.5375  -11.3842 C   0  0  0  0  0  0  0  0  0  0  0  0
   -8.2734    5.7208  -10.6451 C   0  0  0  0  0  0  0  0  0  0  0  0
   -8.3549    5.6955   -9.2534 C   0  0  0  0  0  0  0  0  0  0  0  0
   -8.4377    4.4796   -8.5749 C   0  0  0  0  0  0  0  0  0  0  0  0
   -8.3735    3.2758   -9.2974 C   0  0  0  0  0  0  0  0  0  0  0  0
   -8.2753    3.3144  -10.7078 C   0  0  0  0  0  0  0  0  0  0  0  0
   -8.4465    1.9505   -8.5680 C   0  0  0  0  0  0  0  0  0  0  0  0
   -8.2641    2.0354   -7.1114 N   0  0  0  0  0  0  0  0  0  0  0  0
   -9.0572    3.1201   -6.5512 C   0  0  0  0  0  0  0  0  0  0  0  0
   -8.5579    4.4652   -7.0722 C   0  0  0  0  0  0  0  0  0  0  0  0
   -7.7816    5.4690  -15.1114 C   0  0  0  0  0  0  0  0  0  0  0  0
   -8.4925    4.7106  -16.0427 C   0  0  0  0  0  0  0  0  0  0  0  0
   -7.9508    4.4708  -17.3083 C   0  0  0  0  0  0  0  0  0  0  0  0
   -6.6660    4.9238  -17.6426 C   0  0  0  0  0  0  0  0  0  0  0  0
   -5.9390    5.6996  -16.7154 C   0  0  0  0  0  0  0  0  0  0  0  0
   -4.6152    6.2570  -16.6735 C   0  0  0  0  0  0  0  0  0  0  0  0
   -3.5218    5.9743  -17.6442 C   0  0  0  0  0  0  0  0  0  0  0  0
   -3.3750    6.9179  -18.7758 N   0  0  0  0  0  0  0  0  0  0  0  0
   -4.6436    7.4927  -19.2527 C   0  0  0  0  0  0  0  0  0  0  0  0
   -4.4607    8.3548  -20.5078 C   0  0  0  0  0  0  0  0  0  0  0  0
   -3.8348    7.5007  -21.6069 C   0  0  0  0  0  0  0  0  0  0  0  0
   -3.7624    8.1721  -22.8935 N   0  0  0  0  0  0  0  0  0  0  0  0
   -2.7009    8.6646  -23.5578 C   0  0  0  0  0  0  0  0  0  0  0  0
   -2.9526    9.1271  -24.7410 N   0  0  0  0  0  0  0  0  0  0  0  0
   -4.3003    8.9403  -24.8761 N   0  0  0  0  0  0  0  0  0  0  0  0
   -4.8349    8.3674  -23.7282 C   0  0  0  0  0  0  0  0  0  0  0  0
   -6.0104    8.1166  -23.5275 O   0  0  0  0  0  0  0  0  0  0  0  0
   -2.4853    6.9872  -21.1108 C   0  0  0  0  0  0  0  0  0  0  0  0
   -2.6776    6.1755  -19.8403 C   0  0  0  0  0  0  0  0  0  0  0  0
   -4.5173    6.9815  -15.5015 C   0  0  0  0  0  0  0  0  0  0  0  0
   -5.6834    6.8249  -14.8081 N   0  0  0  0  0  0  0  0  0  0  0  0
   -6.5371    5.9918  -15.4955 C   0  0  0  0  0  0  0  0  0  0  0  0
  1  2  2  0
  2  3  1  0
  3  4  1  0
  4  5  2  0
  5  6  1  0
  6  7  2  0
  7  8  1  0
  8  9  2  0
  8 10  1  0
 10 11  1  0
 11 12  1  0
 12 13  1  0
  2 14  1  0
 14 15  2  0
 15 16  1  0
 16 17  2  0
 17 18  1  0
 18 19  1  0
 19 20  1  0
 20 21  1  0
 21 22  1  0
 22 23  1  0
 23 24  1  0
 24 25  1  0
 25 26  1  0
 26 27  2  0
 27 28  1  0
 28 29  1  0
 29 30  2  0
 24 31  1  0
 31 32  1  0
 19 33  2  0
 33 34  1  0
 34 35  1  0
  9  4  1  0
 35 14  1  0
 13  7  1  0
 35 18  2  0
 32 21  1  0
 29 25  1  0
M  END
>  <smiles>  (78) 
C71645-P5

>  <fragmenstein_outcome>  (78) 
acceptable

>  <inchikey>  (78) 
OXSGKFUBVPVPLF-UHFFFAOYSA-N

>  <fragmenstein_mode>  (78) 
expansion

>  <HIPPO Pose ID>  (78) 
1128

>  <Energy>  (78) 
53.209286

>  <fragmenstein_error>  (78) 


>  <tags>  (78) 
{'openbind_xx01zvns2b_c1_fragmenstein', 'fragmenstein_placed'}

>  <ref_pdb>  (78) 
1

>  <scratch_subdir>  (78) 
/opt/xchem-fragalysis-2/maxwin/BulkDock/SCRATCH/511027/C71645-P5

>  <alias>  (78) 
O=C(Nc1ccc2c(c1)CNCC2)c1cccc2c(CN3CCC(n4cn[nH]c4=O)CC3)c[nH]c12

>  <HIPPO Compound ID>  (78) 
70959

>  <fragmenstein_runtime>  (78) 
9.062236

$$$$
O=C(Nc1ccc2c(c1)CNCCO2)[C@@H]1CCCCCc2c(CN3CCC(n4cn[nH]c4=O)CC3)c[nH]c21
     RDKit          3D

 38 43  0  0  0  0  0  0  0  0999 V2000
   -8.6061    7.2499  -13.5984 O   0  0  0  0  0  0  0  0  0  0  0  0
   -8.3158    6.1361  -13.8179 C   0  0  0  0  0  0  0  0  0  0  0  0
   -8.1431    4.9309  -12.8508 N   0  0  0  0  0  0  0  0  0  0  0  0
   -8.1967    4.8726  -11.4644 C   0  0  0  0  0  0  0  0  0  0  0  0
   -8.1845    6.0671  -10.7481 C   0  0  0  0  0  0  0  0  0  0  0  0
   -8.2981    6.0575   -9.3673 C   0  0  0  0  0  0  0  0  0  0  0  0
   -8.4390    4.8534   -8.6861 C   0  0  0  0  0  0  0  0  0  0  0  0
   -8.4854    3.6328   -9.3847 C   0  0  0  0  0  0  0  0  0  0  0  0
   -8.3184    3.6581  -10.7903 C   0  0  0  0  0  0  0  0  0  0  0  0
   -8.7109    2.2870   -8.7339 C   0  0  0  0  0  0  0  0  0  0  0  0
   -9.4501    2.3169   -7.4788 N   0  0  0  0  0  0  0  0  0  0  0  0
   -8.6302    2.7860   -6.3645 C   0  0  0  0  0  0  0  0  0  0  0  0
   -7.8159    4.0496   -6.6138 C   0  0  0  0  0  0  0  0  0  0  0  0
   -8.5720    5.0176   -7.3303 O   0  0  0  0  0  0  0  0  0  0  0  0
   -7.9286    5.7369  -15.2645 C   0  0  2  0  0  0  0  0  0  0  0  0
   -8.4169    4.3782  -15.7484 C   0  0  0  0  0  0  0  0  0  0  0  0
   -9.1392    4.3910  -17.0993 C   0  0  0  0  0  0  0  0  0  0  0  0
   -8.3638    4.4424  -18.4089 C   0  0  0  0  0  0  0  0  0  0  0  0
   -7.1605    5.3635  -18.5386 C   0  0  0  0  0  0  0  0  0  0  0  0
   -5.9572    4.8968  -17.7386 C   0  0  0  0  0  0  0  0  0  0  0  0
   -5.6385    5.7753  -16.5797 C   0  0  0  0  0  0  0  0  0  0  0  0
   -4.4179    6.5110  -16.3823 C   0  0  0  0  0  0  0  0  0  0  0  0
   -3.1989    6.5464  -17.2549 C   0  0  0  0  0  0  0  0  0  0  0  0
   -3.5440    6.8500  -18.6503 N   0  0  0  0  0  0  0  0  0  0  0  0
   -3.9953    8.2324  -18.8485 C   0  0  0  0  0  0  0  0  0  0  0  0
   -4.4350    8.4689  -20.3001 C   0  0  0  0  0  0  0  0  0  0  0  0
   -3.3121    8.0959  -21.2671 C   0  0  0  0  0  0  0  0  0  0  0  0
   -3.5990    8.2984  -22.6844 N   0  0  0  0  0  0  0  0  0  0  0  0
   -2.6561    8.3880  -23.6487 C   0  0  0  0  0  0  0  0  0  0  0  0
   -3.0918    8.3711  -24.8657 N   0  0  0  0  0  0  0  0  0  0  0  0
   -4.4432    8.2509  -24.7112 N   0  0  0  0  0  0  0  0  0  0  0  0
   -4.7855    8.1778  -23.3630 C   0  0  0  0  0  0  0  0  0  0  0  0
   -5.9179    8.0539  -22.9331 O   0  0  0  0  0  0  0  0  0  0  0  0
   -2.8559    6.6619  -20.9981 C   0  0  0  0  0  0  0  0  0  0  0  0
   -2.4488    6.4847  -19.5408 C   0  0  0  0  0  0  0  0  0  0  0  0
   -4.5602    7.1957  -15.1937 C   0  0  0  0  0  0  0  0  0  0  0  0
   -5.7974    6.9335  -14.6874 N   0  0  0  0  0  0  0  0  0  0  0  0
   -6.4784    6.0683  -15.5147 C   0  0  0  0  0  0  0  0  0  0  0  0
  1  2  2  0
  2  3  1  0
  3  4  1  0
  4  5  2  0
  5  6  1  0
  6  7  2  0
  7  8  1  0
  8  9  2  0
  8 10  1  0
 10 11  1  0
 11 12  1  0
 12 13  1  0
 13 14  1  0
 15  2  1  1
 15 16  1  0
 16 17  1  0
 17 18  1  0
 18 19  1  0
 19 20  1  0
 20 21  1  0
 21 22  1  0
 22 23  1  0
 23 24  1  0
 24 25  1  0
 25 26  1  0
 26 27  1  0
 27 28  1  0
 28 29  1  0
 29 30  2  0
 30 31  1  0
 31 32  1  0
 32 33  2  0
 27 34  1  0
 34 35  1  0
 22 36  2  0
 36 37  1  0
 37 38  1  0
  9  4  1  0
 38 15  1  0
 14  7  1  0
 38 21  2  0
 35 24  1  0
 32 28  1  0
M  END
>  <smiles>  (79) 
C71648-P5

>  <fragmenstein_outcome>  (79) 
acceptable

>  <inchikey>  (79) 
KSMUOPFIPRMBBG-UHFFFAOYSA-N

>  <fragmenstein_mode>  (79) 
expansion

>  <HIPPO Pose ID>  (79) 
1131

>  <Energy>  (79) 
78.907119

>  <fragmenstein_error>  (79) 


>  <tags>  (79) 
{'openbind_xx01zvns2b_c1_fragmenstein', 'fragmenstein_placed'}

>  <ref_pdb>  (79) 
1

>  <scratch_subdir>  (79) 
/opt/xchem-fragalysis-2/maxwin/BulkDock/SCRATCH/511027/C71648-P5

>  <alias>  (79) 
O=C(Nc1ccc2c(c1)CNCCO2)[C@@H]1CCCCCc2c(CN3CCC(n4cn[nH]c4=O)CC3)c[nH]c21

>  <HIPPO Compound ID>  (79) 
71648

>  <fragmenstein_runtime>  (79) 
11.432331

$$$$
O=C(Nc1ccc2c(c1)CNC2)c1cccnc2c(CN3CCC(n4cn[nH]c4=O)CC3)cnc1-2
     RDKit          3D

 35 40  0  0  0  0  0  0  0  0999 V2000
   -9.1605    6.4523  -13.9437 O   0  0  0  0  0  0  0  0  0  0  0  0
   -8.4647    5.5243  -14.0951 C   0  0  0  0  0  0  0  0  0  0  0  0
   -7.9720    4.4586  -13.0773 N   0  0  0  0  0  0  0  0  0  0  0  0
   -8.1511    4.3742  -11.6953 C   0  0  0  0  0  0  0  0  0  0  0  0
   -8.3123    5.5627  -10.9624 C   0  0  0  0  0  0  0  0  0  0  0  0
   -8.3882    5.5494   -9.5662 C   0  0  0  0  0  0  0  0  0  0  0  0
   -8.3462    4.3297   -8.9209 C   0  0  0  0  0  0  0  0  0  0  0  0
   -8.2135    3.1467   -9.6386 C   0  0  0  0  0  0  0  0  0  0  0  0
   -8.0778    3.1510  -11.0252 C   0  0  0  0  0  0  0  0  0  0  0  0
   -8.2668    1.9999   -8.6814 C   0  0  0  0  0  0  0  0  0  0  0  0
   -8.1461    2.5918   -7.3205 N   0  0  0  0  0  0  0  0  0  0  0  0
   -8.4524    4.0285   -7.4655 C   0  0  0  0  0  0  0  0  0  0  0  0
   -7.8072    5.2776  -15.4212 C   0  0  0  0  0  0  0  0  0  0  0  0
   -8.4779    4.6388  -16.3847 C   0  0  0  0  0  0  0  0  0  0  0  0
   -8.0857    4.4504  -17.7577 C   0  0  0  0  0  0  0  0  0  0  0  0
   -6.9409    4.7434  -18.3808 C   0  0  0  0  0  0  0  0  0  0  0  0
   -5.7860    5.3207  -17.9604 N   0  0  0  0  0  0  0  0  0  0  0  0
   -5.6168    5.8537  -16.8048 C   0  0  0  0  0  0  0  0  0  0  0  0
   -4.4155    6.6110  -16.4182 C   0  0  0  0  0  0  0  0  0  0  0  0
   -3.1529    6.8705  -17.1523 C   0  0  0  0  0  0  0  0  0  0  0  0
   -3.1491    7.3245  -18.5482 N   0  0  0  0  0  0  0  0  0  0  0  0
   -4.2127    8.2779  -18.8847 C   0  0  0  0  0  0  0  0  0  0  0  0
   -4.0798    8.8070  -20.3201 C   0  0  0  0  0  0  0  0  0  0  0  0
   -3.9825    7.6428  -21.3085 C   0  0  0  0  0  0  0  0  0  0  0  0
   -3.8505    8.0839  -22.6916 N   0  0  0  0  0  0  0  0  0  0  0  0
   -2.7576    8.5162  -23.3495 C   0  0  0  0  0  0  0  0  0  0  0  0
   -2.9580    8.8984  -24.5706 N   0  0  0  0  0  0  0  0  0  0  0  0
   -4.3052    8.7314  -24.7378 N   0  0  0  0  0  0  0  0  0  0  0  0
   -4.8943    8.2863  -23.5586 C   0  0  0  0  0  0  0  0  0  0  0  0
   -6.0893    8.1591  -23.3569 O   0  0  0  0  0  0  0  0  0  0  0  0
   -2.8178    6.7496  -20.8880 C   0  0  0  0  0  0  0  0  0  0  0  0
   -3.0525    6.2091  -19.4875 C   0  0  0  0  0  0  0  0  0  0  0  0
   -4.7338    7.0351  -15.1904 C   0  0  0  0  0  0  0  0  0  0  0  0
   -5.9404    6.6501  -14.6822 N   0  0  0  0  0  0  0  0  0  0  0  0
   -6.5056    5.9263  -15.6058 C   0  0  0  0  0  0  0  0  0  0  0  0
  1  2  2  0
  2  3  1  0
  3  4  1  0
  4  5  2  0
  5  6  1  0
  6  7  2  0
  7  8  1  0
  8  9  2  0
  8 10  1  0
 10 11  1  0
 11 12  1  0
  2 13  1  0
 13 14  2  0
 14 15  1  0
 15 16  2  0
 16 17  1  0
 17 18  2  0
 18 19  1  0
 19 20  1  0
 20 21  1  0
 21 22  1  0
 22 23  1  0
 23 24  1  0
 24 25  1  0
 25 26  1  0
 26 27  2  0
 27 28  1  0
 28 29  1  0
 29 30  2  0
 24 31  1  0
 31 32  1  0
 19 33  2  0
 33 34  1  0
 34 35  2  0
  9  4  1  0
 35 13  1  0
 12  7  1  0
 35 18  1  0
 32 21  1  0
 29 25  1  0
M  END
>  <smiles>  (80) 
C71650-P5

>  <fragmenstein_outcome>  (80) 
acceptable

>  <inchikey>  (80) 
TWYSDNPAUNHTRM-UHFFFAOYSA-N

>  <fragmenstein_mode>  (80) 
expansion

>  <HIPPO Pose ID>  (80) 
1134

>  <Energy>  (80) 
69.554661

>  <fragmenstein_error>  (80) 


>  <tags>  (80) 
{'openbind_xx01zvns2b_c1_fragmenstein', 'fragmenstein_placed'}

>  <ref_pdb>  (80) 
1

>  <scratch_subdir>  (80) 
/opt/xchem-fragalysis-2/maxwin/BulkDock/SCRATCH/511027/C71650-P5

>  <alias>  (80) 
O=C(Nc1ccc2c(c1)CNC2)c1cccnc2c(CN3CCC(n4cn[nH]c4=O)CC3)cnc1-2

>  <HIPPO Compound ID>  (80) 
71650

>  <fragmenstein_runtime>  (80) 
7.203343

$$$$
O=C(Nc1cnc2c(c1)CNC2)c1c[nH]c(=O)cc2c(CN3CCC(n4cn[nH]c4=O)CC3)cnc1-2
     RDKit          3D

 36 41  0  0  0  0  0  0  0  0999 V2000
   -9.0558    6.5451  -13.8668 O   0  0  0  0  0  0  0  0  0  0  0  0
   -8.4940    5.5371  -14.0525 C   0  0  0  0  0  0  0  0  0  0  0  0
   -8.0885    4.4142  -13.0604 N   0  0  0  0  0  0  0  0  0  0  0  0
   -8.2030    4.3477  -11.6687 C   0  0  0  0  0  0  0  0  0  0  0  0
   -8.3374    5.5089  -10.8942 C   0  0  0  0  0  0  0  0  0  0  0  0
   -8.4000    5.5396   -9.5341 N   0  0  0  0  0  0  0  0  0  0  0  0
   -8.3637    4.3314   -8.9479 C   0  0  0  0  0  0  0  0  0  0  0  0
   -8.2489    3.1296   -9.6196 C   0  0  0  0  0  0  0  0  0  0  0  0
   -8.1357    3.1248  -11.0032 C   0  0  0  0  0  0  0  0  0  0  0  0
   -8.2911    2.0090   -8.6373 C   0  0  0  0  0  0  0  0  0  0  0  0
   -8.1683    2.6234   -7.2859 N   0  0  0  0  0  0  0  0  0  0  0  0
   -8.4475    4.0684   -7.4710 C   0  0  0  0  0  0  0  0  0  0  0  0
   -7.9431    5.2099  -15.4137 C   0  0  0  0  0  0  0  0  0  0  0  0
   -8.7602    4.5742  -16.2578 C   0  0  0  0  0  0  0  0  0  0  0  0
   -8.5837    4.2262  -17.5660 N   0  0  0  0  0  0  0  0  0  0  0  0
   -7.5468    4.3000  -18.4291 C   0  0  0  0  0  0  0  0  0  0  0  0
   -7.6742    3.8288  -19.5586 O   0  0  0  0  0  0  0  0  0  0  0  0
   -6.2516    4.8882  -18.0732 C   0  0  0  0  0  0  0  0  0  0  0  0
   -5.8693    5.5423  -16.9822 C   0  0  0  0  0  0  0  0  0  0  0  0
   -4.6134    6.2276  -16.7360 C   0  0  0  0  0  0  0  0  0  0  0  0
   -3.3694    6.3182  -17.5601 C   0  0  0  0  0  0  0  0  0  0  0  0
   -3.3818    6.9858  -18.8601 N   0  0  0  0  0  0  0  0  0  0  0  0
   -4.0067    8.3088  -18.9056 C   0  0  0  0  0  0  0  0  0  0  0  0
   -4.3459    8.7619  -20.3400 C   0  0  0  0  0  0  0  0  0  0  0  0
   -3.2963    8.2694  -21.3400 C   0  0  0  0  0  0  0  0  0  0  0  0
   -3.5504    8.6369  -22.7303 N   0  0  0  0  0  0  0  0  0  0  0  0
   -2.5875    8.7423  -23.6730 C   0  0  0  0  0  0  0  0  0  0  0  0
   -2.9991    8.7425  -24.8990 N   0  0  0  0  0  0  0  0  0  0  0  0
   -4.3534    8.6088  -24.7767 N   0  0  0  0  0  0  0  0  0  0  0  0
   -4.7147    8.4649  -23.4404 C   0  0  0  0  0  0  0  0  0  0  0  0
   -5.8334    8.2045  -23.0350 O   0  0  0  0  0  0  0  0  0  0  0  0
   -3.0659    6.7562  -21.2353 C   0  0  0  0  0  0  0  0  0  0  0  0
   -3.7149    6.1521  -19.9992 C   0  0  0  0  0  0  0  0  0  0  0  0
   -4.7381    6.7484  -15.5042 C   0  0  0  0  0  0  0  0  0  0  0  0
   -5.9286    6.4817  -14.8751 N   0  0  0  0  0  0  0  0  0  0  0  0
   -6.6186    5.7549  -15.7226 C   0  0  0  0  0  0  0  0  0  0  0  0
  1  2  2  0
  2  3  1  0
  3  4  1  0
  4  5  2  0
  5  6  1  0
  6  7  2  0
  7  8  1  0
  8  9  2  0
  8 10  1  0
 10 11  1  0
 11 12  1  0
  2 13  1  0
 13 14  2  0
 14 15  1  0
 15 16  1  0
 16 17  2  0
 16 18  1  0
 18 19  2  0
 19 20  1  0
 20 21  1  0
 21 22  1  0
 22 23  1  0
 23 24  1  0
 24 25  1  0
 25 26  1  0
 26 27  1  0
 27 28  2  0
 28 29  1  0
 29 30  1  0
 30 31  2  0
 25 32  1  0
 32 33  1  0
 20 34  2  0
 34 35  1  0
 35 36  2  0
  9  4  1  0
 36 13  1  0
 12  7  1  0
 36 19  1  0
 33 22  1  0
 30 26  1  0
M  END
>  <smiles>  (81) 
C71655-P5

>  <fragmenstein_outcome>  (81) 
acceptable

>  <inchikey>  (81) 
KFJFUSXXBYNWKV-UHFFFAOYSA-N

>  <fragmenstein_mode>  (81) 
expansion

>  <HIPPO Pose ID>  (81) 
1139

>  <Energy>  (81) 
77.435051

>  <fragmenstein_error>  (81) 


>  <tags>  (81) 
{'openbind_xx01zvns2b_c1_fragmenstein', 'fragmenstein_placed'}

>  <ref_pdb>  (81) 
1

>  <scratch_subdir>  (81) 
/opt/xchem-fragalysis-2/maxwin/BulkDock/SCRATCH/511027/C71655-P5

>  <alias>  (81) 
O=C(Nc1cnc2c(c1)CNC2)c1c[nH]c(=O)cc2c(CN3CCC(n4cn[nH]c4=O)CC3)cnc1-2

>  <HIPPO Compound ID>  (81) 
71655

>  <fragmenstein_runtime>  (81) 
7.929224

$$$$
NCc1cc(Cl)c(C(=O)Nc2ccc3c(c2)CNC3)c2[nH]cc(CN3CCC(n4cn[nH]c4=O)CC3)c12
     RDKit          3D

 37 42  0  0  0  0  0  0  0  0999 V2000
   -4.5181    4.6085  -19.5975 N   0  0  0  0  0  0  0  0  0  0  0  0
   -5.6461    5.5214  -19.4626 C   0  0  0  0  0  0  0  0  0  0  0  0
   -6.2087    5.4932  -18.0710 C   0  0  0  0  0  0  0  0  0  0  0  0
   -7.4583    4.8558  -17.9538 C   0  0  0  0  0  0  0  0  0  0  0  0
   -8.1620    4.8078  -16.7607 C   0  0  0  0  0  0  0  0  0  0  0  0
   -9.7039    4.1111  -16.8825 Cl  0  0  0  0  0  0  0  0  0  0  0  0
   -7.6333    5.3687  -15.6056 C   0  0  0  0  0  0  0  0  0  0  0  0
   -8.3008    5.5613  -14.2918 C   0  0  0  0  0  0  0  0  0  0  0  0
   -8.9802    6.5046  -14.1708 O   0  0  0  0  0  0  0  0  0  0  0  0
   -7.8779    4.4887  -13.2563 N   0  0  0  0  0  0  0  0  0  0  0  0
   -8.1181    4.4100  -11.8785 C   0  0  0  0  0  0  0  0  0  0  0  0
   -8.3013    5.6063  -11.1600 C   0  0  0  0  0  0  0  0  0  0  0  0
   -8.3831    5.6139   -9.7622 C   0  0  0  0  0  0  0  0  0  0  0  0
   -8.3298    4.4060   -9.0960 C   0  0  0  0  0  0  0  0  0  0  0  0
   -8.1926    3.2135   -9.7963 C   0  0  0  0  0  0  0  0  0  0  0  0
   -8.0493    3.1979  -11.1852 C   0  0  0  0  0  0  0  0  0  0  0  0
   -8.2482    2.0814   -8.8199 C   0  0  0  0  0  0  0  0  0  0  0  0
   -8.1469    2.6909   -7.4657 N   0  0  0  0  0  0  0  0  0  0  0  0
   -8.4239    4.1299   -7.6340 C   0  0  0  0  0  0  0  0  0  0  0  0
   -6.3820    6.0129  -15.7257 C   0  0  0  0  0  0  0  0  0  0  0  0
   -5.6958    6.7236  -14.7663 N   0  0  0  0  0  0  0  0  0  0  0  0
   -4.5072    7.1595  -15.2618 C   0  0  0  0  0  0  0  0  0  0  0  0
   -4.3983    6.7548  -16.5813 C   0  0  0  0  0  0  0  0  0  0  0  0
   -3.1322    6.9272  -17.3738 C   0  0  0  0  0  0  0  0  0  0  0  0
   -3.3512    7.3550  -18.7485 N   0  0  0  0  0  0  0  0  0  0  0  0
   -3.7054    8.7559  -18.9284 C   0  0  0  0  0  0  0  0  0  0  0  0
   -4.1383    9.0159  -20.3813 C   0  0  0  0  0  0  0  0  0  0  0  0
   -3.0999    8.5054  -21.3867 C   0  0  0  0  0  0  0  0  0  0  0  0
   -3.4845    8.6212  -22.7924 N   0  0  0  0  0  0  0  0  0  0  0  0
   -2.6006    8.6723  -23.8138 C   0  0  0  0  0  0  0  0  0  0  0  0
   -3.0949    8.4987  -24.9958 N   0  0  0  0  0  0  0  0  0  0  0  0
   -4.4237    8.2999  -24.7532 N   0  0  0  0  0  0  0  0  0  0  0  0
   -4.6849    8.3142  -23.3855 C   0  0  0  0  0  0  0  0  0  0  0  0
   -5.7672    8.0821  -22.8775 O   0  0  0  0  0  0  0  0  0  0  0  0
   -2.6580    7.0756  -21.0782 C   0  0  0  0  0  0  0  0  0  0  0  0
   -2.2595    6.9287  -19.6160 C   0  0  0  0  0  0  0  0  0  0  0  0
   -5.6355    6.0762  -16.9100 C   0  0  0  0  0  0  0  0  0  0  0  0
  1  2  1  0
  2  3  1  0
  3  4  2  0
  4  5  1  0
  5  6  1  0
  5  7  2  0
  7  8  1  0
  8  9  2  0
  8 10  1  0
 10 11  1  0
 11 12  2  0
 12 13  1  0
 13 14  2  0
 14 15  1  0
 15 16  2  0
 15 17  1  0
 17 18  1  0
 18 19  1  0
  7 20  1  0
 20 21  1  0
 21 22  1  0
 22 23  2  0
 23 24  1  0
 24 25  1  0
 25 26  1  0
 26 27  1  0
 27 28  1  0
 28 29  1  0
 29 30  1  0
 30 31  2  0
 31 32  1  0
 32 33  1  0
 33 34  2  0
 28 35  1  0
 35 36  1  0
 23 37  1  0
 37  3  1  0
 16 11  1  0
 37 20  2  0
 19 14  1  0
 36 25  1  0
 33 29  1  0
M  END
>  <smiles>  (82) 
C71656-P5

>  <fragmenstein_outcome>  (82) 
acceptable

>  <inchikey>  (82) 
NQGNKXKTQSCMKL-UHFFFAOYSA-N

>  <fragmenstein_mode>  (82) 
expansion

>  <HIPPO Pose ID>  (82) 
1140

>  <Energy>  (82) 
46.729371

>  <fragmenstein_error>  (82) 


>  <tags>  (82) 
{'openbind_xx01zvns2b_c1_fragmenstein', 'fragmenstein_placed'}

>  <ref_pdb>  (82) 
1

>  <scratch_subdir>  (82) 
/opt/xchem-fragalysis-2/maxwin/BulkDock/SCRATCH/511027/C71656-P5

>  <alias>  (82) 
NCc1cc(Cl)c(C(=O)Nc2ccc3c(c2)CNC3)c2[nH]cc(CN3CCC(n4cn[nH]c4=O)CC3)c12

>  <HIPPO Compound ID>  (82) 
86601

>  <fragmenstein_runtime>  (82) 
10.140466

$$$$
O=C1CCCC[C@H](C(=O)Nc2cnn(Cc3ccncc3)c2)c2[nH]cc(CN3CCC(n4cn[nH]c4=O)CC3)c21
     RDKit          3D

 40 45  0  0  0  0  0  0  0  0999 V2000
   -4.3582    4.2993  -17.5647 O   0  0  0  0  0  0  0  0  0  0  0  0
   -5.4045    4.9328  -17.4238 C   0  0  0  0  0  0  0  0  0  0  0  0
   -6.5840    4.7207  -18.3585 C   0  0  0  0  0  0  0  0  0  0  0  0
   -7.9281    5.2709  -17.9218 C   0  0  0  0  0  0  0  0  0  0  0  0
   -8.6155    4.5081  -16.7933 C   0  0  0  0  0  0  0  0  0  0  0  0
   -8.6231    5.2031  -15.4343 C   0  0  0  0  0  0  0  0  0  0  0  0
   -7.2752    5.2636  -14.7243 C   0  0  2  0  0  0  0  0  0  0  0  0
   -7.5512    5.7106  -13.2446 C   0  0  0  0  0  0  0  0  0  0  0  0
   -7.4947    6.8331  -12.9124 O   0  0  0  0  0  0  0  0  0  0  0  0
   -7.8012    4.4223  -12.4067 N   0  0  0  0  0  0  0  0  0  0  0  0
   -8.1081    4.2703  -11.0854 C   0  0  0  0  0  0  0  0  0  0  0  0
   -8.5162    3.1246  -10.3840 C   0  0  0  0  0  0  0  0  0  0  0  0
   -8.6660    3.3535   -9.0769 N   0  0  0  0  0  0  0  0  0  0  0  0
   -8.2991    4.6424   -8.9362 N   0  0  0  0  0  0  0  0  0  0  0  0
   -8.2429    5.2287   -7.6022 C   0  0  0  0  0  0  0  0  0  0  0  0
   -6.9544    5.9637   -7.3167 C   0  0  0  0  0  0  0  0  0  0  0  0
   -6.9758    7.2377   -6.7400 C   0  0  0  0  0  0  0  0  0  0  0  0
   -5.7695    7.8608   -6.4547 C   0  0  0  0  0  0  0  0  0  0  0  0
   -4.5610    7.3089   -6.6922 N   0  0  0  0  0  0  0  0  0  0  0  0
   -4.5603    6.0769   -7.2457 C   0  0  0  0  0  0  0  0  0  0  0  0
   -5.7108    5.3745   -7.5642 C   0  0  0  0  0  0  0  0  0  0  0  0
   -8.0347    5.2547  -10.1307 C   0  0  0  0  0  0  0  0  0  0  0  0
   -6.2737    6.1975  -15.3908 C   0  0  0  0  0  0  0  0  0  0  0  0
   -5.9816    7.4318  -14.8536 N   0  0  0  0  0  0  0  0  0  0  0  0
   -4.8714    7.9550  -15.4399 C   0  0  0  0  0  0  0  0  0  0  0  0
   -4.4535    7.0951  -16.4341 C   0  0  0  0  0  0  0  0  0  0  0  0
   -3.1698    7.2350  -17.1996 C   0  0  0  0  0  0  0  0  0  0  0  0
   -3.2797    7.5449  -18.6285 N   0  0  0  0  0  0  0  0  0  0  0  0
   -4.3855    8.4144  -19.0193 C   0  0  0  0  0  0  0  0  0  0  0  0
   -4.2406    8.8708  -20.4771 C   0  0  0  0  0  0  0  0  0  0  0  0
   -4.0515    7.6667  -21.4046 C   0  0  0  0  0  0  0  0  0  0  0  0
   -3.9070    8.0550  -22.8003 N   0  0  0  0  0  0  0  0  0  0  0  0
   -2.8115    8.4673  -23.4663 C   0  0  0  0  0  0  0  0  0  0  0  0
   -3.0130    8.8416  -24.6897 N   0  0  0  0  0  0  0  0  0  0  0  0
   -4.3636    8.6917  -24.8491 N   0  0  0  0  0  0  0  0  0  0  0  0
   -4.9526    8.2727  -23.6610 C   0  0  0  0  0  0  0  0  0  0  0  0
   -6.1481    8.1854  -23.4391 O   0  0  0  0  0  0  0  0  0  0  0  0
   -2.8645    6.8399  -20.9129 C   0  0  0  0  0  0  0  0  0  0  0  0
   -3.1160    6.3781  -19.4871 C   0  0  0  0  0  0  0  0  0  0  0  0
   -5.4239    6.0370  -16.4820 C   0  0  0  0  0  0  0  0  0  0  0  0
  1  2  2  0
  2  3  1  0
  3  4  1  0
  4  5  1  0
  5  6  1  0
  6  7  1  0
  7  8  1  1
  8  9  2  0
  8 10  1  0
 10 11  1  0
 11 12  1  0
 12 13  2  0
 13 14  1  0
 14 15  1  0
 15 16  1  0
 16 17  2  0
 17 18  1  0
 18 19  2  0
 19 20  1  0
 20 21  2  0
 14 22  1  0
  7 23  1  0
 23 24  1  0
 24 25  1  0
 25 26  2  0
 26 27  1  0
 27 28  1  0
 28 29  1  0
 29 30  1  0
 30 31  1  0
 31 32  1  0
 32 33  1  0
 33 34  2  0
 34 35  1  0
 35 36  1  0
 36 37  2  0
 31 38  1  0
 38 39  1  0
 26 40  1  0
 40  2  1  0
 22 11  2  0
 40 23  2  0
 21 16  1  0
 39 28  1  0
 36 32  1  0
M  END
>  <smiles>  (83) 
C71660-P5

>  <fragmenstein_outcome>  (83) 
acceptable

>  <inchikey>  (83) 
JFZUYQUVRXHXER-UHFFFAOYSA-N

>  <fragmenstein_mode>  (83) 
expansion

>  <HIPPO Pose ID>  (83) 
1143

>  <Energy>  (83) 
102.305004

>  <fragmenstein_error>  (83) 


>  <tags>  (83) 
{'openbind_xx01zvns2b_c1_fragmenstein', 'fragmenstein_placed'}

>  <ref_pdb>  (83) 
1

>  <scratch_subdir>  (83) 
/opt/xchem-fragalysis-2/maxwin/BulkDock/SCRATCH/511027/C71660-P5

>  <alias>  (83) 
O=C1CCCC[C@H](C(=O)Nc2cnn(Cc3ccncc3)c2)c2[nH]cc(CN3CCC(n4cn[nH]c4=O)CC3)c21

>  <HIPPO Compound ID>  (83) 
71660

>  <fragmenstein_runtime>  (83) 
8.685755

$$$$
O=C(Oc1ccc2c(c1)CNC2)[C@H]1CCCCC(=O)[C@@]2(CNC[C@@H]2CN2CCC(n3cn[nH]c3=O)CC2)C1
     RDKit          3D

 38 43  0  0  0  0  0  0  0  0999 V2000
   -6.0542    4.4481  -12.7986 O   0  0  0  0  0  0  0  0  0  0  0  0
   -7.1220    4.5072  -13.4007 C   0  0  0  0  0  0  0  0  0  0  0  0
   -8.3678    4.6255  -12.8054 O   0  0  0  0  0  0  0  0  0  0  0  0
   -8.2950    4.5372  -11.4099 C   0  0  0  0  0  0  0  0  0  0  0  0
   -8.1194    5.7094  -10.6622 C   0  0  0  0  0  0  0  0  0  0  0  0
   -8.1177    5.6486   -9.2671 C   0  0  0  0  0  0  0  0  0  0  0  0
   -8.2879    4.4133   -8.6612 C   0  0  0  0  0  0  0  0  0  0  0  0
   -8.4553    3.2532   -9.4116 C   0  0  0  0  0  0  0  0  0  0  0  0
   -8.4763    3.2949  -10.7961 C   0  0  0  0  0  0  0  0  0  0  0  0
   -8.5985    2.0877   -8.4912 C   0  0  0  0  0  0  0  0  0  0  0  0
   -8.3036    2.6032   -7.1252 N   0  0  0  0  0  0  0  0  0  0  0  0
   -8.3611    4.0775   -7.2113 C   0  0  0  0  0  0  0  0  0  0  0  0
   -7.2421    4.3456  -14.9279 C   0  0  1  0  0  0  0  0  0  0  0  0
   -8.4663    4.9681  -15.6204 C   0  0  0  0  0  0  0  0  0  0  0  0
   -8.8276    4.3111  -16.9578 C   0  0  0  0  0  0  0  0  0  0  0  0
   -8.2464    4.8264  -18.2762 C   0  0  0  0  0  0  0  0  0  0  0  0
   -6.7632    5.1362  -18.4013 C   0  0  0  0  0  0  0  0  0  0  0  0
   -6.3571    6.2988  -17.5236 C   0  0  0  0  0  0  0  0  0  0  0  0
   -6.6677    7.4479  -17.8602 O   0  0  0  0  0  0  0  0  0  0  0  0
   -5.6072    6.0491  -16.2050 C   0  0  2  0  0  0  0  0  0  0  0  0
   -5.9200    7.1596  -15.1973 C   0  0  0  0  0  0  0  0  0  0  0  0
   -4.8724    7.0477  -14.1900 N   0  0  0  0  0  0  0  0  0  0  0  0
   -3.6787    6.5109  -14.8440 C   0  0  0  0  0  0  0  0  0  0  0  0
   -4.0601    6.2180  -16.3144 C   0  0  2  0  0  0  0  0  0  0  0  0
   -3.5130    7.3991  -17.1433 C   0  0  0  0  0  0  0  0  0  0  0  0
   -3.8098    7.3522  -18.5758 N   0  0  0  0  0  0  0  0  0  0  0  0
   -3.9752    8.7213  -19.0883 C   0  0  0  0  0  0  0  0  0  0  0  0
   -4.3724    8.7347  -20.5577 C   0  0  0  0  0  0  0  0  0  0  0  0
   -3.3215    7.9923  -21.3700 C   0  0  0  0  0  0  0  0  0  0  0  0
   -3.5411    8.0231  -22.8099 N   0  0  0  0  0  0  0  0  0  0  0  0
   -2.5715    7.9560  -23.7460 C   0  0  0  0  0  0  0  0  0  0  0  0
   -2.9787    7.9026  -24.9720 N   0  0  0  0  0  0  0  0  0  0  0  0
   -4.3396    7.9270  -24.8511 N   0  0  0  0  0  0  0  0  0  0  0  0
   -4.7198    7.9874  -23.5123 C   0  0  0  0  0  0  0  0  0  0  0  0
   -5.8681    8.0293  -23.1094 O   0  0  0  0  0  0  0  0  0  0  0  0
   -3.1624    6.5701  -20.8288 C   0  0  0  0  0  0  0  0  0  0  0  0
   -2.8316    6.5777  -19.3354 C   0  0  0  0  0  0  0  0  0  0  0  0
   -5.8956    4.6386  -15.6134 C   0  0  0  0  0  0  0  0  0  0  0  0
  1  2  2  0
  2  3  1  0
  3  4  1  0
  4  5  2  0
  5  6  1  0
  6  7  2  0
  7  8  1  0
  8  9  2  0
  8 10  1  0
 10 11  1  0
 11 12  1  0
 13  2  1  1
 13 14  1  0
 14 15  1  0
 15 16  1  0
 16 17  1  0
 17 18  1  0
 18 19  2  0
 18 20  1  0
 20 21  1  1
 21 22  1  0
 22 23  1  0
 23 24  1  0
 24 25  1  6
 25 26  1  0
 26 27  1  0
 27 28  1  0
 28 29  1  0
 29 30  1  0
 30 31  1  0
 31 32  2  0
 32 33  1  0
 33 34  1  0
 34 35  2  0
 29 36  1  0
 36 37  1  0
 20 38  1  0
  9  4  1  0
 38 13  1  0
 12  7  1  0
 24 20  1  0
 37 26  1  0
 34 30  1  0
M  END
>  <smiles>  (84) 
C71661-P5

>  <fragmenstein_outcome>  (84) 
acceptable

>  <inchikey>  (84) 
LXQHNBXBZGJRKS-UHFFFAOYSA-N

>  <fragmenstein_mode>  (84) 
expansion

>  <HIPPO Pose ID>  (84) 
1144

>  <Energy>  (84) 
64.151341

>  <fragmenstein_error>  (84) 


>  <tags>  (84) 
{'openbind_xx01zvns2b_c1_fragmenstein', 'fragmenstein_placed'}

>  <ref_pdb>  (84) 
1

>  <scratch_subdir>  (84) 
/opt/xchem-fragalysis-2/maxwin/BulkDock/SCRATCH/511027/C71661-P5

>  <alias>  (84) 
O=C(Oc1ccc2c(c1)CNC2)[C@H]1CCCCC(=O)[C@@]2(CNC[C@@H]2CN2CCC(n3cn[nH]c3=O)CC2)C1

>  <HIPPO Compound ID>  (84) 
80502

>  <fragmenstein_runtime>  (84) 
8.779172

$$$$
O=C(Nc1ccc(F)cc1)c1cccc2c(CN3CCC(n4cn[nH]c4=O)CC3)c[nH]c12
     RDKit          3D

 32 36  0  0  0  0  0  0  0  0999 V2000
   -8.3180    6.9474  -13.4079 O   0  0  0  0  0  0  0  0  0  0  0  0
   -8.1061    5.8373  -13.7055 C   0  0  0  0  0  0  0  0  0  0  0  0
   -8.1070    4.5513  -12.8460 N   0  0  0  0  0  0  0  0  0  0  0  0
   -8.2699    4.3800  -11.4669 C   0  0  0  0  0  0  0  0  0  0  0  0
   -8.3696    3.0905  -10.9413 C   0  0  0  0  0  0  0  0  0  0  0  0
   -8.4966    2.8882   -9.5600 C   0  0  0  0  0  0  0  0  0  0  0  0
   -8.4973    3.9769   -8.7020 C   0  0  0  0  0  0  0  0  0  0  0  0
   -8.6453    3.7874   -7.3822 F   0  0  0  0  0  0  0  0  0  0  0  0
   -8.3635    5.2653   -9.2055 C   0  0  0  0  0  0  0  0  0  0  0  0
   -8.2601    5.4676  -10.5887 C   0  0  0  0  0  0  0  0  0  0  0  0
   -7.6649    5.5636  -15.1007 C   0  0  0  0  0  0  0  0  0  0  0  0
   -8.3231    4.7603  -16.0311 C   0  0  0  0  0  0  0  0  0  0  0  0
   -7.7379    4.5240  -17.2781 C   0  0  0  0  0  0  0  0  0  0  0  0
   -6.4566    5.0154  -17.5899 C   0  0  0  0  0  0  0  0  0  0  0  0
   -5.7837    5.8534  -16.6765 C   0  0  0  0  0  0  0  0  0  0  0  0
   -4.4911    6.4864  -16.5978 C   0  0  0  0  0  0  0  0  0  0  0  0
   -3.2783    6.3331  -17.4624 C   0  0  0  0  0  0  0  0  0  0  0  0
   -3.3005    6.9869  -18.7730 N   0  0  0  0  0  0  0  0  0  0  0  0
   -3.9446    8.3020  -18.8174 C   0  0  0  0  0  0  0  0  0  0  0  0
   -3.7217    8.9828  -20.1792 C   0  0  0  0  0  0  0  0  0  0  0  0
   -4.1502    8.0520  -21.3134 C   0  0  0  0  0  0  0  0  0  0  0  0
   -3.9356    8.5930  -22.6469 N   0  0  0  0  0  0  0  0  0  0  0  0
   -2.7611    8.8683  -23.2495 C   0  0  0  0  0  0  0  0  0  0  0  0
   -2.8169    9.0169  -24.5347 N   0  0  0  0  0  0  0  0  0  0  0  0
   -4.1389    8.8121  -24.8221 N   0  0  0  0  0  0  0  0  0  0  0  0
   -4.8471    8.4924  -23.6694 C   0  0  0  0  0  0  0  0  0  0  0  0
   -6.0206    8.1682  -23.6094 O   0  0  0  0  0  0  0  0  0  0  0  0
   -3.4069    6.7299  -21.1703 C   0  0  0  0  0  0  0  0  0  0  0  0
   -3.7463    6.0940  -19.8356 C   0  0  0  0  0  0  0  0  0  0  0  0
   -4.4898    7.2367  -15.4322 C   0  0  0  0  0  0  0  0  0  0  0  0
   -5.6626    7.0273  -14.7776 N   0  0  0  0  0  0  0  0  0  0  0  0
   -6.4418    6.1405  -15.4804 C   0  0  0  0  0  0  0  0  0  0  0  0
  1  2  2  0
  2  3  1  0
  3  4  1  0
  4  5  2  0
  5  6  1  0
  6  7  2  0
  7  8  1  0
  7  9  1  0
  9 10  2  0
  2 11  1  0
 11 12  2  0
 12 13  1  0
 13 14  2  0
 14 15  1  0
 15 16  1  0
 16 17  1  0
 17 18  1  0
 18 19  1  0
 19 20  1  0
 20 21  1  0
 21 22  1  0
 22 23  1  0
 23 24  2  0
 24 25  1  0
 25 26  1  0
 26 27  2  0
 21 28  1  0
 28 29  1  0
 16 30  2  0
 30 31  1  0
 31 32  1  0
 10  4  1  0
 32 11  1  0
 32 15  2  0
 29 18  1  0
 26 22  1  0
M  END
>  <smiles>  (85) 
C71662-P5

>  <fragmenstein_outcome>  (85) 
acceptable

>  <inchikey>  (85) 
RBBWDEKORSUMHB-UHFFFAOYSA-N

>  <fragmenstein_mode>  (85) 
expansion

>  <HIPPO Pose ID>  (85) 
1145

>  <Energy>  (85) 
32.248434

>  <fragmenstein_error>  (85) 


>  <tags>  (85) 
{'openbind_xx01zvns2b_c1_fragmenstein', 'fragmenstein_placed'}

>  <ref_pdb>  (85) 
1

>  <scratch_subdir>  (85) 
/opt/xchem-fragalysis-2/maxwin/BulkDock/SCRATCH/511027/C71662-P5

>  <alias>  (85) 
O=C(Nc1ccc(F)cc1)c1cccc2c(CN3CCC(n4cn[nH]c4=O)CC3)c[nH]c12

>  <HIPPO Compound ID>  (85) 
81902

>  <fragmenstein_runtime>  (85) 
7.155572

$$$$
Cc1cc(Cl)c([C@H](Nc2ccc3c(c2)CNC3)C(=O)NCCCF)c2[nH]cc(CN3CCC(C4=CN=NC4=O)CC3)c12
     RDKit          3D

 42 47  0  0  0  0  0  0  0  0999 V2000
   -5.4902    5.1209  -19.2888 C   0  0  0  0  0  0  0  0  0  0  0  0
   -6.0362    5.1570  -17.8951 C   0  0  0  0  0  0  0  0  0  0  0  0
   -7.3394    4.6865  -17.7561 C   0  0  0  0  0  0  0  0  0  0  0  0
   -7.9128    4.4898  -16.5067 C   0  0  0  0  0  0  0  0  0  0  0  0
   -9.5562    4.0602  -16.5852 Cl  0  0  0  0  0  0  0  0  0  0  0  0
   -7.2259    4.7156  -15.2984 C   0  0  0  0  0  0  0  0  0  0  0  0
   -7.6465    4.1134  -13.9391 C   0  0  2  0  0  0  0  0  0  0  0  0
   -7.6458    5.1565  -12.8743 N   0  0  0  0  0  0  0  0  0  0  0  0
   -8.0094    4.8568  -11.5406 C   0  0  0  0  0  0  0  0  0  0  0  0
   -7.9072    5.9263  -10.6226 C   0  0  0  0  0  0  0  0  0  0  0  0
   -8.0709    5.7490   -9.2436 C   0  0  0  0  0  0  0  0  0  0  0  0
   -8.3427    4.4816   -8.7735 C   0  0  0  0  0  0  0  0  0  0  0  0
   -8.4759    3.4165   -9.6506 C   0  0  0  0  0  0  0  0  0  0  0  0
   -8.3205    3.5844  -11.0285 C   0  0  0  0  0  0  0  0  0  0  0  0
   -8.7223    2.1723   -8.8595 C   0  0  0  0  0  0  0  0  0  0  0  0
   -8.9512    2.6064   -7.4551 N   0  0  0  0  0  0  0  0  0  0  0  0
   -8.4955    4.0064   -7.3687 C   0  0  0  0  0  0  0  0  0  0  0  0
   -6.6799    2.8963  -13.5345 C   0  0  0  0  0  0  0  0  0  0  0  0
   -6.8853    1.7940  -13.8588 O   0  0  0  0  0  0  0  0  0  0  0  0
   -5.4863    3.5081  -12.7537 N   0  0  0  0  0  0  0  0  0  0  0  0
   -4.3550    2.8756  -12.1337 C   0  0  0  0  0  0  0  0  0  0  0  0
   -4.7829    1.9192  -11.0301 C   0  0  0  0  0  0  0  0  0  0  0  0
   -3.6139    1.0692  -10.5810 C   0  0  0  0  0  0  0  0  0  0  0  0
   -2.6580    1.8727  -10.0359 F   0  0  0  0  0  0  0  0  0  0  0  0
   -6.0617    5.4902  -15.4980 C   0  0  0  0  0  0  0  0  0  0  0  0
   -5.3370    6.1797  -14.5569 N   0  0  0  0  0  0  0  0  0  0  0  0
   -4.2235    6.7249  -15.1115 C   0  0  0  0  0  0  0  0  0  0  0  0
   -4.1877    6.3913  -16.4549 C   0  0  0  0  0  0  0  0  0  0  0  0
   -2.9808    6.6520  -17.3072 C   0  0  0  0  0  0  0  0  0  0  0  0
   -3.2631    6.9828  -18.7024 N   0  0  0  0  0  0  0  0  0  0  0  0
   -3.6944    8.3560  -18.9258 C   0  0  0  0  0  0  0  0  0  0  0  0
   -4.2052    8.5514  -20.3686 C   0  0  0  0  0  0  0  0  0  0  0  0
   -3.5967    7.5601  -21.3831 C   0  0  0  0  0  0  0  0  0  0  0  0
   -3.6588    8.0493  -22.7875 C   0  0  0  0  0  0  0  0  0  0  0  0
   -2.7367    8.3150  -23.7080 C   0  0  0  0  0  0  0  0  0  0  0  0
   -3.2410    8.6910  -24.9128 N   0  0  0  0  0  0  0  0  0  0  0  0
   -4.4963    8.6825  -24.8476 N   0  0  0  0  0  0  0  0  0  0  0  0
   -4.8740    8.3129  -23.5694 C   0  0  0  0  0  0  0  0  0  0  0  0
   -6.0088    8.2462  -23.1259 O   0  0  0  0  0  0  0  0  0  0  0  0
   -2.1713    7.2032  -20.9496 C   0  0  0  0  0  0  0  0  0  0  0  0
   -2.1324    6.5997  -19.5464 C   0  0  0  0  0  0  0  0  0  0  0  0
   -5.4245    5.6969  -16.7374 C   0  0  0  0  0  0  0  0  0  0  0  0
  1  2  1  0
  2  3  2  0
  3  4  1  0
  4  5  1  0
  4  6  2  0
  6  7  1  0
  7  8  1  1
  8  9  1  0
  9 10  2  0
 10 11  1  0
 11 12  2  0
 12 13  1  0
 13 14  2  0
 13 15  1  0
 15 16  1  0
 16 17  1  0
  7 18  1  0
 18 19  2  0
 18 20  1  0
 20 21  1  0
 21 22  1  0
 22 23  1  0
 23 24  1  0
  6 25  1  0
 25 26  1  0
 26 27  1  0
 27 28  2  0
 28 29  1  0
 29 30  1  0
 30 31  1  0
 31 32  1  0
 32 33  1  0
 33 34  1  0
 34 35  2  0
 35 36  1  0
 36 37  2  0
 37 38  1  0
 38 39  2  0
 33 40  1  0
 40 41  1  0
 28 42  1  0
 42  2  1  0
 14  9  1  0
 42 25  2  0
 17 12  1  0
 41 30  1  0
 38 34  1  0
M  END
>  <smiles>  (86) 
C71668-P5

>  <fragmenstein_outcome>  (86) 
acceptable

>  <inchikey>  (86) 
JSXHHTCAZSIEFP-UHFFFAOYSA-N

>  <fragmenstein_mode>  (86) 
expansion

>  <HIPPO Pose ID>  (86) 
1152

>  <Energy>  (86) 
116.110406

>  <fragmenstein_error>  (86) 


>  <tags>  (86) 
{'openbind_xx01zvns2b_c1_fragmenstein', 'fragmenstein_placed'}

>  <ref_pdb>  (86) 
1

>  <scratch_subdir>  (86) 
/opt/xchem-fragalysis-2/maxwin/BulkDock/SCRATCH/511027/C71668-P5

>  <alias>  (86) 
Cc1cc(Cl)c([C@H](Nc2ccc3c(c2)CNC3)C(=O)NCCCF)c2[nH]cc(CN3CCC(C4=CN=NC4=O)CC3)c12

>  <HIPPO Compound ID>  (86) 
92590

>  <fragmenstein_runtime>  (86) 
14.331505

$$$$
O=C(Nc1cccc(Br)c1)c1cccc2c(CN3CCC(n4cn[nH]c4=O)CC3)c[nH]c12
     RDKit          3D

 32 36  0  0  0  0  0  0  0  0999 V2000
   -8.2591    7.0345  -13.6530 O   0  0  0  0  0  0  0  0  0  0  0  0
   -8.0791    5.8960  -13.8493 C   0  0  0  0  0  0  0  0  0  0  0  0
   -8.1221    4.6921  -12.8789 N   0  0  0  0  0  0  0  0  0  0  0  0
   -8.2957    4.6494  -11.4911 C   0  0  0  0  0  0  0  0  0  0  0  0
   -8.2074    5.8522  -10.7761 C   0  0  0  0  0  0  0  0  0  0  0  0
   -8.2460    5.8709   -9.3841 C   0  0  0  0  0  0  0  0  0  0  0  0
   -8.4161    4.6840   -8.6905 C   0  0  0  0  0  0  0  0  0  0  0  0
   -8.5485    3.4878   -9.3939 C   0  0  0  0  0  0  0  0  0  0  0  0
   -8.9133    1.9493   -8.3686 Br  0  0  0  0  0  0  0  0  0  0  0  0
   -8.4542    3.4503  -10.7932 C   0  0  0  0  0  0  0  0  0  0  0  0
   -7.6430    5.5311  -15.2174 C   0  0  0  0  0  0  0  0  0  0  0  0
   -8.3164    4.7420  -16.1443 C   0  0  0  0  0  0  0  0  0  0  0  0
   -7.7341    4.5066  -17.3951 C   0  0  0  0  0  0  0  0  0  0  0  0
   -6.4481    4.9886  -17.7148 C   0  0  0  0  0  0  0  0  0  0  0  0
   -5.7566    5.8012  -16.7932 C   0  0  0  0  0  0  0  0  0  0  0  0
   -4.4654    6.4351  -16.7194 C   0  0  0  0  0  0  0  0  0  0  0  0
   -3.2824    6.3313  -17.6228 C   0  0  0  0  0  0  0  0  0  0  0  0
   -3.3956    6.9894  -18.9183 N   0  0  0  0  0  0  0  0  0  0  0  0
   -3.9523    8.3432  -18.9343 C   0  0  0  0  0  0  0  0  0  0  0  0
   -4.2989    8.8159  -20.3611 C   0  0  0  0  0  0  0  0  0  0  0  0
   -3.3330    8.2090  -21.3790 C   0  0  0  0  0  0  0  0  0  0  0  0
   -3.5639    8.6116  -22.7620 N   0  0  0  0  0  0  0  0  0  0  0  0
   -2.5976    8.6827  -23.7035 C   0  0  0  0  0  0  0  0  0  0  0  0
   -3.0099    8.7226  -24.9288 N   0  0  0  0  0  0  0  0  0  0  0  0
   -4.3695    8.6542  -24.8067 N   0  0  0  0  0  0  0  0  0  0  0  0
   -4.7356    8.5019  -23.4721 C   0  0  0  0  0  0  0  0  0  0  0  0
   -5.8623    8.2713  -23.0697 O   0  0  0  0  0  0  0  0  0  0  0  0
   -3.2957    6.6791  -21.2794 C   0  0  0  0  0  0  0  0  0  0  0  0
   -3.9045    6.1515  -19.9852 C   0  0  0  0  0  0  0  0  0  0  0  0
   -4.4405    7.1570  -15.5371 C   0  0  0  0  0  0  0  0  0  0  0  0
   -5.6112    6.9507  -14.8819 N   0  0  0  0  0  0  0  0  0  0  0  0
   -6.4036    6.0794  -15.5926 C   0  0  0  0  0  0  0  0  0  0  0  0
  1  2  2  0
  2  3  1  0
  3  4  1  0
  4  5  2  0
  5  6  1  0
  6  7  2  0
  7  8  1  0
  8  9  1  0
  8 10  2  0
  2 11  1  0
 11 12  2  0
 12 13  1  0
 13 14  2  0
 14 15  1  0
 15 16  1  0
 16 17  1  0
 17 18  1  0
 18 19  1  0
 19 20  1  0
 20 21  1  0
 21 22  1  0
 22 23  1  0
 23 24  2  0
 24 25  1  0
 25 26  1  0
 26 27  2  0
 21 28  1  0
 28 29  1  0
 16 30  2  0
 30 31  1  0
 31 32  1  0
 10  4  1  0
 32 11  1  0
 32 15  2  0
 29 18  1  0
 26 22  1  0
M  END
>  <smiles>  (87) 
C71674-P5

>  <fragmenstein_outcome>  (87) 
acceptable

>  <inchikey>  (87) 
CTFJBGHCQXMJRQ-UHFFFAOYSA-N

>  <fragmenstein_mode>  (87) 
expansion

>  <HIPPO Pose ID>  (87) 
1157

>  <Energy>  (87) 
42.564739

>  <fragmenstein_error>  (87) 


>  <tags>  (87) 
{'openbind_xx01zvns2b_c1_fragmenstein', 'fragmenstein_placed'}

>  <ref_pdb>  (87) 
1

>  <scratch_subdir>  (87) 
/opt/xchem-fragalysis-2/maxwin/BulkDock/SCRATCH/511027/C71674-P5

>  <alias>  (87) 
O=C(Nc1cccc(Br)c1)c1cccc2c(CN3CCC(n4cn[nH]c4=O)CC3)c[nH]c12

>  <HIPPO Compound ID>  (87) 
85992

>  <fragmenstein_runtime>  (87) 
3.832942

$$$$
C[C@H](c1c[nH]c2c([C@@H](Nc3ccc4c(c3)CNC4)C(=O)NCC(F)F)c(Cl)ccc12)N1CCC(C2=CN=NC2=O)CC1
     RDKit          3D

 42 47  0  0  0  0  0  0  0  0999 V2000
   -2.1968    5.2397  -17.7414 C   0  0  0  0  0  0  0  0  0  0  0  0
   -2.8677    6.6168  -17.7673 C   0  0  2  0  0  0  0  0  0  0  0  0
   -4.0641    6.6612  -16.8677 C   0  0  0  0  0  0  0  0  0  0  0  0
   -4.1116    7.4600  -15.7460 C   0  0  0  0  0  0  0  0  0  0  0  0
   -5.2850    7.2270  -15.1147 N   0  0  0  0  0  0  0  0  0  0  0  0
   -5.9647    6.1733  -15.6965 C   0  0  0  0  0  0  0  0  0  0  0  0
   -7.1149    5.4736  -15.2294 C   0  0  0  0  0  0  0  0  0  0  0  0
   -7.6130    5.6109  -13.7743 C   0  0  1  0  0  0  0  0  0  0  0  0
   -8.1030    4.3699  -13.1112 N   0  0  0  0  0  0  0  0  0  0  0  0
   -8.3969    4.3801  -11.7231 C   0  0  0  0  0  0  0  0  0  0  0  0
   -8.3779    5.5564  -10.9311 C   0  0  0  0  0  0  0  0  0  0  0  0
   -8.3966    5.5362   -9.5306 C   0  0  0  0  0  0  0  0  0  0  0  0
   -8.5054    4.3185   -8.9041 C   0  0  0  0  0  0  0  0  0  0  0  0
   -8.5930    3.1476   -9.6457 C   0  0  0  0  0  0  0  0  0  0  0  0
   -8.5227    3.1607  -11.0406 C   0  0  0  0  0  0  0  0  0  0  0  0
   -8.7038    2.0009   -8.6905 C   0  0  0  0  0  0  0  0  0  0  0  0
   -9.0323    2.6084   -7.3713 N   0  0  0  0  0  0  0  0  0  0  0  0
   -8.5414    3.9980   -7.4487 C   0  0  0  0  0  0  0  0  0  0  0  0
   -6.3922    6.1453  -12.8729 C   0  0  0  0  0  0  0  0  0  0  0  0
   -6.2274    7.2837  -12.6478 O   0  0  0  0  0  0  0  0  0  0  0  0
   -5.5508    4.9036  -12.4583 N   0  0  0  0  0  0  0  0  0  0  0  0
   -4.2882    4.8164  -11.7654 C   0  0  0  0  0  0  0  0  0  0  0  0
   -4.4083    4.9499  -10.2482 C   0  0  0  0  0  0  0  0  0  0  0  0
   -4.6348    6.2460   -9.9082 F   0  0  0  0  0  0  0  0  0  0  0  0
   -3.2135    4.6188   -9.6841 F   0  0  0  0  0  0  0  0  0  0  0  0
   -7.7633    4.8020  -16.2876 C   0  0  0  0  0  0  0  0  0  0  0  0
   -9.3807    4.2808  -16.1777 Cl  0  0  0  0  0  0  0  0  0  0  0  0
   -7.1807    4.5960  -17.5428 C   0  0  0  0  0  0  0  0  0  0  0  0
   -5.9050    5.0625  -17.8207 C   0  0  0  0  0  0  0  0  0  0  0  0
   -5.3044    5.9359  -16.9069 C   0  0  0  0  0  0  0  0  0  0  0  0
   -3.0923    7.1521  -19.1101 N   0  0  0  0  0  0  0  0  0  0  0  0
   -3.6261    8.5190  -19.1595 C   0  0  0  0  0  0  0  0  0  0  0  0
   -4.0294    8.9429  -20.5862 C   0  0  0  0  0  0  0  0  0  0  0  0
   -3.1453    8.2468  -21.6244 C   0  0  0  0  0  0  0  0  0  0  0  0
   -3.4415    8.5747  -23.0376 C   0  0  0  0  0  0  0  0  0  0  0  0
   -2.6278    8.8950  -24.0368 C   0  0  0  0  0  0  0  0  0  0  0  0
   -3.2532    9.0348  -25.2348 N   0  0  0  0  0  0  0  0  0  0  0  0
   -4.4822    8.8135  -25.0817 N   0  0  0  0  0  0  0  0  0  0  0  0
   -4.7221    8.5266  -23.7506 C   0  0  0  0  0  0  0  0  0  0  0  0
   -5.7987    8.2889  -23.2270 O   0  0  0  0  0  0  0  0  0  0  0  0
   -3.1794    6.7243  -21.4547 C   0  0  0  0  0  0  0  0  0  0  0  0
   -3.7070    6.2870  -20.0948 C   0  0  0  0  0  0  0  0  0  0  0  0
  2  1  1  6
  2  3  1  0
  3  4  2  0
  4  5  1  0
  5  6  1  0
  6  7  2  0
  7  8  1  0
  8  9  1  1
  9 10  1  0
 10 11  2  0
 11 12  1  0
 12 13  2  0
 13 14  1  0
 14 15  2  0
 14 16  1  0
 16 17  1  0
 17 18  1  0
  8 19  1  0
 19 20  2  0
 19 21  1  0
 21 22  1  0
 22 23  1  0
 23 24  1  0
 23 25  1  0
  7 26  1  0
 26 27  1  0
 26 28  2  0
 28 29  1  0
 29 30  2  0
  2 31  1  0
 31 32  1  0
 32 33  1  0
 33 34  1  0
 34 35  1  0
 35 36  2  0
 36 37  1  0
 37 38  2  0
 38 39  1  0
 39 40  2  0
 34 41  1  0
 41 42  1  0
 30  3  1  0
 42 31  1  0
 30  6  1  0
 39 35  1  0
 15 10  1  0
 18 13  1  0
M  END
>  <smiles>  (88) 
C71675-P5

>  <fragmenstein_outcome>  (88) 
acceptable

>  <inchikey>  (88) 
MQGJFYGRXYWIHZ-UHFFFAOYSA-N

>  <fragmenstein_mode>  (88) 
expansion

>  <HIPPO Pose ID>  (88) 
1159

>  <Energy>  (88) 
155.25186

>  <fragmenstein_error>  (88) 


>  <tags>  (88) 
{'openbind_xx01zvns2b_c1_fragmenstein', 'fragmenstein_placed'}

>  <ref_pdb>  (88) 
1

>  <scratch_subdir>  (88) 
/opt/xchem-fragalysis-2/maxwin/BulkDock/SCRATCH/511027/C71675-P5

>  <alias>  (88) 
C[C@H](c1c[nH]c2c([C@@H](Nc3ccc4c(c3)CNC4)C(=O)NCC(F)F)c(Cl)ccc12)N1CCC(C2=CN=NC2=O)CC1

>  <HIPPO Compound ID>  (88) 
77420

>  <fragmenstein_runtime>  (88) 
8.613954

$$$$
O=C(Nc1cccc(F)c1)c1cccc2c(CN3CCC(n4cn[nH]c4=O)CC3)c[nH]c12
     RDKit          3D

 32 36  0  0  0  0  0  0  0  0999 V2000
   -8.3041    6.9841  -13.6380 O   0  0  0  0  0  0  0  0  0  0  0  0
   -8.1165    5.8616  -13.9010 C   0  0  0  0  0  0  0  0  0  0  0  0
   -8.1532    4.6045  -13.0059 N   0  0  0  0  0  0  0  0  0  0  0  0
   -8.3286    4.4782  -11.6274 C   0  0  0  0  0  0  0  0  0  0  0  0
   -8.1842    5.6041  -10.8063 C   0  0  0  0  0  0  0  0  0  0  0  0
   -8.2451    5.4880   -9.4154 C   0  0  0  0  0  0  0  0  0  0  0  0
   -8.4893    4.2471   -8.8393 C   0  0  0  0  0  0  0  0  0  0  0  0
   -8.6669    3.1388   -9.6578 C   0  0  0  0  0  0  0  0  0  0  0  0
   -8.9731    1.9676   -9.0858 F   0  0  0  0  0  0  0  0  0  0  0  0
   -8.5561    3.2349  -11.0455 C   0  0  0  0  0  0  0  0  0  0  0  0
   -7.6745    5.5524  -15.2818 C   0  0  0  0  0  0  0  0  0  0  0  0
   -8.3319    4.7621  -16.2207 C   0  0  0  0  0  0  0  0  0  0  0  0
   -7.7316    4.5310  -17.4624 C   0  0  0  0  0  0  0  0  0  0  0  0
   -6.4428    5.0176  -17.7589 C   0  0  0  0  0  0  0  0  0  0  0  0
   -5.7678    5.8318  -16.8259 C   0  0  0  0  0  0  0  0  0  0  0  0
   -4.4779    6.4655  -16.7309 C   0  0  0  0  0  0  0  0  0  0  0  0
   -3.2828    6.3660  -17.6196 C   0  0  0  0  0  0  0  0  0  0  0  0
   -3.3866    7.0144  -18.9211 N   0  0  0  0  0  0  0  0  0  0  0  0
   -3.9436    8.3679  -18.9479 C   0  0  0  0  0  0  0  0  0  0  0  0
   -4.2917    8.8293  -20.3777 C   0  0  0  0  0  0  0  0  0  0  0  0
   -3.3243    8.2184  -21.3919 C   0  0  0  0  0  0  0  0  0  0  0  0
   -3.5591    8.6107  -22.7771 N   0  0  0  0  0  0  0  0  0  0  0  0
   -2.5952    8.6790  -23.7211 C   0  0  0  0  0  0  0  0  0  0  0  0
   -3.0104    8.7117  -24.9456 N   0  0  0  0  0  0  0  0  0  0  0  0
   -4.3696    8.6411  -24.8199 N   0  0  0  0  0  0  0  0  0  0  0  0
   -4.7323    8.4953  -23.4838 C   0  0  0  0  0  0  0  0  0  0  0  0
   -5.8578    8.2656  -23.0774 O   0  0  0  0  0  0  0  0  0  0  0  0
   -3.2798    6.6894  -21.2817 C   0  0  0  0  0  0  0  0  0  0  0  0
   -3.8899    6.1695  -19.9853 C   0  0  0  0  0  0  0  0  0  0  0  0
   -4.4690    7.1791  -15.5430 C   0  0  0  0  0  0  0  0  0  0  0  0
   -5.6478    6.9671  -14.9033 N   0  0  0  0  0  0  0  0  0  0  0  0
   -6.4327    6.1066  -15.6340 C   0  0  0  0  0  0  0  0  0  0  0  0
  1  2  2  0
  2  3  1  0
  3  4  1  0
  4  5  2  0
  5  6  1  0
  6  7  2  0
  7  8  1  0
  8  9  1  0
  8 10  2  0
  2 11  1  0
 11 12  2  0
 12 13  1  0
 13 14  2  0
 14 15  1  0
 15 16  1  0
 16 17  1  0
 17 18  1  0
 18 19  1  0
 19 20  1  0
 20 21  1  0
 21 22  1  0
 22 23  1  0
 23 24  2  0
 24 25  1  0
 25 26  1  0
 26 27  2  0
 21 28  1  0
 28 29  1  0
 16 30  2  0
 30 31  1  0
 31 32  1  0
 10  4  1  0
 32 11  1  0
 32 15  2  0
 29 18  1  0
 26 22  1  0
M  END
>  <smiles>  (89) 
C71678-P5

>  <fragmenstein_outcome>  (89) 
acceptable

>  <inchikey>  (89) 
QCBIPNBSIDHTQE-UHFFFAOYSA-N

>  <fragmenstein_mode>  (89) 
expansion

>  <HIPPO Pose ID>  (89) 
1162

>  <Energy>  (89) 
37.570249

>  <fragmenstein_error>  (89) 


>  <tags>  (89) 
{'openbind_xx01zvns2b_c1_fragmenstein', 'fragmenstein_placed'}

>  <ref_pdb>  (89) 
1

>  <scratch_subdir>  (89) 
/opt/xchem-fragalysis-2/maxwin/BulkDock/SCRATCH/511027/C71678-P5

>  <alias>  (89) 
O=C(Nc1cccc(F)c1)c1cccc2c(CN3CCC(n4cn[nH]c4=O)CC3)c[nH]c12

>  <HIPPO Compound ID>  (89) 
71678

>  <fragmenstein_runtime>  (89) 
8.384234

$$$$
C[C@@H]1CN(Cc2c[nH]c3c(C(=O)Nc4ccc5c(c4)CNC5)cccc23)CC[C@H]1n1cn[nH]c1=O
     RDKit          3D

 35 40  0  0  0  0  0  0  0  0999 V2000
   -3.9489   10.0374  -19.7553 C   0  0  0  0  0  0  0  0  0  0  0  0
   -4.3392    8.7292  -20.4570 C   0  0  2  0  0  0  0  0  0  0  0  0
   -4.6102    7.6092  -19.4322 C   0  0  0  0  0  0  0  0  0  0  0  0
   -3.3783    7.1263  -18.7810 N   0  0  0  0  0  0  0  0  0  0  0  0
   -3.6307    5.9673  -17.9085 C   0  0  0  0  0  0  0  0  0  0  0  0
   -4.6324    6.2382  -16.8445 C   0  0  0  0  0  0  0  0  0  0  0  0
   -4.4330    6.9636  -15.6855 C   0  0  0  0  0  0  0  0  0  0  0  0
   -5.5590    6.8580  -14.9252 N   0  0  0  0  0  0  0  0  0  0  0  0
   -6.4767    6.0413  -15.5474 C   0  0  0  0  0  0  0  0  0  0  0  0
   -7.7054    5.5625  -15.0696 C   0  0  0  0  0  0  0  0  0  0  0  0
   -8.0316    5.9208  -13.6663 C   0  0  0  0  0  0  0  0  0  0  0  0
   -8.0603    7.0590  -13.4018 O   0  0  0  0  0  0  0  0  0  0  0  0
   -8.1813    4.6771  -12.7601 N   0  0  0  0  0  0  0  0  0  0  0  0
   -8.2989    4.5747  -11.3687 C   0  0  0  0  0  0  0  0  0  0  0  0
   -8.1918    5.7243  -10.5613 C   0  0  0  0  0  0  0  0  0  0  0  0
   -8.2230    5.6396   -9.1648 C   0  0  0  0  0  0  0  0  0  0  0  0
   -8.3928    4.3949   -8.5934 C   0  0  0  0  0  0  0  0  0  0  0  0
   -8.5081    3.2533   -9.3824 C   0  0  0  0  0  0  0  0  0  0  0  0
   -8.4460    3.3205  -10.7699 C   0  0  0  0  0  0  0  0  0  0  0  0
   -8.6595    2.0672   -8.4854 C   0  0  0  0  0  0  0  0  0  0  0  0
   -8.9949    2.6266   -7.1482 N   0  0  0  0  0  0  0  0  0  0  0  0
   -8.4691    4.0089   -7.1542 C   0  0  0  0  0  0  0  0  0  0  0  0
   -8.4773    4.7835  -15.9346 C   0  0  0  0  0  0  0  0  0  0  0  0
   -8.0267    4.5152  -17.2324 C   0  0  0  0  0  0  0  0  0  0  0  0
   -6.7682    4.9547  -17.6691 C   0  0  0  0  0  0  0  0  0  0  0  0
   -5.9653    5.7157  -16.7967 C   0  0  0  0  0  0  0  0  0  0  0  0
   -2.3290    6.7585  -19.7415 C   0  0  0  0  0  0  0  0  0  0  0  0
   -2.7388    6.8929  -21.2018 C   0  0  0  0  0  0  0  0  0  0  0  0
   -3.2468    8.3105  -21.4663 C   0  0  1  0  0  0  0  0  0  0  0  0
   -3.5970    8.4676  -22.8756 N   0  0  0  0  0  0  0  0  0  0  0  0
   -2.6934    8.6269  -23.8680 C   0  0  0  0  0  0  0  0  0  0  0  0
   -3.1493    8.4915  -25.0703 N   0  0  0  0  0  0  0  0  0  0  0  0
   -4.4701    8.2056  -24.8737 N   0  0  0  0  0  0  0  0  0  0  0  0
   -4.7631    8.1313  -23.5154 C   0  0  0  0  0  0  0  0  0  0  0  0
   -5.8403    7.8166  -23.0434 O   0  0  0  0  0  0  0  0  0  0  0  0
  2  1  1  1
  2  3  1  0
  3  4  1  0
  4  5  1  0
  5  6  1  0
  6  7  2  0
  7  8  1  0
  8  9  1  0
  9 10  2  0
 10 11  1  0
 11 12  2  0
 11 13  1  0
 13 14  1  0
 14 15  2  0
 15 16  1  0
 16 17  2  0
 17 18  1  0
 18 19  2  0
 18 20  1  0
 20 21  1  0
 21 22  1  0
 10 23  1  0
 23 24  2  0
 24 25  1  0
 25 26  2  0
  4 27  1  0
 27 28  1  0
 28 29  1  0
 29 30  1  6
 30 31  1  0
 31 32  2  0
 32 33  1  0
 33 34  1  0
 34 35  2  0
 29  2  1  0
 34 30  1  0
 26  6  1  0
 26  9  1  0
 19 14  1  0
 22 17  1  0
M  END
>  <smiles>  (90) 
C71689-P5

>  <fragmenstein_outcome>  (90) 
acceptable

>  <inchikey>  (90) 
KYMWYHXQCUZSBK-UHFFFAOYSA-N

>  <fragmenstein_mode>  (90) 
expansion

>  <HIPPO Pose ID>  (90) 
1172

>  <Energy>  (90) 
46.73953

>  <fragmenstein_error>  (90) 


>  <tags>  (90) 
{'openbind_xx01zvns2b_c1_fragmenstein', 'fragmenstein_placed'}

>  <ref_pdb>  (90) 
1

>  <scratch_subdir>  (90) 
/opt/xchem-fragalysis-2/maxwin/BulkDock/SCRATCH/511027/C71689-P5

>  <alias>  (90) 
C[C@@H]1CN(Cc2c[nH]c3c(C(=O)Nc4ccc5c(c4)CNC5)cccc23)CC[C@H]1n1cn[nH]c1=O

>  <HIPPO Compound ID>  (90) 
71689

>  <fragmenstein_runtime>  (90) 
10.583421

$$$$
O=C(Nc1ccc2c(c1)CNC2)[C@@H]1[C@H]2NC[C@H](CN3CCC(n4cn[nH]c4=O)CC3)[C@H]2C[C@H]2C(=O)CN[C@@H]12
     RDKit          3D

 38 44  0  0  0  0  0  0  0  0999 V2000
   -7.6711    3.7740  -19.7541 O   0  0  0  0  0  0  0  0  0  0  0  0
   -8.1695    4.1815  -18.7144 C   0  0  0  0  0  0  0  0  0  0  0  0
   -9.4899    3.7672  -18.1478 C   0  0  0  0  0  0  0  0  0  0  0  0
   -9.3086    3.9428  -16.7012 N   0  0  0  0  0  0  0  0  0  0  0  0
   -8.3264    5.0223  -16.5026 C   0  0  2  0  0  0  0  0  0  0  0  0
   -7.5724    5.2245  -17.8351 C   0  0  1  0  0  0  0  0  0  0  0  0
   -6.0746    5.1326  -17.7408 C   0  0  0  0  0  0  0  0  0  0  0  0
   -5.6107    6.1137  -16.6813 C   0  0  2  0  0  0  0  0  0  0  0  0
   -4.0881    6.0881  -16.4851 C   0  0  1  0  0  0  0  0  0  0  0  0
   -3.2893    7.2702  -17.0652 C   0  0  0  0  0  0  0  0  0  0  0  0
   -3.2586    7.5203  -18.5112 N   0  0  0  0  0  0  0  0  0  0  0  0
   -4.4325    8.2281  -19.0215 C   0  0  0  0  0  0  0  0  0  0  0  0
   -4.2248    8.6779  -20.4664 C   0  0  0  0  0  0  0  0  0  0  0  0
   -3.8894    7.4689  -21.3407 C   0  0  0  0  0  0  0  0  0  0  0  0
   -3.7424    7.8401  -22.7433 N   0  0  0  0  0  0  0  0  0  0  0  0
   -2.6546    8.2797  -23.4043 C   0  0  0  0  0  0  0  0  0  0  0  0
   -2.8655    8.6990  -24.6114 N   0  0  0  0  0  0  0  0  0  0  0  0
   -4.2169    8.5569  -24.7651 N   0  0  0  0  0  0  0  0  0  0  0  0
   -4.7974    8.1130  -23.5816 C   0  0  0  0  0  0  0  0  0  0  0  0
   -5.9917    8.0688  -23.3414 O   0  0  0  0  0  0  0  0  0  0  0  0
   -2.6515    6.7697  -20.7662 C   0  0  0  0  0  0  0  0  0  0  0  0
   -2.8788    6.3600  -19.3121 C   0  0  0  0  0  0  0  0  0  0  0  0
   -3.9408    6.0640  -14.9632 C   0  0  0  0  0  0  0  0  0  0  0  0
   -5.0816    5.2649  -14.5330 N   0  0  0  0  0  0  0  0  0  0  0  0
   -6.2174    5.7849  -15.3043 C   0  0  2  0  0  0  0  0  0  0  0  0
   -7.4309    4.8172  -15.2645 C   0  0  1  0  0  0  0  0  0  0  0  0
   -8.1651    5.2363  -13.9619 C   0  0  0  0  0  0  0  0  0  0  0  0
   -8.8144    6.2118  -13.9078 O   0  0  0  0  0  0  0  0  0  0  0  0
   -7.7754    4.2179  -12.8448 N   0  0  0  0  0  0  0  0  0  0  0  0
   -8.0170    4.2442  -11.4703 C   0  0  0  0  0  0  0  0  0  0  0  0
   -8.2133    5.4621  -10.8000 C   0  0  0  0  0  0  0  0  0  0  0  0
   -8.3465    5.5049   -9.4042 C   0  0  0  0  0  0  0  0  0  0  0  0
   -8.3360    4.3128   -8.7045 C   0  0  0  0  0  0  0  0  0  0  0  0
   -8.1880    3.1033   -9.3707 C   0  0  0  0  0  0  0  0  0  0  0  0
   -7.9882    3.0538  -10.7445 C   0  0  0  0  0  0  0  0  0  0  0  0
   -8.3015    1.9874   -8.3863 C   0  0  0  0  0  0  0  0  0  0  0  0
   -8.1817    2.6252   -7.0478 N   0  0  0  0  0  0  0  0  0  0  0  0
   -8.4989    4.0561   -7.2441 C   0  0  0  0  0  0  0  0  0  0  0  0
  1  2  2  0
  2  3  1  0
  3  4  1  0
  5  4  1  6
  5  6  1  0
  6  7  1  1
  8  7  1  6
  8  9  1  0
  9 10  1  1
 10 11  1  0
 11 12  1  0
 12 13  1  0
 13 14  1  0
 14 15  1  0
 15 16  1  0
 16 17  2  0
 17 18  1  0
 18 19  1  0
 19 20  2  0
 14 21  1  0
 21 22  1  0
  9 23  1  0
 23 24  1  0
 25 24  1  1
 25 26  1  0
 26 27  1  1
 27 28  2  0
 27 29  1  0
 29 30  1  0
 30 31  2  0
 31 32  1  0
 32 33  2  0
 33 34  1  0
 34 35  2  0
 34 36  1  0
 36 37  1  0
 37 38  1  0
  6  2  1  0
 25  8  1  0
 35 30  1  0
 26  5  1  0
 38 33  1  0
 22 11  1  0
 19 15  1  0
M  END
>  <smiles>  (91) 
C71690-P5

>  <fragmenstein_outcome>  (91) 
acceptable

>  <inchikey>  (91) 
YKMSAALNNXJRFH-UHFFFAOYSA-N

>  <fragmenstein_mode>  (91) 
expansion

>  <HIPPO Pose ID>  (91) 
1173

>  <Energy>  (91) 
74.893086

>  <fragmenstein_error>  (91) 


>  <tags>  (91) 
{'openbind_xx01zvns2b_c1_fragmenstein', 'fragmenstein_placed'}

>  <ref_pdb>  (91) 
1

>  <scratch_subdir>  (91) 
/opt/xchem-fragalysis-2/maxwin/BulkDock/SCRATCH/511027/C71690-P5

>  <alias>  (91) 
O=C(Nc1ccc2c(c1)CNC2)[C@@H]1[C@H]2NC[C@H](CN3CCC(n4cn[nH]c4=O)CC3)[C@H]2C[C@H]2C(=O)CN[C@@H]12

>  <HIPPO Compound ID>  (91) 
103321

>  <fragmenstein_runtime>  (91) 
8.906334

$$$$
O=C(Nc1ccc2c(c1)CNC2)[C@H]1[C@H]2NCC(=O)[C@@H]2C[C@@H]2[C@@H](CN3CCC(n4cn[nH]c4=O)CC3)CN[C@@H]21
     RDKit          3D

 38 44  0  0  0  0  0  0  0  0999 V2000
   -7.5698    3.2757  -19.8757 O   0  0  0  0  0  0  0  0  0  0  0  0
   -8.0395    3.7064  -18.8335 C   0  0  0  0  0  0  0  0  0  0  0  0
   -9.3591    3.3194  -18.1816 C   0  0  0  0  0  0  0  0  0  0  0  0
   -9.2151    3.7835  -16.7586 N   0  0  0  0  0  0  0  0  0  0  0  0
   -7.7841    4.0775  -16.6087 C   0  0  1  0  0  0  0  0  0  0  0  0
   -7.3784    4.6988  -17.9423 C   0  0  1  0  0  0  0  0  0  0  0  0
   -5.9087    4.9235  -18.0558 C   0  0  0  0  0  0  0  0  0  0  0  0
   -5.4993    5.9545  -17.0104 C   0  0  2  0  0  0  0  0  0  0  0  0
   -4.0112    5.8714  -16.6535 C   0  0  1  0  0  0  0  0  0  0  0  0
   -3.1684    7.0669  -17.1610 C   0  0  0  0  0  0  0  0  0  0  0  0
   -3.0476    7.3220  -18.6111 N   0  0  0  0  0  0  0  0  0  0  0  0
   -4.1108    8.1646  -19.1543 C   0  0  0  0  0  0  0  0  0  0  0  0
   -3.8342    8.5661  -20.5976 C   0  0  0  0  0  0  0  0  0  0  0  0
   -3.6739    7.3058  -21.4477 C   0  0  0  0  0  0  0  0  0  0  0  0
   -3.5387    7.6381  -22.8595 N   0  0  0  0  0  0  0  0  0  0  0  0
   -2.4435    8.0359  -23.5354 C   0  0  0  0  0  0  0  0  0  0  0  0
   -2.6606    8.4823  -24.7324 N   0  0  0  0  0  0  0  0  0  0  0  0
   -4.0201    8.4041  -24.8615 N   0  0  0  0  0  0  0  0  0  0  0  0
   -4.5954    7.9686  -23.6734 C   0  0  0  0  0  0  0  0  0  0  0  0
   -5.7865    7.9623  -23.4110 O   0  0  0  0  0  0  0  0  0  0  0  0
   -2.5130    6.4750  -20.8906 C   0  0  0  0  0  0  0  0  0  0  0  0
   -2.7411    6.1358  -19.4137 C   0  0  0  0  0  0  0  0  0  0  0  0
   -4.0168    5.7914  -15.1242 C   0  0  0  0  0  0  0  0  0  0  0  0
   -5.2896    6.3572  -14.7049 N   0  0  0  0  0  0  0  0  0  0  0  0
   -6.2915    5.9344  -15.6881 C   0  0  2  0  0  0  0  0  0  0  0  0
   -7.1093    4.6661  -15.3505 C   0  0  1  0  0  0  0  0  0  0  0  0
   -8.0121    5.0173  -14.1386 C   0  0  0  0  0  0  0  0  0  0  0  0
   -8.7422    5.9373  -14.1587 O   0  0  0  0  0  0  0  0  0  0  0  0
   -7.6619    4.0220  -12.9746 N   0  0  0  0  0  0  0  0  0  0  0  0
   -8.0538    4.0221  -11.6312 C   0  0  0  0  0  0  0  0  0  0  0  0
   -8.2552    5.2478  -10.9723 C   0  0  0  0  0  0  0  0  0  0  0  0
   -8.4185    5.3012   -9.5799 C   0  0  0  0  0  0  0  0  0  0  0  0
   -8.4575    4.1126   -8.8732 C   0  0  0  0  0  0  0  0  0  0  0  0
   -8.3396    2.8947   -9.5297 C   0  0  0  0  0  0  0  0  0  0  0  0
   -8.0875    2.8318  -10.8976 C   0  0  0  0  0  0  0  0  0  0  0  0
   -8.5486    1.7870   -8.5494 C   0  0  0  0  0  0  0  0  0  0  0  0
   -8.5339    2.4214   -7.2029 N   0  0  0  0  0  0  0  0  0  0  0  0
   -8.6375    3.8802   -7.4119 C   0  0  0  0  0  0  0  0  0  0  0  0
  1  2  2  0
  2  3  1  0
  3  4  1  0
  5  4  1  1
  5  6  1  0
  6  7  1  6
  8  7  1  6
  8  9  1  0
  9 10  1  1
 10 11  1  0
 11 12  1  0
 12 13  1  0
 13 14  1  0
 14 15  1  0
 15 16  1  0
 16 17  2  0
 17 18  1  0
 18 19  1  0
 19 20  2  0
 14 21  1  0
 21 22  1  0
  9 23  1  0
 23 24  1  0
 25 24  1  1
 25 26  1  0
 26 27  1  1
 27 28  2  0
 27 29  1  0
 29 30  1  0
 30 31  2  0
 31 32  1  0
 32 33  2  0
 33 34  1  0
 34 35  2  0
 34 36  1  0
 36 37  1  0
 37 38  1  0
  6  2  1  0
 25  8  1  0
 35 30  1  0
 26  5  1  0
 38 33  1  0
 22 11  1  0
 19 15  1  0
M  END
>  <smiles>  (92) 
C71690-P197

>  <fragmenstein_outcome>  (92) 
acceptable

>  <inchikey>  (92) 
QCJMTHNKLXJMRF-UHFFFAOYSA-N

>  <fragmenstein_mode>  (92) 
expansion

>  <HIPPO Pose ID>  (92) 
1174

>  <Energy>  (92) 
103.065325

>  <fragmenstein_error>  (92) 


>  <tags>  (92) 
{'openbind_xx01zvns2b_c1_fragmenstein', 'fragmenstein_placed'}

>  <ref_pdb>  (92) 
1

>  <scratch_subdir>  (92) 
/opt/xchem-fragalysis-2/maxwin/BulkDock/SCRATCH/511027/C71690-P197

>  <alias>  (92) 
O=C(Nc1ccc2c(c1)CNC2)[C@H]1[C@H]2NCC(=O)[C@@H]2C[C@@H]2[C@@H](CN3CCC(n4cn[nH]c4=O)CC3)CN[C@@H]21

>  <HIPPO Compound ID>  (92) 
103513

>  <fragmenstein_runtime>  (92) 
13.316042

$$$$
CN1CCC(c2cccc(NC(=O)c3c(Cl)ccc4c(CN5CCC(n6cn[nH]c6=O)CC5)c[nH]c34)c2)CC1
     RDKit          3D

 39 44  0  0  0  0  0  0  0  0999 V2000
  -10.1075    2.0287   -6.0584 C   0  0  0  0  0  0  0  0  0  0  0  0
   -9.0335    3.0093   -6.1981 N   0  0  0  0  0  0  0  0  0  0  0  0
   -7.7730    2.4642   -6.6869 C   0  0  0  0  0  0  0  0  0  0  0  0
   -7.7223    1.9503   -8.1381 C   0  0  0  0  0  0  0  0  0  0  0  0
   -8.4228    2.7917   -9.1733 C   0  0  0  0  0  0  0  0  0  0  0  0
   -7.6886    3.7896  -10.0610 C   0  0  0  0  0  0  0  0  0  0  0  0
   -7.2877    5.0250   -9.5329 C   0  0  0  0  0  0  0  0  0  0  0  0
   -7.3028    6.1578  -10.3380 C   0  0  0  0  0  0  0  0  0  0  0  0
   -7.6096    6.0415  -11.6899 C   0  0  0  0  0  0  0  0  0  0  0  0
   -7.7682    4.7776  -12.2653 C   0  0  0  0  0  0  0  0  0  0  0  0
   -7.6540    4.7138  -13.6444 N   0  0  0  0  0  0  0  0  0  0  0  0
   -8.3220    5.5661  -14.7473 C   0  0  0  0  0  0  0  0  0  0  0  0
   -9.1301    6.4019  -14.6702 O   0  0  0  0  0  0  0  0  0  0  0  0
   -7.6872    5.2449  -16.0482 C   0  0  0  0  0  0  0  0  0  0  0  0
   -8.2197    4.6817  -17.2020 C   0  0  0  0  0  0  0  0  0  0  0  0
   -9.8507    4.2103  -17.3677 Cl  0  0  0  0  0  0  0  0  0  0  0  0
   -7.4067    4.4895  -18.3162 C   0  0  0  0  0  0  0  0  0  0  0  0
   -6.0611    4.8772  -18.3166 C   0  0  0  0  0  0  0  0  0  0  0  0
   -5.5336    5.5900  -17.2259 C   0  0  0  0  0  0  0  0  0  0  0  0
   -4.2896    6.2437  -16.9187 C   0  0  0  0  0  0  0  0  0  0  0  0
   -3.0281    6.3499  -17.7143 C   0  0  0  0  0  0  0  0  0  0  0  0
   -3.1276    7.0339  -19.0018 N   0  0  0  0  0  0  0  0  0  0  0  0
   -3.7625    8.3537  -18.9990 C   0  0  0  0  0  0  0  0  0  0  0  0
   -4.1799    8.8141  -20.4113 C   0  0  0  0  0  0  0  0  0  0  0  0
   -3.1934    8.3099  -21.4685 C   0  0  0  0  0  0  0  0  0  0  0  0
   -3.5168    8.6845  -22.8406 N   0  0  0  0  0  0  0  0  0  0  0  0
   -2.5991    8.7950  -23.8264 C   0  0  0  0  0  0  0  0  0  0  0  0
   -3.0666    8.7855  -25.0320 N   0  0  0  0  0  0  0  0  0  0  0  0
   -4.4127    8.6386  -24.8475 N   0  0  0  0  0  0  0  0  0  0  0  0
   -4.7097    8.4916  -23.4957 C   0  0  0  0  0  0  0  0  0  0  0  0
   -5.8021    8.2049  -23.0388 O   0  0  0  0  0  0  0  0  0  0  0  0
   -2.9791    6.7931  -21.3845 C   0  0  0  0  0  0  0  0  0  0  0  0
   -3.5529    6.2011  -20.1084 C   0  0  0  0  0  0  0  0  0  0  0  0
   -4.4258    6.7790  -15.6489 C   0  0  0  0  0  0  0  0  0  0  0  0
   -5.6640    6.4740  -15.1810 N   0  0  0  0  0  0  0  0  0  0  0  0
   -6.3642    5.7468  -16.1211 C   0  0  0  0  0  0  0  0  0  0  0  0
   -7.7940    3.6458  -11.4610 C   0  0  0  0  0  0  0  0  0  0  0  0
   -9.5695    3.5336   -8.5301 C   0  0  0  0  0  0  0  0  0  0  0  0
   -9.3865    4.0720   -7.1076 C   0  0  0  0  0  0  0  0  0  0  0  0
  1  2  1  0
  2  3  1  0
  3  4  1  0
  4  5  1  0
  5  6  1  0
  6  7  2  0
  7  8  1  0
  8  9  2  0
  9 10  1  0
 10 11  1  0
 11 12  1  0
 12 13  2  0
 12 14  1  0
 14 15  2  0
 15 16  1  0
 15 17  1  0
 17 18  2  0
 18 19  1  0
 19 20  1  0
 20 21  1  0
 21 22  1  0
 22 23  1  0
 23 24  1  0
 24 25  1  0
 25 26  1  0
 26 27  1  0
 27 28  2  0
 28 29  1  0
 29 30  1  0
 30 31  2  0
 25 32  1  0
 32 33  1  0
 20 34  2  0
 34 35  1  0
 35 36  1  0
 10 37  2  0
  5 38  1  0
 38 39  1  0
 39  2  1  0
 37  6  1  0
 36 14  1  0
 36 19  2  0
 33 22  1  0
 30 26  1  0
M  END
>  <smiles>  (93) 
C71697-P5

>  <fragmenstein_outcome>  (93) 
acceptable

>  <inchikey>  (93) 
XDYXEMKCTJNOGF-UHFFFAOYSA-N

>  <fragmenstein_mode>  (93) 
expansion

>  <HIPPO Pose ID>  (93) 
1179

>  <Energy>  (93) 
93.01676

>  <fragmenstein_error>  (93) 


>  <tags>  (93) 
{'openbind_xx01zvns2b_c1_fragmenstein', 'fragmenstein_placed'}

>  <ref_pdb>  (93) 
1

>  <scratch_subdir>  (93) 
/opt/xchem-fragalysis-2/maxwin/BulkDock/SCRATCH/511027/C71697-P5

>  <alias>  (93) 
CN1CCC(c2cccc(NC(=O)c3c(Cl)ccc4c(CN5CCC(n6cn[nH]c6=O)CC5)c[nH]c34)c2)CC1

>  <HIPPO Compound ID>  (93) 
79457

>  <fragmenstein_runtime>  (93) 
11.711573

$$$$
O=C(Nc1ccc(F)cc1N1CCCC1=O)c1c(Cl)ccc2c(CN3CCC(n4cn[nH]c4=O)CC3)c[nH]c12
     RDKit          3D

 39 44  0  0  0  0  0  0  0  0999 V2000
   -9.2332    5.9122  -14.3645 O   0  0  0  0  0  0  0  0  0  0  0  0
   -8.2769    5.2398  -14.4524 C   0  0  0  0  0  0  0  0  0  0  0  0
   -7.4821    4.4615  -13.3542 N   0  0  0  0  0  0  0  0  0  0  0  0
   -7.6439    4.4333  -11.9607 C   0  0  0  0  0  0  0  0  0  0  0  0
   -8.3617    5.4925  -11.3872 C   0  0  0  0  0  0  0  0  0  0  0  0
   -8.6119    5.5497  -10.0168 C   0  0  0  0  0  0  0  0  0  0  0  0
   -8.2888    4.4689   -9.2292 C   0  0  0  0  0  0  0  0  0  0  0  0
   -8.6299    4.4551   -7.9327 F   0  0  0  0  0  0  0  0  0  0  0  0
   -7.5514    3.4261   -9.7614 C   0  0  0  0  0  0  0  0  0  0  0  0
   -7.0816    3.4553  -11.1002 C   0  0  0  0  0  0  0  0  0  0  0  0
   -5.9732    2.5817  -11.4087 N   0  0  0  0  0  0  0  0  0  0  0  0
   -5.3125    1.8629  -10.3292 C   0  0  0  0  0  0  0  0  0  0  0  0
   -4.1256    1.1598  -10.9350 C   0  0  0  0  0  0  0  0  0  0  0  0
   -3.8414    1.9342  -12.2004 C   0  0  0  0  0  0  0  0  0  0  0  0
   -5.1415    2.6288  -12.5301 C   0  0  0  0  0  0  0  0  0  0  0  0
   -5.3146    3.1976  -13.5997 O   0  0  0  0  0  0  0  0  0  0  0  0
   -7.5827    5.1287  -15.7699 C   0  0  0  0  0  0  0  0  0  0  0  0
   -8.1238    4.6451  -16.9673 C   0  0  0  0  0  0  0  0  0  0  0  0
   -9.7464    4.1520  -17.1649 Cl  0  0  0  0  0  0  0  0  0  0  0  0
   -7.3424    4.5522  -18.1144 C   0  0  0  0  0  0  0  0  0  0  0  0
   -6.0174    4.9779  -18.1128 C   0  0  0  0  0  0  0  0  0  0  0  0
   -5.4975    5.6519  -16.9961 C   0  0  0  0  0  0  0  0  0  0  0  0
   -4.2705    6.3384  -16.7018 C   0  0  0  0  0  0  0  0  0  0  0  0
   -3.0349    6.5203  -17.5311 C   0  0  0  0  0  0  0  0  0  0  0  0
   -3.1852    7.1363  -18.8492 N   0  0  0  0  0  0  0  0  0  0  0  0
   -3.9335    8.3902  -18.9149 C   0  0  0  0  0  0  0  0  0  0  0  0
   -4.3286    8.7669  -20.3583 C   0  0  0  0  0  0  0  0  0  0  0  0
   -3.2549    8.3286  -21.3600 C   0  0  0  0  0  0  0  0  0  0  0  0
   -3.5448    8.6430  -22.7564 N   0  0  0  0  0  0  0  0  0  0  0  0
   -2.5991    8.7641  -23.7144 C   0  0  0  0  0  0  0  0  0  0  0  0
   -3.0264    8.7230  -24.9344 N   0  0  0  0  0  0  0  0  0  0  0  0
   -4.3730    8.5433  -24.7900 N   0  0  0  0  0  0  0  0  0  0  0  0
   -4.7120    8.4188  -23.4457 C   0  0  0  0  0  0  0  0  0  0  0  0
   -5.8182    8.1367  -23.0213 O   0  0  0  0  0  0  0  0  0  0  0  0
   -2.9060    6.8392  -21.2214 C   0  0  0  0  0  0  0  0  0  0  0  0
   -3.4691    6.2333  -19.9454 C   0  0  0  0  0  0  0  0  0  0  0  0
   -4.3848    6.7880  -15.3954 C   0  0  0  0  0  0  0  0  0  0  0  0
   -5.5785    6.3710  -14.8872 N   0  0  0  0  0  0  0  0  0  0  0  0
   -6.2936    5.6968  -15.8492 C   0  0  0  0  0  0  0  0  0  0  0  0
  1  2  2  0
  2  3  1  0
  3  4  1  0
  4  5  2  0
  5  6  1  0
  6  7  2  0
  7  8  1  0
  7  9  1  0
  9 10  2  0
 10 11  1  0
 11 12  1  0
 12 13  1  0
 13 14  1  0
 14 15  1  0
 15 16  2  0
  2 17  1  0
 17 18  2  0
 18 19  1  0
 18 20  1  0
 20 21  2  0
 21 22  1  0
 22 23  1  0
 23 24  1  0
 24 25  1  0
 25 26  1  0
 26 27  1  0
 27 28  1  0
 28 29  1  0
 29 30  1  0
 30 31  2  0
 31 32  1  0
 32 33  1  0
 33 34  2  0
 28 35  1  0
 35 36  1  0
 23 37  2  0
 37 38  1  0
 38 39  1  0
 10  4  1  0
 15 11  1  0
 39 17  1  0
 39 22  2  0
 36 25  1  0
 33 29  1  0
M  END
>  <smiles>  (94) 
C71698-P5

>  <fragmenstein_outcome>  (94) 
acceptable

>  <inchikey>  (94) 
LMKBTCZJRQFDAG-UHFFFAOYSA-N

>  <fragmenstein_mode>  (94) 
expansion

>  <HIPPO Pose ID>  (94) 
1180

>  <Energy>  (94) 
51.017134

>  <fragmenstein_error>  (94) 


>  <tags>  (94) 
{'openbind_xx01zvns2b_c1_fragmenstein', 'fragmenstein_placed'}

>  <ref_pdb>  (94) 
1

>  <scratch_subdir>  (94) 
/opt/xchem-fragalysis-2/maxwin/BulkDock/SCRATCH/511027/C71698-P5

>  <alias>  (94) 
O=C(Nc1ccc(F)cc1N1CCCC1=O)c1c(Cl)ccc2c(CN3CCC(n4cn[nH]c4=O)CC3)c[nH]c12

>  <HIPPO Compound ID>  (94) 
91352

>  <fragmenstein_runtime>  (94) 
25.508425

$$$$
O=C(Nc1ccc2c(c1)CCCC2)c1c(Cl)ccc2c(CN3CCC(n4cn[nH]c4=O)CC3)c[nH]c12
     RDKit          3D

 36 41  0  0  0  0  0  0  0  0999 V2000
   -9.0994    6.3044  -14.2991 O   0  0  0  0  0  0  0  0  0  0  0  0
   -8.3476    5.4079  -14.3331 C   0  0  0  0  0  0  0  0  0  0  0  0
   -7.8765    4.4429  -13.2047 N   0  0  0  0  0  0  0  0  0  0  0  0
   -8.1541    4.4459  -11.8261 C   0  0  0  0  0  0  0  0  0  0  0  0
   -8.3113    5.6709  -11.1767 C   0  0  0  0  0  0  0  0  0  0  0  0
   -8.3934    5.7402   -9.7778 C   0  0  0  0  0  0  0  0  0  0  0  0
   -8.4069    4.5790   -8.9966 C   0  0  0  0  0  0  0  0  0  0  0  0
   -8.3014    3.3388   -9.6361 C   0  0  0  0  0  0  0  0  0  0  0  0
   -8.1271    3.2842  -11.0472 C   0  0  0  0  0  0  0  0  0  0  0  0
   -8.4450    2.0621   -8.8404 C   0  0  0  0  0  0  0  0  0  0  0  0
   -8.5085    2.1790   -7.3180 C   0  0  0  0  0  0  0  0  0  0  0  0
   -9.1362    3.4676   -6.8356 C   0  0  0  0  0  0  0  0  0  0  0  0
   -8.4804    4.6754   -7.4929 C   0  0  0  0  0  0  0  0  0  0  0  0
   -7.6181    5.1651  -15.6190 C   0  0  0  0  0  0  0  0  0  0  0  0
   -8.1079    4.6953  -16.8432 C   0  0  0  0  0  0  0  0  0  0  0  0
   -9.7071    4.1525  -17.0881 Cl  0  0  0  0  0  0  0  0  0  0  0  0
   -7.3049    4.6937  -17.9874 C   0  0  0  0  0  0  0  0  0  0  0  0
   -6.0094    5.2131  -17.9666 C   0  0  0  0  0  0  0  0  0  0  0  0
   -5.5127    5.7998  -16.7885 C   0  0  0  0  0  0  0  0  0  0  0  0
   -4.3204    6.5270  -16.4340 C   0  0  0  0  0  0  0  0  0  0  0  0
   -3.0823    6.8775  -17.2101 C   0  0  0  0  0  0  0  0  0  0  0  0
   -3.2392    7.3272  -18.5904 N   0  0  0  0  0  0  0  0  0  0  0  0
   -4.3424    8.2259  -18.8957 C   0  0  0  0  0  0  0  0  0  0  0  0
   -4.1245    8.9620  -20.2308 C   0  0  0  0  0  0  0  0  0  0  0  0
   -3.3108    8.1383  -21.2361 C   0  0  0  0  0  0  0  0  0  0  0  0
   -3.5706    8.4428  -22.6394 N   0  0  0  0  0  0  0  0  0  0  0  0
   -2.6308    8.4671  -23.6094 C   0  0  0  0  0  0  0  0  0  0  0  0
   -3.0769    8.4803  -24.8234 N   0  0  0  0  0  0  0  0  0  0  0  0
   -4.4334    8.4472  -24.6603 N   0  0  0  0  0  0  0  0  0  0  0  0
   -4.7653    8.3584  -23.3112 C   0  0  0  0  0  0  0  0  0  0  0  0
   -5.8891    8.2071  -22.8661 O   0  0  0  0  0  0  0  0  0  0  0  0
   -3.4647    6.6489  -20.9637 C   0  0  0  0  0  0  0  0  0  0  0  0
   -2.9588    6.2928  -19.5726 C   0  0  0  0  0  0  0  0  0  0  0  0
   -4.4688    6.8766  -15.1011 C   0  0  0  0  0  0  0  0  0  0  0  0
   -5.6602    6.4058  -14.6449 N   0  0  0  0  0  0  0  0  0  0  0  0
   -6.3272    5.7447  -15.6521 C   0  0  0  0  0  0  0  0  0  0  0  0
  1  2  2  0
  2  3  1  0
  3  4  1  0
  4  5  2  0
  5  6  1  0
  6  7  2  0
  7  8  1  0
  8  9  2  0
  8 10  1  0
 10 11  1  0
 11 12  1  0
 12 13  1  0
  2 14  1  0
 14 15  2  0
 15 16  1  0
 15 17  1  0
 17 18  2  0
 18 19  1  0
 19 20  1  0
 20 21  1  0
 21 22  1  0
 22 23  1  0
 23 24  1  0
 24 25  1  0
 25 26  1  0
 26 27  1  0
 27 28  2  0
 28 29  1  0
 29 30  1  0
 30 31  2  0
 25 32  1  0
 32 33  1  0
 20 34  2  0
 34 35  1  0
 35 36  1  0
  9  4  1  0
 36 14  1  0
 13  7  1  0
 36 19  2  0
 33 22  1  0
 30 26  1  0
M  END
>  <smiles>  (95) 
C71701-P5

>  <fragmenstein_outcome>  (95) 
acceptable

>  <inchikey>  (95) 
LRMXNNVTAPIXFK-UHFFFAOYSA-N

>  <fragmenstein_mode>  (95) 
expansion

>  <HIPPO Pose ID>  (95) 
1183

>  <Energy>  (95) 
58.382819

>  <fragmenstein_error>  (95) 


>  <tags>  (95) 
{'openbind_xx01zvns2b_c1_fragmenstein', 'fragmenstein_placed'}

>  <ref_pdb>  (95) 
1

>  <scratch_subdir>  (95) 
/opt/xchem-fragalysis-2/maxwin/BulkDock/SCRATCH/511027/C71701-P5

>  <alias>  (95) 
O=C(Nc1ccc2c(c1)CCCC2)c1c(Cl)ccc2c(CN3CCC(n4cn[nH]c4=O)CC3)c[nH]c12

>  <HIPPO Compound ID>  (95) 
95412

>  <fragmenstein_runtime>  (95) 
12.959322

$$$$
CN1Cc2ccc(NC(=O)c3c(Cl)ccc4c(CN5CCC(n6cn[nH]c6=O)CC5)c[nH]c34)cc2C1
     RDKit          3D

 36 41  0  0  0  0  0  0  0  0999 V2000
   -9.4115    2.3733   -6.7206 C   0  0  0  0  0  0  0  0  0  0  0  0
   -8.3114    2.8654   -7.5339 N   0  0  0  0  0  0  0  0  0  0  0  0
   -8.3774    4.3181   -7.7546 C   0  0  0  0  0  0  0  0  0  0  0  0
   -8.3186    4.5203   -9.2335 C   0  0  0  0  0  0  0  0  0  0  0  0
   -8.3777    5.6985   -9.9527 C   0  0  0  0  0  0  0  0  0  0  0  0
   -8.3216    5.6298  -11.3506 C   0  0  0  0  0  0  0  0  0  0  0  0
   -8.1359    4.4034  -12.0142 C   0  0  0  0  0  0  0  0  0  0  0  0
   -7.8806    4.4268  -13.3903 N   0  0  0  0  0  0  0  0  0  0  0  0
   -8.4022    5.3847  -14.4969 C   0  0  0  0  0  0  0  0  0  0  0  0
   -9.1845    6.2517  -14.4411 O   0  0  0  0  0  0  0  0  0  0  0  0
   -7.6727    5.1629  -15.7792 C   0  0  0  0  0  0  0  0  0  0  0  0
   -8.1583    4.6888  -16.9998 C   0  0  0  0  0  0  0  0  0  0  0  0
   -9.7639    4.1625  -17.2488 Cl  0  0  0  0  0  0  0  0  0  0  0  0
   -7.3372    4.6643  -18.1278 C   0  0  0  0  0  0  0  0  0  0  0  0
   -6.0285    5.1538  -18.0865 C   0  0  0  0  0  0  0  0  0  0  0  0
   -5.5333    5.7397  -16.9066 C   0  0  0  0  0  0  0  0  0  0  0  0
   -4.3246    6.4274  -16.5279 C   0  0  0  0  0  0  0  0  0  0  0  0
   -3.0452    6.7065  -17.2642 C   0  0  0  0  0  0  0  0  0  0  0  0
   -3.1153    7.1956  -18.6421 N   0  0  0  0  0  0  0  0  0  0  0  0
   -4.2039    8.1149  -18.9634 C   0  0  0  0  0  0  0  0  0  0  0  0
   -4.0720    8.7080  -20.3733 C   0  0  0  0  0  0  0  0  0  0  0  0
   -3.8730    7.5887  -21.3971 C   0  0  0  0  0  0  0  0  0  0  0  0
   -3.7931    8.0784  -22.7662 N   0  0  0  0  0  0  0  0  0  0  0  0
   -2.7343    8.5610  -23.4441 C   0  0  0  0  0  0  0  0  0  0  0  0
   -2.9855    8.9786  -24.6438 N   0  0  0  0  0  0  0  0  0  0  0  0
   -4.3333    8.7839  -24.7719 N   0  0  0  0  0  0  0  0  0  0  0  0
   -4.8709    8.2875  -23.5893 C   0  0  0  0  0  0  0  0  0  0  0  0
   -6.0545    8.1287  -23.3474 O   0  0  0  0  0  0  0  0  0  0  0  0
   -2.6283    6.7965  -21.0018 C   0  0  0  0  0  0  0  0  0  0  0  0
   -2.8159    6.1711  -19.6293 C   0  0  0  0  0  0  0  0  0  0  0  0
   -4.4959    6.8017  -15.2041 C   0  0  0  0  0  0  0  0  0  0  0  0
   -5.7098    6.3694  -14.7711 N   0  0  0  0  0  0  0  0  0  0  0  0
   -6.3714    5.7185  -15.7885 C   0  0  0  0  0  0  0  0  0  0  0  0
   -8.0470    3.2242  -11.2675 C   0  0  0  0  0  0  0  0  0  0  0  0
   -8.1901    3.2976   -9.8806 C   0  0  0  0  0  0  0  0  0  0  0  0
   -8.2535    2.1993   -8.8604 C   0  0  0  0  0  0  0  0  0  0  0  0
  1  2  1  0
  2  3  1  0
  3  4  1  0
  4  5  2  0
  5  6  1  0
  6  7  2  0
  7  8  1  0
  8  9  1  0
  9 10  2  0
  9 11  1  0
 11 12  2  0
 12 13  1  0
 12 14  1  0
 14 15  2  0
 15 16  1  0
 16 17  1  0
 17 18  1  0
 18 19  1  0
 19 20  1  0
 20 21  1  0
 21 22  1  0
 22 23  1  0
 23 24  1  0
 24 25  2  0
 25 26  1  0
 26 27  1  0
 27 28  2  0
 22 29  1  0
 29 30  1  0
 17 31  2  0
 31 32  1  0
 32 33  1  0
  7 34  1  0
 34 35  2  0
 35 36  1  0
 36  2  1  0
 35  4  1  0
 33 11  1  0
 33 16  2  0
 30 19  1  0
 27 23  1  0
M  END
>  <smiles>  (96) 
C71702-P5

>  <fragmenstein_outcome>  (96) 
acceptable

>  <inchikey>  (96) 
CGTHRGIRUCNSQW-UHFFFAOYSA-N

>  <fragmenstein_mode>  (96) 
expansion

>  <HIPPO Pose ID>  (96) 
1184

>  <Energy>  (96) 
62.29174

>  <fragmenstein_error>  (96) 


>  <tags>  (96) 
{'openbind_xx01zvns2b_c1_fragmenstein', 'fragmenstein_placed'}

>  <ref_pdb>  (96) 
1

>  <scratch_subdir>  (96) 
/opt/xchem-fragalysis-2/maxwin/BulkDock/SCRATCH/511027/C71702-P5

>  <alias>  (96) 
CN1Cc2ccc(NC(=O)c3c(Cl)ccc4c(CN5CCC(n6cn[nH]c6=O)CC5)c[nH]c34)cc2C1

>  <HIPPO Compound ID>  (96) 
86335

>  <fragmenstein_runtime>  (96) 
11.101307

$$$$
O=C(Nc1ccc([C@@H]2CCOC2)cc1F)c1c(Cl)ccc2c(CN3CCC(n4cn[nH]c4=O)CC3)c[nH]c12
     RDKit          3D

 38 43  0  0  0  0  0  0  0  0999 V2000
   -9.1802    6.0955  -14.3418 O   0  0  0  0  0  0  0  0  0  0  0  0
   -8.3311    5.3002  -14.4601 C   0  0  0  0  0  0  0  0  0  0  0  0
   -7.6965    4.3416  -13.4141 N   0  0  0  0  0  0  0  0  0  0  0  0
   -7.9044    4.2365  -12.0334 C   0  0  0  0  0  0  0  0  0  0  0  0
   -8.3493    5.3243  -11.2958 C   0  0  0  0  0  0  0  0  0  0  0  0
   -8.5217    5.2246   -9.9029 C   0  0  0  0  0  0  0  0  0  0  0  0
   -8.3071    4.0232   -9.2030 C   0  0  0  0  0  0  0  0  0  0  0  0
   -8.8035    3.8428   -7.7667 C   0  0  2  0  0  0  0  0  0  0  0  0
   -8.7955    5.0877   -6.8827 C   0  0  0  0  0  0  0  0  0  0  0  0
   -7.4876    4.9547   -6.1474 C   0  0  0  0  0  0  0  0  0  0  0  0
   -7.3944    3.5720   -5.8240 O   0  0  0  0  0  0  0  0  0  0  0  0
   -8.1060    2.8362   -6.8446 C   0  0  0  0  0  0  0  0  0  0  0  0
   -7.8149    2.9474   -9.9592 C   0  0  0  0  0  0  0  0  0  0  0  0
   -7.5875    3.0694  -11.3430 C   0  0  0  0  0  0  0  0  0  0  0  0
   -7.0824    2.0272  -12.0237 F   0  0  0  0  0  0  0  0  0  0  0  0
   -7.6169    5.1820  -15.7644 C   0  0  0  0  0  0  0  0  0  0  0  0
   -8.1101    4.7084  -16.9825 C   0  0  0  0  0  0  0  0  0  0  0  0
   -9.7028    4.1325  -17.2040 Cl  0  0  0  0  0  0  0  0  0  0  0  0
   -7.3080    4.7206  -18.1228 C   0  0  0  0  0  0  0  0  0  0  0  0
   -6.0103    5.2392  -18.0909 C   0  0  0  0  0  0  0  0  0  0  0  0
   -5.5090    5.8180  -16.9091 C   0  0  0  0  0  0  0  0  0  0  0  0
   -4.3026    6.5097  -16.5305 C   0  0  0  0  0  0  0  0  0  0  0  0
   -3.0262    6.8045  -17.2662 C   0  0  0  0  0  0  0  0  0  0  0  0
   -3.0988    7.2605  -18.6539 N   0  0  0  0  0  0  0  0  0  0  0  0
   -4.1830    8.1785  -18.9903 C   0  0  0  0  0  0  0  0  0  0  0  0
   -4.0533    8.7405  -20.4119 C   0  0  0  0  0  0  0  0  0  0  0  0
   -3.8625    7.5992  -21.4126 C   0  0  0  0  0  0  0  0  0  0  0  0
   -3.7873    8.0639  -22.7906 N   0  0  0  0  0  0  0  0  0  0  0  0
   -2.7312    8.5367  -23.4794 C   0  0  0  0  0  0  0  0  0  0  0  0
   -2.9890    8.9474  -24.6800 N   0  0  0  0  0  0  0  0  0  0  0  0
   -4.3387    8.7588  -24.7971 N   0  0  0  0  0  0  0  0  0  0  0  0
   -4.8704    8.2759  -23.6062 C   0  0  0  0  0  0  0  0  0  0  0  0
   -6.0532    8.1315  -23.3515 O   0  0  0  0  0  0  0  0  0  0  0  0
   -2.6188    6.8108  -21.0068 C   0  0  0  0  0  0  0  0  0  0  0  0
   -2.7991    6.2161  -19.6195 C   0  0  0  0  0  0  0  0  0  0  0  0
   -4.4683    6.8693  -15.2015 C   0  0  0  0  0  0  0  0  0  0  0  0
   -5.6741    6.4209  -14.7639 N   0  0  0  0  0  0  0  0  0  0  0  0
   -6.3334    5.7704  -15.7814 C   0  0  0  0  0  0  0  0  0  0  0  0
  1  2  2  0
  2  3  1  0
  3  4  1  0
  4  5  2  0
  5  6  1  0
  6  7  2  0
  8  7  1  6
  8  9  1  0
  9 10  1  0
 10 11  1  0
 11 12  1  0
  7 13  1  0
 13 14  2  0
 14 15  1  0
  2 16  1  0
 16 17  2  0
 17 18  1  0
 17 19  1  0
 19 20  2  0
 20 21  1  0
 21 22  1  0
 22 23  1  0
 23 24  1  0
 24 25  1  0
 25 26  1  0
 26 27  1  0
 27 28  1  0
 28 29  1  0
 29 30  2  0
 30 31  1  0
 31 32  1  0
 32 33  2  0
 27 34  1  0
 34 35  1  0
 22 36  2  0
 36 37  1  0
 37 38  1  0
 14  4  1  0
 38 16  1  0
 12  8  1  0
 38 21  2  0
 35 24  1  0
 32 28  1  0
M  END
>  <smiles>  (97) 
C71704-P5

>  <fragmenstein_outcome>  (97) 
acceptable

>  <inchikey>  (97) 
FREFCTYVNHMNMG-UHFFFAOYSA-N

>  <fragmenstein_mode>  (97) 
expansion

>  <HIPPO Pose ID>  (97) 
1186

>  <Energy>  (97) 
78.817286

>  <fragmenstein_error>  (97) 


>  <tags>  (97) 
{'openbind_xx01zvns2b_c1_fragmenstein', 'fragmenstein_placed'}

>  <ref_pdb>  (97) 
1

>  <scratch_subdir>  (97) 
/opt/xchem-fragalysis-2/maxwin/BulkDock/SCRATCH/511027/C71704-P5

>  <alias>  (97) 
O=C(Nc1ccc([C@@H]2CCOC2)cc1F)c1c(Cl)ccc2c(CN3CCC(n4cn[nH]c4=O)CC3)c[nH]c12

>  <HIPPO Compound ID>  (97) 
71704

>  <fragmenstein_runtime>  (97) 
6.466848

$$$$
O=C(Nc1ccc(N2CCCCC2)c(F)c1)c1c(Cl)ccc2c(CN3CCC(n4cn[nH]c4=O)CC3)c[nH]c12
     RDKit          3D

 39 44  0  0  0  0  0  0  0  0999 V2000
   -9.1264    6.3535  -14.4534 O   0  0  0  0  0  0  0  0  0  0  0  0
   -8.3988    5.4398  -14.4886 C   0  0  0  0  0  0  0  0  0  0  0  0
   -7.9534    4.4649  -13.3657 N   0  0  0  0  0  0  0  0  0  0  0  0
   -8.2288    4.4728  -11.9938 C   0  0  0  0  0  0  0  0  0  0  0  0
   -8.2750    5.7037  -11.3446 C   0  0  0  0  0  0  0  0  0  0  0  0
   -8.2818    5.7819   -9.9400 C   0  0  0  0  0  0  0  0  0  0  0  0
   -8.3387    4.6456   -9.1154 C   0  0  0  0  0  0  0  0  0  0  0  0
   -8.2469    4.7863   -7.7207 N   0  0  0  0  0  0  0  0  0  0  0  0
   -8.9298    5.8952   -7.0349 C   0  0  0  0  0  0  0  0  0  0  0  0
   -8.1807    6.2951   -5.7665 C   0  0  0  0  0  0  0  0  0  0  0  0
   -8.0283    5.0954   -4.8420 C   0  0  0  0  0  0  0  0  0  0  0  0
   -7.3401    3.9656   -5.5927 C   0  0  0  0  0  0  0  0  0  0  0  0
   -8.0777    3.5860   -6.8838 C   0  0  0  0  0  0  0  0  0  0  0  0
   -8.3951    3.4156   -9.8154 C   0  0  0  0  0  0  0  0  0  0  0  0
   -8.5982    2.2640   -9.1524 F   0  0  0  0  0  0  0  0  0  0  0  0
   -8.2743    3.3224  -11.2198 C   0  0  0  0  0  0  0  0  0  0  0  0
   -7.6731    5.1710  -15.7639 C   0  0  0  0  0  0  0  0  0  0  0  0
   -8.1595    4.6838  -16.9789 C   0  0  0  0  0  0  0  0  0  0  0  0
   -9.7678    4.1666  -17.2239 Cl  0  0  0  0  0  0  0  0  0  0  0  0
   -7.3380    4.6396  -18.1067 C   0  0  0  0  0  0  0  0  0  0  0  0
   -6.0259    5.1201  -18.0717 C   0  0  0  0  0  0  0  0  0  0  0  0
   -5.5291    5.7189  -16.8996 C   0  0  0  0  0  0  0  0  0  0  0  0
   -4.3177    6.4069  -16.5316 C   0  0  0  0  0  0  0  0  0  0  0  0
   -3.0392    6.6661  -17.2758 C   0  0  0  0  0  0  0  0  0  0  0  0
   -3.1132    7.1702  -18.6484 N   0  0  0  0  0  0  0  0  0  0  0  0
   -4.2039    8.0911  -18.9598 C   0  0  0  0  0  0  0  0  0  0  0  0
   -4.0745    8.6981  -20.3645 C   0  0  0  0  0  0  0  0  0  0  0  0
   -3.8758    7.5886  -21.3990 C   0  0  0  0  0  0  0  0  0  0  0  0
   -3.7969    8.0892  -22.7640 N   0  0  0  0  0  0  0  0  0  0  0  0
   -2.7384    8.5754  -23.4398 C   0  0  0  0  0  0  0  0  0  0  0  0
   -2.9895    8.9955  -24.6386 N   0  0  0  0  0  0  0  0  0  0  0  0
   -4.3367    8.7982  -24.7685 N   0  0  0  0  0  0  0  0  0  0  0  0
   -4.8742    8.2963  -23.5882 C   0  0  0  0  0  0  0  0  0  0  0  0
   -6.0573    8.1304  -23.3488 O   0  0  0  0  0  0  0  0  0  0  0  0
   -2.6305    6.7935  -21.0119 C   0  0  0  0  0  0  0  0  0  0  0  0
   -2.8196    6.1541  -19.6463 C   0  0  0  0  0  0  0  0  0  0  0  0
   -4.4870    6.8038  -15.2146 C   0  0  0  0  0  0  0  0  0  0  0  0
   -5.7032    6.3844  -14.7757 N   0  0  0  0  0  0  0  0  0  0  0  0
   -6.3677    5.7184  -15.7819 C   0  0  0  0  0  0  0  0  0  0  0  0
  1  2  2  0
  2  3  1  0
  3  4  1  0
  4  5  2  0
  5  6  1  0
  6  7  2  0
  7  8  1  0
  8  9  1  0
  9 10  1  0
 10 11  1  0
 11 12  1  0
 12 13  1  0
  7 14  1  0
 14 15  1  0
 14 16  2  0
  2 17  1  0
 17 18  2  0
 18 19  1  0
 18 20  1  0
 20 21  2  0
 21 22  1  0
 22 23  1  0
 23 24  1  0
 24 25  1  0
 25 26  1  0
 26 27  1  0
 27 28  1  0
 28 29  1  0
 29 30  1  0
 30 31  2  0
 31 32  1  0
 32 33  1  0
 33 34  2  0
 28 35  1  0
 35 36  1  0
 23 37  2  0
 37 38  1  0
 38 39  1  0
 16  4  1  0
 39 17  1  0
 13  8  1  0
 39 22  2  0
 36 25  1  0
 33 29  1  0
M  END
>  <smiles>  (98) 
C71705-P5

>  <fragmenstein_outcome>  (98) 
acceptable

>  <inchikey>  (98) 
RKRJVYHSJYWFEM-UHFFFAOYSA-N

>  <fragmenstein_mode>  (98) 
expansion

>  <HIPPO Pose ID>  (98) 
1187

>  <Energy>  (98) 
68.793368

>  <fragmenstein_error>  (98) 


>  <tags>  (98) 
{'openbind_xx01zvns2b_c1_fragmenstein', 'fragmenstein_placed'}

>  <ref_pdb>  (98) 
1

>  <scratch_subdir>  (98) 
/opt/xchem-fragalysis-2/maxwin/BulkDock/SCRATCH/511027/C71705-P5

>  <alias>  (98) 
O=C(Nc1ccc(N2CCCCC2)c(F)c1)c1c(Cl)ccc2c(CN3CCC(n4cn[nH]c4=O)CC3)c[nH]c12

>  <HIPPO Compound ID>  (98) 
71705

>  <fragmenstein_runtime>  (98) 
12.320022

$$$$
N#Cc1cccc(NC(=O)c2c(Cl)ccc3c(CN4CCC(n5cn[nH]c5=O)CC4)c[nH]c23)c1
     RDKit          3D

 34 38  0  0  0  0  0  0  0  0999 V2000
   -9.2444    1.4808   -8.1767 N   0  0  0  0  0  0  0  0  0  0  0  0
   -8.8581    2.2681   -8.9385 C   0  0  0  0  0  0  0  0  0  0  0  0
   -8.5036    3.3830   -9.7778 C   0  0  0  0  0  0  0  0  0  0  0  0
   -8.4658    4.6424   -9.1658 C   0  0  0  0  0  0  0  0  0  0  0  0
   -8.3318    5.7906   -9.9365 C   0  0  0  0  0  0  0  0  0  0  0  0
   -8.2426    5.6826  -11.3241 C   0  0  0  0  0  0  0  0  0  0  0  0
   -8.1950    4.4296  -11.9507 C   0  0  0  0  0  0  0  0  0  0  0  0
   -7.9109    4.4199  -13.3227 N   0  0  0  0  0  0  0  0  0  0  0  0
   -8.3391    5.4025  -14.4490 C   0  0  0  0  0  0  0  0  0  0  0  0
   -9.0573    6.3251  -14.4170 O   0  0  0  0  0  0  0  0  0  0  0  0
   -7.6162    5.1404  -15.7268 C   0  0  0  0  0  0  0  0  0  0  0  0
   -8.1116    4.6766  -16.9477 C   0  0  0  0  0  0  0  0  0  0  0  0
   -9.7192    4.1501  -17.1804 Cl  0  0  0  0  0  0  0  0  0  0  0  0
   -7.3047    4.6715  -18.0881 C   0  0  0  0  0  0  0  0  0  0  0  0
   -6.0025    5.1810  -18.0623 C   0  0  0  0  0  0  0  0  0  0  0  0
   -5.5007    5.7590  -16.8812 C   0  0  0  0  0  0  0  0  0  0  0  0
   -4.3046    6.4756  -16.5158 C   0  0  0  0  0  0  0  0  0  0  0  0
   -3.0612    6.8235  -17.2826 C   0  0  0  0  0  0  0  0  0  0  0  0
   -3.2151    7.3045  -18.6524 N   0  0  0  0  0  0  0  0  0  0  0  0
   -4.3186    8.2099  -18.9383 C   0  0  0  0  0  0  0  0  0  0  0  0
   -4.1039    8.9690  -20.2604 C   0  0  0  0  0  0  0  0  0  0  0  0
   -3.2974    8.1601  -21.2829 C   0  0  0  0  0  0  0  0  0  0  0  0
   -3.5682    8.4833  -22.6794 N   0  0  0  0  0  0  0  0  0  0  0  0
   -2.6358    8.5135  -23.6564 C   0  0  0  0  0  0  0  0  0  0  0  0
   -3.0913    8.5302  -24.8667 N   0  0  0  0  0  0  0  0  0  0  0  0
   -4.4465    8.4927  -24.6936 N   0  0  0  0  0  0  0  0  0  0  0  0
   -4.7676    8.3944  -23.3426 C   0  0  0  0  0  0  0  0  0  0  0  0
   -5.8862    8.2292  -22.8892 O   0  0  0  0  0  0  0  0  0  0  0  0
   -3.4525    6.6671  -21.0345 C   0  0  0  0  0  0  0  0  0  0  0  0
   -2.9428    6.2855  -19.6528 C   0  0  0  0  0  0  0  0  0  0  0  0
   -4.4553    6.8207  -15.1822 C   0  0  0  0  0  0  0  0  0  0  0  0
   -5.6521    6.3576  -14.7355 N   0  0  0  0  0  0  0  0  0  0  0  0
   -6.3193    5.7068  -15.7495 C   0  0  0  0  0  0  0  0  0  0  0  0
   -8.2947    3.2724  -11.1690 C   0  0  0  0  0  0  0  0  0  0  0  0
  1  2  3  0
  2  3  1  0
  3  4  2  0
  4  5  1  0
  5  6  2  0
  6  7  1  0
  7  8  1  0
  8  9  1  0
  9 10  2  0
  9 11  1  0
 11 12  2  0
 12 13  1  0
 12 14  1  0
 14 15  2  0
 15 16  1  0
 16 17  1  0
 17 18  1  0
 18 19  1  0
 19 20  1  0
 20 21  1  0
 21 22  1  0
 22 23  1  0
 23 24  1  0
 24 25  2  0
 25 26  1  0
 26 27  1  0
 27 28  2  0
 22 29  1  0
 29 30  1  0
 17 31  2  0
 31 32  1  0
 32 33  1  0
  7 34  2  0
 34  3  1  0
 33 11  1  0
 33 16  2  0
 30 19  1  0
 27 23  1  0
M  END
>  <smiles>  (99) 
C71706-P5

>  <fragmenstein_outcome>  (99) 
acceptable

>  <inchikey>  (99) 
XWMUTOXYIWIBEI-UHFFFAOYSA-N

>  <fragmenstein_mode>  (99) 
expansion

>  <HIPPO Pose ID>  (99) 
1188

>  <Energy>  (99) 
64.621678

>  <fragmenstein_error>  (99) 


>  <tags>  (99) 
{'openbind_xx01zvns2b_c1_fragmenstein', 'fragmenstein_placed'}

>  <ref_pdb>  (99) 
1

>  <scratch_subdir>  (99) 
/opt/xchem-fragalysis-2/maxwin/BulkDock/SCRATCH/511027/C71706-P5

>  <alias>  (99) 
N#Cc1cccc(NC(=O)c2c(Cl)ccc3c(CN4CCC(n5cn[nH]c5=O)CC4)c[nH]c23)c1

>  <HIPPO Compound ID>  (99) 
90274

>  <fragmenstein_runtime>  (99) 
10.77619

$$$$
O=C(Nc1ccc(F)cc1)c1c(Cl)ccc2c(CN3CCC(n4cn[nH]c4=O)CC3)c[nH]c12
     RDKit          3D

 33 37  0  0  0  0  0  0  0  0999 V2000
   -7.2946    2.9660  -14.2206 O   0  0  0  0  0  0  0  0  0  0  0  0
   -7.4724    4.1186  -14.2396 C   0  0  0  0  0  0  0  0  0  0  0  0
   -7.8751    5.0913  -13.1019 N   0  0  0  0  0  0  0  0  0  0  0  0
   -8.0439    4.8654  -11.7283 C   0  0  0  0  0  0  0  0  0  0  0  0
   -8.1530    3.5659  -11.2170 C   0  0  0  0  0  0  0  0  0  0  0  0
   -8.3140    3.3467   -9.8412 C   0  0  0  0  0  0  0  0  0  0  0  0
   -8.3512    4.4287   -8.9737 C   0  0  0  0  0  0  0  0  0  0  0  0
   -8.5249    4.2295   -7.6577 F   0  0  0  0  0  0  0  0  0  0  0  0
   -8.2303    5.7263   -9.4645 C   0  0  0  0  0  0  0  0  0  0  0  0
   -8.0874    5.9471  -10.8431 C   0  0  0  0  0  0  0  0  0  0  0  0
   -7.1866    4.8409  -15.5172 C   0  0  0  0  0  0  0  0  0  0  0  0
   -7.8620    4.6594  -16.7314 C   0  0  0  0  0  0  0  0  0  0  0  0
   -9.3880    3.9085  -16.8649 Cl  0  0  0  0  0  0  0  0  0  0  0  0
   -7.3436    5.1589  -17.9211 C   0  0  0  0  0  0  0  0  0  0  0  0
   -6.1453    5.8702  -17.9337 C   0  0  0  0  0  0  0  0  0  0  0  0
   -5.4523    6.1312  -16.7329 C   0  0  0  0  0  0  0  0  0  0  0  0
   -4.2245    6.7940  -16.3659 C   0  0  0  0  0  0  0  0  0  0  0  0
   -3.1194    7.4836  -17.1186 C   0  0  0  0  0  0  0  0  0  0  0  0
   -3.2022    7.6467  -18.5610 N   0  0  0  0  0  0  0  0  0  0  0  0
   -4.2123    8.5841  -19.0270 C   0  0  0  0  0  0  0  0  0  0  0  0
   -4.0708    8.8878  -20.5187 C   0  0  0  0  0  0  0  0  0  0  0  0
   -3.9685    7.5978  -21.3341 C   0  0  0  0  0  0  0  0  0  0  0  0
   -3.8505    7.8748  -22.7614 N   0  0  0  0  0  0  0  0  0  0  0  0
   -2.7654    8.2461  -23.4688 C   0  0  0  0  0  0  0  0  0  0  0  0
   -2.9920    8.5998  -24.6936 N   0  0  0  0  0  0  0  0  0  0  0  0
   -4.3498    8.4845  -24.8110 N   0  0  0  0  0  0  0  0  0  0  0  0
   -4.9150    8.1223  -23.5930 C   0  0  0  0  0  0  0  0  0  0  0  0
   -6.1045    8.1106  -23.3269 O   0  0  0  0  0  0  0  0  0  0  0  0
   -2.7970    6.7705  -20.8018 C   0  0  0  0  0  0  0  0  0  0  0  0
   -2.9878    6.4338  -19.3294 C   0  0  0  0  0  0  0  0  0  0  0  0
   -4.1358    6.6842  -14.9845 C   0  0  0  0  0  0  0  0  0  0  0  0
   -5.1737    5.9437  -14.5205 N   0  0  0  0  0  0  0  0  0  0  0  0
   -6.0122    5.6145  -15.5552 C   0  0  0  0  0  0  0  0  0  0  0  0
  1  2  2  0
  2  3  1  0
  3  4  1  0
  4  5  2  0
  5  6  1  0
  6  7  2  0
  7  8  1  0
  7  9  1  0
  9 10  2  0
  2 11  1  0
 11 12  2  0
 12 13  1  0
 12 14  1  0
 14 15  2  0
 15 16  1  0
 16 17  1  0
 17 18  1  0
 18 19  1  0
 19 20  1  0
 20 21  1  0
 21 22  1  0
 22 23  1  0
 23 24  1  0
 24 25  2  0
 25 26  1  0
 26 27  1  0
 27 28  2  0
 22 29  1  0
 29 30  1  0
 17 31  2  0
 31 32  1  0
 32 33  1  0
 10  4  1  0
 33 11  1  0
 33 16  2  0
 30 19  1  0
 27 23  1  0
M  END
>  <smiles>  (100) 
C71707-P5

>  <fragmenstein_outcome>  (100) 
acceptable

>  <inchikey>  (100) 
XQAXJWDJIUWOTF-UHFFFAOYSA-N

>  <fragmenstein_mode>  (100) 
expansion

>  <HIPPO Pose ID>  (100) 
1189

>  <Energy>  (100) 
37.553266

>  <fragmenstein_error>  (100) 


>  <tags>  (100) 
{'openbind_xx01zvns2b_c1_fragmenstein', 'fragmenstein_placed'}

>  <ref_pdb>  (100) 
1

>  <scratch_subdir>  (100) 
/opt/xchem-fragalysis-2/maxwin/BulkDock/SCRATCH/511027/C71707-P5

>  <alias>  (100) 
O=C(Nc1ccc(F)cc1)c1c(Cl)ccc2c(CN3CCC(n4cn[nH]c4=O)CC3)c[nH]c12

>  <HIPPO Compound ID>  (100) 
71707

>  <fragmenstein_runtime>  (100) 
9.431571

$$$$
O=C(Nc1ccc2c(c1)CN(CC(F)F)C2)c1c(Cl)ccc2c(CN3CCC(n4cn[nH]c4=O)CC3)c[nH]c12
     RDKit          3D

 39 44  0  0  0  0  0  0  0  0999 V2000
   -9.1221    6.2648  -14.5427 O   0  0  0  0  0  0  0  0  0  0  0  0
   -8.3748    5.3676  -14.5811 C   0  0  0  0  0  0  0  0  0  0  0  0
   -7.8970    4.4086  -13.4592 N   0  0  0  0  0  0  0  0  0  0  0  0
   -8.1583    4.4165  -12.0880 C   0  0  0  0  0  0  0  0  0  0  0  0
   -8.3498    5.6661  -11.4687 C   0  0  0  0  0  0  0  0  0  0  0  0
   -8.4129    5.7860  -10.0795 C   0  0  0  0  0  0  0  0  0  0  0  0
   -8.3394    4.6334   -9.3274 C   0  0  0  0  0  0  0  0  0  0  0  0
   -8.1985    3.3805   -9.9299 C   0  0  0  0  0  0  0  0  0  0  0  0
   -8.0655    3.2578  -11.3105 C   0  0  0  0  0  0  0  0  0  0  0  0
   -8.2316    2.3295   -8.8544 C   0  0  0  0  0  0  0  0  0  0  0  0
   -8.0175    3.1019   -7.6185 N   0  0  0  0  0  0  0  0  0  0  0  0
   -8.4388    2.4981   -6.3629 C   0  0  0  0  0  0  0  0  0  0  0  0
   -9.9227    2.2252   -6.0898 C   0  0  0  0  0  0  0  0  0  0  0  0
  -10.6530    3.3661   -6.1718 F   0  0  0  0  0  0  0  0  0  0  0  0
  -10.4172    1.3475   -6.9908 F   0  0  0  0  0  0  0  0  0  0  0  0
   -8.4064    4.4848   -7.8435 C   0  0  0  0  0  0  0  0  0  0  0  0
   -7.6499    5.0953  -15.8495 C   0  0  0  0  0  0  0  0  0  0  0  0
   -8.1672    4.6700  -17.0719 C   0  0  0  0  0  0  0  0  0  0  0  0
   -9.8086    4.2573  -17.3060 Cl  0  0  0  0  0  0  0  0  0  0  0  0
   -7.3486    4.6096  -18.1994 C   0  0  0  0  0  0  0  0  0  0  0  0
   -6.0118    5.0233  -18.1522 C   0  0  0  0  0  0  0  0  0  0  0  0
   -5.4831    5.5649  -16.9647 C   0  0  0  0  0  0  0  0  0  0  0  0
   -4.2522    6.2081  -16.5874 C   0  0  0  0  0  0  0  0  0  0  0  0
   -2.9811    6.4792  -17.3368 C   0  0  0  0  0  0  0  0  0  0  0  0
   -3.0652    7.0483  -18.6837 N   0  0  0  0  0  0  0  0  0  0  0  0
   -4.1512    7.9921  -18.9425 C   0  0  0  0  0  0  0  0  0  0  0  0
   -4.0394    8.6538  -20.3253 C   0  0  0  0  0  0  0  0  0  0  0  0
   -3.8602    7.5842  -21.4044 C   0  0  0  0  0  0  0  0  0  0  0  0
   -3.7939    8.1301  -22.7524 N   0  0  0  0  0  0  0  0  0  0  0  0
   -2.7398    8.6310  -23.4240 C   0  0  0  0  0  0  0  0  0  0  0  0
   -2.9956    9.0625  -24.6178 N   0  0  0  0  0  0  0  0  0  0  0  0
   -4.3412    8.8554  -24.7486 N   0  0  0  0  0  0  0  0  0  0  0  0
   -4.8729    8.3303  -23.5757 C   0  0  0  0  0  0  0  0  0  0  0  0
   -6.0533    8.1377  -23.3434 O   0  0  0  0  0  0  0  0  0  0  0  0
   -2.6131    6.7721  -21.0635 C   0  0  0  0  0  0  0  0  0  0  0  0
   -2.7966    6.0727  -19.7275 C   0  0  0  0  0  0  0  0  0  0  0  0
   -4.3984    6.5645  -15.2552 C   0  0  0  0  0  0  0  0  0  0  0  0
   -5.6235    6.1687  -14.8195 N   0  0  0  0  0  0  0  0  0  0  0  0
   -6.3175    5.5675  -15.8459 C   0  0  0  0  0  0  0  0  0  0  0  0
  1  2  2  0
  2  3  1  0
  3  4  1  0
  4  5  2  0
  5  6  1  0
  6  7  2  0
  7  8  1  0
  8  9  2  0
  8 10  1  0
 10 11  1  0
 11 12  1  0
 12 13  1  0
 13 14  1  0
 13 15  1  0
 11 16  1  0
  2 17  1  0
 17 18  2  0
 18 19  1  0
 18 20  1  0
 20 21  2  0
 21 22  1  0
 22 23  1  0
 23 24  1  0
 24 25  1  0
 25 26  1  0
 26 27  1  0
 27 28  1  0
 28 29  1  0
 29 30  1  0
 30 31  2  0
 31 32  1  0
 32 33  1  0
 33 34  2  0
 28 35  1  0
 35 36  1  0
 23 37  2  0
 37 38  1  0
 38 39  1  0
  9  4  1  0
 39 17  1  0
 16  7  1  0
 39 22  2  0
 36 25  1  0
 33 29  1  0
M  END
>  <smiles>  (101) 
C71708-P5

>  <fragmenstein_outcome>  (101) 
acceptable

>  <inchikey>  (101) 
KQSTZNCNFMNEDW-UHFFFAOYSA-N

>  <fragmenstein_mode>  (101) 
expansion

>  <HIPPO Pose ID>  (101) 
1190

>  <Energy>  (101) 
99.853897

>  <fragmenstein_error>  (101) 


>  <tags>  (101) 
{'openbind_xx01zvns2b_c1_fragmenstein', 'fragmenstein_placed'}

>  <ref_pdb>  (101) 
1

>  <scratch_subdir>  (101) 
/opt/xchem-fragalysis-2/maxwin/BulkDock/SCRATCH/511027/C71708-P5

>  <alias>  (101) 
O=C(Nc1ccc2c(c1)CN(CC(F)F)C2)c1c(Cl)ccc2c(CN3CCC(n4cn[nH]c4=O)CC3)c[nH]c12

>  <HIPPO Compound ID>  (101) 
99705

>  <fragmenstein_runtime>  (101) 
12.549913

$$$$
N[C@@H](c1c[nH]c2c1CCC[C@@H](Cl)[C@H]2C(=O)Nc1ccc2c(c1)CNC2)N1CCC(n2cn[nH]c2=O)CC1
     RDKit          3D

 37 42  0  0  0  0  0  0  0  0999 V2000
   -2.1537    6.8111  -16.6360 N   0  0  0  0  0  0  0  0  0  0  0  0
   -3.3797    6.4310  -17.3100 C   0  0  1  0  0  0  0  0  0  0  0  0
   -4.5728    6.7269  -16.4323 C   0  0  0  0  0  0  0  0  0  0  0  0
   -4.6840    7.6420  -15.4008 C   0  0  0  0  0  0  0  0  0  0  0  0
   -5.8872    7.4664  -14.7822 N   0  0  0  0  0  0  0  0  0  0  0  0
   -6.5790    6.4385  -15.3764 C   0  0  0  0  0  0  0  0  0  0  0  0
   -5.8288    6.0135  -16.4671 C   0  0  0  0  0  0  0  0  0  0  0  0
   -6.1802    4.9479  -17.4581 C   0  0  0  0  0  0  0  0  0  0  0  0
   -7.6509    4.9052  -17.8193 C   0  0  0  0  0  0  0  0  0  0  0  0
   -8.6054    4.3693  -16.7496 C   0  0  0  0  0  0  0  0  0  0  0  0
   -8.2991    4.5658  -15.2531 C   0  0  1  0  0  0  0  0  0  0  0  0
   -7.0627    3.4257  -14.6133 Cl  0  0  0  0  0  0  0  0  0  0  0  0
   -7.9204    5.9802  -14.8302 C   0  0  1  0  0  0  0  0  0  0  0  0
   -8.0387    6.3203  -13.2899 C   0  0  0  0  0  0  0  0  0  0  0  0
   -8.0602    7.4475  -12.9574 O   0  0  0  0  0  0  0  0  0  0  0  0
   -8.1478    5.0118  -12.4408 N   0  0  0  0  0  0  0  0  0  0  0  0
   -8.2068    4.8315  -11.0632 C   0  0  0  0  0  0  0  0  0  0  0  0
   -8.1359    5.9066  -10.1703 C   0  0  0  0  0  0  0  0  0  0  0  0
   -8.2338    5.6888   -8.7921 C   0  0  0  0  0  0  0  0  0  0  0  0
   -8.4396    4.3968   -8.3413 C   0  0  0  0  0  0  0  0  0  0  0  0
   -8.5086    3.3272   -9.2271 C   0  0  0  0  0  0  0  0  0  0  0  0
   -8.3711    3.5207  -10.5900 C   0  0  0  0  0  0  0  0  0  0  0  0
   -8.7255    2.0691   -8.4529 C   0  0  0  0  0  0  0  0  0  0  0  0
   -9.1731    2.5208   -7.1075 N   0  0  0  0  0  0  0  0  0  0  0  0
   -8.6151    3.8838   -6.9505 C   0  0  0  0  0  0  0  0  0  0  0  0
   -3.3145    7.1280  -18.5942 N   0  0  0  0  0  0  0  0  0  0  0  0
   -4.5007    7.8897  -19.0017 C   0  0  0  0  0  0  0  0  0  0  0  0
   -4.3162    8.5744  -20.3655 C   0  0  0  0  0  0  0  0  0  0  0  0
   -3.9369    7.5334  -21.4181 C   0  0  0  0  0  0  0  0  0  0  0  0
   -3.8264    8.0834  -22.7606 N   0  0  0  0  0  0  0  0  0  0  0  0
   -2.7543    8.5791  -23.4064 C   0  0  0  0  0  0  0  0  0  0  0  0
   -2.9825    9.0251  -24.6007 N   0  0  0  0  0  0  0  0  0  0  0  0
   -4.3275    8.8338  -24.7601 N   0  0  0  0  0  0  0  0  0  0  0  0
   -4.8873    8.3044  -23.6027 C   0  0  0  0  0  0  0  0  0  0  0  0
   -6.0744    8.1283  -23.3903 O   0  0  0  0  0  0  0  0  0  0  0  0
   -2.6579    6.8361  -20.9631 C   0  0  0  0  0  0  0  0  0  0  0  0
   -2.8886    6.1642  -19.6200 C   0  0  0  0  0  0  0  0  0  0  0  0
  2  1  1  1
  2  3  1  0
  3  4  2  0
  4  5  1  0
  5  6  1  0
  6  7  2  0
  7  8  1  0
  8  9  1  0
  9 10  1  0
 10 11  1  0
 11 12  1  6
 11 13  1  0
 13 14  1  1
 14 15  2  0
 14 16  1  0
 16 17  1  0
 17 18  2  0
 18 19  1  0
 19 20  2  0
 20 21  1  0
 21 22  2  0
 21 23  1  0
 23 24  1  0
 24 25  1  0
  2 26  1  0
 26 27  1  0
 27 28  1  0
 28 29  1  0
 29 30  1  0
 30 31  1  0
 31 32  2  0
 32 33  1  0
 33 34  1  0
 34 35  2  0
 29 36  1  0
 36 37  1  0
  7  3  1  0
 22 17  1  0
 37 26  1  0
 13  6  1  0
 25 20  1  0
 34 30  1  0
M  END
>  <smiles>  (102) 
C71718-P5

>  <fragmenstein_outcome>  (102) 
acceptable

>  <inchikey>  (102) 
HJPDYABYDLRCRX-UHFFFAOYSA-N

>  <fragmenstein_mode>  (102) 
expansion

>  <HIPPO Pose ID>  (102) 
1198

>  <Energy>  (102) 
-6.452614

>  <fragmenstein_error>  (102) 


>  <tags>  (102) 
{'openbind_xx01zvns2b_c1_fragmenstein', 'fragmenstein_placed'}

>  <ref_pdb>  (102) 
1

>  <scratch_subdir>  (102) 
/opt/xchem-fragalysis-2/maxwin/BulkDock/SCRATCH/511027/C71718-P5

>  <alias>  (102) 
N[C@@H](c1c[nH]c2c1CCC[C@@H](Cl)[C@H]2C(=O)Nc1ccc2c(c1)CNC2)N1CCC(n2cn[nH]c2=O)CC1

>  <HIPPO Compound ID>  (102) 
71718

>  <fragmenstein_runtime>  (102) 
12.994405

$$$$
O=C(Nc1ncccn1)c1c(F)ccc2c(CN3CCC(n4cn[nH]c4=O)CC3)c[nH]c12
     RDKit          3D

 32 36  0  0  0  0  0  0  0  0999 V2000
   -9.2410    5.7475  -14.1206 O   0  0  0  0  0  0  0  0  0  0  0  0
   -8.4336    4.9193  -14.2662 C   0  0  0  0  0  0  0  0  0  0  0  0
   -7.8464    3.9115  -13.2635 N   0  0  0  0  0  0  0  0  0  0  0  0
   -8.0481    3.7769  -11.9129 C   0  0  0  0  0  0  0  0  0  0  0  0
   -8.4317    4.8554  -11.2140 N   0  0  0  0  0  0  0  0  0  0  0  0
   -8.5091    4.7077   -9.8768 C   0  0  0  0  0  0  0  0  0  0  0  0
   -8.2365    3.5343   -9.2215 C   0  0  0  0  0  0  0  0  0  0  0  0
   -7.8281    2.5024  -10.0279 C   0  0  0  0  0  0  0  0  0  0  0  0
   -7.6850    2.6132  -11.3651 N   0  0  0  0  0  0  0  0  0  0  0  0
   -7.7411    4.8121  -15.5679 C   0  0  0  0  0  0  0  0  0  0  0  0
   -8.3076    4.3107  -16.7321 C   0  0  0  0  0  0  0  0  0  0  0  0
   -9.5560    3.8302  -16.7429 F   0  0  0  0  0  0  0  0  0  0  0  0
   -7.6071    4.3555  -17.9312 C   0  0  0  0  0  0  0  0  0  0  0  0
   -6.3215    4.9192  -17.9945 C   0  0  0  0  0  0  0  0  0  0  0  0
   -5.7262    5.4819  -16.8426 C   0  0  0  0  0  0  0  0  0  0  0  0
   -4.4860    6.1519  -16.5256 C   0  0  0  0  0  0  0  0  0  0  0  0
   -3.2170    6.3980  -17.2977 C   0  0  0  0  0  0  0  0  0  0  0  0
   -3.2969    6.7918  -18.6996 N   0  0  0  0  0  0  0  0  0  0  0  0
   -4.3100    7.7708  -19.0525 C   0  0  0  0  0  0  0  0  0  0  0  0
   -4.0765    8.3135  -20.4636 C   0  0  0  0  0  0  0  0  0  0  0  0
   -3.9694    7.1644  -21.4714 C   0  0  0  0  0  0  0  0  0  0  0  0
   -3.7734    7.6591  -22.8301 N   0  0  0  0  0  0  0  0  0  0  0  0
   -2.6453    8.1116  -23.4116 C   0  0  0  0  0  0  0  0  0  0  0  0
   -2.7984    8.6269  -24.5902 N   0  0  0  0  0  0  0  0  0  0  0  0
   -4.1476    8.5484  -24.8008 N   0  0  0  0  0  0  0  0  0  0  0  0
   -4.7843    8.0324  -23.6780 C   0  0  0  0  0  0  0  0  0  0  0  0
   -5.9874    7.9844  -23.4910 O   0  0  0  0  0  0  0  0  0  0  0  0
   -2.8600    6.2022  -21.0435 C   0  0  0  0  0  0  0  0  0  0  0  0
   -3.1007    5.6876  -19.6301 C   0  0  0  0  0  0  0  0  0  0  0  0
   -4.5874    6.5291  -15.1929 C   0  0  0  0  0  0  0  0  0  0  0  0
   -5.7670    6.0821  -14.6861 N   0  0  0  0  0  0  0  0  0  0  0  0
   -6.4712    5.4149  -15.6594 C   0  0  0  0  0  0  0  0  0  0  0  0
  1  2  2  0
  2  3  1  0
  3  4  1  0
  4  5  2  0
  5  6  1  0
  6  7  2  0
  7  8  1  0
  8  9  2  0
  2 10  1  0
 10 11  2  0
 11 12  1  0
 11 13  1  0
 13 14  2  0
 14 15  1  0
 15 16  1  0
 16 17  1  0
 17 18  1  0
 18 19  1  0
 19 20  1  0
 20 21  1  0
 21 22  1  0
 22 23  1  0
 23 24  2  0
 24 25  1  0
 25 26  1  0
 26 27  2  0
 21 28  1  0
 28 29  1  0
 16 30  2  0
 30 31  1  0
 31 32  1  0
  9  4  1  0
 32 10  1  0
 32 15  2  0
 29 18  1  0
 26 22  1  0
M  END
>  <smiles>  (103) 
C71725-P237

>  <fragmenstein_outcome>  (103) 
acceptable

>  <inchikey>  (103) 
KHZBAGSVZACJKY-UHFFFAOYSA-N

>  <fragmenstein_mode>  (103) 
expansion

>  <HIPPO Pose ID>  (103) 
1208

>  <Energy>  (103) 
-41.64343

>  <fragmenstein_error>  (103) 


>  <tags>  (103) 
{'openbind_xx01zvns2b_c1_fragmenstein', 'fragmenstein_placed'}

>  <ref_pdb>  (103) 
1

>  <scratch_subdir>  (103) 
/opt/xchem-fragalysis-2/maxwin/BulkDock/SCRATCH/511027/C71725-P237

>  <alias>  (103) 
O=C(Nc1ncccn1)c1c(F)ccc2c(CN3CCC(n4cn[nH]c4=O)CC3)c[nH]c12

>  <HIPPO Compound ID>  (103) 
90413

>  <fragmenstein_runtime>  (103) 
5.571985

$$$$
O=C(Nc1ccc(C2CNC2)cc1)c1c(Cl)ccc2c(CN3CCC(n4cn[nH]c4=O)CC3)c[nH]c12
     RDKit          3D

 36 41  0  0  0  0  0  0  0  0999 V2000
   -9.2544    6.1142  -14.3278 O   0  0  0  0  0  0  0  0  0  0  0  0
   -8.4127    5.3156  -14.4684 C   0  0  0  0  0  0  0  0  0  0  0  0
   -7.7849    4.3255  -13.4501 N   0  0  0  0  0  0  0  0  0  0  0  0
   -7.9910    4.1860  -12.0738 C   0  0  0  0  0  0  0  0  0  0  0  0
   -8.3935    5.2561  -11.2810 C   0  0  0  0  0  0  0  0  0  0  0  0
   -8.4495    5.1338   -9.8756 C   0  0  0  0  0  0  0  0  0  0  0  0
   -8.1545    3.9307   -9.2131 C   0  0  0  0  0  0  0  0  0  0  0  0
   -8.2059    3.7078   -7.6409 C   0  0  0  0  0  0  0  0  0  0  0  0
   -9.3034    2.7872   -7.0623 C   0  0  0  0  0  0  0  0  0  0  0  0
   -9.3848    3.6642   -5.8718 N   0  0  0  0  0  0  0  0  0  0  0  0
   -8.7590    4.7514   -6.6552 C   0  0  0  0  0  0  0  0  0  0  0  0
   -7.7530    2.8736  -10.0494 C   0  0  0  0  0  0  0  0  0  0  0  0
   -7.6498    2.9968  -11.4445 C   0  0  0  0  0  0  0  0  0  0  0  0
   -7.6915    5.2137  -15.7737 C   0  0  0  0  0  0  0  0  0  0  0  0
   -8.1646    4.7249  -16.9933 C   0  0  0  0  0  0  0  0  0  0  0  0
   -9.7472    4.1325  -17.2325 Cl  0  0  0  0  0  0  0  0  0  0  0  0
   -7.3478    4.7308  -18.1235 C   0  0  0  0  0  0  0  0  0  0  0  0
   -6.0525    5.2530  -18.0799 C   0  0  0  0  0  0  0  0  0  0  0  0
   -5.5665    5.8396  -16.8959 C   0  0  0  0  0  0  0  0  0  0  0  0
   -4.3632    6.5314  -16.5078 C   0  0  0  0  0  0  0  0  0  0  0  0
   -3.0785    6.8211  -17.2327 C   0  0  0  0  0  0  0  0  0  0  0  0
   -3.1364    7.2708  -18.6238 N   0  0  0  0  0  0  0  0  0  0  0  0
   -4.2168    8.1884  -18.9742 C   0  0  0  0  0  0  0  0  0  0  0  0
   -4.0745    8.7431  -20.3975 C   0  0  0  0  0  0  0  0  0  0  0  0
   -3.8791    7.5967  -21.3914 C   0  0  0  0  0  0  0  0  0  0  0  0
   -3.7927    8.0553  -22.7712 N   0  0  0  0  0  0  0  0  0  0  0  0
   -2.7314    8.5288  -23.4517 C   0  0  0  0  0  0  0  0  0  0  0  0
   -2.9792    8.9356  -24.6558 N   0  0  0  0  0  0  0  0  0  0  0  0
   -4.3273    8.7441  -24.7846 N   0  0  0  0  0  0  0  0  0  0  0  0
   -4.8689    8.2638  -23.5971 C   0  0  0  0  0  0  0  0  0  0  0  0
   -6.0540    8.1185  -23.3535 O   0  0  0  0  0  0  0  0  0  0  0  0
   -2.6401    6.8072  -20.9726 C   0  0  0  0  0  0  0  0  0  0  0  0
   -2.8290    6.2218  -19.5822 C   0  0  0  0  0  0  0  0  0  0  0  0
   -4.5436    6.8962  -15.1820 C   0  0  0  0  0  0  0  0  0  0  0  0
   -5.7567    6.4536  -14.7560 N   0  0  0  0  0  0  0  0  0  0  0  0
   -6.4063    5.8011  -15.7787 C   0  0  0  0  0  0  0  0  0  0  0  0
  1  2  2  0
  2  3  1  0
  3  4  1  0
  4  5  2  0
  5  6  1  0
  6  7  2  0
  7  8  1  0
  8  9  1  0
  9 10  1  0
 10 11  1  0
  7 12  1  0
 12 13  2  0
  2 14  1  0
 14 15  2  0
 15 16  1  0
 15 17  1  0
 17 18  2  0
 18 19  1  0
 19 20  1  0
 20 21  1  0
 21 22  1  0
 22 23  1  0
 23 24  1  0
 24 25  1  0
 25 26  1  0
 26 27  1  0
 27 28  2  0
 28 29  1  0
 29 30  1  0
 30 31  2  0
 25 32  1  0
 32 33  1  0
 20 34  2  0
 34 35  1  0
 35 36  1  0
 13  4  1  0
 36 14  1  0
 11  8  1  0
 36 19  2  0
 33 22  1  0
 30 26  1  0
M  END
>  <smiles>  (104) 
C71726-P5

>  <fragmenstein_outcome>  (104) 
acceptable

>  <inchikey>  (104) 
MHURFBXFTMOMLT-UHFFFAOYSA-N

>  <fragmenstein_mode>  (104) 
expansion

>  <HIPPO Pose ID>  (104) 
1209

>  <Energy>  (104) 
66.928486

>  <fragmenstein_error>  (104) 


>  <tags>  (104) 
{'openbind_xx01zvns2b_c1_fragmenstein', 'fragmenstein_placed'}

>  <ref_pdb>  (104) 
1

>  <scratch_subdir>  (104) 
/opt/xchem-fragalysis-2/maxwin/BulkDock/SCRATCH/511027/C71726-P5

>  <alias>  (104) 
O=C(Nc1ccc(C2CNC2)cc1)c1c(Cl)ccc2c(CN3CCC(n4cn[nH]c4=O)CC3)c[nH]c12

>  <HIPPO Compound ID>  (104) 
90860

>  <fragmenstein_runtime>  (104) 
8.881644

$$$$
O=C(Nc1ccncn1)c1c(F)ccc2c(CN3CCC(n4cn[nH]c4=O)CC3)c[nH]c12
     RDKit          3D

 32 36  0  0  0  0  0  0  0  0999 V2000
   -9.3696    6.0050  -14.1770 O   0  0  0  0  0  0  0  0  0  0  0  0
   -8.5267    5.2137  -14.3435 C   0  0  0  0  0  0  0  0  0  0  0  0
   -7.8616    4.2321  -13.3486 N   0  0  0  0  0  0  0  0  0  0  0  0
   -8.0218    4.0922  -11.9783 C   0  0  0  0  0  0  0  0  0  0  0  0
   -8.4556    5.1636  -11.2316 C   0  0  0  0  0  0  0  0  0  0  0  0
   -8.4669    4.9958   -9.8657 C   0  0  0  0  0  0  0  0  0  0  0  0
   -8.1182    3.8557   -9.2570 N   0  0  0  0  0  0  0  0  0  0  0  0
   -7.7140    2.8722  -10.0764 C   0  0  0  0  0  0  0  0  0  0  0  0
   -7.5922    2.9537  -11.4182 N   0  0  0  0  0  0  0  0  0  0  0  0
   -7.8561    5.1242  -15.6625 C   0  0  0  0  0  0  0  0  0  0  0  0
   -8.3731    4.5578  -16.8219 C   0  0  0  0  0  0  0  0  0  0  0  0
   -9.5818    3.9844  -16.8440 F   0  0  0  0  0  0  0  0  0  0  0  0
   -7.6323    4.5693  -17.9993 C   0  0  0  0  0  0  0  0  0  0  0  0
   -6.3444    5.1309  -18.0414 C   0  0  0  0  0  0  0  0  0  0  0  0
   -5.8055    5.7596  -16.8971 C   0  0  0  0  0  0  0  0  0  0  0  0
   -4.5780    6.4418  -16.5633 C   0  0  0  0  0  0  0  0  0  0  0  0
   -3.2912    6.6316  -17.3129 C   0  0  0  0  0  0  0  0  0  0  0  0
   -3.3420    7.1474  -18.6788 N   0  0  0  0  0  0  0  0  0  0  0  0
   -4.4102    8.0917  -18.9965 C   0  0  0  0  0  0  0  0  0  0  0  0
   -4.2342    8.7151  -20.3895 C   0  0  0  0  0  0  0  0  0  0  0  0
   -4.0329    7.6160  -21.4345 C   0  0  0  0  0  0  0  0  0  0  0  0
   -3.8946    8.1308  -22.7883 N   0  0  0  0  0  0  0  0  0  0  0  0
   -2.8045    8.6048  -23.4208 C   0  0  0  0  0  0  0  0  0  0  0  0
   -3.0029    9.0236  -24.6299 N   0  0  0  0  0  0  0  0  0  0  0  0
   -4.3455    8.8366  -24.8148 N   0  0  0  0  0  0  0  0  0  0  0  0
   -4.9344    8.3369  -23.6584 C   0  0  0  0  0  0  0  0  0  0  0  0
   -6.1263    8.1676  -23.4699 O   0  0  0  0  0  0  0  0  0  0  0  0
   -2.8249    6.7796  -21.0232 C   0  0  0  0  0  0  0  0  0  0  0  0
   -3.0850    6.1226  -19.6790 C   0  0  0  0  0  0  0  0  0  0  0  0
   -4.7248    6.8860  -15.2579 C   0  0  0  0  0  0  0  0  0  0  0  0
   -5.9289    6.4744  -14.7814 N   0  0  0  0  0  0  0  0  0  0  0  0
   -6.5977    5.7569  -15.7453 C   0  0  0  0  0  0  0  0  0  0  0  0
  1  2  2  0
  2  3  1  0
  3  4  1  0
  4  5  2  0
  5  6  1  0
  6  7  2  0
  7  8  1  0
  8  9  2  0
  2 10  1  0
 10 11  2  0
 11 12  1  0
 11 13  1  0
 13 14  2  0
 14 15  1  0
 15 16  1  0
 16 17  1  0
 17 18  1  0
 18 19  1  0
 19 20  1  0
 20 21  1  0
 21 22  1  0
 22 23  1  0
 23 24  2  0
 24 25  1  0
 25 26  1  0
 26 27  2  0
 21 28  1  0
 28 29  1  0
 16 30  2  0
 30 31  1  0
 31 32  1  0
  9  4  1  0
 32 10  1  0
 32 15  2  0
 29 18  1  0
 26 22  1  0
M  END
>  <smiles>  (105) 
C71728-P5

>  <fragmenstein_outcome>  (105) 
acceptable

>  <inchikey>  (105) 
NPQBOZWYLYPZRZ-UHFFFAOYSA-N

>  <fragmenstein_mode>  (105) 
expansion

>  <HIPPO Pose ID>  (105) 
1211

>  <Energy>  (105) 
-24.080625

>  <fragmenstein_error>  (105) 


>  <tags>  (105) 
{'openbind_xx01zvns2b_c1_fragmenstein', 'fragmenstein_placed'}

>  <ref_pdb>  (105) 
1

>  <scratch_subdir>  (105) 
/opt/xchem-fragalysis-2/maxwin/BulkDock/SCRATCH/511027/C71728-P5

>  <alias>  (105) 
O=C(Nc1ccncn1)c1c(F)ccc2c(CN3CCC(n4cn[nH]c4=O)CC3)c[nH]c12

>  <HIPPO Compound ID>  (105) 
91965

>  <fragmenstein_runtime>  (105) 
8.430007

$$$$
CNCc1cccc(NC(=O)c2c(Cl)ccc3c(CN4CCC(n5cn[nH]c5=O)CC4)c[nH]c23)c1
     RDKit          3D

 35 39  0  0  0  0  0  0  0  0999 V2000
   -9.2997    2.8022   -6.7325 C   0  0  0  0  0  0  0  0  0  0  0  0
   -8.1322    2.3553   -7.4478 N   0  0  0  0  0  0  0  0  0  0  0  0
   -8.2952    2.2010   -8.8923 C   0  0  0  0  0  0  0  0  0  0  0  0
   -8.2096    3.4561   -9.7504 C   0  0  0  0  0  0  0  0  0  0  0  0
   -8.2612    4.7417   -9.1980 C   0  0  0  0  0  0  0  0  0  0  0  0
   -8.3274    5.8676  -10.0107 C   0  0  0  0  0  0  0  0  0  0  0  0
   -8.3183    5.7295  -11.3955 C   0  0  0  0  0  0  0  0  0  0  0  0
   -8.1696    4.4732  -11.9862 C   0  0  0  0  0  0  0  0  0  0  0  0
   -7.9018    4.4495  -13.3602 N   0  0  0  0  0  0  0  0  0  0  0  0
   -8.3948    5.3845  -14.5012 C   0  0  0  0  0  0  0  0  0  0  0  0
   -9.1600    6.2686  -14.4788 O   0  0  0  0  0  0  0  0  0  0  0  0
   -7.6668    5.1217  -15.7753 C   0  0  0  0  0  0  0  0  0  0  0  0
   -8.1583    4.6583  -16.9969 C   0  0  0  0  0  0  0  0  0  0  0  0
   -9.7698    4.1527  -17.2442 Cl  0  0  0  0  0  0  0  0  0  0  0  0
   -7.3395    4.6309  -18.1270 C   0  0  0  0  0  0  0  0  0  0  0  0
   -6.0273    5.1119  -18.0885 C   0  0  0  0  0  0  0  0  0  0  0  0
   -5.5276    5.6949  -16.9095 C   0  0  0  0  0  0  0  0  0  0  0  0
   -4.3186    6.3846  -16.5351 C   0  0  0  0  0  0  0  0  0  0  0  0
   -3.0432    6.6658  -17.2769 C   0  0  0  0  0  0  0  0  0  0  0  0
   -3.1202    7.1671  -18.6498 N   0  0  0  0  0  0  0  0  0  0  0  0
   -4.2132    8.0852  -18.9607 C   0  0  0  0  0  0  0  0  0  0  0  0
   -4.0849    8.6933  -20.3650 C   0  0  0  0  0  0  0  0  0  0  0  0
   -3.8818    7.5853  -21.4003 C   0  0  0  0  0  0  0  0  0  0  0  0
   -3.8018    8.0878  -22.7648 N   0  0  0  0  0  0  0  0  0  0  0  0
   -2.7430    8.5773  -23.4377 C   0  0  0  0  0  0  0  0  0  0  0  0
   -2.9924    8.9980  -24.6366 N   0  0  0  0  0  0  0  0  0  0  0  0
   -4.3387    8.7976  -24.7698 N   0  0  0  0  0  0  0  0  0  0  0  0
   -4.8778    8.2929  -23.5913 C   0  0  0  0  0  0  0  0  0  0  0  0
   -6.0612    8.1235  -23.3557 O   0  0  0  0  0  0  0  0  0  0  0  0
   -2.6349    6.7930  -21.0126 C   0  0  0  0  0  0  0  0  0  0  0  0
   -2.8225    6.1522  -19.6473 C   0  0  0  0  0  0  0  0  0  0  0  0
   -4.4869    6.7621  -15.2120 C   0  0  0  0  0  0  0  0  0  0  0  0
   -5.7000    6.3313  -14.7763 N   0  0  0  0  0  0  0  0  0  0  0  0
   -6.3626    5.6733  -15.7891 C   0  0  0  0  0  0  0  0  0  0  0  0
   -8.1060    3.3406  -11.1636 C   0  0  0  0  0  0  0  0  0  0  0  0
  1  2  1  0
  2  3  1  0
  3  4  1  0
  4  5  2  0
  5  6  1  0
  6  7  2  0
  7  8  1  0
  8  9  1  0
  9 10  1  0
 10 11  2  0
 10 12  1  0
 12 13  2  0
 13 14  1  0
 13 15  1  0
 15 16  2  0
 16 17  1  0
 17 18  1  0
 18 19  1  0
 19 20  1  0
 20 21  1  0
 21 22  1  0
 22 23  1  0
 23 24  1  0
 24 25  1  0
 25 26  2  0
 26 27  1  0
 27 28  1  0
 28 29  2  0
 23 30  1  0
 30 31  1  0
 18 32  2  0
 32 33  1  0
 33 34  1  0
  8 35  2  0
 35  4  1  0
 34 12  1  0
 34 17  2  0
 31 20  1  0
 28 24  1  0
M  END
>  <smiles>  (106) 
C71745-P5

>  <fragmenstein_outcome>  (106) 
acceptable

>  <inchikey>  (106) 
JDULCMRYBJFVEB-UHFFFAOYSA-N

>  <fragmenstein_mode>  (106) 
expansion

>  <HIPPO Pose ID>  (106) 
1226

>  <Energy>  (106) 
52.519482

>  <fragmenstein_error>  (106) 


>  <tags>  (106) 
{'openbind_xx01zvns2b_c1_fragmenstein', 'fragmenstein_placed'}

>  <ref_pdb>  (106) 
1

>  <scratch_subdir>  (106) 
/opt/xchem-fragalysis-2/maxwin/BulkDock/SCRATCH/511027/C71745-P5

>  <alias>  (106) 
CNCc1cccc(NC(=O)c2c(Cl)ccc3c(CN4CCC(n5cn[nH]c5=O)CC4)c[nH]c23)c1

>  <HIPPO Compound ID>  (106) 
93982

>  <fragmenstein_runtime>  (106) 
10.121992

$$$$
COc1ccc2c(c1N)NC(N)=[S@]2C(=O)Nc1cccc(CN)c1
     RDKit          3D

 24 26  0  0  0  0  0  0  0  0999 V2000
   -2.4706    4.8894  -19.2964 C   0  0  0  0  0  0  0  0  0  0  0  0
   -3.0564    6.1373  -18.9488 O   0  0  0  0  0  0  0  0  0  0  0  0
   -4.1755    5.9324  -18.1750 C   0  0  0  0  0  0  0  0  0  0  0  0
   -3.9949    6.0120  -16.7903 C   0  0  0  0  0  0  0  0  0  0  0  0
   -5.0807    5.9284  -15.9200 C   0  0  0  0  0  0  0  0  0  0  0  0
   -6.3379    5.6933  -16.4878 C   0  0  0  0  0  0  0  0  0  0  0  0
   -6.5055    5.5296  -17.8562 C   0  0  0  0  0  0  0  0  0  0  0  0
   -5.4480    5.7656  -18.7606 C   0  0  0  0  0  0  0  0  0  0  0  0
   -5.6650    5.9116  -20.1394 N   0  0  0  0  0  0  0  0  0  0  0  0
   -7.7710    5.0558  -18.1602 N   0  0  0  0  0  0  0  0  0  0  0  0
   -8.4762    4.7423  -17.1075 C   0  0  0  0  0  0  0  0  0  0  0  0
   -9.6637    4.1650  -17.2941 N   0  0  0  0  0  0  0  0  0  0  0  0
   -7.9228    5.6454  -15.7827 S   0  0  0  0  0  0  0  0  0  0  0  0
   -7.4819    4.4711  -14.4827 C   0  0  0  0  0  0  0  0  0  0  0  0
   -6.8517    3.5457  -14.7875 O   0  0  0  0  0  0  0  0  0  0  0  0
   -7.9453    4.9468  -13.0997 N   0  0  0  0  0  0  0  0  0  0  0  0
   -7.6609    4.4526  -11.8342 C   0  0  0  0  0  0  0  0  0  0  0  0
   -6.9554    3.2630  -11.6600 C   0  0  0  0  0  0  0  0  0  0  0  0
   -6.6057    2.8463  -10.3781 C   0  0  0  0  0  0  0  0  0  0  0  0
   -6.9459    3.6302   -9.2770 C   0  0  0  0  0  0  0  0  0  0  0  0
   -7.6531    4.8279   -9.4351 C   0  0  0  0  0  0  0  0  0  0  0  0
   -7.9684    5.6865   -8.2400 C   0  0  0  0  0  0  0  0  0  0  0  0
   -6.7615    6.2856   -7.6770 N   0  0  0  0  0  0  0  0  0  0  0  0
   -8.0268    5.2220  -10.7260 C   0  0  0  0  0  0  0  0  0  0  0  0
  1  2  1  0
  2  3  1  0
  3  4  2  0
  4  5  1  0
  5  6  2  0
  6  7  1  0
  7  8  2  0
  8  9  1  0
  7 10  1  0
 10 11  1  0
 11 12  1  0
 11 13  2  0
 13 14  1  1
 14 15  2  0
 14 16  1  0
 16 17  1  0
 17 18  2  0
 18 19  1  0
 19 20  2  0
 20 21  1  0
 21 22  1  0
 22 23  1  0
 21 24  2  0
  8  3  1  0
 24 17  1  0
 13  6  1  0
M  END
>  <smiles>  (107) 
C71828-P6

>  <fragmenstein_outcome>  (107) 
acceptable

>  <inchikey>  (107) 
HRIUAWAJWNLLKR-UHFFFAOYSA-N

>  <fragmenstein_mode>  (107) 
expansion

>  <HIPPO Pose ID>  (107) 
1251

>  <Energy>  (107) 
8.046949

>  <fragmenstein_error>  (107) 


>  <tags>  (107) 
{'openbind_xx01zvns2b_c1_fragmenstein', 'fragmenstein_placed'}

>  <ref_pdb>  (107) 
1

>  <scratch_subdir>  (107) 
/opt/xchem-fragalysis-2/maxwin/BulkDock/SCRATCH/511027/C71828-P6

>  <alias>  (107) 
COc1ccc2c(c1N)NC(N)=[S@]2C(=O)Nc1cccc(CN)c1

>  <HIPPO Compound ID>  (107) 
93811

>  <fragmenstein_runtime>  (107) 
3.383786

$$$$
COc1ccc2c(c1)NC(N)=[S@]2C(=O)Nc1ccc2c(c1)CNC2
     RDKit          3D

 24 27  0  0  0  0  0  0  0  0999 V2000
   -2.7183    5.3975  -19.9136 C   0  0  0  0  0  0  0  0  0  0  0  0
   -2.7656    5.4353  -18.4982 O   0  0  0  0  0  0  0  0  0  0  0  0
   -4.0158    5.4039  -17.9379 C   0  0  0  0  0  0  0  0  0  0  0  0
   -4.0374    5.7949  -16.5955 C   0  0  0  0  0  0  0  0  0  0  0  0
   -5.2250    5.8355  -15.8621 C   0  0  0  0  0  0  0  0  0  0  0  0
   -6.3945    5.4424  -16.5199 C   0  0  0  0  0  0  0  0  0  0  0  0
   -6.3759    4.9904  -17.8326 C   0  0  0  0  0  0  0  0  0  0  0  0
   -5.1921    4.9955  -18.5804 C   0  0  0  0  0  0  0  0  0  0  0  0
   -7.6019    4.5036  -18.2257 N   0  0  0  0  0  0  0  0  0  0  0  0
   -8.4853    4.4479  -17.2692 C   0  0  0  0  0  0  0  0  0  0  0  0
   -9.7062    3.9887  -17.5497 N   0  0  0  0  0  0  0  0  0  0  0  0
   -8.0389    5.4771  -16.0154 S   0  0  0  0  0  0  0  0  0  0  0  0
   -7.8008    4.4630  -14.5477 C   0  0  0  0  0  0  0  0  0  0  0  0
   -7.3953    3.3772  -14.6501 O   0  0  0  0  0  0  0  0  0  0  0  0
   -8.1099    5.2994  -13.2906 N   0  0  0  0  0  0  0  0  0  0  0  0
   -7.9023    5.0183  -11.9464 C   0  0  0  0  0  0  0  0  0  0  0  0
   -7.3742    3.7978  -11.5074 C   0  0  0  0  0  0  0  0  0  0  0  0
   -7.0959    3.5984  -10.1509 C   0  0  0  0  0  0  0  0  0  0  0  0
   -7.3413    4.6358   -9.2662 C   0  0  0  0  0  0  0  0  0  0  0  0
   -7.8798    5.8401   -9.6993 C   0  0  0  0  0  0  0  0  0  0  0  0
   -8.1785    6.0448  -11.0328 C   0  0  0  0  0  0  0  0  0  0  0  0
   -8.0523    6.7554   -8.5365 C   0  0  0  0  0  0  0  0  0  0  0  0
   -7.2836    6.1354   -7.4245 N   0  0  0  0  0  0  0  0  0  0  0  0
   -7.1278    4.7009   -7.7936 C   0  0  0  0  0  0  0  0  0  0  0  0
  1  2  1  0
  2  3  1  0
  3  4  2  0
  4  5  1  0
  5  6  2  0
  6  7  1  0
  7  8  2  0
  7  9  1  0
  9 10  1  0
 10 11  1  0
 10 12  2  0
 12 13  1  1
 13 14  2  0
 13 15  1  0
 15 16  1  0
 16 17  2  0
 17 18  1  0
 18 19  2  0
 19 20  1  0
 20 21  2  0
 20 22  1  0
 22 23  1  0
 23 24  1  0
  8  3  1  0
 21 16  1  0
 12  6  1  0
 24 19  1  0
M  END
>  <smiles>  (108) 
C71834-P60

>  <fragmenstein_outcome>  (108) 
acceptable

>  <inchikey>  (108) 
LQIXPOAPCDFAJU-UHFFFAOYSA-N

>  <fragmenstein_mode>  (108) 
expansion

>  <HIPPO Pose ID>  (108) 
1261

>  <Energy>  (108) 
-25.67257

>  <fragmenstein_error>  (108) 


>  <tags>  (108) 
{'openbind_xx01zvns2b_c1_fragmenstein', 'fragmenstein_placed'}

>  <ref_pdb>  (108) 
1

>  <scratch_subdir>  (108) 
/opt/xchem-fragalysis-2/maxwin/BulkDock/SCRATCH/511027/C71834-P60

>  <alias>  (108) 
COc1ccc2c(c1)NC(N)=[S@]2C(=O)Nc1ccc2c(c1)CNC2

>  <HIPPO Compound ID>  (108) 
76880

>  <fragmenstein_runtime>  (108) 
2.205177

$$$$
CN(c1ccc2c(c1)NC(N)=[S@@]2C(=O)Nc1ccc2c(c1)CNC2)C(F)F
     RDKit          3D

 27 30  0  0  0  0  0  0  0  0999 V2000
   -3.0465    5.7089  -20.3710 C   0  0  0  0  0  0  0  0  0  0  0  0
   -2.9989    5.8800  -18.9239 N   0  0  0  0  0  0  0  0  0  0  0  0
   -4.1793    5.6790  -18.1869 C   0  0  0  0  0  0  0  0  0  0  0  0
   -4.1711    5.8869  -16.7924 C   0  0  0  0  0  0  0  0  0  0  0  0
   -5.2546    5.5745  -15.9643 C   0  0  0  0  0  0  0  0  0  0  0  0
   -6.3852    5.0484  -16.5818 C   0  0  0  0  0  0  0  0  0  0  0  0
   -6.5061    5.0042  -17.9638 C   0  0  0  0  0  0  0  0  0  0  0  0
   -5.4105    5.3193  -18.7807 C   0  0  0  0  0  0  0  0  0  0  0  0
   -7.7905    4.6662  -18.3592 N   0  0  0  0  0  0  0  0  0  0  0  0
   -8.6117    4.4339  -17.3651 C   0  0  0  0  0  0  0  0  0  0  0  0
   -9.8876    4.1773  -17.6366 N   0  0  0  0  0  0  0  0  0  0  0  0
   -7.7418    4.2207  -15.9779 S   0  0  0  0  0  0  0  0  0  0  0  0
   -8.0580    5.0994  -14.4784 C   0  0  0  0  0  0  0  0  0  0  0  0
   -8.0066    6.2603  -14.4863 O   0  0  0  0  0  0  0  0  0  0  0  0
   -8.2688    4.1208  -13.3151 N   0  0  0  0  0  0  0  0  0  0  0  0
   -8.3634    4.3509  -11.9429 C   0  0  0  0  0  0  0  0  0  0  0  0
   -8.2036    5.6145  -11.3616 C   0  0  0  0  0  0  0  0  0  0  0  0
   -8.1648    5.7527   -9.9649 C   0  0  0  0  0  0  0  0  0  0  0  0
   -8.3109    4.6224   -9.1766 C   0  0  0  0  0  0  0  0  0  0  0  0
   -8.5093    3.3779   -9.7509 C   0  0  0  0  0  0  0  0  0  0  0  0
   -8.5138    3.2214  -11.1259 C   0  0  0  0  0  0  0  0  0  0  0  0
   -8.7122    2.3542   -8.6878 C   0  0  0  0  0  0  0  0  0  0  0  0
   -8.6807    3.0932   -7.3989 N   0  0  0  0  0  0  0  0  0  0  0  0
   -8.2895    4.4855   -7.6935 C   0  0  0  0  0  0  0  0  0  0  0  0
   -1.7890    5.2788  -18.3656 C   0  0  0  0  0  0  0  0  0  0  0  0
   -1.7493    3.9681  -18.7100 F   0  0  0  0  0  0  0  0  0  0  0  0
   -0.7087    5.8779  -18.9273 F   0  0  0  0  0  0  0  0  0  0  0  0
  1  2  1  0
  2  3  1  0
  3  4  2  0
  4  5  1  0
  5  6  2  0
  6  7  1  0
  7  8  2  0
  7  9  1  0
  9 10  1  0
 10 11  1  0
 10 12  2  0
 12 13  1  1
 13 14  2  0
 13 15  1  0
 15 16  1  0
 16 17  2  0
 17 18  1  0
 18 19  2  0
 19 20  1  0
 20 21  2  0
 20 22  1  0
 22 23  1  0
 23 24  1  0
  2 25  1  0
 25 26  1  0
 25 27  1  0
  8  3  1  0
 21 16  1  0
 12  6  1  0
 24 19  1  0
M  END
>  <smiles>  (109) 
C71847-P67

>  <fragmenstein_outcome>  (109) 
acceptable

>  <inchikey>  (109) 
DUTHNFNFEIVGNQ-UHFFFAOYSA-N

>  <fragmenstein_mode>  (109) 
expansion

>  <HIPPO Pose ID>  (109) 
1266

>  <Energy>  (109) 
-27.841672

>  <fragmenstein_error>  (109) 


>  <tags>  (109) 
{'openbind_xx01zvns2b_c1_fragmenstein', 'fragmenstein_placed'}

>  <ref_pdb>  (109) 
1

>  <scratch_subdir>  (109) 
/opt/xchem-fragalysis-2/maxwin/BulkDock/SCRATCH/511027/C71847-P67

>  <alias>  (109) 
CN(c1ccc2c(c1)NC(N)=[S@@]2C(=O)Nc1ccc2c(c1)CNC2)C(F)F

>  <HIPPO Compound ID>  (109) 
85400

>  <fragmenstein_runtime>  (109) 
7.328662

$$$$
COc1ccc2c(c1)NC(N)=[S@]2[C@H](Nc1ccc2c(c1)CNC2)C(=O)NCS(=O)(=O)c1ccc(C)cc1
     RDKit          3D

 37 41  0  0  0  0  0  0  0  0999 V2000
   -2.8117    5.8616  -19.9265 C   0  0  0  0  0  0  0  0  0  0  0  0
   -2.9074    5.0969  -18.7326 O   0  0  0  0  0  0  0  0  0  0  0  0
   -4.0692    5.3737  -18.0620 C   0  0  0  0  0  0  0  0  0  0  0  0
   -3.9589    6.0366  -16.8449 C   0  0  0  0  0  0  0  0  0  0  0  0
   -5.0840    6.2519  -16.0455 C   0  0  0  0  0  0  0  0  0  0  0  0
   -6.3032    5.6860  -16.4455 C   0  0  0  0  0  0  0  0  0  0  0  0
   -6.4066    5.0551  -17.6802 C   0  0  0  0  0  0  0  0  0  0  0  0
   -5.3021    4.9118  -18.5263 C   0  0  0  0  0  0  0  0  0  0  0  0
   -7.6650    4.5720  -17.9103 N   0  0  0  0  0  0  0  0  0  0  0  0
   -8.5010    4.7102  -16.9290 C   0  0  0  0  0  0  0  0  0  0  0  0
   -9.7378    4.2549  -17.1070 N   0  0  0  0  0  0  0  0  0  0  0  0
   -7.8615    5.6721  -15.6765 S   0  0  0  0  0  0  0  0  0  0  0  0
   -7.5470    4.3700  -14.4404 C   0  0  2  0  0  0  0  0  0  0  0  0
   -8.7040    4.2343  -13.5109 N   0  0  0  0  0  0  0  0  0  0  0  0
   -8.5176    4.3422  -12.1253 C   0  0  0  0  0  0  0  0  0  0  0  0
   -8.2263    5.5849  -11.5318 C   0  0  0  0  0  0  0  0  0  0  0  0
   -8.1288    5.7294  -10.1412 C   0  0  0  0  0  0  0  0  0  0  0  0
   -8.3202    4.6118   -9.3529 C   0  0  0  0  0  0  0  0  0  0  0  0
   -8.5411    3.3654   -9.9254 C   0  0  0  0  0  0  0  0  0  0  0  0
   -8.6279    3.2144  -11.3000 C   0  0  0  0  0  0  0  0  0  0  0  0
   -8.6692    2.3448   -8.8418 C   0  0  0  0  0  0  0  0  0  0  0  0
   -8.9286    3.1407   -7.6089 N   0  0  0  0  0  0  0  0  0  0  0  0
   -8.3382    4.4723   -7.8687 C   0  0  0  0  0  0  0  0  0  0  0  0
   -6.1632    4.4539  -13.6522 C   0  0  0  0  0  0  0  0  0  0  0  0
   -5.6672    5.4675  -13.3399 O   0  0  0  0  0  0  0  0  0  0  0  0
   -5.6444    2.9880  -13.5083 N   0  0  0  0  0  0  0  0  0  0  0  0
   -4.3678    2.4826  -13.0375 C   0  0  0  0  0  0  0  0  0  0  0  0
   -4.0273    2.2365  -11.2934 S   0  0  0  0  0  0  0  0  0  0  0  0
   -2.6693    1.7271  -11.1732 O   0  0  0  0  0  0  0  0  0  0  0  0
   -5.1252    1.4973  -10.6972 O   0  0  0  0  0  0  0  0  0  0  0  0
   -3.9819    3.8548  -10.5670 C   0  0  0  0  0  0  0  0  0  0  0  0
   -4.7513    4.1300   -9.4381 C   0  0  0  0  0  0  0  0  0  0  0  0
   -4.6651    5.3887   -8.8392 C   0  0  0  0  0  0  0  0  0  0  0  0
   -3.8114    6.3709   -9.3567 C   0  0  0  0  0  0  0  0  0  0  0  0
   -3.7686    7.7371   -8.7393 C   0  0  0  0  0  0  0  0  0  0  0  0
   -3.0442    6.0798  -10.4908 C   0  0  0  0  0  0  0  0  0  0  0  0
   -3.1144    4.8197  -11.0875 C   0  0  0  0  0  0  0  0  0  0  0  0
  1  2  1  0
  2  3  1  0
  3  4  2  0
  4  5  1  0
  5  6  2  0
  6  7  1  0
  7  8  2  0
  7  9  1  0
  9 10  1  0
 10 11  1  0
 10 12  2  0
 12 13  1  0
 13 14  1  1
 14 15  1  0
 15 16  2  0
 16 17  1  0
 17 18  2  0
 18 19  1  0
 19 20  2  0
 19 21  1  0
 21 22  1  0
 22 23  1  0
 13 24  1  0
 24 25  2  0
 24 26  1  0
 26 27  1  0
 27 28  1  0
 28 29  2  0
 28 30  2  0
 28 31  1  0
 31 32  2  0
 32 33  1  0
 33 34  2  0
 34 35  1  0
 34 36  1  0
 36 37  2  0
  8  3  1  0
 20 15  1  0
 37 31  1  0
 12  6  1  6
 23 18  1  0
M  END
>  <smiles>  (110) 
C71854-P6

>  <fragmenstein_outcome>  (110) 
acceptable

>  <inchikey>  (110) 
VUYFLMLHNKZIEZ-UHFFFAOYSA-N

>  <fragmenstein_mode>  (110) 
expansion

>  <HIPPO Pose ID>  (110) 
1271

>  <Energy>  (110) 
109.903508

>  <fragmenstein_error>  (110) 


>  <tags>  (110) 
{'openbind_xx01zvns2b_c1_fragmenstein', 'fragmenstein_placed'}

>  <ref_pdb>  (110) 
1

>  <scratch_subdir>  (110) 
/opt/xchem-fragalysis-2/maxwin/BulkDock/SCRATCH/511027/C71854-P6

>  <alias>  (110) 
COc1ccc2c(c1)NC(N)=[S@]2[C@H](Nc1ccc2c(c1)CNC2)C(=O)NCS(=O)(=O)c1ccc(C)cc1

>  <HIPPO Compound ID>  (110) 
80222

>  <fragmenstein_runtime>  (110) 
11.077945

$$$$
COc1ccc2c(c1)NC(N)=[S@@]2C(=O)Nc1cc2c(c(C3=CCS(=O)(=O)CC3)c1)CNC2
     RDKit          3D

 32 36  0  0  0  0  0  0  0  0999 V2000
   -2.1255    4.9456  -19.0807 C   0  0  0  0  0  0  0  0  0  0  0  0
   -3.3057    5.7174  -19.2452 O   0  0  0  0  0  0  0  0  0  0  0  0
   -4.3159    5.3972  -18.3762 C   0  0  0  0  0  0  0  0  0  0  0  0
   -4.1217    5.2122  -17.0055 C   0  0  0  0  0  0  0  0  0  0  0  0
   -5.1967    4.8973  -16.1615 C   0  0  0  0  0  0  0  0  0  0  0  0
   -6.4726    4.7776  -16.7397 C   0  0  0  0  0  0  0  0  0  0  0  0
   -6.6702    5.0412  -18.0864 C   0  0  0  0  0  0  0  0  0  0  0  0
   -5.5983    5.3415  -18.9303 C   0  0  0  0  0  0  0  0  0  0  0  0
   -7.9970    5.0437  -18.4242 N   0  0  0  0  0  0  0  0  0  0  0  0
   -8.8141    4.8215  -17.4365 C   0  0  0  0  0  0  0  0  0  0  0  0
  -10.1128    4.7393  -17.7155 N   0  0  0  0  0  0  0  0  0  0  0  0
   -8.0138    4.3165  -16.0387 S   0  0  0  0  0  0  0  0  0  0  0  0
   -7.9641    5.7117  -14.8919 C   0  0  0  0  0  0  0  0  0  0  0  0
   -7.7773    6.7508  -15.3811 O   0  0  0  0  0  0  0  0  0  0  0  0
   -8.0763    5.3119  -13.4057 N   0  0  0  0  0  0  0  0  0  0  0  0
   -7.8925    6.0697  -12.2458 C   0  0  0  0  0  0  0  0  0  0  0  0
   -7.3535    7.3496  -12.3638 C   0  0  0  0  0  0  0  0  0  0  0  0
   -6.9092    7.9852  -11.2212 C   0  0  0  0  0  0  0  0  0  0  0  0
   -7.0433    7.4096   -9.9549 C   0  0  0  0  0  0  0  0  0  0  0  0
   -7.6765    6.1726   -9.7856 C   0  0  0  0  0  0  0  0  0  0  0  0
   -7.9743    5.5925   -8.4522 C   0  0  0  0  0  0  0  0  0  0  0  0
   -7.8934    4.2793   -8.1522 C   0  0  0  0  0  0  0  0  0  0  0  0
   -8.3091    3.7524   -6.7943 C   0  0  0  0  0  0  0  0  0  0  0  0
   -7.5447    4.7338   -5.4737 S   0  0  0  0  0  0  0  0  0  0  0  0
   -8.4727    4.7885   -4.3544 O   0  0  0  0  0  0  0  0  0  0  0  0
   -6.1609    4.3369   -5.2414 O   0  0  0  0  0  0  0  0  0  0  0  0
   -7.4983    6.3891   -6.1528 C   0  0  0  0  0  0  0  0  0  0  0  0
   -8.4373    6.5009   -7.3398 C   0  0  0  0  0  0  0  0  0  0  0  0
   -8.0757    5.4987  -10.9692 C   0  0  0  0  0  0  0  0  0  0  0  0
   -6.3000    8.2896   -8.9928 C   0  0  0  0  0  0  0  0  0  0  0  0
   -6.0726    9.5799   -9.6951 N   0  0  0  0  0  0  0  0  0  0  0  0
   -6.1467    9.2641  -11.1365 C   0  0  0  0  0  0  0  0  0  0  0  0
  1  2  1  0
  2  3  1  0
  3  4  2  0
  4  5  1  0
  5  6  2  0
  6  7  1  0
  7  8  2  0
  7  9  1  0
  9 10  1  0
 10 11  1  0
 10 12  2  0
 12 13  1  1
 13 14  2  0
 13 15  1  0
 15 16  1  0
 16 17  2  0
 17 18  1  0
 18 19  2  0
 19 20  1  0
 20 21  1  0
 21 22  2  0
 22 23  1  0
 23 24  1  0
 24 25  2  0
 24 26  2  0
 24 27  1  0
 27 28  1  0
 20 29  2  0
 19 30  1  0
 30 31  1  0
 31 32  1  0
  8  3  1  0
 29 16  1  0
 12  6  1  0
 32 18  1  0
 28 21  1  0
M  END
>  <smiles>  (111) 
C71862-P6

>  <fragmenstein_outcome>  (111) 
acceptable

>  <inchikey>  (111) 
MVPXPFOOKPGDNT-UHFFFAOYSA-N

>  <fragmenstein_mode>  (111) 
expansion

>  <HIPPO Pose ID>  (111) 
1278

>  <Energy>  (111) 
15.560685

>  <fragmenstein_error>  (111) 


>  <tags>  (111) 
{'openbind_xx01zvns2b_c1_fragmenstein', 'fragmenstein_placed'}

>  <ref_pdb>  (111) 
1

>  <scratch_subdir>  (111) 
/opt/xchem-fragalysis-2/maxwin/BulkDock/SCRATCH/511027/C71862-P6

>  <alias>  (111) 
COc1ccc2c(c1)NC(N)=[S@@]2C(=O)Nc1cc2c(c(C3=CCS(=O)(=O)CC3)c1)CNC2

>  <HIPPO Compound ID>  (111) 
79795

>  <fragmenstein_runtime>  (111) 
11.817314

$$$$
COc1ccc2c(c1)NC(N)=[S@]2C(=O)Nc1cc2c(c(C3=CCS(=O)(=O)CC3)c1)CNC2
     RDKit          3D

 32 36  0  0  0  0  0  0  0  0999 V2000
   -2.5642    5.3691  -20.0100 C   0  0  0  0  0  0  0  0  0  0  0  0
   -2.7117    5.6214  -18.6203 O   0  0  0  0  0  0  0  0  0  0  0  0
   -3.9739    5.5160  -18.1015 C   0  0  0  0  0  0  0  0  0  0  0  0
   -4.0998    6.0486  -16.8137 C   0  0  0  0  0  0  0  0  0  0  0  0
   -5.3182    6.0409  -16.1306 C   0  0  0  0  0  0  0  0  0  0  0  0
   -6.4015    5.4309  -16.7701 C   0  0  0  0  0  0  0  0  0  0  0  0
   -6.2690    4.8342  -18.0176 C   0  0  0  0  0  0  0  0  0  0  0  0
   -5.0685    4.9137  -18.7317 C   0  0  0  0  0  0  0  0  0  0  0  0
   -7.3912    4.1167  -18.3630 N   0  0  0  0  0  0  0  0  0  0  0  0
   -8.3328    4.1148  -17.4627 C   0  0  0  0  0  0  0  0  0  0  0  0
   -9.4797    3.5029  -17.7235 N   0  0  0  0  0  0  0  0  0  0  0  0
   -8.0541    5.3123  -16.3454 S   0  0  0  0  0  0  0  0  0  0  0  0
   -7.9246    4.5773  -14.7265 C   0  0  0  0  0  0  0  0  0  0  0  0
   -8.7998    4.9279  -14.0401 O   0  0  0  0  0  0  0  0  0  0  0  0
   -6.6966    3.7100  -14.4101 N   0  0  0  0  0  0  0  0  0  0  0  0
   -6.2488    3.1872  -13.2067 C   0  0  0  0  0  0  0  0  0  0  0  0
   -4.9997    2.5610  -13.1893 C   0  0  0  0  0  0  0  0  0  0  0  0
   -4.4228    2.3006  -11.9644 C   0  0  0  0  0  0  0  0  0  0  0  0
   -5.0576    2.6704  -10.7827 C   0  0  0  0  0  0  0  0  0  0  0  0
   -6.3089    3.2656  -10.7756 C   0  0  0  0  0  0  0  0  0  0  0  0
   -6.9319    3.7530   -9.5378 C   0  0  0  0  0  0  0  0  0  0  0  0
   -7.7266    2.9439   -8.8165 C   0  0  0  0  0  0  0  0  0  0  0  0
   -8.4304    3.2597   -7.5236 C   0  0  0  0  0  0  0  0  0  0  0  0
   -8.0631    4.9057   -6.9096 S   0  0  0  0  0  0  0  0  0  0  0  0
   -9.2723    5.4790   -6.3391 O   0  0  0  0  0  0  0  0  0  0  0  0
   -6.8459    4.9001   -6.1146 O   0  0  0  0  0  0  0  0  0  0  0  0
   -7.7293    5.8289   -8.3840 C   0  0  0  0  0  0  0  0  0  0  0  0
   -6.6235    5.1825   -9.1870 C   0  0  0  0  0  0  0  0  0  0  0  0
   -6.9188    3.4956  -12.0112 C   0  0  0  0  0  0  0  0  0  0  0  0
   -4.1898    2.2886   -9.6408 C   0  0  0  0  0  0  0  0  0  0  0  0
   -2.8537    1.9864  -10.2223 N   0  0  0  0  0  0  0  0  0  0  0  0
   -3.1144    1.6609  -11.6474 C   0  0  0  0  0  0  0  0  0  0  0  0
  1  2  1  0
  2  3  1  0
  3  4  2  0
  4  5  1  0
  5  6  2  0
  6  7  1  0
  7  8  2  0
  7  9  1  0
  9 10  1  0
 10 11  1  0
 10 12  2  0
 12 13  1  1
 13 14  2  0
 13 15  1  0
 15 16  1  0
 16 17  2  0
 17 18  1  0
 18 19  2  0
 19 20  1  0
 20 21  1  0
 21 22  2  0
 22 23  1  0
 23 24  1  0
 24 25  2  0
 24 26  2  0
 24 27  1  0
 27 28  1  0
 20 29  2  0
 19 30  1  0
 30 31  1  0
 31 32  1  0
  8  3  1  0
 29 16  1  0
 12  6  1  0
 32 18  1  0
 28 21  1  0
M  END
>  <smiles>  (112) 
C71862-P87

>  <fragmenstein_outcome>  (112) 
acceptable

>  <inchikey>  (112) 
STNZUAFKZIVMCC-UHFFFAOYSA-N

>  <fragmenstein_mode>  (112) 
expansion

>  <HIPPO Pose ID>  (112) 
1279

>  <Energy>  (112) 
0.3574

>  <fragmenstein_error>  (112) 


>  <tags>  (112) 
{'openbind_xx01zvns2b_c1_fragmenstein', 'fragmenstein_placed'}

>  <ref_pdb>  (112) 
1

>  <scratch_subdir>  (112) 
/opt/xchem-fragalysis-2/maxwin/BulkDock/SCRATCH/511027/C71862-P87

>  <alias>  (112) 
COc1ccc2c(c1)NC(N)=[S@]2C(=O)Nc1cc2c(c(C3=CCS(=O)(=O)CC3)c1)CNC2

>  <HIPPO Compound ID>  (112) 
78864

>  <fragmenstein_runtime>  (112) 
11.876689

$$$$
COc1cc2c3c(c1)N=C(N)[S@]3=CC([C@@H](Nc1ccc3c(c1)CNC3)C(=O)NC(C)C)=C2
     RDKit          3D

 32 36  0  0  0  0  0  0  0  0999 V2000
   -2.2940    5.2915  -19.7984 C   0  0  0  0  0  0  0  0  0  0  0  0
   -2.5641    5.5765  -18.4369 O   0  0  0  0  0  0  0  0  0  0  0  0
   -3.8578    5.4117  -18.0189 C   0  0  0  0  0  0  0  0  0  0  0  0
   -4.9568    5.1071  -18.8418 C   0  0  0  0  0  0  0  0  0  0  0  0
   -6.2262    4.9580  -18.2513 C   0  0  0  0  0  0  0  0  0  0  0  0
   -6.3465    5.2200  -16.8968 C   0  0  0  0  0  0  0  0  0  0  0  0
   -5.2674    5.3294  -16.0226 C   0  0  0  0  0  0  0  0  0  0  0  0
   -4.0075    5.5055  -16.6291 C   0  0  0  0  0  0  0  0  0  0  0  0
   -5.5930    5.1238  -14.6536 C   0  0  0  0  0  0  0  0  0  0  0  0
   -6.8482    4.5902  -14.2123 C   0  0  0  0  0  0  0  0  0  0  0  0
   -6.9456    4.1339  -12.7564 C   0  0  1  0  0  0  0  0  0  0  0  0
   -8.3498    4.1510  -12.2983 N   0  0  0  0  0  0  0  0  0  0  0  0
   -8.4456    4.1415  -10.8888 C   0  0  0  0  0  0  0  0  0  0  0  0
   -8.1721    5.3025  -10.1401 C   0  0  0  0  0  0  0  0  0  0  0  0
   -8.2326    5.2914   -8.7417 C   0  0  0  0  0  0  0  0  0  0  0  0
   -8.5639    4.1053   -8.1125 C   0  0  0  0  0  0  0  0  0  0  0  0
   -8.8098    2.9540   -8.8472 C   0  0  0  0  0  0  0  0  0  0  0  0
   -8.7518    2.9520  -10.2265 C   0  0  0  0  0  0  0  0  0  0  0  0
   -9.0685    1.8186   -7.9231 C   0  0  0  0  0  0  0  0  0  0  0  0
   -9.2901    2.4334   -6.5900 N   0  0  0  0  0  0  0  0  0  0  0  0
   -8.7231    3.7986   -6.6615 C   0  0  0  0  0  0  0  0  0  0  0  0
   -6.3147    2.7007  -12.5876 C   0  0  0  0  0  0  0  0  0  0  0  0
   -6.7884    1.7380  -13.0597 O   0  0  0  0  0  0  0  0  0  0  0  0
   -5.0222    2.8746  -11.7266 N   0  0  0  0  0  0  0  0  0  0  0  0
   -4.0081    1.9178  -11.3566 C   0  0  0  0  0  0  0  0  0  0  0  0
   -2.9734    1.7996  -12.4704 C   0  0  0  0  0  0  0  0  0  0  0  0
   -3.3556    2.3176  -10.0402 C   0  0  0  0  0  0  0  0  0  0  0  0
   -7.9365    4.3954  -15.0920 C   0  0  0  0  0  0  0  0  0  0  0  0
   -8.0055    5.3571  -16.5779 S   0  0  0  0  0  0  0  0  0  0  0  0
   -8.3094    4.3089  -17.8648 C   0  0  0  0  0  0  0  0  0  0  0  0
   -9.4759    3.6507  -18.0204 N   0  0  0  0  0  0  0  0  0  0  0  0
   -7.3934    4.4266  -18.8044 N   0  0  0  0  0  0  0  0  0  0  0  0
  1  2  1  0
  2  3  1  0
  3  4  2  0
  4  5  1  0
  5  6  2  0
  6  7  1  0
  7  8  2  0
  7  9  1  0
  9 10  2  0
 10 11  1  0
 11 12  1  6
 12 13  1  0
 13 14  2  0
 14 15  1  0
 15 16  2  0
 16 17  1  0
 17 18  2  0
 17 19  1  0
 19 20  1  0
 20 21  1  0
 11 22  1  0
 22 23  2  0
 22 24  1  0
 24 25  1  0
 25 26  1  0
 25 27  1  0
 10 28  1  0
 28 29  2  0
 29 30  1  6
 30 31  1  0
 30 32  2  0
  8  3  1  0
 18 13  1  0
 32  5  1  0
 29  6  1  0
 21 16  1  0
M  END
>  <smiles>  (113) 
C71912-P6

>  <fragmenstein_outcome>  (113) 
acceptable

>  <inchikey>  (113) 
SRBXNSKTKJONQY-UHFFFAOYSA-N

>  <fragmenstein_mode>  (113) 
expansion

>  <HIPPO Pose ID>  (113) 
1317

>  <Energy>  (113) 
113.264713

>  <fragmenstein_error>  (113) 


>  <tags>  (113) 
{'openbind_xx01zvns2b_c1_fragmenstein', 'fragmenstein_placed'}

>  <ref_pdb>  (113) 
1

>  <scratch_subdir>  (113) 
/opt/xchem-fragalysis-2/maxwin/BulkDock/SCRATCH/511027/C71912-P6

>  <alias>  (113) 
COc1cc2c3c(c1)N=C(N)[S@]3=CC([C@@H](Nc1ccc3c(c1)CNC3)C(=O)NC(C)C)=C2

>  <HIPPO Compound ID>  (113) 
86016

>  <fragmenstein_runtime>  (113) 
10.651298

$$$$
COc1cc2c3c(c1)N=C(N)[S@@]3=CC([C@@H](Nc1ccc3c(c1)CNC3)C(=O)NC(C)C)=C2
     RDKit          3D

 32 36  0  0  0  0  0  0  0  0999 V2000
   -2.7534    5.2782  -19.9928 C   0  0  0  0  0  0  0  0  0  0  0  0
   -3.0948    5.8910  -18.7557 O   0  0  0  0  0  0  0  0  0  0  0  0
   -4.3124    5.5473  -18.2305 C   0  0  0  0  0  0  0  0  0  0  0  0
   -5.4289    5.1154  -18.9697 C   0  0  0  0  0  0  0  0  0  0  0  0
   -6.6029    4.7435  -18.2804 C   0  0  0  0  0  0  0  0  0  0  0  0
   -6.5837    4.7841  -16.8971 C   0  0  0  0  0  0  0  0  0  0  0  0
   -5.5846    5.4003  -16.1478 C   0  0  0  0  0  0  0  0  0  0  0  0
   -4.4056    5.7347  -16.8475 C   0  0  0  0  0  0  0  0  0  0  0  0
   -5.9183    5.6035  -14.7842 C   0  0  0  0  0  0  0  0  0  0  0  0
   -7.2427    5.4631  -14.2518 C   0  0  0  0  0  0  0  0  0  0  0  0
   -7.5234    5.7590  -12.7682 C   0  0  1  0  0  0  0  0  0  0  0  0
   -7.8425    4.4700  -12.1393 N   0  0  0  0  0  0  0  0  0  0  0  0
   -8.1211    4.3281  -10.7793 C   0  0  0  0  0  0  0  0  0  0  0  0
   -8.2330    5.4009   -9.8751 C   0  0  0  0  0  0  0  0  0  0  0  0
   -8.4744    5.1934   -8.5114 C   0  0  0  0  0  0  0  0  0  0  0  0
   -8.6973    3.9047   -8.0739 C   0  0  0  0  0  0  0  0  0  0  0  0
   -8.6716    2.8421   -8.9620 C   0  0  0  0  0  0  0  0  0  0  0  0
   -8.3758    3.0322  -10.3024 C   0  0  0  0  0  0  0  0  0  0  0  0
   -8.9836    1.5798   -8.2360 C   0  0  0  0  0  0  0  0  0  0  0  0
   -9.3760    1.9841   -6.8643 N   0  0  0  0  0  0  0  0  0  0  0  0
   -9.0056    3.4029   -6.7062 C   0  0  0  0  0  0  0  0  0  0  0  0
   -6.3214    6.5122  -12.0722 C   0  0  0  0  0  0  0  0  0  0  0  0
   -5.3717    5.9622  -11.6628 O   0  0  0  0  0  0  0  0  0  0  0  0
   -6.6771    8.0347  -12.0982 N   0  0  0  0  0  0  0  0  0  0  0  0
   -5.8952    9.1863  -11.7132 C   0  0  0  0  0  0  0  0  0  0  0  0
   -4.9403    9.5680  -12.8387 C   0  0  0  0  0  0  0  0  0  0  0  0
   -6.7999   10.3516  -11.3364 C   0  0  0  0  0  0  0  0  0  0  0  0
   -8.3292    4.9701  -15.0301 C   0  0  0  0  0  0  0  0  0  0  0  0
   -7.9292    3.8900  -16.3682 S   0  0  0  0  0  0  0  0  0  0  0  0
   -8.7155    4.2357  -17.7992 C   0  0  0  0  0  0  0  0  0  0  0  0
  -10.0415    4.1252  -17.9579 N   0  0  0  0  0  0  0  0  0  0  0  0
   -7.8638    4.4200  -18.7863 N   0  0  0  0  0  0  0  0  0  0  0  0
  1  2  1  0
  2  3  1  0
  3  4  2  0
  4  5  1  0
  5  6  2  0
  6  7  1  0
  7  8  2  0
  7  9  1  0
  9 10  2  0
 10 11  1  0
 11 12  1  1
 12 13  1  0
 13 14  2  0
 14 15  1  0
 15 16  2  0
 16 17  1  0
 17 18  2  0
 17 19  1  0
 19 20  1  0
 20 21  1  0
 11 22  1  0
 22 23  2  0
 22 24  1  0
 24 25  1  0
 25 26  1  0
 25 27  1  0
 10 28  1  0
 28 29  2  0
 29 30  1  6
 30 31  1  0
 30 32  2  0
  8  3  1  0
 18 13  1  0
 32  5  1  0
 29  6  1  0
 21 16  1  0
M  END
>  <smiles>  (114) 
C71912-P161

>  <fragmenstein_outcome>  (114) 
acceptable

>  <inchikey>  (114) 
RIHGAVGZFGIWDE-UHFFFAOYSA-N

>  <fragmenstein_mode>  (114) 
expansion

>  <HIPPO Pose ID>  (114) 
1318

>  <Energy>  (114) 
121.745883

>  <fragmenstein_error>  (114) 


>  <tags>  (114) 
{'openbind_xx01zvns2b_c1_fragmenstein', 'fragmenstein_placed'}

>  <ref_pdb>  (114) 
1

>  <scratch_subdir>  (114) 
/opt/xchem-fragalysis-2/maxwin/BulkDock/SCRATCH/511027/C71912-P161

>  <alias>  (114) 
COc1cc2c3c(c1)N=C(N)[S@@]3=CC([C@@H](Nc1ccc3c(c1)CNC3)C(=O)NC(C)C)=C2

>  <HIPPO Compound ID>  (114) 
89900

>  <fragmenstein_runtime>  (114) 
7.463584

$$$$
CNCc1c(OC)ccc2c1NC(N)=[S@]2C(=O)Nc1cccc(F)c1
     RDKit          3D

 25 27  0  0  0  0  0  0  0  0999 V2000
   -5.3106    7.4548  -21.4826 C   0  0  0  0  0  0  0  0  0  0  0  0
   -5.7088    7.1244  -20.1228 N   0  0  0  0  0  0  0  0  0  0  0  0
   -5.4112    5.7146  -19.8128 C   0  0  0  0  0  0  0  0  0  0  0  0
   -5.3064    5.5172  -18.3322 C   0  0  0  0  0  0  0  0  0  0  0  0
   -4.0809    5.6741  -17.6522 C   0  0  0  0  0  0  0  0  0  0  0  0
   -2.9165    5.9841  -18.3140 O   0  0  0  0  0  0  0  0  0  0  0  0
   -2.3201    4.8626  -18.9558 C   0  0  0  0  0  0  0  0  0  0  0  0
   -4.0063    5.6685  -16.2559 C   0  0  0  0  0  0  0  0  0  0  0  0
   -5.1548    5.5553  -15.4657 C   0  0  0  0  0  0  0  0  0  0  0  0
   -6.3740    5.4261  -16.1338 C   0  0  0  0  0  0  0  0  0  0  0  0
   -6.4391    5.3012  -17.5223 C   0  0  0  0  0  0  0  0  0  0  0  0
   -7.7082    4.9257  -17.9281 N   0  0  0  0  0  0  0  0  0  0  0  0
   -8.5339    4.7047  -16.9390 C   0  0  0  0  0  0  0  0  0  0  0  0
   -9.7370    4.2079  -17.2220 N   0  0  0  0  0  0  0  0  0  0  0  0
   -8.0089    5.6021  -15.6046 S   0  0  0  0  0  0  0  0  0  0  0  0
   -7.9895    4.5268  -14.1490 C   0  0  0  0  0  0  0  0  0  0  0  0
   -7.8365    3.3859  -14.3039 O   0  0  0  0  0  0  0  0  0  0  0  0
   -8.2318    5.3364  -12.8588 N   0  0  0  0  0  0  0  0  0  0  0  0
   -8.2413    4.9304  -11.5188 C   0  0  0  0  0  0  0  0  0  0  0  0
   -8.1072    5.9362  -10.5491 C   0  0  0  0  0  0  0  0  0  0  0  0
   -8.1533    5.6326   -9.1856 C   0  0  0  0  0  0  0  0  0  0  0  0
   -8.3805    4.3226   -8.7818 C   0  0  0  0  0  0  0  0  0  0  0  0
   -8.5512    3.3305   -9.7412 C   0  0  0  0  0  0  0  0  0  0  0  0
   -8.8639    2.0989   -9.3173 F   0  0  0  0  0  0  0  0  0  0  0  0
   -8.4493    3.6119  -11.1094 C   0  0  0  0  0  0  0  0  0  0  0  0
  1  2  1  0
  2  3  1  0
  3  4  1  0
  4  5  2  0
  5  6  1  0
  6  7  1  0
  5  8  1  0
  8  9  2  0
  9 10  1  0
 10 11  2  0
 11 12  1  0
 12 13  1  0
 13 14  1  0
 13 15  2  0
 15 16  1  1
 16 17  2  0
 16 18  1  0
 18 19  1  0
 19 20  2  0
 20 21  1  0
 21 22  2  0
 22 23  1  0
 23 24  1  0
 23 25  2  0
 11  4  1  0
 25 19  1  0
 15 10  1  0
M  END
>  <smiles>  (115) 
C71914-P6

>  <fragmenstein_outcome>  (115) 
acceptable

>  <inchikey>  (115) 
RIXDDKRKGXQFOF-UHFFFAOYSA-N

>  <fragmenstein_mode>  (115) 
expansion

>  <HIPPO Pose ID>  (115) 
1319

>  <Energy>  (115) 
-15.84606

>  <fragmenstein_error>  (115) 


>  <tags>  (115) 
{'openbind_xx01zvns2b_c1_fragmenstein', 'fragmenstein_placed'}

>  <ref_pdb>  (115) 
1

>  <scratch_subdir>  (115) 
/opt/xchem-fragalysis-2/maxwin/BulkDock/SCRATCH/511027/C71914-P6

>  <alias>  (115) 
CNCc1c(OC)ccc2c1NC(N)=[S@]2C(=O)Nc1cccc(F)c1

>  <HIPPO Compound ID>  (115) 
99876

>  <fragmenstein_runtime>  (115) 
4.28456

$$$$
CC(C)NC(=O)[C@@H](Nc1ccc2c(c1)CNC2)[S@@]1=C(N)Nc2cc3c(cc21)CCCC[C@@H]3C
     RDKit          3D

 33 37  0  0  0  0  0  0  0  0999 V2000
   -3.5494    2.7709  -13.6866 C   0  0  0  0  0  0  0  0  0  0  0  0
   -4.4090    3.3723  -12.5816 C   0  0  0  0  0  0  0  0  0  0  0  0
   -3.6385    4.4393  -11.8134 C   0  0  0  0  0  0  0  0  0  0  0  0
   -5.6365    3.9183  -13.1124 N   0  0  0  0  0  0  0  0  0  0  0  0
   -6.8641    3.2084  -13.7512 C   0  0  0  0  0  0  0  0  0  0  0  0
   -7.0348    2.0828  -14.0146 O   0  0  0  0  0  0  0  0  0  0  0  0
   -7.9782    4.2964  -13.9348 C   0  0  1  0  0  0  0  0  0  0  0  0
   -7.8939    5.2549  -12.7816 N   0  0  0  0  0  0  0  0  0  0  0  0
   -8.1477    4.9314  -11.4452 C   0  0  0  0  0  0  0  0  0  0  0  0
   -8.0137    5.9799  -10.5011 C   0  0  0  0  0  0  0  0  0  0  0  0
   -8.1695    5.7791   -9.1236 C   0  0  0  0  0  0  0  0  0  0  0  0
   -8.4691    4.5073   -8.6855 C   0  0  0  0  0  0  0  0  0  0  0  0
   -8.5805    3.4550   -9.5864 C   0  0  0  0  0  0  0  0  0  0  0  0
   -8.3997    3.6418  -10.9566 C   0  0  0  0  0  0  0  0  0  0  0  0
   -8.9032    2.2060   -8.8262 C   0  0  0  0  0  0  0  0  0  0  0  0
   -9.3140    2.6648   -7.4691 N   0  0  0  0  0  0  0  0  0  0  0  0
   -8.7128    4.0027   -7.3029 C   0  0  0  0  0  0  0  0  0  0  0  0
   -8.0943    5.3630  -15.3875 S   0  0  0  0  0  0  0  0  0  0  0  0
   -8.6070    4.3647  -16.6416 C   0  0  0  0  0  0  0  0  0  0  0  0
   -9.8387    3.9353  -16.9040 N   0  0  0  0  0  0  0  0  0  0  0  0
   -7.7382    4.3624  -17.6084 N   0  0  0  0  0  0  0  0  0  0  0  0
   -6.5230    4.9235  -17.2957 C   0  0  0  0  0  0  0  0  0  0  0  0
   -5.3921    4.9897  -18.1218 C   0  0  0  0  0  0  0  0  0  0  0  0
   -4.1892    5.5850  -17.6637 C   0  0  0  0  0  0  0  0  0  0  0  0
   -4.1720    6.0831  -16.3333 C   0  0  0  0  0  0  0  0  0  0  0  0
   -5.3351    6.0226  -15.5168 C   0  0  0  0  0  0  0  0  0  0  0  0
   -6.4991    5.4340  -16.0076 C   0  0  0  0  0  0  0  0  0  0  0  0
   -2.9902    6.7700  -15.6687 C   0  0  0  0  0  0  0  0  0  0  0  0
   -1.6353    6.1514  -15.9613 C   0  0  0  0  0  0  0  0  0  0  0  0
   -1.0337    6.6451  -17.2666 C   0  0  0  0  0  0  0  0  0  0  0  0
   -2.0328    6.8099  -18.4071 C   0  0  0  0  0  0  0  0  0  0  0  0
   -2.9634    5.5945  -18.6000 C   0  0  2  0  0  0  0  0  0  0  0  0
   -3.3061    5.5465  -20.1050 C   0  0  0  0  0  0  0  0  0  0  0  0
  1  2  1  0
  2  3  1  0
  2  4  1  0
  4  5  1  0
  5  6  2  0
  5  7  1  0
  7  8  1  1
  8  9  1  0
  9 10  2  0
 10 11  1  0
 11 12  2  0
 12 13  1  0
 13 14  2  0
 13 15  1  0
 15 16  1  0
 16 17  1  0
  7 18  1  0
 18 19  2  0
 19 20  1  0
 19 21  1  0
 21 22  1  0
 22 23  2  0
 23 24  1  0
 24 25  2  0
 25 26  1  0
 26 27  2  0
 25 28  1  0
 28 29  1  0
 29 30  1  0
 30 31  1  0
 31 32  1  0
 32 33  1  6
 14  9  1  0
 18 27  1  6
 17 12  1  0
 27 22  1  0
 32 24  1  0
M  END
>  <smiles>  (116) 
C71949-P214

>  <fragmenstein_outcome>  (116) 
acceptable

>  <inchikey>  (116) 
PMYCSPKKZZPBQW-UHFFFAOYSA-N

>  <fragmenstein_mode>  (116) 
expansion

>  <HIPPO Pose ID>  (116) 
1348

>  <Energy>  (116) 
31.471029

>  <fragmenstein_error>  (116) 


>  <tags>  (116) 
{'openbind_xx01zvns2b_c1_fragmenstein', 'fragmenstein_placed'}

>  <ref_pdb>  (116) 
1

>  <scratch_subdir>  (116) 
/opt/xchem-fragalysis-2/maxwin/BulkDock/SCRATCH/511027/C71949-P214

>  <alias>  (116) 
CC(C)NC(=O)[C@@H](Nc1ccc2c(c1)CNC2)[S@@]1=C(N)Nc2cc3c(cc21)CCCC[C@@H]3C

>  <HIPPO Compound ID>  (116) 
71991

>  <fragmenstein_runtime>  (116) 
8.843271

$$$$
CC(C)Nc1nc2c(C(=O)Nc3cccc(CN)c3)cccc2[nH]1
     RDKit          3D

 24 26  0  0  0  0  0  0  0  0999 V2000
   -2.1872    4.3722  -19.1026 C   0  0  0  0  0  0  0  0  0  0  0  0
   -2.8712    5.6707  -19.5044 C   0  0  0  0  0  0  0  0  0  0  0  0
   -2.6927    6.7711  -18.4686 C   0  0  0  0  0  0  0  0  0  0  0  0
   -4.2611    5.4641  -19.8816 N   0  0  0  0  0  0  0  0  0  0  0  0
   -5.2571    5.1811  -19.0193 C   0  0  0  0  0  0  0  0  0  0  0  0
   -5.2787    5.1302  -17.7095 N   0  0  0  0  0  0  0  0  0  0  0  0
   -6.5843    4.8221  -17.3659 C   0  0  0  0  0  0  0  0  0  0  0  0
   -7.2234    4.6613  -16.1260 C   0  0  0  0  0  0  0  0  0  0  0  0
   -6.5022    4.9119  -14.8660 C   0  0  0  0  0  0  0  0  0  0  0  0
   -6.0842    5.9797  -14.6440 O   0  0  0  0  0  0  0  0  0  0  0  0
   -6.5274    3.6409  -13.9831 N   0  0  0  0  0  0  0  0  0  0  0  0
   -5.9797    3.4027  -12.7279 C   0  0  0  0  0  0  0  0  0  0  0  0
   -5.2545    4.3756  -12.0443 C   0  0  0  0  0  0  0  0  0  0  0  0
   -4.7606    4.1100  -10.7657 C   0  0  0  0  0  0  0  0  0  0  0  0
   -4.9951    2.8719  -10.1662 C   0  0  0  0  0  0  0  0  0  0  0  0
   -5.7129    1.8810  -10.8481 C   0  0  0  0  0  0  0  0  0  0  0  0
   -6.0096    0.5571  -10.1964 C   0  0  0  0  0  0  0  0  0  0  0  0
   -7.3401    0.5517   -9.5921 N   0  0  0  0  0  0  0  0  0  0  0  0
   -6.1991    2.1586  -12.1355 C   0  0  0  0  0  0  0  0  0  0  0  0
   -8.5916    4.3262  -16.0801 C   0  0  0  0  0  0  0  0  0  0  0  0
   -9.3205    4.1533  -17.2564 C   0  0  0  0  0  0  0  0  0  0  0  0
   -8.7136    4.3112  -18.5026 C   0  0  0  0  0  0  0  0  0  0  0  0
   -7.3574    4.6482  -18.5089 C   0  0  0  0  0  0  0  0  0  0  0  0
   -6.4961    4.9121  -19.5371 N   0  0  0  0  0  0  0  0  0  0  0  0
  1  2  1  0
  2  3  1  0
  2  4  1  0
  4  5  1  0
  5  6  2  0
  6  7  1  0
  7  8  2  0
  8  9  1  0
  9 10  2  0
  9 11  1  0
 11 12  1  0
 12 13  2  0
 13 14  1  0
 14 15  2  0
 15 16  1  0
 16 17  1  0
 17 18  1  0
 16 19  2  0
  8 20  1  0
 20 21  2  0
 21 22  1  0
 22 23  2  0
 23 24  1  0
 24  5  1  0
 23  7  1  0
 19 12  1  0
M  END
>  <smiles>  (117) 
C72059-P7

>  <fragmenstein_outcome>  (117) 
acceptable

>  <inchikey>  (117) 
QXGFGSSSPDQKMQ-UHFFFAOYSA-N

>  <fragmenstein_mode>  (117) 
expansion

>  <HIPPO Pose ID>  (117) 
1396

>  <Energy>  (117) 
18.297134

>  <fragmenstein_error>  (117) 


>  <tags>  (117) 
{'openbind_xx01zvns2b_c1_fragmenstein', 'fragmenstein_placed'}

>  <ref_pdb>  (117) 
1

>  <scratch_subdir>  (117) 
/opt/xchem-fragalysis-2/maxwin/BulkDock/SCRATCH/511027/C72059-P7

>  <alias>  (117) 
CC(C)Nc1nc2c(C(=O)Nc3cccc(CN)c3)cccc2[nH]1

>  <HIPPO Compound ID>  (117) 
87238

>  <fragmenstein_runtime>  (117) 
4.056939

$$$$
CC(C)N(N)c1nc2c(C(=O)Nc3cccc(-c4nnn[nH]4)c3)cc(Cl)cc2[nH]1
     RDKit          3D

 29 32  0  0  0  0  0  0  0  0999 V2000
   -1.9851    4.3680  -19.0175 C   0  0  0  0  0  0  0  0  0  0  0  0
   -2.5155    5.7411  -19.4013 C   0  0  0  0  0  0  0  0  0  0  0  0
   -2.3559    6.7799  -18.3013 C   0  0  0  0  0  0  0  0  0  0  0  0
   -3.8902    5.6530  -19.9208 N   0  0  0  0  0  0  0  0  0  0  0  0
   -4.3112    6.6462  -20.8669 N   0  0  0  0  0  0  0  0  0  0  0  0
   -4.9287    5.2773  -19.1087 C   0  0  0  0  0  0  0  0  0  0  0  0
   -4.9957    5.0909  -17.8014 N   0  0  0  0  0  0  0  0  0  0  0  0
   -6.3257    4.7829  -17.5257 C   0  0  0  0  0  0  0  0  0  0  0  0
   -7.0133    4.5770  -16.3097 C   0  0  0  0  0  0  0  0  0  0  0  0
   -6.3392    4.6649  -14.9761 C   0  0  0  0  0  0  0  0  0  0  0  0
   -7.0203    4.7172  -14.0267 O   0  0  0  0  0  0  0  0  0  0  0  0
   -4.7950    4.6325  -15.1034 N   0  0  0  0  0  0  0  0  0  0  0  0
   -3.8054    4.7490  -14.1320 C   0  0  0  0  0  0  0  0  0  0  0  0
   -2.4777    4.8540  -14.5424 C   0  0  0  0  0  0  0  0  0  0  0  0
   -1.4630    4.9666  -13.5949 C   0  0  0  0  0  0  0  0  0  0  0  0
   -1.7778    4.9656  -12.2347 C   0  0  0  0  0  0  0  0  0  0  0  0
   -3.1082    4.8512  -11.8002 C   0  0  0  0  0  0  0  0  0  0  0  0
   -3.3907    4.8465  -10.3651 C   0  0  0  0  0  0  0  0  0  0  0  0
   -2.5238    5.0202   -9.3814 N   0  0  0  0  0  0  0  0  0  0  0  0
   -3.2322    4.9431   -8.2090 N   0  0  0  0  0  0  0  0  0  0  0  0
   -4.5151    4.7229   -8.4457 N   0  0  0  0  0  0  0  0  0  0  0  0
   -4.6164    4.6508   -9.7820 N   0  0  0  0  0  0  0  0  0  0  0  0
   -4.1187    4.7468  -12.7686 C   0  0  0  0  0  0  0  0  0  0  0  0
   -8.4018    4.3076  -16.3680 C   0  0  0  0  0  0  0  0  0  0  0  0
   -9.0536    4.2139  -17.5969 C   0  0  0  0  0  0  0  0  0  0  0  0
  -10.7394    4.0077  -17.7207 Cl  0  0  0  0  0  0  0  0  0  0  0  0
   -8.3799    4.3639  -18.7959 C   0  0  0  0  0  0  0  0  0  0  0  0
   -7.0358    4.6809  -18.7102 C   0  0  0  0  0  0  0  0  0  0  0  0
   -6.1373    4.9830  -19.6842 N   0  0  0  0  0  0  0  0  0  0  0  0
  1  2  1  0
  2  3  1  0
  2  4  1  0
  4  5  1  0
  4  6  1  0
  6  7  2  0
  7  8  1  0
  8  9  2  0
  9 10  1  0
 10 11  2  0
 10 12  1  0
 12 13  1  0
 13 14  2  0
 14 15  1  0
 15 16  2  0
 16 17  1  0
 17 18  1  0
 18 19  2  0
 19 20  1  0
 20 21  2  0
 21 22  1  0
 17 23  2  0
  9 24  1  0
 24 25  2  0
 25 26  1  0
 25 27  1  0
 27 28  2  0
 28 29  1  0
 29  6  1  0
 28  8  1  0
 23 13  1  0
 22 18  1  0
M  END
>  <smiles>  (118) 
C72060-P7

>  <fragmenstein_outcome>  (118) 
acceptable

>  <inchikey>  (118) 
DQKNSRMELCMBBC-UHFFFAOYSA-N

>  <fragmenstein_mode>  (118) 
expansion

>  <HIPPO Pose ID>  (118) 
1397

>  <Energy>  (118) 
53.162705

>  <fragmenstein_error>  (118) 


>  <tags>  (118) 
{'openbind_xx01zvns2b_c1_fragmenstein', 'fragmenstein_placed'}

>  <ref_pdb>  (118) 
1

>  <scratch_subdir>  (118) 
/opt/xchem-fragalysis-2/maxwin/BulkDock/SCRATCH/511027/C72060-P7

>  <alias>  (118) 
CC(C)N(N)c1nc2c(C(=O)Nc3cccc(-c4nnn[nH]4)c3)cc(Cl)cc2[nH]1

>  <HIPPO Compound ID>  (118) 
105865

>  <fragmenstein_runtime>  (118) 
3.688788

$$$$
CC(C)Nc1[nH]c2cc(Br)cc(C(=O)Nc3ccc4c(c3)CNC4)c2[n+]1[O-]
     RDKit          3D

 27 30  0  0  0  0  0  0  0  0999 V2000
   -1.8629    4.3818  -19.1358 C   0  0  0  0  0  0  0  0  0  0  0  0
   -2.4752    5.6780  -19.6360 C   0  0  0  0  0  0  0  0  0  0  0  0
   -2.2080    6.8856  -18.7524 C   0  0  0  0  0  0  0  0  0  0  0  0
   -3.8898    5.5310  -20.0177 N   0  0  0  0  0  0  0  0  0  0  0  0
   -4.9692    5.2296  -19.1613 C   0  0  0  0  0  0  0  0  0  0  0  0
   -6.1876    5.0019  -19.7228 N   0  0  0  0  0  0  0  0  0  0  0  0
   -7.0414    4.7089  -18.6762 C   0  0  0  0  0  0  0  0  0  0  0  0
   -8.3736    4.3663  -18.7895 C   0  0  0  0  0  0  0  0  0  0  0  0
   -9.0943    4.2447  -17.6194 C   0  0  0  0  0  0  0  0  0  0  0  0
  -10.9274    4.0789  -17.8584 Br  0  0  0  0  0  0  0  0  0  0  0  0
   -8.5162    4.3772  -16.3618 C   0  0  0  0  0  0  0  0  0  0  0  0
   -7.1419    4.6676  -16.2176 C   0  0  0  0  0  0  0  0  0  0  0  0
   -6.6404    4.8714  -14.8192 C   0  0  0  0  0  0  0  0  0  0  0  0
   -7.4330    5.2213  -14.0349 O   0  0  0  0  0  0  0  0  0  0  0  0
   -5.1509    4.5043  -14.6417 N   0  0  0  0  0  0  0  0  0  0  0  0
   -4.3285    4.5784  -13.5209 C   0  0  0  0  0  0  0  0  0  0  0  0
   -4.8432    4.8715  -12.2485 C   0  0  0  0  0  0  0  0  0  0  0  0
   -3.9984    4.9424  -11.1353 C   0  0  0  0  0  0  0  0  0  0  0  0
   -2.6485    4.7066  -11.3222 C   0  0  0  0  0  0  0  0  0  0  0  0
   -2.1366    4.4143  -12.5830 C   0  0  0  0  0  0  0  0  0  0  0  0
   -2.9595    4.3495  -13.6942 C   0  0  0  0  0  0  0  0  0  0  0  0
   -0.6589    4.2495  -12.4856 C   0  0  0  0  0  0  0  0  0  0  0  0
   -0.3723    4.1185  -11.0321 N   0  0  0  0  0  0  0  0  0  0  0  0
   -1.5300    4.7443  -10.3372 C   0  0  0  0  0  0  0  0  0  0  0  0
   -6.4204    4.8290  -17.4125 C   0  0  0  0  0  0  0  0  0  0  0  0
   -5.1215    5.0903  -17.6914 N   0  0  0  0  0  0  0  0  0  0  0  0
   -4.1239    5.1646  -16.9341 O   0  0  0  0  0  0  0  0  0  0  0  0
  1  2  1  0
  2  3  1  0
  2  4  1  0
  4  5  1  0
  5  6  1  0
  6  7  1  0
  7  8  2  0
  8  9  1  0
  9 10  1  0
  9 11  2  0
 11 12  1  0
 12 13  1  0
 13 14  2  0
 13 15  1  0
 15 16  1  0
 16 17  2  0
 17 18  1  0
 18 19  2  0
 19 20  1  0
 20 21  2  0
 20 22  1  0
 22 23  1  0
 23 24  1  0
 12 25  2  0
 25 26  1  0
 26 27  1  0
 26  5  2  0
 25  7  1  0
 21 16  1  0
 24 19  1  0
M  CHG  2  26   1  27  -1
M  END
>  <smiles>  (119) 
C72075-P7

>  <fragmenstein_outcome>  (119) 
acceptable

>  <inchikey>  (119) 
ZLELTKCXMZOOKX-UHFFFAOYSA-N

>  <fragmenstein_mode>  (119) 
expansion

>  <HIPPO Pose ID>  (119) 
1407

>  <Energy>  (119) 
119.85334

>  <fragmenstein_error>  (119) 


>  <tags>  (119) 
{'openbind_xx01zvns2b_c1_fragmenstein', 'fragmenstein_placed'}

>  <ref_pdb>  (119) 
1

>  <scratch_subdir>  (119) 
/opt/xchem-fragalysis-2/maxwin/BulkDock/SCRATCH/511027/C72075-P7

>  <alias>  (119) 
CC(C)Nc1[nH]c2cc(Br)cc(C(=O)Nc3ccc4c(c3)CNC4)c2[n+]1[O-]

>  <HIPPO Compound ID>  (119) 
72075

>  <fragmenstein_runtime>  (119) 
4.132693

$$$$
COc1cc(-c2cc(NC(=O)c3cc(F)cc4[nH]c(NC(C)C)nc34)cc3c2CNC3)ccn1
     RDKit          3D

 34 38  0  0  0  0  0  0  0  0999 V2000
  -10.7748    2.0430   -5.6828 C   0  0  0  0  0  0  0  0  0  0  0  0
  -10.2087    1.9627   -6.9869 O   0  0  0  0  0  0  0  0  0  0  0  0
   -9.1589    2.8405   -7.1443 C   0  0  0  0  0  0  0  0  0  0  0  0
   -8.9135    3.2867   -8.4370 C   0  0  0  0  0  0  0  0  0  0  0  0
   -7.9597    4.2845   -8.6218 C   0  0  0  0  0  0  0  0  0  0  0  0
   -7.8485    5.0602   -9.8724 C   0  0  0  0  0  0  0  0  0  0  0  0
   -7.7725    4.4816  -11.1678 C   0  0  0  0  0  0  0  0  0  0  0  0
   -7.5675    5.2935  -12.3044 C   0  0  0  0  0  0  0  0  0  0  0  0
   -7.5705    4.8116  -13.6167 N   0  0  0  0  0  0  0  0  0  0  0  0
   -7.0974    5.4831  -14.9424 C   0  0  0  0  0  0  0  0  0  0  0  0
   -6.5634    6.5090  -15.1240 O   0  0  0  0  0  0  0  0  0  0  0  0
   -7.4836    4.7282  -16.1627 C   0  0  0  0  0  0  0  0  0  0  0  0
   -8.8236    4.2900  -16.2415 C   0  0  0  0  0  0  0  0  0  0  0  0
   -9.4066    4.0005  -17.4690 C   0  0  0  0  0  0  0  0  0  0  0  0
  -10.7042    3.6773  -17.5208 F   0  0  0  0  0  0  0  0  0  0  0  0
   -8.7080    4.1188  -18.6574 C   0  0  0  0  0  0  0  0  0  0  0  0
   -7.3796    4.5220  -18.5555 C   0  0  0  0  0  0  0  0  0  0  0  0
   -6.4654    4.8024  -19.5289 N   0  0  0  0  0  0  0  0  0  0  0  0
   -5.2907    5.1780  -18.9404 C   0  0  0  0  0  0  0  0  0  0  0  0
   -4.2717    5.4882  -19.7681 N   0  0  0  0  0  0  0  0  0  0  0  0
   -2.8906    5.6947  -19.3657 C   0  0  0  0  0  0  0  0  0  0  0  0
   -2.1985    4.3811  -19.0358 C   0  0  0  0  0  0  0  0  0  0  0  0
   -2.7323    6.7362  -18.2706 C   0  0  0  0  0  0  0  0  0  0  0  0
   -5.4126    5.1910  -17.6317 N   0  0  0  0  0  0  0  0  0  0  0  0
   -6.7250    4.8125  -17.3597 C   0  0  0  0  0  0  0  0  0  0  0  0
   -7.4717    6.6807  -12.1641 C   0  0  0  0  0  0  0  0  0  0  0  0
   -7.6556    7.2481  -10.9258 C   0  0  0  0  0  0  0  0  0  0  0  0
   -7.8449    6.4635   -9.8021 C   0  0  0  0  0  0  0  0  0  0  0  0
   -8.0216    7.3881   -8.6312 C   0  0  0  0  0  0  0  0  0  0  0  0
   -8.2607    8.7382   -9.2013 N   0  0  0  0  0  0  0  0  0  0  0  0
   -7.6848    8.6934  -10.5641 C   0  0  0  0  0  0  0  0  0  0  0  0
   -7.1783    4.6375   -7.5086 C   0  0  0  0  0  0  0  0  0  0  0  0
   -7.4944    4.1317   -6.2620 C   0  0  0  0  0  0  0  0  0  0  0  0
   -8.5000    3.2757   -6.0492 N   0  0  0  0  0  0  0  0  0  0  0  0
  1  2  1  0
  2  3  1  0
  3  4  2  0
  4  5  1  0
  5  6  1  0
  6  7  2  0
  7  8  1  0
  8  9  1  0
  9 10  1  0
 10 11  2  0
 10 12  1  0
 12 13  2  0
 13 14  1  0
 14 15  1  0
 14 16  2  0
 16 17  1  0
 17 18  1  0
 18 19  1  0
 19 20  1  0
 20 21  1  0
 21 22  1  0
 21 23  1  0
 19 24  2  0
 24 25  1  0
  8 26  2  0
 26 27  1  0
 27 28  2  0
 28 29  1  0
 29 30  1  0
 30 31  1  0
  5 32  2  0
 32 33  1  0
 33 34  2  0
 34  3  1  0
 28  6  1  0
 25 12  1  0
 31 27  1  0
 25 17  2  0
M  END
>  <smiles>  (120) 
C72099-P7

>  <fragmenstein_outcome>  (120) 
acceptable

>  <inchikey>  (120) 
JODKHRWUGADEMT-UHFFFAOYSA-N

>  <fragmenstein_mode>  (120) 
expansion

>  <HIPPO Pose ID>  (120) 
1416

>  <Energy>  (120) 
29.670789

>  <fragmenstein_error>  (120) 


>  <tags>  (120) 
{'openbind_xx01zvns2b_c1_fragmenstein', 'fragmenstein_placed'}

>  <ref_pdb>  (120) 
1

>  <scratch_subdir>  (120) 
/opt/xchem-fragalysis-2/maxwin/BulkDock/SCRATCH/511027/C72099-P7

>  <alias>  (120) 
COc1cc(-c2cc(NC(=O)c3cc(F)cc4[nH]c(NC(C)C)nc34)cc3c2CNC3)ccn1

>  <HIPPO Compound ID>  (120) 
84539

>  <fragmenstein_runtime>  (120) 
9.173831

$$$$
COCCO[C@]1(C)C(=O)n2c(NC(C)C)nc3ccc(C(=O)Nc4ccc5c(c4)CNC5)c1c32
     RDKit          3D

 34 38  0  0  0  0  0  0  0  0999 V2000
   -2.4376    9.0943  -15.8082 C   0  0  0  0  0  0  0  0  0  0  0  0
   -3.7248    8.7340  -15.3256 O   0  0  0  0  0  0  0  0  0  0  0  0
   -3.6358    7.8784  -14.1840 C   0  0  0  0  0  0  0  0  0  0  0  0
   -5.0386    7.4549  -13.7498 C   0  0  0  0  0  0  0  0  0  0  0  0
   -5.8121    6.8251  -14.7669 O   0  0  0  0  0  0  0  0  0  0  0  0
   -5.4782    5.5223  -15.2105 C   0  0  2  0  0  0  0  0  0  0  0  0
   -4.9330    4.5701  -14.1456 C   0  0  0  0  0  0  0  0  0  0  0  0
   -4.4512    5.5089  -16.4667 C   0  0  0  0  0  0  0  0  0  0  0  0
   -3.2500    5.7122  -16.4927 O   0  0  0  0  0  0  0  0  0  0  0  0
   -5.2171    5.1359  -17.5680 N   0  0  0  0  0  0  0  0  0  0  0  0
   -5.2328    4.9466  -18.9283 C   0  0  0  0  0  0  0  0  0  0  0  0
   -4.2566    5.1645  -19.8334 N   0  0  0  0  0  0  0  0  0  0  0  0
   -2.8700    5.5365  -19.6657 C   0  0  0  0  0  0  0  0  0  0  0  0
   -2.6943    6.9621  -19.1619 C   0  0  0  0  0  0  0  0  0  0  0  0
   -2.0604    4.4599  -18.9598 C   0  0  0  0  0  0  0  0  0  0  0  0
   -6.4451    4.5302  -19.3070 N   0  0  0  0  0  0  0  0  0  0  0  0
   -7.2403    4.4911  -18.1910 C   0  0  0  0  0  0  0  0  0  0  0  0
   -8.5726    4.2069  -17.8773 C   0  0  0  0  0  0  0  0  0  0  0  0
   -8.9715    4.3657  -16.5136 C   0  0  0  0  0  0  0  0  0  0  0  0
   -8.0694    4.7806  -15.5053 C   0  0  0  0  0  0  0  0  0  0  0  0
   -8.5324    5.1964  -14.1618 C   0  0  0  0  0  0  0  0  0  0  0  0
   -9.0767    6.2201  -14.0447 O   0  0  0  0  0  0  0  0  0  0  0  0
   -8.0917    4.1734  -13.1000 N   0  0  0  0  0  0  0  0  0  0  0  0
   -8.1405    4.2345  -11.7113 C   0  0  0  0  0  0  0  0  0  0  0  0
   -7.9483    3.0596  -10.9734 C   0  0  0  0  0  0  0  0  0  0  0  0
   -7.8815    3.0967   -9.5782 C   0  0  0  0  0  0  0  0  0  0  0  0
   -7.9657    4.3258   -8.9505 C   0  0  0  0  0  0  0  0  0  0  0  0
   -8.1382    5.4959   -9.6798 C   0  0  0  0  0  0  0  0  0  0  0  0
   -8.2497    5.4684  -11.0610 C   0  0  0  0  0  0  0  0  0  0  0  0
   -8.0942    6.6623   -8.7542 C   0  0  0  0  0  0  0  0  0  0  0  0
   -8.1574    6.0978   -7.3785 N   0  0  0  0  0  0  0  0  0  0  0  0
   -7.8233    4.6508   -7.5042 C   0  0  0  0  0  0  0  0  0  0  0  0
   -6.7409    5.0003  -15.8286 C   0  0  0  0  0  0  0  0  0  0  0  0
   -6.4639    4.8438  -17.1498 C   0  0  0  0  0  0  0  0  0  0  0  0
  1  2  1  0
  2  3  1  0
  3  4  1  0
  4  5  1  0
  5  6  1  0
  6  7  1  1
  6  8  1  0
  8  9  2  0
  8 10  1  0
 10 11  1  0
 11 12  1  0
 12 13  1  0
 13 14  1  0
 13 15  1  0
 11 16  2  0
 16 17  1  0
 17 18  2  0
 18 19  1  0
 19 20  2  0
 20 21  1  0
 21 22  2  0
 21 23  1  0
 23 24  1  0
 24 25  2  0
 25 26  1  0
 26 27  2  0
 27 28  1  0
 28 29  2  0
 28 30  1  0
 30 31  1  0
 31 32  1  0
 20 33  1  0
 33 34  2  0
 33  6  1  0
 34 10  1  0
 34 17  1  0
 29 24  1  0
 32 27  1  0
M  END
>  <smiles>  (121) 
C72113-P7

>  <fragmenstein_outcome>  (121) 
acceptable

>  <inchikey>  (121) 
OVLVOFNJXWVDAU-UHFFFAOYSA-N

>  <fragmenstein_mode>  (121) 
expansion

>  <HIPPO Pose ID>  (121) 
1427

>  <Energy>  (121) 
153.581154

>  <fragmenstein_error>  (121) 


>  <tags>  (121) 
{'openbind_xx01zvns2b_c1_fragmenstein', 'fragmenstein_placed'}

>  <ref_pdb>  (121) 
1

>  <scratch_subdir>  (121) 
/opt/xchem-fragalysis-2/maxwin/BulkDock/SCRATCH/511027/C72113-P7

>  <alias>  (121) 
COCCO[C@]1(C)C(=O)n2c(NC(C)C)nc3ccc(C(=O)Nc4ccc5c(c4)CNC5)c1c32

>  <HIPPO Compound ID>  (121) 
103865

>  <fragmenstein_runtime>  (121) 
10.857262

$$$$
CC(C)Nc1nc2c(C(=O)Nc3cnc4c(c3)CNC4)cccc2[nH]1
     RDKit          3D

 25 28  0  0  0  0  0  0  0  0999 V2000
   -2.2146    4.3711  -19.1400 C   0  0  0  0  0  0  0  0  0  0  0  0
   -2.8574    5.7060  -19.4859 C   0  0  0  0  0  0  0  0  0  0  0  0
   -2.6244    6.7629  -18.4160 C   0  0  0  0  0  0  0  0  0  0  0  0
   -4.2619    5.5719  -19.8549 N   0  0  0  0  0  0  0  0  0  0  0  0
   -5.2425    5.2635  -18.9812 C   0  0  0  0  0  0  0  0  0  0  0  0
   -5.2521    5.2198  -17.6707 N   0  0  0  0  0  0  0  0  0  0  0  0
   -6.5296    4.8259  -17.3110 C   0  0  0  0  0  0  0  0  0  0  0  0
   -7.1379    4.6111  -16.0608 C   0  0  0  0  0  0  0  0  0  0  0  0
   -6.3837    4.8011  -14.7939 C   0  0  0  0  0  0  0  0  0  0  0  0
   -5.3565    4.2723  -14.6287 O   0  0  0  0  0  0  0  0  0  0  0  0
   -7.2181    5.6958  -13.8403 N   0  0  0  0  0  0  0  0  0  0  0  0
   -6.9246    6.1818  -12.5695 C   0  0  0  0  0  0  0  0  0  0  0  0
   -5.7789    5.7998  -11.8605 C   0  0  0  0  0  0  0  0  0  0  0  0
   -5.4707    6.2386  -10.6088 N   0  0  0  0  0  0  0  0  0  0  0  0
   -6.3672    7.0822  -10.0728 C   0  0  0  0  0  0  0  0  0  0  0  0
   -7.5296    7.5083  -10.6907 C   0  0  0  0  0  0  0  0  0  0  0  0
   -7.8227    7.0658  -11.9661 C   0  0  0  0  0  0  0  0  0  0  0  0
   -8.2623    8.4425   -9.7932 C   0  0  0  0  0  0  0  0  0  0  0  0
   -7.6194    8.3155   -8.4577 N   0  0  0  0  0  0  0  0  0  0  0  0
   -6.2738    7.7262   -8.7184 C   0  0  0  0  0  0  0  0  0  0  0  0
   -8.4996    4.2373  -16.0159 C   0  0  0  0  0  0  0  0  0  0  0  0
   -9.2532    4.1156  -17.1836 C   0  0  0  0  0  0  0  0  0  0  0  0
   -8.6739    4.3308  -18.4320 C   0  0  0  0  0  0  0  0  0  0  0  0
   -7.3216    4.6790  -18.4472 C   0  0  0  0  0  0  0  0  0  0  0  0
   -6.4805    4.9689  -19.4854 N   0  0  0  0  0  0  0  0  0  0  0  0
  1  2  1  0
  2  3  1  0
  2  4  1  0
  4  5  1  0
  5  6  2  0
  6  7  1  0
  7  8  2  0
  8  9  1  0
  9 10  2  0
  9 11  1  0
 11 12  1  0
 12 13  2  0
 13 14  1  0
 14 15  2  0
 15 16  1  0
 16 17  2  0
 16 18  1  0
 18 19  1  0
 19 20  1  0
  8 21  1  0
 21 22  2  0
 22 23  1  0
 23 24  2  0
 24 25  1  0
 25  5  1  0
 24  7  1  0
 17 12  1  0
 20 15  1  0
M  END
>  <smiles>  (122) 
C72114-P7

>  <fragmenstein_outcome>  (122) 
acceptable

>  <inchikey>  (122) 
ZXVPMFDYBUYUAC-UHFFFAOYSA-N

>  <fragmenstein_mode>  (122) 
expansion

>  <HIPPO Pose ID>  (122) 
1428

>  <Energy>  (122) 
58.366259

>  <fragmenstein_error>  (122) 


>  <tags>  (122) 
{'openbind_xx01zvns2b_c1_fragmenstein', 'fragmenstein_placed'}

>  <ref_pdb>  (122) 
1

>  <scratch_subdir>  (122) 
/opt/xchem-fragalysis-2/maxwin/BulkDock/SCRATCH/511027/C72114-P7

>  <alias>  (122) 
CC(C)Nc1nc2c(C(=O)Nc3cnc4c(c3)CNC4)cccc2[nH]1

>  <HIPPO Compound ID>  (122) 
74742

>  <fragmenstein_runtime>  (122) 
7.551461

$$$$
CC(C)Nc1nc2c([C@@H](CC(=O)O)Nc3ccc4c(c3)CNC4)cccc2[nH]1
     RDKit          3D

 28 31  0  0  0  0  0  0  0  0999 V2000
   -2.0009    4.5129  -19.1722 C   0  0  0  0  0  0  0  0  0  0  0  0
   -2.7785    5.7991  -18.9223 C   0  0  0  0  0  0  0  0  0  0  0  0
   -1.8839    7.0161  -19.1321 C   0  0  0  0  0  0  0  0  0  0  0  0
   -3.2994    5.8343  -17.5655 N   0  0  0  0  0  0  0  0  0  0  0  0
   -4.5484    5.4746  -17.2085 C   0  0  0  0  0  0  0  0  0  0  0  0
   -5.0472    5.4403  -15.9921 N   0  0  0  0  0  0  0  0  0  0  0  0
   -6.3609    5.0242  -16.1355 C   0  0  0  0  0  0  0  0  0  0  0  0
   -7.3746    4.8415  -15.1658 C   0  0  0  0  0  0  0  0  0  0  0  0
   -7.1737    5.2053  -13.6966 C   0  0  1  0  0  0  0  0  0  0  0  0
   -7.4408    6.7086  -13.5437 C   0  0  0  0  0  0  0  0  0  0  0  0
   -8.8782    7.0816  -13.3144 C   0  0  0  0  0  0  0  0  0  0  0  0
   -9.8877    6.5370  -13.7256 O   0  0  0  0  0  0  0  0  0  0  0  0
   -8.9849    8.2401  -12.6214 O   0  0  0  0  0  0  0  0  0  0  0  0
   -7.9652    4.3358  -12.8118 N   0  0  0  0  0  0  0  0  0  0  0  0
   -7.8738    4.2744  -11.4234 C   0  0  0  0  0  0  0  0  0  0  0  0
   -7.2938    5.2760  -10.6248 C   0  0  0  0  0  0  0  0  0  0  0  0
   -7.3704    5.2667   -9.2258 C   0  0  0  0  0  0  0  0  0  0  0  0
   -8.0051    4.2116   -8.6141 C   0  0  0  0  0  0  0  0  0  0  0  0
   -8.5523    3.1860   -9.3667 C   0  0  0  0  0  0  0  0  0  0  0  0
   -8.5225    3.2193  -10.7562 C   0  0  0  0  0  0  0  0  0  0  0  0
   -9.1669    2.1914   -8.4435 C   0  0  0  0  0  0  0  0  0  0  0  0
   -8.7153    2.5617   -7.0748 N   0  0  0  0  0  0  0  0  0  0  0  0
   -8.2594    3.9643   -7.1689 C   0  0  0  0  0  0  0  0  0  0  0  0
   -8.6371    4.4347  -15.6582 C   0  0  0  0  0  0  0  0  0  0  0  0
   -8.8930    4.2383  -17.0171 C   0  0  0  0  0  0  0  0  0  0  0  0
   -7.8982    4.4355  -17.9670 C   0  0  0  0  0  0  0  0  0  0  0  0
   -6.6546    4.8212  -17.4778 C   0  0  0  0  0  0  0  0  0  0  0  0
   -5.4896    5.1032  -18.1308 N   0  0  0  0  0  0  0  0  0  0  0  0
  1  2  1  0
  2  3  1  0
  2  4  1  0
  4  5  1  0
  5  6  2  0
  6  7  1  0
  7  8  2  0
  8  9  1  0
  9 10  1  6
 10 11  1  0
 11 12  2  0
 11 13  1  0
  9 14  1  0
 14 15  1  0
 15 16  2  0
 16 17  1  0
 17 18  2  0
 18 19  1  0
 19 20  2  0
 19 21  1  0
 21 22  1  0
 22 23  1  0
  8 24  1  0
 24 25  2  0
 25 26  1  0
 26 27  2  0
 27 28  1  0
 28  5  1  0
 27  7  1  0
 20 15  1  0
 23 18  1  0
M  END
>  <smiles>  (123) 
C72148-P7

>  <fragmenstein_outcome>  (123) 
acceptable

>  <inchikey>  (123) 
JYOBBFGELCVIBC-UHFFFAOYSA-N

>  <fragmenstein_mode>  (123) 
expansion

>  <HIPPO Pose ID>  (123) 
1445

>  <Energy>  (123) 
-23.86959

>  <fragmenstein_error>  (123) 


>  <tags>  (123) 
{'openbind_xx01zvns2b_c1_fragmenstein', 'fragmenstein_placed'}

>  <ref_pdb>  (123) 
1

>  <scratch_subdir>  (123) 
/opt/xchem-fragalysis-2/maxwin/BulkDock/SCRATCH/511027/C72148-P7

>  <alias>  (123) 
CC(C)Nc1nc2c([C@@H](CC(=O)O)Nc3ccc4c(c3)CNC4)cccc2[nH]1

>  <HIPPO Compound ID>  (123) 
72148

>  <fragmenstein_runtime>  (123) 
5.495848

$$$$
COC(C)(C)Nc1nc2c([C@H](Nc3ccc4c(c3)CNC4)C(=O)NCC(F)F)cccc2[nH]1
     RDKit          3D

 33 36  0  0  0  0  0  0  0  0999 V2000
   -2.8279    7.1738  -21.1832 C   0  0  0  0  0  0  0  0  0  0  0  0
   -2.5107    5.8817  -20.6772 O   0  0  0  0  0  0  0  0  0  0  0  0
   -3.0242    5.5926  -19.3553 C   0  0  0  0  0  0  0  0  0  0  0  0
   -2.7720    6.7295  -18.3673 C   0  0  0  0  0  0  0  0  0  0  0  0
   -2.2652    4.3414  -18.9202 C   0  0  0  0  0  0  0  0  0  0  0  0
   -4.4183    5.3035  -19.5498 N   0  0  0  0  0  0  0  0  0  0  0  0
   -5.3833    5.1086  -18.6310 C   0  0  0  0  0  0  0  0  0  0  0  0
   -5.4404    5.1111  -17.3101 N   0  0  0  0  0  0  0  0  0  0  0  0
   -6.7716    4.8133  -16.9706 C   0  0  0  0  0  0  0  0  0  0  0  0
   -7.4722    4.6960  -15.7288 C   0  0  0  0  0  0  0  0  0  0  0  0
   -6.9121    4.9754  -14.3139 C   0  0  2  0  0  0  0  0  0  0  0  0
   -7.7162    4.1921  -13.2921 N   0  0  0  0  0  0  0  0  0  0  0  0
   -7.5957    4.1864  -11.8990 C   0  0  0  0  0  0  0  0  0  0  0  0
   -7.0145    5.2220  -11.1486 C   0  0  0  0  0  0  0  0  0  0  0  0
   -7.1404    5.3001   -9.7492 C   0  0  0  0  0  0  0  0  0  0  0  0
   -7.8120    4.2964   -9.0842 C   0  0  0  0  0  0  0  0  0  0  0  0
   -8.3204    3.2174   -9.7843 C   0  0  0  0  0  0  0  0  0  0  0  0
   -8.2579    3.1724  -11.1747 C   0  0  0  0  0  0  0  0  0  0  0  0
   -8.8222    2.2066   -8.8042 C   0  0  0  0  0  0  0  0  0  0  0  0
   -8.9421    2.9279   -7.5113 N   0  0  0  0  0  0  0  0  0  0  0  0
   -8.0648    4.1110   -7.6257 C   0  0  0  0  0  0  0  0  0  0  0  0
   -6.9613    6.5351  -14.0722 C   0  0  0  0  0  0  0  0  0  0  0  0
   -6.0978    7.2522  -14.4021 O   0  0  0  0  0  0  0  0  0  0  0  0
   -8.3245    6.8469  -13.3869 N   0  0  0  0  0  0  0  0  0  0  0  0
   -8.8599    8.0957  -12.8819 C   0  0  0  0  0  0  0  0  0  0  0  0
   -8.5664    8.3634  -11.4087 C   0  0  0  0  0  0  0  0  0  0  0  0
   -9.1654    9.5239  -11.0353 F   0  0  0  0  0  0  0  0  0  0  0  0
   -7.2351    8.5415  -11.2117 F   0  0  0  0  0  0  0  0  0  0  0  0
   -8.8582    4.3747  -15.8391 C   0  0  0  0  0  0  0  0  0  0  0  0
   -9.5150    4.1643  -17.0493 C   0  0  0  0  0  0  0  0  0  0  0  0
   -8.8367    4.2858  -18.2419 C   0  0  0  0  0  0  0  0  0  0  0  0
   -7.4934    4.6204  -18.1494 C   0  0  0  0  0  0  0  0  0  0  0  0
   -6.6170    4.8706  -19.1581 N   0  0  0  0  0  0  0  0  0  0  0  0
  1  2  1  0
  2  3  1  0
  3  4  1  0
  3  5  1  0
  3  6  1  0
  6  7  1  0
  7  8  2  0
  8  9  1  0
  9 10  2  0
 10 11  1  0
 11 12  1  1
 12 13  1  0
 13 14  2  0
 14 15  1  0
 15 16  2  0
 16 17  1  0
 17 18  2  0
 17 19  1  0
 19 20  1  0
 20 21  1  0
 11 22  1  0
 22 23  2  0
 22 24  1  0
 24 25  1  0
 25 26  1  0
 26 27  1  0
 26 28  1  0
 10 29  1  0
 29 30  2  0
 30 31  1  0
 31 32  2  0
 32 33  1  0
 33  7  1  0
 32  9  1  0
 18 13  1  0
 21 16  1  0
M  END
>  <smiles>  (124) 
C72151-P7

>  <fragmenstein_outcome>  (124) 
acceptable

>  <inchikey>  (124) 
TYANCAQNOKBGRR-UHFFFAOYSA-N

>  <fragmenstein_mode>  (124) 
expansion

>  <HIPPO Pose ID>  (124) 
1448

>  <Energy>  (124) 
76.160474

>  <fragmenstein_error>  (124) 


>  <tags>  (124) 
{'openbind_xx01zvns2b_c1_fragmenstein', 'fragmenstein_placed'}

>  <ref_pdb>  (124) 
1

>  <scratch_subdir>  (124) 
/opt/xchem-fragalysis-2/maxwin/BulkDock/SCRATCH/511027/C72151-P7

>  <alias>  (124) 
COC(C)(C)Nc1nc2c([C@H](Nc3ccc4c(c3)CNC4)C(=O)NCC(F)F)cccc2[nH]1

>  <HIPPO Compound ID>  (124) 
89293

>  <fragmenstein_runtime>  (124) 
5.8113

$$$$
CN[C@@H](c1nc2c(C(=O)Nc3cccc(F)c3)cccc2[nH]1)C(C)C
     RDKit          3D

 25 27  0  0  0  0  0  0  0  0999 V2000
   -4.9996    7.3828  -20.9060 C   0  0  0  0  0  0  0  0  0  0  0  0
   -4.1910    6.2440  -20.4901 N   0  0  0  0  0  0  0  0  0  0  0  0
   -4.0657    6.1534  -19.0189 C   0  0  1  0  0  0  0  0  0  0  0  0
   -5.2053    5.4493  -18.3123 C   0  0  0  0  0  0  0  0  0  0  0  0
   -5.3869    5.3544  -17.0010 N   0  0  0  0  0  0  0  0  0  0  0  0
   -6.6831    4.8984  -16.8005 C   0  0  0  0  0  0  0  0  0  0  0  0
   -7.4834    4.6923  -15.6454 C   0  0  0  0  0  0  0  0  0  0  0  0
   -7.0547    5.0462  -14.2501 C   0  0  0  0  0  0  0  0  0  0  0  0
   -6.3782    5.9912  -14.0986 O   0  0  0  0  0  0  0  0  0  0  0  0
   -7.7098    4.0888  -13.1978 N   0  0  0  0  0  0  0  0  0  0  0  0
   -7.7391    4.1591  -11.7966 C   0  0  0  0  0  0  0  0  0  0  0  0
   -7.2071    5.2429  -11.0964 C   0  0  0  0  0  0  0  0  0  0  0  0
   -7.2996    5.3039   -9.6970 C   0  0  0  0  0  0  0  0  0  0  0  0
   -7.9167    4.2754   -8.9871 C   0  0  0  0  0  0  0  0  0  0  0  0
   -8.4493    3.1990   -9.6812 C   0  0  0  0  0  0  0  0  0  0  0  0
   -9.0559    2.2187   -8.9946 F   0  0  0  0  0  0  0  0  0  0  0  0
   -8.3720    3.1391  -11.0749 C   0  0  0  0  0  0  0  0  0  0  0  0
   -8.8280    4.3129  -15.8443 C   0  0  0  0  0  0  0  0  0  0  0  0
   -9.3570    4.0923  -17.1136 C   0  0  0  0  0  0  0  0  0  0  0  0
   -8.5733    4.2426  -18.2469 C   0  0  0  0  0  0  0  0  0  0  0  0
   -7.2606    4.6549  -18.0493 C   0  0  0  0  0  0  0  0  0  0  0  0
   -6.3000    4.9591  -18.9756 N   0  0  0  0  0  0  0  0  0  0  0  0
   -2.6665    5.6213  -18.6174 C   0  0  0  0  0  0  0  0  0  0  0  0
   -2.3089    4.2571  -19.2013 C   0  0  0  0  0  0  0  0  0  0  0  0
   -1.5855    6.6355  -19.0136 C   0  0  0  0  0  0  0  0  0  0  0  0
  1  2  1  0
  3  2  1  6
  3  4  1  0
  4  5  2  0
  5  6  1  0
  6  7  2  0
  7  8  1  0
  8  9  2  0
  8 10  1  0
 10 11  1  0
 11 12  2  0
 12 13  1  0
 13 14  2  0
 14 15  1  0
 15 16  1  0
 15 17  2  0
  7 18  1  0
 18 19  2  0
 19 20  1  0
 20 21  2  0
 21 22  1  0
  3 23  1  0
 23 24  1  0
 23 25  1  0
 22  4  1  0
 21  6  1  0
 17 11  1  0
M  END
>  <smiles>  (125) 
C72154-P7

>  <fragmenstein_outcome>  (125) 
acceptable

>  <inchikey>  (125) 
KLIKTCBXNBXOLC-UHFFFAOYSA-N

>  <fragmenstein_mode>  (125) 
expansion

>  <HIPPO Pose ID>  (125) 
1450

>  <Energy>  (125) 
68.76587

>  <fragmenstein_error>  (125) 


>  <tags>  (125) 
{'openbind_xx01zvns2b_c1_fragmenstein', 'fragmenstein_placed'}

>  <ref_pdb>  (125) 
1

>  <scratch_subdir>  (125) 
/opt/xchem-fragalysis-2/maxwin/BulkDock/SCRATCH/511027/C72154-P7

>  <alias>  (125) 
CN[C@@H](c1nc2c(C(=O)Nc3cccc(F)c3)cccc2[nH]1)C(C)C

>  <HIPPO Compound ID>  (125) 
79819

>  <fragmenstein_runtime>  (125) 
8.546313

$$$$
CC(C)NC1=Nc2c(C(=O)Nc3ccc4c(c3)CNC4)cccc2[N@@H+]1[O-]
     RDKit          3D

 26 29  0  0  0  0  0  0  0  0999 V2000
   -3.4176    6.9626  -13.6890 C   0  0  0  0  0  0  0  0  0  0  0  0
   -2.8709    5.6758  -14.2801 C   0  0  0  0  0  0  0  0  0  0  0  0
   -3.1239    4.4732  -13.3816 C   0  0  0  0  0  0  0  0  0  0  0  0
   -3.4205    5.5063  -15.5994 N   0  0  0  0  0  0  0  0  0  0  0  0
   -4.7431    5.3678  -15.8951 C   0  0  0  0  0  0  0  0  0  0  0  0
   -5.7431    5.2741  -15.0707 N   0  0  0  0  0  0  0  0  0  0  0  0
   -6.8561    4.9486  -15.8582 C   0  0  0  0  0  0  0  0  0  0  0  0
   -8.1523    4.7060  -15.4549 C   0  0  0  0  0  0  0  0  0  0  0  0
   -8.5788    5.0851  -14.0950 C   0  0  0  0  0  0  0  0  0  0  0  0
   -9.2049    6.0634  -13.9770 O   0  0  0  0  0  0  0  0  0  0  0  0
   -8.1004    4.0712  -13.0372 N   0  0  0  0  0  0  0  0  0  0  0  0
   -8.2057    4.0945  -11.6512 C   0  0  0  0  0  0  0  0  0  0  0  0
   -8.2724    5.3214  -10.9688 C   0  0  0  0  0  0  0  0  0  0  0  0
   -8.4094    5.3609   -9.5777 C   0  0  0  0  0  0  0  0  0  0  0  0
   -8.5703    4.1625   -8.9089 C   0  0  0  0  0  0  0  0  0  0  0  0
   -8.5461    2.9494   -9.5917 C   0  0  0  0  0  0  0  0  0  0  0  0
   -8.2952    2.8913  -10.9527 C   0  0  0  0  0  0  0  0  0  0  0  0
   -8.8710    1.8458   -8.6379 C   0  0  0  0  0  0  0  0  0  0  0  0
   -9.3682    2.5269   -7.4098 N   0  0  0  0  0  0  0  0  0  0  0  0
   -8.8097    3.8938   -7.4621 C   0  0  0  0  0  0  0  0  0  0  0  0
   -9.0890    4.3171  -16.4180 C   0  0  0  0  0  0  0  0  0  0  0  0
   -8.7230    4.1954  -17.7707 C   0  0  0  0  0  0  0  0  0  0  0  0
   -7.4257    4.5002  -18.1817 C   0  0  0  0  0  0  0  0  0  0  0  0
   -6.5203    4.8736  -17.2076 C   0  0  0  0  0  0  0  0  0  0  0  0
   -5.1623    5.3748  -17.3483 N   0  0  2  0  0  0  0  0  0  0  0  0
   -4.3619    4.6323  -18.1517 O   0  0  0  0  0  0  0  0  0  0  0  0
  1  2  1  0
  2  3  1  0
  2  4  1  0
  4  5  1  0
  5  6  2  0
  6  7  1  0
  7  8  2  0
  8  9  1  0
  9 10  2  0
  9 11  1  0
 11 12  1  0
 12 13  2  0
 13 14  1  0
 14 15  2  0
 15 16  1  0
 16 17  2  0
 16 18  1  0
 18 19  1  0
 19 20  1  0
  8 21  1  0
 21 22  2  0
 22 23  1  0
 23 24  2  0
 24 25  1  0
 25 26  1  6
 25  5  1  0
 24  7  1  0
 17 12  1  0
 20 15  1  0
M  CHG  2  25   1  26  -1
M  END
>  <smiles>  (126) 
C72069-P152

>  <fragmenstein_outcome>  (126) 
acceptable

>  <inchikey>  (126) 
HQMAOZMUOGRQDC-UHFFFAOYSA-N

>  <fragmenstein_mode>  (126) 
expansion

>  <HIPPO Pose ID>  (126) 
1459

>  <Energy>  (126) 
74.138021

>  <fragmenstein_error>  (126) 


>  <tags>  (126) 
{'openbind_xx01zvns2b_c1_fragmenstein', 'fragmenstein_placed'}

>  <ref_pdb>  (126) 
1

>  <scratch_subdir>  (126) 
/opt/xchem-fragalysis-2/maxwin/BulkDock/SCRATCH/511027/C72069-P152

>  <alias>  (126) 
CC(C)NC1=Nc2c(C(=O)Nc3ccc4c(c3)CNC4)cccc2[N@@H+]1[O-]

>  <HIPPO Compound ID>  (126) 
102556

>  <fragmenstein_runtime>  (126) 
8.533232

$$$$
CN[C@@H](c1nc2c(C(=O)Nc3ccc4c(c3)CN(CC(F)F)C4)cc(Cl)cc2[nH]1)C(C)C
     RDKit          3D

 32 35  0  0  0  0  0  0  0  0999 V2000
   -2.6217    8.2731  -16.7812 C   0  0  0  0  0  0  0  0  0  0  0  0
   -3.6132    7.6293  -17.6432 N   0  0  0  0  0  0  0  0  0  0  0  0
   -3.3410    6.1756  -17.7762 C   0  0  1  0  0  0  0  0  0  0  0  0
   -4.6426    5.4656  -17.4597 C   0  0  0  0  0  0  0  0  0  0  0  0
   -5.1520    5.3439  -16.2468 N   0  0  0  0  0  0  0  0  0  0  0  0
   -6.4583    4.9465  -16.4162 C   0  0  0  0  0  0  0  0  0  0  0  0
   -7.5113    4.7816  -15.4973 C   0  0  0  0  0  0  0  0  0  0  0  0
   -7.3606    5.2600  -14.1085 C   0  0  0  0  0  0  0  0  0  0  0  0
   -6.9740    6.3529  -13.9549 O   0  0  0  0  0  0  0  0  0  0  0  0
   -7.8087    4.1975  -13.0714 N   0  0  0  0  0  0  0  0  0  0  0  0
   -7.9585    4.2893  -11.6866 C   0  0  0  0  0  0  0  0  0  0  0  0
   -7.6461    5.4892  -11.0248 C   0  0  0  0  0  0  0  0  0  0  0  0
   -7.7502    5.5986   -9.6383 C   0  0  0  0  0  0  0  0  0  0  0  0
   -8.1478    4.4845   -8.9301 C   0  0  0  0  0  0  0  0  0  0  0  0
   -8.4712    3.2893   -9.5749 C   0  0  0  0  0  0  0  0  0  0  0  0
   -8.3956    3.1796  -10.9563 C   0  0  0  0  0  0  0  0  0  0  0  0
   -8.8749    2.2755   -8.5475 C   0  0  0  0  0  0  0  0  0  0  0  0
   -8.4827    2.8966   -7.2762 N   0  0  0  0  0  0  0  0  0  0  0  0
   -9.1489    2.4303   -6.0725 C   0  0  0  0  0  0  0  0  0  0  0  0
  -10.5464    2.9594   -5.7832 C   0  0  0  0  0  0  0  0  0  0  0  0
  -11.1015    2.3243   -4.7244 F   0  0  0  0  0  0  0  0  0  0  0  0
  -10.4858    4.2763   -5.4407 F   0  0  0  0  0  0  0  0  0  0  0  0
   -8.3208    4.3316   -7.4557 C   0  0  0  0  0  0  0  0  0  0  0  0
   -8.7739    4.4010  -15.9675 C   0  0  0  0  0  0  0  0  0  0  0  0
   -8.9881    4.2394  -17.3350 C   0  0  0  0  0  0  0  0  0  0  0  0
  -10.5806    4.0095  -17.9171 Cl  0  0  0  0  0  0  0  0  0  0  0  0
   -7.9666    4.3909  -18.2708 C   0  0  0  0  0  0  0  0  0  0  0  0
   -6.7196    4.7466  -17.7670 C   0  0  0  0  0  0  0  0  0  0  0  0
   -5.5493    5.0548  -18.4071 N   0  0  0  0  0  0  0  0  0  0  0  0
   -2.7742    5.8225  -19.1820 C   0  0  0  0  0  0  0  0  0  0  0  0
   -1.6531    6.7638  -19.6295 C   0  0  0  0  0  0  0  0  0  0  0  0
   -2.2283    4.3905  -19.2238 C   0  0  0  0  0  0  0  0  0  0  0  0
  1  2  1  0
  3  2  1  6
  3  4  1  0
  4  5  2  0
  5  6  1  0
  6  7  2  0
  7  8  1  0
  8  9  2  0
  8 10  1  0
 10 11  1  0
 11 12  2  0
 12 13  1  0
 13 14  2  0
 14 15  1  0
 15 16  2  0
 15 17  1  0
 17 18  1  0
 18 19  1  0
 19 20  1  0
 20 21  1  0
 20 22  1  0
 18 23  1  0
  7 24  1  0
 24 25  2  0
 25 26  1  0
 25 27  1  0
 27 28  2  0
 28 29  1  0
  3 30  1  0
 30 31  1  0
 30 32  1  0
 29  4  1  0
 28  6  1  0
 16 11  1  0
 23 14  1  0
M  END
>  <smiles>  (127) 
C72183-P7

>  <fragmenstein_outcome>  (127) 
acceptable

>  <inchikey>  (127) 
PESVXDYOTOVXLC-UHFFFAOYSA-N

>  <fragmenstein_mode>  (127) 
expansion

>  <HIPPO Pose ID>  (127) 
1473

>  <Energy>  (127) 
113.822537

>  <fragmenstein_error>  (127) 


>  <tags>  (127) 
{'openbind_xx01zvns2b_c1_fragmenstein', 'fragmenstein_placed'}

>  <ref_pdb>  (127) 
1

>  <scratch_subdir>  (127) 
/opt/xchem-fragalysis-2/maxwin/BulkDock/SCRATCH/511027/C72183-P7

>  <alias>  (127) 
CN[C@@H](c1nc2c(C(=O)Nc3ccc4c(c3)CN(CC(F)F)C4)cc(Cl)cc2[nH]1)C(C)C

>  <HIPPO Compound ID>  (127) 
70566

>  <fragmenstein_runtime>  (127) 
9.659137

$$$$
C[C@@H]1CNCn2c(nc3cccc(C(=O)Nc4ccc5c(c4)CNC5)c32)N1
     RDKit          3D

 27 31  0  0  0  0  0  0  0  0999 V2000
   -1.4796    5.6219  -19.0364 C   0  0  0  0  0  0  0  0  0  0  0  0
   -2.8378    6.0725  -18.4980 C   0  0  2  0  0  0  0  0  0  0  0  0
   -2.7338    6.9229  -17.1955 C   0  0  0  0  0  0  0  0  0  0  0  0
   -2.9478    6.1298  -15.9473 N   0  0  0  0  0  0  0  0  0  0  0  0
   -4.3823    6.0071  -15.5528 C   0  0  0  0  0  0  0  0  0  0  0  0
   -5.2310    5.3674  -16.5551 N   0  0  0  0  0  0  0  0  0  0  0  0
   -4.8603    5.0472  -17.8398 C   0  0  0  0  0  0  0  0  0  0  0  0
   -5.8910    4.8419  -18.6041 N   0  0  0  0  0  0  0  0  0  0  0  0
   -6.9326    4.6911  -17.7428 C   0  0  0  0  0  0  0  0  0  0  0  0
   -8.2288    4.2521  -18.0472 C   0  0  0  0  0  0  0  0  0  0  0  0
   -9.1463    4.0847  -17.0169 C   0  0  0  0  0  0  0  0  0  0  0  0
   -8.7804    4.3796  -15.7065 C   0  0  0  0  0  0  0  0  0  0  0  0
   -7.4900    4.8529  -15.3748 C   0  0  0  0  0  0  0  0  0  0  0  0
   -7.2259    5.2478  -13.9658 C   0  0  0  0  0  0  0  0  0  0  0  0
   -6.7227    6.2819  -13.7545 O   0  0  0  0  0  0  0  0  0  0  0  0
   -7.7919    4.1861  -12.9859 N   0  0  0  0  0  0  0  0  0  0  0  0
   -7.9363    4.2192  -11.5991 C   0  0  0  0  0  0  0  0  0  0  0  0
   -7.6838    5.3795  -10.8525 C   0  0  0  0  0  0  0  0  0  0  0  0
   -7.8936    5.3988   -9.4667 C   0  0  0  0  0  0  0  0  0  0  0  0
   -8.3489    4.2456   -8.8526 C   0  0  0  0  0  0  0  0  0  0  0  0
   -8.5851    3.0901   -9.5876 C   0  0  0  0  0  0  0  0  0  0  0  0
   -8.3956    3.0613  -10.9596 C   0  0  0  0  0  0  0  0  0  0  0  0
   -9.0011    1.9953   -8.6603 C   0  0  0  0  0  0  0  0  0  0  0  0
   -9.3474    2.6766   -7.3856 N   0  0  0  0  0  0  0  0  0  0  0  0
   -8.6379    3.9733   -7.4142 C   0  0  0  0  0  0  0  0  0  0  0  0
   -6.5632    4.9965  -16.4251 C   0  0  0  0  0  0  0  0  0  0  0  0
   -3.5677    4.8570  -18.1776 N   0  0  0  0  0  0  0  0  0  0  0  0
  2  1  1  1
  2  3  1  0
  3  4  1  0
  4  5  1  0
  5  6  1  0
  6  7  1  0
  7  8  2  0
  8  9  1  0
  9 10  2  0
 10 11  1  0
 11 12  2  0
 12 13  1  0
 13 14  1  0
 14 15  2  0
 14 16  1  0
 16 17  1  0
 17 18  2  0
 18 19  1  0
 19 20  2  0
 20 21  1  0
 21 22  2  0
 21 23  1  0
 23 24  1  0
 24 25  1  0
 13 26  2  0
  7 27  1  0
 27  2  1  0
 26  6  1  0
 26  9  1  0
 22 17  1  0
 25 20  1  0
M  END
>  <smiles>  (128) 
C72196-P189

>  <fragmenstein_outcome>  (128) 
acceptable

>  <inchikey>  (128) 
UQBPEJQDUPIUSD-UHFFFAOYSA-N

>  <fragmenstein_mode>  (128) 
expansion

>  <HIPPO Pose ID>  (128) 
1477

>  <Energy>  (128) 
71.673626

>  <fragmenstein_error>  (128) 


>  <tags>  (128) 
{'openbind_xx01zvns2b_c1_fragmenstein', 'fragmenstein_placed'}

>  <ref_pdb>  (128) 
1

>  <scratch_subdir>  (128) 
/opt/xchem-fragalysis-2/maxwin/BulkDock/SCRATCH/511027/C72196-P189

>  <alias>  (128) 
C[C@@H]1CNCn2c(nc3cccc(C(=O)Nc4ccc5c(c4)CNC5)c32)N1

>  <HIPPO Compound ID>  (128) 
91182

>  <fragmenstein_runtime>  (128) 
4.77623

$$$$
CNC[C@]1(NC(C)C)Nc2cccc(C(=O)Nc3ccc4c(c3)CNC4)c2N1
     RDKit          3D

 28 31  0  0  0  0  0  0  0  0999 V2000
   -5.4303    7.1641  -20.0140 C   0  0  0  0  0  0  0  0  0  0  0  0
   -4.4398    7.5801  -19.0360 N   0  0  0  0  0  0  0  0  0  0  0  0
   -4.5978    6.9264  -17.7069 C   0  0  0  0  0  0  0  0  0  0  0  0
   -4.4625    5.3250  -17.4615 C   0  0  2  0  0  0  0  0  0  0  0  0
   -3.0598    4.9155  -17.6177 N   0  0  0  0  0  0  0  0  0  0  0  0
   -2.5026    5.1724  -18.9517 C   0  0  0  0  0  0  0  0  0  0  0  0
   -1.7526    3.9345  -19.4374 C   0  0  0  0  0  0  0  0  0  0  0  0
   -1.5244    6.3535  -18.9496 C   0  0  0  0  0  0  0  0  0  0  0  0
   -5.4300    4.6048  -18.2945 N   0  0  0  0  0  0  0  0  0  0  0  0
   -6.6182    4.6199  -17.5531 C   0  0  0  0  0  0  0  0  0  0  0  0
   -7.8824    4.2824  -17.9951 C   0  0  0  0  0  0  0  0  0  0  0  0
   -8.9070    4.2078  -17.0539 C   0  0  0  0  0  0  0  0  0  0  0  0
   -8.6416    4.4683  -15.7003 C   0  0  0  0  0  0  0  0  0  0  0  0
   -7.3509    4.8168  -15.2675 C   0  0  0  0  0  0  0  0  0  0  0  0
   -7.1668    5.2461  -13.8555 C   0  0  0  0  0  0  0  0  0  0  0  0
   -6.6981    6.2957  -13.6432 O   0  0  0  0  0  0  0  0  0  0  0  0
   -7.7243    4.1779  -12.8785 N   0  0  0  0  0  0  0  0  0  0  0  0
   -7.9008    4.2195  -11.4946 C   0  0  0  0  0  0  0  0  0  0  0  0
   -7.6684    5.3911  -10.7584 C   0  0  0  0  0  0  0  0  0  0  0  0
   -7.8493    5.4144   -9.3690 C   0  0  0  0  0  0  0  0  0  0  0  0
   -8.2570    4.2530   -8.7383 C   0  0  0  0  0  0  0  0  0  0  0  0
   -8.4824    3.0890   -9.4626 C   0  0  0  0  0  0  0  0  0  0  0  0
   -8.3197    3.0581  -10.8392 C   0  0  0  0  0  0  0  0  0  0  0  0
   -8.8375    1.9887   -8.5160 C   0  0  0  0  0  0  0  0  0  0  0  0
   -9.1720    2.6673   -7.2354 N   0  0  0  0  0  0  0  0  0  0  0  0
   -8.4857    3.9762   -7.2898 C   0  0  0  0  0  0  0  0  0  0  0  0
   -6.3431    4.8980  -16.2169 C   0  0  0  0  0  0  0  0  0  0  0  0
   -4.9371    5.1291  -16.0560 N   0  0  0  0  0  0  0  0  0  0  0  0
  1  2  1  0
  2  3  1  0
  4  3  1  6
  4  5  1  0
  5  6  1  0
  6  7  1  0
  6  8  1  0
  4  9  1  0
  9 10  1  0
 10 11  2  0
 11 12  1  0
 12 13  2  0
 13 14  1  0
 14 15  1  0
 15 16  2  0
 15 17  1  0
 17 18  1  0
 18 19  2  0
 19 20  1  0
 20 21  2  0
 21 22  1  0
 22 23  2  0
 22 24  1  0
 24 25  1  0
 25 26  1  0
 14 27  2  0
 27 28  1  0
 28  4  1  0
 27 10  1  0
 23 18  1  0
 26 21  1  0
M  END
>  <smiles>  (129) 
C72204-P7

>  <fragmenstein_outcome>  (129) 
acceptable

>  <inchikey>  (129) 
DMPADBAOPIZLMT-UHFFFAOYSA-N

>  <fragmenstein_mode>  (129) 
expansion

>  <HIPPO Pose ID>  (129) 
1484

>  <Energy>  (129) 
32.757046

>  <fragmenstein_error>  (129) 


>  <tags>  (129) 
{'openbind_xx01zvns2b_c1_fragmenstein', 'fragmenstein_placed'}

>  <ref_pdb>  (129) 
1

>  <scratch_subdir>  (129) 
/opt/xchem-fragalysis-2/maxwin/BulkDock/SCRATCH/511027/C72204-P7

>  <alias>  (129) 
CNC[C@]1(NC(C)C)Nc2cccc(C(=O)Nc3ccc4c(c3)CNC4)c2N1

>  <HIPPO Compound ID>  (129) 
91205

>  <fragmenstein_runtime>  (129) 
7.126653

$$$$
C[C@@](CO)(CCc1ccccc1)N[C@H](N=O)c1cc(Cl)cc(C(=O)Nc2ccc3c(c2)CNC3)c1
     RDKit          3D

 35 38  0  0  0  0  0  0  0  0999 V2000
   -2.1212    4.8012  -19.5302 C   0  0  0  0  0  0  0  0  0  0  0  0
   -3.0638    5.9983  -19.2778 C   0  0  1  0  0  0  0  0  0  0  0  0
   -2.4016    7.0399  -18.3149 C   0  0  0  0  0  0  0  0  0  0  0  0
   -1.9969    6.5312  -17.0536 O   0  0  0  0  0  0  0  0  0  0  0  0
   -3.3189    6.7552  -20.6300 C   0  0  0  0  0  0  0  0  0  0  0  0
   -2.0830    7.3667  -21.3271 C   0  0  0  0  0  0  0  0  0  0  0  0
   -1.8631    6.8525  -22.7272 C   0  0  0  0  0  0  0  0  0  0  0  0
   -2.7588    7.1787  -23.7548 C   0  0  0  0  0  0  0  0  0  0  0  0
   -2.5632    6.6849  -25.0453 C   0  0  0  0  0  0  0  0  0  0  0  0
   -1.4699    5.8662  -25.3221 C   0  0  0  0  0  0  0  0  0  0  0  0
   -0.5706    5.5398  -24.3092 C   0  0  0  0  0  0  0  0  0  0  0  0
   -0.7645    6.0305  -23.0173 C   0  0  0  0  0  0  0  0  0  0  0  0
   -4.4083    5.4697  -18.8644 N   0  0  0  0  0  0  0  0  0  0  0  0
   -4.6261    5.2584  -17.4227 C   0  0  2  0  0  0  0  0  0  0  0  0
   -3.8635    4.0911  -16.8624 N   0  0  0  0  0  0  0  0  0  0  0  0
   -3.2462    4.3521  -15.8226 O   0  0  0  0  0  0  0  0  0  0  0  0
   -6.0856    5.0860  -16.9824 C   0  0  0  0  0  0  0  0  0  0  0  0
   -7.1317    4.5861  -17.7703 C   0  0  0  0  0  0  0  0  0  0  0  0
   -8.3959    4.3642  -17.1960 C   0  0  0  0  0  0  0  0  0  0  0  0
   -9.7095    3.8330  -18.1672 Cl  0  0  0  0  0  0  0  0  0  0  0  0
   -8.6402    4.6121  -15.8447 C   0  0  0  0  0  0  0  0  0  0  0  0
   -7.6253    5.1496  -15.0725 C   0  0  0  0  0  0  0  0  0  0  0  0
   -7.8366    5.5978  -13.6804 C   0  0  0  0  0  0  0  0  0  0  0  0
   -7.6776    6.7319  -13.4509 O   0  0  0  0  0  0  0  0  0  0  0  0
   -8.1456    4.4179  -12.7324 N   0  0  0  0  0  0  0  0  0  0  0  0
   -8.2270    4.3713  -11.3403 C   0  0  0  0  0  0  0  0  0  0  0  0
   -7.9945    5.5245  -10.5724 C   0  0  0  0  0  0  0  0  0  0  0  0
   -8.0448    5.4831   -9.1760 C   0  0  0  0  0  0  0  0  0  0  0  0
   -8.3252    4.2752   -8.5667 C   0  0  0  0  0  0  0  0  0  0  0  0
   -8.5551    3.1313   -9.3190 C   0  0  0  0  0  0  0  0  0  0  0  0
   -8.5135    3.1598  -10.7071 C   0  0  0  0  0  0  0  0  0  0  0  0
   -8.8381    1.9883   -8.4044 C   0  0  0  0  0  0  0  0  0  0  0  0
   -8.6674    2.5033   -7.0185 N   0  0  0  0  0  0  0  0  0  0  0  0
   -8.4716    3.9633   -7.1185 C   0  0  0  0  0  0  0  0  0  0  0  0
   -6.3697    5.3882  -15.6325 C   0  0  0  0  0  0  0  0  0  0  0  0
  2  1  1  6
  2  3  1  0
  3  4  1  0
  2  5  1  0
  5  6  1  0
  6  7  1  0
  7  8  2  0
  8  9  1  0
  9 10  2  0
 10 11  1  0
 11 12  2  0
  2 13  1  0
 14 13  1  6
 14 15  1  0
 15 16  2  0
 14 17  1  0
 17 18  2  0
 18 19  1  0
 19 20  1  0
 19 21  2  0
 21 22  1  0
 22 23  1  0
 23 24  2  0
 23 25  1  0
 25 26  1  0
 26 27  2  0
 27 28  1  0
 28 29  2  0
 29 30  1  0
 30 31  2  0
 30 32  1  0
 32 33  1  0
 33 34  1  0
 22 35  2  0
 12  7  1  0
 35 17  1  0
 31 26  1  0
 34 29  1  0
M  END
>  <smiles>  (130) 
C72321-P7

>  <fragmenstein_outcome>  (130) 
acceptable

>  <inchikey>  (130) 
OBBJFTPNTXUELU-UHFFFAOYSA-N

>  <fragmenstein_mode>  (130) 
expansion

>  <HIPPO Pose ID>  (130) 
1539

>  <Energy>  (130) 
105.143249

>  <fragmenstein_error>  (130) 


>  <tags>  (130) 
{'openbind_xx01zvns2b_c1_fragmenstein', 'fragmenstein_placed'}

>  <ref_pdb>  (130) 
1

>  <scratch_subdir>  (130) 
/opt/xchem-fragalysis-2/maxwin/BulkDock/SCRATCH/511027/C72321-P7

>  <alias>  (130) 
C[C@@](CO)(CCc1ccccc1)N[C@H](N=O)c1cc(Cl)cc(C(=O)Nc2ccc3c(c2)CNC3)c1

>  <HIPPO Compound ID>  (130) 
84338

>  <fragmenstein_runtime>  (130) 
123.944485

$$$$
CC(C)(CO)NC(=O)c1cc(Cl)cc(C(=O)Nc2cccc(CN)c2)c1
     RDKit          3D

 26 27  0  0  0  0  0  0  0  0999 V2000
   -3.6838    8.0215  -19.6205 C   0  0  0  0  0  0  0  0  0  0  0  0
   -3.1391    7.0881  -18.5329 C   0  0  0  0  0  0  0  0  0  0  0  0
   -2.2552    6.0068  -19.1834 C   0  0  0  0  0  0  0  0  0  0  0  0
   -2.3155    7.9023  -17.5136 C   0  0  0  0  0  0  0  0  0  0  0  0
   -1.7123    7.0510  -16.5426 O   0  0  0  0  0  0  0  0  0  0  0  0
   -4.2709    6.4600  -17.8510 N   0  0  0  0  0  0  0  0  0  0  0  0
   -4.9881    5.1324  -18.1264 C   0  0  0  0  0  0  0  0  0  0  0  0
   -4.7466    4.2903  -18.8893 O   0  0  0  0  0  0  0  0  0  0  0  0
   -6.1758    4.9498  -17.2510 C   0  0  0  0  0  0  0  0  0  0  0  0
   -7.3586    4.5184  -17.8527 C   0  0  0  0  0  0  0  0  0  0  0  0
   -8.4888    4.3048  -17.0702 C   0  0  0  0  0  0  0  0  0  0  0  0
   -9.9540    3.8661  -17.8405 Cl  0  0  0  0  0  0  0  0  0  0  0  0
   -8.4617    4.5088  -15.6910 C   0  0  0  0  0  0  0  0  0  0  0  0
   -7.2818    4.9551  -15.0965 C   0  0  0  0  0  0  0  0  0  0  0  0
   -7.2632    5.4092  -13.6836 C   0  0  0  0  0  0  0  0  0  0  0  0
   -6.8114    6.4703  -13.4884 O   0  0  0  0  0  0  0  0  0  0  0  0
   -7.8922    4.3888  -12.7009 N   0  0  0  0  0  0  0  0  0  0  0  0
   -8.0056    4.4213  -11.3078 C   0  0  0  0  0  0  0  0  0  0  0  0
   -7.7532    5.6067  -10.6178 C   0  0  0  0  0  0  0  0  0  0  0  0
   -7.8667    5.6562   -9.2310 C   0  0  0  0  0  0  0  0  0  0  0  0
   -8.2165    4.5128   -8.5211 C   0  0  0  0  0  0  0  0  0  0  0  0
   -8.4609    3.3017   -9.1837 C   0  0  0  0  0  0  0  0  0  0  0  0
   -8.8298    2.0451   -8.4238 C   0  0  0  0  0  0  0  0  0  0  0  0
   -8.7213    2.1836   -6.9686 N   0  0  0  0  0  0  0  0  0  0  0  0
   -8.3713    3.2746  -10.5923 C   0  0  0  0  0  0  0  0  0  0  0  0
   -6.1316    5.1712  -15.8718 C   0  0  0  0  0  0  0  0  0  0  0  0
  1  2  1  0
  2  3  1  0
  2  4  1  0
  4  5  1  0
  2  6  1  0
  6  7  1  0
  7  8  2  0
  7  9  1  0
  9 10  2  0
 10 11  1  0
 11 12  1  0
 11 13  2  0
 13 14  1  0
 14 15  1  0
 15 16  2  0
 15 17  1  0
 17 18  1  0
 18 19  2  0
 19 20  1  0
 20 21  2  0
 21 22  1  0
 22 23  1  0
 23 24  1  0
 22 25  2  0
 14 26  2  0
 26  9  1  0
 25 18  1  0
M  END
>  <smiles>  (131) 
C72322-P7

>  <fragmenstein_outcome>  (131) 
acceptable

>  <inchikey>  (131) 
WTBRUNVPPHXFEJ-UHFFFAOYSA-N

>  <fragmenstein_mode>  (131) 
expansion

>  <HIPPO Pose ID>  (131) 
1540

>  <Energy>  (131) 
58.61153

>  <fragmenstein_error>  (131) 


>  <tags>  (131) 
{'openbind_xx01zvns2b_c1_fragmenstein', 'fragmenstein_placed'}

>  <ref_pdb>  (131) 
1

>  <scratch_subdir>  (131) 
/opt/xchem-fragalysis-2/maxwin/BulkDock/SCRATCH/511027/C72322-P7

>  <alias>  (131) 
CC(C)(CO)NC(=O)c1cc(Cl)cc(C(=O)Nc2cccc(CN)c2)c1

>  <HIPPO Compound ID>  (131) 
72322

>  <fragmenstein_runtime>  (131) 
7.181616

$$$$
CC(C)NC(=O)[C@H](Nc1ccc2c(c1)CNC2)c1cc(Cl)cc2c1cnn2OCNC(C)(C)CO
     RDKit          3D

 35 38  0  0  0  0  0  0  0  0999 V2000
   -3.4190    1.9669  -12.0871 C   0  0  0  0  0  0  0  0  0  0  0  0
   -4.6262    2.2955  -11.2151 C   0  0  0  0  0  0  0  0  0  0  0  0
   -4.1956    2.9398   -9.9043 C   0  0  0  0  0  0  0  0  0  0  0  0
   -5.5358    3.1575  -11.9339 N   0  0  0  0  0  0  0  0  0  0  0  0
   -6.5516    2.8330  -13.0710 C   0  0  0  0  0  0  0  0  0  0  0  0
   -6.7487    1.8350  -13.6484 O   0  0  0  0  0  0  0  0  0  0  0  0
   -7.3408    4.1744  -13.3739 C   0  0  2  0  0  0  0  0  0  0  0  0
   -8.6629    4.1562  -12.7245 N   0  0  0  0  0  0  0  0  0  0  0  0
   -8.5627    4.1353  -11.3113 C   0  0  0  0  0  0  0  0  0  0  0  0
   -8.7602    2.9247  -10.6225 C   0  0  0  0  0  0  0  0  0  0  0  0
   -8.6520    2.8401   -9.2356 C   0  0  0  0  0  0  0  0  0  0  0  0
   -8.3703    3.9970   -8.5435 C   0  0  0  0  0  0  0  0  0  0  0  0
   -8.1558    5.2019   -9.2083 C   0  0  0  0  0  0  0  0  0  0  0  0
   -8.2244    5.2868  -10.5911 C   0  0  0  0  0  0  0  0  0  0  0  0
   -7.8766    6.2627   -8.1992 C   0  0  0  0  0  0  0  0  0  0  0  0
   -8.2738    5.6821   -6.8878 N   0  0  0  0  0  0  0  0  0  0  0  0
   -8.2425    4.2029   -7.0747 C   0  0  0  0  0  0  0  0  0  0  0  0
   -7.4562    4.4444  -14.8705 C   0  0  0  0  0  0  0  0  0  0  0  0
   -8.6225    4.1848  -15.6309 C   0  0  0  0  0  0  0  0  0  0  0  0
   -8.6836    4.3765  -17.0130 C   0  0  0  0  0  0  0  0  0  0  0  0
  -10.1229    4.0160  -17.8807 Cl  0  0  0  0  0  0  0  0  0  0  0  0
   -7.6046    4.8917  -17.7142 C   0  0  0  0  0  0  0  0  0  0  0  0
   -6.4769    5.2073  -16.9575 C   0  0  0  0  0  0  0  0  0  0  0  0
   -6.3699    4.9831  -15.5903 C   0  0  0  0  0  0  0  0  0  0  0  0
   -5.0581    5.4078  -15.2636 C   0  0  0  0  0  0  0  0  0  0  0  0
   -4.3996    5.8968  -16.3126 N   0  0  0  0  0  0  0  0  0  0  0  0
   -5.2811    5.7549  -17.3072 N   0  0  0  0  0  0  0  0  0  0  0  0
   -4.9302    6.1901  -18.5680 O   0  0  0  0  0  0  0  0  0  0  0  0
   -4.5567    5.0426  -19.3021 C   0  0  0  0  0  0  0  0  0  0  0  0
   -3.5718    5.3904  -20.3061 N   0  0  0  0  0  0  0  0  0  0  0  0
   -2.2068    5.6783  -19.8368 C   0  0  0  0  0  0  0  0  0  0  0  0
   -2.1136    6.9021  -18.9141 C   0  0  0  0  0  0  0  0  0  0  0  0
   -1.6047    4.4458  -19.1526 C   0  0  0  0  0  0  0  0  0  0  0  0
   -1.3663    6.0134  -21.1022 C   0  0  0  0  0  0  0  0  0  0  0  0
   -1.3133    4.9262  -22.0226 O   0  0  0  0  0  0  0  0  0  0  0  0
  1  2  1  0
  2  3  1  0
  2  4  1  0
  4  5  1  0
  5  6  2  0
  5  7  1  0
  7  8  1  6
  8  9  1  0
  9 10  2  0
 10 11  1  0
 11 12  2  0
 12 13  1  0
 13 14  2  0
 13 15  1  0
 15 16  1  0
 16 17  1  0
  7 18  1  0
 18 19  2  0
 19 20  1  0
 20 21  1  0
 20 22  2  0
 22 23  1  0
 23 24  2  0
 24 25  1  0
 25 26  2  0
 26 27  1  0
 27 28  1  0
 28 29  1  0
 29 30  1  0
 30 31  1  0
 31 32  1  0
 31 33  1  0
 31 34  1  0
 34 35  1  0
 14  9  1  0
 24 18  1  0
 17 12  1  0
 27 23  1  0
M  END
>  <smiles>  (132) 
C72327-P7

>  <fragmenstein_outcome>  (132) 
acceptable

>  <inchikey>  (132) 
AIHRJAGSAUDYNP-UHFFFAOYSA-N

>  <fragmenstein_mode>  (132) 
expansion

>  <HIPPO Pose ID>  (132) 
1544

>  <Energy>  (132) 
90.45204

>  <fragmenstein_error>  (132) 


>  <tags>  (132) 
{'openbind_xx01zvns2b_c1_fragmenstein', 'fragmenstein_placed'}

>  <ref_pdb>  (132) 
1

>  <scratch_subdir>  (132) 
/opt/xchem-fragalysis-2/maxwin/BulkDock/SCRATCH/511027/C72327-P7

>  <alias>  (132) 
CC(C)NC(=O)[C@H](Nc1ccc2c(c1)CNC2)c1cc(Cl)cc2c1cnn2OCNC(C)(C)CO

>  <HIPPO Compound ID>  (132) 
73931

>  <fragmenstein_runtime>  (132) 
11.862242

$$$$
CC(C)(CO)Nc1[nH]c(N)c2c(C(=O)Nc3ccc4c(c3)CNC4)cc(Cl)cc12
     RDKit          3D

 29 32  0  0  0  0  0  0  0  0999 V2000
   -8.0337    3.0569  -10.9695 C   0  0  0  0  0  0  0  0  0  0  0  0
   -7.2350    4.0915  -11.7871 C   0  0  0  0  0  0  0  0  0  0  0  0
   -7.7741    5.4934  -11.4720 C   0  0  0  0  0  0  0  0  0  0  0  0
   -5.7409    3.9265  -11.3781 C   0  0  0  0  0  0  0  0  0  0  0  0
   -4.9230    5.0640  -11.6923 O   0  0  0  0  0  0  0  0  0  0  0  0
   -7.4805    3.7768  -13.2067 N   0  0  0  0  0  0  0  0  0  0  0  0
   -6.9554    4.4082  -14.2878 C   0  0  0  0  0  0  0  0  0  0  0  0
   -5.7440    5.0662  -14.2668 N   0  0  0  0  0  0  0  0  0  0  0  0
   -5.4278    5.5806  -15.5050 C   0  0  0  0  0  0  0  0  0  0  0  0
   -4.2959    6.2977  -15.6738 N   0  0  0  0  0  0  0  0  0  0  0  0
   -6.4336    5.1988  -16.3594 C   0  0  0  0  0  0  0  0  0  0  0  0
   -6.5631    5.4414  -17.7285 C   0  0  0  0  0  0  0  0  0  0  0  0
   -5.7034    6.3451  -18.5101 C   0  0  0  0  0  0  0  0  0  0  0  0
   -5.4722    7.4095  -18.0881 O   0  0  0  0  0  0  0  0  0  0  0  0
   -5.2506    5.6687  -19.8204 N   0  0  0  0  0  0  0  0  0  0  0  0
   -4.3751    6.1056  -20.8051 C   0  0  0  0  0  0  0  0  0  0  0  0
   -3.7573    7.3649  -20.6996 C   0  0  0  0  0  0  0  0  0  0  0  0
   -2.7735    7.7621  -21.6056 C   0  0  0  0  0  0  0  0  0  0  0  0
   -2.4155    6.8683  -22.5919 C   0  0  0  0  0  0  0  0  0  0  0  0
   -3.0618    5.6381  -22.7255 C   0  0  0  0  0  0  0  0  0  0  0  0
   -4.0617    5.2430  -21.8562 C   0  0  0  0  0  0  0  0  0  0  0  0
   -2.4099    4.8892  -23.8363 C   0  0  0  0  0  0  0  0  0  0  0  0
   -1.1069    5.5657  -24.0612 N   0  0  0  0  0  0  0  0  0  0  0  0
   -1.3248    6.9644  -23.6058 C   0  0  0  0  0  0  0  0  0  0  0  0
   -7.7350    4.8540  -18.2542 C   0  0  0  0  0  0  0  0  0  0  0  0
   -8.7124    4.1833  -17.4575 C   0  0  0  0  0  0  0  0  0  0  0  0
  -10.1718    3.7029  -18.2420 Cl  0  0  0  0  0  0  0  0  0  0  0  0
   -8.5970    3.9746  -16.0735 C   0  0  0  0  0  0  0  0  0  0  0  0
   -7.4001    4.4858  -15.5860 C   0  0  0  0  0  0  0  0  0  0  0  0
  1  2  1  0
  2  3  1  0
  2  4  1  0
  4  5  1  0
  2  6  1  0
  6  7  1  0
  7  8  1  0
  8  9  1  0
  9 10  1  0
  9 11  2  0
 11 12  1  0
 12 13  1  0
 13 14  2  0
 13 15  1  0
 15 16  1  0
 16 17  2  0
 17 18  1  0
 18 19  2  0
 19 20  1  0
 20 21  2  0
 20 22  1  0
 22 23  1  0
 23 24  1  0
 12 25  2  0
 25 26  1  0
 26 27  1  0
 26 28  2  0
 28 29  1  0
 29  7  2  0
 29 11  1  0
 21 16  1  0
 24 19  1  0
M  END
>  <smiles>  (133) 
C72343-P8

>  <fragmenstein_outcome>  (133) 
acceptable

>  <inchikey>  (133) 
RRMITXXWEDYZMZ-UHFFFAOYSA-N

>  <fragmenstein_mode>  (133) 
expansion

>  <HIPPO Pose ID>  (133) 
1555

>  <Energy>  (133) 
98.137437

>  <fragmenstein_error>  (133) 


>  <tags>  (133) 
{'openbind_xx01zvns2b_c1_fragmenstein', 'fragmenstein_placed'}

>  <ref_pdb>  (133) 
1

>  <scratch_subdir>  (133) 
/opt/xchem-fragalysis-2/maxwin/BulkDock/SCRATCH/511027/C72343-P8

>  <alias>  (133) 
CC(C)(CO)Nc1[nH]c(N)c2c(C(=O)Nc3ccc4c(c3)CNC4)cc(Cl)cc12

>  <HIPPO Compound ID>  (133) 
72343

>  <fragmenstein_runtime>  (133) 
8.032711

$$$$
CC(C)(CO)Nc1[nH]nc2c(C(=O)Nc3ccc4c(c3)CNC4)cc(Cl)cc12
     RDKit          3D

 28 31  0  0  0  0  0  0  0  0999 V2000
   -2.8462    4.9431  -20.0806 C   0  0  0  0  0  0  0  0  0  0  0  0
   -4.1513    5.5088  -20.6628 C   0  0  0  0  0  0  0  0  0  0  0  0
   -4.1418    7.0436  -20.6257 C   0  0  0  0  0  0  0  0  0  0  0  0
   -4.2284    5.0204  -22.1448 C   0  0  0  0  0  0  0  0  0  0  0  0
   -5.2908    5.6245  -22.8806 O   0  0  0  0  0  0  0  0  0  0  0  0
   -5.3458    4.9916  -19.9655 N   0  0  0  0  0  0  0  0  0  0  0  0
   -5.6613    5.0844  -18.6457 C   0  0  0  0  0  0  0  0  0  0  0  0
   -4.8529    5.5926  -17.6649 N   0  0  0  0  0  0  0  0  0  0  0  0
   -5.3679    5.5605  -16.4299 N   0  0  0  0  0  0  0  0  0  0  0  0
   -6.6083    5.0685  -16.5838 C   0  0  0  0  0  0  0  0  0  0  0  0
   -7.6451    4.8671  -15.6543 C   0  0  0  0  0  0  0  0  0  0  0  0
   -7.5683    5.4262  -14.2968 C   0  0  0  0  0  0  0  0  0  0  0  0
   -7.2246    6.5348  -14.1830 O   0  0  0  0  0  0  0  0  0  0  0  0
   -8.0084    4.4024  -13.2321 N   0  0  0  0  0  0  0  0  0  0  0  0
   -8.0271    4.4936  -11.8453 C   0  0  0  0  0  0  0  0  0  0  0  0
   -8.2733    3.3421  -11.0883 C   0  0  0  0  0  0  0  0  0  0  0  0
   -8.2426    3.3909   -9.6920 C   0  0  0  0  0  0  0  0  0  0  0  0
   -7.9807    4.6005   -9.0792 C   0  0  0  0  0  0  0  0  0  0  0  0
   -7.7550    5.7474   -9.8306 C   0  0  0  0  0  0  0  0  0  0  0  0
   -7.7708    5.7136  -11.2139 C   0  0  0  0  0  0  0  0  0  0  0  0
   -7.4681    6.8863   -8.9130 C   0  0  0  0  0  0  0  0  0  0  0  0
   -7.8587    6.4137   -7.5547 N   0  0  0  0  0  0  0  0  0  0  0  0
   -7.8635    4.9271   -7.6317 C   0  0  0  0  0  0  0  0  0  0  0  0
   -8.8312    4.3271  -16.1944 C   0  0  0  0  0  0  0  0  0  0  0  0
   -8.9939    4.0713  -17.5865 C   0  0  0  0  0  0  0  0  0  0  0  0
  -10.5694    3.6718  -18.1570 Cl  0  0  0  0  0  0  0  0  0  0  0  0
   -7.9806    4.2390  -18.5460 C   0  0  0  0  0  0  0  0  0  0  0  0
   -6.8129    4.7438  -17.9757 C   0  0  0  0  0  0  0  0  0  0  0  0
  1  2  1  0
  2  3  1  0
  2  4  1  0
  4  5  1  0
  2  6  1  0
  6  7  1  0
  7  8  1  0
  8  9  1  0
  9 10  2  0
 10 11  1  0
 11 12  1  0
 12 13  2  0
 12 14  1  0
 14 15  1  0
 15 16  2  0
 16 17  1  0
 17 18  2  0
 18 19  1  0
 19 20  2  0
 19 21  1  0
 21 22  1  0
 22 23  1  0
 11 24  2  0
 24 25  1  0
 25 26  1  0
 25 27  2  0
 27 28  1  0
 28  7  2  0
 28 10  1  0
 20 15  1  0
 23 18  1  0
M  END
>  <smiles>  (134) 
C20615-P8

>  <fragmenstein_outcome>  (134) 
acceptable

>  <inchikey>  (134) 
SXWQUIJPMLGARZ-UHFFFAOYSA-N

>  <fragmenstein_mode>  (134) 
expansion

>  <HIPPO Pose ID>  (134) 
1571

>  <Energy>  (134) 
120.869116

>  <fragmenstein_error>  (134) 


>  <tags>  (134) 
{'openbind_xx01zvns2b_c1_fragmenstein', 'fragmenstein_placed'}

>  <ref_pdb>  (134) 
1

>  <scratch_subdir>  (134) 
/opt/xchem-fragalysis-2/maxwin/BulkDock/SCRATCH/511027/C20615-P8

>  <alias>  (134) 
CC(C)(CO)Nc1[nH]nc2c(C(=O)Nc3ccc4c(c3)CNC4)cc(Cl)cc12

>  <HIPPO Compound ID>  (134) 
20615

>  <fragmenstein_runtime>  (134) 
14.573624

$$$$
CC(C)(CO)NC(O)(O)c1cc(Cl)cc([C@@H](Nc2ccc3c(c2)CNC3)C(=O)NCC(F)F)c1
     RDKit          3D

 34 36  0  0  0  0  0  0  0  0999 V2000
   -4.0851    7.0230  -21.0153 C   0  0  0  0  0  0  0  0  0  0  0  0
   -4.0608    5.4888  -20.8238 C   0  0  0  0  0  0  0  0  0  0  0  0
   -2.6649    5.0695  -20.3336 C   0  0  0  0  0  0  0  0  0  0  0  0
   -4.2480    4.8325  -22.2215 C   0  0  0  0  0  0  0  0  0  0  0  0
   -5.4173    5.3099  -22.8770 O   0  0  0  0  0  0  0  0  0  0  0  0
   -5.2000    5.0289  -19.9846 N   0  0  0  0  0  0  0  0  0  0  0  0
   -5.0977    5.1658  -18.5547 C   0  0  0  0  0  0  0  0  0  0  0  0
   -4.0976    4.3267  -18.0380 O   0  0  0  0  0  0  0  0  0  0  0  0
   -4.7213    6.4903  -18.2553 O   0  0  0  0  0  0  0  0  0  0  0  0
   -6.3657    4.8153  -17.7759 C   0  0  0  0  0  0  0  0  0  0  0  0
   -7.5727    4.4065  -18.3462 C   0  0  0  0  0  0  0  0  0  0  0  0
   -8.6933    4.1809  -17.5421 C   0  0  0  0  0  0  0  0  0  0  0  0
  -10.1921    3.7833  -18.2804 Cl  0  0  0  0  0  0  0  0  0  0  0  0
   -8.6426    4.3673  -16.1588 C   0  0  0  0  0  0  0  0  0  0  0  0
   -7.4593    4.7820  -15.5459 C   0  0  0  0  0  0  0  0  0  0  0  0
   -7.4257    5.1944  -14.0694 C   0  0  1  0  0  0  0  0  0  0  0  0
   -8.1407    4.2352  -13.2326 N   0  0  0  0  0  0  0  0  0  0  0  0
   -8.1010    4.4206  -11.8382 C   0  0  0  0  0  0  0  0  0  0  0  0
   -8.1913    3.2778  -11.0183 C   0  0  0  0  0  0  0  0  0  0  0  0
   -8.1420    3.3607   -9.6252 C   0  0  0  0  0  0  0  0  0  0  0  0
   -8.0219    4.6090   -9.0547 C   0  0  0  0  0  0  0  0  0  0  0  0
   -7.9974    5.7565   -9.8396 C   0  0  0  0  0  0  0  0  0  0  0  0
   -8.0645    5.6829  -11.2239 C   0  0  0  0  0  0  0  0  0  0  0  0
   -7.9339    6.9472   -8.9443 C   0  0  0  0  0  0  0  0  0  0  0  0
   -7.5535    6.4189   -7.6035 N   0  0  0  0  0  0  0  0  0  0  0  0
   -7.9470    4.9814   -7.6167 C   0  0  0  0  0  0  0  0  0  0  0  0
   -5.9362    5.4539  -13.6001 C   0  0  0  0  0  0  0  0  0  0  0  0
   -5.2248    4.6195  -13.1916 O   0  0  0  0  0  0  0  0  0  0  0  0
   -5.6572    6.9625  -13.9050 N   0  0  0  0  0  0  0  0  0  0  0  0
   -4.4244    7.7168  -13.8576 C   0  0  0  0  0  0  0  0  0  0  0  0
   -3.7556    7.7384  -15.2341 C   0  0  0  0  0  0  0  0  0  0  0  0
   -3.4616    6.4762  -15.6407 F   0  0  0  0  0  0  0  0  0  0  0  0
   -4.6430    8.2200  -16.1559 F   0  0  0  0  0  0  0  0  0  0  0  0
   -6.3328    4.9413  -16.3710 C   0  0  0  0  0  0  0  0  0  0  0  0
  1  2  1  0
  2  3  1  0
  2  4  1  0
  4  5  1  0
  2  6  1  0
  6  7  1  0
  7  8  1  0
  7  9  1  0
  7 10  1  0
 10 11  2  0
 11 12  1  0
 12 13  1  0
 12 14  2  0
 14 15  1  0
 15 16  1  0
 16 17  1  1
 17 18  1  0
 18 19  2  0
 19 20  1  0
 20 21  2  0
 21 22  1  0
 22 23  2  0
 22 24  1  0
 24 25  1  0
 25 26  1  0
 16 27  1  0
 27 28  2  0
 27 29  1  0
 29 30  1  0
 30 31  1  0
 31 32  1  0
 31 33  1  0
 15 34  2  0
 34 10  1  0
 23 18  1  0
 26 21  1  0
M  END
>  <smiles>  (135) 
C72373-P8

>  <fragmenstein_outcome>  (135) 
acceptable

>  <inchikey>  (135) 
SROYEIODNXZBCT-UHFFFAOYSA-N

>  <fragmenstein_mode>  (135) 
expansion

>  <HIPPO Pose ID>  (135) 
1574

>  <Energy>  (135) 
37.719919

>  <fragmenstein_error>  (135) 


>  <tags>  (135) 
{'openbind_xx01zvns2b_c1_fragmenstein', 'fragmenstein_placed'}

>  <ref_pdb>  (135) 
1

>  <scratch_subdir>  (135) 
/opt/xchem-fragalysis-2/maxwin/BulkDock/SCRATCH/511027/C72373-P8

>  <alias>  (135) 
CC(C)(CO)NC(O)(O)c1cc(Cl)cc([C@@H](Nc2ccc3c(c2)CNC3)C(=O)NCC(F)F)c1

>  <HIPPO Compound ID>  (135) 
96335

>  <fragmenstein_runtime>  (135) 
11.793398

$$$$
CC(C)(CO)NNc1cccc2c([C@@H](Nc3ccc4c(c3)CNC4)C(=O)NCC(F)F)cc(Cl)cc12
     RDKit          3D

 36 39  0  0  0  0  0  0  0  0999 V2000
   -3.9413    4.6924  -22.5028 C   0  0  0  0  0  0  0  0  0  0  0  0
   -3.8319    5.5086  -21.2082 C   0  0  0  0  0  0  0  0  0  0  0  0
   -3.9899    6.9984  -21.5717 C   0  0  0  0  0  0  0  0  0  0  0  0
   -2.4481    5.2826  -20.5589 C   0  0  0  0  0  0  0  0  0  0  0  0
   -2.2748    3.9210  -20.1650 O   0  0  0  0  0  0  0  0  0  0  0  0
   -4.8778    4.9471  -20.3378 N   0  0  0  0  0  0  0  0  0  0  0  0
   -5.6347    5.9432  -19.7112 N   0  0  0  0  0  0  0  0  0  0  0  0
   -5.4993    5.9838  -18.2999 C   0  0  0  0  0  0  0  0  0  0  0  0
   -4.3903    6.6667  -17.7898 C   0  0  0  0  0  0  0  0  0  0  0  0
   -4.2274    6.8305  -16.4315 C   0  0  0  0  0  0  0  0  0  0  0  0
   -5.1639    6.2783  -15.5672 C   0  0  0  0  0  0  0  0  0  0  0  0
   -6.2492    5.4849  -16.0087 C   0  0  0  0  0  0  0  0  0  0  0  0
   -7.2052    4.8867  -15.1243 C   0  0  0  0  0  0  0  0  0  0  0  0
   -7.1000    5.0415  -13.5831 C   0  0  1  0  0  0  0  0  0  0  0  0
   -8.1595    4.2695  -12.8880 N   0  0  0  0  0  0  0  0  0  0  0  0
   -8.1238    4.2982  -11.4757 C   0  0  0  0  0  0  0  0  0  0  0  0
   -8.3940    3.0942  -10.8024 C   0  0  0  0  0  0  0  0  0  0  0  0
   -8.4038    3.0169   -9.4087 C   0  0  0  0  0  0  0  0  0  0  0  0
   -8.1679    4.1732   -8.6962 C   0  0  0  0  0  0  0  0  0  0  0  0
   -7.9466    5.3826   -9.3458 C   0  0  0  0  0  0  0  0  0  0  0  0
   -7.9401    5.4692  -10.7300 C   0  0  0  0  0  0  0  0  0  0  0  0
   -7.7700    6.4560   -8.3260 C   0  0  0  0  0  0  0  0  0  0  0  0
   -7.5673    5.7487   -7.0313 N   0  0  0  0  0  0  0  0  0  0  0  0
   -8.1449    4.3870   -7.2225 C   0  0  0  0  0  0  0  0  0  0  0  0
   -5.6923    4.6301  -12.9832 C   0  0  0  0  0  0  0  0  0  0  0  0
   -4.9100    5.4257  -12.6349 O   0  0  0  0  0  0  0  0  0  0  0  0
   -5.6081    3.0832  -13.0076 N   0  0  0  0  0  0  0  0  0  0  0  0
   -4.5798    2.1907  -12.5194 C   0  0  0  0  0  0  0  0  0  0  0  0
   -3.3818    2.0962  -13.4565 C   0  0  0  0  0  0  0  0  0  0  0  0
   -2.7188    3.2803  -13.5126 F   0  0  0  0  0  0  0  0  0  0  0  0
   -2.4794    1.1869  -13.0077 F   0  0  0  0  0  0  0  0  0  0  0  0
   -8.3335    4.2570  -15.7048 C   0  0  0  0  0  0  0  0  0  0  0  0
   -8.4918    4.1735  -17.0844 C   0  0  0  0  0  0  0  0  0  0  0  0
   -9.9532    3.6173  -17.7971 Cl  0  0  0  0  0  0  0  0  0  0  0  0
   -7.5102    4.6495  -17.9278 C   0  0  0  0  0  0  0  0  0  0  0  0
   -6.4075    5.3485  -17.4216 C   0  0  0  0  0  0  0  0  0  0  0  0
  1  2  1  0
  2  3  1  0
  2  4  1  0
  4  5  1  0
  2  6  1  0
  6  7  1  0
  7  8  1  0
  8  9  2  0
  9 10  1  0
 10 11  2  0
 11 12  1  0
 12 13  2  0
 13 14  1  0
 14 15  1  1
 15 16  1  0
 16 17  2  0
 17 18  1  0
 18 19  2  0
 19 20  1  0
 20 21  2  0
 20 22  1  0
 22 23  1  0
 23 24  1  0
 14 25  1  0
 25 26  2  0
 25 27  1  0
 27 28  1  0
 28 29  1  0
 29 30  1  0
 29 31  1  0
 13 32  1  0
 32 33  2  0
 33 34  1  0
 33 35  1  0
 35 36  2  0
 36  8  1  0
 36 12  1  0
 21 16  1  0
 24 19  1  0
M  END
>  <smiles>  (136) 
C72376-P8

>  <fragmenstein_outcome>  (136) 
acceptable

>  <inchikey>  (136) 
LVRUSGVTOMMEBP-UHFFFAOYSA-N

>  <fragmenstein_mode>  (136) 
expansion

>  <HIPPO Pose ID>  (136) 
1576

>  <Energy>  (136) 
213.237685

>  <fragmenstein_error>  (136) 


>  <tags>  (136) 
{'openbind_xx01zvns2b_c1_fragmenstein', 'fragmenstein_placed'}

>  <ref_pdb>  (136) 
1

>  <scratch_subdir>  (136) 
/opt/xchem-fragalysis-2/maxwin/BulkDock/SCRATCH/511027/C72376-P8

>  <alias>  (136) 
CC(C)(CO)NNc1cccc2c([C@@H](Nc3ccc4c(c3)CNC4)C(=O)NCC(F)F)cc(Cl)cc12

>  <HIPPO Compound ID>  (136) 
104614

>  <fragmenstein_runtime>  (136) 
15.467389

$$$$
C[C@@H](NC(C)(C)CO)c1cc(Cl)cc([C@H](Nc2cnc3c(c2)CNC3)C(=O)NCC(F)F)c1
     RDKit          3D

 33 35  0  0  0  0  0  0  0  0999 V2000
   -3.8407    4.3667  -17.7704 C   0  0  0  0  0  0  0  0  0  0  0  0
   -4.9613    5.2396  -18.3637 C   0  0  1  0  0  0  0  0  0  0  0  0
   -5.0981    5.0659  -19.8221 N   0  0  0  0  0  0  0  0  0  0  0  0
   -4.0424    5.6228  -20.7108 C   0  0  0  0  0  0  0  0  0  0  0  0
   -4.1842    7.1551  -20.7837 C   0  0  0  0  0  0  0  0  0  0  0  0
   -2.5954    5.2773  -20.3286 C   0  0  0  0  0  0  0  0  0  0  0  0
   -4.2568    5.0149  -22.1313 C   0  0  0  0  0  0  0  0  0  0  0  0
   -5.4650    5.4502  -22.7382 O   0  0  0  0  0  0  0  0  0  0  0  0
   -6.2533    4.9569  -17.5842 C   0  0  0  0  0  0  0  0  0  0  0  0
   -7.4285    4.4553  -18.1525 C   0  0  0  0  0  0  0  0  0  0  0  0
   -8.5556    4.2294  -17.3588 C   0  0  0  0  0  0  0  0  0  0  0  0
  -10.0279    3.7479  -18.1151 Cl  0  0  0  0  0  0  0  0  0  0  0  0
   -8.5249    4.4562  -15.9781 C   0  0  0  0  0  0  0  0  0  0  0  0
   -7.3662    4.9511  -15.3693 C   0  0  0  0  0  0  0  0  0  0  0  0
   -7.2429    5.2852  -13.8820 C   0  0  2  0  0  0  0  0  0  0  0  0
   -8.2331    4.5432  -13.0561 N   0  0  0  0  0  0  0  0  0  0  0  0
   -7.9844    4.4604  -11.6597 C   0  0  0  0  0  0  0  0  0  0  0  0
   -7.4263    5.4953  -10.8770 C   0  0  0  0  0  0  0  0  0  0  0  0
   -7.3558    5.5399   -9.5216 N   0  0  0  0  0  0  0  0  0  0  0  0
   -7.8554    4.4623   -8.9116 C   0  0  0  0  0  0  0  0  0  0  0  0
   -8.3900    3.3681   -9.5629 C   0  0  0  0  0  0  0  0  0  0  0  0
   -8.4794    3.3629  -10.9466 C   0  0  0  0  0  0  0  0  0  0  0  0
   -8.7786    2.3394   -8.5566 C   0  0  0  0  0  0  0  0  0  0  0  0
   -8.8227    3.0543   -7.2482 N   0  0  0  0  0  0  0  0  0  0  0  0
   -7.9341    4.2339   -7.4284 C   0  0  0  0  0  0  0  0  0  0  0  0
   -7.3209    6.8534  -13.6920 C   0  0  0  0  0  0  0  0  0  0  0  0
   -6.4451    7.5655  -14.0000 O   0  0  0  0  0  0  0  0  0  0  0  0
   -8.7140    7.1762  -13.0803 N   0  0  0  0  0  0  0  0  0  0  0  0
   -9.2785    8.4384  -12.6327 C   0  0  0  0  0  0  0  0  0  0  0  0
   -8.3507    9.6511  -12.6919 C   0  0  0  0  0  0  0  0  0  0  0  0
   -8.9123   10.6788  -12.0003 F   0  0  0  0  0  0  0  0  0  0  0  0
   -8.2278   10.0888  -13.9719 F   0  0  0  0  0  0  0  0  0  0  0  0
   -6.2582    5.2159  -16.1963 C   0  0  0  0  0  0  0  0  0  0  0  0
  2  1  1  1
  2  3  1  0
  3  4  1  0
  4  5  1  0
  4  6  1  0
  4  7  1  0
  7  8  1  0
  2  9  1  0
  9 10  2  0
 10 11  1  0
 11 12  1  0
 11 13  2  0
 13 14  1  0
 14 15  1  0
 15 16  1  1
 16 17  1  0
 17 18  2  0
 18 19  1  0
 19 20  2  0
 20 21  1  0
 21 22  2  0
 21 23  1  0
 23 24  1  0
 24 25  1  0
 15 26  1  0
 26 27  2  0
 26 28  1  0
 28 29  1  0
 29 30  1  0
 30 31  1  0
 30 32  1  0
 14 33  2  0
 33  9  1  0
 22 17  1  0
 25 20  1  0
M  END
>  <smiles>  (137) 
C72377-P8

>  <fragmenstein_outcome>  (137) 
acceptable

>  <inchikey>  (137) 
XTINTFARSCATSM-UHFFFAOYSA-N

>  <fragmenstein_mode>  (137) 
expansion

>  <HIPPO Pose ID>  (137) 
1577

>  <Energy>  (137) 
197.480127

>  <fragmenstein_error>  (137) 


>  <tags>  (137) 
{'openbind_xx01zvns2b_c1_fragmenstein', 'fragmenstein_placed'}

>  <ref_pdb>  (137) 
1

>  <scratch_subdir>  (137) 
/opt/xchem-fragalysis-2/maxwin/BulkDock/SCRATCH/511027/C72377-P8

>  <alias>  (137) 
C[C@@H](NC(C)(C)CO)c1cc(Cl)cc([C@H](Nc2cnc3c(c2)CNC3)C(=O)NCC(F)F)c1

>  <HIPPO Compound ID>  (137) 
72514

>  <fragmenstein_runtime>  (137) 
15.871842

$$$$
CC(C)(CO)NN[C@H](O)Cc1cc(Cl)cc(C(=O)N[C@H]2CCN(c3ccccn3)C2)c1
     RDKit          3D

 31 33  0  0  0  0  0  0  0  0999 V2000
   -8.3660    9.7276   -9.7946 C   0  0  0  0  0  0  0  0  0  0  0  0
   -7.8009    8.3311  -10.1218 C   0  0  0  0  0  0  0  0  0  0  0  0
   -6.3288    8.2836   -9.6717 C   0  0  0  0  0  0  0  0  0  0  0  0
   -8.6547    7.2832   -9.3564 C   0  0  0  0  0  0  0  0  0  0  0  0
   -8.1873    5.9462   -9.5677 O   0  0  0  0  0  0  0  0  0  0  0  0
   -7.9245    8.1743  -11.6034 N   0  0  0  0  0  0  0  0  0  0  0  0
   -7.3636    6.8870  -12.0384 N   0  0  0  0  0  0  0  0  0  0  0  0
   -7.8630    6.5492  -13.3703 C   0  0  2  0  0  0  0  0  0  0  0  0
   -9.2789    6.6337  -13.3430 O   0  0  0  0  0  0  0  0  0  0  0  0
   -7.4270    5.1375  -13.7985 C   0  0  0  0  0  0  0  0  0  0  0  0
   -7.4135    4.9971  -15.3028 C   0  0  0  0  0  0  0  0  0  0  0  0
   -8.4864    4.4055  -15.9729 C   0  0  0  0  0  0  0  0  0  0  0  0
   -8.5028    4.3696  -17.3649 C   0  0  0  0  0  0  0  0  0  0  0  0
   -9.8882    3.7736  -18.1655 Cl  0  0  0  0  0  0  0  0  0  0  0  0
   -7.4556    4.9002  -18.1114 C   0  0  0  0  0  0  0  0  0  0  0  0
   -6.3861    5.4963  -17.4439 C   0  0  0  0  0  0  0  0  0  0  0  0
   -5.3198    6.1989  -18.2012 C   0  0  0  0  0  0  0  0  0  0  0  0
   -5.0921    7.3135  -17.9559 O   0  0  0  0  0  0  0  0  0  0  0  0
   -4.6904    5.2600  -19.2390 N   0  0  0  0  0  0  0  0  0  0  0  0
   -3.7041    5.5202  -20.2693 C   0  0  1  0  0  0  0  0  0  0  0  0
   -4.1670    6.6074  -21.2375 C   0  0  0  0  0  0  0  0  0  0  0  0
   -3.2908    7.8070  -20.9067 C   0  0  0  0  0  0  0  0  0  0  0  0
   -2.0096    7.2299  -20.4793 N   0  0  0  0  0  0  0  0  0  0  0  0
   -1.1300    7.0525  -21.5672 C   0  0  0  0  0  0  0  0  0  0  0  0
   -0.3989    8.1681  -21.9861 C   0  0  0  0  0  0  0  0  0  0  0  0
    0.5402    8.0430  -23.0057 C   0  0  0  0  0  0  0  0  0  0  0  0
    0.7466    6.7987  -23.5771 C   0  0  0  0  0  0  0  0  0  0  0  0
   -0.0189    5.7425  -23.1169 C   0  0  0  0  0  0  0  0  0  0  0  0
   -0.9765    5.8465  -22.1645 N   0  0  0  0  0  0  0  0  0  0  0  0
   -2.3366    5.9906  -19.7451 C   0  0  0  0  0  0  0  0  0  0  0  0
   -6.3589    5.5421  -16.0488 C   0  0  0  0  0  0  0  0  0  0  0  0
  1  2  1  0
  2  3  1  0
  2  4  1  0
  4  5  1  0
  2  6  1  0
  6  7  1  0
  7  8  1  0
  8  9  1  1
  8 10  1  0
 10 11  1  0
 11 12  2  0
 12 13  1  0
 13 14  1  0
 13 15  2  0
 15 16  1  0
 16 17  1  0
 17 18  2  0
 17 19  1  0
 20 19  1  1
 20 21  1  0
 21 22  1  0
 22 23  1  0
 23 24  1  0
 24 25  2  0
 25 26  1  0
 26 27  2  0
 27 28  1  0
 28 29  2  0
 23 30  1  0
 16 31  2  0
 31 11  1  0
 30 20  1  0
 29 24  1  0
M  END
>  <smiles>  (138) 
C72379-P75

>  <fragmenstein_outcome>  (138) 
acceptable

>  <inchikey>  (138) 
QYDCXVCJSIROSW-UHFFFAOYSA-N

>  <fragmenstein_mode>  (138) 
expansion

>  <HIPPO Pose ID>  (138) 
1579

>  <Energy>  (138) 
85.831802

>  <fragmenstein_error>  (138) 


>  <tags>  (138) 
{'openbind_xx01zvns2b_c1_fragmenstein', 'fragmenstein_placed'}

>  <ref_pdb>  (138) 
1

>  <scratch_subdir>  (138) 
/opt/xchem-fragalysis-2/maxwin/BulkDock/SCRATCH/511027/C72379-P75

>  <alias>  (138) 
CC(C)(CO)NN[C@H](O)Cc1cc(Cl)cc(C(=O)N[C@H]2CCN(c3ccccn3)C2)c1

>  <HIPPO Compound ID>  (138) 
72379

>  <fragmenstein_runtime>  (138) 
12.891601

$$$$
CC(C)(CO)Nc1c[nH]c2c(C(=O)Nc3ccc4c(c3)CNC4)cc(Cl)cc12
     RDKit          3D

 28 31  0  0  0  0  0  0  0  0999 V2000
   -5.9508    3.0134  -11.8794 C   0  0  0  0  0  0  0  0  0  0  0  0
   -6.9878    4.1475  -11.8696 C   0  0  0  0  0  0  0  0  0  0  0  0
   -8.1774    3.6687  -11.0063 C   0  0  0  0  0  0  0  0  0  0  0  0
   -6.4300    5.4500  -11.2369 C   0  0  0  0  0  0  0  0  0  0  0  0
   -6.0288    5.2740   -9.8785 O   0  0  0  0  0  0  0  0  0  0  0  0
   -7.5209    4.4083  -13.2297 N   0  0  0  0  0  0  0  0  0  0  0  0
   -6.7835    4.6999  -14.3345 C   0  0  0  0  0  0  0  0  0  0  0  0
   -5.4719    5.0956  -14.4164 C   0  0  0  0  0  0  0  0  0  0  0  0
   -5.1311    5.1495  -15.7402 N   0  0  0  0  0  0  0  0  0  0  0  0
   -6.2181    4.8455  -16.5336 C   0  0  0  0  0  0  0  0  0  0  0  0
   -6.3043    4.7411  -17.9391 C   0  0  0  0  0  0  0  0  0  0  0  0
   -5.0501    4.9342  -18.7460 C   0  0  0  0  0  0  0  0  0  0  0  0
   -4.0439    4.7432  -18.1787 O   0  0  0  0  0  0  0  0  0  0  0  0
   -5.3105    5.3675  -20.2129 N   0  0  0  0  0  0  0  0  0  0  0  0
   -4.4196    5.7339  -21.2202 C   0  0  0  0  0  0  0  0  0  0  0  0
   -3.0403    5.7745  -20.9756 C   0  0  0  0  0  0  0  0  0  0  0  0
   -2.1406    6.1537  -21.9775 C   0  0  0  0  0  0  0  0  0  0  0  0
   -2.6487    6.5251  -23.2063 C   0  0  0  0  0  0  0  0  0  0  0  0
   -4.0158    6.4962  -23.4533 C   0  0  0  0  0  0  0  0  0  0  0  0
   -4.9065    6.0793  -22.4810 C   0  0  0  0  0  0  0  0  0  0  0  0
   -4.2711    6.9716  -24.8441 C   0  0  0  0  0  0  0  0  0  0  0  0
   -2.9839    7.5503  -25.3110 N   0  0  0  0  0  0  0  0  0  0  0  0
   -1.9329    6.9695  -24.4345 C   0  0  0  0  0  0  0  0  0  0  0  0
   -7.5536    4.3830  -18.4584 C   0  0  0  0  0  0  0  0  0  0  0  0
   -8.6456    4.1729  -17.6161 C   0  0  0  0  0  0  0  0  0  0  0  0
  -10.1823    3.8218  -18.3034 Cl  0  0  0  0  0  0  0  0  0  0  0  0
   -8.5294    4.2571  -16.2280 C   0  0  0  0  0  0  0  0  0  0  0  0
   -7.2823    4.5899  -15.6698 C   0  0  0  0  0  0  0  0  0  0  0  0
  1  2  1  0
  2  3  1  0
  2  4  1  0
  4  5  1  0
  2  6  1  0
  6  7  1  0
  7  8  2  0
  8  9  1  0
  9 10  1  0
 10 11  2  0
 11 12  1  0
 12 13  2  0
 12 14  1  0
 14 15  1  0
 15 16  2  0
 16 17  1  0
 17 18  2  0
 18 19  1  0
 19 20  2  0
 19 21  1  0
 21 22  1  0
 22 23  1  0
 11 24  1  0
 24 25  2  0
 25 26  1  0
 25 27  1  0
 27 28  2  0
 28  7  1  0
 28 10  1  0
 20 15  1  0
 23 18  1  0
M  END
>  <smiles>  (139) 
C72385-P8

>  <fragmenstein_outcome>  (139) 
acceptable

>  <inchikey>  (139) 
DAZKLLIBMXCUON-UHFFFAOYSA-N

>  <fragmenstein_mode>  (139) 
expansion

>  <HIPPO Pose ID>  (139) 
1588

>  <Energy>  (139) 
59.953897

>  <fragmenstein_error>  (139) 


>  <tags>  (139) 
{'openbind_xx01zvns2b_c1_fragmenstein', 'fragmenstein_placed'}

>  <ref_pdb>  (139) 
1

>  <scratch_subdir>  (139) 
/opt/xchem-fragalysis-2/maxwin/BulkDock/SCRATCH/511027/C72385-P8

>  <alias>  (139) 
CC(C)(CO)Nc1c[nH]c2c(C(=O)Nc3ccc4c(c3)CNC4)cc(Cl)cc12

>  <HIPPO Compound ID>  (139) 
106021

>  <fragmenstein_runtime>  (139) 
3.602693

$$$$
CC(C)(CO)NCn1ccc2c(C(=O)Oc3ccc4c(c3)CNC4)cc(Cl)cc21
     RDKit          3D

 29 32  0  0  0  0  0  0  0  0999 V2000
   -7.8104    5.3829  -11.4447 C   0  0  0  0  0  0  0  0  0  0  0  0
   -7.3941    3.9812  -10.9555 C   0  0  0  0  0  0  0  0  0  0  0  0
   -6.1220    4.1488  -10.0941 C   0  0  0  0  0  0  0  0  0  0  0  0
   -8.5322    3.3959  -10.0756 C   0  0  0  0  0  0  0  0  0  0  0  0
   -8.1008    2.2948   -9.2872 O   0  0  0  0  0  0  0  0  0  0  0  0
   -7.0713    3.0151  -12.0189 N   0  0  0  0  0  0  0  0  0  0  0  0
   -7.7337    3.1380  -13.3017 C   0  0  0  0  0  0  0  0  0  0  0  0
   -6.9686    3.9283  -14.2759 N   0  0  0  0  0  0  0  0  0  0  0  0
   -5.6786    4.3830  -14.1644 C   0  0  0  0  0  0  0  0  0  0  0  0
   -5.2726    4.8358  -15.3967 C   0  0  0  0  0  0  0  0  0  0  0  0
   -6.3465    4.6609  -16.3112 C   0  0  0  0  0  0  0  0  0  0  0  0
   -6.5062    4.8638  -17.7026 C   0  0  0  0  0  0  0  0  0  0  0  0
   -5.4016    5.4768  -18.4797 C   0  0  0  0  0  0  0  0  0  0  0  0
   -4.5678    6.2204  -17.9823 O   0  0  0  0  0  0  0  0  0  0  0  0
   -5.4912    5.1127  -19.8116 O   0  0  0  0  0  0  0  0  0  0  0  0
   -4.7444    5.8638  -20.7413 C   0  0  0  0  0  0  0  0  0  0  0  0
   -4.7262    7.2705  -20.7012 C   0  0  0  0  0  0  0  0  0  0  0  0
   -4.0340    7.9994  -21.6685 C   0  0  0  0  0  0  0  0  0  0  0  0
   -3.3807    7.2949  -22.6611 C   0  0  0  0  0  0  0  0  0  0  0  0
   -3.4085    5.8997  -22.7009 C   0  0  0  0  0  0  0  0  0  0  0  0
   -4.0986    5.1601  -21.7571 C   0  0  0  0  0  0  0  0  0  0  0  0
   -2.5117    5.4422  -23.8016 C   0  0  0  0  0  0  0  0  0  0  0  0
   -2.3052    6.6355  -24.6630 N   0  0  0  0  0  0  0  0  0  0  0  0
   -2.5178    7.8022  -23.7684 C   0  0  0  0  0  0  0  0  0  0  0  0
   -7.7387    4.5526  -18.2974 C   0  0  0  0  0  0  0  0  0  0  0  0
   -8.8106    4.1301  -17.5250 C   0  0  0  0  0  0  0  0  0  0  0  0
  -10.3364    3.8813  -18.2707 Cl  0  0  0  0  0  0  0  0  0  0  0  0
   -8.6831    3.9500  -16.1506 C   0  0  0  0  0  0  0  0  0  0  0  0
   -7.4258    4.1704  -15.5670 C   0  0  0  0  0  0  0  0  0  0  0  0
  1  2  1  0
  2  3  1  0
  2  4  1  0
  4  5  1  0
  2  6  1  0
  6  7  1  0
  7  8  1  0
  8  9  1  0
  9 10  2  0
 10 11  1  0
 11 12  2  0
 12 13  1  0
 13 14  2  0
 13 15  1  0
 15 16  1  0
 16 17  2  0
 17 18  1  0
 18 19  2  0
 19 20  1  0
 20 21  2  0
 20 22  1  0
 22 23  1  0
 23 24  1  0
 12 25  1  0
 25 26  2  0
 26 27  1  0
 26 28  1  0
 28 29  2  0
 29  8  1  0
 29 11  1  0
 21 16  1  0
 24 19  1  0
M  END
>  <smiles>  (140) 
C72396-P8

>  <fragmenstein_outcome>  (140) 
acceptable

>  <inchikey>  (140) 
ANZFODHJSKQESS-UHFFFAOYSA-N

>  <fragmenstein_mode>  (140) 
expansion

>  <HIPPO Pose ID>  (140) 
1593

>  <Energy>  (140) 
110.402989

>  <fragmenstein_error>  (140) 


>  <tags>  (140) 
{'openbind_xx01zvns2b_c1_fragmenstein', 'fragmenstein_placed'}

>  <ref_pdb>  (140) 
1

>  <scratch_subdir>  (140) 
/opt/xchem-fragalysis-2/maxwin/BulkDock/SCRATCH/511027/C72396-P8

>  <alias>  (140) 
CC(C)(CO)NCn1ccc2c(C(=O)Oc3ccc4c(c3)CNC4)cc(Cl)cc21

>  <HIPPO Compound ID>  (140) 
87896

>  <fragmenstein_runtime>  (140) 
7.348136

$$$$
CCN1CCC(NC(C)(C)CO)([C@H]2CCc3c(Cl)cc(C(=O)Nc4ccc5c(c4)CNC5)cc32)CC1
     RDKit          3D

 36 40  0  0  0  0  0  0  0  0999 V2000
   -0.8546    8.9620  -17.1031 C   0  0  0  0  0  0  0  0  0  0  0  0
   -1.2635    7.5457  -16.7137 C   0  0  0  0  0  0  0  0  0  0  0  0
   -2.3930    7.0460  -17.5075 N   0  0  0  0  0  0  0  0  0  0  0  0
   -2.5017    5.5889  -17.3926 C   0  0  0  0  0  0  0  0  0  0  0  0
   -3.8588    4.9712  -17.7644 C   0  0  0  0  0  0  0  0  0  0  0  0
   -4.7324    5.8373  -18.6957 C   0  0  0  0  0  0  0  0  0  0  0  0
   -4.4505    5.5025  -20.1026 N   0  0  0  0  0  0  0  0  0  0  0  0
   -3.4906    6.0333  -21.0528 C   0  0  0  0  0  0  0  0  0  0  0  0
   -2.0611    5.6592  -20.6875 C   0  0  0  0  0  0  0  0  0  0  0  0
   -3.6105    7.5345  -21.3099 C   0  0  0  0  0  0  0  0  0  0  0  0
   -3.8330    5.2871  -22.3916 C   0  0  0  0  0  0  0  0  0  0  0  0
   -5.1837    5.5104  -22.7963 O   0  0  0  0  0  0  0  0  0  0  0  0
   -6.2523    5.4479  -18.6680 C   0  0  1  0  0  0  0  0  0  0  0  0
   -6.6754    4.2083  -19.4811 C   0  0  0  0  0  0  0  0  0  0  0  0
   -8.1605    4.0558  -19.2202 C   0  0  0  0  0  0  0  0  0  0  0  0
   -8.1386    4.3757  -17.7738 C   0  0  0  0  0  0  0  0  0  0  0  0
   -9.1655    4.1388  -16.9090 C   0  0  0  0  0  0  0  0  0  0  0  0
  -10.6878    3.7889  -17.6148 Cl  0  0  0  0  0  0  0  0  0  0  0  0
   -8.9448    4.3916  -15.5671 C   0  0  0  0  0  0  0  0  0  0  0  0
   -7.7576    5.0221  -15.1545 C   0  0  0  0  0  0  0  0  0  0  0  0
   -7.5921    5.4797  -13.7519 C   0  0  0  0  0  0  0  0  0  0  0  0
   -7.1661    6.5520  -13.5719 O   0  0  0  0  0  0  0  0  0  0  0  0
   -8.0284    4.3937  -12.7444 N   0  0  0  0  0  0  0  0  0  0  0  0
   -8.1179    4.4320  -11.3587 C   0  0  0  0  0  0  0  0  0  0  0  0
   -7.8796    5.6225  -10.6529 C   0  0  0  0  0  0  0  0  0  0  0  0
   -7.9623    5.6535   -9.2585 C   0  0  0  0  0  0  0  0  0  0  0  0
   -8.2849    4.4821   -8.5988 C   0  0  0  0  0  0  0  0  0  0  0  0
   -8.5243    3.3031   -9.2984 C   0  0  0  0  0  0  0  0  0  0  0  0
   -8.4486    3.2589  -10.6793 C   0  0  0  0  0  0  0  0  0  0  0  0
   -8.8046    2.2054   -8.3263 C   0  0  0  0  0  0  0  0  0  0  0  0
   -9.0868    2.8944   -7.0352 N   0  0  0  0  0  0  0  0  0  0  0  0
   -8.4094    4.2096   -7.1371 C   0  0  0  0  0  0  0  0  0  0  0  0
   -6.7863    5.4113  -16.0842 C   0  0  0  0  0  0  0  0  0  0  0  0
   -6.9874    5.0843  -17.4048 C   0  0  0  0  0  0  0  0  0  0  0  0
   -4.6902    7.3248  -18.2450 C   0  0  0  0  0  0  0  0  0  0  0  0
   -3.6587    7.6715  -17.1748 C   0  0  0  0  0  0  0  0  0  0  0  0
  1  2  1  0
  2  3  1  0
  3  4  1  0
  4  5  1  0
  5  6  1  0
  6  7  1  0
  7  8  1  0
  8  9  1  0
  8 10  1  0
  8 11  1  0
 11 12  1  0
 13  6  1  1
 13 14  1  0
 14 15  1  0
 15 16  1  0
 16 17  2  0
 17 18  1  0
 17 19  1  0
 19 20  2  0
 20 21  1  0
 21 22  2  0
 21 23  1  0
 23 24  1  0
 24 25  2  0
 25 26  1  0
 26 27  2  0
 27 28  1  0
 28 29  2  0
 28 30  1  0
 30 31  1  0
 31 32  1  0
 20 33  1  0
 33 34  2  0
  6 35  1  0
 35 36  1  0
 36  3  1  0
 34 13  1  0
 34 16  1  0
 29 24  1  0
 32 27  1  0
M  END
>  <smiles>  (141) 
C72416-P8

>  <fragmenstein_outcome>  (141) 
acceptable

>  <inchikey>  (141) 
ZXTMDIDXPQKAJX-UHFFFAOYSA-N

>  <fragmenstein_mode>  (141) 
expansion

>  <HIPPO Pose ID>  (141) 
1607

>  <Energy>  (141) 
146.196512

>  <fragmenstein_error>  (141) 


>  <tags>  (141) 
{'openbind_xx01zvns2b_c1_fragmenstein', 'fragmenstein_placed'}

>  <ref_pdb>  (141) 
1

>  <scratch_subdir>  (141) 
/opt/xchem-fragalysis-2/maxwin/BulkDock/SCRATCH/511027/C72416-P8

>  <alias>  (141) 
CCN1CCC(NC(C)(C)CO)([C@H]2CCc3c(Cl)cc(C(=O)Nc4ccc5c(c4)CNC5)cc32)CC1

>  <HIPPO Compound ID>  (141) 
86155

>  <fragmenstein_runtime>  (141) 
10.621212

$$$$
C[C@](N)(CO)CN[C@@H]1NC[C@@H]1n1cc2c(C(=O)Nc3ccc4c(c3)CNC4)cc(Cl)cc2c1O
     RDKit          3D

 34 38  0  0  0  0  0  0  0  0999 V2000
   -3.1700    9.6345  -18.2817 C   0  0  0  0  0  0  0  0  0  0  0  0
   -4.5161    9.2724  -18.9233 C   0  0  2  0  0  0  0  0  0  0  0  0
   -4.4853    9.6109  -20.3779 N   0  0  0  0  0  0  0  0  0  0  0  0
   -5.6344   10.1180  -18.2722 C   0  0  0  0  0  0  0  0  0  0  0  0
   -6.7991   10.0538  -19.1056 O   0  0  0  0  0  0  0  0  0  0  0  0
   -4.8515    7.7465  -18.7752 C   0  0  0  0  0  0  0  0  0  0  0  0
   -3.9150    6.9031  -19.5388 N   0  0  0  0  0  0  0  0  0  0  0  0
   -2.9314    6.3111  -18.6377 C   0  0  2  0  0  0  0  0  0  0  0  0
   -1.9320    5.5603  -19.4265 N   0  0  0  0  0  0  0  0  0  0  0  0
   -2.7547    4.3306  -19.2584 C   0  0  0  0  0  0  0  0  0  0  0  0
   -3.3776    4.9787  -18.0155 C   0  0  2  0  0  0  0  0  0  0  0  0
   -4.8148    4.7928  -17.7583 N   0  0  0  0  0  0  0  0  0  0  0  0
   -5.3181    4.8514  -16.4714 C   0  0  0  0  0  0  0  0  0  0  0  0
   -6.6691    4.6307  -16.5571 C   0  0  0  0  0  0  0  0  0  0  0  0
   -7.6071    4.5607  -15.5256 C   0  0  0  0  0  0  0  0  0  0  0  0
   -7.3681    5.0103  -14.1379 C   0  0  0  0  0  0  0  0  0  0  0  0
   -6.7476    5.9914  -13.9983 O   0  0  0  0  0  0  0  0  0  0  0  0
   -8.0832    4.1174  -13.0933 N   0  0  0  0  0  0  0  0  0  0  0  0
   -8.1028    4.1912  -11.6977 C   0  0  0  0  0  0  0  0  0  0  0  0
   -7.7078    5.3642  -11.0350 C   0  0  0  0  0  0  0  0  0  0  0  0
   -7.7372    5.4474   -9.6370 C   0  0  0  0  0  0  0  0  0  0  0  0
   -8.1418    4.3367   -8.9199 C   0  0  0  0  0  0  0  0  0  0  0  0
   -8.5209    3.1695   -9.5686 C   0  0  0  0  0  0  0  0  0  0  0  0
   -8.5256    3.0868  -10.9551 C   0  0  0  0  0  0  0  0  0  0  0  0
   -8.8323    2.1237   -8.5497 C   0  0  0  0  0  0  0  0  0  0  0  0
   -8.8920    2.8330   -7.2464 N   0  0  0  0  0  0  0  0  0  0  0  0
   -8.2199    4.1339   -7.4447 C   0  0  0  0  0  0  0  0  0  0  0  0
   -8.8851    4.2420  -16.0409 C   0  0  0  0  0  0  0  0  0  0  0  0
   -9.1691    4.0912  -17.4439 C   0  0  0  0  0  0  0  0  0  0  0  0
  -10.7853    3.8422  -17.9698 Cl  0  0  0  0  0  0  0  0  0  0  0  0
   -8.2236    4.2078  -18.4708 C   0  0  0  0  0  0  0  0  0  0  0  0
   -6.9770    4.4652  -17.9380 C   0  0  0  0  0  0  0  0  0  0  0  0
   -5.8386    4.6447  -18.6771 C   0  0  0  0  0  0  0  0  0  0  0  0
   -5.6603    4.7352  -19.9939 O   0  0  0  0  0  0  0  0  0  0  0  0
  2  1  1  1
  2  3  1  0
  2  4  1  0
  4  5  1  0
  2  6  1  0
  6  7  1  0
  8  7  1  6
  8  9  1  0
  9 10  1  0
 10 11  1  0
 11 12  1  6
 12 13  1  0
 13 14  2  0
 14 15  1  0
 15 16  1  0
 16 17  2  0
 16 18  1  0
 18 19  1  0
 19 20  2  0
 20 21  1  0
 21 22  2  0
 22 23  1  0
 23 24  2  0
 23 25  1  0
 25 26  1  0
 26 27  1  0
 15 28  2  0
 28 29  1  0
 29 30  1  0
 29 31  2  0
 31 32  1  0
 32 33  2  0
 33 34  1  0
 11  8  1  0
 33 12  1  0
 32 14  1  0
 24 19  1  0
 27 22  1  0
M  END
>  <smiles>  (142) 
C72423-P8

>  <fragmenstein_outcome>  (142) 
acceptable

>  <inchikey>  (142) 
YYSKSUGFDNMBBX-UHFFFAOYSA-N

>  <fragmenstein_mode>  (142) 
expansion

>  <HIPPO Pose ID>  (142) 
1608

>  <Energy>  (142) 
91.922081

>  <fragmenstein_error>  (142) 


>  <tags>  (142) 
{'openbind_xx01zvns2b_c1_fragmenstein', 'fragmenstein_placed'}

>  <ref_pdb>  (142) 
1

>  <scratch_subdir>  (142) 
/opt/xchem-fragalysis-2/maxwin/BulkDock/SCRATCH/511027/C72423-P8

>  <alias>  (142) 
C[C@](N)(CO)CN[C@@H]1NC[C@@H]1n1cc2c(C(=O)Nc3ccc4c(c3)CNC4)cc(Cl)cc2c1O

>  <HIPPO Compound ID>  (142) 
73862

>  <fragmenstein_runtime>  (142) 
15.726154

$$$$
CN1Cc2ccc(NC(=O)c3cc(Cl)c4c(c3)[C@](O)(NC(C)(C)CO)C(=O)N4)cc2C1
     RDKit          3D

 31 34  0  0  0  0  0  0  0  0999 V2000
   -9.6522    2.3716   -6.3276 C   0  0  0  0  0  0  0  0  0  0  0  0
   -8.5983    2.7481   -7.2470 N   0  0  0  0  0  0  0  0  0  0  0  0
   -8.4135    4.1955   -7.4043 C   0  0  0  0  0  0  0  0  0  0  0  0
   -8.1955    4.4181   -8.8669 C   0  0  0  0  0  0  0  0  0  0  0  0
   -7.8434    5.5780   -9.5339 C   0  0  0  0  0  0  0  0  0  0  0  0
   -7.6691    5.5269  -10.9237 C   0  0  0  0  0  0  0  0  0  0  0  0
   -7.8738    4.3345  -11.6340 C   0  0  0  0  0  0  0  0  0  0  0  0
   -7.6950    4.2760  -13.0211 N   0  0  0  0  0  0  0  0  0  0  0  0
   -7.1046    5.3221  -14.0076 C   0  0  0  0  0  0  0  0  0  0  0  0
   -6.6070    6.3609  -13.8026 O   0  0  0  0  0  0  0  0  0  0  0  0
   -7.2564    4.8990  -15.4308 C   0  0  0  0  0  0  0  0  0  0  0  0
   -8.5240    4.4797  -15.8773 C   0  0  0  0  0  0  0  0  0  0  0  0
   -8.7188    4.1965  -17.2215 C   0  0  0  0  0  0  0  0  0  0  0  0
  -10.2598    3.7980  -17.8569 Cl  0  0  0  0  0  0  0  0  0  0  0  0
   -7.6383    4.2944  -18.0724 C   0  0  0  0  0  0  0  0  0  0  0  0
   -6.3748    4.7282  -17.6752 C   0  0  0  0  0  0  0  0  0  0  0  0
   -6.1763    5.0493  -16.3330 C   0  0  0  0  0  0  0  0  0  0  0  0
   -5.4085    4.6528  -18.8628 C   0  0  2  0  0  0  0  0  0  0  0  0
   -4.2940    3.9823  -18.3622 O   0  0  0  0  0  0  0  0  0  0  0  0
   -5.0053    5.9698  -19.3481 N   0  0  0  0  0  0  0  0  0  0  0  0
   -3.9348    6.0972  -20.3838 C   0  0  0  0  0  0  0  0  0  0  0  0
   -3.9150    7.6187  -20.6625 C   0  0  0  0  0  0  0  0  0  0  0  0
   -2.5433    5.7148  -19.8315 C   0  0  0  0  0  0  0  0  0  0  0  0
   -4.0864    5.3878  -21.7661 C   0  0  0  0  0  0  0  0  0  0  0  0
   -5.2483    5.7897  -22.4802 O   0  0  0  0  0  0  0  0  0  0  0  0
   -6.3907    3.9935  -19.9517 C   0  0  0  0  0  0  0  0  0  0  0  0
   -6.1388    3.6127  -21.0877 O   0  0  0  0  0  0  0  0  0  0  0  0
   -7.6444    3.9154  -19.3944 N   0  0  0  0  0  0  0  0  0  0  0  0
   -8.2630    3.1775  -10.9455 C   0  0  0  0  0  0  0  0  0  0  0  0
   -8.3976    3.2313   -9.5612 C   0  0  0  0  0  0  0  0  0  0  0  0
   -8.7365    2.1419   -8.5889 C   0  0  0  0  0  0  0  0  0  0  0  0
  1  2  1  0
  2  3  1  0
  3  4  1  0
  4  5  2  0
  5  6  1  0
  6  7  2  0
  7  8  1  0
  8  9  1  0
  9 10  2  0
  9 11  1  0
 11 12  2  0
 12 13  1  0
 13 14  1  0
 13 15  2  0
 15 16  1  0
 16 17  2  0
 16 18  1  0
 18 19  1  1
 18 20  1  0
 20 21  1  0
 21 22  1  0
 21 23  1  0
 21 24  1  0
 24 25  1  0
 18 26  1  0
 26 27  2  0
 26 28  1  0
  7 29  1  0
 29 30  2  0
 30 31  1  0
 31  2  1  0
 30  4  1  0
 17 11  1  0
 28 15  1  0
M  END
>  <smiles>  (143) 
C35639-P8

>  <fragmenstein_outcome>  (143) 
acceptable

>  <inchikey>  (143) 
NLYJRICUDYXUAT-UHFFFAOYSA-N

>  <fragmenstein_mode>  (143) 
expansion

>  <HIPPO Pose ID>  (143) 
1613

>  <Energy>  (143) 
115.89339

>  <fragmenstein_error>  (143) 


>  <tags>  (143) 
{'openbind_xx01zvns2b_c1_fragmenstein', 'fragmenstein_placed'}

>  <ref_pdb>  (143) 
1

>  <scratch_subdir>  (143) 
/opt/xchem-fragalysis-2/maxwin/BulkDock/SCRATCH/511027/C35639-P8

>  <alias>  (143) 
CN1Cc2ccc(NC(=O)c3cc(Cl)c4c(c3)[C@](O)(NC(C)(C)CO)C(=O)N4)cc2C1

>  <HIPPO Compound ID>  (143) 
72957

>  <fragmenstein_runtime>  (143) 
12.888991

$$$$
O=C(Nc1ccc2c(c1)CCCC2)c1cc(Cl)cc2c1cnn2C1CN(CCO)C1
     RDKit          3D

 30 34  0  0  0  0  0  0  0  0999 V2000
   -7.5028    6.4513  -13.5386 O   0  0  0  0  0  0  0  0  0  0  0  0
   -7.7001    5.3096  -13.6886 C   0  0  0  0  0  0  0  0  0  0  0  0
   -8.0590    4.2125  -12.6629 N   0  0  0  0  0  0  0  0  0  0  0  0
   -8.1542    4.2686  -11.2691 C   0  0  0  0  0  0  0  0  0  0  0  0
   -7.9284    5.4658  -10.5933 C   0  0  0  0  0  0  0  0  0  0  0  0
   -7.9977    5.5201   -9.1990 C   0  0  0  0  0  0  0  0  0  0  0  0
   -8.3016    4.3768   -8.4520 C   0  0  0  0  0  0  0  0  0  0  0  0
   -8.5130    3.1636   -9.1186 C   0  0  0  0  0  0  0  0  0  0  0  0
   -8.4476    3.1232  -10.5300 C   0  0  0  0  0  0  0  0  0  0  0  0
   -8.8333    1.9043   -8.3525 C   0  0  0  0  0  0  0  0  0  0  0  0
   -8.8594    2.0134   -6.8284 C   0  0  0  0  0  0  0  0  0  0  0  0
   -9.2387    3.3909   -6.3217 C   0  0  0  0  0  0  0  0  0  0  0  0
   -8.3498    4.4578   -6.9492 C   0  0  0  0  0  0  0  0  0  0  0  0
   -7.5339    4.8025  -15.0695 C   0  0  0  0  0  0  0  0  0  0  0  0
   -8.6136    4.3503  -15.8218 C   0  0  0  0  0  0  0  0  0  0  0  0
   -8.4812    4.2190  -17.2043 C   0  0  0  0  0  0  0  0  0  0  0  0
   -9.8805    3.7795  -18.1166 Cl  0  0  0  0  0  0  0  0  0  0  0  0
   -7.2810    4.5298  -17.8755 C   0  0  0  0  0  0  0  0  0  0  0  0
   -6.1857    4.9544  -17.0959 C   0  0  0  0  0  0  0  0  0  0  0  0
   -6.2989    5.0419  -15.7023 C   0  0  0  0  0  0  0  0  0  0  0  0
   -5.0239    5.4258  -15.2504 C   0  0  0  0  0  0  0  0  0  0  0  0
   -4.1555    5.5680  -16.2427 N   0  0  0  0  0  0  0  0  0  0  0  0
   -4.9047    5.4242  -17.3592 N   0  0  0  0  0  0  0  0  0  0  0  0
   -4.2966    5.9734  -18.5883 C   0  0  0  0  0  0  0  0  0  0  0  0
   -5.2146    6.4672  -19.6906 C   0  0  0  0  0  0  0  0  0  0  0  0
   -4.8417    5.3015  -20.5100 N   0  0  0  0  0  0  0  0  0  0  0  0
   -4.2681    5.7671  -21.7722 C   0  0  0  0  0  0  0  0  0  0  0  0
   -3.8992    4.5917  -22.6536 C   0  0  0  0  0  0  0  0  0  0  0  0
   -3.2014    5.0303  -23.8153 O   0  0  0  0  0  0  0  0  0  0  0  0
   -3.7872    4.9147  -19.5533 C   0  0  0  0  0  0  0  0  0  0  0  0
  1  2  2  0
  2  3  1  0
  3  4  1  0
  4  5  2  0
  5  6  1  0
  6  7  2  0
  7  8  1  0
  8  9  2  0
  8 10  1  0
 10 11  1  0
 11 12  1  0
 12 13  1  0
  2 14  1  0
 14 15  2  0
 15 16  1  0
 16 17  1  0
 16 18  2  0
 18 19  1  0
 19 20  2  0
 20 21  1  0
 21 22  2  0
 22 23  1  0
 23 24  1  0
 24 25  1  0
 25 26  1  0
 26 27  1  0
 27 28  1  0
 28 29  1  0
 26 30  1  0
  9  4  1  0
 20 14  1  0
 30 24  1  0
 13  7  1  0
 23 19  1  0
M  END
>  <smiles>  (144) 
C72429-P8

>  <fragmenstein_outcome>  (144) 
acceptable

>  <inchikey>  (144) 
RUAXQCOKMLPBPL-UHFFFAOYSA-N

>  <fragmenstein_mode>  (144) 
expansion

>  <HIPPO Pose ID>  (144) 
1615

>  <Energy>  (144) 
92.366927

>  <fragmenstein_error>  (144) 


>  <tags>  (144) 
{'openbind_xx01zvns2b_c1_fragmenstein', 'fragmenstein_placed'}

>  <ref_pdb>  (144) 
1

>  <scratch_subdir>  (144) 
/opt/xchem-fragalysis-2/maxwin/BulkDock/SCRATCH/511027/C72429-P8

>  <alias>  (144) 
O=C(Nc1ccc2c(c1)CCCC2)c1cc(Cl)cc2c1cnn2C1CN(CCO)C1

>  <HIPPO Compound ID>  (144) 
72429

>  <fragmenstein_runtime>  (144) 
9.96479

$$$$
CC(C)(CO)NCOn1cnc2c(C(=O)Nc3ccc4c(c3)CNC4)cc(Cl)cc21
     RDKit          3D

 30 33  0  0  0  0  0  0  0  0999 V2000
   -2.7474    5.1633  -20.2920 C   0  0  0  0  0  0  0  0  0  0  0  0
   -3.9410    5.7885  -21.0285 C   0  0  0  0  0  0  0  0  0  0  0  0
   -3.5449    7.1720  -21.5757 C   0  0  0  0  0  0  0  0  0  0  0  0
   -4.2848    4.8635  -22.2241 C   0  0  0  0  0  0  0  0  0  0  0  0
   -5.3862    5.3779  -22.9664 O   0  0  0  0  0  0  0  0  0  0  0  0
   -5.1497    5.9087  -20.1877 N   0  0  0  0  0  0  0  0  0  0  0  0
   -4.9910    6.6758  -18.9711 C   0  0  0  0  0  0  0  0  0  0  0  0
   -4.3219    5.8835  -18.0175 O   0  0  0  0  0  0  0  0  0  0  0  0
   -5.1006    5.6698  -16.8933 N   0  0  0  0  0  0  0  0  0  0  0  0
   -4.5976    5.8264  -15.6390 C   0  0  0  0  0  0  0  0  0  0  0  0
   -5.4180    5.3619  -14.7287 N   0  0  0  0  0  0  0  0  0  0  0  0
   -6.4872    4.8607  -15.4368 C   0  0  0  0  0  0  0  0  0  0  0  0
   -7.6208    4.1702  -14.9960 C   0  0  0  0  0  0  0  0  0  0  0  0
   -7.6551    3.5924  -13.6414 C   0  0  0  0  0  0  0  0  0  0  0  0
   -7.6239    2.4310  -13.5336 O   0  0  0  0  0  0  0  0  0  0  0  0
   -7.7669    4.6935  -12.5677 N   0  0  0  0  0  0  0  0  0  0  0  0
   -7.9523    4.5989  -11.1934 C   0  0  0  0  0  0  0  0  0  0  0  0
   -7.8618    5.7648  -10.4169 C   0  0  0  0  0  0  0  0  0  0  0  0
   -8.0005    5.7040   -9.0268 C   0  0  0  0  0  0  0  0  0  0  0  0
   -8.2444    4.4718   -8.4449 C   0  0  0  0  0  0  0  0  0  0  0  0
   -8.3720    3.3252   -9.2177 C   0  0  0  0  0  0  0  0  0  0  0  0
   -8.2247    3.3679  -10.5928 C   0  0  0  0  0  0  0  0  0  0  0  0
   -8.6820    2.1593   -8.3427 C   0  0  0  0  0  0  0  0  0  0  0  0
   -8.4935    2.6435   -6.9456 N   0  0  0  0  0  0  0  0  0  0  0  0
   -8.4401    4.1198   -7.0113 C   0  0  0  0  0  0  0  0  0  0  0  0
   -8.6629    3.9173  -15.8941 C   0  0  0  0  0  0  0  0  0  0  0  0
   -8.5212    4.2067  -17.2437 C   0  0  0  0  0  0  0  0  0  0  0  0
   -9.8313    3.8870  -18.3147 Cl  0  0  0  0  0  0  0  0  0  0  0  0
   -7.3351    4.7484  -17.7428 C   0  0  0  0  0  0  0  0  0  0  0  0
   -6.3479    5.1025  -16.8066 C   0  0  0  0  0  0  0  0  0  0  0  0
  1  2  1  0
  2  3  1  0
  2  4  1  0
  4  5  1  0
  2  6  1  0
  6  7  1  0
  7  8  1  0
  8  9  1  0
  9 10  1  0
 10 11  2  0
 11 12  1  0
 12 13  2  0
 13 14  1  0
 14 15  2  0
 14 16  1  0
 16 17  1  0
 17 18  2  0
 18 19  1  0
 19 20  2  0
 20 21  1  0
 21 22  2  0
 21 23  1  0
 23 24  1  0
 24 25  1  0
 13 26  1  0
 26 27  2  0
 27 28  1  0
 27 29  1  0
 29 30  2  0
 30  9  1  0
 30 12  1  0
 22 17  1  0
 25 20  1  0
M  END
>  <smiles>  (145) 
C39445-P8

>  <fragmenstein_outcome>  (145) 
acceptable

>  <inchikey>  (145) 
RJVPTRKTWXFXIB-UHFFFAOYSA-N

>  <fragmenstein_mode>  (145) 
expansion

>  <HIPPO Pose ID>  (145) 
1623

>  <Energy>  (145) 
57.391181

>  <fragmenstein_error>  (145) 


>  <tags>  (145) 
{'openbind_xx01zvns2b_c1_fragmenstein', 'fragmenstein_placed'}

>  <ref_pdb>  (145) 
1

>  <scratch_subdir>  (145) 
/opt/xchem-fragalysis-2/maxwin/BulkDock/SCRATCH/511027/C39445-P8

>  <alias>  (145) 
CC(C)(CO)NCOn1cnc2c(C(=O)Nc3ccc4c(c3)CNC4)cc(Cl)cc21

>  <HIPPO Compound ID>  (145) 
71423

>  <fragmenstein_runtime>  (145) 
6.02727

$$$$
CC[C@](C)(CO)Nn1cnc2c(C(=O)Nc3ccc4c(c3)CNC4)cc(Cl)cc21
     RDKit          3D

 29 32  0  0  0  0  0  0  0  0999 V2000
   -2.9969    7.8382  -21.1042 C   0  0  0  0  0  0  0  0  0  0  0  0
   -4.1099    7.1120  -20.3553 C   0  0  0  0  0  0  0  0  0  0  0  0
   -4.1091    5.5651  -20.5004 C   0  0  2  0  0  0  0  0  0  0  0  0
   -2.7899    4.9287  -20.0204 C   0  0  0  0  0  0  0  0  0  0  0  0
   -4.2428    5.1657  -22.0143 C   0  0  0  0  0  0  0  0  0  0  0  0
   -5.2872    5.8876  -22.6605 O   0  0  0  0  0  0  0  0  0  0  0  0
   -5.2963    4.9782  -19.8305 N   0  0  0  0  0  0  0  0  0  0  0  0
   -5.5047    5.1164  -18.4046 N   0  0  0  0  0  0  0  0  0  0  0  0
   -4.6683    5.5261  -17.4014 C   0  0  0  0  0  0  0  0  0  0  0  0
   -5.2317    5.4707  -16.2133 N   0  0  0  0  0  0  0  0  0  0  0  0
   -6.5056    5.0044  -16.4315 C   0  0  0  0  0  0  0  0  0  0  0  0
   -7.5759    4.7682  -15.5392 C   0  0  0  0  0  0  0  0  0  0  0  0
   -7.5189    5.2557  -14.1355 C   0  0  0  0  0  0  0  0  0  0  0  0
   -7.2181    6.3748  -13.9731 O   0  0  0  0  0  0  0  0  0  0  0  0
   -7.9812    4.1790  -13.1144 N   0  0  0  0  0  0  0  0  0  0  0  0
   -8.0735    4.2304  -11.7175 C   0  0  0  0  0  0  0  0  0  0  0  0
   -7.8471    5.4271  -11.0194 C   0  0  0  0  0  0  0  0  0  0  0  0
   -7.9399    5.4798   -9.6214 C   0  0  0  0  0  0  0  0  0  0  0  0
   -8.2562    4.3214   -8.9370 C   0  0  0  0  0  0  0  0  0  0  0  0
   -8.4827    3.1319   -9.6171 C   0  0  0  0  0  0  0  0  0  0  0  0
   -8.4007    3.0717  -11.0044 C   0  0  0  0  0  0  0  0  0  0  0  0
   -8.7561    2.0528   -8.6175 C   0  0  0  0  0  0  0  0  0  0  0  0
   -9.0180    2.7565   -7.3317 N   0  0  0  0  0  0  0  0  0  0  0  0
   -8.3739    4.0797   -7.4696 C   0  0  0  0  0  0  0  0  0  0  0  0
   -8.7898    4.2895  -16.0513 C   0  0  0  0  0  0  0  0  0  0  0  0
   -8.9513    4.1060  -17.4223 C   0  0  0  0  0  0  0  0  0  0  0  0
  -10.5002    3.7528  -18.0646 Cl  0  0  0  0  0  0  0  0  0  0  0  0
   -7.9087    4.3161  -18.3206 C   0  0  0  0  0  0  0  0  0  0  0  0
   -6.6954    4.7701  -17.7966 C   0  0  0  0  0  0  0  0  0  0  0  0
  1  2  1  0
  2  3  1  0
  3  4  1  1
  3  5  1  0
  5  6  1  0
  3  7  1  0
  7  8  1  0
  8  9  1  0
  9 10  2  0
 10 11  1  0
 11 12  2  0
 12 13  1  0
 13 14  2  0
 13 15  1  0
 15 16  1  0
 16 17  2  0
 17 18  1  0
 18 19  2  0
 19 20  1  0
 20 21  2  0
 20 22  1  0
 22 23  1  0
 23 24  1  0
 12 25  1  0
 25 26  2  0
 26 27  1  0
 26 28  1  0
 28 29  2  0
 29  8  1  0
 29 11  1  0
 21 16  1  0
 24 19  1  0
M  END
>  <smiles>  (146) 
C72444-P8

>  <fragmenstein_outcome>  (146) 
acceptable

>  <inchikey>  (146) 
BNCISEMHVKOJBP-UHFFFAOYSA-N

>  <fragmenstein_mode>  (146) 
expansion

>  <HIPPO Pose ID>  (146) 
1629

>  <Energy>  (146) 
78.913121

>  <fragmenstein_error>  (146) 


>  <tags>  (146) 
{'openbind_xx01zvns2b_c1_fragmenstein', 'fragmenstein_placed'}

>  <ref_pdb>  (146) 
1

>  <scratch_subdir>  (146) 
/opt/xchem-fragalysis-2/maxwin/BulkDock/SCRATCH/511027/C72444-P8

>  <alias>  (146) 
CC[C@](C)(CO)Nn1cnc2c(C(=O)Nc3ccc4c(c3)CNC4)cc(Cl)cc21

>  <HIPPO Compound ID>  (146) 
90390

>  <fragmenstein_runtime>  (146) 
4.863161

$$$$
CC(C)NC(=O)[C@@H](Nc1ccc2c(c1)CNC2)c1cc(Cl)cc2c1nc(-c1ccccc1)n2OCNC(C)(C)CO
     RDKit          3D

 41 45  0  0  0  0  0  0  0  0999 V2000
   -5.0513    7.6132  -10.6430 C   0  0  0  0  0  0  0  0  0  0  0  0
   -4.4929    7.1133  -11.9698 C   0  0  0  0  0  0  0  0  0  0  0  0
   -3.0834    6.5613  -11.7985 C   0  0  0  0  0  0  0  0  0  0  0  0
   -5.3621    6.1177  -12.5483 N   0  0  0  0  0  0  0  0  0  0  0  0
   -6.7095    6.2755  -13.3265 C   0  0  0  0  0  0  0  0  0  0  0  0
   -7.2734    7.2409  -13.6800 O   0  0  0  0  0  0  0  0  0  0  0  0
   -7.2336    4.8156  -13.6486 C   0  0  1  0  0  0  0  0  0  0  0  0
   -8.4736    4.4571  -12.9089 N   0  0  0  0  0  0  0  0  0  0  0  0
   -8.3605    4.3999  -11.5003 C   0  0  0  0  0  0  0  0  0  0  0  0
   -8.1608    5.5652  -10.7352 C   0  0  0  0  0  0  0  0  0  0  0  0
   -8.1042    5.5309   -9.3375 C   0  0  0  0  0  0  0  0  0  0  0  0
   -8.2967    4.3189   -8.7078 C   0  0  0  0  0  0  0  0  0  0  0  0
   -8.5062    3.1582   -9.4410 C   0  0  0  0  0  0  0  0  0  0  0  0
   -8.5202    3.1778  -10.8292 C   0  0  0  0  0  0  0  0  0  0  0  0
   -8.7169    2.0213   -8.4934 C   0  0  0  0  0  0  0  0  0  0  0  0
   -8.9765    2.6577   -7.1720 N   0  0  0  0  0  0  0  0  0  0  0  0
   -8.3589    3.9980   -7.2536 C   0  0  0  0  0  0  0  0  0  0  0  0
   -7.4138    4.6802  -15.1559 C   0  0  0  0  0  0  0  0  0  0  0  0
   -8.6353    4.3460  -15.7895 C   0  0  0  0  0  0  0  0  0  0  0  0
   -8.7397    4.1905  -17.1760 C   0  0  0  0  0  0  0  0  0  0  0  0
  -10.2585    3.8674  -17.9133 Cl  0  0  0  0  0  0  0  0  0  0  0  0
   -7.6308    4.3156  -18.0020 C   0  0  0  0  0  0  0  0  0  0  0  0
   -6.4344    4.6495  -17.3715 C   0  0  0  0  0  0  0  0  0  0  0  0
   -6.3103    4.8740  -16.0111 C   0  0  0  0  0  0  0  0  0  0  0  0
   -5.0310    5.2783  -15.6977 N   0  0  0  0  0  0  0  0  0  0  0  0
   -4.3482    5.2740  -16.8350 C   0  0  0  0  0  0  0  0  0  0  0  0
   -2.9825    5.7936  -17.0058 C   0  0  0  0  0  0  0  0  0  0  0  0
   -2.1327    5.4059  -18.0466 C   0  0  0  0  0  0  0  0  0  0  0  0
   -0.8732    5.9830  -18.2344 C   0  0  0  0  0  0  0  0  0  0  0  0
   -0.4162    6.9380  -17.3421 C   0  0  0  0  0  0  0  0  0  0  0  0
   -1.2206    7.3068  -16.2678 C   0  0  0  0  0  0  0  0  0  0  0  0
   -2.4921    6.7434  -16.1024 C   0  0  0  0  0  0  0  0  0  0  0  0
   -5.1530    4.7589  -17.8299 N   0  0  0  0  0  0  0  0  0  0  0  0
   -4.7242    4.1674  -19.0111 O   0  0  0  0  0  0  0  0  0  0  0  0
   -4.9290    5.0438  -20.0952 C   0  0  0  0  0  0  0  0  0  0  0  0
   -3.6314    5.2791  -20.6760 N   0  0  0  0  0  0  0  0  0  0  0  0
   -3.5489    6.2144  -21.7883 C   0  0  0  0  0  0  0  0  0  0  0  0
   -2.0420    6.3714  -22.0840 C   0  0  0  0  0  0  0  0  0  0  0  0
   -4.0979    7.5953  -21.4041 C   0  0  0  0  0  0  0  0  0  0  0  0
   -4.2119    5.6293  -23.0549 C   0  0  0  0  0  0  0  0  0  0  0  0
   -5.5893    5.9298  -23.1787 O   0  0  0  0  0  0  0  0  0  0  0  0
  1  2  1  0
  2  3  1  0
  2  4  1  0
  4  5  1  0
  5  6  2  0
  5  7  1  0
  7  8  1  1
  8  9  1  0
  9 10  2  0
 10 11  1  0
 11 12  2  0
 12 13  1  0
 13 14  2  0
 13 15  1  0
 15 16  1  0
 16 17  1  0
  7 18  1  0
 18 19  2  0
 19 20  1  0
 20 21  1  0
 20 22  2  0
 22 23  1  0
 23 24  2  0
 24 25  1  0
 25 26  2  0
 26 27  1  0
 27 28  2  0
 28 29  1  0
 29 30  2  0
 30 31  1  0
 31 32  2  0
 26 33  1  0
 33 34  1  0
 34 35  1  0
 35 36  1  0
 36 37  1  0
 37 38  1  0
 37 39  1  0
 37 40  1  0
 40 41  1  0
 14  9  1  0
 24 18  1  0
 32 27  1  0
 17 12  1  0
 33 23  1  0
M  END
>  <smiles>  (147) 
C43365-P8

>  <fragmenstein_outcome>  (147) 
acceptable

>  <inchikey>  (147) 
ZHJBQEUSNQBESV-UHFFFAOYSA-N

>  <fragmenstein_mode>  (147) 
expansion

>  <HIPPO Pose ID>  (147) 
1638

>  <Energy>  (147) 
132.955882

>  <fragmenstein_error>  (147) 


>  <tags>  (147) 
{'openbind_xx01zvns2b_c1_fragmenstein', 'fragmenstein_placed'}

>  <ref_pdb>  (147) 
1

>  <scratch_subdir>  (147) 
/opt/xchem-fragalysis-2/maxwin/BulkDock/SCRATCH/511027/C43365-P8

>  <alias>  (147) 
CC(C)NC(=O)[C@@H](Nc1ccc2c(c1)CNC2)c1cc(Cl)cc2c1nc(-c1ccccc1)n2OCNC(C)(C)CO

>  <HIPPO Compound ID>  (147) 
96830

>  <fragmenstein_runtime>  (147) 
20.56268

$$$$
CC(C)(CO)[C@H](C[C@@H]1CCNC1)Nc1cc(Cl)cc(C(=O)Nc2ccc3c(c2)CNC3)c1
     RDKit          3D

 32 35  0  0  0  0  0  0  0  0999 V2000
   -2.8028    4.9575  -19.3287 C   0  0  0  0  0  0  0  0  0  0  0  0
   -3.8861    5.8242  -20.0097 C   0  0  0  0  0  0  0  0  0  0  0  0
   -3.1504    6.8209  -20.9304 C   0  0  0  0  0  0  0  0  0  0  0  0
   -4.6952    4.8816  -20.9359 C   0  0  0  0  0  0  0  0  0  0  0  0
   -5.3868    5.5936  -21.9541 O   0  0  0  0  0  0  0  0  0  0  0  0
   -4.8065    6.5594  -18.9236 C   0  0  2  0  0  0  0  0  0  0  0  0
   -4.2375    7.9314  -18.4184 C   0  0  0  0  0  0  0  0  0  0  0  0
   -4.6235    9.1534  -19.2893 C   0  0  2  0  0  0  0  0  0  0  0  0
   -3.4176   10.0452  -19.6106 C   0  0  0  0  0  0  0  0  0  0  0  0
   -3.3953   11.1223  -18.5317 C   0  0  0  0  0  0  0  0  0  0  0  0
   -4.5842   10.8955  -17.7132 N   0  0  0  0  0  0  0  0  0  0  0  0
   -5.5157   10.1425  -18.5407 C   0  0  0  0  0  0  0  0  0  0  0  0
   -4.9469    5.7434  -17.6873 N   0  0  0  0  0  0  0  0  0  0  0  0
   -6.1045    5.2095  -17.1427 C   0  0  0  0  0  0  0  0  0  0  0  0
   -7.2532    4.9546  -17.8952 C   0  0  0  0  0  0  0  0  0  0  0  0
   -8.3787    4.3533  -17.3185 C   0  0  0  0  0  0  0  0  0  0  0  0
   -9.7601    4.0095  -18.2894 Cl  0  0  0  0  0  0  0  0  0  0  0  0
   -8.3956    4.0161  -15.9731 C   0  0  0  0  0  0  0  0  0  0  0  0
   -7.2464    4.2080  -15.2139 C   0  0  0  0  0  0  0  0  0  0  0  0
   -7.2354    3.6242  -13.8429 C   0  0  0  0  0  0  0  0  0  0  0  0
   -6.9446    2.5012  -13.7108 O   0  0  0  0  0  0  0  0  0  0  0  0
   -7.7350    4.6591  -12.8073 N   0  0  0  0  0  0  0  0  0  0  0  0
   -7.8856    4.5565  -11.4198 C   0  0  0  0  0  0  0  0  0  0  0  0
   -7.9454    5.7358  -10.6568 C   0  0  0  0  0  0  0  0  0  0  0  0
   -8.0937    5.6857   -9.2641 C   0  0  0  0  0  0  0  0  0  0  0  0
   -8.2263    4.4483   -8.6586 C   0  0  0  0  0  0  0  0  0  0  0  0
   -8.2215    3.2825   -9.4132 C   0  0  0  0  0  0  0  0  0  0  0  0
   -8.0289    3.3147  -10.7906 C   0  0  0  0  0  0  0  0  0  0  0  0
   -8.4851    2.1153   -8.5189 C   0  0  0  0  0  0  0  0  0  0  0  0
   -8.3952    2.6376   -7.1243 N   0  0  0  0  0  0  0  0  0  0  0  0
   -8.4261    4.1112   -7.2204 C   0  0  0  0  0  0  0  0  0  0  0  0
   -6.1118    4.8030  -15.7874 C   0  0  0  0  0  0  0  0  0  0  0  0
  1  2  1  0
  2  3  1  0
  2  4  1  0
  4  5  1  0
  2  6  1  0
  6  7  1  1
  8  7  1  1
  8  9  1  0
  9 10  1  0
 10 11  1  0
 11 12  1  0
  6 13  1  0
 13 14  1  0
 14 15  2  0
 15 16  1  0
 16 17  1  0
 16 18  2  0
 18 19  1  0
 19 20  1  0
 20 21  2  0
 20 22  1  0
 22 23  1  0
 23 24  2  0
 24 25  1  0
 25 26  2  0
 26 27  1  0
 27 28  2  0
 27 29  1  0
 29 30  1  0
 30 31  1  0
 19 32  2  0
 12  8  1  0
 32 14  1  0
 28 23  1  0
 31 26  1  0
M  END
>  <smiles>  (148) 
C72456-P8

>  <fragmenstein_outcome>  (148) 
acceptable

>  <inchikey>  (148) 
ALMIJXKELPAKBQ-UHFFFAOYSA-N

>  <fragmenstein_mode>  (148) 
expansion

>  <HIPPO Pose ID>  (148) 
1639

>  <Energy>  (148) 
78.346274

>  <fragmenstein_error>  (148) 


>  <tags>  (148) 
{'openbind_xx01zvns2b_c1_fragmenstein', 'fragmenstein_placed'}

>  <ref_pdb>  (148) 
1

>  <scratch_subdir>  (148) 
/opt/xchem-fragalysis-2/maxwin/BulkDock/SCRATCH/511027/C72456-P8

>  <alias>  (148) 
CC(C)(CO)[C@H](C[C@@H]1CCNC1)Nc1cc(Cl)cc(C(=O)Nc2ccc3c(c2)CNC3)c1

>  <HIPPO Compound ID>  (148) 
72456

>  <fragmenstein_runtime>  (148) 
6.599482

$$$$
CC(C)(CO)N(CN1CCOCC1)Nc1cc(Cl)cc(C(=O)Nc2ccc3c(c2)CNC3)c1
     RDKit          3D

 33 36  0  0  0  0  0  0  0  0999 V2000
   -2.5439    5.0551  -20.2824 C   0  0  0  0  0  0  0  0  0  0  0  0
   -4.0213    5.5095  -20.1854 C   0  0  0  0  0  0  0  0  0  0  0  0
   -4.0627    7.0168  -20.5428 C   0  0  0  0  0  0  0  0  0  0  0  0
   -4.7685    4.6681  -21.2936 C   0  0  0  0  0  0  0  0  0  0  0  0
   -5.3177    5.4389  -22.3608 O   0  0  0  0  0  0  0  0  0  0  0  0
   -4.5966    5.1943  -18.8157 N   0  0  0  0  0  0  0  0  0  0  0  0
   -3.7102    5.4228  -17.6484 C   0  0  0  0  0  0  0  0  0  0  0  0
   -3.1405    6.7702  -17.5406 N   0  0  0  0  0  0  0  0  0  0  0  0
   -1.8981    6.7461  -16.7396 C   0  0  0  0  0  0  0  0  0  0  0  0
   -1.2770    8.1476  -16.6358 C   0  0  0  0  0  0  0  0  0  0  0  0
   -2.1937    9.0839  -16.0569 O   0  0  0  0  0  0  0  0  0  0  0  0
   -3.3970    9.1354  -16.8338 C   0  0  0  0  0  0  0  0  0  0  0  0
   -4.0593    7.7510  -16.9349 C   0  0  0  0  0  0  0  0  0  0  0  0
   -5.9047    5.7602  -18.6530 N   0  0  0  0  0  0  0  0  0  0  0  0
   -6.8066    5.1390  -17.7373 C   0  0  0  0  0  0  0  0  0  0  0  0
   -7.9408    4.4955  -18.2254 C   0  0  0  0  0  0  0  0  0  0  0  0
   -8.9497    4.1002  -17.3511 C   0  0  0  0  0  0  0  0  0  0  0  0
  -10.4551    3.6456  -18.0347 Cl  0  0  0  0  0  0  0  0  0  0  0  0
   -8.8150    4.2392  -15.9700 C   0  0  0  0  0  0  0  0  0  0  0  0
   -7.6741    4.8482  -15.4632 C   0  0  0  0  0  0  0  0  0  0  0  0
   -7.5756    5.3074  -14.0430 C   0  0  0  0  0  0  0  0  0  0  0  0
   -7.1249    6.3727  -13.8727 O   0  0  0  0  0  0  0  0  0  0  0  0
   -8.1240    4.2761  -13.0275 N   0  0  0  0  0  0  0  0  0  0  0  0
   -8.1443    4.3005  -11.6294 C   0  0  0  0  0  0  0  0  0  0  0  0
   -7.8083    5.4695  -10.9243 C   0  0  0  0  0  0  0  0  0  0  0  0
   -7.8294    5.5015   -9.5243 C   0  0  0  0  0  0  0  0  0  0  0  0
   -8.1879    4.3510   -8.8484 C   0  0  0  0  0  0  0  0  0  0  0  0
   -8.5189    3.1910   -9.5389 C   0  0  0  0  0  0  0  0  0  0  0  0
   -8.5046    3.1487  -10.9270 C   0  0  0  0  0  0  0  0  0  0  0  0
   -8.8289    2.1119   -8.5534 C   0  0  0  0  0  0  0  0  0  0  0  0
   -8.9659    2.7986   -7.2453 N   0  0  0  0  0  0  0  0  0  0  0  0
   -8.2759    4.0947   -7.3815 C   0  0  0  0  0  0  0  0  0  0  0  0
   -6.6806    5.2883  -16.3516 C   0  0  0  0  0  0  0  0  0  0  0  0
  1  2  1  0
  2  3  1  0
  2  4  1  0
  4  5  1  0
  2  6  1  0
  6  7  1  0
  7  8  1  0
  8  9  1  0
  9 10  1  0
 10 11  1  0
 11 12  1  0
 12 13  1  0
  6 14  1  0
 14 15  1  0
 15 16  2  0
 16 17  1  0
 17 18  1  0
 17 19  2  0
 19 20  1  0
 20 21  1  0
 21 22  2  0
 21 23  1  0
 23 24  1  0
 24 25  2  0
 25 26  1  0
 26 27  2  0
 27 28  1  0
 28 29  2  0
 28 30  1  0
 30 31  1  0
 31 32  1  0
 20 33  2  0
 13  8  1  0
 33 15  1  0
 29 24  1  0
 32 27  1  0
M  END
>  <smiles>  (149) 
C72468-P8

>  <fragmenstein_outcome>  (149) 
acceptable

>  <inchikey>  (149) 
ZTJAYCLQHDEKLS-UHFFFAOYSA-N

>  <fragmenstein_mode>  (149) 
expansion

>  <HIPPO Pose ID>  (149) 
1648

>  <Energy>  (149) 
150.994972

>  <fragmenstein_error>  (149) 


>  <tags>  (149) 
{'openbind_xx01zvns2b_c1_fragmenstein', 'fragmenstein_placed'}

>  <ref_pdb>  (149) 
1

>  <scratch_subdir>  (149) 
/opt/xchem-fragalysis-2/maxwin/BulkDock/SCRATCH/511027/C72468-P8

>  <alias>  (149) 
CC(C)(CO)N(CN1CCOCC1)Nc1cc(Cl)cc(C(=O)Nc2ccc3c(c2)CNC3)c1

>  <HIPPO Compound ID>  (149) 
104430

>  <fragmenstein_runtime>  (149) 
6.894753

$$$$
NS(=O)(=O)[C@@H]1Cc2c(F)c[nH]c2[C@]2(CCCNC2)C1
     RDKit          3D

 19 21  0  0  0  0  0  0  0  0999 V2000
   -6.5214    5.5622  -12.9283 N   0  0  0  0  0  0  0  0  0  0  0  0
   -7.5294    4.3226  -13.4385 S   0  0  0  0  0  0  0  0  0  0  0  0
   -8.8536    4.8174  -13.1481 O   0  0  0  0  0  0  0  0  0  0  0  0
   -6.9819    3.1460  -12.8040 O   0  0  0  0  0  0  0  0  0  0  0  0
   -7.2629    4.2075  -15.2130 C   0  0  2  0  0  0  0  0  0  0  0  0
   -5.9209    4.8162  -15.6384 C   0  0  0  0  0  0  0  0  0  0  0  0
   -5.7825    4.7596  -17.1158 C   0  0  0  0  0  0  0  0  0  0  0  0
   -4.6718    5.0160  -17.9339 C   0  0  0  0  0  0  0  0  0  0  0  0
   -3.4593    5.3823  -17.5171 F   0  0  0  0  0  0  0  0  0  0  0  0
   -5.0389    4.8990  -19.2457 C   0  0  0  0  0  0  0  0  0  0  0  0
   -6.3685    4.5756  -19.2612 N   0  0  0  0  0  0  0  0  0  0  0  0
   -6.8450    4.5274  -17.9681 C   0  0  0  0  0  0  0  0  0  0  0  0
   -8.3066    4.4185  -17.5949 C   0  0  1  0  0  0  0  0  0  0  0  0
   -9.0872    5.1539  -18.6548 C   0  0  0  0  0  0  0  0  0  0  0  0
  -10.5620    5.1988  -18.2270 C   0  0  0  0  0  0  0  0  0  0  0  0
  -11.1005    3.9235  -18.6878 C   0  0  0  0  0  0  0  0  0  0  0  0
  -10.4011    2.8924  -18.0083 N   0  0  0  0  0  0  0  0  0  0  0  0
   -8.9713    3.1033  -17.8600 C   0  0  0  0  0  0  0  0  0  0  0  0
   -8.4378    4.7668  -16.0586 C   0  0  0  0  0  0  0  0  0  0  0  0
  1  2  1  0
  2  3  2  0
  2  4  2  0
  5  2  1  1
  5  6  1  0
  6  7  1  0
  7  8  1  0
  8  9  1  0
  8 10  2  0
 10 11  1  0
 11 12  1  0
 12 13  1  0
 13 14  1  6
 14 15  1  0
 15 16  1  0
 16 17  1  0
 17 18  1  0
 13 19  1  0
 19  5  1  0
 12  7  2  0
 18 13  1  0
M  END
>  <smiles>  (150) 
C72499-P8

>  <fragmenstein_outcome>  (150) 
acceptable

>  <inchikey>  (150) 
ROVWILVYLPIWFC-UHFFFAOYSA-N

>  <fragmenstein_mode>  (150) 
expansion

>  <HIPPO Pose ID>  (150) 
1657

>  <Energy>  (150) 
-19.81087

>  <fragmenstein_error>  (150) 


>  <tags>  (150) 
{'openbind_xx01zvns2b_c1_fragmenstein', 'fragmenstein_placed'}

>  <ref_pdb>  (150) 
1

>  <scratch_subdir>  (150) 
/opt/xchem-fragalysis-2/maxwin/BulkDock/SCRATCH/511027/C72499-P8

>  <alias>  (150) 
NS(=O)(=O)[C@@H]1Cc2c(F)c[nH]c2[C@]2(CCCNC2)C1

>  <HIPPO Compound ID>  (150) 
73094

>  <fragmenstein_runtime>  (150) 
2.917788

$$$$
COCCNC(=O)[C@@]1(c2ccc(F)cc2C(=O)Nc2ccc3c(c2)CNC3)CNCC[C@H]1C
     RDKit          3D

 33 36  0  0  0  0  0  0  0  0999 V2000
   -2.5455   10.0117  -13.1597 C   0  0  0  0  0  0  0  0  0  0  0  0
   -3.4523    9.8432  -14.2397 O   0  0  0  0  0  0  0  0  0  0  0  0
   -4.8117    9.8908  -13.7996 C   0  0  0  0  0  0  0  0  0  0  0  0
   -5.7562    9.6368  -14.9758 C   0  0  0  0  0  0  0  0  0  0  0  0
   -5.7261    8.2626  -15.4209 N   0  0  0  0  0  0  0  0  0  0  0  0
   -5.0011    7.6113  -16.6213 C   0  0  0  0  0  0  0  0  0  0  0  0
   -4.3775    8.0959  -17.4827 O   0  0  0  0  0  0  0  0  0  0  0  0
   -5.1321    6.0113  -16.5219 C   0  0  1  0  0  0  0  0  0  0  0  0
   -6.6269    5.5255  -16.7692 C   0  0  0  0  0  0  0  0  0  0  0  0
   -7.0760    5.3520  -18.1084 C   0  0  0  0  0  0  0  0  0  0  0  0
   -8.3076    4.7701  -18.4282 C   0  0  0  0  0  0  0  0  0  0  0  0
   -9.1591    4.3787  -17.4220 C   0  0  0  0  0  0  0  0  0  0  0  0
  -10.3443    3.8407  -17.7291 F   0  0  0  0  0  0  0  0  0  0  0  0
   -8.8113    4.5827  -16.1003 C   0  0  0  0  0  0  0  0  0  0  0  0
   -7.5716    5.1634  -15.7638 C   0  0  0  0  0  0  0  0  0  0  0  0
   -7.4884    5.5648  -14.3321 C   0  0  0  0  0  0  0  0  0  0  0  0
   -7.3691    6.7063  -14.1162 O   0  0  0  0  0  0  0  0  0  0  0  0
   -7.6549    4.3730  -13.3606 N   0  0  0  0  0  0  0  0  0  0  0  0
   -7.7998    4.3482  -11.9699 C   0  0  0  0  0  0  0  0  0  0  0  0
   -7.9778    3.1121  -11.3281 C   0  0  0  0  0  0  0  0  0  0  0  0
   -8.1341    3.0327   -9.9380 C   0  0  0  0  0  0  0  0  0  0  0  0
   -8.1032    4.2034   -9.2072 C   0  0  0  0  0  0  0  0  0  0  0  0
   -7.9307    5.4306   -9.8355 C   0  0  0  0  0  0  0  0  0  0  0  0
   -7.7801    5.5232  -11.2127 C   0  0  0  0  0  0  0  0  0  0  0  0
   -7.9702    6.5158   -8.8144 C   0  0  0  0  0  0  0  0  0  0  0  0
   -7.8778    5.8288   -7.4959 N   0  0  0  0  0  0  0  0  0  0  0  0
   -8.2617    4.4124   -7.7424 C   0  0  0  0  0  0  0  0  0  0  0  0
   -4.2586    5.4889  -17.7695 C   0  0  0  0  0  0  0  0  0  0  0  0
   -2.7975    5.6964  -17.7264 N   0  0  0  0  0  0  0  0  0  0  0  0
   -2.2286    5.4426  -16.4134 C   0  0  0  0  0  0  0  0  0  0  0  0
   -3.1429    4.5763  -15.5653 C   0  0  0  0  0  0  0  0  0  0  0  0
   -4.4621    5.3235  -15.2348 C   0  0  1  0  0  0  0  0  0  0  0  0
   -4.1533    6.2207  -14.0235 C   0  0  0  0  0  0  0  0  0  0  0  0
  1  2  1  0
  2  3  1  0
  3  4  1  0
  4  5  1  0
  5  6  1  0
  6  7  2  0
  8  6  1  1
  8  9  1  0
  9 10  2  0
 10 11  1  0
 11 12  2  0
 12 13  1  0
 12 14  1  0
 14 15  2  0
 15 16  1  0
 16 17  2  0
 16 18  1  0
 18 19  1  0
 19 20  2  0
 20 21  1  0
 21 22  2  0
 22 23  1  0
 23 24  2  0
 23 25  1  0
 25 26  1  0
 26 27  1  0
  8 28  1  0
 28 29  1  0
 29 30  1  0
 30 31  1  0
 31 32  1  0
 32 33  1  1
 32  8  1  0
 15  9  1  0
 24 19  1  0
 27 22  1  0
M  END
>  <smiles>  (151) 
C72624-P11

>  <fragmenstein_outcome>  (151) 
acceptable

>  <inchikey>  (151) 
AFNRSEICCPYHPJ-UHFFFAOYSA-N

>  <fragmenstein_mode>  (151) 
expansion

>  <HIPPO Pose ID>  (151) 
1734

>  <Energy>  (151) 
134.273657

>  <fragmenstein_error>  (151) 


>  <tags>  (151) 
{'openbind_xx01zvns2b_c1_fragmenstein', 'fragmenstein_placed'}

>  <ref_pdb>  (151) 
1

>  <scratch_subdir>  (151) 
/opt/xchem-fragalysis-2/maxwin/BulkDock/SCRATCH/511027/C72624-P11

>  <alias>  (151) 
COCCNC(=O)[C@@]1(c2ccc(F)cc2C(=O)Nc2ccc3c(c2)CNC3)CNCC[C@H]1C

>  <HIPPO Compound ID>  (151) 
88852

>  <fragmenstein_runtime>  (151) 
10.544642

$$$$
NC[C@@]1(c2ncccc2C(=O)Nc2ccc3c(c2)CNC3)CCC(=O)C1
     RDKit          3D

 26 29  0  0  0  0  0  0  0  0999 V2000
   -4.9196    4.7702  -19.7013 N   0  0  0  0  0  0  0  0  0  0  0  0
   -5.2065    6.0119  -18.9860 C   0  0  0  0  0  0  0  0  0  0  0  0
   -5.6691    5.7848  -17.4944 C   0  0  1  0  0  0  0  0  0  0  0  0
   -7.0798    5.1668  -17.4405 C   0  0  0  0  0  0  0  0  0  0  0  0
   -7.6083    4.8275  -18.6451 N   0  0  0  0  0  0  0  0  0  0  0  0
   -8.8790    4.3754  -18.7320 C   0  0  0  0  0  0  0  0  0  0  0  0
   -9.6770    4.1472  -17.6419 C   0  0  0  0  0  0  0  0  0  0  0  0
   -9.1247    4.3875  -16.3979 C   0  0  0  0  0  0  0  0  0  0  0  0
   -7.8391    4.9264  -16.2930 C   0  0  0  0  0  0  0  0  0  0  0  0
   -7.4189    5.2503  -14.9247 C   0  0  0  0  0  0  0  0  0  0  0  0
   -7.5307    6.3407  -14.5313 O   0  0  0  0  0  0  0  0  0  0  0  0
   -6.8449    3.9980  -14.2418 N   0  0  0  0  0  0  0  0  0  0  0  0
   -6.2236    3.8479  -13.0118 C   0  0  0  0  0  0  0  0  0  0  0  0
   -5.9573    4.9635  -12.1988 C   0  0  0  0  0  0  0  0  0  0  0  0
   -5.2810    4.8173  -10.9882 C   0  0  0  0  0  0  0  0  0  0  0  0
   -4.9085    3.5435  -10.6112 C   0  0  0  0  0  0  0  0  0  0  0  0
   -5.1858    2.4356  -11.4107 C   0  0  0  0  0  0  0  0  0  0  0  0
   -5.8266    2.5694  -12.6249 C   0  0  0  0  0  0  0  0  0  0  0  0
   -4.6874    1.2048  -10.7348 C   0  0  0  0  0  0  0  0  0  0  0  0
   -4.4371    1.6284   -9.3333 N   0  0  0  0  0  0  0  0  0  0  0  0
   -4.1907    3.0898   -9.3898 C   0  0  0  0  0  0  0  0  0  0  0  0
   -4.6170    4.9352  -16.7408 C   0  0  0  0  0  0  0  0  0  0  0  0
   -3.4569    5.8677  -16.4317 C   0  0  0  0  0  0  0  0  0  0  0  0
   -4.1432    7.1996  -16.3278 C   0  0  0  0  0  0  0  0  0  0  0  0
   -3.5936    8.2139  -15.9140 O   0  0  0  0  0  0  0  0  0  0  0  0
   -5.5633    7.1761  -16.8325 C   0  0  0  0  0  0  0  0  0  0  0  0
  1  2  1  0
  3  2  1  6
  3  4  1  0
  4  5  2  0
  5  6  1  0
  6  7  2  0
  7  8  1  0
  8  9  2  0
  9 10  1  0
 10 11  2  0
 10 12  1  0
 12 13  1  0
 13 14  2  0
 14 15  1  0
 15 16  2  0
 16 17  1  0
 17 18  2  0
 17 19  1  0
 19 20  1  0
 20 21  1  0
  3 22  1  0
 22 23  1  0
 23 24  1  0
 24 25  2  0
 24 26  1  0
 26  3  1  0
  9  4  1  0
 18 13  1  0
 21 16  1  0
M  END
>  <smiles>  (152) 
C72848-P12

>  <fragmenstein_outcome>  (152) 
acceptable

>  <inchikey>  (152) 
KNUBTFVQEFALCL-UHFFFAOYSA-N

>  <fragmenstein_mode>  (152) 
expansion

>  <HIPPO Pose ID>  (152) 
1860

>  <Energy>  (152) 
80.330177

>  <fragmenstein_error>  (152) 


>  <tags>  (152) 
{'openbind_xx01zvns2b_c1_fragmenstein', 'fragmenstein_placed'}

>  <ref_pdb>  (152) 
1

>  <scratch_subdir>  (152) 
/opt/xchem-fragalysis-2/maxwin/BulkDock/SCRATCH/511027/C72848-P12

>  <alias>  (152) 
NC[C@@]1(c2ncccc2C(=O)Nc2ccc3c(c2)CNC3)CCC(=O)C1

>  <HIPPO Compound ID>  (152) 
72848

>  <fragmenstein_runtime>  (152) 
4.615393

$$$$
NC[C@@]1(c2ncccc2C(=O)Nc2ccc3c(c2)CNC3)CCC2(CCCCC2)C1
     RDKit          3D

 30 34  0  0  0  0  0  0  0  0999 V2000
   -4.8145    4.7952  -19.5859 N   0  0  0  0  0  0  0  0  0  0  0  0
   -5.0312    6.0184  -18.8079 C   0  0  0  0  0  0  0  0  0  0  0  0
   -5.5531    5.8136  -17.3161 C   0  0  1  0  0  0  0  0  0  0  0  0
   -6.9927    5.2619  -17.3156 C   0  0  0  0  0  0  0  0  0  0  0  0
   -7.3893    4.8171  -18.5433 N   0  0  0  0  0  0  0  0  0  0  0  0
   -8.6094    4.2772  -18.7297 C   0  0  0  0  0  0  0  0  0  0  0  0
   -9.4899    4.0576  -17.7077 C   0  0  0  0  0  0  0  0  0  0  0  0
   -9.0847    4.4273  -16.4380 C   0  0  0  0  0  0  0  0  0  0  0  0
   -7.8515    5.0672  -16.2222 C   0  0  0  0  0  0  0  0  0  0  0  0
   -7.7743    5.7222  -14.8931 C   0  0  0  0  0  0  0  0  0  0  0  0
   -7.6807    6.8847  -14.8932 O   0  0  0  0  0  0  0  0  0  0  0  0
   -7.9361    4.7295  -13.7171 N   0  0  0  0  0  0  0  0  0  0  0  0
   -7.9213    4.9475  -12.3390 C   0  0  0  0  0  0  0  0  0  0  0  0
   -7.7184    6.2491  -11.8431 C   0  0  0  0  0  0  0  0  0  0  0  0
   -7.7190    6.5110  -10.4717 C   0  0  0  0  0  0  0  0  0  0  0  0
   -7.9276    5.4532   -9.6094 C   0  0  0  0  0  0  0  0  0  0  0  0
   -8.1621    4.1693  -10.0908 C   0  0  0  0  0  0  0  0  0  0  0  0
   -8.1583    3.8927  -11.4539 C   0  0  0  0  0  0  0  0  0  0  0  0
   -8.4379    3.2570   -8.9412 C   0  0  0  0  0  0  0  0  0  0  0  0
   -8.1149    4.0365   -7.7090 N   0  0  0  0  0  0  0  0  0  0  0  0
   -7.9679    5.4494   -8.1213 C   0  0  0  0  0  0  0  0  0  0  0  0
   -4.6339    4.8362  -16.5531 C   0  0  0  0  0  0  0  0  0  0  0  0
   -3.4468    5.6767  -16.1180 C   0  0  0  0  0  0  0  0  0  0  0  0
   -4.0637    7.0159  -15.6749 C   0  0  0  0  0  0  0  0  0  0  0  0
   -4.5402    6.9463  -14.1967 C   0  0  0  0  0  0  0  0  0  0  0  0
   -3.4607    7.4008  -13.2188 C   0  0  0  0  0  0  0  0  0  0  0  0
   -3.0918    8.8681  -13.4465 C   0  0  0  0  0  0  0  0  0  0  0  0
   -3.2487    9.3082  -14.9035 C   0  0  0  0  0  0  0  0  0  0  0  0
   -3.0148    8.1441  -15.8588 C   0  0  0  0  0  0  0  0  0  0  0  0
   -5.2800    7.1894  -16.6352 C   0  0  0  0  0  0  0  0  0  0  0  0
  1  2  1  0
  3  2  1  6
  3  4  1  0
  4  5  2  0
  5  6  1  0
  6  7  2  0
  7  8  1  0
  8  9  2  0
  9 10  1  0
 10 11  2  0
 10 12  1  0
 12 13  1  0
 13 14  2  0
 14 15  1  0
 15 16  2  0
 16 17  1  0
 17 18  2  0
 17 19  1  0
 19 20  1  0
 20 21  1  0
  3 22  1  0
 22 23  1  0
 23 24  1  0
 24 25  1  0
 25 26  1  0
 26 27  1  0
 27 28  1  0
 28 29  1  0
 24 30  1  0
 30  3  1  0
  9  4  1  0
 18 13  1  0
 29 24  1  0
 21 16  1  0
M  END
>  <smiles>  (153) 
C72849-P12

>  <fragmenstein_outcome>  (153) 
acceptable

>  <inchikey>  (153) 
VPHFWBQPDNCNJI-UHFFFAOYSA-N

>  <fragmenstein_mode>  (153) 
expansion

>  <HIPPO Pose ID>  (153) 
1861

>  <Energy>  (153) 
125.266775

>  <fragmenstein_error>  (153) 


>  <tags>  (153) 
{'openbind_xx01zvns2b_c1_fragmenstein', 'fragmenstein_placed'}

>  <ref_pdb>  (153) 
1

>  <scratch_subdir>  (153) 
/opt/xchem-fragalysis-2/maxwin/BulkDock/SCRATCH/511027/C72849-P12

>  <alias>  (153) 
NC[C@@]1(c2ncccc2C(=O)Nc2ccc3c(c2)CNC3)CCC2(CCCCC2)C1

>  <HIPPO Compound ID>  (153) 
72849

>  <fragmenstein_runtime>  (153) 
14.252854

$$$$
NCc1cccc(NC(=O)c2cccnc2C2(CN)CCCC2)c1
     RDKit          3D

 24 26  0  0  0  0  0  0  0  0999 V2000
   -2.2379    1.8669  -11.0009 N   0  0  0  0  0  0  0  0  0  0  0  0
   -3.3951    1.1056  -11.4690 C   0  0  0  0  0  0  0  0  0  0  0  0
   -4.6067    1.9843  -11.6453 C   0  0  0  0  0  0  0  0  0  0  0  0
   -5.3517    2.3861  -10.5272 C   0  0  0  0  0  0  0  0  0  0  0  0
   -6.4560    3.2223  -10.6777 C   0  0  0  0  0  0  0  0  0  0  0  0
   -6.8245    3.6722  -11.9449 C   0  0  0  0  0  0  0  0  0  0  0  0
   -6.1063    3.2714  -13.0640 C   0  0  0  0  0  0  0  0  0  0  0  0
   -6.5149    3.6671  -14.3305 N   0  0  0  0  0  0  0  0  0  0  0  0
   -7.3574    4.8792  -14.7786 C   0  0  0  0  0  0  0  0  0  0  0  0
   -7.7764    5.7783  -14.1637 O   0  0  0  0  0  0  0  0  0  0  0  0
   -7.7208    4.7478  -16.2036 C   0  0  0  0  0  0  0  0  0  0  0  0
   -9.0351    4.2953  -16.3871 C   0  0  0  0  0  0  0  0  0  0  0  0
   -9.5596    4.1414  -17.6568 C   0  0  0  0  0  0  0  0  0  0  0  0
   -8.7180    4.3869  -18.7097 C   0  0  0  0  0  0  0  0  0  0  0  0
   -7.4394    4.7989  -18.5602 N   0  0  0  0  0  0  0  0  0  0  0  0
   -6.9336    5.0459  -17.3187 C   0  0  0  0  0  0  0  0  0  0  0  0
   -5.5498    5.7189  -17.3173 C   0  0  0  0  0  0  0  0  0  0  0  0
   -5.1628    6.2185  -18.7666 C   0  0  0  0  0  0  0  0  0  0  0  0
   -4.8816    5.1325  -19.7115 N   0  0  0  0  0  0  0  0  0  0  0  0
   -4.4148    4.8046  -16.7887 C   0  0  0  0  0  0  0  0  0  0  0  0
   -3.4817    5.7306  -16.0247 C   0  0  0  0  0  0  0  0  0  0  0  0
   -4.4316    6.6960  -15.3443 C   0  0  0  0  0  0  0  0  0  0  0  0
   -5.5054    6.9729  -16.3925 C   0  0  0  0  0  0  0  0  0  0  0  0
   -5.0063    2.4207  -12.9197 C   0  0  0  0  0  0  0  0  0  0  0  0
  1  2  1  0
  2  3  1  0
  3  4  2  0
  4  5  1  0
  5  6  2  0
  6  7  1  0
  7  8  1  0
  8  9  1  0
  9 10  2  0
  9 11  1  0
 11 12  2  0
 12 13  1  0
 13 14  2  0
 14 15  1  0
 15 16  2  0
 16 17  1  0
 17 18  1  0
 18 19  1  0
 17 20  1  0
 20 21  1  0
 21 22  1  0
 22 23  1  0
  7 24  2  0
 24  3  1  0
 16 11  1  0
 23 17  1  0
M  END
>  <smiles>  (154) 
C72861-P12

>  <fragmenstein_outcome>  (154) 
acceptable

>  <inchikey>  (154) 
WMQMSZIEJFTERG-UHFFFAOYSA-N

>  <fragmenstein_mode>  (154) 
expansion

>  <HIPPO Pose ID>  (154) 
1873

>  <Energy>  (154) 
87.833023

>  <fragmenstein_error>  (154) 


>  <tags>  (154) 
{'openbind_xx01zvns2b_c1_fragmenstein', 'fragmenstein_placed'}

>  <ref_pdb>  (154) 
1

>  <scratch_subdir>  (154) 
/opt/xchem-fragalysis-2/maxwin/BulkDock/SCRATCH/511027/C72861-P12

>  <alias>  (154) 
NCc1cccc(NC(=O)c2cccnc2C2(CN)CCCC2)c1

>  <HIPPO Compound ID>  (154) 
72861

>  <fragmenstein_runtime>  (154) 
5.970936

$$$$
CC(C)([C@@H]1Nc2c(cc(F)cc2C(=O)Nc2ccc3c(c2)CNC3)C[C@@]12CCCN2)S(C)(=O)=O
     RDKit          3D

 34 38  0  0  0  0  0  0  0  0999 V2000
   -2.8094    4.4899  -18.3889 C   0  0  0  0  0  0  0  0  0  0  0  0
   -3.3425    5.2681  -17.1850 C   0  0  0  0  0  0  0  0  0  0  0  0
   -3.6217    4.2879  -16.0266 C   0  0  0  0  0  0  0  0  0  0  0  0
   -4.5603    6.2178  -17.5225 C   0  0  2  0  0  0  0  0  0  0  0  0
   -5.6116    6.0501  -16.4966 N   0  0  0  0  0  0  0  0  0  0  0  0
   -6.8437    5.4477  -16.7383 C   0  0  0  0  0  0  0  0  0  0  0  0
   -7.1600    4.9554  -18.0124 C   0  0  0  0  0  0  0  0  0  0  0  0
   -8.4172    4.3993  -18.2767 C   0  0  0  0  0  0  0  0  0  0  0  0
   -9.3456    4.2917  -17.2611 C   0  0  0  0  0  0  0  0  0  0  0  0
  -10.5647    3.8233  -17.5430 F   0  0  0  0  0  0  0  0  0  0  0  0
   -9.0312    4.6738  -15.9672 C   0  0  0  0  0  0  0  0  0  0  0  0
   -7.7819    5.2437  -15.6994 C   0  0  0  0  0  0  0  0  0  0  0  0
   -7.4861    5.7229  -14.3138 C   0  0  0  0  0  0  0  0  0  0  0  0
   -6.9695    6.7671  -14.1923 O   0  0  0  0  0  0  0  0  0  0  0  0
   -7.9188    4.6831  -13.2435 N   0  0  0  0  0  0  0  0  0  0  0  0
   -7.8929    4.7525  -11.8513 C   0  0  0  0  0  0  0  0  0  0  0  0
   -7.4265    5.9015  -11.1914 C   0  0  0  0  0  0  0  0  0  0  0  0
   -7.3966    5.9637   -9.7945 C   0  0  0  0  0  0  0  0  0  0  0  0
   -7.8308    4.8620   -9.0805 C   0  0  0  0  0  0  0  0  0  0  0  0
   -8.2961    3.7234   -9.7280 C   0  0  0  0  0  0  0  0  0  0  0  0
   -8.3390    3.6509  -11.1130 C   0  0  0  0  0  0  0  0  0  0  0  0
   -8.7262    2.7173   -8.7115 C   0  0  0  0  0  0  0  0  0  0  0  0
   -8.2780    3.2496   -7.3962 N   0  0  0  0  0  0  0  0  0  0  0  0
   -7.9276    4.6693   -7.6062 C   0  0  0  0  0  0  0  0  0  0  0  0
   -6.1509    5.0155  -19.1181 C   0  0  0  0  0  0  0  0  0  0  0  0
   -5.1972    6.2158  -18.9727 C   0  0  1  0  0  0  0  0  0  0  0  0
   -5.9729    7.5471  -19.1978 C   0  0  0  0  0  0  0  0  0  0  0  0
   -5.3532    8.1922  -20.4252 C   0  0  0  0  0  0  0  0  0  0  0  0
   -3.9759    7.5873  -20.4787 C   0  0  0  0  0  0  0  0  0  0  0  0
   -4.2212    6.2025  -20.0984 N   0  0  0  0  0  0  0  0  0  0  0  0
   -1.9134    6.3287  -16.6347 S   0  0  0  0  0  0  0  0  0  0  0  0
   -2.5019    7.3258  -15.2777 C   0  0  0  0  0  0  0  0  0  0  0  0
   -0.8797    5.4694  -16.0829 O   0  0  0  0  0  0  0  0  0  0  0  0
   -1.5738    7.2327  -17.7173 O   0  0  0  0  0  0  0  0  0  0  0  0
  1  2  1  0
  2  3  1  0
  4  2  1  6
  4  5  1  0
  5  6  1  0
  6  7  2  0
  7  8  1  0
  8  9  2  0
  9 10  1  0
  9 11  1  0
 11 12  2  0
 12 13  1  0
 13 14  2  0
 13 15  1  0
 15 16  1  0
 16 17  2  0
 17 18  1  0
 18 19  2  0
 19 20  1  0
 20 21  2  0
 20 22  1  0
 22 23  1  0
 23 24  1  0
  7 25  1  0
 26 25  1  1
 26 27  1  0
 27 28  1  0
 28 29  1  0
 29 30  1  0
  2 31  1  0
 31 32  1  0
 31 33  2  0
 31 34  2  0
 26  4  1  0
 12  6  1  0
 21 16  1  0
 30 26  1  0
 24 19  1  0
M  END
>  <smiles>  (155) 
C73116-P13

>  <fragmenstein_outcome>  (155) 
acceptable

>  <inchikey>  (155) 
OMLFDHLRLPOFIX-UHFFFAOYSA-N

>  <fragmenstein_mode>  (155) 
expansion

>  <HIPPO Pose ID>  (155) 
2008

>  <Energy>  (155) 
112.422692

>  <fragmenstein_error>  (155) 


>  <tags>  (155) 
{'openbind_xx01zvns2b_c1_fragmenstein', 'fragmenstein_placed'}

>  <ref_pdb>  (155) 
1

>  <scratch_subdir>  (155) 
/opt/xchem-fragalysis-2/maxwin/BulkDock/SCRATCH/511027/C73116-P13

>  <alias>  (155) 
CC(C)([C@@H]1Nc2c(cc(F)cc2C(=O)Nc2ccc3c(c2)CNC3)C[C@@]12CCCN2)S(C)(=O)=O

>  <HIPPO Compound ID>  (155) 
82444

>  <fragmenstein_runtime>  (155) 
5.340139

$$$$
COc1cc(-c2cc(NC(=O)c3cc(F)cc4c3NC(=O)[C@]3(CCCN3)C4)cc3c2CNC3)ccn1
     RDKit          3D

 36 41  0  0  0  0  0  0  0  0999 V2000
    1.0742   -0.8949  -12.6388 C   0  0  0  0  0  0  0  0  0  0  0  0
   -0.2657   -0.4349  -12.8069 O   0  0  0  0  0  0  0  0  0  0  0  0
   -0.4371    0.8646  -12.3683 C   0  0  0  0  0  0  0  0  0  0  0  0
   -1.7426    1.2957  -12.1771 C   0  0  0  0  0  0  0  0  0  0  0  0
   -1.9679    2.6304  -11.8282 C   0  0  0  0  0  0  0  0  0  0  0  0
   -3.3233    3.1798  -11.7027 C   0  0  0  0  0  0  0  0  0  0  0  0
   -4.1539    3.2839  -12.8368 C   0  0  0  0  0  0  0  0  0  0  0  0
   -5.3952    3.9455  -12.7835 C   0  0  0  0  0  0  0  0  0  0  0  0
   -6.1329    4.0568  -13.9583 N   0  0  0  0  0  0  0  0  0  0  0  0
   -7.3870    4.9040  -14.2811 C   0  0  0  0  0  0  0  0  0  0  0  0
   -8.0416    5.5809  -13.5903 O   0  0  0  0  0  0  0  0  0  0  0  0
   -7.7466    4.7747  -15.7159 C   0  0  0  0  0  0  0  0  0  0  0  0
   -9.0763    4.4601  -16.0045 C   0  0  0  0  0  0  0  0  0  0  0  0
   -9.4764    4.3057  -17.3227 C   0  0  0  0  0  0  0  0  0  0  0  0
  -10.7436    3.9799  -17.5997 F   0  0  0  0  0  0  0  0  0  0  0  0
   -8.5723    4.4558  -18.3616 C   0  0  0  0  0  0  0  0  0  0  0  0
   -7.2413    4.7863  -18.0823 C   0  0  0  0  0  0  0  0  0  0  0  0
   -6.8235    4.9646  -16.7568 C   0  0  0  0  0  0  0  0  0  0  0  0
   -5.4773    5.2933  -16.5142 N   0  0  0  0  0  0  0  0  0  0  0  0
   -4.5422    5.5416  -17.4947 C   0  0  0  0  0  0  0  0  0  0  0  0
   -3.3539    5.6206  -17.1830 O   0  0  0  0  0  0  0  0  0  0  0  0
   -5.1000    5.8221  -18.9100 C   0  0  1  0  0  0  0  0  0  0  0  0
   -5.5714    7.2875  -19.0022 C   0  0  0  0  0  0  0  0  0  0  0  0
   -4.8464    7.8512  -20.2102 C   0  0  0  0  0  0  0  0  0  0  0  0
   -3.5814    7.0267  -20.2669 C   0  0  0  0  0  0  0  0  0  0  0  0
   -4.0309    5.6705  -19.9536 N   0  0  0  0  0  0  0  0  0  0  0  0
   -6.2330    4.8357  -19.1921 C   0  0  0  0  0  0  0  0  0  0  0  0
   -5.8494    4.4935  -11.5873 C   0  0  0  0  0  0  0  0  0  0  0  0
   -5.0621    4.3391  -10.4590 C   0  0  0  0  0  0  0  0  0  0  0  0
   -3.8269    3.6923  -10.5099 C   0  0  0  0  0  0  0  0  0  0  0  0
   -3.2266    3.7052   -9.1415 C   0  0  0  0  0  0  0  0  0  0  0  0
   -4.2992    4.1639   -8.2206 N   0  0  0  0  0  0  0  0  0  0  0  0
   -5.3206    4.8241   -9.0734 C   0  0  0  0  0  0  0  0  0  0  0  0
   -0.8530    3.4617  -11.6703 C   0  0  0  0  0  0  0  0  0  0  0  0
    0.4119    2.9384  -11.8813 C   0  0  0  0  0  0  0  0  0  0  0  0
    0.6445    1.6613  -12.2432 N   0  0  0  0  0  0  0  0  0  0  0  0
  1  2  1  0
  2  3  1  0
  3  4  2  0
  4  5  1  0
  5  6  1  0
  6  7  2  0
  7  8  1  0
  8  9  1  0
  9 10  1  0
 10 11  2  0
 10 12  1  0
 12 13  2  0
 13 14  1  0
 14 15  1  0
 14 16  2  0
 16 17  1  0
 17 18  2  0
 18 19  1  0
 19 20  1  0
 20 21  2  0
 20 22  1  0
 22 23  1  1
 23 24  1  0
 24 25  1  0
 25 26  1  0
 22 27  1  0
  8 28  2  0
 28 29  1  0
 29 30  2  0
 30 31  1  0
 31 32  1  0
 32 33  1  0
  5 34  2  0
 34 35  1  0
 35 36  2  0
 36  3  1  0
 30  6  1  0
 18 12  1  0
 26 22  1  0
 33 29  1  0
 27 17  1  0
M  END
>  <smiles>  (156) 
C73121-P13

>  <fragmenstein_outcome>  (156) 
acceptable

>  <inchikey>  (156) 
XTKFLNRSGAKQCB-UHFFFAOYSA-N

>  <fragmenstein_mode>  (156) 
expansion

>  <HIPPO Pose ID>  (156) 
2010

>  <Energy>  (156) 
81.935484

>  <fragmenstein_error>  (156) 


>  <tags>  (156) 
{'openbind_xx01zvns2b_c1_fragmenstein', 'fragmenstein_placed'}

>  <ref_pdb>  (156) 
1

>  <scratch_subdir>  (156) 
/opt/xchem-fragalysis-2/maxwin/BulkDock/SCRATCH/511027/C73121-P13

>  <alias>  (156) 
COc1cc(-c2cc(NC(=O)c3cc(F)cc4c3NC(=O)[C@]3(CCCN3)C4)cc3c2CNC3)ccn1

>  <HIPPO Compound ID>  (156) 
86004

>  <fragmenstein_runtime>  (156) 
4.860145

$$$$
N#Cc1cc2c(cc1NC(=O)c1cc(F)cc3c1NC(=O)[C@]1(CCCN1)C3)CNC2
     RDKit          3D

 30 34  0  0  0  0  0  0  0  0999 V2000
   -9.8075    8.5424  -12.8477 N   0  0  0  0  0  0  0  0  0  0  0  0
   -9.1570    7.8491  -12.1832 C   0  0  0  0  0  0  0  0  0  0  0  0
   -8.3346    6.9813  -11.3965 C   0  0  0  0  0  0  0  0  0  0  0  0
   -8.2289    7.2459  -10.0211 C   0  0  0  0  0  0  0  0  0  0  0  0
   -7.3819    6.4586   -9.2665 C   0  0  0  0  0  0  0  0  0  0  0  0
   -6.6609    5.4204   -9.8469 C   0  0  0  0  0  0  0  0  0  0  0  0
   -6.7652    5.1332  -11.2001 C   0  0  0  0  0  0  0  0  0  0  0  0
   -7.6141    5.9165  -11.9928 C   0  0  0  0  0  0  0  0  0  0  0  0
   -7.7405    5.6450  -13.3662 N   0  0  0  0  0  0  0  0  0  0  0  0
   -7.0395    4.5838  -14.2507 C   0  0  0  0  0  0  0  0  0  0  0  0
   -6.1922    3.8220  -13.9914 O   0  0  0  0  0  0  0  0  0  0  0  0
   -7.5581    4.6295  -15.6457 C   0  0  0  0  0  0  0  0  0  0  0  0
   -8.9231    4.4349  -15.8860 C   0  0  0  0  0  0  0  0  0  0  0  0
   -9.3907    4.4159  -17.1969 C   0  0  0  0  0  0  0  0  0  0  0  0
  -10.6922    4.2291  -17.4458 F   0  0  0  0  0  0  0  0  0  0  0  0
   -8.5275    4.5851  -18.2681 C   0  0  0  0  0  0  0  0  0  0  0  0
   -7.1670    4.7991  -18.0335 C   0  0  0  0  0  0  0  0  0  0  0  0
   -6.6774    4.8239  -16.7214 C   0  0  0  0  0  0  0  0  0  0  0  0
   -5.2995    5.0105  -16.5205 N   0  0  0  0  0  0  0  0  0  0  0  0
   -4.3950    5.3153  -17.5121 C   0  0  0  0  0  0  0  0  0  0  0  0
   -3.1912    5.3160  -17.2530 O   0  0  0  0  0  0  0  0  0  0  0  0
   -4.9977    5.7632  -18.8651 C   0  0  1  0  0  0  0  0  0  0  0  0
   -5.3861    7.2543  -18.8051 C   0  0  0  0  0  0  0  0  0  0  0  0
   -4.7779    7.8547  -20.0579 C   0  0  0  0  0  0  0  0  0  0  0  0
   -3.5444    7.0083  -20.2689 C   0  0  0  0  0  0  0  0  0  0  0  0
   -3.9880    5.6475  -19.9717 N   0  0  0  0  0  0  0  0  0  0  0  0
   -6.2034    4.8748  -19.1809 C   0  0  0  0  0  0  0  0  0  0  0  0
   -5.8654    4.7314   -8.7859 C   0  0  0  0  0  0  0  0  0  0  0  0
   -5.8722    5.6700   -7.6305 N   0  0  0  0  0  0  0  0  0  0  0  0
   -7.0858    6.5062   -7.8051 C   0  0  0  0  0  0  0  0  0  0  0  0
  1  2  3  0
  2  3  1  0
  3  4  2  0
  4  5  1  0
  5  6  2  0
  6  7  1  0
  7  8  2  0
  8  9  1  0
  9 10  1  0
 10 11  2  0
 10 12  1  0
 12 13  2  0
 13 14  1  0
 14 15  1  0
 14 16  2  0
 16 17  1  0
 17 18  2  0
 18 19  1  0
 19 20  1  0
 20 21  2  0
 20 22  1  0
 22 23  1  1
 23 24  1  0
 24 25  1  0
 25 26  1  0
 22 27  1  0
  6 28  1  0
 28 29  1  0
 29 30  1  0
  8  3  1  0
 18 12  1  0
 26 22  1  0
 30  5  1  0
 27 17  1  0
M  END
>  <smiles>  (157) 
C73114-P13

>  <fragmenstein_outcome>  (157) 
acceptable

>  <inchikey>  (157) 
HOCOHSBCGZRWME-UHFFFAOYSA-N

>  <fragmenstein_mode>  (157) 
expansion

>  <HIPPO Pose ID>  (157) 
2011

>  <Energy>  (157) 
103.277913

>  <fragmenstein_error>  (157) 


>  <tags>  (157) 
{'openbind_xx01zvns2b_c1_fragmenstein', 'fragmenstein_placed'}

>  <ref_pdb>  (157) 
1

>  <scratch_subdir>  (157) 
/opt/xchem-fragalysis-2/maxwin/BulkDock/SCRATCH/511027/C73114-P13

>  <alias>  (157) 
N#Cc1cc2c(cc1NC(=O)c1cc(F)cc3c1NC(=O)[C@]1(CCCN1)C3)CNC2

>  <HIPPO Compound ID>  (157) 
86805

>  <fragmenstein_runtime>  (157) 
1.755137

$$$$
O=C(Nc1cnc2c(c1)CNC2)c1cc(F)cc2c1NC(=O)[C@]1(CCCN1)C2
     RDKit          3D

 28 32  0  0  0  0  0  0  0  0999 V2000
   -6.6177    6.0453  -14.1854 O   0  0  0  0  0  0  0  0  0  0  0  0
   -7.3606    5.1541  -14.3318 C   0  0  0  0  0  0  0  0  0  0  0  0
   -8.0486    4.2377  -13.2872 N   0  0  0  0  0  0  0  0  0  0  0  0
   -8.0396    4.2873  -11.8921 C   0  0  0  0  0  0  0  0  0  0  0  0
   -8.7087    3.3193  -11.1342 C   0  0  0  0  0  0  0  0  0  0  0  0
   -8.7652    3.3030   -9.7790 N   0  0  0  0  0  0  0  0  0  0  0  0
   -8.1166    4.3059   -9.1739 C   0  0  0  0  0  0  0  0  0  0  0  0
   -7.4346    5.3127   -9.8309 C   0  0  0  0  0  0  0  0  0  0  0  0
   -7.3771    5.3107  -11.2123 C   0  0  0  0  0  0  0  0  0  0  0  0
   -6.8432    6.2450   -8.8350 C   0  0  0  0  0  0  0  0  0  0  0  0
   -7.4993    5.9296   -7.5374 N   0  0  0  0  0  0  0  0  0  0  0  0
   -8.0065    4.5275   -7.6916 C   0  0  0  0  0  0  0  0  0  0  0  0
   -7.7410    4.8252  -15.7413 C   0  0  0  0  0  0  0  0  0  0  0  0
   -9.0676    4.5075  -16.0519 C   0  0  0  0  0  0  0  0  0  0  0  0
   -9.4449    4.3242  -17.3786 C   0  0  0  0  0  0  0  0  0  0  0  0
  -10.7173    4.0523  -17.6839 F   0  0  0  0  0  0  0  0  0  0  0  0
   -8.5288    4.4390  -18.4071 C   0  0  0  0  0  0  0  0  0  0  0  0
   -7.2050    4.7672  -18.1156 C   0  0  0  0  0  0  0  0  0  0  0  0
   -6.8063    4.9697  -16.7874 C   0  0  0  0  0  0  0  0  0  0  0  0
   -5.4560    5.2754  -16.5408 N   0  0  0  0  0  0  0  0  0  0  0  0
   -4.5114    5.5266  -17.5099 C   0  0  0  0  0  0  0  0  0  0  0  0
   -3.3240    5.6114  -17.1961 O   0  0  0  0  0  0  0  0  0  0  0  0
   -5.0639    5.8111  -18.9265 C   0  0  1  0  0  0  0  0  0  0  0  0
   -5.5436    7.2750  -19.0124 C   0  0  0  0  0  0  0  0  0  0  0  0
   -4.8143    7.8512  -20.2118 C   0  0  0  0  0  0  0  0  0  0  0  0
   -3.5464    7.0313  -20.2695 C   0  0  0  0  0  0  0  0  0  0  0  0
   -3.9936    5.6714  -19.9708 N   0  0  0  0  0  0  0  0  0  0  0  0
   -6.1900    4.8199  -19.2175 C   0  0  0  0  0  0  0  0  0  0  0  0
  1  2  2  0
  2  3  1  0
  3  4  1  0
  4  5  2  0
  5  6  1  0
  6  7  2  0
  7  8  1  0
  8  9  2  0
  8 10  1  0
 10 11  1  0
 11 12  1  0
  2 13  1  0
 13 14  2  0
 14 15  1  0
 15 16  1  0
 15 17  2  0
 17 18  1  0
 18 19  2  0
 19 20  1  0
 20 21  1  0
 21 22  2  0
 21 23  1  0
 23 24  1  1
 24 25  1  0
 25 26  1  0
 26 27  1  0
 23 28  1  0
  9  4  1  0
 19 13  1  0
 27 23  1  0
 12  7  1  0
 28 18  1  0
M  END
>  <smiles>  (158) 
C73147-P13

>  <fragmenstein_outcome>  (158) 
acceptable

>  <inchikey>  (158) 
IPBSMSAKCAVCKY-UHFFFAOYSA-N

>  <fragmenstein_mode>  (158) 
expansion

>  <HIPPO Pose ID>  (158) 
2017

>  <Energy>  (158) 
115.208998

>  <fragmenstein_error>  (158) 


>  <tags>  (158) 
{'openbind_xx01zvns2b_c1_fragmenstein', 'fragmenstein_placed'}

>  <ref_pdb>  (158) 
1

>  <scratch_subdir>  (158) 
/opt/xchem-fragalysis-2/maxwin/BulkDock/SCRATCH/511027/C73147-P13

>  <alias>  (158) 
O=C(Nc1cnc2c(c1)CNC2)c1cc(F)cc2c1NC(=O)[C@]1(CCCN1)C2

>  <HIPPO Compound ID>  (158) 
88264

>  <fragmenstein_runtime>  (158) 
1.851264

$$$$
N[C@H]1c2cccc(C(=O)Nc3ccc4c(c3)CNC4)c2NC(=O)[C@]12CCCN2
     RDKit          3D

 28 32  0  0  0  0  0  0  0  0999 V2000
   -6.1970    4.1287  -19.7327 N   0  0  0  0  0  0  0  0  0  0  0  0
   -6.3860    5.3464  -18.9609 C   0  0  1  0  0  0  0  0  0  0  0  0
   -7.2849    5.0531  -17.7970 C   0  0  0  0  0  0  0  0  0  0  0  0
   -8.6359    4.7269  -18.0339 C   0  0  0  0  0  0  0  0  0  0  0  0
   -9.4871    4.4250  -16.9817 C   0  0  0  0  0  0  0  0  0  0  0  0
   -9.0028    4.4840  -15.6817 C   0  0  0  0  0  0  0  0  0  0  0  0
   -7.6671    4.8301  -15.4372 C   0  0  0  0  0  0  0  0  0  0  0  0
   -7.2508    5.1184  -14.0401 C   0  0  0  0  0  0  0  0  0  0  0  0
   -6.2901    4.6343  -13.5865 O   0  0  0  0  0  0  0  0  0  0  0  0
   -8.2460    6.1375  -13.4298 N   0  0  0  0  0  0  0  0  0  0  0  0
   -8.2127    6.8154  -12.2195 C   0  0  0  0  0  0  0  0  0  0  0  0
   -9.1588    7.8381  -12.0265 C   0  0  0  0  0  0  0  0  0  0  0  0
   -9.2114    8.5395  -10.8177 C   0  0  0  0  0  0  0  0  0  0  0  0
   -8.3169    8.1902   -9.8233 C   0  0  0  0  0  0  0  0  0  0  0  0
   -7.3737    7.1856  -10.0221 C   0  0  0  0  0  0  0  0  0  0  0  0
   -7.2993    6.4906  -11.2177 C   0  0  0  0  0  0  0  0  0  0  0  0
   -6.5376    7.0473   -8.7958 C   0  0  0  0  0  0  0  0  0  0  0  0
   -7.2612    7.8035   -7.7370 N   0  0  0  0  0  0  0  0  0  0  0  0
   -8.1505    8.7546   -8.4537 C   0  0  0  0  0  0  0  0  0  0  0  0
   -6.7872    5.0613  -16.4963 C   0  0  0  0  0  0  0  0  0  0  0  0
   -5.4165    5.2564  -16.2738 N   0  0  0  0  0  0  0  0  0  0  0  0
   -4.4905    5.4584  -17.2671 C   0  0  0  0  0  0  0  0  0  0  0  0
   -3.2926    5.3014  -17.0241 O   0  0  0  0  0  0  0  0  0  0  0  0
   -5.0357    6.0301  -18.5901 C   0  0  2  0  0  0  0  0  0  0  0  0
   -5.2089    7.5552  -18.4524 C   0  0  0  0  0  0  0  0  0  0  0  0
   -4.6319    8.1519  -19.7337 C   0  0  0  0  0  0  0  0  0  0  0  0
   -4.3149    6.9686  -20.6246 C   0  0  0  0  0  0  0  0  0  0  0  0
   -4.0113    5.9056  -19.6799 N   0  0  0  0  0  0  0  0  0  0  0  0
  2  1  1  1
  2  3  1  0
  3  4  2  0
  4  5  1  0
  5  6  2  0
  6  7  1  0
  7  8  1  0
  8  9  2  0
  8 10  1  0
 10 11  1  0
 11 12  2  0
 12 13  1  0
 13 14  2  0
 14 15  1  0
 15 16  2  0
 15 17  1  0
 17 18  1  0
 18 19  1  0
  7 20  2  0
 20 21  1  0
 21 22  1  0
 22 23  2  0
 22 24  1  0
 24 25  1  1
 25 26  1  0
 26 27  1  0
 27 28  1  0
 24  2  1  0
 20  3  1  0
 28 24  1  0
 16 11  1  0
 19 14  1  0
M  END
>  <smiles>  (159) 
C73148-P13

>  <fragmenstein_outcome>  (159) 
acceptable

>  <inchikey>  (159) 
HHQAUZOIBZQECJ-UHFFFAOYSA-N

>  <fragmenstein_mode>  (159) 
expansion

>  <HIPPO Pose ID>  (159) 
2018

>  <Energy>  (159) 
122.073422

>  <fragmenstein_error>  (159) 


>  <tags>  (159) 
{'openbind_xx01zvns2b_c1_fragmenstein', 'fragmenstein_placed'}

>  <ref_pdb>  (159) 
1

>  <scratch_subdir>  (159) 
/opt/xchem-fragalysis-2/maxwin/BulkDock/SCRATCH/511027/C73148-P13

>  <alias>  (159) 
N[C@H]1c2cccc(C(=O)Nc3ccc4c(c3)CNC4)c2NC(=O)[C@]12CCCN2

>  <HIPPO Compound ID>  (159) 
82819

>  <fragmenstein_runtime>  (159) 
2.609113

$$$$
O=C(Oc1ccc2c(c1)CNC2)c1cccc2c1NC(=O)[C@]1(CCCN1)C2
     RDKit          3D

 27 31  0  0  0  0  0  0  0  0999 V2000
   -6.1516    4.9050  -13.9233 O   0  0  0  0  0  0  0  0  0  0  0  0
   -7.3138    4.7827  -14.2865 C   0  0  0  0  0  0  0  0  0  0  0  0
   -8.4425    4.7663  -13.4902 O   0  0  0  0  0  0  0  0  0  0  0  0
   -8.1919    4.9125  -12.1232 C   0  0  0  0  0  0  0  0  0  0  0  0
   -7.9050    6.1833  -11.6056 C   0  0  0  0  0  0  0  0  0  0  0  0
   -7.7411    6.3510  -10.2291 C   0  0  0  0  0  0  0  0  0  0  0  0
   -7.8820    5.2431   -9.4098 C   0  0  0  0  0  0  0  0  0  0  0  0
   -8.1919    3.9941   -9.9371 C   0  0  0  0  0  0  0  0  0  0  0  0
   -8.3542    3.8022  -11.2979 C   0  0  0  0  0  0  0  0  0  0  0  0
   -8.3680    3.0189   -8.8259 C   0  0  0  0  0  0  0  0  0  0  0  0
   -7.8966    3.7030   -7.5903 N   0  0  0  0  0  0  0  0  0  0  0  0
   -7.8044    5.1448   -7.9239 C   0  0  0  0  0  0  0  0  0  0  0  0
   -7.7129    4.6921  -15.7222 C   0  0  0  0  0  0  0  0  0  0  0  0
   -9.0417    4.4180  -16.0792 C   0  0  0  0  0  0  0  0  0  0  0  0
   -9.4236    4.3409  -17.4175 C   0  0  0  0  0  0  0  0  0  0  0  0
   -8.4762    4.5186  -18.4188 C   0  0  0  0  0  0  0  0  0  0  0  0
   -7.1460    4.8049  -18.0905 C   0  0  0  0  0  0  0  0  0  0  0  0
   -6.7645    4.8984  -16.7414 C   0  0  0  0  0  0  0  0  0  0  0  0
   -5.4134    5.1573  -16.4449 N   0  0  0  0  0  0  0  0  0  0  0  0
   -4.4555    5.4407  -17.3798 C   0  0  0  0  0  0  0  0  0  0  0  0
   -3.2560    5.4262  -17.0951 O   0  0  0  0  0  0  0  0  0  0  0  0
   -4.9625    5.8519  -18.7766 C   0  0  1  0  0  0  0  0  0  0  0  0
   -5.4107    7.3243  -18.7811 C   0  0  0  0  0  0  0  0  0  0  0  0
   -4.8116    7.8844  -20.0555 C   0  0  0  0  0  0  0  0  0  0  0  0
   -3.5013    7.1386  -20.1554 C   0  0  0  0  0  0  0  0  0  0  0  0
   -3.8267    5.7704  -19.7572 N   0  0  0  0  0  0  0  0  0  0  0  0
   -6.1023    4.9141  -19.1769 C   0  0  0  0  0  0  0  0  0  0  0  0
  1  2  2  0
  2  3  1  0
  3  4  1  0
  4  5  2  0
  5  6  1  0
  6  7  2  0
  7  8  1  0
  8  9  2  0
  8 10  1  0
 10 11  1  0
 11 12  1  0
  2 13  1  0
 13 14  2  0
 14 15  1  0
 15 16  2  0
 16 17  1  0
 17 18  2  0
 18 19  1  0
 19 20  1  0
 20 21  2  0
 20 22  1  0
 22 23  1  1
 23 24  1  0
 24 25  1  0
 25 26  1  0
 22 27  1  0
  9  4  1  0
 18 13  1  0
 26 22  1  0
 12  7  1  0
 27 17  1  0
M  END
>  <smiles>  (160) 
C73153-P13

>  <fragmenstein_outcome>  (160) 
acceptable

>  <inchikey>  (160) 
BNRVOQOKIFJVCF-UHFFFAOYSA-N

>  <fragmenstein_mode>  (160) 
expansion

>  <HIPPO Pose ID>  (160) 
2020

>  <Energy>  (160) 
103.543598

>  <fragmenstein_error>  (160) 


>  <tags>  (160) 
{'openbind_xx01zvns2b_c1_fragmenstein', 'fragmenstein_placed'}

>  <ref_pdb>  (160) 
1

>  <scratch_subdir>  (160) 
/opt/xchem-fragalysis-2/maxwin/BulkDock/SCRATCH/511027/C73153-P13

>  <alias>  (160) 
O=C(Oc1ccc2c(c1)CNC2)c1cccc2c1NC(=O)[C@]1(CCCN1)C2

>  <HIPPO Compound ID>  (160) 
73153

>  <fragmenstein_runtime>  (160) 
3.577342

$$$$
O=C(NCCCF)[C@H](Nc1ccc2c(c1)CNC2)c1cc(Cl)cc2c1NC(=O)[C@]1(CCCN1)C2
     RDKit          3D

 34 38  0  0  0  0  0  0  0  0999 V2000
   -6.8561    2.0952  -13.8978 O   0  0  0  0  0  0  0  0  0  0  0  0
   -6.4789    3.1847  -13.7002 C   0  0  0  0  0  0  0  0  0  0  0  0
   -5.1668    3.6923  -13.0293 N   0  0  0  0  0  0  0  0  0  0  0  0
   -4.1040    2.9637  -12.3839 C   0  0  0  0  0  0  0  0  0  0  0  0
   -4.6325    2.1766  -11.1906 C   0  0  0  0  0  0  0  0  0  0  0  0
   -3.5588    1.2855  -10.6044 C   0  0  0  0  0  0  0  0  0  0  0  0
   -2.5464    2.0619  -10.1283 F   0  0  0  0  0  0  0  0  0  0  0  0
   -7.3321    4.4563  -14.0973 C   0  0  2  0  0  0  0  0  0  0  0  0
   -8.5915    4.4222  -13.3006 N   0  0  0  0  0  0  0  0  0  0  0  0
   -8.3811    4.5420  -11.9076 C   0  0  0  0  0  0  0  0  0  0  0  0
   -8.5477    3.4133  -11.0774 C   0  0  0  0  0  0  0  0  0  0  0  0
   -8.3158    3.4781   -9.7030 C   0  0  0  0  0  0  0  0  0  0  0  0
   -7.9143    4.6874   -9.1736 C   0  0  0  0  0  0  0  0  0  0  0  0
   -7.7529    5.8108   -9.9805 C   0  0  0  0  0  0  0  0  0  0  0  0
   -7.9803    5.7582  -11.3460 C   0  0  0  0  0  0  0  0  0  0  0  0
   -7.3733    6.9690   -9.1234 C   0  0  0  0  0  0  0  0  0  0  0  0
   -6.9630    6.3809   -7.8196 N   0  0  0  0  0  0  0  0  0  0  0  0
   -7.6339    5.0509   -7.7565 C   0  0  0  0  0  0  0  0  0  0  0  0
   -7.6340    4.5261  -15.6029 C   0  0  0  0  0  0  0  0  0  0  0  0
   -8.9669    4.4166  -16.0446 C   0  0  0  0  0  0  0  0  0  0  0  0
   -9.3016    4.4749  -17.3914 C   0  0  0  0  0  0  0  0  0  0  0  0
  -10.9336    4.4599  -17.8659 Cl  0  0  0  0  0  0  0  0  0  0  0  0
   -8.3301    4.6211  -18.3559 C   0  0  0  0  0  0  0  0  0  0  0  0
   -7.0066    4.7898  -17.9658 C   0  0  0  0  0  0  0  0  0  0  0  0
   -6.6544    4.7551  -16.5969 C   0  0  0  0  0  0  0  0  0  0  0  0
   -5.2983    4.9358  -16.2788 N   0  0  0  0  0  0  0  0  0  0  0  0
   -4.3358    5.2887  -17.1941 C   0  0  0  0  0  0  0  0  0  0  0  0
   -3.1420    5.2428  -16.8867 O   0  0  0  0  0  0  0  0  0  0  0  0
   -4.8111    5.8142  -18.5636 C   0  0  1  0  0  0  0  0  0  0  0  0
   -5.2156    7.2930  -18.4874 C   0  0  0  0  0  0  0  0  0  0  0  0
   -4.7750    7.8476  -19.8266 C   0  0  0  0  0  0  0  0  0  0  0  0
   -3.4773    7.1111  -20.0733 C   0  0  0  0  0  0  0  0  0  0  0  0
   -3.6778    5.7595  -19.5472 N   0  0  0  0  0  0  0  0  0  0  0  0
   -5.9596    4.9351  -19.0407 C   0  0  0  0  0  0  0  0  0  0  0  0
  1  2  2  0
  2  3  1  0
  3  4  1  0
  4  5  1  0
  5  6  1  0
  6  7  1  0
  2  8  1  0
  8  9  1  1
  9 10  1  0
 10 11  2  0
 11 12  1  0
 12 13  2  0
 13 14  1  0
 14 15  2  0
 14 16  1  0
 16 17  1  0
 17 18  1  0
  8 19  1  0
 19 20  2  0
 20 21  1  0
 21 22  1  0
 21 23  2  0
 23 24  1  0
 24 25  2  0
 25 26  1  0
 26 27  1  0
 27 28  2  0
 27 29  1  0
 29 30  1  1
 30 31  1  0
 31 32  1  0
 32 33  1  0
 29 34  1  0
 15 10  1  0
 25 19  1  0
 33 29  1  0
 18 13  1  0
 34 24  1  0
M  END
>  <smiles>  (161) 
C73164-P13

>  <fragmenstein_outcome>  (161) 
acceptable

>  <inchikey>  (161) 
DLPBLRLRXDVLMM-UHFFFAOYSA-N

>  <fragmenstein_mode>  (161) 
expansion

>  <HIPPO Pose ID>  (161) 
2026

>  <Energy>  (161) 
122.067757

>  <fragmenstein_error>  (161) 


>  <tags>  (161) 
{'openbind_xx01zvns2b_c1_fragmenstein', 'fragmenstein_placed'}

>  <ref_pdb>  (161) 
1

>  <scratch_subdir>  (161) 
/opt/xchem-fragalysis-2/maxwin/BulkDock/SCRATCH/511027/C73164-P13

>  <alias>  (161) 
O=C(NCCCF)[C@H](Nc1ccc2c(c1)CNC2)c1cc(Cl)cc2c1NC(=O)[C@]1(CCCN1)C2

>  <HIPPO Compound ID>  (161) 
86595

>  <fragmenstein_runtime>  (161) 
7.192822

$$$$
O=C(NCCCF)[C@@H](Nc1ccc2c(c1)CNC2)c1cc(Cl)cc2c1NC(=O)[C@]1(CCCN1)C2
     RDKit          3D

 34 38  0  0  0  0  0  0  0  0999 V2000
   -9.2958    5.9884  -13.7713 O   0  0  0  0  0  0  0  0  0  0  0  0
   -8.1790    5.8172  -13.4627 C   0  0  0  0  0  0  0  0  0  0  0  0
   -7.3486    6.4304  -12.2907 N   0  0  0  0  0  0  0  0  0  0  0  0
   -7.7495    7.2947  -11.2187 C   0  0  0  0  0  0  0  0  0  0  0  0
   -7.1744    8.6997  -11.3531 C   0  0  0  0  0  0  0  0  0  0  0  0
   -7.6580    9.4195  -12.6018 C   0  0  0  0  0  0  0  0  0  0  0  0
   -7.0217    8.9183  -13.6950 F   0  0  0  0  0  0  0  0  0  0  0  0
   -7.1770    4.8638  -14.2662 C   0  0  1  0  0  0  0  0  0  0  0  0
   -7.1732    3.4928  -13.7104 N   0  0  0  0  0  0  0  0  0  0  0  0
   -6.7638    3.3327  -12.3834 C   0  0  0  0  0  0  0  0  0  0  0  0
   -7.7137    3.0259  -11.3881 C   0  0  0  0  0  0  0  0  0  0  0  0
   -7.3494    2.9272  -10.0422 C   0  0  0  0  0  0  0  0  0  0  0  0
   -6.0266    3.1467   -9.7085 C   0  0  0  0  0  0  0  0  0  0  0  0
   -5.0793    3.4489  -10.6819 C   0  0  0  0  0  0  0  0  0  0  0  0
   -5.4281    3.5449  -12.0187 C   0  0  0  0  0  0  0  0  0  0  0  0
   -3.7410    3.5808  -10.0381 C   0  0  0  0  0  0  0  0  0  0  0  0
   -4.0122    3.6732   -8.5801 N   0  0  0  0  0  0  0  0  0  0  0  0
   -5.3574    3.0729   -8.3781 C   0  0  0  0  0  0  0  0  0  0  0  0
   -7.4949    4.7625  -15.7588 C   0  0  0  0  0  0  0  0  0  0  0  0
   -8.8089    4.4522  -16.1489 C   0  0  0  0  0  0  0  0  0  0  0  0
   -9.1778    4.3884  -17.4854 C   0  0  0  0  0  0  0  0  0  0  0  0
  -10.8103    4.2473  -17.9248 Cl  0  0  0  0  0  0  0  0  0  0  0  0
   -8.2408    4.5296  -18.4825 C   0  0  0  0  0  0  0  0  0  0  0  0
   -6.9235    4.8025  -18.1380 C   0  0  0  0  0  0  0  0  0  0  0  0
   -6.5466    4.9296  -16.7864 C   0  0  0  0  0  0  0  0  0  0  0  0
   -5.1910    5.1696  -16.5181 N   0  0  0  0  0  0  0  0  0  0  0  0
   -4.2403    5.4524  -17.4738 C   0  0  0  0  0  0  0  0  0  0  0  0
   -3.0559    5.4798  -17.1401 O   0  0  0  0  0  0  0  0  0  0  0  0
   -4.7683    5.8241  -18.8801 C   0  0  1  0  0  0  0  0  0  0  0  0
   -5.2309    7.2937  -18.9082 C   0  0  0  0  0  0  0  0  0  0  0  0
   -4.5236    7.8913  -20.1098 C   0  0  0  0  0  0  0  0  0  0  0  0
   -3.2529    7.0762  -20.1949 C   0  0  0  0  0  0  0  0  0  0  0  0
   -3.6932    5.7097  -19.9162 N   0  0  0  0  0  0  0  0  0  0  0  0
   -5.8919    4.8595  -19.2236 C   0  0  0  0  0  0  0  0  0  0  0  0
  1  2  2  0
  2  3  1  0
  3  4  1  0
  4  5  1  0
  5  6  1  0
  6  7  1  0
  2  8  1  0
  8  9  1  1
  9 10  1  0
 10 11  2  0
 11 12  1  0
 12 13  2  0
 13 14  1  0
 14 15  2  0
 14 16  1  0
 16 17  1  0
 17 18  1  0
  8 19  1  0
 19 20  2  0
 20 21  1  0
 21 22  1  0
 21 23  2  0
 23 24  1  0
 24 25  2  0
 25 26  1  0
 26 27  1  0
 27 28  2  0
 27 29  1  0
 29 30  1  1
 30 31  1  0
 31 32  1  0
 32 33  1  0
 29 34  1  0
 15 10  1  0
 25 19  1  0
 33 29  1  0
 18 13  1  0
 34 24  1  0
M  END
>  <smiles>  (162) 
C73164-P91

>  <fragmenstein_outcome>  (162) 
acceptable

>  <inchikey>  (162) 
QDKPFZIYIOIHSZ-UHFFFAOYSA-N

>  <fragmenstein_mode>  (162) 
expansion

>  <HIPPO Pose ID>  (162) 
2029

>  <Energy>  (162) 
129.23531

>  <fragmenstein_error>  (162) 


>  <tags>  (162) 
{'openbind_xx01zvns2b_c1_fragmenstein', 'fragmenstein_placed'}

>  <ref_pdb>  (162) 
1

>  <scratch_subdir>  (162) 
/opt/xchem-fragalysis-2/maxwin/BulkDock/SCRATCH/511027/C73164-P91

>  <alias>  (162) 
O=C(NCCCF)[C@@H](Nc1ccc2c(c1)CNC2)c1cc(Cl)cc2c1NC(=O)[C@]1(CCCN1)C2

>  <HIPPO Compound ID>  (162) 
73164

>  <fragmenstein_runtime>  (162) 
6.644773

$$$$
C[C@H]1CC[C@@]2(Cc3cccc(C(=O)Nc4ccc5c(c4)CNC5)c3NC2=O)N1
     RDKit          3D

 28 32  0  0  0  0  0  0  0  0999 V2000
   -2.7012    7.1563  -21.0171 C   0  0  0  0  0  0  0  0  0  0  0  0
   -3.4299    7.2415  -19.6877 C   0  0  1  0  0  0  0  0  0  0  0  0
   -4.8094    7.8608  -19.8104 C   0  0  0  0  0  0  0  0  0  0  0  0
   -5.4744    7.4108  -18.5253 C   0  0  0  0  0  0  0  0  0  0  0  0
   -4.9286    5.9884  -18.3067 C   0  0  2  0  0  0  0  0  0  0  0  0
   -5.9166    4.9352  -18.8088 C   0  0  0  0  0  0  0  0  0  0  0  0
   -7.0903    4.7821  -17.8781 C   0  0  0  0  0  0  0  0  0  0  0  0
   -8.3233    4.3444  -18.3787 C   0  0  0  0  0  0  0  0  0  0  0  0
   -9.3909    4.1221  -17.5158 C   0  0  0  0  0  0  0  0  0  0  0  0
   -9.2317    4.3304  -16.1492 C   0  0  0  0  0  0  0  0  0  0  0  0
   -8.0173    4.7934  -15.6464 C   0  0  0  0  0  0  0  0  0  0  0  0
   -7.9691    5.1988  -14.2269 C   0  0  0  0  0  0  0  0  0  0  0  0
   -8.0018    6.3387  -13.9773 O   0  0  0  0  0  0  0  0  0  0  0  0
   -7.8348    3.9741  -13.2969 N   0  0  0  0  0  0  0  0  0  0  0  0
   -7.8088    3.8922  -11.9055 C   0  0  0  0  0  0  0  0  0  0  0  0
   -7.4887    2.6704  -11.2917 C   0  0  0  0  0  0  0  0  0  0  0  0
   -7.4505    2.5507   -9.8945 C   0  0  0  0  0  0  0  0  0  0  0  0
   -7.7621    3.6553   -9.1337 C   0  0  0  0  0  0  0  0  0  0  0  0
   -8.0717    4.8671   -9.7422 C   0  0  0  0  0  0  0  0  0  0  0  0
   -8.0904    5.0089  -11.1202 C   0  0  0  0  0  0  0  0  0  0  0  0
   -8.2819    5.9012   -8.6898 C   0  0  0  0  0  0  0  0  0  0  0  0
   -8.4678    5.1411   -7.4271 N   0  0  0  0  0  0  0  0  0  0  0  0
   -7.7668    3.8413   -7.6541 C   0  0  0  0  0  0  0  0  0  0  0  0
   -6.9369    5.0144  -16.5037 C   0  0  0  0  0  0  0  0  0  0  0  0
   -5.6903    5.4293  -16.0125 N   0  0  0  0  0  0  0  0  0  0  0  0
   -4.6243    5.7539  -16.8074 C   0  0  0  0  0  0  0  0  0  0  0  0
   -3.5091    5.9235  -16.3108 O   0  0  0  0  0  0  0  0  0  0  0  0
   -3.6692    5.9080  -19.1214 N   0  0  0  0  0  0  0  0  0  0  0  0
  2  1  1  6
  2  3  1  0
  3  4  1  0
  5  4  1  1
  5  6  1  0
  6  7  1  0
  7  8  2  0
  8  9  1  0
  9 10  2  0
 10 11  1  0
 11 12  1  0
 12 13  2  0
 12 14  1  0
 14 15  1  0
 15 16  2  0
 16 17  1  0
 17 18  2  0
 18 19  1  0
 19 20  2  0
 19 21  1  0
 21 22  1  0
 22 23  1  0
 11 24  2  0
 24 25  1  0
 25 26  1  0
 26 27  2  0
  5 28  1  0
 28  2  1  0
 26  5  1  0
 24  7  1  0
 20 15  1  0
 23 18  1  0
M  END
>  <smiles>  (163) 
C73179-P13

>  <fragmenstein_outcome>  (163) 
acceptable

>  <inchikey>  (163) 
CCHOXTVUBGWZQK-UHFFFAOYSA-N

>  <fragmenstein_mode>  (163) 
expansion

>  <HIPPO Pose ID>  (163) 
2038

>  <Energy>  (163) 
92.811847

>  <fragmenstein_error>  (163) 


>  <tags>  (163) 
{'openbind_xx01zvns2b_c1_fragmenstein', 'fragmenstein_placed'}

>  <ref_pdb>  (163) 
1

>  <scratch_subdir>  (163) 
/opt/xchem-fragalysis-2/maxwin/BulkDock/SCRATCH/511027/C73179-P13

>  <alias>  (163) 
C[C@H]1CC[C@@]2(Cc3cccc(C(=O)Nc4ccc5c(c4)CNC5)c3NC2=O)N1

>  <HIPPO Compound ID>  (163) 
103083

>  <fragmenstein_runtime>  (163) 
6.731012

$$$$
O=C(Nc1ccn[nH]1)c1cc(Cl)cc2c1NC(=O)[C@]1(CCCN1)C2
     RDKit          3D

 24 27  0  0  0  0  0  0  0  0999 V2000
   -6.5839    5.9628  -13.9336 O   0  0  0  0  0  0  0  0  0  0  0  0
   -7.3089    5.0786  -14.1752 C   0  0  0  0  0  0  0  0  0  0  0  0
   -8.1223    4.1598  -13.2287 N   0  0  0  0  0  0  0  0  0  0  0  0
   -8.1375    4.0824  -11.8683 C   0  0  0  0  0  0  0  0  0  0  0  0
   -8.7128    3.1718  -11.0185 C   0  0  0  0  0  0  0  0  0  0  0  0
   -8.4256    3.6536   -9.7256 C   0  0  0  0  0  0  0  0  0  0  0  0
   -7.7472    4.8071   -9.7503 N   0  0  0  0  0  0  0  0  0  0  0  0
   -7.5503    5.0218  -11.0655 N   0  0  0  0  0  0  0  0  0  0  0  0
   -7.6080    4.8145  -15.6208 C   0  0  0  0  0  0  0  0  0  0  0  0
   -8.9348    4.5775  -15.9871 C   0  0  0  0  0  0  0  0  0  0  0  0
   -9.2766    4.4577  -17.3293 C   0  0  0  0  0  0  0  0  0  0  0  0
  -10.9120    4.3042  -17.7687 Cl  0  0  0  0  0  0  0  0  0  0  0  0
   -8.3216    4.5484  -18.3273 C   0  0  0  0  0  0  0  0  0  0  0  0
   -6.9997    4.8253  -17.9874 C   0  0  0  0  0  0  0  0  0  0  0  0
   -6.6405    4.9737  -16.6345 C   0  0  0  0  0  0  0  0  0  0  0  0
   -5.2972    5.2546  -16.3372 N   0  0  0  0  0  0  0  0  0  0  0  0
   -4.3392    5.5185  -17.2815 C   0  0  0  0  0  0  0  0  0  0  0  0
   -3.1420    5.5246  -16.9887 O   0  0  0  0  0  0  0  0  0  0  0  0
   -4.8401    5.8791  -18.6957 C   0  0  1  0  0  0  0  0  0  0  0  0
   -5.3039    7.3446  -18.7518 C   0  0  0  0  0  0  0  0  0  0  0  0
   -4.7785    7.8366  -20.0846 C   0  0  0  0  0  0  0  0  0  0  0  0
   -3.4540    7.1171  -20.1965 C   0  0  0  0  0  0  0  0  0  0  0  0
   -3.7045    5.7737  -19.6729 N   0  0  0  0  0  0  0  0  0  0  0  0
   -5.9629    4.9189  -19.0782 C   0  0  0  0  0  0  0  0  0  0  0  0
  1  2  2  0
  2  3  1  0
  3  4  1  0
  4  5  2  0
  5  6  1  0
  6  7  2  0
  7  8  1  0
  2  9  1  0
  9 10  2  0
 10 11  1  0
 11 12  1  0
 11 13  2  0
 13 14  1  0
 14 15  2  0
 15 16  1  0
 16 17  1  0
 17 18  2  0
 17 19  1  0
 19 20  1  1
 20 21  1  0
 21 22  1  0
 22 23  1  0
 19 24  1  0
  8  4  1  0
 15  9  1  0
 23 19  1  0
 24 14  1  0
M  END
>  <smiles>  (164) 
C73220-P13

>  <fragmenstein_outcome>  (164) 
acceptable

>  <inchikey>  (164) 
YQHMCPRNGBNTBB-UHFFFAOYSA-N

>  <fragmenstein_mode>  (164) 
expansion

>  <HIPPO Pose ID>  (164) 
2057

>  <Energy>  (164) 
86.93284

>  <fragmenstein_error>  (164) 


>  <tags>  (164) 
{'openbind_xx01zvns2b_c1_fragmenstein', 'fragmenstein_placed'}

>  <ref_pdb>  (164) 
1

>  <scratch_subdir>  (164) 
/opt/xchem-fragalysis-2/maxwin/BulkDock/SCRATCH/511027/C73220-P13

>  <alias>  (164) 
O=C(Nc1ccn[nH]1)c1cc(Cl)cc2c1NC(=O)[C@]1(CCCN1)C2

>  <HIPPO Compound ID>  (164) 
77066

>  <fragmenstein_runtime>  (164) 
2.028643

$$$$
NN1NCC[C@@]12NCO[C@H]2C(=O)Nc1cnc2c(c1)CNC2
     RDKit          3D

 22 25  0  0  0  0  0  0  0  0999 V2000
   -6.0072    4.2477  -19.7937 N   0  0  0  0  0  0  0  0  0  0  0  0
   -5.8665    4.5896  -18.4084 N   0  0  0  0  0  0  0  0  0  0  0  0
   -4.6633    5.3225  -18.2792 N   0  0  0  0  0  0  0  0  0  0  0  0
   -4.9803    6.7245  -18.4808 C   0  0  0  0  0  0  0  0  0  0  0  0
   -6.4945    6.8264  -18.4021 C   0  0  0  0  0  0  0  0  0  0  0  0
   -6.9902    5.4449  -17.9648 C   0  0  1  0  0  0  0  0  0  0  0  0
   -8.2259    4.9797  -18.6145 N   0  0  0  0  0  0  0  0  0  0  0  0
   -9.0669    4.3953  -17.5992 C   0  0  0  0  0  0  0  0  0  0  0  0
   -8.3707    4.3639  -16.3573 O   0  0  0  0  0  0  0  0  0  0  0  0
   -7.3634    5.3806  -16.4725 C   0  0  1  0  0  0  0  0  0  0  0  0
   -6.1914    5.2663  -15.4812 C   0  0  0  0  0  0  0  0  0  0  0  0
   -5.3169    6.0413  -15.4144 O   0  0  0  0  0  0  0  0  0  0  0  0
   -6.5071    4.0236  -14.5984 N   0  0  0  0  0  0  0  0  0  0  0  0
   -5.7889    3.4520  -13.5580 C   0  0  0  0  0  0  0  0  0  0  0  0
   -4.4598    3.8058  -13.2881 C   0  0  0  0  0  0  0  0  0  0  0  0
   -3.6902    3.2277  -12.3281 N   0  0  0  0  0  0  0  0  0  0  0  0
   -4.3169    2.2760  -11.6168 C   0  0  0  0  0  0  0  0  0  0  0  0
   -5.6383    1.8912  -11.7839 C   0  0  0  0  0  0  0  0  0  0  0  0
   -6.3995    2.4746  -12.7755 C   0  0  0  0  0  0  0  0  0  0  0  0
   -5.9804    0.8594  -10.7690 C   0  0  0  0  0  0  0  0  0  0  0  0
   -4.6762    0.3227  -10.2959 N   0  0  0  0  0  0  0  0  0  0  0  0
   -3.7091    1.4385  -10.5243 C   0  0  0  0  0  0  0  0  0  0  0  0
  1  2  1  0
  2  3  1  0
  3  4  1  0
  4  5  1  0
  6  5  1  6
  6  7  1  0
  7  8  1  0
  8  9  1  0
  9 10  1  0
 10 11  1  1
 11 12  2  0
 11 13  1  0
 13 14  1  0
 14 15  2  0
 15 16  1  0
 16 17  2  0
 17 18  1  0
 18 19  2  0
 18 20  1  0
 20 21  1  0
 21 22  1  0
  6  2  1  0
 19 14  1  0
 10  6  1  0
 22 17  1  0
M  END
>  <smiles>  (165) 
C73493-P25

>  <fragmenstein_outcome>  (165) 
acceptable

>  <inchikey>  (165) 
SQJVCOHMXQTMJG-UHFFFAOYSA-N

>  <fragmenstein_mode>  (165) 
expansion

>  <HIPPO Pose ID>  (165) 
2169

>  <Energy>  (165) 
82.001279

>  <fragmenstein_error>  (165) 


>  <tags>  (165) 
{'openbind_xx01zvns2b_c1_fragmenstein', 'fragmenstein_placed'}

>  <ref_pdb>  (165) 
1

>  <scratch_subdir>  (165) 
/opt/xchem-fragalysis-2/maxwin/BulkDock/SCRATCH/511027/C73493-P25

>  <alias>  (165) 
NN1NCC[C@@]12NCO[C@H]2C(=O)Nc1cnc2c(c1)CNC2

>  <HIPPO Compound ID>  (165) 
101965

>  <fragmenstein_runtime>  (165) 
4.47254

$$$$
CS(=O)(=O)c1ccc(N2CCNCC2)cc1NC(=O)c1cccc2c(C#N)c[nH]c12
     RDKit          3D

 30 33  0  0  0  0  0  0  0  0999 V2000
  -10.3534    8.2686  -13.1444 C   0  0  0  0  0  0  0  0  0  0  0  0
   -8.5935    8.0428  -12.9939 S   0  0  0  0  0  0  0  0  0  0  0  0
   -8.0096    9.2575  -12.4640 O   0  0  0  0  0  0  0  0  0  0  0  0
   -8.0773    7.4910  -14.2363 O   0  0  0  0  0  0  0  0  0  0  0  0
   -8.4523    6.7833  -11.7635 C   0  0  0  0  0  0  0  0  0  0  0  0
   -8.5721    7.1817  -10.4405 C   0  0  0  0  0  0  0  0  0  0  0  0
   -8.5461    6.2139   -9.4515 C   0  0  0  0  0  0  0  0  0  0  0  0
   -8.4065    4.8463   -9.7493 C   0  0  0  0  0  0  0  0  0  0  0  0
   -8.5592    3.9252   -8.7219 N   0  0  0  0  0  0  0  0  0  0  0  0
   -8.7672    2.4979   -9.0410 C   0  0  0  0  0  0  0  0  0  0  0  0
   -9.4581    1.8016   -7.8518 C   0  0  0  0  0  0  0  0  0  0  0  0
   -8.7356    1.9572   -6.5786 N   0  0  0  0  0  0  0  0  0  0  0  0
   -8.5568    3.3891   -6.3034 C   0  0  0  0  0  0  0  0  0  0  0  0
   -7.8577    4.1545   -7.4473 C   0  0  0  0  0  0  0  0  0  0  0  0
   -8.2164    4.4817  -11.0995 C   0  0  0  0  0  0  0  0  0  0  0  0
   -8.2250    5.4431  -12.1092 C   0  0  0  0  0  0  0  0  0  0  0  0
   -7.9507    5.1594  -13.4465 N   0  0  0  0  0  0  0  0  0  0  0  0
   -7.4061    3.8863  -14.1034 C   0  0  0  0  0  0  0  0  0  0  0  0
   -7.1711    2.8446  -13.6468 O   0  0  0  0  0  0  0  0  0  0  0  0
   -7.1133    4.2705  -15.5166 C   0  0  0  0  0  0  0  0  0  0  0  0
   -7.9424    4.0319  -16.6108 C   0  0  0  0  0  0  0  0  0  0  0  0
   -7.5702    4.4849  -17.8813 C   0  0  0  0  0  0  0  0  0  0  0  0
   -6.3764    5.2027  -18.0808 C   0  0  0  0  0  0  0  0  0  0  0  0
   -5.5754    5.5347  -16.9679 C   0  0  0  0  0  0  0  0  0  0  0  0
   -4.3493    6.2305  -16.7539 C   0  0  0  0  0  0  0  0  0  0  0  0
   -3.4434    6.7651  -17.7151 C   0  0  0  0  0  0  0  0  0  0  0  0
   -2.6421    7.1835  -18.4435 N   0  0  0  0  0  0  0  0  0  0  0  0
   -4.1180    6.2937  -15.3963 C   0  0  0  0  0  0  0  0  0  0  0  0
   -5.1111    5.5949  -14.7781 N   0  0  0  0  0  0  0  0  0  0  0  0
   -5.9854    5.0849  -15.7140 C   0  0  0  0  0  0  0  0  0  0  0  0
  1  2  1  0
  2  3  2  0
  2  4  2  0
  2  5  1  0
  5  6  2  0
  6  7  1  0
  7  8  2  0
  8  9  1  0
  9 10  1  0
 10 11  1  0
 11 12  1  0
 12 13  1  0
 13 14  1  0
  8 15  1  0
 15 16  2  0
 16 17  1  0
 17 18  1  0
 18 19  2  0
 18 20  1  0
 20 21  2  0
 21 22  1  0
 22 23  2  0
 23 24  1  0
 24 25  1  0
 25 26  1  0
 26 27  3  0
 25 28  2  0
 28 29  1  0
 29 30  1  0
 16  5  1  0
 30 20  1  0
 14  9  1  0
 30 24  2  0
M  END
>  <smiles>  (166) 
C73774-P16

>  <fragmenstein_outcome>  (166) 
acceptable

>  <inchikey>  (166) 
SWVGYUAUIUKGRF-UHFFFAOYSA-N

>  <fragmenstein_mode>  (166) 
expansion

>  <HIPPO Pose ID>  (166) 
2288

>  <Energy>  (166) 
173.633909

>  <fragmenstein_error>  (166) 


>  <tags>  (166) 
{'openbind_xx01zvns2b_c1_fragmenstein', 'fragmenstein_placed'}

>  <ref_pdb>  (166) 
1

>  <scratch_subdir>  (166) 
/opt/xchem-fragalysis-2/maxwin/BulkDock/SCRATCH/511027/C73774-P16

>  <alias>  (166) 
CS(=O)(=O)c1ccc(N2CCNCC2)cc1NC(=O)c1cccc2c(C#N)c[nH]c12

>  <HIPPO Compound ID>  (166) 
81644

>  <fragmenstein_runtime>  (166) 
8.748595

$$$$
CS(=O)(=O)c1ccc(N2CCNCC2)cc1C(=O)c1ccc2c(C#N)csc2c1
     RDKit          3D

 29 32  0  0  0  0  0  0  0  0999 V2000
   -8.0040    9.2818  -12.6727 C   0  0  0  0  0  0  0  0  0  0  0  0
   -8.5422    7.7094  -13.2608 S   0  0  0  0  0  0  0  0  0  0  0  0
   -7.6776    7.4126  -14.3854 O   0  0  0  0  0  0  0  0  0  0  0  0
   -9.9850    7.7819  -13.3858 O   0  0  0  0  0  0  0  0  0  0  0  0
   -8.1893    6.5238  -12.0185 C   0  0  0  0  0  0  0  0  0  0  0  0
   -7.9570    6.9568  -10.7210 C   0  0  0  0  0  0  0  0  0  0  0  0
   -7.9872    6.0357   -9.6838 C   0  0  0  0  0  0  0  0  0  0  0  0
   -8.2340    4.6681   -9.8913 C   0  0  0  0  0  0  0  0  0  0  0  0
   -8.4905    3.8479   -8.7903 N   0  0  0  0  0  0  0  0  0  0  0  0
   -8.7564    2.4024   -8.9901 C   0  0  0  0  0  0  0  0  0  0  0  0
   -9.4917    1.8052   -7.7670 C   0  0  0  0  0  0  0  0  0  0  0  0
   -8.8145    2.0356   -6.4897 N   0  0  0  0  0  0  0  0  0  0  0  0
   -8.5752    3.4627   -6.3143 C   0  0  0  0  0  0  0  0  0  0  0  0
   -7.8246    4.1199   -7.4951 C   0  0  0  0  0  0  0  0  0  0  0  0
   -8.3539    4.2474  -11.2403 C   0  0  0  0  0  0  0  0  0  0  0  0
   -8.3149    5.1637  -12.3110 C   0  0  0  0  0  0  0  0  0  0  0  0
   -8.8101    4.7594  -13.6433 C   0  0  0  0  0  0  0  0  0  0  0  0
  -10.0289    4.8168  -13.7874 O   0  0  0  0  0  0  0  0  0  0  0  0
   -8.0206    4.5310  -14.8692 C   0  0  0  0  0  0  0  0  0  0  0  0
   -8.7632    4.2738  -16.0273 C   0  0  0  0  0  0  0  0  0  0  0  0
   -8.1739    4.2880  -17.2735 C   0  0  0  0  0  0  0  0  0  0  0  0
   -6.7993    4.5712  -17.3748 C   0  0  0  0  0  0  0  0  0  0  0  0
   -5.9806    4.5896  -18.5348 C   0  0  0  0  0  0  0  0  0  0  0  0
   -6.5291    4.1491  -19.7658 C   0  0  0  0  0  0  0  0  0  0  0  0
   -7.1126    3.6087  -20.6082 N   0  0  0  0  0  0  0  0  0  0  0  0
   -4.6771    4.9326  -18.2888 C   0  0  0  0  0  0  0  0  0  0  0  0
   -4.4124    5.1621  -16.6142 S   0  0  0  0  0  0  0  0  0  0  0  0
   -6.0549    4.8018  -16.2196 C   0  0  0  0  0  0  0  0  0  0  0  0
   -6.6431    4.7483  -14.9398 C   0  0  0  0  0  0  0  0  0  0  0  0
  1  2  1  0
  2  3  2  0
  2  4  2  0
  2  5  1  0
  5  6  2  0
  6  7  1  0
  7  8  2  0
  8  9  1  0
  9 10  1  0
 10 11  1  0
 11 12  1  0
 12 13  1  0
 13 14  1  0
  8 15  1  0
 15 16  2  0
 16 17  1  0
 17 18  2  0
 17 19  1  0
 19 20  2  0
 20 21  1  0
 21 22  2  0
 22 23  1  0
 23 24  1  0
 24 25  3  0
 23 26  2  0
 26 27  1  0
 27 28  1  0
 28 29  2  0
 16  5  1  0
 29 19  1  0
 14  9  1  0
 28 22  1  0
M  END
>  <smiles>  (167) 
C73782-P16

>  <fragmenstein_outcome>  (167) 
acceptable

>  <inchikey>  (167) 
WNXBDMKMVVUOBU-UHFFFAOYSA-O

>  <fragmenstein_mode>  (167) 
expansion

>  <HIPPO Pose ID>  (167) 
2294

>  <Energy>  (167) 
171.863881

>  <fragmenstein_error>  (167) 


>  <tags>  (167) 
{'openbind_xx01zvns2b_c1_fragmenstein', 'fragmenstein_placed'}

>  <ref_pdb>  (167) 
1

>  <scratch_subdir>  (167) 
/opt/xchem-fragalysis-2/maxwin/BulkDock/SCRATCH/511027/C73782-P16

>  <alias>  (167) 
CS(=O)(=O)c1ccc(N2CCNCC2)cc1C(=O)c1ccc2c(C#N)csc2c1

>  <HIPPO Compound ID>  (167) 
92409

>  <fragmenstein_runtime>  (167) 
99.968602

$$$$
CS(=O)(=O)c1ccc(N2CCNCC2)cc1[C@@H](CC(=O)O)c1cc(Cl)cc2[nH]ncc12
     RDKit          3D

 31 34  0  0  0  0  0  0  0  0999 V2000
  -10.1234    7.8669  -13.3751 C   0  0  0  0  0  0  0  0  0  0  0  0
   -8.3315    7.8021  -13.3447 S   0  0  0  0  0  0  0  0  0  0  0  0
   -7.8386    9.0842  -12.8794 O   0  0  0  0  0  0  0  0  0  0  0  0
   -7.8654    7.2760  -14.6038 O   0  0  0  0  0  0  0  0  0  0  0  0
   -8.0432    6.6277  -12.0687 C   0  0  0  0  0  0  0  0  0  0  0  0
   -8.4612    7.1132  -10.8067 C   0  0  0  0  0  0  0  0  0  0  0  0
   -8.5425    6.2871   -9.7030 C   0  0  0  0  0  0  0  0  0  0  0  0
   -8.2191    4.9500   -9.8222 C   0  0  0  0  0  0  0  0  0  0  0  0
   -8.4776    4.0841   -8.7693 N   0  0  0  0  0  0  0  0  0  0  0  0
   -8.6383    2.6375   -9.0444 C   0  0  0  0  0  0  0  0  0  0  0  0
   -9.3759    1.9637   -7.8688 C   0  0  0  0  0  0  0  0  0  0  0  0
   -8.7296    2.1926   -6.5624 N   0  0  0  0  0  0  0  0  0  0  0  0
   -8.5907    3.6392   -6.3394 C   0  0  0  0  0  0  0  0  0  0  0  0
   -7.8475    4.3786   -7.4738 C   0  0  0  0  0  0  0  0  0  0  0  0
   -7.6703    4.5347  -11.0538 C   0  0  0  0  0  0  0  0  0  0  0  0
   -7.5417    5.3295  -12.2370 C   0  0  0  0  0  0  0  0  0  0  0  0
   -6.6403    4.8319  -13.4270 C   0  0  1  0  0  0  0  0  0  0  0  0
   -5.9056    3.4984  -13.1221 C   0  0  0  0  0  0  0  0  0  0  0  0
   -6.8812    2.3671  -13.2063 C   0  0  0  0  0  0  0  0  0  0  0  0
   -7.9891    2.3163  -12.7162 O   0  0  0  0  0  0  0  0  0  0  0  0
   -6.4597    1.3646  -13.9710 O   0  0  0  0  0  0  0  0  0  0  0  0
   -7.0308    4.7840  -14.9416 C   0  0  0  0  0  0  0  0  0  0  0  0
   -8.3265    4.4731  -15.4309 C   0  0  0  0  0  0  0  0  0  0  0  0
   -8.6077    4.4387  -16.8161 C   0  0  0  0  0  0  0  0  0  0  0  0
  -10.1696    4.1130  -17.4379 Cl  0  0  0  0  0  0  0  0  0  0  0  0
   -7.6396    4.6631  -17.7873 C   0  0  0  0  0  0  0  0  0  0  0  0
   -6.3646    4.9231  -17.3216 C   0  0  0  0  0  0  0  0  0  0  0  0
   -5.2064    5.1511  -18.0186 N   0  0  0  0  0  0  0  0  0  0  0  0
   -4.1398    5.3748  -17.2317 N   0  0  0  0  0  0  0  0  0  0  0  0
   -4.6540    5.2989  -15.9994 C   0  0  0  0  0  0  0  0  0  0  0  0
   -6.0429    4.9975  -15.9686 C   0  0  0  0  0  0  0  0  0  0  0  0
  1  2  1  0
  2  3  2  0
  2  4  2  0
  2  5  1  0
  5  6  2  0
  6  7  1  0
  7  8  2  0
  8  9  1  0
  9 10  1  0
 10 11  1  0
 11 12  1  0
 12 13  1  0
 13 14  1  0
  8 15  1  0
 15 16  2  0
 16 17  1  0
 17 18  1  1
 18 19  1  0
 19 20  2  0
 19 21  1  0
 17 22  1  0
 22 23  2  0
 23 24  1  0
 24 25  1  0
 24 26  2  0
 26 27  1  0
 27 28  1  0
 28 29  1  0
 29 30  2  0
 30 31  1  0
 16  5  1  0
 31 22  1  0
 14  9  1  0
 31 27  2  0
M  END
>  <smiles>  (168) 
C73796-P16

>  <fragmenstein_outcome>  (168) 
acceptable

>  <inchikey>  (168) 
YVDLLZJGDOIYOL-UHFFFAOYSA-N

>  <fragmenstein_mode>  (168) 
expansion

>  <HIPPO Pose ID>  (168) 
2303

>  <Energy>  (168) 
162.942619

>  <fragmenstein_error>  (168) 


>  <tags>  (168) 
{'openbind_xx01zvns2b_c1_fragmenstein', 'fragmenstein_placed'}

>  <ref_pdb>  (168) 
1

>  <scratch_subdir>  (168) 
/opt/xchem-fragalysis-2/maxwin/BulkDock/SCRATCH/511027/C73796-P16

>  <alias>  (168) 
CS(=O)(=O)c1ccc(N2CCNCC2)cc1[C@@H](CC(=O)O)c1cc(Cl)cc2[nH]ncc12

>  <HIPPO Compound ID>  (168) 
91641

>  <fragmenstein_runtime>  (168) 
7.359554

$$$$
CS(=O)(=O)c1ccc(N2CCNCC2)cc1C(=O)c1ccc2[nH]nc(C3CCNCC3)c2c1
     RDKit          3D

 33 37  0  0  0  0  0  0  0  0999 V2000
  -10.1760    8.1892  -13.0756 C   0  0  0  0  0  0  0  0  0  0  0  0
   -8.4222    7.8668  -13.0551 S   0  0  0  0  0  0  0  0  0  0  0  0
   -7.7559    9.0662  -12.5900 O   0  0  0  0  0  0  0  0  0  0  0  0
   -8.0859    7.3133  -14.3421 O   0  0  0  0  0  0  0  0  0  0  0  0
   -8.2558    6.6402  -11.8060 C   0  0  0  0  0  0  0  0  0  0  0  0
   -8.6120    7.0756  -10.5274 C   0  0  0  0  0  0  0  0  0  0  0  0
   -8.6583    6.1779   -9.4742 C   0  0  0  0  0  0  0  0  0  0  0  0
   -8.3940    4.8169   -9.6565 C   0  0  0  0  0  0  0  0  0  0  0  0
   -8.6249    3.9556   -8.5919 N   0  0  0  0  0  0  0  0  0  0  0  0
   -8.7508    2.5019   -8.8377 C   0  0  0  0  0  0  0  0  0  0  0  0
   -9.4545    1.8429   -7.6279 C   0  0  0  0  0  0  0  0  0  0  0  0
   -8.7874    2.1080   -6.3484 N   0  0  0  0  0  0  0  0  0  0  0  0
   -8.6113    3.5451   -6.1478 C   0  0  0  0  0  0  0  0  0  0  0  0
   -7.9102    4.2482   -7.3321 C   0  0  0  0  0  0  0  0  0  0  0  0
   -7.9531    4.4113  -10.9263 C   0  0  0  0  0  0  0  0  0  0  0  0
   -7.8406    5.3205  -12.0019 C   0  0  0  0  0  0  0  0  0  0  0  0
   -6.9326    4.9005  -13.0929 C   0  0  0  0  0  0  0  0  0  0  0  0
   -5.7722    4.6407  -12.7652 O   0  0  0  0  0  0  0  0  0  0  0  0
   -7.2873    4.8179  -14.5212 C   0  0  0  0  0  0  0  0  0  0  0  0
   -8.5435    4.4239  -14.9759 C   0  0  0  0  0  0  0  0  0  0  0  0
   -8.8533    4.4302  -16.3460 C   0  0  0  0  0  0  0  0  0  0  0  0
   -7.8584    4.8832  -17.2188 C   0  0  0  0  0  0  0  0  0  0  0  0
   -7.8218    5.0488  -18.5754 N   0  0  0  0  0  0  0  0  0  0  0  0
   -6.6546    5.5372  -19.0288 N   0  0  0  0  0  0  0  0  0  0  0  0
   -5.9689    5.8376  -17.9323 C   0  0  0  0  0  0  0  0  0  0  0  0
   -4.7001    6.6418  -18.0053 C   0  0  0  0  0  0  0  0  0  0  0  0
   -4.4763    7.3680  -19.3531 C   0  0  0  0  0  0  0  0  0  0  0  0
   -3.3135    6.7798  -20.1565 C   0  0  0  0  0  0  0  0  0  0  0  0
   -3.2867    5.3180  -20.1384 N   0  0  0  0  0  0  0  0  0  0  0  0
   -3.2007    4.7829  -18.7725 C   0  0  0  0  0  0  0  0  0  0  0  0
   -3.4760    5.7891  -17.6611 C   0  0  0  0  0  0  0  0  0  0  0  0
   -6.6167    5.3293  -16.7810 C   0  0  0  0  0  0  0  0  0  0  0  0
   -6.3075    5.2641  -15.4194 C   0  0  0  0  0  0  0  0  0  0  0  0
  1  2  1  0
  2  3  2  0
  2  4  2  0
  2  5  1  0
  5  6  2  0
  6  7  1  0
  7  8  2  0
  8  9  1  0
  9 10  1  0
 10 11  1  0
 11 12  1  0
 12 13  1  0
 13 14  1  0
  8 15  1  0
 15 16  2  0
 16 17  1  0
 17 18  2  0
 17 19  1  0
 19 20  2  0
 20 21  1  0
 21 22  2  0
 22 23  1  0
 23 24  1  0
 24 25  2  0
 25 26  1  0
 26 27  1  0
 27 28  1  0
 28 29  1  0
 29 30  1  0
 30 31  1  0
 25 32  1  0
 32 33  2  0
 16  5  1  0
 33 19  1  0
 14  9  1  0
 32 22  1  0
 31 26  1  0
M  END
>  <smiles>  (169) 
C73805-P16

>  <fragmenstein_outcome>  (169) 
acceptable

>  <inchikey>  (169) 
UIBDPKXVMCMRLY-UHFFFAOYSA-N

>  <fragmenstein_mode>  (169) 
expansion

>  <HIPPO Pose ID>  (169) 
2310

>  <Energy>  (169) 
168.836112

>  <fragmenstein_error>  (169) 


>  <tags>  (169) 
{'openbind_xx01zvns2b_c1_fragmenstein', 'fragmenstein_placed'}

>  <ref_pdb>  (169) 
1

>  <scratch_subdir>  (169) 
/opt/xchem-fragalysis-2/maxwin/BulkDock/SCRATCH/511027/C73805-P16

>  <alias>  (169) 
CS(=O)(=O)c1ccc(N2CCNCC2)cc1C(=O)c1ccc2[nH]nc(C3CCNCC3)c2c1

>  <HIPPO Compound ID>  (169) 
77200

>  <fragmenstein_runtime>  (169) 
10.753547

$$$$
CS(=O)(=O)c1ccc(N2CCNCC2)cc1C(=O)c1cc(Cl)c2n[nH]c(CC3CCNCC3)c2c1
     RDKit          3D

 35 39  0  0  0  0  0  0  0  0999 V2000
  -10.2947    8.1788  -13.1915 C   0  0  0  0  0  0  0  0  0  0  0  0
   -8.5786    7.7204  -13.3846 S   0  0  0  0  0  0  0  0  0  0  0  0
   -7.7573    8.8640  -13.0443 O   0  0  0  0  0  0  0  0  0  0  0  0
   -8.4630    7.0804  -14.6730 O   0  0  0  0  0  0  0  0  0  0  0  0
   -8.3334    6.5012  -12.1709 C   0  0  0  0  0  0  0  0  0  0  0  0
   -8.5955    6.9249  -10.8677 C   0  0  0  0  0  0  0  0  0  0  0  0
   -8.5714    6.0103   -9.8419 C   0  0  0  0  0  0  0  0  0  0  0  0
   -8.2952    4.6609  -10.0784 C   0  0  0  0  0  0  0  0  0  0  0  0
   -8.3979    3.7984   -9.0049 N   0  0  0  0  0  0  0  0  0  0  0  0
   -8.6345    2.3644   -9.2009 C   0  0  0  0  0  0  0  0  0  0  0  0
   -9.3997    1.8074   -7.9790 C   0  0  0  0  0  0  0  0  0  0  0  0
   -8.7386    2.0675   -6.6858 N   0  0  0  0  0  0  0  0  0  0  0  0
   -8.5113    3.5139   -6.5477 C   0  0  0  0  0  0  0  0  0  0  0  0
   -7.7379    4.1351   -7.7312 C   0  0  0  0  0  0  0  0  0  0  0  0
   -7.9622    4.2692  -11.4003 C   0  0  0  0  0  0  0  0  0  0  0  0
   -7.9543    5.1889  -12.4742 C   0  0  0  0  0  0  0  0  0  0  0  0
   -7.0380    4.9199  -13.6260 C   0  0  0  0  0  0  0  0  0  0  0  0
   -5.8443    4.9394  -13.3035 O   0  0  0  0  0  0  0  0  0  0  0  0
   -7.3263    4.7312  -15.0853 C   0  0  0  0  0  0  0  0  0  0  0  0
   -8.5860    4.3115  -15.5918 C   0  0  0  0  0  0  0  0  0  0  0  0
   -8.8134    4.1589  -16.9769 C   0  0  0  0  0  0  0  0  0  0  0  0
  -10.3227    3.9657  -17.7094 Cl  0  0  0  0  0  0  0  0  0  0  0  0
   -7.7280    4.3738  -17.8430 C   0  0  0  0  0  0  0  0  0  0  0  0
   -7.5712    4.1919  -19.1611 N   0  0  0  0  0  0  0  0  0  0  0  0
   -6.4097    4.7917  -19.4570 N   0  0  0  0  0  0  0  0  0  0  0  0
   -5.7422    5.3129  -18.3722 C   0  0  0  0  0  0  0  0  0  0  0  0
   -4.5969    6.2470  -18.5783 C   0  0  0  0  0  0  0  0  0  0  0  0
   -3.3341    6.0283  -17.7294 C   0  0  0  0  0  0  0  0  0  0  0  0
   -2.2666    7.0854  -18.0756 C   0  0  0  0  0  0  0  0  0  0  0  0
   -1.6442    6.8571  -19.4555 C   0  0  0  0  0  0  0  0  0  0  0  0
   -1.1079    5.5057  -19.6197 N   0  0  0  0  0  0  0  0  0  0  0  0
   -2.0870    4.4727  -19.2883 C   0  0  0  0  0  0  0  0  0  0  0  0
   -2.7028    4.6464  -17.9046 C   0  0  0  0  0  0  0  0  0  0  0  0
   -6.5023    4.8958  -17.3043 C   0  0  0  0  0  0  0  0  0  0  0  0
   -6.2469    5.1051  -15.9508 C   0  0  0  0  0  0  0  0  0  0  0  0
  1  2  1  0
  2  3  2  0
  2  4  2  0
  2  5  1  0
  5  6  2  0
  6  7  1  0
  7  8  2  0
  8  9  1  0
  9 10  1  0
 10 11  1  0
 11 12  1  0
 12 13  1  0
 13 14  1  0
  8 15  1  0
 15 16  2  0
 16 17  1  0
 17 18  2  0
 17 19  1  0
 19 20  1  0
 20 21  2  0
 21 22  1  0
 21 23  1  0
 23 24  2  0
 24 25  1  0
 25 26  1  0
 26 27  1  0
 27 28  1  0
 28 29  1  0
 29 30  1  0
 30 31  1  0
 31 32  1  0
 32 33  1  0
 26 34  2  0
 34 35  1  0
 16  5  1  0
 35 19  2  0
 14  9  1  0
 34 23  1  0
 33 28  1  0
M  END
>  <smiles>  (170) 
C73815-P16

>  <fragmenstein_outcome>  (170) 
acceptable

>  <inchikey>  (170) 
BENVPNJGPPOIRA-UHFFFAOYSA-N

>  <fragmenstein_mode>  (170) 
expansion

>  <HIPPO Pose ID>  (170) 
2318

>  <Energy>  (170) 
193.869734

>  <fragmenstein_error>  (170) 


>  <tags>  (170) 
{'openbind_xx01zvns2b_c1_fragmenstein', 'fragmenstein_placed'}

>  <ref_pdb>  (170) 
1

>  <scratch_subdir>  (170) 
/opt/xchem-fragalysis-2/maxwin/BulkDock/SCRATCH/511027/C73815-P16

>  <alias>  (170) 
CS(=O)(=O)c1ccc(N2CCNCC2)cc1C(=O)c1cc(Cl)c2n[nH]c(CC3CCNCC3)c2c1

>  <HIPPO Compound ID>  (170) 
103643

>  <fragmenstein_runtime>  (170) 
10.748134

$$$$
CS(=O)(=O)c1ccc(N2CCNCC2)cc1C(=O)c1cc(Cl)c2[nH]nc(CC3CNC3)c2c1
     RDKit          3D

 33 37  0  0  0  0  0  0  0  0999 V2000
  -10.3151    8.1549  -13.2137 C   0  0  0  0  0  0  0  0  0  0  0  0
   -8.5586    7.9590  -12.9893 S   0  0  0  0  0  0  0  0  0  0  0  0
   -8.0573    9.2085  -12.4469 O   0  0  0  0  0  0  0  0  0  0  0  0
   -7.9439    7.4406  -14.1918 O   0  0  0  0  0  0  0  0  0  0  0  0
   -8.4370    6.7466  -11.7161 C   0  0  0  0  0  0  0  0  0  0  0  0
   -8.3304    7.1869  -10.4023 C   0  0  0  0  0  0  0  0  0  0  0  0
   -8.3642    6.2603   -9.3609 C   0  0  0  0  0  0  0  0  0  0  0  0
   -8.5025    4.8805   -9.5872 C   0  0  0  0  0  0  0  0  0  0  0  0
   -8.6893    3.9971   -8.5267 N   0  0  0  0  0  0  0  0  0  0  0  0
   -8.9206    2.5586   -8.8232 C   0  0  0  0  0  0  0  0  0  0  0  0
   -9.5165    1.8426   -7.6009 C   0  0  0  0  0  0  0  0  0  0  0  0
   -8.6984    2.0013   -6.3949 N   0  0  0  0  0  0  0  0  0  0  0  0
   -8.5359    3.4302   -6.1118 C   0  0  0  0  0  0  0  0  0  0  0  0
   -7.9240    4.2218   -7.2851 C   0  0  0  0  0  0  0  0  0  0  0  0
   -8.5617    4.4687  -10.9252 C   0  0  0  0  0  0  0  0  0  0  0  0
   -8.5033    5.3842  -11.9806 C   0  0  0  0  0  0  0  0  0  0  0  0
   -8.5791    4.8713  -13.3560 C   0  0  0  0  0  0  0  0  0  0  0  0
   -9.6167    5.0470  -13.9825 O   0  0  0  0  0  0  0  0  0  0  0  0
   -7.3199    4.3412  -13.9433 C   0  0  0  0  0  0  0  0  0  0  0  0
   -6.5147    3.4402  -13.2332 C   0  0  0  0  0  0  0  0  0  0  0  0
   -5.2081    3.1934  -13.6396 C   0  0  0  0  0  0  0  0  0  0  0  0
   -4.1760    2.1532  -12.7483 Cl  0  0  0  0  0  0  0  0  0  0  0  0
   -4.7466    3.8743  -14.7606 C   0  0  0  0  0  0  0  0  0  0  0  0
   -3.5264    3.8902  -15.3633 N   0  0  0  0  0  0  0  0  0  0  0  0
   -3.4417    4.7083  -16.4134 N   0  0  0  0  0  0  0  0  0  0  0  0
   -4.6531    5.2828  -16.4739 C   0  0  0  0  0  0  0  0  0  0  0  0
   -4.8724    6.4652  -17.3627 C   0  0  0  0  0  0  0  0  0  0  0  0
   -3.6139    7.3281  -17.3578 C   0  0  0  0  0  0  0  0  0  0  0  0
   -3.7377    8.8390  -17.6249 C   0  0  0  0  0  0  0  0  0  0  0  0
   -2.6671    9.0562  -16.6124 N   0  0  0  0  0  0  0  0  0  0  0  0
   -3.0812    7.7828  -15.9754 C   0  0  0  0  0  0  0  0  0  0  0  0
   -5.5369    4.7349  -15.5103 C   0  0  0  0  0  0  0  0  0  0  0  0
   -6.8693    4.9408  -15.1285 C   0  0  0  0  0  0  0  0  0  0  0  0
  1  2  1  0
  2  3  2  0
  2  4  2  0
  2  5  1  0
  5  6  2  0
  6  7  1  0
  7  8  2  0
  8  9  1  0
  9 10  1  0
 10 11  1  0
 11 12  1  0
 12 13  1  0
 13 14  1  0
  8 15  1  0
 15 16  2  0
 16 17  1  0
 17 18  2  0
 17 19  1  0
 19 20  2  0
 20 21  1  0
 21 22  1  0
 21 23  2  0
 23 24  1  0
 24 25  1  0
 25 26  2  0
 26 27  1  0
 27 28  1  0
 28 29  1  0
 29 30  1  0
 30 31  1  0
 26 32  1  0
 32 33  2  0
 16  5  1  0
 33 19  1  0
 14  9  1  0
 32 23  1  0
 31 28  1  0
M  END
>  <smiles>  (171) 
C73817-P16

>  <fragmenstein_outcome>  (171) 
acceptable

>  <inchikey>  (171) 
GZWIDVBBZYECTP-UHFFFAOYSA-N

>  <fragmenstein_mode>  (171) 
expansion

>  <HIPPO Pose ID>  (171) 
2319

>  <Energy>  (171) 
153.036968

>  <fragmenstein_error>  (171) 


>  <tags>  (171) 
{'openbind_xx01zvns2b_c1_fragmenstein', 'fragmenstein_placed'}

>  <ref_pdb>  (171) 
1

>  <scratch_subdir>  (171) 
/opt/xchem-fragalysis-2/maxwin/BulkDock/SCRATCH/511027/C73817-P16

>  <alias>  (171) 
CS(=O)(=O)c1ccc(N2CCNCC2)cc1C(=O)c1cc(Cl)c2[nH]nc(CC3CNC3)c2c1

>  <HIPPO Compound ID>  (171) 
73817

>  <fragmenstein_runtime>  (171) 
14.727158

$$$$
CS(=O)(=O)c1ccc(N2CCNCC2)cc1C(=O)c1cc(F)cc2c1ncn2C1CNC1
     RDKit          3D

 32 36  0  0  0  0  0  0  0  0999 V2000
  -10.0987    7.9722  -13.2057 C   0  0  0  0  0  0  0  0  0  0  0  0
   -8.3702    7.5461  -13.3926 S   0  0  0  0  0  0  0  0  0  0  0  0
   -7.5896    8.7169  -13.0420 O   0  0  0  0  0  0  0  0  0  0  0  0
   -8.2314    6.9460  -14.6956 O   0  0  0  0  0  0  0  0  0  0  0  0
   -8.1303    6.3470  -12.1341 C   0  0  0  0  0  0  0  0  0  0  0  0
   -8.3751    6.8772  -10.8523 C   0  0  0  0  0  0  0  0  0  0  0  0
   -8.4742    6.0567   -9.7450 C   0  0  0  0  0  0  0  0  0  0  0  0
   -8.3363    4.6790   -9.8677 C   0  0  0  0  0  0  0  0  0  0  0  0
   -8.5987    3.8785   -8.7630 N   0  0  0  0  0  0  0  0  0  0  0  0
   -8.8021    2.4295   -8.9686 C   0  0  0  0  0  0  0  0  0  0  0  0
   -9.4875    1.8239   -7.7299 C   0  0  0  0  0  0  0  0  0  0  0  0
   -8.7461    2.0694   -6.4820 N   0  0  0  0  0  0  0  0  0  0  0  0
   -8.5609    3.5166   -6.3110 C   0  0  0  0  0  0  0  0  0  0  0  0
   -7.8792    4.1998   -7.5157 C   0  0  0  0  0  0  0  0  0  0  0  0
   -7.9899    4.1793  -11.1377 C   0  0  0  0  0  0  0  0  0  0  0  0
   -7.8289    4.9926  -12.2910 C   0  0  0  0  0  0  0  0  0  0  0  0
   -7.1440    4.2793  -13.4219 C   0  0  0  0  0  0  0  0  0  0  0  0
   -6.3597    3.3723  -13.1147 O   0  0  0  0  0  0  0  0  0  0  0  0
   -7.2758    4.5069  -14.8647 C   0  0  0  0  0  0  0  0  0  0  0  0
   -8.4661    4.2432  -15.5660 C   0  0  0  0  0  0  0  0  0  0  0  0
   -8.5019    4.3287  -16.9587 C   0  0  0  0  0  0  0  0  0  0  0  0
   -9.6369    4.0226  -17.6101 F   0  0  0  0  0  0  0  0  0  0  0  0
   -7.3786    4.6896  -17.7063 C   0  0  0  0  0  0  0  0  0  0  0  0
   -6.2010    4.9491  -16.9919 C   0  0  0  0  0  0  0  0  0  0  0  0
   -6.1255    4.8575  -15.5967 C   0  0  0  0  0  0  0  0  0  0  0  0
   -4.8467    5.1389  -15.1569 N   0  0  0  0  0  0  0  0  0  0  0  0
   -4.1462    5.3501  -16.2428 C   0  0  0  0  0  0  0  0  0  0  0  0
   -4.9234    5.2905  -17.3617 N   0  0  0  0  0  0  0  0  0  0  0  0
   -4.4280    5.4166  -18.7409 C   0  0  0  0  0  0  0  0  0  0  0  0
   -5.0719    6.5694  -19.5398 C   0  0  0  0  0  0  0  0  0  0  0  0
   -3.7246    6.8594  -20.1011 N   0  0  0  0  0  0  0  0  0  0  0  0
   -3.1355    6.2584  -18.8884 C   0  0  0  0  0  0  0  0  0  0  0  0
  1  2  1  0
  2  3  2  0
  2  4  2  0
  2  5  1  0
  5  6  2  0
  6  7  1  0
  7  8  2  0
  8  9  1  0
  9 10  1  0
 10 11  1  0
 11 12  1  0
 12 13  1  0
 13 14  1  0
  8 15  1  0
 15 16  2  0
 16 17  1  0
 17 18  2  0
 17 19  1  0
 19 20  2  0
 20 21  1  0
 21 22  1  0
 21 23  2  0
 23 24  1  0
 24 25  2  0
 25 26  1  0
 26 27  2  0
 27 28  1  0
 28 29  1  0
 29 30  1  0
 30 31  1  0
 31 32  1  0
 16  5  1  0
 25 19  1  0
 32 29  1  0
 14  9  1  0
 28 24  1  0
M  END
>  <smiles>  (172) 
C73860-P16

>  <fragmenstein_outcome>  (172) 
acceptable

>  <inchikey>  (172) 
KGVVRGIEGIUDND-UHFFFAOYSA-N

>  <fragmenstein_mode>  (172) 
expansion

>  <HIPPO Pose ID>  (172) 
2345

>  <Energy>  (172) 
170.184385

>  <fragmenstein_error>  (172) 


>  <tags>  (172) 
{'openbind_xx01zvns2b_c1_fragmenstein', 'fragmenstein_placed'}

>  <ref_pdb>  (172) 
1

>  <scratch_subdir>  (172) 
/opt/xchem-fragalysis-2/maxwin/BulkDock/SCRATCH/511027/C73860-P16

>  <alias>  (172) 
CS(=O)(=O)c1ccc(N2CCNCC2)cc1C(=O)c1cc(F)cc2c1ncn2C1CNC1

>  <HIPPO Compound ID>  (172) 
73860

>  <fragmenstein_runtime>  (172) 
9.174651

$$$$
CS(=O)(=O)c1ccc(N2CCNCC2)cc1C(=O)c1cc(Cl)c2[nH]nc(N3CCOCC3)c2c1
     RDKit          3D

 34 38  0  0  0  0  0  0  0  0999 V2000
  -10.0740    8.0606  -13.1802 C   0  0  0  0  0  0  0  0  0  0  0  0
   -8.3149    7.7780  -13.2576 S   0  0  0  0  0  0  0  0  0  0  0  0
   -7.6670    8.9769  -12.7564 O   0  0  0  0  0  0  0  0  0  0  0  0
   -7.9251    7.2787  -14.5570 O   0  0  0  0  0  0  0  0  0  0  0  0
   -8.0492    6.4995  -12.0782 C   0  0  0  0  0  0  0  0  0  0  0  0
   -7.7212    6.9043  -10.7908 C   0  0  0  0  0  0  0  0  0  0  0  0
   -7.7959    5.9917   -9.7484 C   0  0  0  0  0  0  0  0  0  0  0  0
   -8.1934    4.6573   -9.9398 C   0  0  0  0  0  0  0  0  0  0  0  0
   -8.5013    3.8567   -8.8332 N   0  0  0  0  0  0  0  0  0  0  0  0
   -8.7103    2.3993   -9.0166 C   0  0  0  0  0  0  0  0  0  0  0  0
   -9.4670    1.7891   -7.8138 C   0  0  0  0  0  0  0  0  0  0  0  0
   -8.8461    2.0568   -6.5153 N   0  0  0  0  0  0  0  0  0  0  0  0
   -8.6996    3.4961   -6.3471 C   0  0  0  0  0  0  0  0  0  0  0  0
   -7.9353    4.1835   -7.5008 C   0  0  0  0  0  0  0  0  0  0  0  0
   -8.3884    4.2513  -11.2873 C   0  0  0  0  0  0  0  0  0  0  0  0
   -8.2961    5.1575  -12.3657 C   0  0  0  0  0  0  0  0  0  0  0  0
   -8.7982    4.7662  -13.7024 C   0  0  0  0  0  0  0  0  0  0  0  0
  -10.0095    4.9035  -13.8631 O   0  0  0  0  0  0  0  0  0  0  0  0
   -7.9696    4.4848  -14.9019 C   0  0  0  0  0  0  0  0  0  0  0  0
   -8.6411    4.2788  -16.1174 C   0  0  0  0  0  0  0  0  0  0  0  0
   -7.9642    4.3221  -17.3305 C   0  0  0  0  0  0  0  0  0  0  0  0
   -8.8110    4.0846  -18.7895 Cl  0  0  0  0  0  0  0  0  0  0  0  0
   -6.6057    4.6134  -17.2996 C   0  0  0  0  0  0  0  0  0  0  0  0
   -5.6869    4.7767  -18.2968 N   0  0  0  0  0  0  0  0  0  0  0  0
   -4.4532    5.0938  -17.8585 N   0  0  0  0  0  0  0  0  0  0  0  0
   -4.5793    5.1388  -16.5277 C   0  0  0  0  0  0  0  0  0  0  0  0
   -3.5773    5.4954  -15.6645 N   0  0  0  0  0  0  0  0  0  0  0  0
   -3.8373    6.7204  -14.8627 C   0  0  0  0  0  0  0  0  0  0  0  0
   -2.5300    7.3320  -14.3354 C   0  0  0  0  0  0  0  0  0  0  0  0
   -1.6106    7.7037  -15.3750 O   0  0  0  0  0  0  0  0  0  0  0  0
   -1.6820    6.8366  -16.5216 C   0  0  0  0  0  0  0  0  0  0  0  0
   -2.1928    5.4311  -16.1823 C   0  0  0  0  0  0  0  0  0  0  0  0
   -5.9046    4.8010  -16.1150 C   0  0  0  0  0  0  0  0  0  0  0  0
   -6.5845    4.6722  -14.8837 C   0  0  0  0  0  0  0  0  0  0  0  0
  1  2  1  0
  2  3  2  0
  2  4  2  0
  2  5  1  0
  5  6  2  0
  6  7  1  0
  7  8  2  0
  8  9  1  0
  9 10  1  0
 10 11  1  0
 11 12  1  0
 12 13  1  0
 13 14  1  0
  8 15  1  0
 15 16  2  0
 16 17  1  0
 17 18  2  0
 17 19  1  0
 19 20  2  0
 20 21  1  0
 21 22  1  0
 21 23  2  0
 23 24  1  0
 24 25  1  0
 25 26  2  0
 26 27  1  0
 27 28  1  0
 28 29  1  0
 29 30  1  0
 30 31  1  0
 31 32  1  0
 26 33  1  0
 33 34  2  0
 16  5  1  0
 34 19  1  0
 14  9  1  0
 33 23  1  0
 32 27  1  0
M  END
>  <smiles>  (173) 
C73865-P16

>  <fragmenstein_outcome>  (173) 
acceptable

>  <inchikey>  (173) 
LUEIRTQRPVTVEP-UHFFFAOYSA-N

>  <fragmenstein_mode>  (173) 
expansion

>  <HIPPO Pose ID>  (173) 
2350

>  <Energy>  (173) 
174.192179

>  <fragmenstein_error>  (173) 


>  <tags>  (173) 
{'openbind_xx01zvns2b_c1_fragmenstein', 'fragmenstein_placed'}

>  <ref_pdb>  (173) 
1

>  <scratch_subdir>  (173) 
/opt/xchem-fragalysis-2/maxwin/BulkDock/SCRATCH/511027/C73865-P16

>  <alias>  (173) 
CS(=O)(=O)c1ccc(N2CCNCC2)cc1C(=O)c1cc(Cl)c2[nH]nc(N3CCOCC3)c2c1

>  <HIPPO Compound ID>  (173) 
73865

>  <fragmenstein_runtime>  (173) 
6.167485

$$$$
NCc1ccc2ccccc2c1
     RDKit          3D

 12 13  0  0  0  0  0  0  0  0999 V2000
   -1.7520    5.4985  -17.1559 N   0  0  0  0  0  0  0  0  0  0  0  0
   -2.7926    5.5775  -16.1310 C   0  0  0  0  0  0  0  0  0  0  0  0
   -4.1903    5.3901  -16.6679 C   0  0  0  0  0  0  0  0  0  0  0  0
   -4.5105    5.4667  -18.0318 C   0  0  0  0  0  0  0  0  0  0  0  0
   -5.8178    5.2687  -18.4775 C   0  0  0  0  0  0  0  0  0  0  0  0
   -6.8434    5.0078  -17.5683 C   0  0  0  0  0  0  0  0  0  0  0  0
   -8.1559    4.7926  -18.0087 C   0  0  0  0  0  0  0  0  0  0  0  0
   -9.1710    4.5454  -17.0912 C   0  0  0  0  0  0  0  0  0  0  0  0
   -8.8755    4.5117  -15.7323 C   0  0  0  0  0  0  0  0  0  0  0  0
   -7.5746    4.7051  -15.2779 C   0  0  0  0  0  0  0  0  0  0  0  0
   -6.5456    4.9560  -16.1882 C   0  0  0  0  0  0  0  0  0  0  0  0
   -5.2259    5.1458  -15.7542 C   0  0  0  0  0  0  0  0  0  0  0  0
  1  2  1  0
  2  3  1  0
  3  4  2  0
  4  5  1  0
  5  6  2  0
  6  7  1  0
  7  8  2  0
  8  9  1  0
  9 10  2  0
 10 11  1  0
 11 12  2  0
 12  3  1  0
 11  6  1  0
M  END
>  <smiles>  (174) 
C74102-P17

>  <fragmenstein_outcome>  (174) 
acceptable

>  <inchikey>  (174) 
QJSJKNUMPBFWQQ-UHFFFAOYSA-N

>  <fragmenstein_mode>  (174) 
expansion

>  <HIPPO Pose ID>  (174) 
2471

>  <Energy>  (174) 
27.717183

>  <fragmenstein_error>  (174) 


>  <tags>  (174) 
{'openbind_xx01zvns2b_c1_fragmenstein', 'fragmenstein_placed'}

>  <ref_pdb>  (174) 
1

>  <scratch_subdir>  (174) 
/opt/xchem-fragalysis-2/maxwin/BulkDock/SCRATCH/511027/C74102-P17

>  <alias>  (174) 
NCc1ccc2ccccc2c1

>  <HIPPO Compound ID>  (174) 
79264

>  <fragmenstein_runtime>  (174) 
1.122792

$$$$
CNCc1cc(CN)c2c(C(=O)Nc3cccc(Br)c3)cc(C)cc2n1
     RDKit          3D

 26 28  0  0  0  0  0  0  0  0999 V2000
   -2.5670    6.7023  -18.9405 C   0  0  0  0  0  0  0  0  0  0  0  0
   -2.8111    5.2820  -19.1229 N   0  0  0  0  0  0  0  0  0  0  0  0
   -2.7510    4.6093  -17.8200 C   0  0  0  0  0  0  0  0  0  0  0  0
   -3.9975    4.8205  -16.9968 C   0  0  0  0  0  0  0  0  0  0  0  0
   -3.9253    5.0286  -15.6381 C   0  0  0  0  0  0  0  0  0  0  0  0
   -5.1123    5.1264  -14.9022 C   0  0  0  0  0  0  0  0  0  0  0  0
   -4.9352    5.3348  -13.4153 C   0  0  0  0  0  0  0  0  0  0  0  0
   -4.9236    6.7510  -13.0745 N   0  0  0  0  0  0  0  0  0  0  0  0
   -6.3751    5.0072  -15.5815 C   0  0  0  0  0  0  0  0  0  0  0  0
   -7.6877    5.0692  -15.0297 C   0  0  0  0  0  0  0  0  0  0  0  0
   -7.9304    5.5957  -13.6730 C   0  0  0  0  0  0  0  0  0  0  0  0
   -7.8071    6.7475  -13.5170 O   0  0  0  0  0  0  0  0  0  0  0  0
   -8.2176    4.4703  -12.6511 N   0  0  0  0  0  0  0  0  0  0  0  0
   -8.3154    4.5129  -11.2586 C   0  0  0  0  0  0  0  0  0  0  0  0
   -8.0886    5.7135  -10.5784 C   0  0  0  0  0  0  0  0  0  0  0  0
   -8.1129    5.7591   -9.1846 C   0  0  0  0  0  0  0  0  0  0  0  0
   -8.3771    4.6034   -8.4603 C   0  0  0  0  0  0  0  0  0  0  0  0
   -8.6296    3.4109   -9.1348 C   0  0  0  0  0  0  0  0  0  0  0  0
   -9.0470    1.8895   -8.1004 Br  0  0  0  0  0  0  0  0  0  0  0  0
   -8.5912    3.3537  -10.5320 C   0  0  0  0  0  0  0  0  0  0  0  0
   -8.8315    4.8410  -15.8002 C   0  0  0  0  0  0  0  0  0  0  0  0
   -8.7297    4.6182  -17.1651 C   0  0  0  0  0  0  0  0  0  0  0  0
   -9.9304    4.3791  -18.0250 C   0  0  0  0  0  0  0  0  0  0  0  0
   -7.4597    4.6184  -17.7337 C   0  0  0  0  0  0  0  0  0  0  0  0
   -6.3106    4.7935  -16.9785 C   0  0  0  0  0  0  0  0  0  0  0  0
   -5.1677    4.7295  -17.6595 N   0  0  0  0  0  0  0  0  0  0  0  0
  1  2  1  0
  2  3  1  0
  3  4  1  0
  4  5  2  0
  5  6  1  0
  6  7  1  0
  7  8  1  0
  6  9  2  0
  9 10  1  0
 10 11  1  0
 11 12  2  0
 11 13  1  0
 13 14  1  0
 14 15  2  0
 15 16  1  0
 16 17  2  0
 17 18  1  0
 18 19  1  0
 18 20  2  0
 10 21  2  0
 21 22  1  0
 22 23  1  0
 22 24  2  0
 24 25  1  0
 25 26  2  0
 26  4  1  0
 25  9  1  0
 20 14  1  0
M  END
>  <smiles>  (175) 
C74295-P17

>  <fragmenstein_outcome>  (175) 
acceptable

>  <inchikey>  (175) 
UIVBMARPUPQIMF-UHFFFAOYSA-N

>  <fragmenstein_mode>  (175) 
expansion

>  <HIPPO Pose ID>  (175) 
2573

>  <Energy>  (175) 
73.410659

>  <fragmenstein_error>  (175) 


>  <tags>  (175) 
{'openbind_xx01zvns2b_c1_fragmenstein', 'fragmenstein_placed'}

>  <ref_pdb>  (175) 
1

>  <scratch_subdir>  (175) 
/opt/xchem-fragalysis-2/maxwin/BulkDock/SCRATCH/511027/C74295-P17

>  <alias>  (175) 
CNCc1cc(CN)c2c(C(=O)Nc3cccc(Br)c3)cc(C)cc2n1

>  <HIPPO Compound ID>  (175) 
86014

>  <fragmenstein_runtime>  (175) 
4.563831

$$$$
CNCc1cc(CN)c2c(C(=O)Nc3ccc4c(c3)CC(C)(C)O4)cc(C)cc2n1
     RDKit          3D

 30 33  0  0  0  0  0  0  0  0999 V2000
   -9.5139    3.6970  -18.2126 C   0  0  0  0  0  0  0  0  0  0  0  0
   -8.7433    3.9430  -16.9932 N   0  0  0  0  0  0  0  0  0  0  0  0
   -8.0538    5.2068  -17.1770 C   0  0  0  0  0  0  0  0  0  0  0  0
   -6.6095    5.2289  -17.6039 C   0  0  0  0  0  0  0  0  0  0  0  0
   -5.6092    5.1659  -16.6619 C   0  0  0  0  0  0  0  0  0  0  0  0
   -4.3468    5.7052  -16.9713 C   0  0  0  0  0  0  0  0  0  0  0  0
   -3.3777    5.7669  -15.8198 C   0  0  0  0  0  0  0  0  0  0  0  0
   -2.2387    4.8898  -15.9945 N   0  0  0  0  0  0  0  0  0  0  0  0
   -4.0962    6.2422  -18.2872 C   0  0  0  0  0  0  0  0  0  0  0  0
   -2.9337    6.9096  -18.8085 C   0  0  0  0  0  0  0  0  0  0  0  0
   -1.7506    7.2586  -17.9924 C   0  0  0  0  0  0  0  0  0  0  0  0
   -1.8353    8.0785  -17.1668 O   0  0  0  0  0  0  0  0  0  0  0  0
   -0.5419    6.3980  -18.4305 N   0  0  0  0  0  0  0  0  0  0  0  0
    0.7887    6.4336  -18.0224 C   0  0  0  0  0  0  0  0  0  0  0  0
    1.2198    7.3088  -17.0124 C   0  0  0  0  0  0  0  0  0  0  0  0
    2.5594    7.3279  -16.6121 C   0  0  0  0  0  0  0  0  0  0  0  0
    3.4348    6.4649  -17.2359 C   0  0  0  0  0  0  0  0  0  0  0  0
    3.0225    5.6063  -18.2385 C   0  0  0  0  0  0  0  0  0  0  0  0
    1.7000    5.5774  -18.6512 C   0  0  0  0  0  0  0  0  0  0  0  0
    4.1885    4.8560  -18.7580 C   0  0  0  0  0  0  0  0  0  0  0  0
    5.2468    5.2283  -17.6941 C   0  0  0  0  0  0  0  0  0  0  0  0
    6.5734    5.6185  -18.3471 C   0  0  0  0  0  0  0  0  0  0  0  0
    5.4710    4.0828  -16.6982 C   0  0  0  0  0  0  0  0  0  0  0  0
    4.7688    6.3813  -16.9428 O   0  0  0  0  0  0  0  0  0  0  0  0
   -2.8435    7.3741  -20.1339 C   0  0  0  0  0  0  0  0  0  0  0  0
   -3.9164    7.2167  -20.9918 C   0  0  0  0  0  0  0  0  0  0  0  0
   -3.8485    7.6760  -22.4157 C   0  0  0  0  0  0  0  0  0  0  0  0
   -5.0603    6.5933  -20.4935 C   0  0  0  0  0  0  0  0  0  0  0  0
   -5.1711    6.1259  -19.1916 C   0  0  0  0  0  0  0  0  0  0  0  0
   -6.3721    5.6560  -18.8592 N   0  0  0  0  0  0  0  0  0  0  0  0
  1  2  1  0
  2  3  1  0
  3  4  1  0
  4  5  2  0
  5  6  1  0
  6  7  1  0
  7  8  1  0
  6  9  2  0
  9 10  1  0
 10 11  1  0
 11 12  2  0
 11 13  1  0
 13 14  1  0
 14 15  2  0
 15 16  1  0
 16 17  2  0
 17 18  1  0
 18 19  2  0
 18 20  1  0
 20 21  1  0
 21 22  1  0
 21 23  1  0
 21 24  1  0
 10 25  2  0
 25 26  1  0
 26 27  1  0
 26 28  2  0
 28 29  1  0
 29 30  2  0
 30  4  1  0
 29  9  1  0
 19 14  1  0
 24 17  1  0
M  END
>  <smiles>  (176) 
C74318-P18

>  <fragmenstein_outcome>  (176) 
acceptable

>  <inchikey>  (176) 
STFVRWZCTATWAS-UHFFFAOYSA-N

>  <fragmenstein_mode>  (176) 
expansion

>  <HIPPO Pose ID>  (176) 
2590

>  <Energy>  (176) 
103.406212

>  <fragmenstein_error>  (176) 


>  <tags>  (176) 
{'openbind_xx01zvns2b_c1_fragmenstein', 'fragmenstein_placed'}

>  <ref_pdb>  (176) 
1

>  <scratch_subdir>  (176) 
/opt/xchem-fragalysis-2/maxwin/BulkDock/SCRATCH/511027/C74318-P18

>  <alias>  (176) 
CNCc1cc(CN)c2c(C(=O)Nc3ccc4c(c3)CC(C)(C)O4)cc(C)cc2n1

>  <HIPPO Compound ID>  (176) 
74318

>  <fragmenstein_runtime>  (176) 
5.469423

$$$$
Cc1cc(C(=O)Nc2ccc3c(c2)CN(C)C3)c2c(CN)c3c(nc2c1)CNC3
     RDKit          3D

 29 33  0  0  0  0  0  0  0  0999 V2000
  -10.1609    4.0615  -17.7948 C   0  0  0  0  0  0  0  0  0  0  0  0
   -8.7555    4.4289  -17.4678 C   0  0  0  0  0  0  0  0  0  0  0  0
   -8.2766    4.5994  -16.1803 C   0  0  0  0  0  0  0  0  0  0  0  0
   -6.9461    5.0164  -15.9969 C   0  0  0  0  0  0  0  0  0  0  0  0
   -6.5523    5.2729  -14.6047 C   0  0  0  0  0  0  0  0  0  0  0  0
   -6.5933    6.3622  -14.1876 O   0  0  0  0  0  0  0  0  0  0  0  0
   -6.0365    3.9710  -13.9547 N   0  0  0  0  0  0  0  0  0  0  0  0
   -5.3984    3.7602  -12.7351 C   0  0  0  0  0  0  0  0  0  0  0  0
   -5.1771    4.8243  -11.8456 C   0  0  0  0  0  0  0  0  0  0  0  0
   -4.4258    4.6390  -10.6833 C   0  0  0  0  0  0  0  0  0  0  0  0
   -3.9079    3.3819  -10.4370 C   0  0  0  0  0  0  0  0  0  0  0  0
   -4.1588    2.3148  -11.2936 C   0  0  0  0  0  0  0  0  0  0  0  0
   -4.9061    2.4827  -12.4475 C   0  0  0  0  0  0  0  0  0  0  0  0
   -3.5342    1.0770  -10.7325 C   0  0  0  0  0  0  0  0  0  0  0  0
   -2.6222    1.5387   -9.6410 N   0  0  0  0  0  0  0  0  0  0  0  0
   -1.2421    1.5621  -10.1260 C   0  0  0  0  0  0  0  0  0  0  0  0
   -3.0741    2.9150   -9.2918 C   0  0  0  0  0  0  0  0  0  0  0  0
   -6.0412    5.2996  -17.0796 C   0  0  0  0  0  0  0  0  0  0  0  0
   -4.6695    5.7694  -17.0591 C   0  0  0  0  0  0  0  0  0  0  0  0
   -3.7692    5.8533  -15.8541 C   0  0  0  0  0  0  0  0  0  0  0  0
   -2.8195    4.7455  -15.8411 N   0  0  0  0  0  0  0  0  0  0  0  0
   -4.0868    6.1367  -18.2735 C   0  0  0  0  0  0  0  0  0  0  0  0
   -4.7699    5.9354  -19.4414 C   0  0  0  0  0  0  0  0  0  0  0  0
   -5.9772    5.3913  -19.5166 N   0  0  0  0  0  0  0  0  0  0  0  0
   -6.5983    5.1126  -18.3696 C   0  0  0  0  0  0  0  0  0  0  0  0
   -7.8870    4.6502  -18.5257 C   0  0  0  0  0  0  0  0  0  0  0  0
   -3.9462    6.4185  -20.5956 C   0  0  0  0  0  0  0  0  0  0  0  0
   -2.8417    7.2173  -19.9929 N   0  0  0  0  0  0  0  0  0  0  0  0
   -2.7546    6.7391  -18.5891 C   0  0  0  0  0  0  0  0  0  0  0  0
  1  2  1  0
  2  3  2  0
  3  4  1  0
  4  5  1  0
  5  6  2  0
  5  7  1  0
  7  8  1  0
  8  9  2  0
  9 10  1  0
 10 11  2  0
 11 12  1  0
 12 13  2  0
 12 14  1  0
 14 15  1  0
 15 16  1  0
 15 17  1  0
  4 18  2  0
 18 19  1  0
 19 20  1  0
 20 21  1  0
 19 22  2  0
 22 23  1  0
 23 24  2  0
 24 25  1  0
 25 26  2  0
 23 27  1  0
 27 28  1  0
 28 29  1  0
 26  2  1  0
 13  8  1  0
 25 18  1  0
 17 11  1  0
 29 22  1  0
M  END
>  <smiles>  (177) 
C74321-P18

>  <fragmenstein_outcome>  (177) 
acceptable

>  <inchikey>  (177) 
WOVJWGLQNFUVTQ-UHFFFAOYSA-N

>  <fragmenstein_mode>  (177) 
expansion

>  <HIPPO Pose ID>  (177) 
2593

>  <Energy>  (177) 
96.57594

>  <fragmenstein_error>  (177) 


>  <tags>  (177) 
{'openbind_xx01zvns2b_c1_fragmenstein', 'fragmenstein_placed'}

>  <ref_pdb>  (177) 
1

>  <scratch_subdir>  (177) 
/opt/xchem-fragalysis-2/maxwin/BulkDock/SCRATCH/511027/C74321-P18

>  <alias>  (177) 
Cc1cc(C(=O)Nc2ccc3c(c2)CN(C)C3)c2c(CN)c3c(nc2c1)CNC3

>  <HIPPO Compound ID>  (177) 
94204

>  <fragmenstein_runtime>  (177) 
4.599952

$$$$
CNCc1cc(CN)c2c(C(=O)Nc3ccc([C@@H]4CCOC4)cc3F)cc(C)cc2n1
     RDKit          3D

 31 34  0  0  0  0  0  0  0  0999 V2000
   -4.8446    7.9735  -22.4628 C   0  0  0  0  0  0  0  0  0  0  0  0
   -5.2849    7.5375  -21.1494 N   0  0  0  0  0  0  0  0  0  0  0  0
   -4.2530    6.7250  -20.4804 C   0  0  0  0  0  0  0  0  0  0  0  0
   -4.8171    6.0220  -19.2626 C   0  0  0  0  0  0  0  0  0  0  0  0
   -4.1253    5.9961  -18.0733 C   0  0  0  0  0  0  0  0  0  0  0  0
   -4.7530    5.5019  -16.9179 C   0  0  0  0  0  0  0  0  0  0  0  0
   -3.9372    5.3902  -15.6510 C   0  0  0  0  0  0  0  0  0  0  0  0
   -2.5097    5.1158  -15.8947 N   0  0  0  0  0  0  0  0  0  0  0  0
   -6.1507    5.1536  -16.9756 C   0  0  0  0  0  0  0  0  0  0  0  0
   -7.0989    4.9137  -15.9150 C   0  0  0  0  0  0  0  0  0  0  0  0
   -6.8288    5.3567  -14.5168 C   0  0  0  0  0  0  0  0  0  0  0  0
   -6.3408    6.4081  -14.3698 O   0  0  0  0  0  0  0  0  0  0  0  0
   -7.3467    4.3349  -13.4729 N   0  0  0  0  0  0  0  0  0  0  0  0
   -7.4546    4.4331  -12.0804 C   0  0  0  0  0  0  0  0  0  0  0  0
   -7.9458    3.3271  -11.3831 C   0  0  0  0  0  0  0  0  0  0  0  0
   -8.1352    3.3724   -9.9918 C   0  0  0  0  0  0  0  0  0  0  0  0
   -7.8348    4.5281   -9.2629 C   0  0  0  0  0  0  0  0  0  0  0  0
   -8.0824    4.6674   -7.7821 C   0  0  2  0  0  0  0  0  0  0  0  0
   -6.8554    5.0579   -6.9732 C   0  0  0  0  0  0  0  0  0  0  0  0
   -7.2865    4.7654   -5.5490 C   0  0  0  0  0  0  0  0  0  0  0  0
   -8.3806    3.8441   -5.6058 O   0  0  0  0  0  0  0  0  0  0  0  0
   -8.5612    3.4631   -6.9816 C   0  0  0  0  0  0  0  0  0  0  0  0
   -7.3389    5.6327   -9.9704 C   0  0  0  0  0  0  0  0  0  0  0  0
   -7.1494    5.5830  -11.3522 C   0  0  0  0  0  0  0  0  0  0  0  0
   -6.6939    6.6969  -11.9378 F   0  0  0  0  0  0  0  0  0  0  0  0
   -8.4351    4.5454  -16.1795 C   0  0  0  0  0  0  0  0  0  0  0  0
   -8.8604    4.3887  -17.4876 C   0  0  0  0  0  0  0  0  0  0  0  0
  -10.2550    4.0470  -17.8756 C   0  0  0  0  0  0  0  0  0  0  0  0
   -7.9512    4.6214  -18.5043 C   0  0  0  0  0  0  0  0  0  0  0  0
   -6.6679    5.0612  -18.2800 C   0  0  0  0  0  0  0  0  0  0  0  0
   -6.0250    5.4476  -19.3784 N   0  0  0  0  0  0  0  0  0  0  0  0
  1  2  1  0
  2  3  1  0
  3  4  1  0
  4  5  2  0
  5  6  1  0
  6  7  1  0
  7  8  1  0
  6  9  2  0
  9 10  1  0
 10 11  1  0
 11 12  2  0
 11 13  1  0
 13 14  1  0
 14 15  2  0
 15 16  1  0
 16 17  2  0
 18 17  1  6
 18 19  1  0
 19 20  1  0
 20 21  1  0
 21 22  1  0
 17 23  1  0
 23 24  2  0
 24 25  1  0
 10 26  2  0
 26 27  1  0
 27 28  1  0
 27 29  2  0
 29 30  1  0
 30 31  2  0
 31  4  1  0
 30  9  1  0
 24 14  1  0
 22 18  1  0
M  END
>  <smiles>  (178) 
C74323-P18

>  <fragmenstein_outcome>  (178) 
acceptable

>  <inchikey>  (178) 
XUKHPWDNVAVCGH-UHFFFAOYSA-N

>  <fragmenstein_mode>  (178) 
expansion

>  <HIPPO Pose ID>  (178) 
2594

>  <Energy>  (178) 
122.332529

>  <fragmenstein_error>  (178) 


>  <tags>  (178) 
{'openbind_xx01zvns2b_c1_fragmenstein', 'fragmenstein_placed'}

>  <ref_pdb>  (178) 
1

>  <scratch_subdir>  (178) 
/opt/xchem-fragalysis-2/maxwin/BulkDock/SCRATCH/511027/C74323-P18

>  <alias>  (178) 
CNCc1cc(CN)c2c(C(=O)Nc3ccc([C@@H]4CCOC4)cc3F)cc(C)cc2n1

>  <HIPPO Compound ID>  (178) 
98686

>  <fragmenstein_runtime>  (178) 
7.38036

$$$$
CNCc1cc(CN)c2c(C(=O)Nc3cccc(C#N)c3)cc(C)cc2n1
     RDKit          3D

 27 29  0  0  0  0  0  0  0  0999 V2000
  -10.5471    4.6055  -18.1921 C   0  0  0  0  0  0  0  0  0  0  0  0
   -9.1462    4.3640  -18.4658 N   0  0  0  0  0  0  0  0  0  0  0  0
   -8.3207    4.5395  -17.2702 C   0  0  0  0  0  0  0  0  0  0  0  0
   -6.9291    5.0731  -17.5727 C   0  0  0  0  0  0  0  0  0  0  0  0
   -5.9649    5.0678  -16.5873 C   0  0  0  0  0  0  0  0  0  0  0  0
   -4.7290    5.6879  -16.8300 C   0  0  0  0  0  0  0  0  0  0  0  0
   -3.6867    5.5338  -15.7520 C   0  0  0  0  0  0  0  0  0  0  0  0
   -2.4839    4.9465  -16.2941 N   0  0  0  0  0  0  0  0  0  0  0  0
   -4.4890    6.3492  -18.0850 C   0  0  0  0  0  0  0  0  0  0  0  0
   -3.3546    7.1373  -18.4886 C   0  0  0  0  0  0  0  0  0  0  0  0
   -2.3595    7.7187  -17.5415 C   0  0  0  0  0  0  0  0  0  0  0  0
   -1.2205    7.4975  -17.6744 O   0  0  0  0  0  0  0  0  0  0  0  0
   -3.0924    8.6449  -16.5374 N   0  0  0  0  0  0  0  0  0  0  0  0
   -2.5871    9.5284  -15.5887 C   0  0  0  0  0  0  0  0  0  0  0  0
   -1.2154    9.6984  -15.4048 C   0  0  0  0  0  0  0  0  0  0  0  0
   -0.7402   10.5943  -14.4443 C   0  0  0  0  0  0  0  0  0  0  0  0
   -1.6372   11.3241  -13.6642 C   0  0  0  0  0  0  0  0  0  0  0  0
   -3.0132   11.1562  -13.8450 C   0  0  0  0  0  0  0  0  0  0  0  0
   -3.9421   11.9041  -13.0503 C   0  0  0  0  0  0  0  0  0  0  0  0
   -4.7078   12.5037  -12.4172 N   0  0  0  0  0  0  0  0  0  0  0  0
   -3.4873   10.2563  -14.8075 C   0  0  0  0  0  0  0  0  0  0  0  0
   -3.1847    7.5939  -19.8053 C   0  0  0  0  0  0  0  0  0  0  0  0
   -4.1679    7.3516  -20.7483 C   0  0  0  0  0  0  0  0  0  0  0  0
   -3.9984    7.7771  -22.1744 C   0  0  0  0  0  0  0  0  0  0  0  0
   -5.3157    6.6701  -20.3372 C   0  0  0  0  0  0  0  0  0  0  0  0
   -5.5067    6.1947  -19.0452 C   0  0  0  0  0  0  0  0  0  0  0  0
   -6.6948    5.6351  -18.7777 N   0  0  0  0  0  0  0  0  0  0  0  0
  1  2  1  0
  2  3  1  0
  3  4  1  0
  4  5  2  0
  5  6  1  0
  6  7  1  0
  7  8  1  0
  6  9  2  0
  9 10  1  0
 10 11  1  0
 11 12  2  0
 11 13  1  0
 13 14  1  0
 14 15  2  0
 15 16  1  0
 16 17  2  0
 17 18  1  0
 18 19  1  0
 19 20  3  0
 18 21  2  0
 10 22  2  0
 22 23  1  0
 23 24  1  0
 23 25  2  0
 25 26  1  0
 26 27  2  0
 27  4  1  0
 26  9  1  0
 21 14  1  0
M  END
>  <smiles>  (179) 
C74325-P18

>  <fragmenstein_outcome>  (179) 
acceptable

>  <inchikey>  (179) 
ZUXCGCGWZZXQGR-UHFFFAOYSA-N

>  <fragmenstein_mode>  (179) 
expansion

>  <HIPPO Pose ID>  (179) 
2596

>  <Energy>  (179) 
91.232641

>  <fragmenstein_error>  (179) 


>  <tags>  (179) 
{'openbind_xx01zvns2b_c1_fragmenstein', 'fragmenstein_placed'}

>  <ref_pdb>  (179) 
1

>  <scratch_subdir>  (179) 
/opt/xchem-fragalysis-2/maxwin/BulkDock/SCRATCH/511027/C74325-P18

>  <alias>  (179) 
CNCc1cc(CN)c2c(C(=O)Nc3cccc(C#N)c3)cc(C)cc2n1

>  <HIPPO Compound ID>  (179) 
88404

>  <fragmenstein_runtime>  (179) 
4.286851

$$$$
Cc1cccc2c(N3CCNCC3)ccnc12
     RDKit          3D

 17 19  0  0  0  0  0  0  0  0999 V2000
   -9.4047    4.2663  -17.3229 C   0  0  0  0  0  0  0  0  0  0  0  0
   -8.1651    4.5968  -16.5510 C   0  0  0  0  0  0  0  0  0  0  0  0
   -8.1984    4.5304  -15.1490 C   0  0  0  0  0  0  0  0  0  0  0  0
   -7.0598    4.7862  -14.4073 C   0  0  0  0  0  0  0  0  0  0  0  0
   -5.8914    5.1294  -15.0738 C   0  0  0  0  0  0  0  0  0  0  0  0
   -5.8356    5.2299  -16.4846 C   0  0  0  0  0  0  0  0  0  0  0  0
   -4.6554    5.5972  -17.1883 C   0  0  0  0  0  0  0  0  0  0  0  0
   -3.5003    5.9962  -16.4732 N   0  0  0  0  0  0  0  0  0  0  0  0
   -2.1928    5.5569  -16.9933 C   0  0  0  0  0  0  0  0  0  0  0  0
   -1.3760    6.7264  -17.5851 C   0  0  0  0  0  0  0  0  0  0  0  0
   -1.1154    7.8364  -16.6470 N   0  0  0  0  0  0  0  0  0  0  0  0
   -2.1839    7.9397  -15.6321 C   0  0  0  0  0  0  0  0  0  0  0  0
   -3.5673    7.4281  -16.0928 C   0  0  0  0  0  0  0  0  0  0  0  0
   -4.6902    5.6144  -18.5857 C   0  0  0  0  0  0  0  0  0  0  0  0
   -5.8705    5.3012  -19.2242 C   0  0  0  0  0  0  0  0  0  0  0  0
   -7.0023    4.9872  -18.5741 N   0  0  0  0  0  0  0  0  0  0  0  0
   -6.9943    4.9391  -17.2328 C   0  0  0  0  0  0  0  0  0  0  0  0
  1  2  1  0
  2  3  2  0
  3  4  1  0
  4  5  2  0
  5  6  1  0
  6  7  2  0
  7  8  1  0
  8  9  1  0
  9 10  1  0
 10 11  1  0
 11 12  1  0
 12 13  1  0
  7 14  1  0
 14 15  2  0
 15 16  1  0
 16 17  2  0
 17  2  1  0
 17  6  1  0
 13  8  1  0
M  END
>  <smiles>  (180) 
C74370-P18

>  <fragmenstein_outcome>  (180) 
acceptable

>  <inchikey>  (180) 
JZHGRUMIRATHIU-UHFFFAOYSA-N

>  <fragmenstein_mode>  (180) 
expansion

>  <HIPPO Pose ID>  (180) 
2620

>  <Energy>  (180) 
131.093071

>  <fragmenstein_error>  (180) 


>  <tags>  (180) 
{'openbind_xx01zvns2b_c1_fragmenstein', 'fragmenstein_placed'}

>  <ref_pdb>  (180) 
1

>  <scratch_subdir>  (180) 
/opt/xchem-fragalysis-2/maxwin/BulkDock/SCRATCH/511027/C74370-P18

>  <alias>  (180) 
Cc1cccc2c(N3CCNCC3)ccnc12

>  <HIPPO Compound ID>  (180) 
76716

>  <fragmenstein_runtime>  (180) 
1.603676

$$$$
CNC(=O)[C@H](Nc1ccc2c(c1)C(=O)OC2)c1cc(Cl)cc2nccc(N3CCNCC3)c12
     RDKit          3D

 33 37  0  0  0  0  0  0  0  0999 V2000
   -4.8236    1.8192  -12.9770 C   0  0  0  0  0  0  0  0  0  0  0  0
   -5.6923    2.8337  -13.4833 N   0  0  0  0  0  0  0  0  0  0  0  0
   -5.7870    4.3437  -13.1378 C   0  0  0  0  0  0  0  0  0  0  0  0
   -5.1175    5.0061  -12.4422 O   0  0  0  0  0  0  0  0  0  0  0  0
   -7.0811    4.9142  -13.8195 C   0  0  2  0  0  0  0  0  0  0  0  0
   -8.2633    4.3138  -13.0743 N   0  0  0  0  0  0  0  0  0  0  0  0
   -8.2371    4.3620  -11.6563 C   0  0  0  0  0  0  0  0  0  0  0  0
   -7.8653    5.5331  -10.9650 C   0  0  0  0  0  0  0  0  0  0  0  0
   -7.8291    5.5864   -9.5654 C   0  0  0  0  0  0  0  0  0  0  0  0
   -8.2089    4.4660   -8.8529 C   0  0  0  0  0  0  0  0  0  0  0  0
   -8.6376    3.3321   -9.5062 C   0  0  0  0  0  0  0  0  0  0  0  0
   -8.6651    3.2544  -10.8967 C   0  0  0  0  0  0  0  0  0  0  0  0
   -9.0863    2.3747   -8.4875 C   0  0  0  0  0  0  0  0  0  0  0  0
   -9.6322    1.3039   -8.6378 O   0  0  0  0  0  0  0  0  0  0  0  0
   -8.8669    2.9579   -7.2679 O   0  0  0  0  0  0  0  0  0  0  0  0
   -8.2645    4.2521   -7.3959 C   0  0  0  0  0  0  0  0  0  0  0  0
   -7.2505    4.7744  -15.3667 C   0  0  0  0  0  0  0  0  0  0  0  0
   -8.5751    4.5600  -15.8390 C   0  0  0  0  0  0  0  0  0  0  0  0
   -8.8667    4.4598  -17.1941 C   0  0  0  0  0  0  0  0  0  0  0  0
  -10.4620    4.2470  -17.7747 Cl  0  0  0  0  0  0  0  0  0  0  0  0
   -7.8622    4.5529  -18.1233 C   0  0  0  0  0  0  0  0  0  0  0  0
   -6.5681    4.7762  -17.7429 C   0  0  0  0  0  0  0  0  0  0  0  0
   -5.7492    4.8225  -18.7929 N   0  0  0  0  0  0  0  0  0  0  0  0
   -4.4574    5.0443  -18.6004 C   0  0  0  0  0  0  0  0  0  0  0  0
   -3.9470    5.2911  -17.3592 C   0  0  0  0  0  0  0  0  0  0  0  0
   -4.7965    5.3046  -16.2364 C   0  0  0  0  0  0  0  0  0  0  0  0
   -4.2646    5.7583  -15.0224 N   0  0  0  0  0  0  0  0  0  0  0  0
   -4.6080    7.1649  -14.7048 C   0  0  0  0  0  0  0  0  0  0  0  0
   -3.4897    8.1455  -15.1128 C   0  0  0  0  0  0  0  0  0  0  0  0
   -2.1857    7.8109  -14.5058 N   0  0  0  0  0  0  0  0  0  0  0  0
   -1.8115    6.4496  -14.9347 C   0  0  0  0  0  0  0  0  0  0  0  0
   -2.8806    5.3656  -14.6529 C   0  0  0  0  0  0  0  0  0  0  0  0
   -6.1957    4.9548  -16.3743 C   0  0  0  0  0  0  0  0  0  0  0  0
  1  2  1  0
  2  3  1  0
  3  4  2  0
  3  5  1  0
  5  6  1  1
  6  7  1  0
  7  8  2  0
  8  9  1  0
  9 10  2  0
 10 11  1  0
 11 12  2  0
 11 13  1  0
 13 14  2  0
 13 15  1  0
 15 16  1  0
  5 17  1  0
 17 18  2  0
 18 19  1  0
 19 20  1  0
 19 21  2  0
 21 22  1  0
 22 23  2  0
 23 24  1  0
 24 25  2  0
 25 26  1  0
 26 27  1  0
 27 28  1  0
 28 29  1  0
 29 30  1  0
 30 31  1  0
 31 32  1  0
 26 33  2  0
 12  7  1  0
 33 17  1  0
 16 10  1  0
 33 22  1  0
 32 27  1  0
M  END
>  <smiles>  (181) 
C74460-P18

>  <fragmenstein_outcome>  (181) 
acceptable

>  <inchikey>  (181) 
BWVPVKZGXKBIJT-UHFFFAOYSA-N

>  <fragmenstein_mode>  (181) 
expansion

>  <HIPPO Pose ID>  (181) 
2660

>  <Energy>  (181) 
203.324723

>  <fragmenstein_error>  (181) 


>  <tags>  (181) 
{'openbind_xx01zvns2b_c1_fragmenstein', 'fragmenstein_placed'}

>  <ref_pdb>  (181) 
1

>  <scratch_subdir>  (181) 
/opt/xchem-fragalysis-2/maxwin/BulkDock/SCRATCH/511027/C74460-P18

>  <alias>  (181) 
CNC(=O)[C@H](Nc1ccc2c(c1)C(=O)OC2)c1cc(Cl)cc2nccc(N3CCNCC3)c12

>  <HIPPO Compound ID>  (181) 
91830

>  <fragmenstein_runtime>  (181) 
9.092018

$$$$
O=C(NCC(F)F)[C@H](Nc1ccc2c(c1)CNC2)c1cc(Br)cc2nccc(N3CCNCC3)c12
     RDKit          3D

 35 39  0  0  0  0  0  0  0  0999 V2000
   -7.0915    2.0387  -13.5471 O   0  0  0  0  0  0  0  0  0  0  0  0
   -6.4156    2.9666  -13.7600 C   0  0  0  0  0  0  0  0  0  0  0  0
   -4.8783    3.0668  -13.9585 N   0  0  0  0  0  0  0  0  0  0  0  0
   -3.8839    2.0437  -14.0292 C   0  0  0  0  0  0  0  0  0  0  0  0
   -2.8013    2.0814  -12.9957 C   0  0  0  0  0  0  0  0  0  0  0  0
   -2.2109    3.3061  -13.0057 F   0  0  0  0  0  0  0  0  0  0  0  0
   -1.8461    1.2143  -13.4257 F   0  0  0  0  0  0  0  0  0  0  0  0
   -6.9486    4.4291  -14.0177 C   0  0  2  0  0  0  0  0  0  0  0  0
   -8.1856    4.7681  -13.2297 N   0  0  0  0  0  0  0  0  0  0  0  0
   -8.1213    4.6663  -11.8236 C   0  0  0  0  0  0  0  0  0  0  0  0
   -7.8026    5.7973  -11.0450 C   0  0  0  0  0  0  0  0  0  0  0  0
   -7.7930    5.7444   -9.6432 C   0  0  0  0  0  0  0  0  0  0  0  0
   -8.0982    4.5457   -9.0271 C   0  0  0  0  0  0  0  0  0  0  0  0
   -8.3770    3.4114   -9.7784 C   0  0  0  0  0  0  0  0  0  0  0  0
   -8.3840    3.4541  -11.1680 C   0  0  0  0  0  0  0  0  0  0  0  0
   -8.6292    2.2659   -8.8505 C   0  0  0  0  0  0  0  0  0  0  0  0
   -8.8549    2.8896   -7.5154 N   0  0  0  0  0  0  0  0  0  0  0  0
   -8.1776    4.2022   -7.5767 C   0  0  0  0  0  0  0  0  0  0  0  0
   -7.2087    4.6195  -15.5410 C   0  0  0  0  0  0  0  0  0  0  0  0
   -8.5206    4.3137  -15.9726 C   0  0  0  0  0  0  0  0  0  0  0  0
   -8.8526    4.3339  -17.3128 C   0  0  0  0  0  0  0  0  0  0  0  0
  -10.6025    4.0975  -17.9091 Br  0  0  0  0  0  0  0  0  0  0  0  0
   -7.8976    4.5797  -18.2653 C   0  0  0  0  0  0  0  0  0  0  0  0
   -6.6140    4.8813  -17.9171 C   0  0  0  0  0  0  0  0  0  0  0  0
   -5.8602    5.0956  -18.9936 N   0  0  0  0  0  0  0  0  0  0  0  0
   -4.5857    5.4125  -18.8322 C   0  0  0  0  0  0  0  0  0  0  0  0
   -4.0247    5.5728  -17.5929 C   0  0  0  0  0  0  0  0  0  0  0  0
   -4.8068    5.3856  -16.4311 C   0  0  0  0  0  0  0  0  0  0  0  0
   -4.2498    5.7220  -15.1635 N   0  0  0  0  0  0  0  0  0  0  0  0
   -2.7745    5.5482  -14.9927 C   0  0  0  0  0  0  0  0  0  0  0  0
   -2.3310    6.1705  -13.6473 C   0  0  0  0  0  0  0  0  0  0  0  0
   -2.5316    7.6331  -13.5776 N   0  0  0  0  0  0  0  0  0  0  0  0
   -3.5587    8.0826  -14.5344 C   0  0  0  0  0  0  0  0  0  0  0  0
   -4.7218    7.0818  -14.7258 C   0  0  0  0  0  0  0  0  0  0  0  0
   -6.1956    4.9656  -16.5542 C   0  0  0  0  0  0  0  0  0  0  0  0
  1  2  2  0
  2  3  1  0
  3  4  1  0
  4  5  1  0
  5  6  1  0
  5  7  1  0
  2  8  1  0
  8  9  1  1
  9 10  1  0
 10 11  2  0
 11 12  1  0
 12 13  2  0
 13 14  1  0
 14 15  2  0
 14 16  1  0
 16 17  1  0
 17 18  1  0
  8 19  1  0
 19 20  2  0
 20 21  1  0
 21 22  1  0
 21 23  2  0
 23 24  1  0
 24 25  2  0
 25 26  1  0
 26 27  2  0
 27 28  1  0
 28 29  1  0
 29 30  1  0
 30 31  1  0
 31 32  1  0
 32 33  1  0
 33 34  1  0
 28 35  2  0
 15 10  1  0
 35 19  1  0
 18 13  1  0
 35 24  1  0
 34 29  1  0
M  END
>  <smiles>  (182) 
C74504-P18

>  <fragmenstein_outcome>  (182) 
acceptable

>  <inchikey>  (182) 
QLMQVJIFGDSKHX-UHFFFAOYSA-N

>  <fragmenstein_mode>  (182) 
expansion

>  <HIPPO Pose ID>  (182) 
2694

>  <Energy>  (182) 
234.043284

>  <fragmenstein_error>  (182) 


>  <tags>  (182) 
{'openbind_xx01zvns2b_c1_fragmenstein', 'fragmenstein_placed'}

>  <ref_pdb>  (182) 
1

>  <scratch_subdir>  (182) 
/opt/xchem-fragalysis-2/maxwin/BulkDock/SCRATCH/511027/C74504-P18

>  <alias>  (182) 
O=C(NCC(F)F)[C@H](Nc1ccc2c(c1)CNC2)c1cc(Br)cc2nccc(N3CCNCC3)c12

>  <HIPPO Compound ID>  (182) 
106408

>  <fragmenstein_runtime>  (182) 
9.158475

$$$$
CN1CCc2nc3cccc(C(=O)Nc4ccc5c(c4)CNC5)c3c(N3CCNCC3)c2CC1
     RDKit          3D

 34 39  0  0  0  0  0  0  0  0999 V2000
   -0.9701    5.4166  -20.6648 C   0  0  0  0  0  0  0  0  0  0  0  0
   -2.0776    6.1191  -20.0043 N   0  0  0  0  0  0  0  0  0  0  0  0
   -3.3362    5.8759  -20.7329 C   0  0  0  0  0  0  0  0  0  0  0  0
   -4.5474    6.6817  -20.2698 C   0  0  0  0  0  0  0  0  0  0  0  0
   -5.1877    6.0819  -19.0491 C   0  0  0  0  0  0  0  0  0  0  0  0
   -6.4195    5.5703  -19.2183 N   0  0  0  0  0  0  0  0  0  0  0  0
   -7.0998    5.0952  -18.1733 C   0  0  0  0  0  0  0  0  0  0  0  0
   -8.3819    4.6193  -18.4240 C   0  0  0  0  0  0  0  0  0  0  0  0
   -9.2354    4.2104  -17.4090 C   0  0  0  0  0  0  0  0  0  0  0  0
   -8.7780    4.2423  -16.1071 C   0  0  0  0  0  0  0  0  0  0  0  0
   -7.4724    4.6656  -15.8342 C   0  0  0  0  0  0  0  0  0  0  0  0
   -7.1395    4.7089  -14.3873 C   0  0  0  0  0  0  0  0  0  0  0  0
   -6.6094    3.8103  -13.8640 O   0  0  0  0  0  0  0  0  0  0  0  0
   -7.6960    6.0285  -13.7967 N   0  0  0  0  0  0  0  0  0  0  0  0
   -7.6322    6.5372  -12.5027 C   0  0  0  0  0  0  0  0  0  0  0  0
   -7.1642    5.7520  -11.4372 C   0  0  0  0  0  0  0  0  0  0  0  0
   -7.0627    6.2834  -10.1480 C   0  0  0  0  0  0  0  0  0  0  0  0
   -7.4232    7.6037   -9.9565 C   0  0  0  0  0  0  0  0  0  0  0  0
   -7.9039    8.3796  -11.0081 C   0  0  0  0  0  0  0  0  0  0  0  0
   -8.0292    7.8607  -12.2855 C   0  0  0  0  0  0  0  0  0  0  0  0
   -8.2347    9.7399  -10.4933 C   0  0  0  0  0  0  0  0  0  0  0  0
   -7.5630    9.8294   -9.1722 N   0  0  0  0  0  0  0  0  0  0  0  0
   -7.4130    8.4237   -8.7104 C   0  0  0  0  0  0  0  0  0  0  0  0
   -6.5927    5.1170  -16.8613 C   0  0  0  0  0  0  0  0  0  0  0  0
   -5.2551    5.6126  -16.7030 C   0  0  0  0  0  0  0  0  0  0  0  0
   -4.6757    5.6093  -15.4258 N   0  0  0  0  0  0  0  0  0  0  0  0
   -4.4502    6.9158  -14.7885 C   0  0  0  0  0  0  0  0  0  0  0  0
   -3.8942    6.7997  -13.3485 C   0  0  0  0  0  0  0  0  0  0  0  0
   -3.3702    5.4866  -12.9321 N   0  0  0  0  0  0  0  0  0  0  0  0
   -2.7087    4.8482  -14.0793 C   0  0  0  0  0  0  0  0  0  0  0  0
   -3.7008    4.5216  -15.2082 C   0  0  0  0  0  0  0  0  0  0  0  0
   -4.5365    6.0775  -17.8242 C   0  0  0  0  0  0  0  0  0  0  0  0
   -3.1028    6.5418  -17.7623 C   0  0  0  0  0  0  0  0  0  0  0  0
   -2.1630    5.6741  -18.6016 C   0  0  0  0  0  0  0  0  0  0  0  0
  1  2  1  0
  2  3  1  0
  3  4  1  0
  4  5  1  0
  5  6  2  0
  6  7  1  0
  7  8  2  0
  8  9  1  0
  9 10  2  0
 10 11  1  0
 11 12  1  0
 12 13  2  0
 12 14  1  0
 14 15  1  0
 15 16  2  0
 16 17  1  0
 17 18  2  0
 18 19  1  0
 19 20  2  0
 19 21  1  0
 21 22  1  0
 22 23  1  0
 11 24  2  0
 24 25  1  0
 25 26  1  0
 26 27  1  0
 27 28  1  0
 28 29  1  0
 29 30  1  0
 30 31  1  0
 25 32  2  0
 32 33  1  0
 33 34  1  0
 34  2  1  0
 32  5  1  0
 24  7  1  0
 31 26  1  0
 20 15  1  0
 23 18  1  0
M  END
>  <smiles>  (183) 
C74560-P19

>  <fragmenstein_outcome>  (183) 
acceptable

>  <inchikey>  (183) 
ZPKZAEBWPMQOAJ-UHFFFAOYSA-N

>  <fragmenstein_mode>  (183) 
expansion

>  <HIPPO Pose ID>  (183) 
2729

>  <Energy>  (183) 
189.960887

>  <fragmenstein_error>  (183) 


>  <tags>  (183) 
{'openbind_xx01zvns2b_c1_fragmenstein', 'fragmenstein_placed'}

>  <ref_pdb>  (183) 
1

>  <scratch_subdir>  (183) 
/opt/xchem-fragalysis-2/maxwin/BulkDock/SCRATCH/511027/C74560-P19

>  <alias>  (183) 
CN1CCc2nc3cccc(C(=O)Nc4ccc5c(c4)CNC5)c3c(N3CCNCC3)c2CC1

>  <HIPPO Compound ID>  (183) 
74560

>  <fragmenstein_runtime>  (183) 
5.154268

$$$$
O=C(Nc1ccc2c(c1)CNC2)c1cccc2c1c(N1CCNCC1)cc[n+]2[O-]
     RDKit          3D

 29 33  0  0  0  0  0  0  0  0999 V2000
   -6.2661    3.9900  -14.1760 O   0  0  0  0  0  0  0  0  0  0  0  0
   -6.9788    4.8098  -14.6030 C   0  0  0  0  0  0  0  0  0  0  0  0
   -7.6168    6.0425  -13.9155 N   0  0  0  0  0  0  0  0  0  0  0  0
   -7.5863    6.4520  -12.5863 C   0  0  0  0  0  0  0  0  0  0  0  0
   -6.9568    5.6741  -11.6019 C   0  0  0  0  0  0  0  0  0  0  0  0
   -6.9643    6.0728  -10.2620 C   0  0  0  0  0  0  0  0  0  0  0  0
   -7.6167    7.2461   -9.9335 C   0  0  0  0  0  0  0  0  0  0  0  0
   -8.2396    8.0211  -10.9072 C   0  0  0  0  0  0  0  0  0  0  0  0
   -8.2307    7.6444  -12.2402 C   0  0  0  0  0  0  0  0  0  0  0  0
   -8.8360    9.2253  -10.2623 C   0  0  0  0  0  0  0  0  0  0  0  0
   -8.8193    8.9447   -8.8040 N   0  0  0  0  0  0  0  0  0  0  0  0
   -7.7752    7.9023   -8.6048 C   0  0  0  0  0  0  0  0  0  0  0  0
   -7.4866    4.7169  -15.9992 C   0  0  0  0  0  0  0  0  0  0  0  0
   -8.8486    4.3888  -16.0971 C   0  0  0  0  0  0  0  0  0  0  0  0
   -9.4432    4.1954  -17.3328 C   0  0  0  0  0  0  0  0  0  0  0  0
   -8.6516    4.2349  -18.4663 C   0  0  0  0  0  0  0  0  0  0  0  0
   -7.2752    4.5363  -18.3901 C   0  0  0  0  0  0  0  0  0  0  0  0
   -6.6650    4.8748  -17.1478 C   0  0  0  0  0  0  0  0  0  0  0  0
   -5.3012    5.3049  -17.1562 C   0  0  0  0  0  0  0  0  0  0  0  0
   -4.6365    5.6134  -15.9642 N   0  0  0  0  0  0  0  0  0  0  0  0
   -4.4128    7.0401  -15.6820 C   0  0  0  0  0  0  0  0  0  0  0  0
   -3.4183    7.2335  -14.5071 C   0  0  0  0  0  0  0  0  0  0  0  0
   -3.4306    6.1417  -13.5203 N   0  0  0  0  0  0  0  0  0  0  0  0
   -3.0645    4.8685  -14.1833 C   0  0  0  0  0  0  0  0  0  0  0  0
   -3.4812    4.7405  -15.6682 C   0  0  0  0  0  0  0  0  0  0  0  0
   -4.6122    5.3855  -18.3662 C   0  0  0  0  0  0  0  0  0  0  0  0
   -5.2098    4.9404  -19.5314 C   0  0  0  0  0  0  0  0  0  0  0  0
   -6.5006    4.4526  -19.5561 N   0  0  0  0  0  0  0  0  0  0  0  0
   -6.9296    3.8620  -20.6103 O   0  0  0  0  0  0  0  0  0  0  0  0
  1  2  2  0
  2  3  1  0
  3  4  1  0
  4  5  2  0
  5  6  1  0
  6  7  2  0
  7  8  1  0
  8  9  2  0
  8 10  1  0
 10 11  1  0
 11 12  1  0
  2 13  1  0
 13 14  2  0
 14 15  1  0
 15 16  2  0
 16 17  1  0
 17 18  2  0
 18 19  1  0
 19 20  1  0
 20 21  1  0
 21 22  1  0
 22 23  1  0
 23 24  1  0
 24 25  1  0
 19 26  2  0
 26 27  1  0
 27 28  2  0
 28 29  1  0
  9  4  1  0
 18 13  1  0
 25 20  1  0
 12  7  1  0
 28 17  1  0
M  CHG  2  28   1  29  -1
M  END
>  <smiles>  (184) 
C74461-P19

>  <fragmenstein_outcome>  (184) 
acceptable

>  <inchikey>  (184) 
YZEAYWFTTSQGNO-UHFFFAOYSA-N

>  <fragmenstein_mode>  (184) 
expansion

>  <HIPPO Pose ID>  (184) 
2730

>  <Energy>  (184) 
164.959735

>  <fragmenstein_error>  (184) 


>  <tags>  (184) 
{'openbind_xx01zvns2b_c1_fragmenstein', 'fragmenstein_placed'}

>  <ref_pdb>  (184) 
1

>  <scratch_subdir>  (184) 
/opt/xchem-fragalysis-2/maxwin/BulkDock/SCRATCH/511027/C74461-P19

>  <alias>  (184) 
O=C(Nc1ccc2c(c1)CNC2)c1cccc2c1c(N1CCNCC1)cc[n+]2[O-]

>  <HIPPO Compound ID>  (184) 
74461

>  <fragmenstein_runtime>  (184) 
4.066128

$$$$
O=C(Nc1ccc2c(c1)CNC2)c1cccc2ncc(CC3CNC3)c(N3CCNCC3)c12
     RDKit          3D

 33 38  0  0  0  0  0  0  0  0999 V2000
   -6.6549    4.1329  -13.7253 O   0  0  0  0  0  0  0  0  0  0  0  0
   -6.9513    5.0745  -14.4021 C   0  0  0  0  0  0  0  0  0  0  0  0
   -7.1173    6.4605  -14.0627 N   0  0  0  0  0  0  0  0  0  0  0  0
   -7.0737    7.1120  -12.8310 C   0  0  0  0  0  0  0  0  0  0  0  0
   -6.9354    6.4050  -11.6254 C   0  0  0  0  0  0  0  0  0  0  0  0
   -6.9421    7.0744  -10.3967 C   0  0  0  0  0  0  0  0  0  0  0  0
   -7.0701    8.4508  -10.4020 C   0  0  0  0  0  0  0  0  0  0  0  0
   -7.1950    9.1562  -11.5948 C   0  0  0  0  0  0  0  0  0  0  0  0
   -7.2076    8.5050  -12.8170 C   0  0  0  0  0  0  0  0  0  0  0  0
   -7.3368   10.6089  -11.2896 C   0  0  0  0  0  0  0  0  0  0  0  0
   -6.9475   10.7522   -9.8644 N   0  0  0  0  0  0  0  0  0  0  0  0
   -7.1377    9.4066   -9.2584 C   0  0  0  0  0  0  0  0  0  0  0  0
   -7.3156    4.8315  -15.8196 C   0  0  0  0  0  0  0  0  0  0  0  0
   -8.6662    4.4837  -15.9839 C   0  0  0  0  0  0  0  0  0  0  0  0
   -9.1866    4.3095  -17.2510 C   0  0  0  0  0  0  0  0  0  0  0  0
   -8.3416    4.4542  -18.3413 C   0  0  0  0  0  0  0  0  0  0  0  0
   -6.9953    4.7627  -18.1998 C   0  0  0  0  0  0  0  0  0  0  0  0
   -6.3069    4.8363  -19.3344 N   0  0  0  0  0  0  0  0  0  0  0  0
   -5.0004    5.1176  -19.2745 C   0  0  0  0  0  0  0  0  0  0  0  0
   -4.2933    5.3619  -18.1072 C   0  0  0  0  0  0  0  0  0  0  0  0
   -2.8063    5.5825  -18.2359 C   0  0  0  0  0  0  0  0  0  0  0  0
   -2.4960    6.9777  -18.7563 C   0  0  0  0  0  0  0  0  0  0  0  0
   -0.9932    7.2701  -18.9666 C   0  0  0  0  0  0  0  0  0  0  0  0
   -1.3529    8.0468  -20.1752 N   0  0  0  0  0  0  0  0  0  0  0  0
   -2.5976    7.2507  -20.2757 C   0  0  0  0  0  0  0  0  0  0  0  0
   -5.0170    5.3218  -16.8952 C   0  0  0  0  0  0  0  0  0  0  0  0
   -4.4006    5.5562  -15.6671 N   0  0  0  0  0  0  0  0  0  0  0  0
   -3.9017    6.8913  -15.3123 C   0  0  0  0  0  0  0  0  0  0  0  0
   -2.4820    6.8407  -14.7029 C   0  0  0  0  0  0  0  0  0  0  0  0
   -2.2964    5.9183  -13.5687 N   0  0  0  0  0  0  0  0  0  0  0  0
   -3.2642    4.8010  -13.6035 C   0  0  0  0  0  0  0  0  0  0  0  0
   -3.7543    4.4055  -15.0132 C   0  0  0  0  0  0  0  0  0  0  0  0
   -6.4234    4.9826  -16.9250 C   0  0  0  0  0  0  0  0  0  0  0  0
  1  2  2  0
  2  3  1  0
  3  4  1  0
  4  5  2  0
  5  6  1  0
  6  7  2  0
  7  8  1  0
  8  9  2  0
  8 10  1  0
 10 11  1  0
 11 12  1  0
  2 13  1  0
 13 14  2  0
 14 15  1  0
 15 16  2  0
 16 17  1  0
 17 18  2  0
 18 19  1  0
 19 20  2  0
 20 21  1  0
 21 22  1  0
 22 23  1  0
 23 24  1  0
 24 25  1  0
 20 26  1  0
 26 27  1  0
 27 28  1  0
 28 29  1  0
 29 30  1  0
 30 31  1  0
 31 32  1  0
 26 33  2  0
  9  4  1  0
 33 13  1  0
 12  7  1  0
 33 17  1  0
 25 22  1  0
 32 27  1  0
M  END
>  <smiles>  (185) 
C74564-P19

>  <fragmenstein_outcome>  (185) 
acceptable

>  <inchikey>  (185) 
HATOFMMASWXZLJ-UHFFFAOYSA-N

>  <fragmenstein_mode>  (185) 
expansion

>  <HIPPO Pose ID>  (185) 
2733

>  <Energy>  (185) 
164.226308

>  <fragmenstein_error>  (185) 


>  <tags>  (185) 
{'openbind_xx01zvns2b_c1_fragmenstein', 'fragmenstein_placed'}

>  <ref_pdb>  (185) 
1

>  <scratch_subdir>  (185) 
/opt/xchem-fragalysis-2/maxwin/BulkDock/SCRATCH/511027/C74564-P19

>  <alias>  (185) 
O=C(Nc1ccc2c(c1)CNC2)c1cccc2ncc(CC3CNC3)c(N3CCNCC3)c12

>  <HIPPO Compound ID>  (185) 
91074

>  <fragmenstein_runtime>  (185) 
7.967815

$$$$
CNCc1cc(N2CCNCC2)c2c(C(=O)Nc3ccc(F)cc3)cc(Cl)cc2n1
     RDKit          3D

 30 33  0  0  0  0  0  0  0  0999 V2000
   -4.9618    8.7823  -20.4234 C   0  0  0  0  0  0  0  0  0  0  0  0
   -3.7824    7.9444  -20.2489 N   0  0  0  0  0  0  0  0  0  0  0  0
   -4.1342    6.5136  -20.3643 C   0  0  0  0  0  0  0  0  0  0  0  0
   -4.8629    5.9408  -19.1655 C   0  0  0  0  0  0  0  0  0  0  0  0
   -4.2745    5.9541  -17.9162 C   0  0  0  0  0  0  0  0  0  0  0  0
   -5.0108    5.5352  -16.8046 C   0  0  0  0  0  0  0  0  0  0  0  0
   -4.4411    5.6060  -15.5350 N   0  0  0  0  0  0  0  0  0  0  0  0
   -4.1823    6.9412  -14.9733 C   0  0  0  0  0  0  0  0  0  0  0  0
   -2.7499    7.0646  -14.4162 C   0  0  0  0  0  0  0  0  0  0  0  0
   -2.3592    6.0184  -13.4585 N   0  0  0  0  0  0  0  0  0  0  0  0
   -2.9231    4.7011  -13.8164 C   0  0  0  0  0  0  0  0  0  0  0  0
   -3.4251    4.5744  -15.2679 C   0  0  0  0  0  0  0  0  0  0  0  0
   -6.3421    5.0680  -16.9722 C   0  0  0  0  0  0  0  0  0  0  0  0
   -7.2365    4.6501  -15.9428 C   0  0  0  0  0  0  0  0  0  0  0  0
   -6.8695    4.5861  -14.5052 C   0  0  0  0  0  0  0  0  0  0  0  0
   -6.2503    3.6883  -14.0889 O   0  0  0  0  0  0  0  0  0  0  0  0
   -7.5208    5.7841  -13.7689 N   0  0  0  0  0  0  0  0  0  0  0  0
   -7.4656    6.1599  -12.4310 C   0  0  0  0  0  0  0  0  0  0  0  0
   -6.8567    5.3480  -11.4726 C   0  0  0  0  0  0  0  0  0  0  0  0
   -6.8391    5.7409  -10.1330 C   0  0  0  0  0  0  0  0  0  0  0  0
   -7.4300    6.9423   -9.7631 C   0  0  0  0  0  0  0  0  0  0  0  0
   -7.4153    7.3188   -8.4777 F   0  0  0  0  0  0  0  0  0  0  0  0
   -8.0372    7.7611  -10.7084 C   0  0  0  0  0  0  0  0  0  0  0  0
   -8.0564    7.3688  -12.0484 C   0  0  0  0  0  0  0  0  0  0  0  0
   -8.5659    4.3239  -16.2150 C   0  0  0  0  0  0  0  0  0  0  0  0
   -8.9983    4.3604  -17.5220 C   0  0  0  0  0  0  0  0  0  0  0  0
  -10.6428    4.1468  -17.9031 Cl  0  0  0  0  0  0  0  0  0  0  0  0
   -8.1211    4.6658  -18.5449 C   0  0  0  0  0  0  0  0  0  0  0  0
   -6.8240    5.0583  -18.2945 C   0  0  0  0  0  0  0  0  0  0  0  0
   -6.1121    5.4790  -19.3471 N   0  0  0  0  0  0  0  0  0  0  0  0
  1  2  1  0
  2  3  1  0
  3  4  1  0
  4  5  2  0
  5  6  1  0
  6  7  1  0
  7  8  1  0
  8  9  1  0
  9 10  1  0
 10 11  1  0
 11 12  1  0
  6 13  2  0
 13 14  1  0
 14 15  1  0
 15 16  2  0
 15 17  1  0
 17 18  1  0
 18 19  2  0
 19 20  1  0
 20 21  2  0
 21 22  1  0
 21 23  1  0
 23 24  2  0
 14 25  2  0
 25 26  1  0
 26 27  1  0
 26 28  2  0
 28 29  1  0
 29 30  2  0
 30  4  1  0
 12  7  1  0
 29 13  1  0
 24 18  1  0
M  END
>  <smiles>  (186) 
C74577-P19

>  <fragmenstein_outcome>  (186) 
acceptable

>  <inchikey>  (186) 
IQNQBOSSSBSJHX-UHFFFAOYSA-N

>  <fragmenstein_mode>  (186) 
expansion

>  <HIPPO Pose ID>  (186) 
2737

>  <Energy>  (186) 
146.909439

>  <fragmenstein_error>  (186) 


>  <tags>  (186) 
{'openbind_xx01zvns2b_c1_fragmenstein', 'fragmenstein_placed'}

>  <ref_pdb>  (186) 
1

>  <scratch_subdir>  (186) 
/opt/xchem-fragalysis-2/maxwin/BulkDock/SCRATCH/511027/C74577-P19

>  <alias>  (186) 
CNCc1cc(N2CCNCC2)c2c(C(=O)Nc3ccc(F)cc3)cc(Cl)cc2n1

>  <HIPPO Compound ID>  (186) 
84869

>  <fragmenstein_runtime>  (186) 
2.76479

$$$$
CN1Cc2cnc3cccc(C(=O)Nc4ccc5c(c4)CNC5)c3c2N2CCNC[C@H]12
     RDKit          3D

 31 36  0  0  0  0  0  0  0  0999 V2000
   -0.9917    6.2676  -17.3248 C   0  0  0  0  0  0  0  0  0  0  0  0
   -2.4429    6.2635  -17.2109 N   0  0  0  0  0  0  0  0  0  0  0  0
   -3.0532    5.6894  -18.4064 C   0  0  0  0  0  0  0  0  0  0  0  0
   -4.5313    5.4539  -18.2828 C   0  0  0  0  0  0  0  0  0  0  0  0
   -5.2464    5.1875  -19.4295 C   0  0  0  0  0  0  0  0  0  0  0  0
   -6.5354    4.8386  -19.4402 N   0  0  0  0  0  0  0  0  0  0  0  0
   -7.1997    4.7811  -18.2883 C   0  0  0  0  0  0  0  0  0  0  0  0
   -8.5393    4.4399  -18.4047 C   0  0  0  0  0  0  0  0  0  0  0  0
   -9.3655    4.2986  -17.3009 C   0  0  0  0  0  0  0  0  0  0  0  0
   -8.8299    4.4934  -16.0433 C   0  0  0  0  0  0  0  0  0  0  0  0
   -7.4867    4.8627  -15.9030 C   0  0  0  0  0  0  0  0  0  0  0  0
   -7.0727    5.0269  -14.4917 C   0  0  0  0  0  0  0  0  0  0  0  0
   -7.3131    6.0181  -13.9249 O   0  0  0  0  0  0  0  0  0  0  0  0
   -6.3538    3.7519  -14.0129 N   0  0  0  0  0  0  0  0  0  0  0  0
   -5.7175    3.4716  -12.8088 C   0  0  0  0  0  0  0  0  0  0  0  0
   -5.6938    4.3927  -11.7506 C   0  0  0  0  0  0  0  0  0  0  0  0
   -4.9155    4.1523  -10.6130 C   0  0  0  0  0  0  0  0  0  0  0  0
   -4.1821    2.9824  -10.5599 C   0  0  0  0  0  0  0  0  0  0  0  0
   -4.2598    2.0420  -11.5791 C   0  0  0  0  0  0  0  0  0  0  0  0
   -5.0282    2.2619  -12.7053 C   0  0  0  0  0  0  0  0  0  0  0  0
   -3.4426    0.8542  -11.2143 C   0  0  0  0  0  0  0  0  0  0  0  0
   -2.5426    1.3186  -10.1202 N   0  0  0  0  0  0  0  0  0  0  0  0
   -3.2648    2.4721   -9.5026 C   0  0  0  0  0  0  0  0  0  0  0  0
   -6.6112    5.0348  -17.0258 C   0  0  0  0  0  0  0  0  0  0  0  0
   -5.2088    5.3976  -17.0512 C   0  0  0  0  0  0  0  0  0  0  0  0
   -4.4800    5.6839  -15.8655 N   0  0  0  0  0  0  0  0  0  0  0  0
   -4.7866    7.0400  -15.3281 C   0  0  0  0  0  0  0  0  0  0  0  0
   -4.2214    7.1649  -13.8861 C   0  0  0  0  0  0  0  0  0  0  0  0
   -3.2008    6.1468  -13.5295 N   0  0  0  0  0  0  0  0  0  0  0  0
   -2.2977    6.0019  -14.6886 C   0  0  0  0  0  0  0  0  0  0  0  0
   -2.9984    5.5580  -16.0435 C   0  0  2  0  0  0  0  0  0  0  0  0
  1  2  1  0
  2  3  1  0
  3  4  1  0
  4  5  2  0
  5  6  1  0
  6  7  2  0
  7  8  1  0
  8  9  2  0
  9 10  1  0
 10 11  2  0
 11 12  1  0
 12 13  2  0
 12 14  1  0
 14 15  1  0
 15 16  2  0
 16 17  1  0
 17 18  2  0
 18 19  1  0
 19 20  2  0
 19 21  1  0
 21 22  1  0
 22 23  1  0
 11 24  1  0
 24 25  2  0
 25 26  1  0
 26 27  1  0
 27 28  1  0
 28 29  1  0
 29 30  1  0
 31 30  1  1
 31  2  1  0
 25  4  1  0
 31 26  1  0
 24  7  1  0
 20 15  1  0
 23 18  1  0
M  END
>  <smiles>  (187) 
C74579-P19

>  <fragmenstein_outcome>  (187) 
acceptable

>  <inchikey>  (187) 
ZTWHKMPEEWMUGP-UHFFFAOYSA-N

>  <fragmenstein_mode>  (187) 
expansion

>  <HIPPO Pose ID>  (187) 
2738

>  <Energy>  (187) 
129.838816

>  <fragmenstein_error>  (187) 


>  <tags>  (187) 
{'openbind_xx01zvns2b_c1_fragmenstein', 'fragmenstein_placed'}

>  <ref_pdb>  (187) 
1

>  <scratch_subdir>  (187) 
/opt/xchem-fragalysis-2/maxwin/BulkDock/SCRATCH/511027/C74579-P19

>  <alias>  (187) 
CN1Cc2cnc3cccc(C(=O)Nc4ccc5c(c4)CNC5)c3c2N2CCNC[C@H]12

>  <HIPPO Compound ID>  (187) 
29208

>  <fragmenstein_runtime>  (187) 
5.034019

$$$$
O=C(Nc1ccc2c(c1)CNC2)c1cccc2nc3c(c(N4CCNCC4)c12)CNC3
     RDKit          3D

 31 36  0  0  0  0  0  0  0  0999 V2000
   -7.7496    6.6278  -14.4825 O   0  0  0  0  0  0  0  0  0  0  0  0
   -7.7357    5.4673  -14.6168 C   0  0  0  0  0  0  0  0  0  0  0  0
   -7.8162    4.3354  -13.5657 N   0  0  0  0  0  0  0  0  0  0  0  0
   -7.8342    4.3927  -12.1735 C   0  0  0  0  0  0  0  0  0  0  0  0
   -7.9066    3.1857  -11.4610 C   0  0  0  0  0  0  0  0  0  0  0  0
   -7.9457    3.1728  -10.0641 C   0  0  0  0  0  0  0  0  0  0  0  0
   -7.9018    4.3799   -9.3993 C   0  0  0  0  0  0  0  0  0  0  0  0
   -7.8388    5.5797  -10.0988 C   0  0  0  0  0  0  0  0  0  0  0  0
   -7.8047    5.6082  -11.4860 C   0  0  0  0  0  0  0  0  0  0  0  0
   -7.8626    6.7076   -9.1246 C   0  0  0  0  0  0  0  0  0  0  0  0
   -7.6112    6.0949   -7.7912 N   0  0  0  0  0  0  0  0  0  0  0  0
   -7.9467    4.6515   -7.9356 C   0  0  0  0  0  0  0  0  0  0  0  0
   -7.7388    4.9086  -15.9966 C   0  0  0  0  0  0  0  0  0  0  0  0
   -8.9447    4.3037  -16.3683 C   0  0  0  0  0  0  0  0  0  0  0  0
   -9.2054    4.0402  -17.6983 C   0  0  0  0  0  0  0  0  0  0  0  0
   -8.2546    4.3827  -18.6509 C   0  0  0  0  0  0  0  0  0  0  0  0
   -7.0472    4.9817  -18.3183 C   0  0  0  0  0  0  0  0  0  0  0  0
   -6.2482    5.3381  -19.3335 N   0  0  0  0  0  0  0  0  0  0  0  0
   -5.1499    6.0272  -19.0188 C   0  0  0  0  0  0  0  0  0  0  0  0
   -4.7163    6.2660  -17.7374 C   0  0  0  0  0  0  0  0  0  0  0  0
   -5.4513    5.7870  -16.6695 C   0  0  0  0  0  0  0  0  0  0  0  0
   -4.9036    5.7679  -15.4015 N   0  0  0  0  0  0  0  0  0  0  0  0
   -4.7114    6.9899  -14.6198 C   0  0  0  0  0  0  0  0  0  0  0  0
   -3.2524    7.1309  -14.1354 C   0  0  0  0  0  0  0  0  0  0  0  0
   -2.7089    5.9089  -13.5031 N   0  0  0  0  0  0  0  0  0  0  0  0
   -2.8178    4.7964  -14.4670 C   0  0  0  0  0  0  0  0  0  0  0  0
   -4.2597    4.5349  -14.9453 C   0  0  0  0  0  0  0  0  0  0  0  0
   -6.7330    5.2222  -16.9537 C   0  0  0  0  0  0  0  0  0  0  0  0
   -3.4331    7.0137  -17.7728 C   0  0  0  0  0  0  0  0  0  0  0  0
   -3.2602    7.4684  -19.1713 N   0  0  0  0  0  0  0  0  0  0  0  0
   -4.1852    6.6373  -19.9925 C   0  0  0  0  0  0  0  0  0  0  0  0
  1  2  2  0
  2  3  1  0
  3  4  1  0
  4  5  2  0
  5  6  1  0
  6  7  2  0
  7  8  1  0
  8  9  2  0
  8 10  1  0
 10 11  1  0
 11 12  1  0
  2 13  1  0
 13 14  2  0
 14 15  1  0
 15 16  2  0
 16 17  1  0
 17 18  2  0
 18 19  1  0
 19 20  2  0
 20 21  1  0
 21 22  1  0
 22 23  1  0
 23 24  1  0
 24 25  1  0
 25 26  1  0
 26 27  1  0
 21 28  2  0
 20 29  1  0
 29 30  1  0
 30 31  1  0
  9  4  1  0
 28 13  1  0
 12  7  1  0
 28 17  1  0
 31 19  1  0
 27 22  1  0
M  END
>  <smiles>  (188) 
C74601-P19

>  <fragmenstein_outcome>  (188) 
acceptable

>  <inchikey>  (188) 
AKPSRILYSYAMQE-UHFFFAOYSA-N

>  <fragmenstein_mode>  (188) 
expansion

>  <HIPPO Pose ID>  (188) 
2747

>  <Energy>  (188) 
179.68628

>  <fragmenstein_error>  (188) 


>  <tags>  (188) 
{'openbind_xx01zvns2b_c1_fragmenstein', 'fragmenstein_placed'}

>  <ref_pdb>  (188) 
1

>  <scratch_subdir>  (188) 
/opt/xchem-fragalysis-2/maxwin/BulkDock/SCRATCH/511027/C74601-P19

>  <alias>  (188) 
O=C(Nc1ccc2c(c1)CNC2)c1cccc2nc3c(c(N4CCNCC4)c12)CNC3

>  <HIPPO Compound ID>  (188) 
75668

>  <fragmenstein_runtime>  (188) 
5.683929

$$$$
Nc1nnc2c(C(=O)Nc3ccc4c(c3)CNC4)cc(Br)cn12
     RDKit          3D

 23 26  0  0  0  0  0  0  0  0999 V2000
   -9.5257    4.4955  -19.0256 N   0  0  0  0  0  0  0  0  0  0  0  0
   -9.1790    4.3386  -17.7335 C   0  0  0  0  0  0  0  0  0  0  0  0
   -9.9354    3.9795  -16.7275 N   0  0  0  0  0  0  0  0  0  0  0  0
   -9.2635    4.2092  -15.5490 N   0  0  0  0  0  0  0  0  0  0  0  0
   -8.0742    4.6514  -15.8620 C   0  0  0  0  0  0  0  0  0  0  0  0
   -6.9888    5.1440  -15.0984 C   0  0  0  0  0  0  0  0  0  0  0  0
   -7.1122    5.5822  -13.6678 C   0  0  0  0  0  0  0  0  0  0  0  0
   -6.6866    6.6289  -13.3601 O   0  0  0  0  0  0  0  0  0  0  0  0
   -7.7822    4.4752  -12.8075 N   0  0  0  0  0  0  0  0  0  0  0  0
   -7.9739    4.3911  -11.4232 C   0  0  0  0  0  0  0  0  0  0  0  0
   -7.7028    5.4996  -10.6018 C   0  0  0  0  0  0  0  0  0  0  0  0
   -7.8323    5.4240   -9.2100 C   0  0  0  0  0  0  0  0  0  0  0  0
   -8.2176    4.2210   -8.6526 C   0  0  0  0  0  0  0  0  0  0  0  0
   -8.4900    3.1184   -9.4548 C   0  0  0  0  0  0  0  0  0  0  0  0
   -8.3931    3.1899  -10.8424 C   0  0  0  0  0  0  0  0  0  0  0  0
   -8.8028    1.9535   -8.5727 C   0  0  0  0  0  0  0  0  0  0  0  0
   -9.0107    2.5188   -7.2168 N   0  0  0  0  0  0  0  0  0  0  0  0
   -8.3709    3.8476   -7.2163 C   0  0  0  0  0  0  0  0  0  0  0  0
   -5.8363    5.4533  -15.7328 C   0  0  0  0  0  0  0  0  0  0  0  0
   -5.6890    5.2951  -17.1736 C   0  0  0  0  0  0  0  0  0  0  0  0
   -4.0559    5.6863  -17.9456 Br  0  0  0  0  0  0  0  0  0  0  0  0
   -6.7527    4.9346  -17.9038 C   0  0  0  0  0  0  0  0  0  0  0  0
   -7.9325    4.6376  -17.2453 N   0  0  0  0  0  0  0  0  0  0  0  0
  1  2  1  0
  2  3  2  0
  3  4  1  0
  4  5  2  0
  5  6  1  0
  6  7  1  0
  7  8  2  0
  7  9  1  0
  9 10  1  0
 10 11  2  0
 11 12  1  0
 12 13  2  0
 13 14  1  0
 14 15  2  0
 14 16  1  0
 16 17  1  0
 17 18  1  0
  6 19  2  0
 19 20  1  0
 20 21  1  0
 20 22  2  0
 22 23  1  0
 23  2  1  0
 23  5  1  0
 15 10  1  0
 18 13  1  0
M  END
>  <smiles>  (189) 
C74716-P19

>  <fragmenstein_outcome>  (189) 
acceptable

>  <inchikey>  (189) 
VVIQUAPDAKTCIK-UHFFFAOYSA-N

>  <fragmenstein_mode>  (189) 
expansion

>  <HIPPO Pose ID>  (189) 
2799

>  <Energy>  (189) 
37.522363

>  <fragmenstein_error>  (189) 


>  <tags>  (189) 
{'openbind_xx01zvns2b_c1_fragmenstein', 'fragmenstein_placed'}

>  <ref_pdb>  (189) 
1

>  <scratch_subdir>  (189) 
/opt/xchem-fragalysis-2/maxwin/BulkDock/SCRATCH/511027/C74716-P19

>  <alias>  (189) 
Nc1nnc2c(C(=O)Nc3ccc4c(c3)CNC4)cc(Br)cn12

>  <HIPPO Compound ID>  (189) 
74716

>  <fragmenstein_runtime>  (189) 
4.462417

$$$$
Nc1nnc2c([C@H](Nc3ccc4c(c3)CNC4)C(=O)NCC(F)F)cc(Cl)cn12
     RDKit          3D

 29 32  0  0  0  0  0  0  0  0999 V2000
   -5.0637    5.1167  -19.6989 N   0  0  0  0  0  0  0  0  0  0  0  0
   -5.2276    5.0144  -18.3670 C   0  0  0  0  0  0  0  0  0  0  0  0
   -4.2988    5.0954  -17.4382 N   0  0  0  0  0  0  0  0  0  0  0  0
   -4.8993    4.9530  -16.2074 N   0  0  0  0  0  0  0  0  0  0  0  0
   -6.1938    4.8122  -16.4040 C   0  0  0  0  0  0  0  0  0  0  0  0
   -7.2970    4.6962  -15.4798 C   0  0  0  0  0  0  0  0  0  0  0  0
   -7.0644    4.7898  -13.9671 C   0  0  2  0  0  0  0  0  0  0  0  0
   -8.3180    4.5571  -13.1990 N   0  0  0  0  0  0  0  0  0  0  0  0
   -8.1776    4.5425  -11.7904 C   0  0  0  0  0  0  0  0  0  0  0  0
   -7.9461    5.7285  -11.0651 C   0  0  0  0  0  0  0  0  0  0  0  0
   -7.8611    5.7321   -9.6673 C   0  0  0  0  0  0  0  0  0  0  0  0
   -8.0341    4.5358   -9.0009 C   0  0  0  0  0  0  0  0  0  0  0  0
   -8.2598    3.3551   -9.6983 C   0  0  0  0  0  0  0  0  0  0  0  0
   -8.3177    3.3377  -11.0843 C   0  0  0  0  0  0  0  0  0  0  0  0
   -8.4294    2.2369   -8.7215 C   0  0  0  0  0  0  0  0  0  0  0  0
   -8.6334    2.8996   -7.4052 N   0  0  0  0  0  0  0  0  0  0  0  0
   -8.0405    4.2484   -7.5379 C   0  0  0  0  0  0  0  0  0  0  0  0
   -6.4387    6.2263  -13.7478 C   0  0  0  0  0  0  0  0  0  0  0  0
   -7.1207    7.2061  -13.8739 O   0  0  0  0  0  0  0  0  0  0  0  0
   -5.0358    6.0895  -13.4336 N   0  0  0  0  0  0  0  0  0  0  0  0
   -4.0003    7.0837  -13.2686 C   0  0  0  0  0  0  0  0  0  0  0  0
   -2.7681    6.5483  -12.5566 C   0  0  0  0  0  0  0  0  0  0  0  0
   -2.2488    5.5056  -13.2591 F   0  0  0  0  0  0  0  0  0  0  0  0
   -1.8067    7.5036  -12.5072 F   0  0  0  0  0  0  0  0  0  0  0  0
   -8.5276    4.5479  -16.0315 C   0  0  0  0  0  0  0  0  0  0  0  0
   -8.7514    4.4984  -17.4632 C   0  0  0  0  0  0  0  0  0  0  0  0
  -10.3482    4.3419  -18.0421 Cl  0  0  0  0  0  0  0  0  0  0  0  0
   -7.7193    4.6349  -18.3022 C   0  0  0  0  0  0  0  0  0  0  0  0
   -6.4538    4.8045  -17.7669 N   0  0  0  0  0  0  0  0  0  0  0  0
  1  2  1  0
  2  3  2  0
  3  4  1  0
  4  5  2  0
  5  6  1  0
  6  7  1  0
  7  8  1  1
  8  9  1  0
  9 10  2  0
 10 11  1  0
 11 12  2  0
 12 13  1  0
 13 14  2  0
 13 15  1  0
 15 16  1  0
 16 17  1  0
  7 18  1  0
 18 19  2  0
 18 20  1  0
 20 21  1  0
 21 22  1  0
 22 23  1  0
 22 24  1  0
  6 25  2  0
 25 26  1  0
 26 27  1  0
 26 28  2  0
 28 29  1  0
 29  2  1  0
 29  5  1  0
 14  9  1  0
 17 12  1  0
M  END
>  <smiles>  (190) 
C74717-P19

>  <fragmenstein_outcome>  (190) 
acceptable

>  <inchikey>  (190) 
ZUABDSCKHBYRGQ-UHFFFAOYSA-N

>  <fragmenstein_mode>  (190) 
expansion

>  <HIPPO Pose ID>  (190) 
2800

>  <Energy>  (190) 
107.723522

>  <fragmenstein_error>  (190) 


>  <tags>  (190) 
{'openbind_xx01zvns2b_c1_fragmenstein', 'fragmenstein_placed'}

>  <ref_pdb>  (190) 
1

>  <scratch_subdir>  (190) 
/opt/xchem-fragalysis-2/maxwin/BulkDock/SCRATCH/511027/C74717-P19

>  <alias>  (190) 
Nc1nnc2c([C@H](Nc3ccc4c(c3)CNC4)C(=O)NCC(F)F)cc(Cl)cn12

>  <HIPPO Compound ID>  (190) 
74717

>  <fragmenstein_runtime>  (190) 
8.099416

$$$$
Nc1nnc2c([C@@H](Nc3ccc4c(c3)CNC4)C(=O)NCC(F)F)cc(Cl)cn12
     RDKit          3D

 29 32  0  0  0  0  0  0  0  0999 V2000
   -5.4045    5.1243  -19.8178 N   0  0  0  0  0  0  0  0  0  0  0  0
   -5.4986    5.1821  -18.4730 C   0  0  0  0  0  0  0  0  0  0  0  0
   -4.5856    5.5695  -17.6123 N   0  0  0  0  0  0  0  0  0  0  0  0
   -5.1473    5.5494  -16.3536 N   0  0  0  0  0  0  0  0  0  0  0  0
   -6.3967    5.1443  -16.4613 C   0  0  0  0  0  0  0  0  0  0  0  0
   -7.4722    4.9981  -15.5055 C   0  0  0  0  0  0  0  0  0  0  0  0
   -7.4140    5.4106  -14.0315 C   0  0  1  0  0  0  0  0  0  0  0  0
   -7.2852    4.1966  -13.1862 N   0  0  0  0  0  0  0  0  0  0  0  0
   -7.7457    4.2511  -11.8516 C   0  0  0  0  0  0  0  0  0  0  0  0
   -7.7460    5.4331  -11.0779 C   0  0  0  0  0  0  0  0  0  0  0  0
   -8.0915    5.4327   -9.7191 C   0  0  0  0  0  0  0  0  0  0  0  0
   -8.4365    4.2337   -9.1327 C   0  0  0  0  0  0  0  0  0  0  0  0
   -8.4393    3.0566   -9.8691 C   0  0  0  0  0  0  0  0  0  0  0  0
   -8.0739    3.0442  -11.2088 C   0  0  0  0  0  0  0  0  0  0  0  0
   -8.8277    1.9257   -8.9709 C   0  0  0  0  0  0  0  0  0  0  0  0
   -9.3632    2.5667   -7.7429 N   0  0  0  0  0  0  0  0  0  0  0  0
   -8.7850    3.9250   -7.7154 C   0  0  0  0  0  0  0  0  0  0  0  0
   -6.2409    6.4258  -13.7922 C   0  0  0  0  0  0  0  0  0  0  0  0
   -6.3959    7.5875  -14.0472 O   0  0  0  0  0  0  0  0  0  0  0  0
   -5.0835    5.7135  -13.3363 N   0  0  0  0  0  0  0  0  0  0  0  0
   -3.7213    6.1501  -13.1330 C   0  0  0  0  0  0  0  0  0  0  0  0
   -2.7727    5.0406  -12.7096 C   0  0  0  0  0  0  0  0  0  0  0  0
   -2.6197    4.1430  -13.7187 F   0  0  0  0  0  0  0  0  0  0  0  0
   -1.5408    5.5554  -12.4620 F   0  0  0  0  0  0  0  0  0  0  0  0
   -8.6517    4.5238  -15.9896 C   0  0  0  0  0  0  0  0  0  0  0  0
   -8.8625    4.2089  -17.3908 C   0  0  0  0  0  0  0  0  0  0  0  0
  -10.4124    3.7685  -17.9501 Cl  0  0  0  0  0  0  0  0  0  0  0  0
   -7.8606    4.3648  -18.2582 C   0  0  0  0  0  0  0  0  0  0  0  0
   -6.6506    4.8454  -17.7935 N   0  0  0  0  0  0  0  0  0  0  0  0
  1  2  1  0
  2  3  2  0
  3  4  1  0
  4  5  2  0
  5  6  1  0
  6  7  1  0
  7  8  1  1
  8  9  1  0
  9 10  2  0
 10 11  1  0
 11 12  2  0
 12 13  1  0
 13 14  2  0
 13 15  1  0
 15 16  1  0
 16 17  1  0
  7 18  1  0
 18 19  2  0
 18 20  1  0
 20 21  1  0
 21 22  1  0
 22 23  1  0
 22 24  1  0
  6 25  2  0
 25 26  1  0
 26 27  1  0
 26 28  2  0
 28 29  1  0
 29  2  1  0
 29  5  1  0
 14  9  1  0
 17 12  1  0
M  END
>  <smiles>  (191) 
C74717-P202

>  <fragmenstein_outcome>  (191) 
acceptable

>  <inchikey>  (191) 
LSWMNPFRYCXCKV-UHFFFAOYSA-N

>  <fragmenstein_mode>  (191) 
expansion

>  <HIPPO Pose ID>  (191) 
2801

>  <Energy>  (191) 
100.990624

>  <fragmenstein_error>  (191) 


>  <tags>  (191) 
{'openbind_xx01zvns2b_c1_fragmenstein', 'fragmenstein_placed'}

>  <ref_pdb>  (191) 
1

>  <scratch_subdir>  (191) 
/opt/xchem-fragalysis-2/maxwin/BulkDock/SCRATCH/511027/C74717-P202

>  <alias>  (191) 
Nc1nnc2c([C@@H](Nc3ccc4c(c3)CNC4)C(=O)NCC(F)F)cc(Cl)cn12

>  <HIPPO Compound ID>  (191) 
88944

>  <fragmenstein_runtime>  (191) 
7.538251

$$$$
CC(C)O[C@@]1(C)C(=O)[C@H](N)c2cccc(C(=O)Nc3ccc4c(c3)CNC4)c21
     RDKit          3D

 28 31  0  0  0  0  0  0  0  0999 V2000
   -2.5629    6.6118  -15.0036 C   0  0  0  0  0  0  0  0  0  0  0  0
   -3.8878    6.2482  -14.3616 C   0  0  0  0  0  0  0  0  0  0  0  0
   -3.6275    5.4352  -13.0988 C   0  0  0  0  0  0  0  0  0  0  0  0
   -4.6666    5.4139  -15.2156 O   0  0  0  0  0  0  0  0  0  0  0  0
   -5.2825    5.9995  -16.3495 C   0  0  1  0  0  0  0  0  0  0  0  0
   -5.4169    7.5295  -16.4089 C   0  0  0  0  0  0  0  0  0  0  0  0
   -4.5789    5.5728  -17.6691 C   0  0  0  0  0  0  0  0  0  0  0  0
   -3.3675    5.6165  -17.8798 O   0  0  0  0  0  0  0  0  0  0  0  0
   -5.6244    5.1178  -18.7008 C   0  0  2  0  0  0  0  0  0  0  0  0
   -5.7707    6.1335  -19.7400 N   0  0  0  0  0  0  0  0  0  0  0  0
   -6.8558    4.9623  -17.8570 C   0  0  0  0  0  0  0  0  0  0  0  0
   -8.0688    4.4347  -18.2783 C   0  0  0  0  0  0  0  0  0  0  0  0
   -9.0689    4.2345  -17.3346 C   0  0  0  0  0  0  0  0  0  0  0  0
   -8.8419    4.5496  -15.9884 C   0  0  0  0  0  0  0  0  0  0  0  0
   -7.6429    5.1368  -15.5693 C   0  0  0  0  0  0  0  0  0  0  0  0
   -7.5299    5.5972  -14.1562 C   0  0  0  0  0  0  0  0  0  0  0  0
   -7.2875    6.7248  -13.9660 O   0  0  0  0  0  0  0  0  0  0  0  0
   -7.8214    4.4487  -13.1546 N   0  0  0  0  0  0  0  0  0  0  0  0
   -7.9634    4.4711  -11.7630 C   0  0  0  0  0  0  0  0  0  0  0  0
   -7.7882    5.6578  -11.0324 C   0  0  0  0  0  0  0  0  0  0  0  0
   -7.9130    5.6723   -9.6365 C   0  0  0  0  0  0  0  0  0  0  0  0
   -8.2137    4.4875   -8.9901 C   0  0  0  0  0  0  0  0  0  0  0  0
   -8.3991    3.3107   -9.7074 C   0  0  0  0  0  0  0  0  0  0  0  0
   -8.2775    3.2840  -11.0914 C   0  0  0  0  0  0  0  0  0  0  0  0
   -8.6892    2.1980   -8.7525 C   0  0  0  0  0  0  0  0  0  0  0  0
   -8.9566    2.8563   -7.4516 N   0  0  0  0  0  0  0  0  0  0  0  0
   -8.3597    4.2046   -7.5312 C   0  0  0  0  0  0  0  0  0  0  0  0
   -6.6496    5.3620  -16.5194 C   0  0  0  0  0  0  0  0  0  0  0  0
  1  2  1  0
  2  3  1  0
  2  4  1  0
  4  5  1  0
  5  6  1  1
  5  7  1  0
  7  8  2  0
  7  9  1  0
  9 10  1  6
  9 11  1  0
 11 12  2  0
 12 13  1  0
 13 14  2  0
 14 15  1  0
 15 16  1  0
 16 17  2  0
 16 18  1  0
 18 19  1  0
 19 20  2  0
 20 21  1  0
 21 22  2  0
 22 23  1  0
 23 24  2  0
 23 25  1  0
 25 26  1  0
 26 27  1  0
 15 28  2  0
 28  5  1  0
 28 11  1  0
 24 19  1  0
 27 22  1  0
M  END
>  <smiles>  (192) 
C74779-P19

>  <fragmenstein_outcome>  (192) 
acceptable

>  <inchikey>  (192) 
LJJOQBGNWXBNDF-UHFFFAOYSA-N

>  <fragmenstein_mode>  (192) 
expansion

>  <HIPPO Pose ID>  (192) 
2831

>  <Energy>  (192) 
132.993168

>  <fragmenstein_error>  (192) 


>  <tags>  (192) 
{'openbind_xx01zvns2b_c1_fragmenstein', 'fragmenstein_placed'}

>  <ref_pdb>  (192) 
1

>  <scratch_subdir>  (192) 
/opt/xchem-fragalysis-2/maxwin/BulkDock/SCRATCH/511027/C74779-P19

>  <alias>  (192) 
CC(C)O[C@@]1(C)C(=O)[C@H](N)c2cccc(C(=O)Nc3ccc4c(c3)CNC4)c21

>  <HIPPO Compound ID>  (192) 
80231

>  <fragmenstein_runtime>  (192) 
7.10283

$$$$
Nc1nnc2c([C@@H](Nc3ccc4c(c3)CNC4)C(=O)NCCCF)cc(Cl)cn12
     RDKit          3D

 29 32  0  0  0  0  0  0  0  0999 V2000
   -5.1079    5.0474  -19.4897 N   0  0  0  0  0  0  0  0  0  0  0  0
   -5.3164    5.0942  -18.1588 C   0  0  0  0  0  0  0  0  0  0  0  0
   -4.4416    5.3989  -17.2291 N   0  0  0  0  0  0  0  0  0  0  0  0
   -5.0771    5.3516  -16.0110 N   0  0  0  0  0  0  0  0  0  0  0  0
   -6.3359    5.0250  -16.2008 C   0  0  0  0  0  0  0  0  0  0  0  0
   -7.4565    4.8836  -15.2959 C   0  0  0  0  0  0  0  0  0  0  0  0
   -7.4263    5.1953  -13.7866 C   0  0  1  0  0  0  0  0  0  0  0  0
   -8.1607    4.1721  -13.0168 N   0  0  0  0  0  0  0  0  0  0  0  0
   -8.1775    4.2516  -11.6065 C   0  0  0  0  0  0  0  0  0  0  0  0
   -8.0908    5.4584  -10.8837 C   0  0  0  0  0  0  0  0  0  0  0  0
   -8.1320    5.4840   -9.4799 C   0  0  0  0  0  0  0  0  0  0  0  0
   -8.3181    4.2945   -8.8034 C   0  0  0  0  0  0  0  0  0  0  0  0
   -8.4642    3.1029   -9.4967 C   0  0  0  0  0  0  0  0  0  0  0  0
   -8.4058    3.0713  -10.8820 C   0  0  0  0  0  0  0  0  0  0  0  0
   -8.6391    1.9868   -8.5199 C   0  0  0  0  0  0  0  0  0  0  0  0
   -8.9607    2.6536   -7.2273 N   0  0  0  0  0  0  0  0  0  0  0  0
   -8.3886    4.0148   -7.3401 C   0  0  0  0  0  0  0  0  0  0  0  0
   -5.9623    5.3898  -13.2649 C   0  0  0  0  0  0  0  0  0  0  0  0
   -5.2692    4.5094  -12.9238 O   0  0  0  0  0  0  0  0  0  0  0  0
   -5.6792    6.9277  -13.3531 N   0  0  0  0  0  0  0  0  0  0  0  0
   -4.4687    7.6655  -13.1317 C   0  0  0  0  0  0  0  0  0  0  0  0
   -3.6711    7.7560  -14.4273 C   0  0  0  0  0  0  0  0  0  0  0  0
   -2.5312    6.7577  -14.4558 C   0  0  0  0  0  0  0  0  0  0  0  0
   -2.9405    5.5276  -14.0772 F   0  0  0  0  0  0  0  0  0  0  0  0
   -8.6390    4.5467  -15.8737 C   0  0  0  0  0  0  0  0  0  0  0  0
   -8.8144    4.3971  -17.3066 C   0  0  0  0  0  0  0  0  0  0  0  0
  -10.3798    4.1754  -17.9439 Cl  0  0  0  0  0  0  0  0  0  0  0  0
   -7.7679    4.5430  -18.1243 C   0  0  0  0  0  0  0  0  0  0  0  0
   -6.5393    4.8441  -17.5661 N   0  0  0  0  0  0  0  0  0  0  0  0
  1  2  1  0
  2  3  2  0
  3  4  1  0
  4  5  2  0
  5  6  1  0
  6  7  1  0
  7  8  1  1
  8  9  1  0
  9 10  2  0
 10 11  1  0
 11 12  2  0
 12 13  1  0
 13 14  2  0
 13 15  1  0
 15 16  1  0
 16 17  1  0
  7 18  1  0
 18 19  2  0
 18 20  1  0
 20 21  1  0
 21 22  1  0
 22 23  1  0
 23 24  1  0
  6 25  2  0
 25 26  1  0
 26 27  1  0
 26 28  2  0
 28 29  1  0
 29  2  1  0
 29  5  1  0
 14  9  1  0
 17 12  1  0
M  END
>  <smiles>  (193) 
C74804-P19

>  <fragmenstein_outcome>  (193) 
acceptable

>  <inchikey>  (193) 
PAVFPGKFYBNOFG-UHFFFAOYSA-N

>  <fragmenstein_mode>  (193) 
expansion

>  <HIPPO Pose ID>  (193) 
2840

>  <Energy>  (193) 
93.340827

>  <fragmenstein_error>  (193) 


>  <tags>  (193) 
{'openbind_xx01zvns2b_c1_fragmenstein', 'fragmenstein_placed'}

>  <ref_pdb>  (193) 
1

>  <scratch_subdir>  (193) 
/opt/xchem-fragalysis-2/maxwin/BulkDock/SCRATCH/511027/C74804-P19

>  <alias>  (193) 
Nc1nnc2c([C@@H](Nc3ccc4c(c3)CNC4)C(=O)NCCCF)cc(Cl)cn12

>  <HIPPO Compound ID>  (193) 
88951

>  <fragmenstein_runtime>  (193) 
5.345871

$$$$
CC(C)NC(=O)[C@H](Nc1ccc2c(c1)CNC2)c1cc(Cl)cc2c(N)nn(OCF)c12
     RDKit          3D

 31 34  0  0  0  0  0  0  0  0999 V2000
   -6.5447    2.2867  -10.2814 C   0  0  0  0  0  0  0  0  0  0  0  0
   -7.6131    3.2057  -10.8644 C   0  0  0  0  0  0  0  0  0  0  0  0
   -8.0677    4.2250   -9.8282 C   0  0  0  0  0  0  0  0  0  0  0  0
   -7.1149    3.8725  -12.0477 N   0  0  0  0  0  0  0  0  0  0  0  0
   -6.6398    3.2921  -13.4069 C   0  0  0  0  0  0  0  0  0  0  0  0
   -6.5057    2.1838  -13.7510 O   0  0  0  0  0  0  0  0  0  0  0  0
   -6.2305    4.5309  -14.2970 C   0  0  2  0  0  0  0  0  0  0  0  0
   -6.6524    5.8156  -13.6569 N   0  0  0  0  0  0  0  0  0  0  0  0
   -5.7064    6.8232  -13.4403 C   0  0  0  0  0  0  0  0  0  0  0  0
   -4.4045    6.5532  -12.9741 C   0  0  0  0  0  0  0  0  0  0  0  0
   -3.4851    7.5795  -12.7235 C   0  0  0  0  0  0  0  0  0  0  0  0
   -3.8964    8.8843  -12.9055 C   0  0  0  0  0  0  0  0  0  0  0  0
   -5.1904    9.1721  -13.3177 C   0  0  0  0  0  0  0  0  0  0  0  0
   -6.1035    8.1622  -13.5758 C   0  0  0  0  0  0  0  0  0  0  0  0
   -5.3558   10.6490  -13.4288 C   0  0  0  0  0  0  0  0  0  0  0  0
   -4.1587   11.2358  -12.7732 N   0  0  0  0  0  0  0  0  0  0  0  0
   -3.1384   10.1557  -12.7331 C   0  0  0  0  0  0  0  0  0  0  0  0
   -6.7935    4.5228  -15.7165 C   0  0  0  0  0  0  0  0  0  0  0  0
   -8.1852    4.3396  -15.9492 C   0  0  0  0  0  0  0  0  0  0  0  0
   -8.7291    4.4042  -17.2325 C   0  0  0  0  0  0  0  0  0  0  0  0
  -10.3825    4.1611  -17.5641 Cl  0  0  0  0  0  0  0  0  0  0  0  0
   -7.9470    4.6954  -18.3302 C   0  0  0  0  0  0  0  0  0  0  0  0
   -6.5819    4.9005  -18.1504 C   0  0  0  0  0  0  0  0  0  0  0  0
   -5.5236    5.2273  -19.0249 C   0  0  0  0  0  0  0  0  0  0  0  0
   -5.7213    5.5446  -20.3087 N   0  0  0  0  0  0  0  0  0  0  0  0
   -4.3489    5.2008  -18.4119 N   0  0  0  0  0  0  0  0  0  0  0  0
   -4.6762    4.9491  -17.1356 N   0  0  0  0  0  0  0  0  0  0  0  0
   -3.6361    4.7331  -16.2434 O   0  0  0  0  0  0  0  0  0  0  0  0
   -2.8895    5.9314  -16.1537 C   0  0  0  0  0  0  0  0  0  0  0  0
   -2.0107    5.7588  -15.1276 F   0  0  0  0  0  0  0  0  0  0  0  0
   -6.0187    4.7842  -16.8815 C   0  0  0  0  0  0  0  0  0  0  0  0
  1  2  1  0
  2  3  1  0
  2  4  1  0
  4  5  1  0
  5  6  2  0
  5  7  1  0
  7  8  1  1
  8  9  1  0
  9 10  2  0
 10 11  1  0
 11 12  2  0
 12 13  1  0
 13 14  2  0
 13 15  1  0
 15 16  1  0
 16 17  1  0
  7 18  1  0
 18 19  2  0
 19 20  1  0
 20 21  1  0
 20 22  2  0
 22 23  1  0
 23 24  1  0
 24 25  1  0
 24 26  2  0
 26 27  1  0
 27 28  1  0
 28 29  1  0
 29 30  1  0
 27 31  1  0
 14  9  1  0
 31 18  1  0
 17 12  1  0
 31 23  2  0
M  END
>  <smiles>  (194) 
C74818-P20

>  <fragmenstein_outcome>  (194) 
acceptable

>  <inchikey>  (194) 
GAXIMMIOWBJJEO-UHFFFAOYSA-N

>  <fragmenstein_mode>  (194) 
expansion

>  <HIPPO Pose ID>  (194) 
2846

>  <Energy>  (194) 
12.931105

>  <fragmenstein_error>  (194) 


>  <tags>  (194) 
{'openbind_xx01zvns2b_c1_fragmenstein', 'fragmenstein_placed'}

>  <ref_pdb>  (194) 
1

>  <scratch_subdir>  (194) 
/opt/xchem-fragalysis-2/maxwin/BulkDock/SCRATCH/511027/C74818-P20

>  <alias>  (194) 
CC(C)NC(=O)[C@H](Nc1ccc2c(c1)CNC2)c1cc(Cl)cc2c(N)nn(OCF)c12

>  <HIPPO Compound ID>  (194) 
94509

>  <fragmenstein_runtime>  (194) 
9.291499

$$$$
O=C(Nc1ccc2c(c1)CNC2)c1cccn2c(NC3CCC3)nnc12
     RDKit          3D

 26 30  0  0  0  0  0  0  0  0999 V2000
   -6.2606    3.5543  -13.7755 O   0  0  0  0  0  0  0  0  0  0  0  0
   -6.9342    4.4132  -14.1932 C   0  0  0  0  0  0  0  0  0  0  0  0
   -7.6770    5.5638  -13.4522 N   0  0  0  0  0  0  0  0  0  0  0  0
   -7.6633    5.9310  -12.1078 C   0  0  0  0  0  0  0  0  0  0  0  0
   -8.2891    7.1360  -11.7367 C   0  0  0  0  0  0  0  0  0  0  0  0
   -8.3416    7.5334  -10.3961 C   0  0  0  0  0  0  0  0  0  0  0  0
   -7.7556    6.7130   -9.4503 C   0  0  0  0  0  0  0  0  0  0  0  0
   -7.1361    5.5209   -9.8145 C   0  0  0  0  0  0  0  0  0  0  0  0
   -7.0796    5.1128  -11.1380 C   0  0  0  0  0  0  0  0  0  0  0  0
   -6.6414    4.8304   -8.5871 C   0  0  0  0  0  0  0  0  0  0  0  0
   -6.6967    5.8599   -7.5095 N   0  0  0  0  0  0  0  0  0  0  0  0
   -7.6897    6.8685   -7.9688 C   0  0  0  0  0  0  0  0  0  0  0  0
   -7.3061    4.5209  -15.6356 C   0  0  0  0  0  0  0  0  0  0  0  0
   -8.5821    4.2640  -15.9957 C   0  0  0  0  0  0  0  0  0  0  0  0
   -9.0000    4.2833  -17.3864 C   0  0  0  0  0  0  0  0  0  0  0  0
   -8.0926    4.5908  -18.3258 C   0  0  0  0  0  0  0  0  0  0  0  0
   -6.7880    4.9046  -17.9459 N   0  0  0  0  0  0  0  0  0  0  0  0
   -5.7197    5.4175  -18.6597 C   0  0  0  0  0  0  0  0  0  0  0  0
   -5.8231    5.8597  -19.9430 N   0  0  0  0  0  0  0  0  0  0  0  0
   -5.0717    7.0277  -20.3234 C   0  0  0  0  0  0  0  0  0  0  0  0
   -5.3045    7.4923  -21.7747 C   0  0  0  0  0  0  0  0  0  0  0  0
   -3.7802    7.6844  -21.8970 C   0  0  0  0  0  0  0  0  0  0  0  0
   -3.6105    6.7167  -20.7112 C   0  0  0  0  0  0  0  0  0  0  0  0
   -4.6856    5.5402  -17.8494 N   0  0  0  0  0  0  0  0  0  0  0  0
   -5.0766    5.1983  -16.5768 N   0  0  0  0  0  0  0  0  0  0  0  0
   -6.3455    4.8574  -16.6268 C   0  0  0  0  0  0  0  0  0  0  0  0
  1  2  2  0
  2  3  1  0
  3  4  1  0
  4  5  2  0
  5  6  1  0
  6  7  2  0
  7  8  1  0
  8  9  2  0
  8 10  1  0
 10 11  1  0
 11 12  1  0
  2 13  1  0
 13 14  2  0
 14 15  1  0
 15 16  2  0
 16 17  1  0
 17 18  1  0
 18 19  1  0
 19 20  1  0
 20 21  1  0
 21 22  1  0
 22 23  1  0
 18 24  2  0
 24 25  1  0
 25 26  2  0
  9  4  1  0
 26 13  1  0
 12  7  1  0
 26 17  1  0
 23 20  1  0
M  END
>  <smiles>  (195) 
C74837-P20

>  <fragmenstein_outcome>  (195) 
acceptable

>  <inchikey>  (195) 
CEILMGDOURBGCG-UHFFFAOYSA-N

>  <fragmenstein_mode>  (195) 
expansion

>  <HIPPO Pose ID>  (195) 
2856

>  <Energy>  (195) 
75.576636

>  <fragmenstein_error>  (195) 


>  <tags>  (195) 
{'openbind_xx01zvns2b_c1_fragmenstein', 'fragmenstein_placed'}

>  <ref_pdb>  (195) 
1

>  <scratch_subdir>  (195) 
/opt/xchem-fragalysis-2/maxwin/BulkDock/SCRATCH/511027/C74837-P20

>  <alias>  (195) 
O=C(Nc1ccc2c(c1)CNC2)c1cccn2c(NC3CCC3)nnc12

>  <HIPPO Compound ID>  (195) 
97775

>  <fragmenstein_runtime>  (195) 
4.253981

$$$$
Nc1nnc2c(C(=O)Nc3ccc4c(c3)CNC4)cc(F)cn12
     RDKit          3D

 23 26  0  0  0  0  0  0  0  0999 V2000
   -5.9953    4.8726  -20.1984 N   0  0  0  0  0  0  0  0  0  0  0  0
   -5.9513    4.9218  -18.8559 C   0  0  0  0  0  0  0  0  0  0  0  0
   -4.9268    5.1474  -18.0610 N   0  0  0  0  0  0  0  0  0  0  0  0
   -5.3765    5.1218  -16.7535 N   0  0  0  0  0  0  0  0  0  0  0  0
   -6.6692    4.8657  -16.7790 C   0  0  0  0  0  0  0  0  0  0  0  0
   -7.6633    4.7103  -15.7714 C   0  0  0  0  0  0  0  0  0  0  0  0
   -7.4352    4.9153  -14.3043 C   0  0  0  0  0  0  0  0  0  0  0  0
   -8.2789    5.3699  -13.6318 O   0  0  0  0  0  0  0  0  0  0  0  0
   -6.0356    4.3609  -13.9251 N   0  0  0  0  0  0  0  0  0  0  0  0
   -5.3731    4.3395  -12.7008 C   0  0  0  0  0  0  0  0  0  0  0  0
   -4.0456    3.8786  -12.6581 C   0  0  0  0  0  0  0  0  0  0  0  0
   -3.3584    3.7913  -11.4416 C   0  0  0  0  0  0  0  0  0  0  0  0
   -4.0241    4.1608  -10.2861 C   0  0  0  0  0  0  0  0  0  0  0  0
   -5.3332    4.6287  -10.3301 C   0  0  0  0  0  0  0  0  0  0  0  0
   -6.0226    4.7284  -11.5266 C   0  0  0  0  0  0  0  0  0  0  0  0
   -5.7790    4.9817   -8.9520 C   0  0  0  0  0  0  0  0  0  0  0  0
   -4.7723    4.3670   -8.0423 N   0  0  0  0  0  0  0  0  0  0  0  0
   -3.5519    4.1718   -8.8715 C   0  0  0  0  0  0  0  0  0  0  0  0
   -8.9220    4.3850  -16.1348 C   0  0  0  0  0  0  0  0  0  0  0  0
   -9.2975    4.2223  -17.5181 C   0  0  0  0  0  0  0  0  0  0  0  0
  -10.5696    3.9239  -17.8312 F   0  0  0  0  0  0  0  0  0  0  0  0
   -8.3787    4.3791  -18.4716 C   0  0  0  0  0  0  0  0  0  0  0  0
   -7.0805    4.7031  -18.0967 N   0  0  0  0  0  0  0  0  0  0  0  0
  1  2  1  0
  2  3  2  0
  3  4  1  0
  4  5  2  0
  5  6  1  0
  6  7  1  0
  7  8  2  0
  7  9  1  0
  9 10  1  0
 10 11  2  0
 11 12  1  0
 12 13  2  0
 13 14  1  0
 14 15  2  0
 14 16  1  0
 16 17  1  0
 17 18  1  0
  6 19  2  0
 19 20  1  0
 20 21  1  0
 20 22  2  0
 22 23  1  0
 23  2  1  0
 23  5  1  0
 15 10  1  0
 18 13  1  0
M  END
>  <smiles>  (196) 
C74719-P20

>  <fragmenstein_outcome>  (196) 
acceptable

>  <inchikey>  (196) 
RHKAWYWGKHMXRV-UHFFFAOYSA-N

>  <fragmenstein_mode>  (196) 
expansion

>  <HIPPO Pose ID>  (196) 
2857

>  <Energy>  (196) 
25.911208

>  <fragmenstein_error>  (196) 


>  <tags>  (196) 
{'openbind_xx01zvns2b_c1_fragmenstein', 'fragmenstein_placed'}

>  <ref_pdb>  (196) 
1

>  <scratch_subdir>  (196) 
/opt/xchem-fragalysis-2/maxwin/BulkDock/SCRATCH/511027/C74719-P20

>  <alias>  (196) 
Nc1nnc2c(C(=O)Nc3ccc4c(c3)CNC4)cc(F)cn12

>  <HIPPO Compound ID>  (196) 
92567

>  <fragmenstein_runtime>  (196) 
1.648307

$$$$
CNCN1N[C@@H]2[C@H](C(=O)Nc3ccc4c(c3)CNC4)C[C@@H](Cl)CN2[C@H]1N
     RDKit          3D

 26 29  0  0  0  0  0  0  0  0999 V2000
   -1.0974    5.8000  -16.7929 C   0  0  0  0  0  0  0  0  0  0  0  0
   -2.5104    5.4694  -16.7911 N   0  0  0  0  0  0  0  0  0  0  0  0
   -3.1777    6.0188  -17.9640 C   0  0  0  0  0  0  0  0  0  0  0  0
   -4.6240    6.0608  -17.8207 N   0  0  0  0  0  0  0  0  0  0  0  0
   -5.0945    6.0735  -16.4439 N   0  0  0  0  0  0  0  0  0  0  0  0
   -6.4809    5.6902  -16.6070 C   0  0  2  0  0  0  0  0  0  0  0  0
   -7.2194    5.1697  -15.3801 C   0  0  2  0  0  0  0  0  0  0  0  0
   -6.6278    3.9831  -14.5725 C   0  0  0  0  0  0  0  0  0  0  0  0
   -7.3296    3.1712  -14.1076 O   0  0  0  0  0  0  0  0  0  0  0  0
   -5.0872    4.1742  -14.4496 N   0  0  0  0  0  0  0  0  0  0  0  0
   -4.1485    3.4869  -13.6820 C   0  0  0  0  0  0  0  0  0  0  0  0
   -4.4974    2.3289  -12.9703 C   0  0  0  0  0  0  0  0  0  0  0  0
   -3.5476    1.6445  -12.2047 C   0  0  0  0  0  0  0  0  0  0  0  0
   -2.2557    2.1313  -12.1733 C   0  0  0  0  0  0  0  0  0  0  0  0
   -1.9091    3.2876  -12.8630 C   0  0  0  0  0  0  0  0  0  0  0  0
   -2.8424    3.9819  -13.6166 C   0  0  0  0  0  0  0  0  0  0  0  0
   -0.4763    3.5998  -12.5985 C   0  0  0  0  0  0  0  0  0  0  0  0
    0.0925    2.3688  -11.9892 N   0  0  0  0  0  0  0  0  0  0  0  0
   -1.0686    1.6184  -11.4330 C   0  0  0  0  0  0  0  0  0  0  0  0
   -8.6884    4.8930  -15.8111 C   0  0  0  0  0  0  0  0  0  0  0  0
   -8.8291    4.2147  -17.1926 C   0  0  1  0  0  0  0  0  0  0  0  0
  -10.4390    4.4842  -17.8946 Cl  0  0  0  0  0  0  0  0  0  0  0  0
   -7.8128    4.6403  -18.2611 C   0  0  0  0  0  0  0  0  0  0  0  0
   -6.4865    4.7262  -17.6872 N   0  0  0  0  0  0  0  0  0  0  0  0
   -5.3324    4.9953  -18.5046 C   0  0  1  0  0  0  0  0  0  0  0  0
   -5.6378    5.4819  -19.8111 N   0  0  0  0  0  0  0  0  0  0  0  0
  1  2  1  0
  2  3  1  0
  3  4  1  0
  4  5  1  0
  6  5  1  1
  6  7  1  0
  7  8  1  6
  8  9  2  0
  8 10  1  0
 10 11  1  0
 11 12  2  0
 12 13  1  0
 13 14  2  0
 14 15  1  0
 15 16  2  0
 15 17  1  0
 17 18  1  0
 18 19  1  0
  7 20  1  0
 20 21  1  0
 21 22  1  6
 21 23  1  0
 23 24  1  0
 24 25  1  0
 25 26  1  6
 25  4  1  0
 24  6  1  0
 16 11  1  0
 19 14  1  0
M  END
>  <smiles>  (197) 
C74803-P20

>  <fragmenstein_outcome>  (197) 
acceptable

>  <inchikey>  (197) 
LDPALSUCCOKQDS-UHFFFAOYSA-N

>  <fragmenstein_mode>  (197) 
expansion

>  <HIPPO Pose ID>  (197) 
2865

>  <Energy>  (197) 
-62.290492

>  <fragmenstein_error>  (197) 


>  <tags>  (197) 
{'openbind_xx01zvns2b_c1_fragmenstein', 'fragmenstein_placed'}

>  <ref_pdb>  (197) 
1

>  <scratch_subdir>  (197) 
/opt/xchem-fragalysis-2/maxwin/BulkDock/SCRATCH/511027/C74803-P20

>  <alias>  (197) 
CNCN1N[C@@H]2[C@H](C(=O)Nc3ccc4c(c3)CNC4)C[C@@H](Cl)CN2[C@H]1N

>  <HIPPO Compound ID>  (197) 
74803

>  <fragmenstein_runtime>  (197) 
4.538159

$$$$
CCN(C)[C@H]1CCCN2CCC[C@H]12
     RDKit          3D

 13 14  0  0  0  0  0  0  0  0999 V2000
   -8.0573    4.5316  -11.6022 C   0  0  0  0  0  0  0  0  0  0  0  0
   -8.0554    4.1562  -13.0825 C   0  0  0  0  0  0  0  0  0  0  0  0
   -7.4744    5.1497  -14.0245 N   0  0  0  0  0  0  0  0  0  0  0  0
   -6.1733    5.6086  -13.5691 C   0  0  0  0  0  0  0  0  0  0  0  0
   -7.4715    4.5902  -15.4257 C   0  0  1  0  0  0  0  0  0  0  0  0
   -8.9331    4.6471  -15.9348 C   0  0  0  0  0  0  0  0  0  0  0  0
   -9.1427    4.1877  -17.3758 C   0  0  0  0  0  0  0  0  0  0  0  0
   -8.1305    4.7463  -18.3617 C   0  0  0  0  0  0  0  0  0  0  0  0
   -6.7822    4.6062  -17.8409 N   0  0  0  0  0  0  0  0  0  0  0  0
   -5.7700    5.1435  -18.7373 C   0  0  0  0  0  0  0  0  0  0  0  0
   -4.5382    5.1834  -17.8490 C   0  0  0  0  0  0  0  0  0  0  0  0
   -5.0672    5.1051  -16.4138 C   0  0  0  0  0  0  0  0  0  0  0  0
   -6.5853    5.2575  -16.5337 C   0  0  2  0  0  0  0  0  0  0  0  0
  1  2  1  0
  2  3  1  0
  3  4  1  0
  5  3  1  1
  5  6  1  0
  6  7  1  0
  7  8  1  0
  8  9  1  0
  9 10  1  0
 10 11  1  0
 11 12  1  0
 13 12  1  1
 13  5  1  0
 13  9  1  0
M  END
>  <smiles>  (198) 
C74983-P20

>  <fragmenstein_outcome>  (198) 
acceptable

>  <inchikey>  (198) 
ZVIIXLRAYORPJK-UHFFFAOYSA-N

>  <fragmenstein_mode>  (198) 
expansion

>  <HIPPO Pose ID>  (198) 
2916

>  <Energy>  (198) 
40.423796

>  <fragmenstein_error>  (198) 


>  <tags>  (198) 
{'openbind_xx01zvns2b_c1_fragmenstein', 'fragmenstein_placed'}

>  <ref_pdb>  (198) 
1

>  <scratch_subdir>  (198) 
/opt/xchem-fragalysis-2/maxwin/BulkDock/SCRATCH/511027/C74983-P20

>  <alias>  (198) 
CCN(C)[C@H]1CCCN2CCC[C@H]12

>  <HIPPO Compound ID>  (198) 
74983

>  <fragmenstein_runtime>  (198) 
0.950325

$$$$
CNCN1CC[C@H](OCNc2ccc([C@H]3CCOC3)cc2F)[C@H]2N[C@H](Cl)CC[C@@H]21
     RDKit          3D

 29 32  0  0  0  0  0  0  0  0999 V2000
   -3.6918    6.1761  -20.0454 C   0  0  0  0  0  0  0  0  0  0  0  0
   -3.9857    5.2841  -18.9348 N   0  0  0  0  0  0  0  0  0  0  0  0
   -4.4319    6.0640  -17.8000 C   0  0  0  0  0  0  0  0  0  0  0  0
   -5.2213    5.1987  -16.9268 N   0  0  0  0  0  0  0  0  0  0  0  0
   -4.8621    5.4889  -15.5283 C   0  0  0  0  0  0  0  0  0  0  0  0
   -5.7374    4.7796  -14.5020 C   0  0  0  0  0  0  0  0  0  0  0  0
   -7.1922    5.1920  -14.7082 C   0  0  2  0  0  0  0  0  0  0  0  0
   -8.0960    4.6160  -13.7650 O   0  0  0  0  0  0  0  0  0  0  0  0
   -7.8563    4.8815  -12.3935 C   0  0  0  0  0  0  0  0  0  0  0  0
   -7.2811    6.1919  -12.1019 N   0  0  0  0  0  0  0  0  0  0  0  0
   -8.1153    7.3143  -11.9817 C   0  0  0  0  0  0  0  0  0  0  0  0
   -7.6712    8.3738  -11.1762 C   0  0  0  0  0  0  0  0  0  0  0  0
   -8.4299    9.5407  -11.0010 C   0  0  0  0  0  0  0  0  0  0  0  0
   -9.6600    9.7033  -11.6463 C   0  0  0  0  0  0  0  0  0  0  0  0
  -10.5469   10.9104  -11.4364 C   0  0  1  0  0  0  0  0  0  0  0  0
  -11.9912   10.5691  -11.1007 C   0  0  0  0  0  0  0  0  0  0  0  0
  -12.5182   11.8573  -10.5048 C   0  0  0  0  0  0  0  0  0  0  0  0
  -11.3986   12.5673   -9.9518 O   0  0  0  0  0  0  0  0  0  0  0  0
  -10.2104   11.8293  -10.2643 C   0  0  0  0  0  0  0  0  0  0  0  0
  -10.0541    8.7004  -12.5405 C   0  0  0  0  0  0  0  0  0  0  0  0
   -9.2943    7.5362  -12.7026 C   0  0  0  0  0  0  0  0  0  0  0  0
   -9.7627    6.6233  -13.5654 F   0  0  0  0  0  0  0  0  0  0  0  0
   -7.5999    4.7387  -16.1245 C   0  0  1  0  0  0  0  0  0  0  0  0
   -9.0082    5.0675  -16.3748 N   0  0  0  0  0  0  0  0  0  0  0  0
   -9.4780    4.7851  -17.7161 C   0  0  2  0  0  0  0  0  0  0  0  0
   -9.7090    3.0944  -17.8800 Cl  0  0  0  0  0  0  0  0  0  0  0  0
   -8.5350    5.1555  -18.8228 C   0  0  0  0  0  0  0  0  0  0  0  0
   -7.0754    4.8838  -18.5570 C   0  0  0  0  0  0  0  0  0  0  0  0
   -6.6715    5.4019  -17.1722 C   0  0  2  0  0  0  0  0  0  0  0  0
  1  2  1  0
  2  3  1  0
  3  4  1  0
  4  5  1  0
  5  6  1  0
  6  7  1  0
  7  8  1  1
  8  9  1  0
  9 10  1  0
 10 11  1  0
 11 12  2  0
 12 13  1  0
 13 14  2  0
 15 14  1  1
 15 16  1  0
 16 17  1  0
 17 18  1  0
 18 19  1  0
 14 20  1  0
 20 21  2  0
 21 22  1  0
  7 23  1  0
 23 24  1  6
 24 25  1  0
 25 26  1  1
 25 27  1  0
 27 28  1  0
 29 28  1  6
 29  4  1  0
 21 11  1  0
 29 23  1  0
 19 15  1  0
M  END
>  <smiles>  (199) 
C75091-P21

>  <fragmenstein_outcome>  (199) 
acceptable

>  <inchikey>  (199) 
NWXOYFWUAGRDBM-UHFFFAOYSA-N

>  <fragmenstein_mode>  (199) 
expansion

>  <HIPPO Pose ID>  (199) 
2983

>  <Energy>  (199) 
21.628585

>  <fragmenstein_error>  (199) 


>  <tags>  (199) 
{'openbind_xx01zvns2b_c1_fragmenstein', 'fragmenstein_placed'}

>  <ref_pdb>  (199) 
1

>  <scratch_subdir>  (199) 
/opt/xchem-fragalysis-2/maxwin/BulkDock/SCRATCH/511027/C75091-P21

>  <alias>  (199) 
CNCN1CC[C@H](OCNc2ccc([C@H]3CCOC3)cc2F)[C@H]2N[C@H](Cl)CC[C@@H]21

>  <HIPPO Compound ID>  (199) 
80578

>  <fragmenstein_runtime>  (199) 
13.729505

$$$$
CNCN1CC[C@H](OCNc2ccc([C@@H]3CCOC3)cc2F)[C@H]2N[C@H](Cl)CC[C@@H]21
     RDKit          3D

 29 32  0  0  0  0  0  0  0  0999 V2000
   -3.7750    6.3423  -20.0214 C   0  0  0  0  0  0  0  0  0  0  0  0
   -4.0725    5.3951  -18.9582 N   0  0  0  0  0  0  0  0  0  0  0  0
   -4.5111    6.1224  -17.7858 C   0  0  0  0  0  0  0  0  0  0  0  0
   -5.2975    5.2272  -16.9410 N   0  0  0  0  0  0  0  0  0  0  0  0
   -4.9277    5.4662  -15.5344 C   0  0  0  0  0  0  0  0  0  0  0  0
   -5.7994    4.7301  -14.5228 C   0  0  0  0  0  0  0  0  0  0  0  0
   -7.2530    5.1570  -14.7066 C   0  0  2  0  0  0  0  0  0  0  0  0
   -8.1626    4.5576  -13.7844 O   0  0  0  0  0  0  0  0  0  0  0  0
   -7.9149    4.7348  -12.4019 C   0  0  0  0  0  0  0  0  0  0  0  0
   -7.2831    5.9950  -12.0256 N   0  0  0  0  0  0  0  0  0  0  0  0
   -8.0561    7.1535  -11.8495 C   0  0  0  0  0  0  0  0  0  0  0  0
   -7.5963    8.1067  -10.9278 C   0  0  0  0  0  0  0  0  0  0  0  0
   -8.2734    9.3144  -10.7160 C   0  0  0  0  0  0  0  0  0  0  0  0
   -9.4128    9.6443  -11.4605 C   0  0  0  0  0  0  0  0  0  0  0  0
  -10.1342   10.9469  -11.1635 C   0  0  2  0  0  0  0  0  0  0  0  0
  -11.3734   10.7378  -10.3138 C   0  0  0  0  0  0  0  0  0  0  0  0
  -12.4855   10.6030  -11.3310 C   0  0  0  0  0  0  0  0  0  0  0  0
  -12.0946   11.3715  -12.4796 O   0  0  0  0  0  0  0  0  0  0  0  0
  -10.6986   11.6817  -12.3753 C   0  0  0  0  0  0  0  0  0  0  0  0
   -9.8465    8.7287  -12.4236 C   0  0  0  0  0  0  0  0  0  0  0  0
   -9.1777    7.5118  -12.6100 C   0  0  0  0  0  0  0  0  0  0  0  0
   -9.6744    6.6862  -13.5418 F   0  0  0  0  0  0  0  0  0  0  0  0
   -7.6667    4.7452  -16.1351 C   0  0  1  0  0  0  0  0  0  0  0  0
   -9.0798    5.0723  -16.3743 N   0  0  0  0  0  0  0  0  0  0  0  0
   -9.5501    4.7646  -17.7097 C   0  0  2  0  0  0  0  0  0  0  0  0
   -9.6348    3.0462  -17.9088 Cl  0  0  0  0  0  0  0  0  0  0  0  0
   -8.6426    5.2342  -18.8079 C   0  0  0  0  0  0  0  0  0  0  0  0
   -7.1682    4.9808  -18.5734 C   0  0  0  0  0  0  0  0  0  0  0  0
   -6.7499    5.4437  -17.1698 C   0  0  2  0  0  0  0  0  0  0  0  0
  1  2  1  0
  2  3  1  0
  3  4  1  0
  4  5  1  0
  5  6  1  0
  6  7  1  0
  7  8  1  1
  8  9  1  0
  9 10  1  0
 10 11  1  0
 11 12  2  0
 12 13  1  0
 13 14  2  0
 15 14  1  6
 15 16  1  0
 16 17  1  0
 17 18  1  0
 18 19  1  0
 14 20  1  0
 20 21  2  0
 21 22  1  0
  7 23  1  0
 23 24  1  6
 24 25  1  0
 25 26  1  1
 25 27  1  0
 27 28  1  0
 29 28  1  6
 29  4  1  0
 21 11  1  0
 29 23  1  0
 19 15  1  0
M  END
>  <smiles>  (200) 
C75091-P2

>  <fragmenstein_outcome>  (200) 
acceptable

>  <inchikey>  (200) 
NMGXUSTXBWERML-UHFFFAOYSA-N

>  <fragmenstein_mode>  (200) 
expansion

>  <HIPPO Pose ID>  (200) 
2984

>  <Energy>  (200) 
20.324069

>  <fragmenstein_error>  (200) 


>  <tags>  (200) 
{'openbind_xx01zvns2b_c1_fragmenstein', 'fragmenstein_placed'}

>  <ref_pdb>  (200) 
1

>  <scratch_subdir>  (200) 
/opt/xchem-fragalysis-2/maxwin/BulkDock/SCRATCH/511027/C75091-P2

>  <alias>  (200) 
CNCN1CC[C@H](OCNc2ccc([C@@H]3CCOC3)cc2F)[C@H]2N[C@H](Cl)CC[C@@H]21

>  <HIPPO Compound ID>  (200) 
100591

>  <fragmenstein_runtime>  (200) 
14.632334

$$$$
Cc1cc2c3c(c(C(=O)Nc4ccc5c(c4)CNC5)ccn13)NCC2
     RDKit          3D

 25 29  0  0  0  0  0  0  0  0999 V2000
   -3.5694    5.6022  -18.7526 C   0  0  0  0  0  0  0  0  0  0  0  0
   -4.9731    5.3299  -18.3600 C   0  0  0  0  0  0  0  0  0  0  0  0
   -6.1030    5.2091  -19.1608 C   0  0  0  0  0  0  0  0  0  0  0  0
   -7.2043    4.9226  -18.3253 C   0  0  0  0  0  0  0  0  0  0  0  0
   -6.7181    4.8987  -17.0479 C   0  0  0  0  0  0  0  0  0  0  0  0
   -7.4335    4.6126  -15.8483 C   0  0  0  0  0  0  0  0  0  0  0  0
   -6.6932    4.5594  -14.7139 C   0  0  0  0  0  0  0  0  0  0  0  0
   -7.2980    4.2055  -13.3962 C   0  0  0  0  0  0  0  0  0  0  0  0
   -7.5387    3.1076  -13.0850 O   0  0  0  0  0  0  0  0  0  0  0  0
   -7.4071    5.5253  -12.5897 N   0  0  0  0  0  0  0  0  0  0  0  0
   -7.7323    5.7437  -11.2547 C   0  0  0  0  0  0  0  0  0  0  0  0
   -8.0742    4.6775  -10.4075 C   0  0  0  0  0  0  0  0  0  0  0  0
   -8.2939    4.8913   -9.0438 C   0  0  0  0  0  0  0  0  0  0  0  0
   -8.1915    6.1821   -8.5610 C   0  0  0  0  0  0  0  0  0  0  0  0
   -7.8825    7.2449   -9.4052 C   0  0  0  0  0  0  0  0  0  0  0  0
   -7.6417    7.0458  -10.7537 C   0  0  0  0  0  0  0  0  0  0  0  0
   -7.8352    8.5033   -8.6085 C   0  0  0  0  0  0  0  0  0  0  0  0
   -8.4683    8.1680   -7.3066 N   0  0  0  0  0  0  0  0  0  0  0  0
   -8.3499    6.6916   -7.1696 C   0  0  0  0  0  0  0  0  0  0  0  0
   -5.2466    4.8215  -14.7167 C   0  0  0  0  0  0  0  0  0  0  0  0
   -4.6219    5.1011  -15.8725 C   0  0  0  0  0  0  0  0  0  0  0  0
   -5.3648    5.1237  -17.0478 N   0  0  0  0  0  0  0  0  0  0  0  0
   -8.8024    4.4003  -16.0186 N   0  0  0  0  0  0  0  0  0  0  0  0
   -9.3571    4.0466  -17.3558 C   0  0  0  0  0  0  0  0  0  0  0  0
   -8.6446    4.6686  -18.5852 C   0  0  0  0  0  0  0  0  0  0  0  0
  1  2  1  0
  2  3  2  0
  3  4  1  0
  4  5  2  0
  5  6  1  0
  6  7  2  0
  7  8  1  0
  8  9  2  0
  8 10  1  0
 10 11  1  0
 11 12  2  0
 12 13  1  0
 13 14  2  0
 14 15  1  0
 15 16  2  0
 15 17  1  0
 17 18  1  0
 18 19  1  0
  7 20  1  0
 20 21  2  0
 21 22  1  0
  6 23  1  0
 23 24  1  0
 24 25  1  0
 22  2  1  0
 25  4  1  0
 22  5  1  0
 16 11  1  0
 19 14  1  0
M  END
>  <smiles>  (201) 
C75101-P21

>  <fragmenstein_outcome>  (201) 
acceptable

>  <inchikey>  (201) 
VQWHHLOEAXTMAM-UHFFFAOYSA-N

>  <fragmenstein_mode>  (201) 
expansion

>  <HIPPO Pose ID>  (201) 
2990

>  <Energy>  (201) 
80.317415

>  <fragmenstein_error>  (201) 


>  <tags>  (201) 
{'openbind_xx01zvns2b_c1_fragmenstein', 'fragmenstein_placed'}

>  <ref_pdb>  (201) 
1

>  <scratch_subdir>  (201) 
/opt/xchem-fragalysis-2/maxwin/BulkDock/SCRATCH/511027/C75101-P21

>  <alias>  (201) 
Cc1cc2c3c(c(C(=O)Nc4ccc5c(c4)CNC5)ccn13)NCC2

>  <HIPPO Compound ID>  (201) 
75101

>  <fragmenstein_runtime>  (201) 
3.12965

$$$$
CNCc1ccc(OCNc2ccccn2)c2c1CCCN2
     RDKit          3D

 22 24  0  0  0  0  0  0  0  0999 V2000
   -2.8833    4.4844  -15.7711 C   0  0  0  0  0  0  0  0  0  0  0  0
   -2.9869    5.5125  -16.8003 N   0  0  0  0  0  0  0  0  0  0  0  0
   -4.2920    5.5011  -17.4948 C   0  0  0  0  0  0  0  0  0  0  0  0
   -5.5231    5.6658  -16.6144 C   0  0  0  0  0  0  0  0  0  0  0  0
   -5.4187    6.3127  -15.3736 C   0  0  0  0  0  0  0  0  0  0  0  0
   -6.4561    6.2657  -14.4586 C   0  0  0  0  0  0  0  0  0  0  0  0
   -7.6275    5.5966  -14.7845 C   0  0  0  0  0  0  0  0  0  0  0  0
   -8.5965    5.4605  -13.8187 O   0  0  0  0  0  0  0  0  0  0  0  0
   -8.2597    4.3448  -12.9715 C   0  0  0  0  0  0  0  0  0  0  0  0
   -7.2758    4.7466  -11.9633 N   0  0  0  0  0  0  0  0  0  0  0  0
   -7.3546    3.8919  -10.8580 C   0  0  0  0  0  0  0  0  0  0  0  0
   -8.3970    4.0119   -9.9459 C   0  0  0  0  0  0  0  0  0  0  0  0
   -8.4993    3.0969   -8.9099 C   0  0  0  0  0  0  0  0  0  0  0  0
   -7.5454    2.0995   -8.8153 C   0  0  0  0  0  0  0  0  0  0  0  0
   -6.5175    2.0773   -9.7458 C   0  0  0  0  0  0  0  0  0  0  0  0
   -6.3901    2.9639  -10.7582 N   0  0  0  0  0  0  0  0  0  0  0  0
   -7.8495    5.1012  -16.0750 C   0  0  0  0  0  0  0  0  0  0  0  0
   -6.7979    5.1808  -17.0118 C   0  0  0  0  0  0  0  0  0  0  0  0
   -7.0490    4.7157  -18.4281 C   0  0  0  0  0  0  0  0  0  0  0  0
   -8.5270    4.6451  -18.7893 C   0  0  0  0  0  0  0  0  0  0  0  0
   -9.3583    4.0258  -17.6941 C   0  0  0  0  0  0  0  0  0  0  0  0
   -9.1245    4.6851  -16.4325 N   0  0  0  0  0  0  0  0  0  0  0  0
  1  2  1  0
  2  3  1  0
  3  4  1  0
  4  5  2  0
  5  6  1  0
  6  7  2  0
  7  8  1  0
  8  9  1  0
  9 10  1  0
 10 11  1  0
 11 12  2  0
 12 13  1  0
 13 14  2  0
 14 15  1  0
 15 16  2  0
  7 17  1  0
 17 18  2  0
 18 19  1  0
 19 20  1  0
 20 21  1  0
 21 22  1  0
 18  4  1  0
 16 11  1  0
 22 17  1  0
M  END
>  <smiles>  (202) 
C75103-P21

>  <fragmenstein_outcome>  (202) 
acceptable

>  <inchikey>  (202) 
ITPZQGYVLIKFGZ-UHFFFAOYSA-N

>  <fragmenstein_mode>  (202) 
expansion

>  <HIPPO Pose ID>  (202) 
2991

>  <Energy>  (202) 
-10.215323

>  <fragmenstein_error>  (202) 


>  <tags>  (202) 
{'openbind_xx01zvns2b_c1_fragmenstein', 'fragmenstein_placed'}

>  <ref_pdb>  (202) 
1

>  <scratch_subdir>  (202) 
/opt/xchem-fragalysis-2/maxwin/BulkDock/SCRATCH/511027/C75103-P21

>  <alias>  (202) 
CNCc1ccc(OCNc2ccccn2)c2c1CCCN2

>  <HIPPO Compound ID>  (202) 
103363

>  <fragmenstein_runtime>  (202) 
2.473363

$$$$
CCNc1nn2ccc(C(=O)Nc3ccc4c(c3)CNC4)c3c2c1CCN3
     RDKit          3D

 27 31  0  0  0  0  0  0  0  0999 V2000
   -5.0723    8.4021  -20.0969 C   0  0  0  0  0  0  0  0  0  0  0  0
   -4.9394    6.9837  -20.6291 C   0  0  0  0  0  0  0  0  0  0  0  0
   -5.9909    6.1202  -20.1407 N   0  0  0  0  0  0  0  0  0  0  0  0
   -6.0639    5.6946  -18.8747 C   0  0  0  0  0  0  0  0  0  0  0  0
   -5.0861    5.8849  -17.9822 N   0  0  0  0  0  0  0  0  0  0  0  0
   -5.6243    5.5210  -16.8062 N   0  0  0  0  0  0  0  0  0  0  0  0
   -5.0916    5.6825  -15.5357 C   0  0  0  0  0  0  0  0  0  0  0  0
   -5.8333    5.3340  -14.4748 C   0  0  0  0  0  0  0  0  0  0  0  0
   -7.1680    4.7520  -14.6921 C   0  0  0  0  0  0  0  0  0  0  0  0
   -7.9894    4.4153  -13.5091 C   0  0  0  0  0  0  0  0  0  0  0  0
   -9.0494    4.8625  -13.3053 O   0  0  0  0  0  0  0  0  0  0  0  0
   -7.1068    3.4858  -12.6384 N   0  0  0  0  0  0  0  0  0  0  0  0
   -7.2961    3.0143  -11.3590 C   0  0  0  0  0  0  0  0  0  0  0  0
   -6.2627    2.2704  -10.7774 C   0  0  0  0  0  0  0  0  0  0  0  0
   -6.3497    1.8854   -9.4431 C   0  0  0  0  0  0  0  0  0  0  0  0
   -7.4844    2.2214   -8.7293 C   0  0  0  0  0  0  0  0  0  0  0  0
   -8.5143    2.9077   -9.3422 C   0  0  0  0  0  0  0  0  0  0  0  0
   -8.4363    3.3394  -10.6444 C   0  0  0  0  0  0  0  0  0  0  0  0
   -9.6106    3.0658   -8.3676 C   0  0  0  0  0  0  0  0  0  0  0  0
   -9.3515    2.1149   -7.2785 N   0  0  0  0  0  0  0  0  0  0  0  0
   -7.8806    2.0076   -7.3020 C   0  0  0  0  0  0  0  0  0  0  0  0
   -7.6877    4.5657  -15.9234 C   0  0  0  0  0  0  0  0  0  0  0  0
   -6.8765    4.9991  -16.9949 C   0  0  0  0  0  0  0  0  0  0  0  0
   -7.1936    5.0556  -18.3168 C   0  0  0  0  0  0  0  0  0  0  0  0
   -8.5156    4.5431  -18.7712 C   0  0  0  0  0  0  0  0  0  0  0  0
   -9.5215    4.3037  -17.6079 C   0  0  0  0  0  0  0  0  0  0  0  0
   -8.9139    4.0283  -16.2933 N   0  0  0  0  0  0  0  0  0  0  0  0
  1  2  1  0
  2  3  1  0
  3  4  1  0
  4  5  2  0
  5  6  1  0
  6  7  1  0
  7  8  2  0
  8  9  1  0
  9 10  1  0
 10 11  2  0
 10 12  1  0
 12 13  1  0
 13 14  2  0
 14 15  1  0
 15 16  2  0
 16 17  1  0
 17 18  2  0
 17 19  1  0
 19 20  1  0
 20 21  1  0
  9 22  2  0
 22 23  1  0
 23 24  2  0
 24 25  1  0
 25 26  1  0
 26 27  1  0
 24  4  1  0
 23  6  1  0
 18 13  1  0
 27 22  1  0
 21 16  1  0
M  END
>  <smiles>  (203) 
C75105-P21

>  <fragmenstein_outcome>  (203) 
acceptable

>  <inchikey>  (203) 
SNHZDTCPNBFZIF-UHFFFAOYSA-N

>  <fragmenstein_mode>  (203) 
expansion

>  <HIPPO Pose ID>  (203) 
2992

>  <Energy>  (203) 
24.723775

>  <fragmenstein_error>  (203) 


>  <tags>  (203) 
{'openbind_xx01zvns2b_c1_fragmenstein', 'fragmenstein_placed'}

>  <ref_pdb>  (203) 
1

>  <scratch_subdir>  (203) 
/opt/xchem-fragalysis-2/maxwin/BulkDock/SCRATCH/511027/C75105-P21

>  <alias>  (203) 
CCNc1nn2ccc(C(=O)Nc3ccc4c(c3)CNC4)c3c2c1CCN3

>  <HIPPO Compound ID>  (203) 
75105

>  <fragmenstein_runtime>  (203) 
6.377095

$$$$
NCc1cc2c3c(c(C(=O)Nc4ccc5c(c4)CNC5)ccn13)NCC2
     RDKit          3D

 26 30  0  0  0  0  0  0  0  0999 V2000
   -3.5308    5.6951  -20.4345 N   0  0  0  0  0  0  0  0  0  0  0  0
   -3.6545    5.2422  -19.0512 C   0  0  0  0  0  0  0  0  0  0  0  0
   -5.0538    5.1667  -18.5730 C   0  0  0  0  0  0  0  0  0  0  0  0
   -6.2485    5.0921  -19.2824 C   0  0  0  0  0  0  0  0  0  0  0  0
   -7.2966    4.8946  -18.3675 C   0  0  0  0  0  0  0  0  0  0  0  0
   -6.7258    4.8795  -17.1273 C   0  0  0  0  0  0  0  0  0  0  0  0
   -7.3716    4.6168  -15.8846 C   0  0  0  0  0  0  0  0  0  0  0  0
   -6.5584    4.5108  -14.8073 C   0  0  0  0  0  0  0  0  0  0  0  0
   -7.0848    4.1454  -13.4632 C   0  0  0  0  0  0  0  0  0  0  0  0
   -7.1421    3.0458  -13.0759 O   0  0  0  0  0  0  0  0  0  0  0  0
   -7.3995    5.4807  -12.7441 N   0  0  0  0  0  0  0  0  0  0  0  0
   -7.7448    5.7339  -11.4231 C   0  0  0  0  0  0  0  0  0  0  0  0
   -7.8149    4.6992  -10.4761 C   0  0  0  0  0  0  0  0  0  0  0  0
   -8.0435    4.9813   -9.1270 C   0  0  0  0  0  0  0  0  0  0  0  0
   -8.2147    6.3019   -8.7604 C   0  0  0  0  0  0  0  0  0  0  0  0
   -8.1798    7.3250   -9.7050 C   0  0  0  0  0  0  0  0  0  0  0  0
   -7.9405    7.0629  -11.0407 C   0  0  0  0  0  0  0  0  0  0  0  0
   -8.3989    8.6301   -9.0217 C   0  0  0  0  0  0  0  0  0  0  0  0
   -8.9138    8.2762   -7.6753 N   0  0  0  0  0  0  0  0  0  0  0  0
   -8.4366    6.8938   -7.4111 C   0  0  0  0  0  0  0  0  0  0  0  0
   -5.1121    4.7437  -14.8993 C   0  0  0  0  0  0  0  0  0  0  0  0
   -4.5526    4.9983  -16.0943 C   0  0  0  0  0  0  0  0  0  0  0  0
   -5.3660    5.0385  -17.2242 N   0  0  0  0  0  0  0  0  0  0  0  0
   -8.7541    4.4382  -15.9704 N   0  0  0  0  0  0  0  0  0  0  0  0
   -9.3885    4.0647  -17.2681 C   0  0  0  0  0  0  0  0  0  0  0  0
   -8.7520    4.6710  -18.5396 C   0  0  0  0  0  0  0  0  0  0  0  0
  1  2  1  0
  2  3  1  0
  3  4  2  0
  4  5  1  0
  5  6  2  0
  6  7  1  0
  7  8  2  0
  8  9  1  0
  9 10  2  0
  9 11  1  0
 11 12  1  0
 12 13  2  0
 13 14  1  0
 14 15  2  0
 15 16  1  0
 16 17  2  0
 16 18  1  0
 18 19  1  0
 19 20  1  0
  8 21  1  0
 21 22  2  0
 22 23  1  0
  7 24  1  0
 24 25  1  0
 25 26  1  0
 23  3  1  0
 26  5  1  0
 23  6  1  0
 17 12  1  0
 20 15  1  0
M  END
>  <smiles>  (204) 
C75104-P21

>  <fragmenstein_outcome>  (204) 
acceptable

>  <inchikey>  (204) 
JCPLHIWUGCYQCH-UHFFFAOYSA-N

>  <fragmenstein_mode>  (204) 
expansion

>  <HIPPO Pose ID>  (204) 
2997

>  <Energy>  (204) 
61.313229

>  <fragmenstein_error>  (204) 


>  <tags>  (204) 
{'openbind_xx01zvns2b_c1_fragmenstein', 'fragmenstein_placed'}

>  <ref_pdb>  (204) 
1

>  <scratch_subdir>  (204) 
/opt/xchem-fragalysis-2/maxwin/BulkDock/SCRATCH/511027/C75104-P21

>  <alias>  (204) 
NCc1cc2c3c(c(C(=O)Nc4ccc5c(c4)CNC5)ccn13)NCC2

>  <HIPPO Compound ID>  (204) 
87716

>  <fragmenstein_runtime>  (204) 
2.983816

$$$$
N#Cc1cc(OC(F)(F)F)c2nccc(N)c2c1
     RDKit          3D

 18 19  0  0  0  0  0  0  0  0999 V2000
   -7.0672    4.5797  -11.8736 N   0  0  0  0  0  0  0  0  0  0  0  0
   -7.0414    4.6040  -13.0335 C   0  0  0  0  0  0  0  0  0  0  0  0
   -7.0091    4.6937  -14.4604 C   0  0  0  0  0  0  0  0  0  0  0  0
   -8.1401    4.3773  -15.1902 C   0  0  0  0  0  0  0  0  0  0  0  0
   -8.1573    4.5200  -16.5779 C   0  0  0  0  0  0  0  0  0  0  0  0
   -9.3482    4.1155  -17.1065 O   0  0  0  0  0  0  0  0  0  0  0  0
   -9.7339    4.5471  -18.3950 C   0  0  0  0  0  0  0  0  0  0  0  0
   -9.4537    5.8314  -18.6444 F   0  0  0  0  0  0  0  0  0  0  0  0
   -9.2014    3.7520  -19.3340 F   0  0  0  0  0  0  0  0  0  0  0  0
  -11.0813    4.4320  -18.4398 F   0  0  0  0  0  0  0  0  0  0  0  0
   -7.0440    5.0179  -17.2592 C   0  0  0  0  0  0  0  0  0  0  0  0
   -7.1076    5.2230  -18.5751 N   0  0  0  0  0  0  0  0  0  0  0  0
   -6.0605    5.7582  -19.2178 C   0  0  0  0  0  0  0  0  0  0  0  0
   -4.8619    6.0421  -18.6175 C   0  0  0  0  0  0  0  0  0  0  0  0
   -4.7672    5.8735  -17.2428 C   0  0  0  0  0  0  0  0  0  0  0  0
   -3.5090    6.0898  -16.6496 N   0  0  0  0  0  0  0  0  0  0  0  0
   -5.8726    5.3354  -16.5291 C   0  0  0  0  0  0  0  0  0  0  0  0
   -5.8711    5.1430  -15.1276 C   0  0  0  0  0  0  0  0  0  0  0  0
  1  2  3  0
  2  3  1  0
  3  4  2  0
  4  5  1  0
  5  6  1  0
  6  7  1  0
  7  8  1  0
  7  9  1  0
  7 10  1  0
  5 11  2  0
 11 12  1  0
 12 13  2  0
 13 14  1  0
 14 15  2  0
 15 16  1  0
 15 17  1  0
 17 18  2  0
 18  3  1  0
 17 11  1  0
M  END
>  <smiles>  (205) 
C70978-P22

>  <fragmenstein_outcome>  (205) 
acceptable

>  <inchikey>  (205) 
KYFJMOBLDQNAKL-UHFFFAOYSA-N

>  <fragmenstein_mode>  (205) 
expansion

>  <HIPPO Pose ID>  (205) 
3317

>  <Energy>  (205) 
58.727593

>  <fragmenstein_error>  (205) 


>  <tags>  (205) 
{'openbind_xx01zvns2b_c1_fragmenstein', 'fragmenstein_placed'}

>  <ref_pdb>  (205) 
1

>  <scratch_subdir>  (205) 
/opt/xchem-fragalysis-2/maxwin/BulkDock/SCRATCH/511027/C70978-P22

>  <alias>  (205) 
N#Cc1cc(OC(F)(F)F)c2nccc(N)c2c1

>  <HIPPO Compound ID>  (205) 
70978

>  <fragmenstein_runtime>  (205) 
3.245514

$$$$
N#Cc1cc(C(=O)Nc2ccc3c(c2)CNC3)n2nc(C(F)(F)F)nc2c1
     RDKit          3D

 27 30  0  0  0  0  0  0  0  0999 V2000
  -11.1650    4.6009  -18.4416 N   0  0  0  0  0  0  0  0  0  0  0  0
  -10.0919    4.5871  -18.0115 C   0  0  0  0  0  0  0  0  0  0  0  0
   -8.8103    4.5879  -17.3963 C   0  0  0  0  0  0  0  0  0  0  0  0
   -8.7343    4.2282  -15.9864 C   0  0  0  0  0  0  0  0  0  0  0  0
   -7.5417    4.2137  -15.3641 C   0  0  0  0  0  0  0  0  0  0  0  0
   -7.4942    3.6904  -13.9781 C   0  0  0  0  0  0  0  0  0  0  0  0
   -7.2718    2.5689  -13.7453 O   0  0  0  0  0  0  0  0  0  0  0  0
   -7.8823    4.8539  -13.0326 N   0  0  0  0  0  0  0  0  0  0  0  0
   -7.9802    4.8961  -11.6480 C   0  0  0  0  0  0  0  0  0  0  0  0
   -7.9679    6.1466  -11.0104 C   0  0  0  0  0  0  0  0  0  0  0  0
   -8.0340    6.2294   -9.6174 C   0  0  0  0  0  0  0  0  0  0  0  0
   -8.1455    5.0537   -8.8948 C   0  0  0  0  0  0  0  0  0  0  0  0
   -8.2077    3.8206   -9.5316 C   0  0  0  0  0  0  0  0  0  0  0  0
   -8.1093    3.7189  -10.9080 C   0  0  0  0  0  0  0  0  0  0  0  0
   -8.4190    2.7418   -8.5237 C   0  0  0  0  0  0  0  0  0  0  0  0
   -8.2538    3.3926   -7.1960 N   0  0  0  0  0  0  0  0  0  0  0  0
   -8.2469    4.8528   -7.4221 C   0  0  0  0  0  0  0  0  0  0  0  0
   -6.4026    4.5919  -16.0601 N   0  0  0  0  0  0  0  0  0  0  0  0
   -5.1402    4.7430  -15.6047 N   0  0  0  0  0  0  0  0  0  0  0  0
   -4.4543    5.0988  -16.7032 C   0  0  0  0  0  0  0  0  0  0  0  0
   -2.9584    5.2683  -16.7061 C   0  0  0  0  0  0  0  0  0  0  0  0
   -2.4240    4.9654  -17.9183 F   0  0  0  0  0  0  0  0  0  0  0  0
   -2.5819    6.5458  -16.4232 F   0  0  0  0  0  0  0  0  0  0  0  0
   -2.3396    4.4662  -15.7960 F   0  0  0  0  0  0  0  0  0  0  0  0
   -5.2421    5.2947  -17.8211 N   0  0  0  0  0  0  0  0  0  0  0  0
   -6.4432    4.9609  -17.4098 C   0  0  0  0  0  0  0  0  0  0  0  0
   -7.6984    4.9273  -18.0792 C   0  0  0  0  0  0  0  0  0  0  0  0
  1  2  3  0
  2  3  1  0
  3  4  1  0
  4  5  2  0
  5  6  1  0
  6  7  2  0
  6  8  1  0
  8  9  1  0
  9 10  2  0
 10 11  1  0
 11 12  2  0
 12 13  1  0
 13 14  2  0
 13 15  1  0
 15 16  1  0
 16 17  1  0
  5 18  1  0
 18 19  1  0
 19 20  2  0
 20 21  1  0
 21 22  1  0
 21 23  1  0
 21 24  1  0
 20 25  1  0
 25 26  2  0
 26 27  1  0
 27  3  2  0
 14  9  1  0
 26 18  1  0
 17 12  1  0
M  END
>  <smiles>  (206) 
C75740-P23

>  <fragmenstein_outcome>  (206) 
acceptable

>  <inchikey>  (206) 
DMLHRCUGDGTBHH-UHFFFAOYSA-N

>  <fragmenstein_mode>  (206) 
expansion

>  <HIPPO Pose ID>  (206) 
3371

>  <Energy>  (206) 
143.60396

>  <fragmenstein_error>  (206) 


>  <tags>  (206) 
{'openbind_xx01zvns2b_c1_fragmenstein', 'fragmenstein_placed'}

>  <ref_pdb>  (206) 
1

>  <scratch_subdir>  (206) 
/opt/xchem-fragalysis-2/maxwin/BulkDock/SCRATCH/511027/C75740-P23

>  <alias>  (206) 
N#Cc1cc(C(=O)Nc2ccc3c(c2)CNC3)n2nc(C(F)(F)F)nc2c1

>  <HIPPO Compound ID>  (206) 
90434

>  <fragmenstein_runtime>  (206) 
4.286373

$$$$
N#Cc1cc(C(=O)Nc2ccc3c(c2)CNC3)n2ncnc2c1
     RDKit          3D

 23 26  0  0  0  0  0  0  0  0999 V2000
  -10.1857    3.8561  -18.3709 N   0  0  0  0  0  0  0  0  0  0  0  0
   -9.2391    4.1892  -17.8040 C   0  0  0  0  0  0  0  0  0  0  0  0
   -8.0962    4.6004  -17.0822 C   0  0  0  0  0  0  0  0  0  0  0  0
   -8.2189    4.8451  -15.6467 C   0  0  0  0  0  0  0  0  0  0  0  0
   -7.1417    5.2803  -14.9629 C   0  0  0  0  0  0  0  0  0  0  0  0
   -7.3041    5.7324  -13.5518 C   0  0  0  0  0  0  0  0  0  0  0  0
   -7.0565    6.8370  -13.2603 O   0  0  0  0  0  0  0  0  0  0  0  0
   -7.8088    4.5500  -12.6794 N   0  0  0  0  0  0  0  0  0  0  0  0
   -8.0139    4.4633  -11.2993 C   0  0  0  0  0  0  0  0  0  0  0  0
   -7.8512    5.5902  -10.4752 C   0  0  0  0  0  0  0  0  0  0  0  0
   -8.0191    5.5026   -9.0882 C   0  0  0  0  0  0  0  0  0  0  0  0
   -8.3610    4.2790   -8.5472 C   0  0  0  0  0  0  0  0  0  0  0  0
   -8.5273    3.1595   -9.3569 C   0  0  0  0  0  0  0  0  0  0  0  0
   -8.3599    3.2320  -10.7335 C   0  0  0  0  0  0  0  0  0  0  0  0
   -8.8450    1.9863   -8.4878 C   0  0  0  0  0  0  0  0  0  0  0  0
   -9.2416    2.5672   -7.1796 N   0  0  0  0  0  0  0  0  0  0  0  0
   -8.5827    3.8913   -7.1226 C   0  0  0  0  0  0  0  0  0  0  0  0
   -5.9323    5.4726  -15.6446 N   0  0  0  0  0  0  0  0  0  0  0  0
   -4.7235    5.8684  -15.1735 N   0  0  0  0  0  0  0  0  0  0  0  0
   -3.9735    5.9098  -16.2694 C   0  0  0  0  0  0  0  0  0  0  0  0
   -4.5813    5.5293  -17.4191 N   0  0  0  0  0  0  0  0  0  0  0  0
   -5.8017    5.2497  -17.0226 C   0  0  0  0  0  0  0  0  0  0  0  0
   -6.9399    4.8085  -17.7394 C   0  0  0  0  0  0  0  0  0  0  0  0
  1  2  3  0
  2  3  1  0
  3  4  1  0
  4  5  2  0
  5  6  1  0
  6  7  2  0
  6  8  1  0
  8  9  1  0
  9 10  2  0
 10 11  1  0
 11 12  2  0
 12 13  1  0
 13 14  2  0
 13 15  1  0
 15 16  1  0
 16 17  1  0
  5 18  1  0
 18 19  1  0
 19 20  2  0
 20 21  1  0
 21 22  2  0
 22 23  1  0
 23  3  2  0
 14  9  1  0
 22 18  1  0
 17 12  1  0
M  END
>  <smiles>  (207) 
C75732-P23

>  <fragmenstein_outcome>  (207) 
acceptable

>  <inchikey>  (207) 
ZIXSIPOYHJQCIX-UHFFFAOYSA-N

>  <fragmenstein_mode>  (207) 
expansion

>  <HIPPO Pose ID>  (207) 
3373

>  <Energy>  (207) 
47.939551

>  <fragmenstein_error>  (207) 


>  <tags>  (207) 
{'openbind_xx01zvns2b_c1_fragmenstein', 'fragmenstein_placed'}

>  <ref_pdb>  (207) 
1

>  <scratch_subdir>  (207) 
/opt/xchem-fragalysis-2/maxwin/BulkDock/SCRATCH/511027/C75732-P23

>  <alias>  (207) 
N#Cc1cc(C(=O)Nc2ccc3c(c2)CNC3)n2ncnc2c1

>  <HIPPO Compound ID>  (207) 
80764

>  <fragmenstein_runtime>  (207) 
3.664025

$$$$
C[C@H](CN)N1CN(C)[C@@](C)(CS)C1
     RDKit          3D

 13 13  0  0  0  0  0  0  0  0999 V2000
   -6.8639    4.0667  -14.7618 C   0  0  0  0  0  0  0  0  0  0  0  0
   -7.6135    5.2534  -15.3794 C   0  0  2  0  0  0  0  0  0  0  0  0
   -9.0404    4.8149  -15.8395 C   0  0  0  0  0  0  0  0  0  0  0  0
   -9.1736    3.9461  -17.0114 N   0  0  0  0  0  0  0  0  0  0  0  0
   -6.8453    6.0409  -16.3566 N   0  0  0  0  0  0  0  0  0  0  0  0
   -5.5370    6.5106  -15.9072 C   0  0  0  0  0  0  0  0  0  0  0  0
   -4.5652    6.2965  -16.9945 N   0  0  0  0  0  0  0  0  0  0  0  0
   -3.7077    5.1520  -16.6942 C   0  0  0  0  0  0  0  0  0  0  0  0
   -5.3927    6.1492  -18.2192 C   0  0  1  0  0  0  0  0  0  0  0  0
   -5.7417    7.5698  -18.7319 C   0  0  0  0  0  0  0  0  0  0  0  0
   -4.8394    5.3050  -19.3907 C   0  0  0  0  0  0  0  0  0  0  0  0
   -3.3000    5.9061  -20.1695 S   0  0  0  0  0  0  0  0  0  0  0  0
   -6.6459    5.4455  -17.6731 C   0  0  0  0  0  0  0  0  0  0  0  0
  2  1  1  6
  2  3  1  0
  3  4  1  0
  2  5  1  0
  5  6  1  0
  6  7  1  0
  7  8  1  0
  7  9  1  0
  9 10  1  6
  9 11  1  0
 11 12  1  0
  9 13  1  0
 13  5  1  0
M  END
>  <smiles>  (208) 
C75892-P23

>  <fragmenstein_outcome>  (208) 
acceptable

>  <inchikey>  (208) 
QPBFMHWWAIYYKB-UHFFFAOYSA-N

>  <fragmenstein_mode>  (208) 
expansion

>  <HIPPO Pose ID>  (208) 
3437

>  <Energy>  (208) 
56.35419

>  <fragmenstein_error>  (208) 


>  <tags>  (208) 
{'openbind_xx01zvns2b_c1_fragmenstein', 'fragmenstein_placed'}

>  <ref_pdb>  (208) 
1

>  <scratch_subdir>  (208) 
/opt/xchem-fragalysis-2/maxwin/BulkDock/SCRATCH/511027/C75892-P23

>  <alias>  (208) 
C[C@H](CN)N1CN(C)[C@@](C)(CS)C1

>  <HIPPO Compound ID>  (208) 
30681

>  <fragmenstein_runtime>  (208) 
1.621525

$$$$
C=CC1=CC=C(C(=O)Nc2ccc3c(c2)CNC3)C=CNC1=O
     RDKit          3D

 23 25  0  0  0  0  0  0  0  0999 V2000
  -10.3646    4.8938  -18.4945 C   0  0  0  0  0  0  0  0  0  0  0  0
   -9.1377    4.3621  -18.5886 C   0  0  0  0  0  0  0  0  0  0  0  0
   -8.1031    4.4731  -17.5566 C   0  0  0  0  0  0  0  0  0  0  0  0
   -8.5340    4.4730  -16.2935 C   0  0  0  0  0  0  0  0  0  0  0  0
   -8.0393    4.7589  -15.0970 C   0  0  0  0  0  0  0  0  0  0  0  0
   -6.8695    5.1765  -14.6177 C   0  0  0  0  0  0  0  0  0  0  0  0
   -6.9506    5.5999  -13.1487 C   0  0  0  0  0  0  0  0  0  0  0  0
   -6.6662    6.6889  -12.8285 O   0  0  0  0  0  0  0  0  0  0  0  0
   -7.4627    4.4036  -12.3020 N   0  0  0  0  0  0  0  0  0  0  0  0
   -7.8074    4.3313  -10.9561 C   0  0  0  0  0  0  0  0  0  0  0  0
   -7.7586    5.4669  -10.1341 C   0  0  0  0  0  0  0  0  0  0  0  0
   -8.0667    5.3791   -8.7734 C   0  0  0  0  0  0  0  0  0  0  0  0
   -8.4248    4.1467   -8.2610 C   0  0  0  0  0  0  0  0  0  0  0  0
   -8.4989    3.0266   -9.0790 C   0  0  0  0  0  0  0  0  0  0  0  0
   -8.2014    3.1010  -10.4304 C   0  0  0  0  0  0  0  0  0  0  0  0
   -8.8436    1.8367   -8.2496 C   0  0  0  0  0  0  0  0  0  0  0  0
   -9.2366    2.3704   -6.9220 N   0  0  0  0  0  0  0  0  0  0  0  0
   -8.7302    3.7542   -6.8555 C   0  0  0  0  0  0  0  0  0  0  0  0
   -5.6633    5.4202  -15.1299 C   0  0  0  0  0  0  0  0  0  0  0  0
   -5.0998    5.3357  -16.3302 C   0  0  0  0  0  0  0  0  0  0  0  0
   -5.5153    4.9892  -17.5667 N   0  0  0  0  0  0  0  0  0  0  0  0
   -6.6751    4.6129  -18.1504 C   0  0  0  0  0  0  0  0  0  0  0  0
   -6.6122    4.3186  -19.3450 O   0  0  0  0  0  0  0  0  0  0  0  0
  1  2  2  0
  2  3  1  0
  3  4  2  3
  4  5  1  0
  5  6  2  3
  6  7  1  0
  7  8  2  0
  7  9  1  0
  9 10  1  0
 10 11  2  0
 11 12  1  0
 12 13  2  0
 13 14  1  0
 14 15  2  0
 14 16  1  0
 16 17  1  0
 17 18  1  0
  6 19  1  0
 19 20  2  3
 20 21  1  0
 21 22  1  0
 22 23  2  0
 22  3  1  0
 15 10  1  0
 18 13  1  0
M  END
>  <smiles>  (209) 
C75987-P24

>  <fragmenstein_outcome>  (209) 
acceptable

>  <inchikey>  (209) 
QCHVENUOKOXQOF-UHFFFAOYSA-N

>  <fragmenstein_mode>  (209) 
expansion

>  <HIPPO Pose ID>  (209) 
3495

>  <Energy>  (209) 
110.333775

>  <fragmenstein_error>  (209) 


>  <tags>  (209) 
{'openbind_xx01zvns2b_c1_fragmenstein', 'fragmenstein_placed'}

>  <ref_pdb>  (209) 
1

>  <scratch_subdir>  (209) 
/opt/xchem-fragalysis-2/maxwin/BulkDock/SCRATCH/511027/C75987-P24

>  <alias>  (209) 
C=CC1=CC=C(C(=O)Nc2ccc3c(c2)CNC3)C=CNC1=O

>  <HIPPO Compound ID>  (209) 
105262

>  <fragmenstein_runtime>  (209) 
3.916449

$$$$
O=C(Nc1ccc2c(c1)CNC2)c1cc2ccc3cc(CC4CCNCC4)c(c1)n23
     RDKit          3D

 30 35  0  0  0  0  0  0  0  0999 V2000
   -6.9517    6.6180  -12.9831 O   0  0  0  0  0  0  0  0  0  0  0  0
   -7.3837    5.5657  -13.2498 C   0  0  0  0  0  0  0  0  0  0  0  0
   -7.9937    4.4707  -12.3398 N   0  0  0  0  0  0  0  0  0  0  0  0
   -8.1071    4.4072  -10.9560 C   0  0  0  0  0  0  0  0  0  0  0  0
   -7.8735    5.5343  -10.1514 C   0  0  0  0  0  0  0  0  0  0  0  0
   -8.0228    5.4632   -8.7625 C   0  0  0  0  0  0  0  0  0  0  0  0
   -8.3993    4.2542   -8.2091 C   0  0  0  0  0  0  0  0  0  0  0  0
   -8.6131    3.1342   -9.0072 C   0  0  0  0  0  0  0  0  0  0  0  0
   -8.4852    3.1942  -10.3820 C   0  0  0  0  0  0  0  0  0  0  0  0
   -8.9247    1.9669   -8.1334 C   0  0  0  0  0  0  0  0  0  0  0  0
   -9.3030    2.5641   -6.8273 N   0  0  0  0  0  0  0  0  0  0  0  0
   -8.6188    3.8765   -6.7823 C   0  0  0  0  0  0  0  0  0  0  0  0
   -7.4765    5.1060  -14.6734 C   0  0  0  0  0  0  0  0  0  0  0  0
   -8.7001    4.7312  -15.1427 C   0  0  0  0  0  0  0  0  0  0  0  0
   -8.8792    4.5014  -16.5356 C   0  0  0  0  0  0  0  0  0  0  0  0
   -9.8521    4.2373  -17.4881 C   0  0  0  0  0  0  0  0  0  0  0  0
   -9.2279    4.2882  -18.7901 C   0  0  0  0  0  0  0  0  0  0  0  0
   -7.9037    4.5283  -18.5757 C   0  0  0  0  0  0  0  0  0  0  0  0
   -6.6249    4.7664  -19.1215 C   0  0  0  0  0  0  0  0  0  0  0  0
   -5.7718    5.0775  -18.1100 C   0  0  0  0  0  0  0  0  0  0  0  0
   -4.3424    5.4159  -18.2342 C   0  0  0  0  0  0  0  0  0  0  0  0
   -4.0752    6.8157  -18.8301 C   0  0  0  0  0  0  0  0  0  0  0  0
   -2.5690    6.9673  -19.1254 C   0  0  0  0  0  0  0  0  0  0  0  0
   -2.1221    8.4223  -19.0359 C   0  0  0  0  0  0  0  0  0  0  0  0
   -2.3052    8.9711  -17.6924 N   0  0  0  0  0  0  0  0  0  0  0  0
   -3.4950    8.4742  -16.9983 C   0  0  0  0  0  0  0  0  0  0  0  0
   -4.5818    7.9710  -17.9436 C   0  0  0  0  0  0  0  0  0  0  0  0
   -6.4954    5.0212  -16.8584 C   0  0  0  0  0  0  0  0  0  0  0  0
   -6.2972    5.2590  -15.5560 C   0  0  0  0  0  0  0  0  0  0  0  0
   -7.7489    4.6567  -17.2507 N   0  0  0  0  0  0  0  0  0  0  0  0
  1  2  2  0
  2  3  1  0
  3  4  1  0
  4  5  2  0
  5  6  1  0
  6  7  2  0
  7  8  1  0
  8  9  2  0
  8 10  1  0
 10 11  1  0
 11 12  1  0
  2 13  1  0
 13 14  2  0
 14 15  1  0
 15 16  2  0
 16 17  1  0
 17 18  2  0
 18 19  1  0
 19 20  2  0
 20 21  1  0
 21 22  1  0
 22 23  1  0
 23 24  1  0
 24 25  1  0
 25 26  1  0
 26 27  1  0
 20 28  1  0
 28 29  2  0
 28 30  1  0
  9  4  1  0
 29 13  1  0
 12  7  1  0
 30 15  1  0
 30 18  1  0
 27 22  1  0
M  END
>  <smiles>  (210) 
C76094-P24

>  <fragmenstein_outcome>  (210) 
acceptable

>  <inchikey>  (210) 
YMHLBCBVPIDHMZ-UHFFFAOYSA-N

>  <fragmenstein_mode>  (210) 
expansion

>  <HIPPO Pose ID>  (210) 
3534

>  <Energy>  (210) 
105.828604

>  <fragmenstein_error>  (210) 


>  <tags>  (210) 
{'openbind_xx01zvns2b_c1_fragmenstein', 'fragmenstein_placed'}

>  <ref_pdb>  (210) 
1

>  <scratch_subdir>  (210) 
/opt/xchem-fragalysis-2/maxwin/BulkDock/SCRATCH/511027/C76094-P24

>  <alias>  (210) 
O=C(Nc1ccc2c(c1)CNC2)c1cc2ccc3cc(CC4CCNCC4)c(c1)n23

>  <HIPPO Compound ID>  (210) 
76094

>  <fragmenstein_runtime>  (210) 
9.398159

$$$$
Cc1ccc2c(Br)cn(C(=O)Nc3ccc4c(c3)CNC4)cc1-2
     RDKit          3D

 23 26  0  0  0  0  0  0  0  0999 V2000
   -3.5448    5.5788  -17.1357 C   0  0  0  0  0  0  0  0  0  0  0  0
   -4.9502    5.3676  -17.5333 C   0  0  0  0  0  0  0  0  0  0  0  0
   -5.4712    5.3599  -18.7745 C   0  0  0  0  0  0  0  0  0  0  0  0
   -6.8846    5.0460  -18.7088 C   0  0  0  0  0  0  0  0  0  0  0  0
   -7.2530    4.9016  -17.4300 C   0  0  0  0  0  0  0  0  0  0  0  0
   -8.4975    4.5516  -16.8198 C   0  0  0  0  0  0  0  0  0  0  0  0
  -10.0046    4.3108  -17.8756 Br  0  0  0  0  0  0  0  0  0  0  0  0
   -8.4630    4.3571  -15.4894 C   0  0  0  0  0  0  0  0  0  0  0  0
   -7.3157    4.4771  -14.6878 N   0  0  0  0  0  0  0  0  0  0  0  0
   -7.2822    3.7500  -13.4540 C   0  0  0  0  0  0  0  0  0  0  0  0
   -7.0282    2.6103  -13.3580 O   0  0  0  0  0  0  0  0  0  0  0  0
   -7.6856    4.7938  -12.3609 N   0  0  0  0  0  0  0  0  0  0  0  0
   -7.9390    4.6266  -11.0012 C   0  0  0  0  0  0  0  0  0  0  0  0
   -8.0083    5.7663  -10.1811 C   0  0  0  0  0  0  0  0  0  0  0  0
   -8.2258    5.6431   -8.8033 C   0  0  0  0  0  0  0  0  0  0  0  0
   -8.4282    4.3774   -8.2803 C   0  0  0  0  0  0  0  0  0  0  0  0
   -8.4067    3.2553   -9.0989 C   0  0  0  0  0  0  0  0  0  0  0  0
   -8.1336    3.3564  -10.4549 C   0  0  0  0  0  0  0  0  0  0  0  0
   -8.6958    2.0362   -8.2878 C   0  0  0  0  0  0  0  0  0  0  0  0
   -9.0762    2.5325   -6.9359 N   0  0  0  0  0  0  0  0  0  0  0  0
   -8.6758    3.9520   -6.8723 C   0  0  0  0  0  0  0  0  0  0  0  0
   -6.1140    4.8019  -15.3280 C   0  0  0  0  0  0  0  0  0  0  0  0
   -6.0468    5.0598  -16.6418 C   0  0  0  0  0  0  0  0  0  0  0  0
  1  2  1  0
  2  3  2  0
  3  4  1  0
  4  5  2  0
  5  6  1  0
  6  7  1  0
  6  8  2  0
  8  9  1  0
  9 10  1  0
 10 11  2  0
 10 12  1  0
 12 13  1  0
 13 14  2  0
 14 15  1  0
 15 16  2  0
 16 17  1  0
 17 18  2  0
 17 19  1  0
 19 20  1  0
 20 21  1  0
  9 22  1  0
 22 23  2  0
 23  2  1  0
 23  5  1  0
 18 13  1  0
 21 16  1  0
M  END
>  <smiles>  (211) 
C76383-P25

>  <fragmenstein_outcome>  (211) 
acceptable

>  <inchikey>  (211) 
NVHZWEKCIISKAI-UHFFFAOYSA-N

>  <fragmenstein_mode>  (211) 
expansion

>  <HIPPO Pose ID>  (211) 
3669

>  <Energy>  (211) 
83.157168

>  <fragmenstein_error>  (211) 


>  <tags>  (211) 
{'openbind_xx01zvns2b_c1_fragmenstein', 'fragmenstein_placed'}

>  <ref_pdb>  (211) 
1

>  <scratch_subdir>  (211) 
/opt/xchem-fragalysis-2/maxwin/BulkDock/SCRATCH/511027/C76383-P25

>  <alias>  (211) 
Cc1ccc2c(Br)cn(C(=O)Nc3ccc4c(c3)CNC4)cc1-2

>  <HIPPO Compound ID>  (211) 
80760

>  <fragmenstein_runtime>  (211) 
3.420341

$$$$
C=C[C@@H]1C[C@@H](C(=O)Nc2cnc3c(c2)CNC3)N2CNNN12
     RDKit          3D

 22 25  0  0  0  0  0  0  0  0999 V2000
   -4.4339    5.9617  -18.9255 C   0  0  0  0  0  0  0  0  0  0  0  0
   -5.3865    5.2097  -18.3558 C   0  0  0  0  0  0  0  0  0  0  0  0
   -6.2835    5.6559  -17.2428 C   0  0  2  0  0  0  0  0  0  0  0  0
   -5.9699    5.0612  -15.8821 C   0  0  0  0  0  0  0  0  0  0  0  0
   -7.3202    4.6766  -15.2810 C   0  0  1  0  0  0  0  0  0  0  0  0
   -7.4984    5.3249  -13.8801 C   0  0  0  0  0  0  0  0  0  0  0  0
   -7.2478    6.4496  -13.6635 O   0  0  0  0  0  0  0  0  0  0  0  0
   -7.9935    4.1939  -12.9188 N   0  0  0  0  0  0  0  0  0  0  0  0
   -8.1795    4.1980  -11.5376 C   0  0  0  0  0  0  0  0  0  0  0  0
   -8.0243    5.3487  -10.7553 C   0  0  0  0  0  0  0  0  0  0  0  0
   -8.1572    5.3846   -9.4012 N   0  0  0  0  0  0  0  0  0  0  0  0
   -8.4708    4.2029   -8.8370 C   0  0  0  0  0  0  0  0  0  0  0  0
   -8.6543    3.0212   -9.5247 C   0  0  0  0  0  0  0  0  0  0  0  0
   -8.5050    3.0019  -10.8986 C   0  0  0  0  0  0  0  0  0  0  0  0
   -8.9926    1.9238   -8.5805 C   0  0  0  0  0  0  0  0  0  0  0  0
   -9.0548    2.5270   -7.2218 N   0  0  0  0  0  0  0  0  0  0  0  0
   -8.6735    3.9543   -7.3703 C   0  0  0  0  0  0  0  0  0  0  0  0
   -8.3242    5.2304  -16.1841 N   0  0  0  0  0  0  0  0  0  0  0  0
   -9.4584    4.3807  -16.5002 C   0  0  0  0  0  0  0  0  0  0  0  0
   -9.1237    3.5988  -17.6868 N   0  0  0  0  0  0  0  0  0  0  0  0
   -8.0217    4.2990  -18.2889 N   0  0  0  0  0  0  0  0  0  0  0  0
   -7.7031    5.4049  -17.4537 N   0  0  0  0  0  0  0  0  0  0  0  0
  1  2  2  0
  3  2  1  6
  3  4  1  0
  4  5  1  0
  5  6  1  1
  6  7  2  0
  6  8  1  0
  8  9  1  0
  9 10  2  0
 10 11  1  0
 11 12  2  0
 12 13  1  0
 13 14  2  0
 13 15  1  0
 15 16  1  0
 16 17  1  0
  5 18  1  0
 18 19  1  0
 19 20  1  0
 20 21  1  0
 21 22  1  0
 22  3  1  0
 14  9  1  0
 22 18  1  0
 17 12  1  0
M  END
>  <smiles>  (212) 
C76587-P152

>  <fragmenstein_outcome>  (212) 
acceptable

>  <inchikey>  (212) 
SJGRRWKPUVZXDO-UHFFFAOYSA-N

>  <fragmenstein_mode>  (212) 
expansion

>  <HIPPO Pose ID>  (212) 
3756

>  <Energy>  (212) 
118.52906

>  <fragmenstein_error>  (212) 


>  <tags>  (212) 
{'openbind_xx01zvns2b_c1_fragmenstein', 'fragmenstein_placed'}

>  <ref_pdb>  (212) 
1

>  <scratch_subdir>  (212) 
/opt/xchem-fragalysis-2/maxwin/BulkDock/SCRATCH/511027/C76587-P152

>  <alias>  (212) 
C=C[C@@H]1C[C@@H](C(=O)Nc2cnc3c(c2)CNC3)N2CNNN12

>  <HIPPO Compound ID>  (212) 
74614

>  <fragmenstein_runtime>  (212) 
5.135513

$$$$
C=C[C@@H]1C[C@@H](C(=O)Nc2ccc3c(c2)CNC3)N(C)[C@@]12CCNN2
     RDKit          3D

 24 27  0  0  0  0  0  0  0  0999 V2000
   -8.4136    4.4152  -18.8694 C   0  0  0  0  0  0  0  0  0  0  0  0
   -8.7450    4.3450  -17.5781 C   0  0  0  0  0  0  0  0  0  0  0  0
   -7.8395    4.5409  -16.3800 C   0  0  2  0  0  0  0  0  0  0  0  0
   -8.6145    5.2298  -15.2690 C   0  0  0  0  0  0  0  0  0  0  0  0
   -7.5449    5.6269  -14.2631 C   0  0  1  0  0  0  0  0  0  0  0  0
   -7.5606    4.5966  -13.1017 C   0  0  0  0  0  0  0  0  0  0  0  0
   -7.4705    3.4398  -13.2577 O   0  0  0  0  0  0  0  0  0  0  0  0
   -7.7600    5.4284  -11.7953 N   0  0  0  0  0  0  0  0  0  0  0  0
   -7.9744    5.0152  -10.4893 C   0  0  0  0  0  0  0  0  0  0  0  0
   -8.0483    6.0109   -9.4991 C   0  0  0  0  0  0  0  0  0  0  0  0
   -8.2894    5.6735   -8.1673 C   0  0  0  0  0  0  0  0  0  0  0  0
   -8.4604    4.3376   -7.8580 C   0  0  0  0  0  0  0  0  0  0  0  0
   -8.3864    3.3520   -8.8402 C   0  0  0  0  0  0  0  0  0  0  0  0
   -8.1447    3.6698  -10.1652 C   0  0  0  0  0  0  0  0  0  0  0  0
   -8.6134    2.0133   -8.2195 C   0  0  0  0  0  0  0  0  0  0  0  0
   -8.5945    2.2638   -6.7674 N   0  0  0  0  0  0  0  0  0  0  0  0
   -8.7656    3.7002   -6.5446 C   0  0  0  0  0  0  0  0  0  0  0  0
   -6.2558    5.7183  -14.9895 N   0  0  0  0  0  0  0  0  0  0  0  0
   -5.1232    5.1053  -14.3159 C   0  0  0  0  0  0  0  0  0  0  0  0
   -6.5005    5.3380  -16.4047 C   0  0  1  0  0  0  0  0  0  0  0  0
   -5.3573    4.6583  -17.1573 C   0  0  0  0  0  0  0  0  0  0  0  0
   -4.4584    5.7732  -17.6549 C   0  0  0  0  0  0  0  0  0  0  0  0
   -5.1488    7.0244  -17.3232 N   0  0  0  0  0  0  0  0  0  0  0  0
   -6.5559    6.6319  -17.1220 N   0  0  0  0  0  0  0  0  0  0  0  0
  1  2  2  0
  3  2  1  6
  3  4  1  0
  4  5  1  0
  5  6  1  1
  6  7  2  0
  6  8  1  0
  8  9  1  0
  9 10  2  0
 10 11  1  0
 11 12  2  0
 12 13  1  0
 13 14  2  0
 13 15  1  0
 15 16  1  0
 16 17  1  0
  5 18  1  0
 18 19  1  0
 18 20  1  0
 20 21  1  6
 21 22  1  0
 22 23  1  0
 23 24  1  0
 20  3  1  0
 14  9  1  0
 24 20  1  0
 17 12  1  0
M  END
>  <smiles>  (213) 
C76682-P26

>  <fragmenstein_outcome>  (213) 
acceptable

>  <inchikey>  (213) 
MOFNMQUFQKOFFI-UHFFFAOYSA-N

>  <fragmenstein_mode>  (213) 
expansion

>  <HIPPO Pose ID>  (213) 
3795

>  <Energy>  (213) 
111.231909

>  <fragmenstein_error>  (213) 


>  <tags>  (213) 
{'openbind_xx01zvns2b_c1_fragmenstein', 'fragmenstein_placed'}

>  <ref_pdb>  (213) 
1

>  <scratch_subdir>  (213) 
/opt/xchem-fragalysis-2/maxwin/BulkDock/SCRATCH/511027/C76682-P26

>  <alias>  (213) 
C=C[C@@H]1C[C@@H](C(=O)Nc2ccc3c(c2)CNC3)N(C)[C@@]12CCNN2

>  <HIPPO Compound ID>  (213) 
76682

>  <fragmenstein_runtime>  (213) 
3.19017

$$$$
C=Cc1cc(C)cc(C(=O)NC(C)(C)CO)c1
     RDKit          3D

 17 17  0  0  0  0  0  0  0  0999 V2000
  -10.9055    4.6028  -18.1369 C   0  0  0  0  0  0  0  0  0  0  0  0
   -9.8305    3.8226  -18.0614 C   0  0  0  0  0  0  0  0  0  0  0  0
   -8.5671    4.3107  -17.5437 C   0  0  0  0  0  0  0  0  0  0  0  0
   -7.5247    4.5002  -18.4514 C   0  0  0  0  0  0  0  0  0  0  0  0
   -6.2793    4.9543  -18.0206 C   0  0  0  0  0  0  0  0  0  0  0  0
   -5.1845    5.1552  -19.0191 C   0  0  0  0  0  0  0  0  0  0  0  0
   -6.1007    5.2597  -16.6689 C   0  0  0  0  0  0  0  0  0  0  0  0
   -7.1426    5.0623  -15.7532 C   0  0  0  0  0  0  0  0  0  0  0  0
   -6.8998    5.4293  -14.3311 C   0  0  0  0  0  0  0  0  0  0  0  0
   -6.3574    6.4361  -14.1088 O   0  0  0  0  0  0  0  0  0  0  0  0
   -7.3769    4.3213  -13.3758 N   0  0  0  0  0  0  0  0  0  0  0  0
   -7.3725    4.2596  -11.9127 C   0  0  0  0  0  0  0  0  0  0  0  0
   -8.1453    3.0130  -11.4645 C   0  0  0  0  0  0  0  0  0  0  0  0
   -5.9220    4.1368  -11.4203 C   0  0  0  0  0  0  0  0  0  0  0  0
   -8.0059    5.5485  -11.3296 C   0  0  0  0  0  0  0  0  0  0  0  0
   -8.2477    5.4745   -9.9265 O   0  0  0  0  0  0  0  0  0  0  0  0
   -8.3817    4.5850  -16.1865 C   0  0  0  0  0  0  0  0  0  0  0  0
  1  2  2  0
  2  3  1  0
  3  4  2  0
  4  5  1  0
  5  6  1  0
  5  7  2  0
  7  8  1  0
  8  9  1  0
  9 10  2  0
  9 11  1  0
 11 12  1  0
 12 13  1  0
 12 14  1  0
 12 15  1  0
 15 16  1  0
  8 17  2  0
 17  3  1  0
M  END
>  <smiles>  (214) 
C76704-P26

>  <fragmenstein_outcome>  (214) 
acceptable

>  <inchikey>  (214) 
DBDYTLGDKDKHBK-UHFFFAOYSA-N

>  <fragmenstein_mode>  (214) 
expansion

>  <HIPPO Pose ID>  (214) 
3810

>  <Energy>  (214) 
62.005141

>  <fragmenstein_error>  (214) 


>  <tags>  (214) 
{'openbind_xx01zvns2b_c1_fragmenstein', 'fragmenstein_placed'}

>  <ref_pdb>  (214) 
1

>  <scratch_subdir>  (214) 
/opt/xchem-fragalysis-2/maxwin/BulkDock/SCRATCH/511027/C76704-P26

>  <alias>  (214) 
C=Cc1cc(C)cc(C(=O)NC(C)(C)CO)c1

>  <HIPPO Compound ID>  (214) 
87438

>  <fragmenstein_runtime>  (214) 
6.108805

$$$$
C=Cc1cc(C)cc(N)c1
     RDKit          3D

 10 10  0  0  0  0  0  0  0  0999 V2000
   -7.1739    6.1501  -13.4017 C   0  0  0  0  0  0  0  0  0  0  0  0
   -7.5135    5.0512  -14.0862 C   0  0  0  0  0  0  0  0  0  0  0  0
   -7.5047    4.9963  -15.5492 C   0  0  0  0  0  0  0  0  0  0  0  0
   -8.6734    4.6110  -16.2069 C   0  0  0  0  0  0  0  0  0  0  0  0
   -8.7169    4.5480  -17.6000 C   0  0  0  0  0  0  0  0  0  0  0  0
   -9.9747    4.1505  -18.3013 C   0  0  0  0  0  0  0  0  0  0  0  0
   -7.5549    4.8135  -18.3301 C   0  0  0  0  0  0  0  0  0  0  0  0
   -6.3858    5.2359  -17.6972 C   0  0  0  0  0  0  0  0  0  0  0  0
   -5.2110    5.4012  -18.4443 N   0  0  0  0  0  0  0  0  0  0  0  0
   -6.3580    5.2864  -16.3007 C   0  0  0  0  0  0  0  0  0  0  0  0
  1  2  2  0
  2  3  1  0
  3  4  2  0
  4  5  1  0
  5  6  1  0
  5  7  2  0
  7  8  1  0
  8  9  1  0
  8 10  2  0
 10  3  1  0
M  END
>  <smiles>  (215) 
C76707-P26

>  <fragmenstein_outcome>  (215) 
acceptable

>  <inchikey>  (215) 
SCRFTVQRFZNIPC-UHFFFAOYSA-N

>  <fragmenstein_mode>  (215) 
expansion

>  <HIPPO Pose ID>  (215) 
3811

>  <Energy>  (215) 
16.06806

>  <fragmenstein_error>  (215) 


>  <tags>  (215) 
{'openbind_xx01zvns2b_c1_fragmenstein', 'fragmenstein_placed'}

>  <ref_pdb>  (215) 
1

>  <scratch_subdir>  (215) 
/opt/xchem-fragalysis-2/maxwin/BulkDock/SCRATCH/511027/C76707-P26

>  <alias>  (215) 
C=Cc1cc(C)cc(N)c1

>  <HIPPO Compound ID>  (215) 
76707

>  <fragmenstein_runtime>  (215) 
1.574691

$$$$
C=Cc1cccc(C)c1
     RDKit          3D

  9  9  0  0  0  0  0  0  0  0999 V2000
   -6.7772    4.0791  -13.2338 C   0  0  0  0  0  0  0  0  0  0  0  0
   -7.6044    4.7870  -14.0114 C   0  0  0  0  0  0  0  0  0  0  0  0
   -7.5291    4.7856  -15.4737 C   0  0  0  0  0  0  0  0  0  0  0  0
   -6.3383    5.0399  -16.1599 C   0  0  0  0  0  0  0  0  0  0  0  0
   -6.3198    5.0533  -17.5555 C   0  0  0  0  0  0  0  0  0  0  0  0
   -7.4926    4.8264  -18.2736 C   0  0  0  0  0  0  0  0  0  0  0  0
   -8.6949    4.5889  -17.6046 C   0  0  0  0  0  0  0  0  0  0  0  0
   -9.9715    4.3762  -18.3578 C   0  0  0  0  0  0  0  0  0  0  0  0
   -8.6985    4.5595  -16.2055 C   0  0  0  0  0  0  0  0  0  0  0  0
  1  2  2  0
  2  3  1  0
  3  4  2  0
  4  5  1  0
  5  6  2  0
  6  7  1  0
  7  8  1  0
  7  9  2  0
  9  3  1  0
M  END
>  <smiles>  (216) 
C76716-P26

>  <fragmenstein_outcome>  (216) 
acceptable

>  <inchikey>  (216) 
BIQOUWOCLBUUQB-UHFFFAOYSA-N

>  <fragmenstein_mode>  (216) 
expansion

>  <HIPPO Pose ID>  (216) 
3816

>  <Energy>  (216) 
24.769985

>  <fragmenstein_error>  (216) 


>  <tags>  (216) 
{'openbind_xx01zvns2b_c1_fragmenstein', 'fragmenstein_placed'}

>  <ref_pdb>  (216) 
1

>  <scratch_subdir>  (216) 
/opt/xchem-fragalysis-2/maxwin/BulkDock/SCRATCH/511027/C76716-P26

>  <alias>  (216) 
C=Cc1cccc(C)c1

>  <HIPPO Compound ID>  (216) 
104323

>  <fragmenstein_runtime>  (216) 
0.94101

$$$$
C=CNc1cc2c(cc1C#N)CNC2
     RDKit          3D

 14 15  0  0  0  0  0  0  0  0999 V2000
   -7.6787    3.8015  -14.5937 C   0  0  0  0  0  0  0  0  0  0  0  0
   -7.8266    5.1194  -14.6811 C   0  0  0  0  0  0  0  0  0  0  0  0
   -7.3819    5.9997  -15.6339 N   0  0  0  0  0  0  0  0  0  0  0  0
   -6.5984    5.6886  -16.7740 C   0  0  0  0  0  0  0  0  0  0  0  0
   -5.2634    6.1362  -16.7667 C   0  0  0  0  0  0  0  0  0  0  0  0
   -4.4959    5.9973  -17.9060 C   0  0  0  0  0  0  0  0  0  0  0  0
   -5.0130    5.4125  -19.0499 C   0  0  0  0  0  0  0  0  0  0  0  0
   -6.2891    4.8728  -19.0601 C   0  0  0  0  0  0  0  0  0  0  0  0
   -7.0916    4.9918  -17.9090 C   0  0  0  0  0  0  0  0  0  0  0  0
   -8.4200    4.4410  -17.9562 C   0  0  0  0  0  0  0  0  0  0  0  0
   -9.4754    3.9566  -17.9953 N   0  0  0  0  0  0  0  0  0  0  0  0
   -4.0042    5.5103  -20.1415 C   0  0  0  0  0  0  0  0  0  0  0  0
   -2.9081    6.3703  -19.6161 N   0  0  0  0  0  0  0  0  0  0  0  0
   -3.0885    6.4205  -18.1479 C   0  0  0  0  0  0  0  0  0  0  0  0
  1  2  2  0
  2  3  1  0
  3  4  1  0
  4  5  2  0
  5  6  1  0
  6  7  2  0
  7  8  1  0
  8  9  2  0
  9 10  1  0
 10 11  3  0
  7 12  1  0
 12 13  1  0
 13 14  1  0
  9  4  1  0
 14  6  1  0
M  END
>  <smiles>  (217) 
C77619-P31

>  <fragmenstein_outcome>  (217) 
acceptable

>  <inchikey>  (217) 
TVABMFNRBJIZKK-UHFFFAOYSA-N

>  <fragmenstein_mode>  (217) 
expansion

>  <HIPPO Pose ID>  (217) 
4273

>  <Energy>  (217) 
50.339721

>  <fragmenstein_error>  (217) 


>  <tags>  (217) 
{'openbind_xx01zvns2b_c1_fragmenstein', 'fragmenstein_placed'}

>  <ref_pdb>  (217) 
1

>  <scratch_subdir>  (217) 
/opt/xchem-fragalysis-2/maxwin/BulkDock/SCRATCH/511027/C77619-P31

>  <alias>  (217) 
C=CNc1cc2c(cc1C#N)CNC2

>  <HIPPO Compound ID>  (217) 
71945

>  <fragmenstein_runtime>  (217) 
0.607352

$$$$
C=CNc1cccc(CNC)c1
     RDKit          3D

 12 12  0  0  0  0  0  0  0  0999 V2000
   -7.9993    4.6482  -15.4903 C   0  0  0  0  0  0  0  0  0  0  0  0
   -7.8833    4.9575  -14.1987 C   0  0  0  0  0  0  0  0  0  0  0  0
   -8.4601    4.2848  -13.1586 N   0  0  0  0  0  0  0  0  0  0  0  0
   -8.3056    4.5457  -11.7858 C   0  0  0  0  0  0  0  0  0  0  0  0
   -7.8377    5.7699  -11.2987 C   0  0  0  0  0  0  0  0  0  0  0  0
   -7.6869    5.9870   -9.9332 C   0  0  0  0  0  0  0  0  0  0  0  0
   -8.0097    4.9812   -9.0282 C   0  0  0  0  0  0  0  0  0  0  0  0
   -8.4926    3.7446   -9.4637 C   0  0  0  0  0  0  0  0  0  0  0  0
   -8.9971    2.6558   -8.5393 C   0  0  0  0  0  0  0  0  0  0  0  0
   -8.4852    2.6108   -7.1817 N   0  0  0  0  0  0  0  0  0  0  0  0
   -8.9165    3.6286   -6.2635 C   0  0  0  0  0  0  0  0  0  0  0  0
   -8.6201    3.5440  -10.8537 C   0  0  0  0  0  0  0  0  0  0  0  0
  1  2  2  0
  2  3  1  0
  3  4  1  0
  4  5  2  0
  5  6  1  0
  6  7  2  0
  7  8  1  0
  8  9  1  0
  9 10  1  0
 10 11  1  0
  8 12  2  0
 12  4  1  0
M  END
>  <smiles>  (218) 
C77734-P31

>  <fragmenstein_outcome>  (218) 
acceptable

>  <inchikey>  (218) 
KDIMUFXXHHKPOR-UHFFFAOYSA-N

>  <fragmenstein_mode>  (218) 
expansion

>  <HIPPO Pose ID>  (218) 
4313

>  <Energy>  (218) 
21.951861

>  <fragmenstein_error>  (218) 


>  <tags>  (218) 
{'openbind_xx01zvns2b_c1_fragmenstein', 'fragmenstein_placed'}

>  <ref_pdb>  (218) 
1

>  <scratch_subdir>  (218) 
/opt/xchem-fragalysis-2/maxwin/BulkDock/SCRATCH/511027/C77734-P31

>  <alias>  (218) 
C=CNc1cccc(CNC)c1

>  <HIPPO Compound ID>  (218) 
90396

>  <fragmenstein_runtime>  (218) 
1.288586

$$$$
N#Cc1ccc2c(C#N)[nH]nc2c1
     RDKit          3D

 13 14  0  0  0  0  0  0  0  0999 V2000
   -7.6117    4.4834  -12.2458 N   0  0  0  0  0  0  0  0  0  0  0  0
   -7.5412    4.6589  -13.3907 C   0  0  0  0  0  0  0  0  0  0  0  0
   -7.3854    4.9078  -14.7975 C   0  0  0  0  0  0  0  0  0  0  0  0
   -8.3202    4.3208  -15.7099 C   0  0  0  0  0  0  0  0  0  0  0  0
   -8.1838    4.3418  -17.1118 C   0  0  0  0  0  0  0  0  0  0  0  0
   -7.0279    5.0164  -17.4835 C   0  0  0  0  0  0  0  0  0  0  0  0
   -6.4564    5.0203  -18.7248 C   0  0  0  0  0  0  0  0  0  0  0  0
   -6.7717    4.2919  -19.8913 C   0  0  0  0  0  0  0  0  0  0  0  0
   -6.9753    3.6420  -20.8292 N   0  0  0  0  0  0  0  0  0  0  0  0
   -5.3634    5.8230  -18.6069 N   0  0  0  0  0  0  0  0  0  0  0  0
   -5.1311    6.2672  -17.3502 N   0  0  0  0  0  0  0  0  0  0  0  0
   -6.1020    5.6978  -16.6131 C   0  0  0  0  0  0  0  0  0  0  0  0
   -6.2724    5.6723  -15.2202 C   0  0  0  0  0  0  0  0  0  0  0  0
  1  2  3  0
  2  3  1  0
  3  4  1  0
  4  5  2  0
  5  6  1  0
  6  7  2  0
  7  8  1  0
  8  9  3  0
  7 10  1  0
 10 11  1  0
 11 12  2  0
 12 13  1  0
 13  3  2  0
 12  6  1  0
M  END
>  <smiles>  (219) 
C77751-P31

>  <fragmenstein_outcome>  (219) 
acceptable

>  <inchikey>  (219) 
VLNNYDPTJLHEGQ-UHFFFAOYSA-O

>  <fragmenstein_mode>  (219) 
expansion

>  <HIPPO Pose ID>  (219) 
4322

>  <Energy>  (219) 
25.31589

>  <fragmenstein_error>  (219) 


>  <tags>  (219) 
{'openbind_xx01zvns2b_c1_fragmenstein', 'fragmenstein_placed'}

>  <ref_pdb>  (219) 
1

>  <scratch_subdir>  (219) 
/opt/xchem-fragalysis-2/maxwin/BulkDock/SCRATCH/511027/C77751-P31

>  <alias>  (219) 
N#Cc1ccc2c(C#N)[nH]nc2c1

>  <HIPPO Compound ID>  (219) 
92334

>  <fragmenstein_runtime>  (219) 
0.891403

$$$$
N#Cc1n[nH]c2cccc(C(F)(F)F)c12
     RDKit          3D

 15 16  0  0  0  0  0  0  0  0999 V2000
   -3.8825    6.1284  -14.5279 N   0  0  0  0  0  0  0  0  0  0  0  0
   -4.5535    5.8402  -15.4322 C   0  0  0  0  0  0  0  0  0  0  0  0
   -5.3964    5.4977  -16.5417 C   0  0  0  0  0  0  0  0  0  0  0  0
   -4.9019    5.6353  -17.7820 N   0  0  0  0  0  0  0  0  0  0  0  0
   -5.9136    5.2237  -18.5704 N   0  0  0  0  0  0  0  0  0  0  0  0
   -7.0442    4.8803  -17.8788 C   0  0  0  0  0  0  0  0  0  0  0  0
   -8.2873    4.4557  -18.3447 C   0  0  0  0  0  0  0  0  0  0  0  0
   -9.2607    4.1894  -17.3932 C   0  0  0  0  0  0  0  0  0  0  0  0
   -8.9729    4.3087  -16.0363 C   0  0  0  0  0  0  0  0  0  0  0  0
   -7.7140    4.7189  -15.5548 C   0  0  0  0  0  0  0  0  0  0  0  0
   -7.4901    4.8345  -14.0684 C   0  0  0  0  0  0  0  0  0  0  0  0
   -6.4138    4.1243  -13.6389 F   0  0  0  0  0  0  0  0  0  0  0  0
   -8.5465    4.4371  -13.3081 F   0  0  0  0  0  0  0  0  0  0  0  0
   -7.2598    6.1291  -13.7033 F   0  0  0  0  0  0  0  0  0  0  0  0
   -6.7345    5.0283  -16.5281 C   0  0  0  0  0  0  0  0  0  0  0  0
  1  2  3  0
  2  3  1  0
  3  4  2  0
  4  5  1  0
  5  6  1  0
  6  7  2  0
  7  8  1  0
  8  9  2  0
  9 10  1  0
 10 11  1  0
 11 12  1  0
 11 13  1  0
 11 14  1  0
 10 15  2  0
 15  3  1  0
 15  6  1  0
M  END
>  <smiles>  (220) 
C77773-P31

>  <fragmenstein_outcome>  (220) 
acceptable

>  <inchikey>  (220) 
IBVRDAFXWPXLAX-UHFFFAOYSA-N

>  <fragmenstein_mode>  (220) 
expansion

>  <HIPPO Pose ID>  (220) 
4330

>  <Energy>  (220) 
72.761943

>  <fragmenstein_error>  (220) 


>  <tags>  (220) 
{'openbind_xx01zvns2b_c1_fragmenstein', 'fragmenstein_placed'}

>  <ref_pdb>  (220) 
1

>  <scratch_subdir>  (220) 
/opt/xchem-fragalysis-2/maxwin/BulkDock/SCRATCH/511027/C77773-P31

>  <alias>  (220) 
N#Cc1n[nH]c2cccc(C(F)(F)F)c12

>  <HIPPO Compound ID>  (220) 
100582

>  <fragmenstein_runtime>  (220) 
0.696609

$$$$
Cc1cc(CN)cc(NC(=O)c2cccc3[nH]nc(C#N)c23)c1
     RDKit          3D

 23 25  0  0  0  0  0  0  0  0999 V2000
    0.1200    6.3661  -19.0179 C   0  0  0  0  0  0  0  0  0  0  0  0
   -1.1584    6.5186  -19.7885 C   0  0  0  0  0  0  0  0  0  0  0  0
   -1.1529    7.0849  -21.0700 C   0  0  0  0  0  0  0  0  0  0  0  0
   -2.3480    7.2704  -21.7788 C   0  0  0  0  0  0  0  0  0  0  0  0
   -2.3355    7.8444  -23.1701 C   0  0  0  0  0  0  0  0  0  0  0  0
   -2.4523    6.7884  -24.1678 N   0  0  0  0  0  0  0  0  0  0  0  0
   -3.5556    6.8743  -21.1868 C   0  0  0  0  0  0  0  0  0  0  0  0
   -3.5707    6.3008  -19.9145 C   0  0  0  0  0  0  0  0  0  0  0  0
   -4.7869    5.8614  -19.4040 N   0  0  0  0  0  0  0  0  0  0  0  0
   -5.1232    5.1747  -18.0568 C   0  0  0  0  0  0  0  0  0  0  0  0
   -4.4209    4.8025  -17.2010 O   0  0  0  0  0  0  0  0  0  0  0  0
   -6.5824    4.8983  -17.9225 C   0  0  0  0  0  0  0  0  0  0  0  0
   -7.3485    4.5044  -19.0316 C   0  0  0  0  0  0  0  0  0  0  0  0
   -8.7039    4.1965  -18.9110 C   0  0  0  0  0  0  0  0  0  0  0  0
   -9.3245    4.1591  -17.6709 C   0  0  0  0  0  0  0  0  0  0  0  0
   -8.5312    4.4700  -16.5680 C   0  0  0  0  0  0  0  0  0  0  0  0
   -8.7907    4.3725  -15.2291 N   0  0  0  0  0  0  0  0  0  0  0  0
   -7.8821    4.9890  -14.4591 N   0  0  0  0  0  0  0  0  0  0  0  0
   -6.8777    5.2410  -15.3141 C   0  0  0  0  0  0  0  0  0  0  0  0
   -5.7015    5.8855  -14.8024 C   0  0  0  0  0  0  0  0  0  0  0  0
   -4.7905    6.4691  -14.3746 N   0  0  0  0  0  0  0  0  0  0  0  0
   -7.2044    4.8970  -16.6542 C   0  0  0  0  0  0  0  0  0  0  0  0
   -2.3780    6.1395  -19.2119 C   0  0  0  0  0  0  0  0  0  0  0  0
  1  2  1  0
  2  3  2  0
  3  4  1  0
  4  5  1  0
  5  6  1  0
  4  7  2  0
  7  8  1  0
  8  9  1  0
  9 10  1  0
 10 11  2  0
 10 12  1  0
 12 13  2  0
 13 14  1  0
 14 15  2  0
 15 16  1  0
 16 17  1  0
 17 18  1  0
 18 19  2  0
 19 20  1  0
 20 21  3  0
 19 22  1  0
  8 23  2  0
 23  2  1  0
 22 12  1  0
 22 16  2  0
M  END
>  <smiles>  (221) 
C77891-P32

>  <fragmenstein_outcome>  (221) 
acceptable

>  <inchikey>  (221) 
ADKNAQGNXXOEOU-UHFFFAOYSA-N

>  <fragmenstein_mode>  (221) 
expansion

>  <HIPPO Pose ID>  (221) 
4384

>  <Energy>  (221) 
83.387231

>  <fragmenstein_error>  (221) 


>  <tags>  (221) 
{'openbind_xx01zvns2b_c1_fragmenstein', 'fragmenstein_placed'}

>  <ref_pdb>  (221) 
1

>  <scratch_subdir>  (221) 
/opt/xchem-fragalysis-2/maxwin/BulkDock/SCRATCH/511027/C77891-P32

>  <alias>  (221) 
Cc1cc(CN)cc(NC(=O)c2cccc3[nH]nc(C#N)c23)c1

>  <HIPPO Compound ID>  (221) 
93040

>  <fragmenstein_runtime>  (221) 
3.858424

$$$$
CNCn1nc2cccc(C(=O)Nc3ccc4c(c3)CNC4)c2c1C#N
     RDKit          3D

 26 29  0  0  0  0  0  0  0  0999 V2000
   -5.3627    6.7459  -20.5542 C   0  0  0  0  0  0  0  0  0  0  0  0
   -5.2382    7.3437  -19.2177 N   0  0  0  0  0  0  0  0  0  0  0  0
   -4.4501    6.4655  -18.3215 C   0  0  0  0  0  0  0  0  0  0  0  0
   -5.3351    5.5198  -17.6522 N   0  0  0  0  0  0  0  0  0  0  0  0
   -6.2020    4.8427  -18.4173 N   0  0  0  0  0  0  0  0  0  0  0  0
   -7.2566    4.6556  -17.6297 C   0  0  0  0  0  0  0  0  0  0  0  0
   -8.5421    4.2531  -17.9973 C   0  0  0  0  0  0  0  0  0  0  0  0
   -9.4131    4.1568  -16.9117 C   0  0  0  0  0  0  0  0  0  0  0  0
   -9.0102    4.4113  -15.5670 C   0  0  0  0  0  0  0  0  0  0  0  0
   -7.7277    4.8279  -15.1668 C   0  0  0  0  0  0  0  0  0  0  0  0
   -7.4860    5.2656  -13.7854 C   0  0  0  0  0  0  0  0  0  0  0  0
   -7.0365    6.3271  -13.6028 O   0  0  0  0  0  0  0  0  0  0  0  0
   -7.9667    4.1945  -12.7797 N   0  0  0  0  0  0  0  0  0  0  0  0
   -8.0787    4.2417  -11.3924 C   0  0  0  0  0  0  0  0  0  0  0  0
   -7.8626    5.4232  -10.6692 C   0  0  0  0  0  0  0  0  0  0  0  0
   -8.0046    5.4431   -9.2757 C   0  0  0  0  0  0  0  0  0  0  0  0
   -8.3528    4.2686   -8.6328 C   0  0  0  0  0  0  0  0  0  0  0  0
   -8.5516    3.0932   -9.3473 C   0  0  0  0  0  0  0  0  0  0  0  0
   -8.4311    3.0665  -10.7253 C   0  0  0  0  0  0  0  0  0  0  0  0
   -8.8292    1.9814   -8.3899 C   0  0  0  0  0  0  0  0  0  0  0  0
   -9.1920    2.6588   -7.1169 N   0  0  0  0  0  0  0  0  0  0  0  0
   -8.5369    3.9851   -7.1794 C   0  0  0  0  0  0  0  0  0  0  0  0
   -6.8783    4.9530  -16.2606 C   0  0  0  0  0  0  0  0  0  0  0  0
   -5.5765    5.3957  -16.3086 C   0  0  0  0  0  0  0  0  0  0  0  0
   -4.6469    5.7464  -15.2968 C   0  0  0  0  0  0  0  0  0  0  0  0
   -3.7983    6.0271  -14.5579 N   0  0  0  0  0  0  0  0  0  0  0  0
  1  2  1  0
  2  3  1  0
  3  4  1  0
  4  5  1  0
  5  6  2  0
  6  7  1  0
  7  8  2  0
  8  9  1  0
  9 10  2  0
 10 11  1  0
 11 12  2  0
 11 13  1  0
 13 14  1  0
 14 15  2  0
 15 16  1  0
 16 17  2  0
 17 18  1  0
 18 19  2  0
 18 20  1  0
 20 21  1  0
 21 22  1  0
 10 23  1  0
 23 24  2  0
 24 25  1  0
 25 26  3  0
 24  4  1  0
 23  6  1  0
 19 14  1  0
 22 17  1  0
M  END
>  <smiles>  (222) 
C77907-P32

>  <fragmenstein_outcome>  (222) 
acceptable

>  <inchikey>  (222) 
RPIKQLYCIDGFNM-UHFFFAOYSA-N

>  <fragmenstein_mode>  (222) 
expansion

>  <HIPPO Pose ID>  (222) 
4423

>  <Energy>  (222) 
84.15477

>  <fragmenstein_error>  (222) 


>  <tags>  (222) 
{'openbind_xx01zvns2b_c1_fragmenstein', 'fragmenstein_placed'}

>  <ref_pdb>  (222) 
1

>  <scratch_subdir>  (222) 
/opt/xchem-fragalysis-2/maxwin/BulkDock/SCRATCH/511027/C77907-P32

>  <alias>  (222) 
CNCn1nc2cccc(C(=O)Nc3ccc4c(c3)CNC4)c2c1C#N

>  <HIPPO Compound ID>  (222) 
101825

>  <fragmenstein_runtime>  (222) 
6.562342

$$$$
CN(CF)c1nccc2cccc(C(=O)Nc3cnn(C)c3)c12
     RDKit          3D

 23 25  0  0  0  0  0  0  0  0999 V2000
   -4.9160    7.8596  -14.8582 C   0  0  0  0  0  0  0  0  0  0  0  0
   -5.0527    6.4395  -15.1572 N   0  0  0  0  0  0  0  0  0  0  0  0
   -3.8382    5.6852  -14.9060 C   0  0  0  0  0  0  0  0  0  0  0  0
   -4.0083    4.4070  -15.3424 F   0  0  0  0  0  0  0  0  0  0  0  0
   -5.4207    6.2073  -16.5038 C   0  0  0  0  0  0  0  0  0  0  0  0
   -4.4937    6.5089  -17.4508 N   0  0  0  0  0  0  0  0  0  0  0  0
   -4.7221    6.0936  -18.7086 C   0  0  0  0  0  0  0  0  0  0  0  0
   -5.8486    5.4041  -19.0943 C   0  0  0  0  0  0  0  0  0  0  0  0
   -6.8256    5.1242  -18.1427 C   0  0  0  0  0  0  0  0  0  0  0  0
   -7.9880    4.4489  -18.5469 C   0  0  0  0  0  0  0  0  0  0  0  0
   -8.9875    4.1303  -17.6387 C   0  0  0  0  0  0  0  0  0  0  0  0
   -8.8305    4.4845  -16.3089 C   0  0  0  0  0  0  0  0  0  0  0  0
   -7.6935    5.1939  -15.8922 C   0  0  0  0  0  0  0  0  0  0  0  0
   -7.7478    5.7279  -14.5062 C   0  0  0  0  0  0  0  0  0  0  0  0
   -7.7970    6.8829  -14.3507 O   0  0  0  0  0  0  0  0  0  0  0  0
   -7.7825    4.5787  -13.4788 N   0  0  0  0  0  0  0  0  0  0  0  0
   -7.9695    4.6035  -12.1295 C   0  0  0  0  0  0  0  0  0  0  0  0
   -7.9719    5.7219  -11.2718 C   0  0  0  0  0  0  0  0  0  0  0  0
   -8.1733    5.3841   -9.9948 N   0  0  0  0  0  0  0  0  0  0  0  0
   -8.3522    4.0471  -10.0561 N   0  0  0  0  0  0  0  0  0  0  0  0
   -8.6433    3.3097   -8.8560 C   0  0  0  0  0  0  0  0  0  0  0  0
   -8.2041    3.5284  -11.3133 C   0  0  0  0  0  0  0  0  0  0  0  0
   -6.6440    5.5265  -16.7975 C   0  0  0  0  0  0  0  0  0  0  0  0
  1  2  1  0
  2  3  1  0
  3  4  1  0
  2  5  1  0
  5  6  2  0
  6  7  1  0
  7  8  2  0
  8  9  1  0
  9 10  2  0
 10 11  1  0
 11 12  2  0
 12 13  1  0
 13 14  1  0
 14 15  2  0
 14 16  1  0
 16 17  1  0
 17 18  1  0
 18 19  2  0
 19 20  1  0
 20 21  1  0
 20 22  1  0
 13 23  2  0
 23  5  1  0
 23  9  1  0
 22 17  2  0
M  END
>  <smiles>  (223) 
C78513-P34

>  <fragmenstein_outcome>  (223) 
acceptable

>  <inchikey>  (223) 
VBINPAWWXZXBJO-UHFFFAOYSA-N

>  <fragmenstein_mode>  (223) 
expansion

>  <HIPPO Pose ID>  (223) 
4691

>  <Energy>  (223) 
22.110109

>  <fragmenstein_error>  (223) 


>  <tags>  (223) 
{'openbind_xx01zvns2b_c1_fragmenstein', 'fragmenstein_placed'}

>  <ref_pdb>  (223) 
1

>  <scratch_subdir>  (223) 
/opt/xchem-fragalysis-2/maxwin/BulkDock/SCRATCH/511027/C78513-P34

>  <alias>  (223) 
CN(CF)c1nccc2cccc(C(=O)Nc3cnn(C)c3)c12

>  <HIPPO Compound ID>  (223) 
73105

>  <fragmenstein_runtime>  (223) 
7.543519

$$$$
CNc1nccc2cccc(C(=O)Nc3ccncc3C)c12
     RDKit          3D

 22 24  0  0  0  0  0  0  0  0999 V2000
   -3.4894    6.3533  -14.8683 C   0  0  0  0  0  0  0  0  0  0  0  0
   -4.8613    5.9103  -15.0018 N   0  0  0  0  0  0  0  0  0  0  0  0
   -5.2612    5.6062  -16.3161 C   0  0  0  0  0  0  0  0  0  0  0  0
   -4.3322    5.7154  -17.2969 N   0  0  0  0  0  0  0  0  0  0  0  0
   -4.6903    5.4150  -18.5575 C   0  0  0  0  0  0  0  0  0  0  0  0
   -5.9488    4.9917  -18.9123 C   0  0  0  0  0  0  0  0  0  0  0  0
   -6.9056    4.8412  -17.9149 C   0  0  0  0  0  0  0  0  0  0  0  0
   -8.1862    4.3921  -18.2716 C   0  0  0  0  0  0  0  0  0  0  0  0
   -9.1594    4.1793  -17.3070 C   0  0  0  0  0  0  0  0  0  0  0  0
   -8.8625    4.4383  -15.9781 C   0  0  0  0  0  0  0  0  0  0  0  0
   -7.6154    4.9569  -15.6132 C   0  0  0  0  0  0  0  0  0  0  0  0
   -7.5499    5.4811  -14.2270 C   0  0  0  0  0  0  0  0  0  0  0  0
   -7.6264    6.6375  -14.0755 O   0  0  0  0  0  0  0  0  0  0  0  0
   -7.4875    4.3373  -13.1906 N   0  0  0  0  0  0  0  0  0  0  0  0
   -7.5981    4.3672  -11.7947 C   0  0  0  0  0  0  0  0  0  0  0  0
   -7.9945    5.5273  -11.1407 C   0  0  0  0  0  0  0  0  0  0  0  0
   -8.2160    5.4718   -9.7742 C   0  0  0  0  0  0  0  0  0  0  0  0
   -8.0813    4.3575   -9.0297 N   0  0  0  0  0  0  0  0  0  0  0  0
   -7.6563    3.2500   -9.6805 C   0  0  0  0  0  0  0  0  0  0  0  0
   -7.3570    3.2126  -11.0426 C   0  0  0  0  0  0  0  0  0  0  0  0
   -6.6882    2.0127  -11.6348 C   0  0  0  0  0  0  0  0  0  0  0  0
   -6.5844    5.1484  -16.5683 C   0  0  0  0  0  0  0  0  0  0  0  0
  1  2  1  0
  2  3  1  0
  3  4  2  0
  4  5  1  0
  5  6  2  0
  6  7  1  0
  7  8  2  0
  8  9  1  0
  9 10  2  0
 10 11  1  0
 11 12  1  0
 12 13  2  0
 12 14  1  0
 14 15  1  0
 15 16  2  0
 16 17  1  0
 17 18  2  0
 18 19  1  0
 19 20  2  0
 20 21  1  0
 11 22  2  0
 22  3  1  0
 22  7  1  0
 20 15  1  0
M  END
>  <smiles>  (224) 
C78518-P34

>  <fragmenstein_outcome>  (224) 
acceptable

>  <inchikey>  (224) 
OQVCWCUMNAGILA-UHFFFAOYSA-N

>  <fragmenstein_mode>  (224) 
expansion

>  <HIPPO Pose ID>  (224) 
4693

>  <Energy>  (224) 
25.69089

>  <fragmenstein_error>  (224) 


>  <tags>  (224) 
{'openbind_xx01zvns2b_c1_fragmenstein', 'fragmenstein_placed'}

>  <ref_pdb>  (224) 
1

>  <scratch_subdir>  (224) 
/opt/xchem-fragalysis-2/maxwin/BulkDock/SCRATCH/511027/C78518-P34

>  <alias>  (224) 
CNc1nccc2cccc(C(=O)Nc3ccncc3C)c12

>  <HIPPO Compound ID>  (224) 
78518

>  <fragmenstein_runtime>  (224) 
10.637502

$$$$
CNc1nccc2cc(Cl)cc(C(=O)Nc3ccc4c(c3)CNC4)c12
     RDKit          3D

 25 28  0  0  0  0  0  0  0  0999 V2000
   -3.9902    7.3591  -13.5741 C   0  0  0  0  0  0  0  0  0  0  0  0
   -5.2348    6.7702  -14.0329 N   0  0  0  0  0  0  0  0  0  0  0  0
   -5.2227    6.2086  -15.3176 C   0  0  0  0  0  0  0  0  0  0  0  0
   -4.0795    6.3495  -16.0276 N   0  0  0  0  0  0  0  0  0  0  0  0
   -4.0463    5.9043  -17.2956 C   0  0  0  0  0  0  0  0  0  0  0  0
   -5.1176    5.3303  -17.9409 C   0  0  0  0  0  0  0  0  0  0  0  0
   -6.3017    5.1652  -17.2344 C   0  0  0  0  0  0  0  0  0  0  0  0
   -7.3983    4.6093  -17.9125 C   0  0  0  0  0  0  0  0  0  0  0  0
   -8.5925    4.3780  -17.2518 C   0  0  0  0  0  0  0  0  0  0  0  0
   -9.9479    3.7908  -18.1216 Cl  0  0  0  0  0  0  0  0  0  0  0  0
   -8.7006    4.6728  -15.9057 C   0  0  0  0  0  0  0  0  0  0  0  0
   -7.6399    5.2987  -15.2361 C   0  0  0  0  0  0  0  0  0  0  0  0
   -7.9419    5.7342  -13.8529 C   0  0  0  0  0  0  0  0  0  0  0  0
   -8.1049    6.8712  -13.6468 O   0  0  0  0  0  0  0  0  0  0  0  0
   -7.9734    4.5257  -12.8878 N   0  0  0  0  0  0  0  0  0  0  0  0
   -8.1132    4.4776  -11.5003 C   0  0  0  0  0  0  0  0  0  0  0  0
   -8.0471    5.6528  -10.7339 C   0  0  0  0  0  0  0  0  0  0  0  0
   -8.1761    5.6122   -9.3417 C   0  0  0  0  0  0  0  0  0  0  0  0
   -8.4084    4.3896   -8.7419 C   0  0  0  0  0  0  0  0  0  0  0  0
   -8.4879    3.2229   -9.4956 C   0  0  0  0  0  0  0  0  0  0  0  0
   -8.3176    3.2441  -10.8735 C   0  0  0  0  0  0  0  0  0  0  0  0
   -8.7611    2.0754   -8.5760 C   0  0  0  0  0  0  0  0  0  0  0  0
   -9.1797    2.6953   -7.2897 N   0  0  0  0  0  0  0  0  0  0  0  0
   -8.6062    4.0560   -7.3012 C   0  0  0  0  0  0  0  0  0  0  0  0
   -6.3903    5.5749  -15.8731 C   0  0  0  0  0  0  0  0  0  0  0  0
  1  2  1  0
  2  3  1  0
  3  4  2  0
  4  5  1  0
  5  6  2  0
  6  7  1  0
  7  8  2  0
  8  9  1  0
  9 10  1  0
  9 11  2  0
 11 12  1  0
 12 13  1  0
 13 14  2  0
 13 15  1  0
 15 16  1  0
 16 17  2  0
 17 18  1  0
 18 19  2  0
 19 20  1  0
 20 21  2  0
 20 22  1  0
 22 23  1  0
 23 24  1  0
 12 25  2  0
 25  3  1  0
 25  7  1  0
 21 16  1  0
 24 19  1  0
M  END
>  <smiles>  (225) 
C78588-P34

>  <fragmenstein_outcome>  (225) 
acceptable

>  <inchikey>  (225) 
PLQGNVTWRSVNLO-UHFFFAOYSA-N

>  <fragmenstein_mode>  (225) 
expansion

>  <HIPPO Pose ID>  (225) 
4724

>  <Energy>  (225) 
25.13576

>  <fragmenstein_error>  (225) 


>  <tags>  (225) 
{'openbind_xx01zvns2b_c1_fragmenstein', 'fragmenstein_placed'}

>  <ref_pdb>  (225) 
1

>  <scratch_subdir>  (225) 
/opt/xchem-fragalysis-2/maxwin/BulkDock/SCRATCH/511027/C78588-P34

>  <alias>  (225) 
CNc1nccc2cc(Cl)cc(C(=O)Nc3ccc4c(c3)CNC4)c12

>  <HIPPO Compound ID>  (225) 
78588

>  <fragmenstein_runtime>  (225) 
3.779429

$$$$
CNCc1cc2cc(Br)cc(C(=O)Nc3ccc4c(c3)CNC4)c2c(NC)n1
     RDKit          3D

 28 31  0  0  0  0  0  0  0  0999 V2000
   -4.5026    8.6222  -16.0801 C   0  0  0  0  0  0  0  0  0  0  0  0
   -3.2519    7.9777  -15.6996 N   0  0  0  0  0  0  0  0  0  0  0  0
   -2.9501    6.7773  -16.5131 C   0  0  0  0  0  0  0  0  0  0  0  0
   -3.9490    5.6845  -16.2551 C   0  0  0  0  0  0  0  0  0  0  0  0
   -4.9236    5.3982  -17.1972 C   0  0  0  0  0  0  0  0  0  0  0  0
   -6.1520    4.9575  -16.7269 C   0  0  0  0  0  0  0  0  0  0  0  0
   -7.2021    4.7215  -17.6234 C   0  0  0  0  0  0  0  0  0  0  0  0
   -8.4655    4.4155  -17.1376 C   0  0  0  0  0  0  0  0  0  0  0  0
   -9.8813    4.1236  -18.3358 Br  0  0  0  0  0  0  0  0  0  0  0  0
   -8.7169    4.4224  -15.7758 C   0  0  0  0  0  0  0  0  0  0  0  0
   -7.6827    4.6905  -14.8867 C   0  0  0  0  0  0  0  0  0  0  0  0
   -8.0596    5.2322  -13.5626 C   0  0  0  0  0  0  0  0  0  0  0  0
   -8.1521    6.3895  -13.4530 O   0  0  0  0  0  0  0  0  0  0  0  0
   -8.1688    4.1214  -12.5109 N   0  0  0  0  0  0  0  0  0  0  0  0
   -8.3155    4.1954  -11.1314 C   0  0  0  0  0  0  0  0  0  0  0  0
   -8.2165    5.4058  -10.4289 C   0  0  0  0  0  0  0  0  0  0  0  0
   -8.3089    5.4275   -9.0318 C   0  0  0  0  0  0  0  0  0  0  0  0
   -8.5517    4.2348   -8.3741 C   0  0  0  0  0  0  0  0  0  0  0  0
   -8.6657    3.0412   -9.0762 C   0  0  0  0  0  0  0  0  0  0  0  0
   -8.5248    3.0056  -10.4480 C   0  0  0  0  0  0  0  0  0  0  0  0
   -8.9317    1.9276   -8.1221 C   0  0  0  0  0  0  0  0  0  0  0  0
   -9.3506    2.6016   -6.8643 N   0  0  0  0  0  0  0  0  0  0  0  0
   -8.7462    3.9519   -6.9224 C   0  0  0  0  0  0  0  0  0  0  0  0
   -6.3556    4.8526  -15.3305 C   0  0  0  0  0  0  0  0  0  0  0  0
   -5.2176    4.9396  -14.4993 C   0  0  0  0  0  0  0  0  0  0  0  0
   -5.2316    4.5689  -13.1457 N   0  0  0  0  0  0  0  0  0  0  0  0
   -5.0813    5.7526  -12.2919 C   0  0  0  0  0  0  0  0  0  0  0  0
   -4.0230    5.3151  -14.9587 N   0  0  0  0  0  0  0  0  0  0  0  0
  1  2  1  0
  2  3  1  0
  3  4  1  0
  4  5  2  0
  5  6  1  0
  6  7  2  0
  7  8  1  0
  8  9  1  0
  8 10  2  0
 10 11  1  0
 11 12  1  0
 12 13  2  0
 12 14  1  0
 14 15  1  0
 15 16  2  0
 16 17  1  0
 17 18  2  0
 18 19  1  0
 19 20  2  0
 19 21  1  0
 21 22  1  0
 22 23  1  0
 11 24  2  0
 24 25  1  0
 25 26  1  0
 26 27  1  0
 25 28  2  0
 28  4  1  0
 24  6  1  0
 20 15  1  0
 23 18  1  0
M  END
>  <smiles>  (226) 
C78655-P34

>  <fragmenstein_outcome>  (226) 
acceptable

>  <inchikey>  (226) 
QOMAPPMZFWOKEG-UHFFFAOYSA-N

>  <fragmenstein_mode>  (226) 
expansion

>  <HIPPO Pose ID>  (226) 
4764

>  <Energy>  (226) 
57.905964

>  <fragmenstein_error>  (226) 


>  <tags>  (226) 
{'openbind_xx01zvns2b_c1_fragmenstein', 'fragmenstein_placed'}

>  <ref_pdb>  (226) 
1

>  <scratch_subdir>  (226) 
/opt/xchem-fragalysis-2/maxwin/BulkDock/SCRATCH/511027/C78655-P34

>  <alias>  (226) 
CNCc1cc2cc(Br)cc(C(=O)Nc3ccc4c(c3)CNC4)c2c(NC)n1

>  <HIPPO Compound ID>  (226) 
78655

>  <fragmenstein_runtime>  (226) 
5.431037

$$$$
CC(=O)N[C@H](CCCN)C(=O)Nc1cccc2c(O)ccc(S(C)(=O)=O)c12
     RDKit          3D

 27 28  0  0  0  0  0  0  0  0999 V2000
    0.2565    9.3172  -13.4015 C   0  0  0  0  0  0  0  0  0  0  0  0
   -1.1438    8.9185  -12.9898 C   0  0  0  0  0  0  0  0  0  0  0  0
   -1.7241    9.4238  -12.1150 O   0  0  0  0  0  0  0  0  0  0  0  0
   -1.5548    7.7610  -13.9275 N   0  0  0  0  0  0  0  0  0  0  0  0
   -2.8118    7.0437  -14.0449 C   0  0  2  0  0  0  0  0  0  0  0  0
   -2.9213    5.9648  -12.9610 C   0  0  0  0  0  0  0  0  0  0  0  0
   -1.9542    4.7896  -13.1538 C   0  0  0  0  0  0  0  0  0  0  0  0
   -2.1001    3.7645  -12.0286 C   0  0  0  0  0  0  0  0  0  0  0  0
   -1.1952    2.6363  -12.2351 N   0  0  0  0  0  0  0  0  0  0  0  0
   -2.9044    6.4833  -15.4903 C   0  0  0  0  0  0  0  0  0  0  0  0
   -1.9593    6.3776  -16.1800 O   0  0  0  0  0  0  0  0  0  0  0  0
   -4.3950    6.0772  -15.7434 N   0  0  0  0  0  0  0  0  0  0  0  0
   -5.0184    5.5637  -16.8950 C   0  0  0  0  0  0  0  0  0  0  0  0
   -4.2572    5.6047  -18.0722 C   0  0  0  0  0  0  0  0  0  0  0  0
   -4.8096    5.2562  -19.2874 C   0  0  0  0  0  0  0  0  0  0  0  0
   -6.1403    4.8831  -19.3416 C   0  0  0  0  0  0  0  0  0  0  0  0
   -6.9509    4.8176  -18.1920 C   0  0  0  0  0  0  0  0  0  0  0  0
   -8.3085    4.4518  -18.3228 C   0  0  0  0  0  0  0  0  0  0  0  0
   -8.9153    4.2425  -19.5288 O   0  0  0  0  0  0  0  0  0  0  0  0
   -9.1418    4.2730  -17.2369 C   0  0  0  0  0  0  0  0  0  0  0  0
   -8.6277    4.4327  -15.9693 C   0  0  0  0  0  0  0  0  0  0  0  0
   -7.2893    4.8167  -15.7947 C   0  0  0  0  0  0  0  0  0  0  0  0
   -6.6981    4.8660  -14.1242 S   0  0  0  0  0  0  0  0  0  0  0  0
   -7.9880    4.4297  -13.0040 C   0  0  0  0  0  0  0  0  0  0  0  0
   -6.3777    6.2653  -13.8756 O   0  0  0  0  0  0  0  0  0  0  0  0
   -5.6495    3.8703  -14.0053 O   0  0  0  0  0  0  0  0  0  0  0  0
   -6.3953    5.0879  -16.9041 C   0  0  0  0  0  0  0  0  0  0  0  0
  1  2  1  0
  2  3  2  0
  2  4  1  0
  4  5  1  0
  5  6  1  1
  6  7  1  0
  7  8  1  0
  8  9  1  0
  5 10  1  0
 10 11  2  0
 10 12  1  0
 12 13  1  0
 13 14  2  0
 14 15  1  0
 15 16  2  0
 16 17  1  0
 17 18  2  0
 18 19  1  0
 18 20  1  0
 20 21  2  0
 21 22  1  0
 22 23  1  0
 23 24  1  0
 23 25  2  0
 23 26  2  0
 22 27  2  0
 27 13  1  0
 27 17  1  0
M  END
>  <smiles>  (227) 
C78997-P36

>  <fragmenstein_outcome>  (227) 
acceptable

>  <inchikey>  (227) 
VAPJXIZHWUNPEE-UHFFFAOYSA-N

>  <fragmenstein_mode>  (227) 
expansion

>  <HIPPO Pose ID>  (227) 
4911

>  <Energy>  (227) 
77.394214

>  <fragmenstein_error>  (227) 


>  <tags>  (227) 
{'openbind_xx01zvns2b_c1_fragmenstein', 'fragmenstein_placed'}

>  <ref_pdb>  (227) 
1

>  <scratch_subdir>  (227) 
/opt/xchem-fragalysis-2/maxwin/BulkDock/SCRATCH/511027/C78997-P36

>  <alias>  (227) 
CC(=O)N[C@H](CCCN)C(=O)Nc1cccc2c(O)ccc(S(C)(=O)=O)c12

>  <HIPPO Compound ID>  (227) 
71612

>  <fragmenstein_runtime>  (227) 
4.303707

$$$$
Cc1cnccc1NC(=O)c1cscc1C
     RDKit          3D

 16 17  0  0  0  0  0  0  0  0999 V2000
   -7.7426    6.8815  -11.1321 C   0  0  0  0  0  0  0  0  0  0  0  0
   -8.0146    5.4859  -10.6686 C   0  0  0  0  0  0  0  0  0  0  0  0
   -8.1079    5.2817   -9.2883 C   0  0  0  0  0  0  0  0  0  0  0  0
   -8.4261    4.1153   -8.6923 N   0  0  0  0  0  0  0  0  0  0  0  0
   -8.6571    3.0748   -9.5141 C   0  0  0  0  0  0  0  0  0  0  0  0
   -8.5796    3.1592  -10.8956 C   0  0  0  0  0  0  0  0  0  0  0  0
   -8.2246    4.3730  -11.4928 C   0  0  0  0  0  0  0  0  0  0  0  0
   -8.1362    4.3620  -12.8958 N   0  0  0  0  0  0  0  0  0  0  0  0
   -7.3569    5.2884  -13.8621 C   0  0  0  0  0  0  0  0  0  0  0  0
   -6.7297    6.2505  -13.6476 O   0  0  0  0  0  0  0  0  0  0  0  0
   -7.5394    4.8697  -15.2643 C   0  0  0  0  0  0  0  0  0  0  0  0
   -8.7434    4.4585  -15.8011 C   0  0  0  0  0  0  0  0  0  0  0  0
   -8.7055    4.2655  -17.4956 S   0  0  0  0  0  0  0  0  0  0  0  0
   -7.0360    4.6292  -17.5349 C   0  0  0  0  0  0  0  0  0  0  0  0
   -6.5149    4.9134  -16.2846 C   0  0  0  0  0  0  0  0  0  0  0  0
   -5.0797    5.2325  -16.0152 C   0  0  0  0  0  0  0  0  0  0  0  0
  1  2  1  0
  2  3  2  0
  3  4  1  0
  4  5  2  0
  5  6  1  0
  6  7  2  0
  7  8  1  0
  8  9  1  0
  9 10  2  0
  9 11  1  0
 11 12  2  0
 12 13  1  0
 13 14  1  0
 14 15  2  0
 15 16  1  0
  7  2  1  0
 15 11  1  0
M  END
>  <smiles>  (228) 
C79340-P37

>  <fragmenstein_outcome>  (228) 
acceptable

>  <inchikey>  (228) 
NHSRGQVYKHWKGG-UHFFFAOYSA-N

>  <fragmenstein_mode>  (228) 
expansion

>  <HIPPO Pose ID>  (228) 
5034

>  <Energy>  (228) 
31.720319

>  <fragmenstein_error>  (228) 


>  <tags>  (228) 
{'openbind_xx01zvns2b_c1_fragmenstein', 'fragmenstein_placed'}

>  <ref_pdb>  (228) 
1

>  <scratch_subdir>  (228) 
/opt/xchem-fragalysis-2/maxwin/BulkDock/SCRATCH/511027/C79340-P37

>  <alias>  (228) 
Cc1cnccc1NC(=O)c1cscc1C

>  <HIPPO Compound ID>  (228) 
87743

>  <fragmenstein_runtime>  (228) 
19.689463

$$$$
Nc1ccnc2c(OC(F)(F)ONc3ccc(O)c(CNc4nc5ccccc5[nH]4)c3)cccc12
     RDKit          3D

 35 39  0  0  0  0  0  0  0  0999 V2000
  -11.6081   11.4951  -26.2384 N   0  0  0  0  0  0  0  0  0  0  0  0
  -10.2208   11.3631  -26.2193 C   0  0  0  0  0  0  0  0  0  0  0  0
   -9.4638   12.4887  -25.9108 C   0  0  0  0  0  0  0  0  0  0  0  0
   -8.0935   12.3755  -25.9048 C   0  0  0  0  0  0  0  0  0  0  0  0
   -7.4423   11.2335  -26.1906 N   0  0  0  0  0  0  0  0  0  0  0  0
   -8.1493   10.1483  -26.5768 C   0  0  0  0  0  0  0  0  0  0  0  0
   -7.4665    8.9573  -26.8987 C   0  0  0  0  0  0  0  0  0  0  0  0
   -6.1063    9.0685  -26.8185 O   0  0  0  0  0  0  0  0  0  0  0  0
   -5.2135    7.9931  -27.0545 C   0  0  0  0  0  0  0  0  0  0  0  0
   -5.6313    7.1999  -28.0717 F   0  0  0  0  0  0  0  0  0  0  0  0
   -4.0332    8.5326  -27.4689 F   0  0  0  0  0  0  0  0  0  0  0  0
   -4.9373    7.1837  -25.9030 O   0  0  0  0  0  0  0  0  0  0  0  0
   -4.6414    8.0483  -24.8183 N   0  0  0  0  0  0  0  0  0  0  0  0
   -3.8135    7.5376  -23.8068 C   0  0  0  0  0  0  0  0  0  0  0  0
   -2.5830    6.9585  -24.1087 C   0  0  0  0  0  0  0  0  0  0  0  0
   -1.8098    6.3643  -23.1112 C   0  0  0  0  0  0  0  0  0  0  0  0
   -2.3103    6.2719  -21.8148 C   0  0  0  0  0  0  0  0  0  0  0  0
   -1.6142    5.4623  -20.9613 O   0  0  0  0  0  0  0  0  0  0  0  0
   -3.5226    6.8756  -21.4739 C   0  0  0  0  0  0  0  0  0  0  0  0
   -4.1839    6.7102  -20.1297 C   0  0  0  0  0  0  0  0  0  0  0  0
   -5.0065    5.5150  -20.1727 N   0  0  0  0  0  0  0  0  0  0  0  0
   -5.6964    5.2042  -19.0649 C   0  0  0  0  0  0  0  0  0  0  0  0
   -5.3235    5.3675  -17.8210 N   0  0  0  0  0  0  0  0  0  0  0  0
   -6.3931    4.9543  -17.0707 C   0  0  0  0  0  0  0  0  0  0  0  0
   -6.5321    4.9094  -15.6780 C   0  0  0  0  0  0  0  0  0  0  0  0
   -7.7519    4.4869  -15.1494 C   0  0  0  0  0  0  0  0  0  0  0  0
   -8.8036    4.1347  -15.9967 C   0  0  0  0  0  0  0  0  0  0  0  0
   -8.6905    4.1673  -17.3880 C   0  0  0  0  0  0  0  0  0  0  0  0
   -7.4554    4.5707  -17.8809 C   0  0  0  0  0  0  0  0  0  0  0  0
   -6.9677    4.7043  -19.1519 N   0  0  0  0  0  0  0  0  0  0  0  0
   -4.2439    7.5399  -22.4838 C   0  0  0  0  0  0  0  0  0  0  0  0
   -8.1618    7.8088  -27.2768 C   0  0  0  0  0  0  0  0  0  0  0  0
   -9.5454    7.8528  -27.4049 C   0  0  0  0  0  0  0  0  0  0  0  0
  -10.2390    9.0204  -27.0941 C   0  0  0  0  0  0  0  0  0  0  0  0
   -9.5616   10.1764  -26.6422 C   0  0  0  0  0  0  0  0  0  0  0  0
  1  2  1  0
  2  3  2  0
  3  4  1  0
  4  5  2  0
  5  6  1  0
  6  7  2  0
  7  8  1  0
  8  9  1  0
  9 10  1  0
  9 11  1  0
  9 12  1  0
 12 13  1  0
 13 14  1  0
 14 15  2  0
 15 16  1  0
 16 17  2  0
 17 18  1  0
 17 19  1  0
 19 20  1  0
 20 21  1  0
 21 22  1  0
 22 23  2  0
 23 24  1  0
 24 25  2  0
 25 26  1  0
 26 27  2  0
 27 28  1  0
 28 29  2  0
 29 30  1  0
 19 31  2  0
  7 32  1  0
 32 33  2  0
 33 34  1  0
 34 35  2  0
 35  2  1  0
 35  6  1  0
 31 14  1  0
 30 22  1  0
 29 24  1  0
M  END
>  <smiles>  (229) 
C80104-P45

>  <fragmenstein_outcome>  (229) 
acceptable

>  <inchikey>  (229) 
ULQSPQPZWGZEMZ-UHFFFAOYSA-N

>  <fragmenstein_mode>  (229) 
expansion

>  <HIPPO Pose ID>  (229) 
5576

>  <Energy>  (229) 
95.225198

>  <fragmenstein_error>  (229) 


>  <tags>  (229) 
{'openbind_xx01zvns2b_c1_fragmenstein', 'fragmenstein_placed'}

>  <ref_pdb>  (229) 
1

>  <scratch_subdir>  (229) 
/opt/xchem-fragalysis-2/maxwin/BulkDock/SCRATCH/511027/C80104-P45

>  <alias>  (229) 
Nc1ccnc2c(OC(F)(F)ONc3ccc(O)c(CNc4nc5ccccc5[nH]4)c3)cccc12

>  <HIPPO Compound ID>  (229) 
107084

>  <fragmenstein_runtime>  (229) 
20.965458

$$$$
O=C(Nc1ccc2c(c1)CNC2)c1cc(F)cc(-c2cnn(Nc3ccc(CNc4nc5ccccc5[nH]4)c(O)c3)c2)c1
     RDKit          3D

 43 49  0  0  0  0  0  0  0  0999 V2000
   -7.5768    6.5879  -13.5992 O   0  0  0  0  0  0  0  0  0  0  0  0
   -7.9073    5.4872  -13.8101 C   0  0  0  0  0  0  0  0  0  0  0  0
   -8.3520    4.3705  -12.8377 N   0  0  0  0  0  0  0  0  0  0  0  0
   -8.3908    4.3457  -11.4431 C   0  0  0  0  0  0  0  0  0  0  0  0
   -8.1980    5.5224  -10.7017 C   0  0  0  0  0  0  0  0  0  0  0  0
   -8.2279    5.5044   -9.3040 C   0  0  0  0  0  0  0  0  0  0  0  0
   -8.4328    4.2942   -8.6684 C   0  0  0  0  0  0  0  0  0  0  0  0
   -8.6188    3.1264   -9.3953 C   0  0  0  0  0  0  0  0  0  0  0  0
   -8.6142    3.1355  -10.7836 C   0  0  0  0  0  0  0  0  0  0  0  0
   -8.8056    1.9822   -8.4559 C   0  0  0  0  0  0  0  0  0  0  0  0
   -8.6093    2.5290   -7.0855 N   0  0  0  0  0  0  0  0  0  0  0  0
   -8.5198    3.9972   -7.2126 C   0  0  0  0  0  0  0  0  0  0  0  0
   -7.9015    5.0417  -15.2257 C   0  0  0  0  0  0  0  0  0  0  0  0
   -9.0055    4.4253  -15.8033 C   0  0  0  0  0  0  0  0  0  0  0  0
   -9.0355    4.2176  -17.1775 C   0  0  0  0  0  0  0  0  0  0  0  0
  -10.1270    3.6819  -17.7351 F   0  0  0  0  0  0  0  0  0  0  0  0
   -7.9783    4.6021  -17.9879 C   0  0  0  0  0  0  0  0  0  0  0  0
   -6.8660    5.2090  -17.4050 C   0  0  0  0  0  0  0  0  0  0  0  0
   -5.8053    5.7322  -18.2166 C   0  0  0  0  0  0  0  0  0  0  0  0
   -4.4317    5.4450  -18.2633 C   0  0  0  0  0  0  0  0  0  0  0  0
   -3.7759    6.2472  -19.1087 N   0  0  0  0  0  0  0  0  0  0  0  0
   -4.7372    7.0316  -19.6128 N   0  0  0  0  0  0  0  0  0  0  0  0
   -4.3517    8.1460  -20.2926 N   0  0  0  0  0  0  0  0  0  0  0  0
   -4.4524    8.3149  -21.6913 C   0  0  0  0  0  0  0  0  0  0  0  0
   -3.8380    9.4331  -22.2708 C   0  0  0  0  0  0  0  0  0  0  0  0
   -3.9437    9.6894  -23.6423 C   0  0  0  0  0  0  0  0  0  0  0  0
   -4.6800    8.8390  -24.4785 C   0  0  0  0  0  0  0  0  0  0  0  0
   -4.6895    9.1026  -25.9717 C   0  0  0  0  0  0  0  0  0  0  0  0
   -5.9983    8.9036  -26.5788 N   0  0  0  0  0  0  0  0  0  0  0  0
   -6.8868    9.9153  -26.5392 C   0  0  0  0  0  0  0  0  0  0  0  0
   -6.6993   11.1838  -26.2633 N   0  0  0  0  0  0  0  0  0  0  0  0
   -7.9510   11.7478  -26.2643 C   0  0  0  0  0  0  0  0  0  0  0  0
   -8.3430   13.0599  -25.9629 C   0  0  0  0  0  0  0  0  0  0  0  0
   -9.7085   13.3701  -25.9679 C   0  0  0  0  0  0  0  0  0  0  0  0
  -10.6616   12.3973  -26.2786 C   0  0  0  0  0  0  0  0  0  0  0  0
  -10.2885   11.0911  -26.6218 C   0  0  0  0  0  0  0  0  0  0  0  0
   -8.9217   10.8076  -26.5937 C   0  0  0  0  0  0  0  0  0  0  0  0
   -8.2055    9.6591  -26.8098 N   0  0  0  0  0  0  0  0  0  0  0  0
   -5.3125    7.7374  -23.8905 C   0  0  0  0  0  0  0  0  0  0  0  0
   -6.0229    6.8832  -24.6905 O   0  0  0  0  0  0  0  0  0  0  0  0
   -5.2284    7.4933  -22.5137 C   0  0  0  0  0  0  0  0  0  0  0  0
   -5.9670    6.7772  -19.0956 C   0  0  0  0  0  0  0  0  0  0  0  0
   -6.8211    5.4199  -16.0245 C   0  0  0  0  0  0  0  0  0  0  0  0
  1  2  2  0
  2  3  1  0
  3  4  1  0
  4  5  2  0
  5  6  1  0
  6  7  2  0
  7  8  1  0
  8  9  2  0
  8 10  1  0
 10 11  1  0
 11 12  1  0
  2 13  1  0
 13 14  2  0
 14 15  1  0
 15 16  1  0
 15 17  2  0
 17 18  1  0
 18 19  1  0
 19 20  1  0
 20 21  2  0
 21 22  1  0
 22 23  1  0
 23 24  1  0
 24 25  2  0
 25 26  1  0
 26 27  2  0
 27 28  1  0
 28 29  1  0
 29 30  1  0
 30 31  2  0
 31 32  1  0
 32 33  2  0
 33 34  1  0
 34 35  2  0
 35 36  1  0
 36 37  2  0
 37 38  1  0
 27 39  1  0
 39 40  1  0
 39 41  2  0
 22 42  1  0
 18 43  2  0
  9  4  1  0
 43 13  1  0
 12  7  1  0
 42 19  2  0
 41 24  1  0
 38 30  1  0
 37 32  1  0
M  END
>  <smiles>  (230) 
C80579-P48

>  <fragmenstein_outcome>  (230) 
acceptable

>  <inchikey>  (230) 
JEOKLSCWQOGHLW-UHFFFAOYSA-N

>  <fragmenstein_mode>  (230) 
expansion

>  <HIPPO Pose ID>  (230) 
5988

>  <Energy>  (230) 
-18.113084

>  <fragmenstein_error>  (230) 


>  <tags>  (230) 
{'openbind_xx01zvns2b_c1_fragmenstein', 'fragmenstein_placed'}

>  <ref_pdb>  (230) 
1

>  <scratch_subdir>  (230) 
/opt/xchem-fragalysis-2/maxwin/BulkDock/SCRATCH/511027/C80579-P48

>  <alias>  (230) 
O=C(Nc1ccc2c(c1)CNC2)c1cc(F)cc(-c2cnn(Nc3ccc(CNc4nc5ccccc5[nH]4)c(O)c3)c2)c1

>  <HIPPO Compound ID>  (230) 
80579

>  <fragmenstein_runtime>  (230) 
15.01518

$$$$
Cc1cccc(O)c1NC(=O)c1ccncc1F
     RDKit          3D

 18 19  0  0  0  0  0  0  0  0999 V2000
   -8.8344    2.2577  -10.9570 C   0  0  0  0  0  0  0  0  0  0  0  0
   -8.4645    3.4998  -10.2137 C   0  0  0  0  0  0  0  0  0  0  0  0
   -8.5891    3.4626   -8.8145 C   0  0  0  0  0  0  0  0  0  0  0  0
   -8.2958    4.5824   -8.0527 C   0  0  0  0  0  0  0  0  0  0  0  0
   -7.8633    5.7420   -8.6833 C   0  0  0  0  0  0  0  0  0  0  0  0
   -7.6938    5.7811  -10.0700 C   0  0  0  0  0  0  0  0  0  0  0  0
   -7.2537    6.9884  -10.5381 O   0  0  0  0  0  0  0  0  0  0  0  0
   -7.9864    4.6622  -10.8611 C   0  0  0  0  0  0  0  0  0  0  0  0
   -7.8707    4.6305  -12.2639 N   0  0  0  0  0  0  0  0  0  0  0  0
   -7.1494    5.5916  -13.2329 C   0  0  0  0  0  0  0  0  0  0  0  0
   -6.6022    6.6033  -13.0283 O   0  0  0  0  0  0  0  0  0  0  0  0
   -7.2414    5.1367  -14.6427 C   0  0  0  0  0  0  0  0  0  0  0  0
   -6.1479    5.3136  -15.4914 C   0  0  0  0  0  0  0  0  0  0  0  0
   -6.3070    4.9941  -16.8281 C   0  0  0  0  0  0  0  0  0  0  0  0
   -7.4640    4.5379  -17.3533 N   0  0  0  0  0  0  0  0  0  0  0  0
   -8.5054    4.3668  -16.5052 C   0  0  0  0  0  0  0  0  0  0  0  0
   -8.4374    4.6577  -15.1572 C   0  0  0  0  0  0  0  0  0  0  0  0
   -9.5190    4.5373  -14.3778 F   0  0  0  0  0  0  0  0  0  0  0  0
  1  2  1  0
  2  3  2  0
  3  4  1  0
  4  5  2  0
  5  6  1  0
  6  7  1  0
  6  8  2  0
  8  9  1  0
  9 10  1  0
 10 11  2  0
 10 12  1  0
 12 13  2  0
 13 14  1  0
 14 15  2  0
 15 16  1  0
 16 17  2  0
 17 18  1  0
  8  2  1  0
 17 12  1  0
M  END
>  <smiles>  (231) 
C43-P270

>  <fragmenstein_outcome>  (231) 
acceptable

>  <inchikey>  (231) 
ALYFFLFNDXAYAH-UHFFFAOYSA-N

>  <fragmenstein_mode>  (231) 
expansion

>  <HIPPO Pose ID>  (231) 
6018

>  <Energy>  (231) 
39.603485

>  <fragmenstein_error>  (231) 


>  <tags>  (231) 
{'openbind_xx01zvns2b_c1_fragmenstein', 'fragmenstein_placed'}

>  <ref_pdb>  (231) 
1

>  <scratch_subdir>  (231) 
/opt/xchem-fragalysis-2/maxwin/BulkDock/SCRATCH/511027/C43-P270

>  <alias>  (231) 
Cc1cccc(O)c1NC(=O)c1ccncc1F

>  <HIPPO Compound ID>  (231) 
93347

>  <fragmenstein_runtime>  (231) 
3.001694

$$$$
[NH3+][C@@H](Cc1ccc(O)c2c1CC[C@](O)(c1ccncc1F)C2)C(=O)[O-]
     RDKit          3D

 25 27  0  0  0  0  0  0  0  0999 V2000
   -7.8329    2.7737  -13.2849 N   0  0  0  0  0  0  0  0  0  0  0  0
   -7.3671    4.0937  -12.7418 C   0  0  1  0  0  0  0  0  0  0  0  0
   -7.6465    5.2774  -13.6644 C   0  0  0  0  0  0  0  0  0  0  0  0
   -7.7620    4.9875  -15.1459 C   0  0  0  0  0  0  0  0  0  0  0  0
   -9.0322    4.6056  -15.5900 C   0  0  0  0  0  0  0  0  0  0  0  0
   -9.3053    4.3956  -16.9260 C   0  0  0  0  0  0  0  0  0  0  0  0
   -8.2974    4.5748  -17.8494 C   0  0  0  0  0  0  0  0  0  0  0  0
   -8.6670    4.3495  -19.1353 O   0  0  0  0  0  0  0  0  0  0  0  0
   -6.9968    4.9318  -17.4618 C   0  0  0  0  0  0  0  0  0  0  0  0
   -6.7160    5.1125  -16.0848 C   0  0  0  0  0  0  0  0  0  0  0  0
   -5.3195    5.4752  -15.6401 C   0  0  0  0  0  0  0  0  0  0  0  0
   -4.2444    5.0172  -16.6190 C   0  0  0  0  0  0  0  0  0  0  0  0
   -4.5144    5.5029  -18.0516 C   0  0  2  0  0  0  0  0  0  0  0  0
   -3.5354    4.8442  -18.8948 O   0  0  0  0  0  0  0  0  0  0  0  0
   -4.1983    6.9920  -18.1695 C   0  0  0  0  0  0  0  0  0  0  0  0
   -2.8544    7.4193  -18.1616 C   0  0  0  0  0  0  0  0  0  0  0  0
   -2.5520    8.7720  -18.2529 C   0  0  0  0  0  0  0  0  0  0  0  0
   -3.4847    9.7402  -18.3458 N   0  0  0  0  0  0  0  0  0  0  0  0
   -4.7697    9.3232  -18.3470 C   0  0  0  0  0  0  0  0  0  0  0  0
   -5.1629    7.9937  -18.2641 C   0  0  0  0  0  0  0  0  0  0  0  0
   -6.4713    7.7196  -18.2686 F   0  0  0  0  0  0  0  0  0  0  0  0
   -5.9147    5.0281  -18.5130 C   0  0  0  0  0  0  0  0  0  0  0  0
   -7.9661    4.3160  -11.3299 C   0  0  0  0  0  0  0  0  0  0  0  0
   -8.3783    3.2248  -10.8273 O   0  0  0  0  0  0  0  0  0  0  0  0
   -7.9847    5.4774  -10.8598 O   0  0  0  0  0  0  0  0  0  0  0  0
  2  1  1  6
  2  3  1  0
  3  4  1  0
  4  5  2  0
  5  6  1  0
  6  7  2  0
  7  8  1  0
  7  9  1  0
  9 10  2  0
 10 11  1  0
 11 12  1  0
 12 13  1  0
 13 14  1  6
 13 15  1  0
 15 16  2  0
 16 17  1  0
 17 18  2  0
 18 19  1  0
 19 20  2  0
 20 21  1  0
 13 22  1  0
  2 23  1  0
 23 24  2  0
 23 25  1  0
 10  4  1  0
 20 15  1  0
 22  9  1  0
M  CHG  2   1   1  25  -1
M  END
>  <smiles>  (232) 
C80689-P48

>  <fragmenstein_outcome>  (232) 
acceptable

>  <inchikey>  (232) 
JFMRJEILBGYUAQ-UHFFFAOYSA-N

>  <fragmenstein_mode>  (232) 
expansion

>  <HIPPO Pose ID>  (232) 
6035

>  <Energy>  (232) 
59.561502

>  <fragmenstein_error>  (232) 


>  <tags>  (232) 
{'openbind_xx01zvns2b_c1_fragmenstein', 'fragmenstein_placed'}

>  <ref_pdb>  (232) 
1

>  <scratch_subdir>  (232) 
/opt/xchem-fragalysis-2/maxwin/BulkDock/SCRATCH/511027/C80689-P48

>  <alias>  (232) 
[NH3+][C@@H](Cc1ccc(O)c2c1CC[C@](O)(c1ccncc1F)C2)C(=O)[O-]

>  <HIPPO Compound ID>  (232) 
90516

>  <fragmenstein_runtime>  (232) 
3.071772

$$$$
CN1C[C@@H](C(F)(F)Oc2ccc3c(c2)CNC3=O)N[C@]12CC[C@]1(O)NCCC[C@@H]21
     RDKit          3D

 29 33  0  0  0  0  0  0  0  0999 V2000
   -4.3938    9.7884  -14.7944 C   0  0  0  0  0  0  0  0  0  0  0  0
   -4.2890    9.0725  -16.0557 N   0  0  0  0  0  0  0  0  0  0  0  0
   -4.6794    7.6607  -15.9256 C   0  0  0  0  0  0  0  0  0  0  0  0
   -3.4174    6.8747  -16.2322 C   0  0  1  0  0  0  0  0  0  0  0  0
   -3.6815    5.3995  -16.6176 C   0  0  0  0  0  0  0  0  0  0  0  0
   -2.4910    4.8032  -16.9038 F   0  0  0  0  0  0  0  0  0  0  0  0
   -4.1721    4.7113  -15.5517 F   0  0  0  0  0  0  0  0  0  0  0  0
   -4.4772    5.2622  -17.7896 O   0  0  0  0  0  0  0  0  0  0  0  0
   -5.7987    4.9675  -17.6997 C   0  0  0  0  0  0  0  0  0  0  0  0
   -6.4240    4.6967  -18.9366 C   0  0  0  0  0  0  0  0  0  0  0  0
   -7.7761    4.3745  -19.0072 C   0  0  0  0  0  0  0  0  0  0  0  0
   -8.4537    4.3480  -17.8210 C   0  0  0  0  0  0  0  0  0  0  0  0
   -7.8467    4.6027  -16.5952 C   0  0  0  0  0  0  0  0  0  0  0  0
   -6.5267    4.9363  -16.5173 C   0  0  0  0  0  0  0  0  0  0  0  0
   -8.7944    4.4349  -15.4799 C   0  0  0  0  0  0  0  0  0  0  0  0
   -9.9441    3.9813  -16.1884 N   0  0  0  0  0  0  0  0  0  0  0  0
   -9.8469    4.0788  -17.5442 C   0  0  0  0  0  0  0  0  0  0  0  0
  -10.7862    3.9898  -18.2994 O   0  0  0  0  0  0  0  0  0  0  0  0
   -2.7820    7.7588  -17.2586 N   0  0  0  0  0  0  0  0  0  0  0  0
   -2.9938    9.1207  -16.7334 C   0  0  2  0  0  0  0  0  0  0  0  0
   -1.7246    9.5195  -15.9245 C   0  0  0  0  0  0  0  0  0  0  0  0
   -0.7072   10.0820  -16.9440 C   0  0  0  0  0  0  0  0  0  0  0  0
   -1.4830   10.2313  -18.2635 C   0  0  2  0  0  0  0  0  0  0  0  0
   -1.1776    9.1096  -19.0817 O   0  0  0  0  0  0  0  0  0  0  0  0
   -1.1577   11.4165  -19.0344 N   0  0  0  0  0  0  0  0  0  0  0  0
   -2.2905   11.9548  -19.7947 C   0  0  0  0  0  0  0  0  0  0  0  0
   -3.3289   10.9065  -20.2162 C   0  0  0  0  0  0  0  0  0  0  0  0
   -3.8999   10.1226  -19.0235 C   0  0  0  0  0  0  0  0  0  0  0  0
   -2.9554   10.2114  -17.8239 C   0  0  1  0  0  0  0  0  0  0  0  0
  1  2  1  0
  2  3  1  0
  3  4  1  0
  4  5  1  6
  5  6  1  0
  5  7  1  0
  5  8  1  0
  8  9  1  0
  9 10  2  0
 10 11  1  0
 11 12  2  0
 12 13  1  0
 13 14  2  0
 13 15  1  0
 15 16  1  0
 16 17  1  0
 17 18  2  0
  4 19  1  0
 19 20  1  0
 20 21  1  1
 21 22  1  0
 22 23  1  0
 23 24  1  6
 23 25  1  0
 25 26  1  0
 26 27  1  0
 27 28  1  0
 29 28  1  6
 20  2  1  0
 29 23  1  0
 14  9  1  0
 29 20  1  0
 17 12  1  0
M  END
>  <smiles>  (233) 
C81852-P54

>  <fragmenstein_outcome>  (233) 
acceptable

>  <inchikey>  (233) 
SQTIHMQNCMHUIC-UHFFFAOYSA-N

>  <fragmenstein_mode>  (233) 
expansion

>  <HIPPO Pose ID>  (233) 
6615

>  <Energy>  (233) 
56.467893

>  <fragmenstein_error>  (233) 


>  <tags>  (233) 
{'openbind_xx01zvns2b_c1_fragmenstein', 'fragmenstein_placed'}

>  <ref_pdb>  (233) 
1

>  <scratch_subdir>  (233) 
/opt/xchem-fragalysis-2/maxwin/BulkDock/SCRATCH/511027/C81852-P54

>  <alias>  (233) 
CN1C[C@@H](C(F)(F)Oc2ccc3c(c2)CNC3=O)N[C@]12CC[C@]1(O)NCCC[C@@H]21

>  <HIPPO Compound ID>  (233) 
81852

>  <fragmenstein_runtime>  (233) 
6.465682

$$$$
COc1cc(OCNc2cc(C)cc(CN)c2)nc(N2CCNCC2)n1
     RDKit          3D

 26 28  0  0  0  0  0  0  0  0999 V2000
   -8.8462    8.8222   -8.9160 C   0  0  0  0  0  0  0  0  0  0  0  0
   -7.9684    8.4820   -9.9751 O   0  0  0  0  0  0  0  0  0  0  0  0
   -8.0829    7.1472  -10.3042 C   0  0  0  0  0  0  0  0  0  0  0  0
   -7.9855    6.8647  -11.6306 C   0  0  0  0  0  0  0  0  0  0  0  0
   -7.9852    5.5346  -11.9165 C   0  0  0  0  0  0  0  0  0  0  0  0
   -7.8890    5.2332  -13.2547 O   0  0  0  0  0  0  0  0  0  0  0  0
   -7.0944    4.0845  -13.5149 C   0  0  0  0  0  0  0  0  0  0  0  0
   -6.3146    4.3224  -14.7337 N   0  0  0  0  0  0  0  0  0  0  0  0
   -6.9306    4.4999  -15.9755 C   0  0  0  0  0  0  0  0  0  0  0  0
   -6.1283    4.7397  -17.1048 C   0  0  0  0  0  0  0  0  0  0  0  0
   -6.6585    4.7379  -18.4057 C   0  0  0  0  0  0  0  0  0  0  0  0
   -5.7955    4.9322  -19.6132 C   0  0  0  0  0  0  0  0  0  0  0  0
   -8.0234    4.5393  -18.5760 C   0  0  0  0  0  0  0  0  0  0  0  0
   -8.8439    4.3164  -17.4769 C   0  0  0  0  0  0  0  0  0  0  0  0
  -10.2777    3.9776  -17.6861 C   0  0  0  0  0  0  0  0  0  0  0  0
  -11.0579    5.0075  -18.3313 N   0  0  0  0  0  0  0  0  0  0  0  0
   -8.2906    4.2843  -16.1906 C   0  0  0  0  0  0  0  0  0  0  0  0
   -8.1055    4.5602  -11.0009 N   0  0  0  0  0  0  0  0  0  0  0  0
   -8.2003    4.9333   -9.7072 C   0  0  0  0  0  0  0  0  0  0  0  0
   -8.2956    3.9541   -8.7186 N   0  0  0  0  0  0  0  0  0  0  0  0
   -8.5993    4.4258   -7.3620 C   0  0  0  0  0  0  0  0  0  0  0  0
   -8.9077    3.2990   -6.3516 C   0  0  0  0  0  0  0  0  0  0  0  0
   -9.7937    2.2512   -6.8758 N   0  0  0  0  0  0  0  0  0  0  0  0
   -9.1052    1.6860   -8.0515 C   0  0  0  0  0  0  0  0  0  0  0  0
   -8.9006    2.7010   -9.1866 C   0  0  0  0  0  0  0  0  0  0  0  0
   -8.1806    6.2251   -9.3315 N   0  0  0  0  0  0  0  0  0  0  0  0
  1  2  1  0
  2  3  1  0
  3  4  2  0
  4  5  1  0
  5  6  1  0
  6  7  1  0
  7  8  1  0
  8  9  1  0
  9 10  2  0
 10 11  1  0
 11 12  1  0
 11 13  2  0
 13 14  1  0
 14 15  1  0
 15 16  1  0
 14 17  2  0
  5 18  2  0
 18 19  1  0
 19 20  1  0
 20 21  1  0
 21 22  1  0
 22 23  1  0
 23 24  1  0
 24 25  1  0
 19 26  2  0
 26  3  1  0
 17  9  1  0
 25 20  1  0
M  END
>  <smiles>  (234) 
C82047-P54

>  <fragmenstein_outcome>  (234) 
acceptable

>  <inchikey>  (234) 
DYBACPORKIVZMF-UHFFFAOYSA-N

>  <fragmenstein_mode>  (234) 
expansion

>  <HIPPO Pose ID>  (234) 
6738

>  <Energy>  (234) 
-50.968069

>  <fragmenstein_error>  (234) 


>  <tags>  (234) 
{'openbind_xx01zvns2b_c1_fragmenstein', 'fragmenstein_placed'}

>  <ref_pdb>  (234) 
1

>  <scratch_subdir>  (234) 
/opt/xchem-fragalysis-2/maxwin/BulkDock/SCRATCH/511027/C82047-P54

>  <alias>  (234) 
COc1cc(OCNc2cc(C)cc(CN)c2)nc(N2CCNCC2)n1

>  <HIPPO Compound ID>  (234) 
82047

>  <fragmenstein_runtime>  (234) 
7.550121

$$$$
CO[C@@H]1C[C@H](C(=O)Oc2ccc3c(c2)CNC3)N[C@H]2N1NC(=O)C21CCNCC1
     RDKit          3D

 29 33  0  0  0  0  0  0  0  0999 V2000
  -10.4865    4.7542  -18.2897 C   0  0  0  0  0  0  0  0  0  0  0  0
   -9.5622    3.7409  -17.9757 O   0  0  0  0  0  0  0  0  0  0  0  0
   -8.4393    4.1381  -17.1953 C   0  0  2  0  0  0  0  0  0  0  0  0
   -8.8048    4.5991  -15.7879 C   0  0  0  0  0  0  0  0  0  0  0  0
   -7.5425    4.7035  -14.9392 C   0  0  2  0  0  0  0  0  0  0  0  0
   -7.9234    5.2742  -13.5700 C   0  0  0  0  0  0  0  0  0  0  0  0
   -8.2608    6.4288  -13.3451 O   0  0  0  0  0  0  0  0  0  0  0  0
   -7.8571    4.2290  -12.6444 O   0  0  0  0  0  0  0  0  0  0  0  0
   -8.0897    4.3395  -11.2550 C   0  0  0  0  0  0  0  0  0  0  0  0
   -7.9262    5.5214  -10.5264 C   0  0  0  0  0  0  0  0  0  0  0  0
   -8.0846    5.5061   -9.1353 C   0  0  0  0  0  0  0  0  0  0  0  0
   -8.3967    4.3064   -8.5132 C   0  0  0  0  0  0  0  0  0  0  0  0
   -8.5612    3.1397   -9.2475 C   0  0  0  0  0  0  0  0  0  0  0  0
   -8.4108    3.1379  -10.6219 C   0  0  0  0  0  0  0  0  0  0  0  0
   -8.8340    2.0018   -8.3237 C   0  0  0  0  0  0  0  0  0  0  0  0
   -9.0630    2.6095   -6.9872 N   0  0  0  0  0  0  0  0  0  0  0  0
   -8.5728    4.0027   -7.0632 C   0  0  0  0  0  0  0  0  0  0  0  0
   -6.5297    5.5567  -15.6157 N   0  0  0  0  0  0  0  0  0  0  0  0
   -6.2849    5.0362  -16.9535 C   0  0  1  0  0  0  0  0  0  0  0  0
   -7.5145    5.1282  -17.7569 N   0  0  0  0  0  0  0  0  0  0  0  0
   -7.0533    4.8731  -19.0577 N   0  0  0  0  0  0  0  0  0  0  0  0
   -5.7206    5.2472  -19.1999 C   0  0  0  0  0  0  0  0  0  0  0  0
   -5.0884    5.2994  -20.2429 O   0  0  0  0  0  0  0  0  0  0  0  0
   -5.2149    5.7018  -17.8340 C   0  0  0  0  0  0  0  0  0  0  0  0
   -5.2429    7.2412  -17.8428 C   0  0  0  0  0  0  0  0  0  0  0  0
   -4.6177    7.8507  -16.5887 C   0  0  0  0  0  0  0  0  0  0  0  0
   -3.4349    7.1441  -16.0928 N   0  0  0  0  0  0  0  0  0  0  0  0
   -2.8395    6.2716  -17.0989 C   0  0  0  0  0  0  0  0  0  0  0  0
   -3.8071    5.1653  -17.5071 C   0  0  0  0  0  0  0  0  0  0  0  0
  1  2  1  0
  3  2  1  6
  3  4  1  0
  4  5  1  0
  5  6  1  1
  6  7  2  0
  6  8  1  0
  8  9  1  0
  9 10  2  0
 10 11  1  0
 11 12  2  0
 12 13  1  0
 13 14  2  0
 13 15  1  0
 15 16  1  0
 16 17  1  0
  5 18  1  0
 19 18  1  1
 19 20  1  0
 20 21  1  0
 21 22  1  0
 22 23  2  0
 22 24  1  0
 24 25  1  0
 25 26  1  0
 26 27  1  0
 27 28  1  0
 28 29  1  0
 20  3  1  0
 29 24  1  0
 14  9  1  0
 24 19  1  0
 17 12  1  0
M  END
>  <smiles>  (235) 
C82064-P54

>  <fragmenstein_outcome>  (235) 
acceptable

>  <inchikey>  (235) 
HOOANCNJEXNCKK-UHFFFAOYSA-N

>  <fragmenstein_mode>  (235) 
expansion

>  <HIPPO Pose ID>  (235) 
6749

>  <Energy>  (235) 
48.603281

>  <fragmenstein_error>  (235) 


>  <tags>  (235) 
{'openbind_xx01zvns2b_c1_fragmenstein', 'fragmenstein_placed'}

>  <ref_pdb>  (235) 
1

>  <scratch_subdir>  (235) 
/opt/xchem-fragalysis-2/maxwin/BulkDock/SCRATCH/511027/C82064-P54

>  <alias>  (235) 
CO[C@@H]1C[C@H](C(=O)Oc2ccc3c(c2)CNC3)N[C@H]2N1NC(=O)C21CCNCC1

>  <HIPPO Compound ID>  (235) 
82064

>  <fragmenstein_runtime>  (235) 
13.336389

$$$$
CN[C@@H](Nc1ccc2c(c1)CN[C@@H]2CC(=O)O)c1nnc2ccc(Cl)cn12
     RDKit          3D

 27 30  0  0  0  0  0  0  0  0999 V2000
   -9.3107    6.2555  -14.2764 C   0  0  0  0  0  0  0  0  0  0  0  0
   -7.9254    6.1206  -13.8637 N   0  0  0  0  0  0  0  0  0  0  0  0
   -7.5223    4.7041  -13.9004 C   0  0  1  0  0  0  0  0  0  0  0  0
   -8.0788    3.7727  -12.9279 N   0  0  0  0  0  0  0  0  0  0  0  0
   -8.0907    3.9629  -11.5489 C   0  0  0  0  0  0  0  0  0  0  0  0
   -7.3764    4.9746  -10.8785 C   0  0  0  0  0  0  0  0  0  0  0  0
   -7.4035    5.1195   -9.4813 C   0  0  0  0  0  0  0  0  0  0  0  0
   -8.0766    4.1786   -8.7311 C   0  0  0  0  0  0  0  0  0  0  0  0
   -8.6945    3.1104   -9.3603 C   0  0  0  0  0  0  0  0  0  0  0  0
   -8.7333    3.0097  -10.7474 C   0  0  0  0  0  0  0  0  0  0  0  0
   -9.1680    2.1449   -8.3280 C   0  0  0  0  0  0  0  0  0  0  0  0
   -9.1253    2.8878   -7.0473 N   0  0  0  0  0  0  0  0  0  0  0  0
   -8.1802    4.0156   -7.2409 C   0  0  2  0  0  0  0  0  0  0  0  0
   -8.6518    5.2752   -6.5225 C   0  0  0  0  0  0  0  0  0  0  0  0
   -8.6674    5.1394   -5.0289 C   0  0  0  0  0  0  0  0  0  0  0  0
   -9.4987    5.6313   -4.2796 O   0  0  0  0  0  0  0  0  0  0  0  0
   -7.6087    4.4924   -4.5044 O   0  0  0  0  0  0  0  0  0  0  0  0
   -7.7091    4.2749  -15.3339 C   0  0  0  0  0  0  0  0  0  0  0  0
   -8.8412    3.8457  -15.8724 N   0  0  0  0  0  0  0  0  0  0  0  0
   -8.7381    3.9395  -17.2353 N   0  0  0  0  0  0  0  0  0  0  0  0
   -7.5317    4.3807  -17.5088 C   0  0  0  0  0  0  0  0  0  0  0  0
   -6.8621    4.6208  -18.7308 C   0  0  0  0  0  0  0  0  0  0  0  0
   -5.5795    5.0337  -18.7190 C   0  0  0  0  0  0  0  0  0  0  0  0
   -4.8636    5.2350  -17.4705 C   0  0  0  0  0  0  0  0  0  0  0  0
   -3.2130    5.6983  -17.5197 Cl  0  0  0  0  0  0  0  0  0  0  0  0
   -5.4956    5.0218  -16.3061 C   0  0  0  0  0  0  0  0  0  0  0  0
   -6.8199    4.5837  -16.3355 N   0  0  0  0  0  0  0  0  0  0  0  0
  1  2  1  0
  3  2  1  6
  3  4  1  0
  4  5  1  0
  5  6  2  0
  6  7  1  0
  7  8  2  0
  8  9  1  0
  9 10  2  0
  9 11  1  0
 11 12  1  0
 12 13  1  0
 13 14  1  1
 14 15  1  0
 15 16  2  0
 15 17  1  0
  3 18  1  0
 18 19  2  0
 19 20  1  0
 20 21  2  0
 21 22  1  0
 22 23  2  0
 23 24  1  0
 24 25  1  0
 24 26  2  0
 26 27  1  0
 10  5  1  0
 27 18  1  0
 13  8  1  0
 27 21  1  0
M  END
>  <smiles>  (236) 
C82270-P55

>  <fragmenstein_outcome>  (236) 
acceptable

>  <inchikey>  (236) 
FMMULQVBBZNJDZ-UHFFFAOYSA-N

>  <fragmenstein_mode>  (236) 
expansion

>  <HIPPO Pose ID>  (236) 
6834

>  <Energy>  (236) 
-27.112899

>  <fragmenstein_error>  (236) 


>  <tags>  (236) 
{'openbind_xx01zvns2b_c1_fragmenstein', 'fragmenstein_placed'}

>  <ref_pdb>  (236) 
1

>  <scratch_subdir>  (236) 
/opt/xchem-fragalysis-2/maxwin/BulkDock/SCRATCH/511027/C82270-P55

>  <alias>  (236) 
CN[C@@H](Nc1ccc2c(c1)CN[C@@H]2CC(=O)O)c1nnc2ccc(Cl)cn12

>  <HIPPO Compound ID>  (236) 
82270

>  <fragmenstein_runtime>  (236) 
2.993655

$$$$
CNCc1ccc(F)cc1
     RDKit          3D

 10 10  0  0  0  0  0  0  0  0999 V2000
   -8.2020    3.8541  -11.5390 C   0  0  0  0  0  0  0  0  0  0  0  0
   -7.9121    3.7552  -12.9598 N   0  0  0  0  0  0  0  0  0  0  0  0
   -8.0061    5.0450  -13.6259 C   0  0  0  0  0  0  0  0  0  0  0  0
   -7.7477    4.9218  -15.1093 C   0  0  0  0  0  0  0  0  0  0  0  0
   -6.4871    5.2133  -15.6496 C   0  0  0  0  0  0  0  0  0  0  0  0
   -6.2633    5.0846  -17.0215 C   0  0  0  0  0  0  0  0  0  0  0  0
   -7.2951    4.6594  -17.8506 C   0  0  0  0  0  0  0  0  0  0  0  0
   -7.0667    4.5044  -19.1581 F   0  0  0  0  0  0  0  0  0  0  0  0
   -8.5486    4.3639  -17.3398 C   0  0  0  0  0  0  0  0  0  0  0  0
   -8.7671    4.4830  -15.9693 C   0  0  0  0  0  0  0  0  0  0  0  0
  1  2  1  0
  2  3  1  0
  3  4  1  0
  4  5  2  0
  5  6  1  0
  6  7  2  0
  7  8  1  0
  7  9  1  0
  9 10  2  0
 10  4  1  0
M  END
>  <smiles>  (237) 
C82289-P55

>  <fragmenstein_outcome>  (237) 
acceptable

>  <inchikey>  (237) 
OXKQFQHPVGPJJQ-UHFFFAOYSA-N

>  <fragmenstein_mode>  (237) 
expansion

>  <HIPPO Pose ID>  (237) 
6845

>  <Energy>  (237) 
14.256764

>  <fragmenstein_error>  (237) 


>  <tags>  (237) 
{'openbind_xx01zvns2b_c1_fragmenstein', 'fragmenstein_placed'}

>  <ref_pdb>  (237) 
1

>  <scratch_subdir>  (237) 
/opt/xchem-fragalysis-2/maxwin/BulkDock/SCRATCH/511027/C82289-P55

>  <alias>  (237) 
CNCc1ccc(F)cc1

>  <HIPPO Compound ID>  (237) 
92729

>  <fragmenstein_runtime>  (237) 
0.996233

$$$$
C[C@@H]1CN(C)N2CCN[C@@H](O)[C@@H]12
     RDKit          3D

 12 13  0  0  0  0  0  0  0  0999 V2000
   -1.1581    6.6540  -17.1570 C   0  0  0  0  0  0  0  0  0  0  0  0
   -2.1623    6.4858  -18.2909 C   0  0  2  0  0  0  0  0  0  0  0  0
   -1.8434    7.4031  -19.4618 C   0  0  0  0  0  0  0  0  0  0  0  0
   -3.0978    7.4771  -20.2238 N   0  0  0  0  0  0  0  0  0  0  0  0
   -3.1650    6.3734  -21.1913 C   0  0  0  0  0  0  0  0  0  0  0  0
   -4.1487    7.4497  -19.1958 N   0  0  0  0  0  0  0  0  0  0  0  0
   -5.4520    6.8951  -19.5821 C   0  0  0  0  0  0  0  0  0  0  0  0
   -5.6743    5.3828  -19.3298 C   0  0  0  0  0  0  0  0  0  0  0  0
   -4.9089    4.7733  -18.2258 N   0  0  0  0  0  0  0  0  0  0  0  0
   -4.4668    5.7729  -17.2819 C   0  0  1  0  0  0  0  0  0  0  0  0
   -3.7486    5.0793  -16.2862 O   0  0  0  0  0  0  0  0  0  0  0  0
   -3.5995    6.8899  -17.9376 C   0  0  1  0  0  0  0  0  0  0  0  0
  2  1  1  1
  2  3  1  0
  3  4  1  0
  4  5  1  0
  4  6  1  0
  6  7  1  0
  7  8  1  0
  8  9  1  0
  9 10  1  0
 10 11  1  1
 10 12  1  0
 12  2  1  0
 12  6  1  6
M  END
>  <smiles>  (238) 
C82649-P57

>  <fragmenstein_outcome>  (238) 
acceptable

>  <inchikey>  (238) 
ICHHUCXSFIJYCD-UHFFFAOYSA-N

>  <fragmenstein_mode>  (238) 
expansion

>  <HIPPO Pose ID>  (238) 
7018

>  <Energy>  (238) 
82.983083

>  <fragmenstein_error>  (238) 


>  <tags>  (238) 
{'openbind_xx01zvns2b_c1_fragmenstein', 'fragmenstein_placed'}

>  <ref_pdb>  (238) 
1

>  <scratch_subdir>  (238) 
/opt/xchem-fragalysis-2/maxwin/BulkDock/SCRATCH/511027/C82649-P57

>  <alias>  (238) 
C[C@@H]1CN(C)N2CCN[C@@H](O)[C@@H]12

>  <HIPPO Compound ID>  (238) 
91284

>  <fragmenstein_runtime>  (238) 
0.957289

$$$$
Cc1cc([C@H](Nc2ccc3c(c2)CNC3)C(=O)NCC(C)C)c2c[nH]nc2c1
     RDKit          3D

 28 31  0  0  0  0  0  0  0  0999 V2000
   -4.4382    5.9353  -17.8333 C   0  0  0  0  0  0  0  0  0  0  0  0
   -5.7899    5.5197  -17.3282 C   0  0  0  0  0  0  0  0  0  0  0  0
   -6.0818    5.6318  -15.9136 C   0  0  0  0  0  0  0  0  0  0  0  0
   -7.3050    5.2551  -15.2843 C   0  0  0  0  0  0  0  0  0  0  0  0
   -7.5639    5.4921  -13.7985 C   0  0  2  0  0  0  0  0  0  0  0  0
   -7.6998    4.2096  -13.0665 N   0  0  0  0  0  0  0  0  0  0  0  0
   -7.8870    4.1866  -11.6711 C   0  0  0  0  0  0  0  0  0  0  0  0
   -7.5097    5.2383  -10.8140 C   0  0  0  0  0  0  0  0  0  0  0  0
   -7.7125    5.1927   -9.4276 C   0  0  0  0  0  0  0  0  0  0  0  0
   -8.2269    4.0402   -8.8797 C   0  0  0  0  0  0  0  0  0  0  0  0
   -8.5119    2.9494   -9.6829 C   0  0  0  0  0  0  0  0  0  0  0  0
   -8.3455    3.0055  -11.0646 C   0  0  0  0  0  0  0  0  0  0  0  0
   -8.9349    1.8147   -8.8115 C   0  0  0  0  0  0  0  0  0  0  0  0
   -9.1546    2.3865   -7.4588 N   0  0  0  0  0  0  0  0  0  0  0  0
   -8.5043    3.7099   -7.4537 C   0  0  0  0  0  0  0  0  0  0  0  0
   -8.8402    6.4068  -13.5119 C   0  0  0  0  0  0  0  0  0  0  0  0
   -9.9274    6.0652  -13.7916 O   0  0  0  0  0  0  0  0  0  0  0  0
   -8.3419    7.6816  -12.7453 N   0  0  0  0  0  0  0  0  0  0  0  0
   -9.0879    8.7352  -12.0904 C   0  0  0  0  0  0  0  0  0  0  0  0
   -9.7036    9.7932  -13.0109 C   0  0  0  0  0  0  0  0  0  0  0  0
  -11.0525    9.3383  -13.5691 C   0  0  0  0  0  0  0  0  0  0  0  0
   -9.9015   11.1045  -12.2436 C   0  0  0  0  0  0  0  0  0  0  0  0
   -8.1331    4.7180  -16.2710 C   0  0  0  0  0  0  0  0  0  0  0  0
   -9.3663    4.1976  -16.0678 C   0  0  0  0  0  0  0  0  0  0  0  0
   -9.9054    4.0238  -17.3026 N   0  0  0  0  0  0  0  0  0  0  0  0
   -9.0062    4.0911  -18.2882 N   0  0  0  0  0  0  0  0  0  0  0  0
   -7.9092    4.5916  -17.6925 C   0  0  0  0  0  0  0  0  0  0  0  0
   -6.7028    4.9885  -18.2655 C   0  0  0  0  0  0  0  0  0  0  0  0
  1  2  1  0
  2  3  1  0
  3  4  2  0
  4  5  1  0
  5  6  1  1
  6  7  1  0
  7  8  2  0
  8  9  1  0
  9 10  2  0
 10 11  1  0
 11 12  2  0
 11 13  1  0
 13 14  1  0
 14 15  1  0
  5 16  1  0
 16 17  2  0
 16 18  1  0
 18 19  1  0
 19 20  1  0
 20 21  1  0
 20 22  1  0
  4 23  1  0
 23 24  2  0
 24 25  1  0
 25 26  1  0
 26 27  2  0
 27 28  1  0
 28  2  2  0
 12  7  1  0
 27 23  1  0
 15 10  1  0
M  END
>  <smiles>  (239) 
C82984-P123

>  <fragmenstein_outcome>  (239) 
acceptable

>  <inchikey>  (239) 
VHUOVONRIIWWAB-UHFFFAOYSA-N

>  <fragmenstein_mode>  (239) 
expansion

>  <HIPPO Pose ID>  (239) 
7197

>  <Energy>  (239) 
116.443229

>  <fragmenstein_error>  (239) 


>  <tags>  (239) 
{'openbind_xx01zvns2b_c1_fragmenstein', 'fragmenstein_placed'}

>  <ref_pdb>  (239) 
1

>  <scratch_subdir>  (239) 
/opt/xchem-fragalysis-2/maxwin/BulkDock/SCRATCH/511027/C82984-P123

>  <alias>  (239) 
Cc1cc([C@H](Nc2ccc3c(c2)CNC3)C(=O)NCC(C)C)c2c[nH]nc2c1

>  <HIPPO Compound ID>  (239) 
80407

>  <fragmenstein_runtime>  (239) 
5.879641

$$$$
O=C(NCC(F)F)[C@@H](Nc1ccc2c(c1)CNC2)c1ccccc1C(F)(F)N1CCNCC1
     RDKit          3D

 33 36  0  0  0  0  0  0  0  0999 V2000
   -7.2944    7.1990  -14.1134 O   0  0  0  0  0  0  0  0  0  0  0  0
   -6.7621    6.2576  -13.6643 C   0  0  0  0  0  0  0  0  0  0  0  0
   -5.5586    6.1526  -12.6756 N   0  0  0  0  0  0  0  0  0  0  0  0
   -4.8322    7.1836  -11.9690 C   0  0  0  0  0  0  0  0  0  0  0  0
   -3.3353    6.9280  -11.8482 C   0  0  0  0  0  0  0  0  0  0  0  0
   -3.1075    5.7019  -11.3133 F   0  0  0  0  0  0  0  0  0  0  0  0
   -2.7429    6.9416  -13.0684 F   0  0  0  0  0  0  0  0  0  0  0  0
   -7.2150    4.7796  -13.9934 C   0  0  1  0  0  0  0  0  0  0  0  0
   -8.3626    4.3377  -13.1333 N   0  0  0  0  0  0  0  0  0  0  0  0
   -8.2596    4.3392  -11.7296 C   0  0  0  0  0  0  0  0  0  0  0  0
   -8.1224    5.5302  -10.9894 C   0  0  0  0  0  0  0  0  0  0  0  0
   -8.1313    5.5408   -9.5866 C   0  0  0  0  0  0  0  0  0  0  0  0
   -8.3335    4.3466   -8.9256 C   0  0  0  0  0  0  0  0  0  0  0  0
   -8.4877    3.1622   -9.6322 C   0  0  0  0  0  0  0  0  0  0  0  0
   -8.4288    3.1389  -11.0196 C   0  0  0  0  0  0  0  0  0  0  0  0
   -8.7504    2.0495   -8.6681 C   0  0  0  0  0  0  0  0  0  0  0  0
   -9.0731    2.7219   -7.3788 N   0  0  0  0  0  0  0  0  0  0  0  0
   -8.4662    4.0647   -7.4674 C   0  0  0  0  0  0  0  0  0  0  0  0
   -7.5614    4.6370  -15.5030 C   0  0  0  0  0  0  0  0  0  0  0  0
   -8.8819    4.3482  -15.8899 C   0  0  0  0  0  0  0  0  0  0  0  0
   -9.2713    4.1802  -17.2209 C   0  0  0  0  0  0  0  0  0  0  0  0
   -8.3311    4.2635  -18.2245 C   0  0  0  0  0  0  0  0  0  0  0  0
   -7.0101    4.5178  -17.8840 C   0  0  0  0  0  0  0  0  0  0  0  0
   -6.6025    4.7482  -16.5454 C   0  0  0  0  0  0  0  0  0  0  0  0
   -5.1325    5.0521  -16.3028 C   0  0  0  0  0  0  0  0  0  0  0  0
   -4.8112    4.7756  -15.0062 F   0  0  0  0  0  0  0  0  0  0  0  0
   -4.3077    4.2414  -17.0260 F   0  0  0  0  0  0  0  0  0  0  0  0
   -4.7422    6.4427  -16.5510 N   0  0  0  0  0  0  0  0  0  0  0  0
   -4.9008    6.8827  -17.9457 C   0  0  0  0  0  0  0  0  0  0  0  0
   -3.9129    6.2739  -18.9752 C   0  0  0  0  0  0  0  0  0  0  0  0
   -2.6482    5.7757  -18.3971 N   0  0  0  0  0  0  0  0  0  0  0  0
   -2.2721    6.6288  -17.2579 C   0  0  0  0  0  0  0  0  0  0  0  0
   -3.3411    6.6774  -16.1324 C   0  0  0  0  0  0  0  0  0  0  0  0
  1  2  2  0
  2  3  1  0
  3  4  1  0
  4  5  1  0
  5  6  1  0
  5  7  1  0
  2  8  1  0
  8  9  1  1
  9 10  1  0
 10 11  2  0
 11 12  1  0
 12 13  2  0
 13 14  1  0
 14 15  2  0
 14 16  1  0
 16 17  1  0
 17 18  1  0
  8 19  1  0
 19 20  2  0
 20 21  1  0
 21 22  2  0
 22 23  1  0
 23 24  2  0
 24 25  1  0
 25 26  1  0
 25 27  1  0
 25 28  1  0
 28 29  1  0
 29 30  1  0
 30 31  1  0
 31 32  1  0
 32 33  1  0
 15 10  1  0
 24 19  1  0
 33 28  1  0
 18 13  1  0
M  END
>  <smiles>  (240) 
C83034-P58

>  <fragmenstein_outcome>  (240) 
acceptable

>  <inchikey>  (240) 
WYDYKHYUQNEPSX-UHFFFAOYSA-N

>  <fragmenstein_mode>  (240) 
expansion

>  <HIPPO Pose ID>  (240) 
7220

>  <Energy>  (240) 
186.148029

>  <fragmenstein_error>  (240) 


>  <tags>  (240) 
{'openbind_xx01zvns2b_c1_fragmenstein', 'fragmenstein_placed'}

>  <ref_pdb>  (240) 
1

>  <scratch_subdir>  (240) 
/opt/xchem-fragalysis-2/maxwin/BulkDock/SCRATCH/511027/C83034-P58

>  <alias>  (240) 
O=C(NCC(F)F)[C@@H](Nc1ccc2c(c1)CNC2)c1ccccc1C(F)(F)N1CCNCC1

>  <HIPPO Compound ID>  (240) 
83034

>  <fragmenstein_runtime>  (240) 
8.890893

$$$$
O=C(Nc1ccc2c(c1)CNC2)c1cccc2c1[C@@H](O)NC21CCNCC1
     RDKit          3D

 27 31  0  0  0  0  0  0  0  0999 V2000
   -7.2945    6.5448  -13.7016 O   0  0  0  0  0  0  0  0  0  0  0  0
   -7.6143    5.4420  -13.9212 C   0  0  0  0  0  0  0  0  0  0  0  0
   -7.9745    4.2935  -12.9551 N   0  0  0  0  0  0  0  0  0  0  0  0
   -8.1051    4.2848  -11.5655 C   0  0  0  0  0  0  0  0  0  0  0  0
   -7.9081    5.4640  -10.8250 C   0  0  0  0  0  0  0  0  0  0  0  0
   -7.9945    5.4640   -9.4295 C   0  0  0  0  0  0  0  0  0  0  0  0
   -8.2809    4.2720   -8.7928 C   0  0  0  0  0  0  0  0  0  0  0  0
   -8.4869    3.1067   -9.5180 C   0  0  0  0  0  0  0  0  0  0  0  0
   -8.3991    3.0921  -10.9045 C   0  0  0  0  0  0  0  0  0  0  0  0
   -8.7984    1.9892   -8.5806 C   0  0  0  0  0  0  0  0  0  0  0  0
   -8.7265    2.5545   -7.2061 N   0  0  0  0  0  0  0  0  0  0  0  0
   -8.4375    3.9950   -7.3387 C   0  0  0  0  0  0  0  0  0  0  0  0
   -7.5849    5.0209  -15.3442 C   0  0  0  0  0  0  0  0  0  0  0  0
   -8.6419    4.3725  -15.9769 C   0  0  0  0  0  0  0  0  0  0  0  0
   -8.6210    4.1949  -17.3723 C   0  0  0  0  0  0  0  0  0  0  0  0
   -7.5429    4.6489  -18.1444 C   0  0  0  0  0  0  0  0  0  0  0  0
   -6.4781    5.2580  -17.5027 C   0  0  0  0  0  0  0  0  0  0  0  0
   -6.5027    5.4242  -16.1168 C   0  0  0  0  0  0  0  0  0  0  0  0
   -5.2644    6.1289  -15.6848 C   0  0  1  0  0  0  0  0  0  0  0  0
   -4.6961    5.5243  -14.5549 O   0  0  0  0  0  0  0  0  0  0  0  0
   -4.3567    6.0096  -16.8230 N   0  0  0  0  0  0  0  0  0  0  0  0
   -5.2099    5.8800  -18.0423 C   0  0  0  0  0  0  0  0  0  0  0  0
   -4.4741    5.0181  -19.0823 C   0  0  0  0  0  0  0  0  0  0  0  0
   -3.7627    5.8482  -20.1566 C   0  0  0  0  0  0  0  0  0  0  0  0
   -3.1742    7.0728  -19.6186 N   0  0  0  0  0  0  0  0  0  0  0  0
   -4.2273    7.9744  -19.1455 C   0  0  0  0  0  0  0  0  0  0  0  0
   -5.4985    7.2714  -18.6481 C   0  0  0  0  0  0  0  0  0  0  0  0
  1  2  2  0
  2  3  1  0
  3  4  1  0
  4  5  2  0
  5  6  1  0
  6  7  2  0
  7  8  1  0
  8  9  2  0
  8 10  1  0
 10 11  1  0
 11 12  1  0
  2 13  1  0
 13 14  2  0
 14 15  1  0
 15 16  2  0
 16 17  1  0
 17 18  2  0
 18 19  1  0
 19 20  1  1
 19 21  1  0
 21 22  1  0
 22 23  1  0
 23 24  1  0
 24 25  1  0
 25 26  1  0
 26 27  1  0
  9  4  1  0
 18 13  1  0
 27 22  1  0
 12  7  1  0
 22 17  1  0
M  END
>  <smiles>  (241) 
C83057-P58

>  <fragmenstein_outcome>  (241) 
acceptable

>  <inchikey>  (241) 
DBISQDFEVPUCJS-UHFFFAOYSA-N

>  <fragmenstein_mode>  (241) 
expansion

>  <HIPPO Pose ID>  (241) 
7236

>  <Energy>  (241) 
12.68669

>  <fragmenstein_error>  (241) 


>  <tags>  (241) 
{'openbind_xx01zvns2b_c1_fragmenstein', 'fragmenstein_placed'}

>  <ref_pdb>  (241) 
1

>  <scratch_subdir>  (241) 
/opt/xchem-fragalysis-2/maxwin/BulkDock/SCRATCH/511027/C83057-P58

>  <alias>  (241) 
O=C(Nc1ccc2c(c1)CNC2)c1cccc2c1[C@@H](O)NC21CCNCC1

>  <HIPPO Compound ID>  (241) 
83057

>  <fragmenstein_runtime>  (241) 
4.737944

$$$$
CN1C[C@H](NC(=O)c2ccccc2-c2ccnc3c2ncn3C)C[C@]12CCNC2
     RDKit          3D

 29 33  0  0  0  0  0  0  0  0999 V2000
   -7.5580    3.7203   -9.0942 C   0  0  0  0  0  0  0  0  0  0  0  0
   -6.7138    4.1387  -10.2198 N   0  0  0  0  0  0  0  0  0  0  0  0
   -7.0238    3.3251  -11.4180 C   0  0  0  0  0  0  0  0  0  0  0  0
   -8.1446    4.0493  -12.1734 C   0  0  2  0  0  0  0  0  0  0  0  0
   -7.9599    4.0381  -13.6168 N   0  0  0  0  0  0  0  0  0  0  0  0
   -7.9399    5.1948  -14.6312 C   0  0  0  0  0  0  0  0  0  0  0  0
   -7.9912    6.3469  -14.4641 O   0  0  0  0  0  0  0  0  0  0  0  0
   -7.9529    4.7029  -16.0367 C   0  0  0  0  0  0  0  0  0  0  0  0
   -9.1683    4.0694  -16.3655 C   0  0  0  0  0  0  0  0  0  0  0  0
   -9.5369    3.8186  -17.6787 C   0  0  0  0  0  0  0  0  0  0  0  0
   -8.6645    4.1583  -18.6835 C   0  0  0  0  0  0  0  0  0  0  0  0
   -7.4389    4.7466  -18.3619 C   0  0  0  0  0  0  0  0  0  0  0  0
   -7.0138    5.0334  -17.0370 C   0  0  0  0  0  0  0  0  0  0  0  0
   -5.6694    5.6517  -16.8365 C   0  0  0  0  0  0  0  0  0  0  0  0
   -5.2763    6.4846  -15.7712 C   0  0  0  0  0  0  0  0  0  0  0  0
   -4.0091    7.0673  -15.7185 C   0  0  0  0  0  0  0  0  0  0  0  0
   -3.0452    6.9393  -16.6505 N   0  0  0  0  0  0  0  0  0  0  0  0
   -3.4384    6.1397  -17.6556 C   0  0  0  0  0  0  0  0  0  0  0  0
   -4.6494    5.4684  -17.8054 C   0  0  0  0  0  0  0  0  0  0  0  0
   -4.6183    4.7315  -18.9728 N   0  0  0  0  0  0  0  0  0  0  0  0
   -3.4786    5.0124  -19.5496 C   0  0  0  0  0  0  0  0  0  0  0  0
   -2.7246    5.8481  -18.7820 N   0  0  0  0  0  0  0  0  0  0  0  0
   -1.4283    6.3781  -19.1029 C   0  0  0  0  0  0  0  0  0  0  0  0
   -8.2133    5.4309  -11.5146 C   0  0  0  0  0  0  0  0  0  0  0  0
   -6.9550    5.5311  -10.6471 C   0  0  2  0  0  0  0  0  0  0  0  0
   -5.7654    6.0846  -11.4417 C   0  0  0  0  0  0  0  0  0  0  0  0
   -5.9635    7.5952  -11.4010 C   0  0  0  0  0  0  0  0  0  0  0  0
   -6.8218    7.9000  -10.2441 N   0  0  0  0  0  0  0  0  0  0  0  0
   -7.0597    6.6139   -9.5613 C   0  0  0  0  0  0  0  0  0  0  0  0
  1  2  1  0
  2  3  1  0
  3  4  1  0
  4  5  1  6
  5  6  1  0
  6  7  2  0
  6  8  1  0
  8  9  2  0
  9 10  1  0
 10 11  2  0
 11 12  1  0
 12 13  2  0
 13 14  1  0
 14 15  2  0
 15 16  1  0
 16 17  2  0
 17 18  1  0
 18 19  2  0
 19 20  1  0
 20 21  2  0
 21 22  1  0
 22 23  1  0
  4 24  1  0
 25 24  1  6
 25 26  1  0
 26 27  1  0
 27 28  1  0
 28 29  1  0
 25  2  1  0
 13  8  1  0
 19 14  1  0
 29 25  1  0
 22 18  1  0
M  END
>  <smiles>  (242) 
C84524-P65

>  <fragmenstein_outcome>  (242) 
acceptable

>  <inchikey>  (242) 
OULZAVJIGZFFOW-UHFFFAOYSA-N

>  <fragmenstein_mode>  (242) 
expansion

>  <HIPPO Pose ID>  (242) 
8116

>  <Energy>  (242) 
133.818211

>  <fragmenstein_error>  (242) 


>  <tags>  (242) 
{'openbind_xx01zvns2b_c1_fragmenstein', 'fragmenstein_placed'}

>  <ref_pdb>  (242) 
1

>  <scratch_subdir>  (242) 
/opt/xchem-fragalysis-2/maxwin/BulkDock/SCRATCH/511027/C84524-P65

>  <alias>  (242) 
CN1C[C@H](NC(=O)c2ccccc2-c2ccnc3c2ncn3C)C[C@]12CCNC2

>  <HIPPO Compound ID>  (242) 
83152

>  <fragmenstein_runtime>  (242) 
6.714195

$$$$
COc1cc(-c2ccccc2C(=O)N[C@H]2CN(C)[C@@]3(CCNC3)C2)c(CCN)cn1
     RDKit          3D

 30 33  0  0  0  0  0  0  0  0999 V2000
   -1.8672    5.6719  -13.7784 C   0  0  0  0  0  0  0  0  0  0  0  0
   -3.0728    5.0065  -14.1353 O   0  0  0  0  0  0  0  0  0  0  0  0
   -3.5608    5.3990  -15.3665 C   0  0  0  0  0  0  0  0  0  0  0  0
   -4.7673    4.8398  -15.7504 C   0  0  0  0  0  0  0  0  0  0  0  0
   -5.4035    5.2654  -16.9331 C   0  0  0  0  0  0  0  0  0  0  0  0
   -6.7711    4.7604  -17.2278 C   0  0  0  0  0  0  0  0  0  0  0  0
   -7.1193    4.2983  -18.5083 C   0  0  0  0  0  0  0  0  0  0  0  0
   -8.4197    3.8924  -18.8269 C   0  0  0  0  0  0  0  0  0  0  0  0
   -9.3948    3.8413  -17.8481 C   0  0  0  0  0  0  0  0  0  0  0  0
   -9.0660    4.2166  -16.5551 C   0  0  0  0  0  0  0  0  0  0  0  0
   -7.7898    4.7111  -16.2518 C   0  0  0  0  0  0  0  0  0  0  0  0
   -7.6423    5.3784  -14.9283 C   0  0  0  0  0  0  0  0  0  0  0  0
   -7.3423    6.5025  -14.9239 O   0  0  0  0  0  0  0  0  0  0  0  0
   -8.0205    4.4452  -13.7702 N   0  0  0  0  0  0  0  0  0  0  0  0
   -8.2020    4.7194  -12.3726 C   0  0  1  0  0  0  0  0  0  0  0  0
   -8.1266    3.5349  -11.4275 C   0  0  0  0  0  0  0  0  0  0  0  0
   -8.0635    4.2189  -10.1336 N   0  0  0  0  0  0  0  0  0  0  0  0
   -7.7696    3.3102   -9.0428 C   0  0  0  0  0  0  0  0  0  0  0  0
   -7.1980    5.3972  -10.2779 C   0  0  2  0  0  0  0  0  0  0  0  0
   -5.7740    5.3408   -9.7138 C   0  0  0  0  0  0  0  0  0  0  0  0
   -5.4035    6.8107   -9.6269 C   0  0  0  0  0  0  0  0  0  0  0  0
   -6.6272    7.4873   -9.1854 N   0  0  0  0  0  0  0  0  0  0  0  0
   -7.7637    6.6053   -9.5057 C   0  0  0  0  0  0  0  0  0  0  0  0
   -7.1627    5.6708  -11.8003 C   0  0  0  0  0  0  0  0  0  0  0  0
   -4.7148    6.2098  -17.7257 C   0  0  0  0  0  0  0  0  0  0  0  0
   -5.2306    6.7982  -19.0206 C   0  0  0  0  0  0  0  0  0  0  0  0
   -4.6036    6.2016  -20.2912 C   0  0  0  0  0  0  0  0  0  0  0  0
   -3.2155    6.6292  -20.5036 N   0  0  0  0  0  0  0  0  0  0  0  0
   -3.4816    6.6783  -17.2532 C   0  0  0  0  0  0  0  0  0  0  0  0
   -2.8895    6.3002  -16.1015 N   0  0  0  0  0  0  0  0  0  0  0  0
  1  2  1  0
  2  3  1  0
  3  4  2  0
  4  5  1  0
  5  6  1  0
  6  7  2  0
  7  8  1  0
  8  9  2  0
  9 10  1  0
 10 11  2  0
 11 12  1  0
 12 13  2  0
 12 14  1  0
 15 14  1  6
 15 16  1  0
 16 17  1  0
 17 18  1  0
 17 19  1  0
 19 20  1  1
 20 21  1  0
 21 22  1  0
 22 23  1  0
 19 24  1  0
  5 25  2  0
 25 26  1  0
 26 27  1  0
 27 28  1  0
 25 29  1  0
 29 30  2  0
 30  3  1  0
 11  6  1  0
 24 15  1  0
 23 19  1  0
M  END
>  <smiles>  (243) 
C84577-P65

>  <fragmenstein_outcome>  (243) 
acceptable

>  <inchikey>  (243) 
DBYHHIAJAOPMQA-UHFFFAOYSA-N

>  <fragmenstein_mode>  (243) 
expansion

>  <HIPPO Pose ID>  (243) 
8158

>  <Energy>  (243) 
109.874059

>  <fragmenstein_error>  (243) 


>  <tags>  (243) 
{'openbind_xx01zvns2b_c1_fragmenstein', 'fragmenstein_placed'}

>  <ref_pdb>  (243) 
1

>  <scratch_subdir>  (243) 
/opt/xchem-fragalysis-2/maxwin/BulkDock/SCRATCH/511027/C84577-P65

>  <alias>  (243) 
COc1cc(-c2ccccc2C(=O)N[C@H]2CN(C)[C@@]3(CCNC3)C2)c(CCN)cn1

>  <HIPPO Compound ID>  (243) 
102642

>  <fragmenstein_runtime>  (243) 
3.666208

$$$$
Cc1cc(-c2c(C(=O)Nc3cnn(C)c3)cc(Cl)cc2C(=O)NC(C)(C)CO)cnc1F
     RDKit          3D

 32 34  0  0  0  0  0  0  0  0999 V2000
   -2.9249    9.2525  -16.7031 C   0  0  0  0  0  0  0  0  0  0  0  0
   -3.3584    7.9191  -16.1976 C   0  0  0  0  0  0  0  0  0  0  0  0
   -4.5558    7.3452  -16.6125 C   0  0  0  0  0  0  0  0  0  0  0  0
   -4.8997    6.0574  -16.1888 C   0  0  0  0  0  0  0  0  0  0  0  0
   -6.0968    5.3997  -16.7104 C   0  0  0  0  0  0  0  0  0  0  0  0
   -7.2043    5.1302  -15.8852 C   0  0  0  0  0  0  0  0  0  0  0  0
   -7.2648    5.5960  -14.4791 C   0  0  0  0  0  0  0  0  0  0  0  0
   -7.2403    6.7430  -14.2692 O   0  0  0  0  0  0  0  0  0  0  0  0
   -7.4312    4.4058  -13.5123 N   0  0  0  0  0  0  0  0  0  0  0  0
   -7.6834    4.3817  -12.1707 C   0  0  0  0  0  0  0  0  0  0  0  0
   -7.9189    3.2775  -11.3277 C   0  0  0  0  0  0  0  0  0  0  0  0
   -8.0938    3.6421  -10.0552 N   0  0  0  0  0  0  0  0  0  0  0  0
   -7.9996    4.9811  -10.0955 N   0  0  0  0  0  0  0  0  0  0  0  0
   -8.1001    5.7409   -8.8757 C   0  0  0  0  0  0  0  0  0  0  0  0
   -7.7543    5.4734  -11.3432 C   0  0  0  0  0  0  0  0  0  0  0  0
   -8.3707    4.5837  -16.4097 C   0  0  0  0  0  0  0  0  0  0  0  0
   -8.4323    4.3183  -17.7703 C   0  0  0  0  0  0  0  0  0  0  0  0
   -9.9183    3.8387  -18.4161 Cl  0  0  0  0  0  0  0  0  0  0  0  0
   -7.3518    4.5289  -18.6171 C   0  0  0  0  0  0  0  0  0  0  0  0
   -6.1880    5.0723  -18.0868 C   0  0  0  0  0  0  0  0  0  0  0  0
   -5.0352    5.3729  -18.9864 C   0  0  0  0  0  0  0  0  0  0  0  0
   -4.0214    4.8319  -18.7928 O   0  0  0  0  0  0  0  0  0  0  0  0
   -5.4014    6.4763  -19.9979 N   0  0  0  0  0  0  0  0  0  0  0  0
   -4.5613    7.2251  -20.9340 C   0  0  0  0  0  0  0  0  0  0  0  0
   -5.2494    7.3031  -22.3017 C   0  0  0  0  0  0  0  0  0  0  0  0
   -3.1820    6.5727  -21.1067 C   0  0  0  0  0  0  0  0  0  0  0  0
   -4.3437    8.6533  -20.3702 C   0  0  0  0  0  0  0  0  0  0  0  0
   -5.5825    9.3299  -20.1116 O   0  0  0  0  0  0  0  0  0  0  0  0
   -4.0233    5.4175  -15.3163 C   0  0  0  0  0  0  0  0  0  0  0  0
   -2.8595    5.9459  -14.8825 N   0  0  0  0  0  0  0  0  0  0  0  0
   -2.5515    7.1735  -15.3465 C   0  0  0  0  0  0  0  0  0  0  0  0
   -1.3808    7.6968  -14.9495 F   0  0  0  0  0  0  0  0  0  0  0  0
  1  2  1  0
  2  3  2  0
  3  4  1  0
  4  5  1  0
  5  6  1  0
  6  7  1  0
  7  8  2  0
  7  9  1  0
  9 10  1  0
 10 11  1  0
 11 12  2  0
 12 13  1  0
 13 14  1  0
 13 15  1  0
  6 16  2  0
 16 17  1  0
 17 18  1  0
 17 19  2  0
 19 20  1  0
 20 21  1  0
 21 22  2  0
 21 23  1  0
 23 24  1  0
 24 25  1  0
 24 26  1  0
 24 27  1  0
 27 28  1  0
  4 29  2  0
 29 30  1  0
 30 31  2  0
 31 32  1  0
 31  2  1  0
 20  5  2  0
 15 10  2  0
M  END
>  <smiles>  (244) 
C84907-P66

>  <fragmenstein_outcome>  (244) 
acceptable

>  <inchikey>  (244) 
JFNDNPKNZGDCAD-UHFFFAOYSA-N

>  <fragmenstein_mode>  (244) 
expansion

>  <HIPPO Pose ID>  (244) 
8317

>  <Energy>  (244) 
90.977591

>  <fragmenstein_error>  (244) 


>  <tags>  (244) 
{'openbind_xx01zvns2b_c1_fragmenstein', 'fragmenstein_placed'}

>  <ref_pdb>  (244) 
1

>  <scratch_subdir>  (244) 
/opt/xchem-fragalysis-2/maxwin/BulkDock/SCRATCH/511027/C84907-P66

>  <alias>  (244) 
Cc1cc(-c2c(C(=O)Nc3cnn(C)c3)cc(Cl)cc2C(=O)NC(C)(C)CO)cnc1F

>  <HIPPO Compound ID>  (244) 
88280

>  <fragmenstein_runtime>  (244) 
4.108985

$$$$
Cc1cc(-c2c(C(=O)Nc3cnn(C)c3)ccc(C)c2C)cnc1F
     RDKit          3D

 25 27  0  0  0  0  0  0  0  0999 V2000
   -3.1511    8.9867  -17.1780 C   0  0  0  0  0  0  0  0  0  0  0  0
   -3.6030    7.7096  -16.5523 C   0  0  0  0  0  0  0  0  0  0  0  0
   -4.8544    7.1634  -16.8402 C   0  0  0  0  0  0  0  0  0  0  0  0
   -5.2419    5.9434  -16.2737 C   0  0  0  0  0  0  0  0  0  0  0  0
   -6.5291    5.3172  -16.6086 C   0  0  0  0  0  0  0  0  0  0  0  0
   -7.5296    5.1388  -15.6326 C   0  0  0  0  0  0  0  0  0  0  0  0
   -7.3883    5.6139  -14.2333 C   0  0  0  0  0  0  0  0  0  0  0  0
   -7.1859    6.7418  -14.0149 O   0  0  0  0  0  0  0  0  0  0  0  0
   -7.6483    4.4377  -13.2664 N   0  0  0  0  0  0  0  0  0  0  0  0
   -7.7988    4.4221  -11.9139 C   0  0  0  0  0  0  0  0  0  0  0  0
   -8.0456    3.3218  -11.0705 C   0  0  0  0  0  0  0  0  0  0  0  0
   -8.1413    3.6838   -9.7895 N   0  0  0  0  0  0  0  0  0  0  0  0
   -7.9815    5.0170   -9.8274 N   0  0  0  0  0  0  0  0  0  0  0  0
   -8.0129    5.7708   -8.6016 C   0  0  0  0  0  0  0  0  0  0  0  0
   -7.7683    5.5086  -11.0803 C   0  0  0  0  0  0  0  0  0  0  0  0
   -8.7599    4.5568  -15.9439 C   0  0  0  0  0  0  0  0  0  0  0  0
   -9.0212    4.1411  -17.2306 C   0  0  0  0  0  0  0  0  0  0  0  0
   -8.0417    4.2657  -18.2187 C   0  0  0  0  0  0  0  0  0  0  0  0
   -8.4139    3.6989  -19.5470 C   0  0  0  0  0  0  0  0  0  0  0  0
   -6.7875    4.8440  -17.9242 C   0  0  0  0  0  0  0  0  0  0  0  0
   -5.7525    4.9934  -19.0143 C   0  0  0  0  0  0  0  0  0  0  0  0
   -4.3262    5.3321  -15.4182 C   0  0  0  0  0  0  0  0  0  0  0  0
   -3.0927    5.8111  -15.1387 N   0  0  0  0  0  0  0  0  0  0  0  0
   -2.7664    6.9871  -15.7101 C   0  0  0  0  0  0  0  0  0  0  0  0
   -1.5391    7.4664  -15.4542 F   0  0  0  0  0  0  0  0  0  0  0  0
  1  2  1  0
  2  3  2  0
  3  4  1  0
  4  5  1  0
  5  6  1  0
  6  7  1  0
  7  8  2  0
  7  9  1  0
  9 10  1  0
 10 11  1  0
 11 12  2  0
 12 13  1  0
 13 14  1  0
 13 15  1  0
  6 16  2  0
 16 17  1  0
 17 18  2  0
 18 19  1  0
 18 20  1  0
 20 21  1  0
  4 22  2  0
 22 23  1  0
 23 24  2  0
 24 25  1  0
 24  2  1  0
 20  5  2  0
 15 10  2  0
M  END
>  <smiles>  (245) 
C84923-P66

>  <fragmenstein_outcome>  (245) 
acceptable

>  <inchikey>  (245) 
ORVXKOMGWXGSQC-UHFFFAOYSA-N

>  <fragmenstein_mode>  (245) 
expansion

>  <HIPPO Pose ID>  (245) 
8322

>  <Energy>  (245) 
86.355956

>  <fragmenstein_error>  (245) 


>  <tags>  (245) 
{'openbind_xx01zvns2b_c1_fragmenstein', 'fragmenstein_placed'}

>  <ref_pdb>  (245) 
1

>  <scratch_subdir>  (245) 
/opt/xchem-fragalysis-2/maxwin/BulkDock/SCRATCH/511027/C84923-P66

>  <alias>  (245) 
Cc1cc(-c2c(C(=O)Nc3cnn(C)c3)ccc(C)c2C)cnc1F

>  <HIPPO Compound ID>  (245) 
107056

>  <fragmenstein_runtime>  (245) 
2.903246

$$$$
Cc1cc(C)c(-c2cnc(F)c(C)c2)c(C(=O)Nc2cnn(C)c2)c1
     RDKit          3D

 25 27  0  0  0  0  0  0  0  0999 V2000
  -10.2701    3.9191  -18.0855 C   0  0  0  0  0  0  0  0  0  0  0  0
   -8.9292    4.3021  -17.5741 C   0  0  0  0  0  0  0  0  0  0  0  0
   -7.8648    4.4078  -18.4619 C   0  0  0  0  0  0  0  0  0  0  0  0
   -6.6198    4.8855  -18.0361 C   0  0  0  0  0  0  0  0  0  0  0  0
   -5.5357    5.0020  -19.0695 C   0  0  0  0  0  0  0  0  0  0  0  0
   -6.4361    5.2949  -16.6926 C   0  0  0  0  0  0  0  0  0  0  0  0
   -5.1716    5.9124  -16.2773 C   0  0  0  0  0  0  0  0  0  0  0  0
   -4.3035    5.3019  -15.3761 C   0  0  0  0  0  0  0  0  0  0  0  0
   -3.0872    5.7850  -15.0344 N   0  0  0  0  0  0  0  0  0  0  0  0
   -2.7338    6.9630  -15.5869 C   0  0  0  0  0  0  0  0  0  0  0  0
   -1.5217    7.4436  -15.2686 F   0  0  0  0  0  0  0  0  0  0  0  0
   -3.5288    7.6877  -16.4656 C   0  0  0  0  0  0  0  0  0  0  0  0
   -3.0533    8.9688  -17.0647 C   0  0  0  0  0  0  0  0  0  0  0  0
   -4.7620    7.1393  -16.8144 C   0  0  0  0  0  0  0  0  0  0  0  0
   -7.5067    5.1113  -15.7974 C   0  0  0  0  0  0  0  0  0  0  0  0
   -7.4719    5.5898  -14.3907 C   0  0  0  0  0  0  0  0  0  0  0  0
   -7.2651    6.7184  -14.1773 O   0  0  0  0  0  0  0  0  0  0  0  0
   -7.8350    4.4382  -13.4265 N   0  0  0  0  0  0  0  0  0  0  0  0
   -7.9214    4.4164  -12.0666 C   0  0  0  0  0  0  0  0  0  0  0  0
   -8.2228    3.3352  -11.2157 C   0  0  0  0  0  0  0  0  0  0  0  0
   -8.2192    3.6910   -9.9288 N   0  0  0  0  0  0  0  0  0  0  0  0
   -7.9608    5.0082   -9.9685 N   0  0  0  0  0  0  0  0  0  0  0  0
   -7.9105    5.7579   -8.7402 C   0  0  0  0  0  0  0  0  0  0  0  0
   -7.7503    5.4867  -11.2272 C   0  0  0  0  0  0  0  0  0  0  0  0
   -8.7340    4.6047  -16.2347 C   0  0  0  0  0  0  0  0  0  0  0  0
  1  2  1  0
  2  3  2  0
  3  4  1  0
  4  5  1  0
  4  6  2  0
  6  7  1  0
  7  8  2  0
  8  9  1  0
  9 10  2  0
 10 11  1  0
 10 12  1  0
 12 13  1  0
 12 14  2  0
  6 15  1  0
 15 16  1  0
 16 17  2  0
 16 18  1  0
 18 19  1  0
 19 20  1  0
 20 21  2  0
 21 22  1  0
 22 23  1  0
 22 24  1  0
 15 25  2  0
 25  2  1  0
 14  7  1  0
 24 19  2  0
M  END
>  <smiles>  (246) 
C84924-P66

>  <fragmenstein_outcome>  (246) 
acceptable

>  <inchikey>  (246) 
KLQODHGOZXLAPL-UHFFFAOYSA-N

>  <fragmenstein_mode>  (246) 
expansion

>  <HIPPO Pose ID>  (246) 
8323

>  <Energy>  (246) 
82.191288

>  <fragmenstein_error>  (246) 


>  <tags>  (246) 
{'openbind_xx01zvns2b_c1_fragmenstein', 'fragmenstein_placed'}

>  <ref_pdb>  (246) 
1

>  <scratch_subdir>  (246) 
/opt/xchem-fragalysis-2/maxwin/BulkDock/SCRATCH/511027/C84924-P66

>  <alias>  (246) 
Cc1cc(C)c(-c2cnc(F)c(C)c2)c(C(=O)Nc2cnn(C)c2)c1

>  <HIPPO Compound ID>  (246) 
91750

>  <fragmenstein_runtime>  (246) 
2.947237

$$$$
CNCCc1ncn(C[C@H](C)NC(=O)c2ccccc2-c2cnc(F)c(C)c2)n1
     RDKit          3D

 29 31  0  0  0  0  0  0  0  0999 V2000
   -3.7432    5.1487   -7.4260 C   0  0  0  0  0  0  0  0  0  0  0  0
   -4.7029    6.0763   -6.8252 N   0  0  0  0  0  0  0  0  0  0  0  0
   -5.9294    6.1349   -7.6523 C   0  0  0  0  0  0  0  0  0  0  0  0
   -6.9910    5.1337   -7.1860 C   0  0  0  0  0  0  0  0  0  0  0  0
   -7.8188    4.5358   -8.2609 C   0  0  0  0  0  0  0  0  0  0  0  0
   -8.4981    3.3635   -8.0694 N   0  0  0  0  0  0  0  0  0  0  0  0
   -8.8322    3.0070   -9.2894 C   0  0  0  0  0  0  0  0  0  0  0  0
   -8.4083    3.9560  -10.1629 N   0  0  0  0  0  0  0  0  0  0  0  0
   -8.4727    3.9522  -11.6036 C   0  0  0  0  0  0  0  0  0  0  0  0
   -7.1330    4.1900  -12.3193 C   0  0  2  0  0  0  0  0  0  0  0  0
   -6.4764    5.5194  -11.9533 C   0  0  0  0  0  0  0  0  0  0  0  0
   -7.3145    4.1724  -13.7645 N   0  0  0  0  0  0  0  0  0  0  0  0
   -7.9205    5.2214  -14.7059 C   0  0  0  0  0  0  0  0  0  0  0  0
   -8.4414    6.2343  -14.4707 O   0  0  0  0  0  0  0  0  0  0  0  0
   -7.8323    4.7775  -16.1152 C   0  0  0  0  0  0  0  0  0  0  0  0
   -8.9767    4.1406  -16.6109 C   0  0  0  0  0  0  0  0  0  0  0  0
   -9.0637    3.7977  -17.9527 C   0  0  0  0  0  0  0  0  0  0  0  0
   -8.0016    4.0789  -18.7992 C   0  0  0  0  0  0  0  0  0  0  0  0
   -6.8545    4.7072  -18.3058 C   0  0  0  0  0  0  0  0  0  0  0  0
   -6.7391    5.0798  -16.9511 C   0  0  0  0  0  0  0  0  0  0  0  0
   -5.5174    5.7743  -16.5105 C   0  0  0  0  0  0  0  0  0  0  0  0
   -4.6822    5.2744  -15.5129 C   0  0  0  0  0  0  0  0  0  0  0  0
   -3.5130    5.8334  -15.1172 N   0  0  0  0  0  0  0  0  0  0  0  0
   -3.1571    6.9744  -15.7360 C   0  0  0  0  0  0  0  0  0  0  0  0
   -1.9969    7.5346  -15.3607 F   0  0  0  0  0  0  0  0  0  0  0  0
   -3.9043    7.5861  -16.7338 C   0  0  0  0  0  0  0  0  0  0  0  0
   -3.4203    8.8353  -17.3934 C   0  0  0  0  0  0  0  0  0  0  0  0
   -5.0895    6.9571  -17.1309 C   0  0  0  0  0  0  0  0  0  0  0  0
   -7.8867    5.0092   -9.5064 N   0  0  0  0  0  0  0  0  0  0  0  0
  1  2  1  0
  2  3  1  0
  3  4  1  0
  4  5  1  0
  5  6  1  0
  6  7  2  0
  7  8  1  0
  8  9  1  0
  9 10  1  0
 10 11  1  1
 10 12  1  0
 12 13  1  0
 13 14  2  0
 13 15  1  0
 15 16  2  0
 16 17  1  0
 17 18  2  0
 18 19  1  0
 19 20  2  0
 20 21  1  0
 21 22  2  0
 22 23  1  0
 23 24  2  0
 24 25  1  0
 24 26  1  0
 26 27  1  0
 26 28  2  0
  8 29  1  0
 29  5  2  0
 20 15  1  0
 28 21  1  0
M  END
>  <smiles>  (247) 
C84947-P66

>  <fragmenstein_outcome>  (247) 
acceptable

>  <inchikey>  (247) 
CVQALSLKGKZGQT-UHFFFAOYSA-N

>  <fragmenstein_mode>  (247) 
expansion

>  <HIPPO Pose ID>  (247) 
8333

>  <Energy>  (247) 
97.024827

>  <fragmenstein_error>  (247) 


>  <tags>  (247) 
{'openbind_xx01zvns2b_c1_fragmenstein', 'fragmenstein_placed'}

>  <ref_pdb>  (247) 
1

>  <scratch_subdir>  (247) 
/opt/xchem-fragalysis-2/maxwin/BulkDock/SCRATCH/511027/C84947-P66

>  <alias>  (247) 
CNCCc1ncn(C[C@H](C)NC(=O)c2ccccc2-c2cnc(F)c(C)c2)n1

>  <HIPPO Compound ID>  (247) 
84947

>  <fragmenstein_runtime>  (247) 
3.929585

$$$$
Cc1cc(C)c(-c2cnc(F)c(C)c2)c(C(O)(O)Nc2cnn(C)c2C)c1
     RDKit          3D

 27 29  0  0  0  0  0  0  0  0999 V2000
  -10.3221    3.9146  -18.1478 C   0  0  0  0  0  0  0  0  0  0  0  0
   -8.9600    4.2990  -17.7007 C   0  0  0  0  0  0  0  0  0  0  0  0
   -7.9456    4.4388  -18.6333 C   0  0  0  0  0  0  0  0  0  0  0  0
   -6.6900    4.9214  -18.2580 C   0  0  0  0  0  0  0  0  0  0  0  0
   -5.6884    5.1536  -19.3568 C   0  0  0  0  0  0  0  0  0  0  0  0
   -6.4233    5.2338  -16.9000 C   0  0  0  0  0  0  0  0  0  0  0  0
   -5.1383    5.8907  -16.5742 C   0  0  0  0  0  0  0  0  0  0  0  0
   -4.0698    5.2285  -15.9757 C   0  0  0  0  0  0  0  0  0  0  0  0
   -2.8516    5.7647  -15.7200 N   0  0  0  0  0  0  0  0  0  0  0  0
   -2.6856    7.0486  -16.0813 C   0  0  0  0  0  0  0  0  0  0  0  0
   -1.4773    7.5904  -15.8620 F   0  0  0  0  0  0  0  0  0  0  0  0
   -3.6643    7.8213  -16.6913 C   0  0  0  0  0  0  0  0  0  0  0  0
   -3.3753    9.2165  -17.1312 C   0  0  0  0  0  0  0  0  0  0  0  0
   -4.8997    7.2195  -16.9435 C   0  0  0  0  0  0  0  0  0  0  0  0
   -7.4292    4.9606  -15.9201 C   0  0  0  0  0  0  0  0  0  0  0  0
   -7.1978    5.1328  -14.4274 C   0  0  0  0  0  0  0  0  0  0  0  0
   -7.0448    6.4985  -14.1689 O   0  0  0  0  0  0  0  0  0  0  0  0
   -6.0017    4.4769  -14.1256 O   0  0  0  0  0  0  0  0  0  0  0  0
   -8.2346    4.5521  -13.5937 N   0  0  0  0  0  0  0  0  0  0  0  0
   -8.1897    4.5523  -12.2324 C   0  0  0  0  0  0  0  0  0  0  0  0
   -8.1850    3.4022  -11.4133 C   0  0  0  0  0  0  0  0  0  0  0  0
   -8.0559    3.7056  -10.1248 N   0  0  0  0  0  0  0  0  0  0  0  0
   -8.0895    5.0469  -10.1061 N   0  0  0  0  0  0  0  0  0  0  0  0
   -7.9738    5.7215   -8.8351 C   0  0  0  0  0  0  0  0  0  0  0  0
   -8.1975    5.6168  -11.3558 C   0  0  0  0  0  0  0  0  0  0  0  0
   -8.3537    7.0817  -11.5468 C   0  0  0  0  0  0  0  0  0  0  0  0
   -8.6933    4.5293  -16.3606 C   0  0  0  0  0  0  0  0  0  0  0  0
  1  2  1  0
  2  3  2  0
  3  4  1  0
  4  5  1  0
  4  6  2  0
  6  7  1  0
  7  8  2  0
  8  9  1  0
  9 10  2  0
 10 11  1  0
 10 12  1  0
 12 13  1  0
 12 14  2  0
  6 15  1  0
 15 16  1  0
 16 17  1  0
 16 18  1  0
 16 19  1  0
 19 20  1  0
 20 21  1  0
 21 22  2  0
 22 23  1  0
 23 24  1  0
 23 25  1  0
 25 26  1  0
 15 27  2  0
 27  2  1  0
 14  7  1  0
 25 20  2  0
M  END
>  <smiles>  (248) 
C84954-P66

>  <fragmenstein_outcome>  (248) 
acceptable

>  <inchikey>  (248) 
XKHQOMKGVLIGQJ-UHFFFAOYSA-N

>  <fragmenstein_mode>  (248) 
expansion

>  <HIPPO Pose ID>  (248) 
8336

>  <Energy>  (248) 
-44.342738

>  <fragmenstein_error>  (248) 


>  <tags>  (248) 
{'openbind_xx01zvns2b_c1_fragmenstein', 'fragmenstein_placed'}

>  <ref_pdb>  (248) 
1

>  <scratch_subdir>  (248) 
/opt/xchem-fragalysis-2/maxwin/BulkDock/SCRATCH/511027/C84954-P66

>  <alias>  (248) 
Cc1cc(C)c(-c2cnc(F)c(C)c2)c(C(O)(O)Nc2cnn(C)c2C)c1

>  <HIPPO Compound ID>  (248) 
84954

>  <fragmenstein_runtime>  (248) 
4.181249

$$$$
Cc1cc(-c2c(C(=O)Nc3cc(C)n(CN(C)C)c3)cc(Cl)cc2C(=O)NC(C)(C)CO)cnc1F
     RDKit          3D

 36 38  0  0  0  0  0  0  0  0999 V2000
   -2.9669    9.1936  -16.8845 C   0  0  0  0  0  0  0  0  0  0  0  0
   -3.4029    7.8666  -16.3599 C   0  0  0  0  0  0  0  0  0  0  0  0
   -4.6207    7.3071  -16.7384 C   0  0  0  0  0  0  0  0  0  0  0  0
   -4.9752    6.0256  -16.3011 C   0  0  0  0  0  0  0  0  0  0  0  0
   -6.2095    5.3870  -16.7747 C   0  0  0  0  0  0  0  0  0  0  0  0
   -7.2879    5.1383  -15.9018 C   0  0  0  0  0  0  0  0  0  0  0  0
   -7.2611    5.5522  -14.4712 C   0  0  0  0  0  0  0  0  0  0  0  0
   -6.8970    6.6259  -14.1958 O   0  0  0  0  0  0  0  0  0  0  0  0
   -7.7296    4.3916  -13.5671 N   0  0  0  0  0  0  0  0  0  0  0  0
   -7.9265    4.3435  -12.2220 C   0  0  0  0  0  0  0  0  0  0  0  0
   -8.4740    3.2735  -11.4917 C   0  0  0  0  0  0  0  0  0  0  0  0
   -8.4372    3.6074  -10.1520 C   0  0  0  0  0  0  0  0  0  0  0  0
   -8.8755    2.8005   -8.9836 C   0  0  0  0  0  0  0  0  0  0  0  0
   -7.8499    4.8524  -10.0570 N   0  0  0  0  0  0  0  0  0  0  0  0
   -7.3148    5.4666   -8.8409 C   0  0  0  0  0  0  0  0  0  0  0  0
   -8.2570    6.4419   -8.2668 N   0  0  0  0  0  0  0  0  0  0  0  0
   -7.7358    6.8770   -6.9689 C   0  0  0  0  0  0  0  0  0  0  0  0
   -8.4177    7.6108   -9.1399 C   0  0  0  0  0  0  0  0  0  0  0  0
   -7.5801    5.3189  -11.3256 C   0  0  0  0  0  0  0  0  0  0  0  0
   -8.4808    4.6071  -16.3830 C   0  0  0  0  0  0  0  0  0  0  0  0
   -8.6061    4.3189  -17.7338 C   0  0  0  0  0  0  0  0  0  0  0  0
  -10.1455    3.8417  -18.2699 Cl  0  0  0  0  0  0  0  0  0  0  0  0
   -7.5526    4.5048  -18.6258 C   0  0  0  0  0  0  0  0  0  0  0  0
   -6.3582    5.0452  -18.1484 C   0  0  0  0  0  0  0  0  0  0  0  0
   -5.2080    5.3303  -19.0672 C   0  0  0  0  0  0  0  0  0  0  0  0
   -4.1948    4.7924  -18.8580 O   0  0  0  0  0  0  0  0  0  0  0  0
   -5.5713    6.4082  -20.1097 N   0  0  0  0  0  0  0  0  0  0  0  0
   -4.7248    7.1329  -21.0688 C   0  0  0  0  0  0  0  0  0  0  0  0
   -3.3091    6.5375  -21.1338 C   0  0  0  0  0  0  0  0  0  0  0  0
   -5.3472    7.0974  -22.4707 C   0  0  0  0  0  0  0  0  0  0  0  0
   -4.6118    8.6066  -20.5900 C   0  0  0  0  0  0  0  0  0  0  0  0
   -3.8260    9.4332  -21.4411 O   0  0  0  0  0  0  0  0  0  0  0  0
   -4.0807    5.3781  -15.4516 C   0  0  0  0  0  0  0  0  0  0  0  0
   -2.8912    5.8865  -15.0606 N   0  0  0  0  0  0  0  0  0  0  0  0
   -2.5803    7.1096  -15.5345 C   0  0  0  0  0  0  0  0  0  0  0  0
   -1.3868    7.6118  -15.1802 F   0  0  0  0  0  0  0  0  0  0  0  0
  1  2  1  0
  2  3  2  0
  3  4  1  0
  4  5  1  0
  5  6  1  0
  6  7  1  0
  7  8  2  0
  7  9  1  0
  9 10  1  0
 10 11  1  0
 11 12  2  0
 12 13  1  0
 12 14  1  0
 14 15  1  0
 15 16  1  0
 16 17  1  0
 16 18  1  0
 14 19  1  0
  6 20  2  0
 20 21  1  0
 21 22  1  0
 21 23  2  0
 23 24  1  0
 24 25  1  0
 25 26  2  0
 25 27  1  0
 27 28  1  0
 28 29  1  0
 28 30  1  0
 28 31  1  0
 31 32  1  0
  4 33  2  0
 33 34  1  0
 34 35  2  0
 35 36  1  0
 35  2  1  0
 24  5  2  0
 19 10  2  0
M  END
>  <smiles>  (249) 
C84956-P66

>  <fragmenstein_outcome>  (249) 
acceptable

>  <inchikey>  (249) 
LAYKYTVRYWIMGW-UHFFFAOYSA-N

>  <fragmenstein_mode>  (249) 
expansion

>  <HIPPO Pose ID>  (249) 
8337

>  <Energy>  (249) 
111.84082

>  <fragmenstein_error>  (249) 


>  <tags>  (249) 
{'openbind_xx01zvns2b_c1_fragmenstein', 'fragmenstein_placed'}

>  <ref_pdb>  (249) 
1

>  <scratch_subdir>  (249) 
/opt/xchem-fragalysis-2/maxwin/BulkDock/SCRATCH/511027/C84956-P66

>  <alias>  (249) 
Cc1cc(-c2c(C(=O)Nc3cc(C)n(CN(C)C)c3)cc(Cl)cc2C(=O)NC(C)(C)CO)cnc1F

>  <HIPPO Compound ID>  (249) 
40933

>  <fragmenstein_runtime>  (249) 
9.259605

$$$$
CCC(=O)Nc1cccc(C(=O)Nc2cnn(C)c2C)c1-c1cnc(F)c(C)c1
     RDKit          3D

 29 31  0  0  0  0  0  0  0  0999 V2000
   -2.8222    6.5204  -21.3355 C   0  0  0  0  0  0  0  0  0  0  0  0
   -3.3299    5.6907  -20.1749 C   0  0  0  0  0  0  0  0  0  0  0  0
   -4.8456    5.7763  -20.0527 C   0  0  0  0  0  0  0  0  0  0  0  0
   -5.5399    6.3157  -20.8190 O   0  0  0  0  0  0  0  0  0  0  0  0
   -5.1896    5.0310  -18.7337 N   0  0  0  0  0  0  0  0  0  0  0  0
   -6.4067    4.8864  -18.0655 C   0  0  0  0  0  0  0  0  0  0  0  0
   -7.5383    4.4031  -18.7160 C   0  0  0  0  0  0  0  0  0  0  0  0
   -8.7023    4.1509  -17.9861 C   0  0  0  0  0  0  0  0  0  0  0  0
   -8.7480    4.4271  -16.6176 C   0  0  0  0  0  0  0  0  0  0  0  0
   -7.6324    4.9882  -15.9826 C   0  0  0  0  0  0  0  0  0  0  0  0
   -7.7752    5.5082  -14.5990 C   0  0  0  0  0  0  0  0  0  0  0  0
   -7.6093    6.6484  -14.4209 O   0  0  0  0  0  0  0  0  0  0  0  0
   -8.0645    4.3727  -13.5988 N   0  0  0  0  0  0  0  0  0  0  0  0
   -8.1142    4.3837  -12.2266 C   0  0  0  0  0  0  0  0  0  0  0  0
   -8.2638    3.2534  -11.3959 C   0  0  0  0  0  0  0  0  0  0  0  0
   -8.2170    3.5569  -10.1018 N   0  0  0  0  0  0  0  0  0  0  0  0
   -8.0771    4.8904  -10.0940 N   0  0  0  0  0  0  0  0  0  0  0  0
   -7.9755    5.5635   -8.8207 C   0  0  0  0  0  0  0  0  0  0  0  0
   -8.0066    5.4479  -11.3508 C   0  0  0  0  0  0  0  0  0  0  0  0
   -7.8367    6.9072  -11.5665 C   0  0  0  0  0  0  0  0  0  0  0  0
   -6.4382    5.2150  -16.6907 C   0  0  0  0  0  0  0  0  0  0  0  0
   -5.2630    5.8851  -16.1050 C   0  0  0  0  0  0  0  0  0  0  0  0
   -4.4665    5.2965  -15.1307 C   0  0  0  0  0  0  0  0  0  0  0  0
   -3.2799    5.7968  -14.7164 N   0  0  0  0  0  0  0  0  0  0  0  0
   -2.8873    6.9670  -15.2641 C   0  0  0  0  0  0  0  0  0  0  0  0
   -1.6969    7.4495  -14.8757 F   0  0  0  0  0  0  0  0  0  0  0  0
   -3.6189    7.6746  -16.2070 C   0  0  0  0  0  0  0  0  0  0  0  0
   -3.1013    8.9319  -16.8226 C   0  0  0  0  0  0  0  0  0  0  0  0
   -4.8244    7.1154  -16.6229 C   0  0  0  0  0  0  0  0  0  0  0  0
  1  2  1  0
  2  3  1  0
  3  4  2  0
  3  5  1  0
  5  6  1  0
  6  7  2  0
  7  8  1  0
  8  9  2  0
  9 10  1  0
 10 11  1  0
 11 12  2  0
 11 13  1  0
 13 14  1  0
 14 15  1  0
 15 16  2  0
 16 17  1  0
 17 18  1  0
 17 19  1  0
 19 20  1  0
 10 21  2  0
 21 22  1  0
 22 23  2  0
 23 24  1  0
 24 25  2  0
 25 26  1  0
 25 27  1  0
 27 28  1  0
 27 29  2  0
 21  6  1  0
 29 22  1  0
 19 14  2  0
M  END
>  <smiles>  (250) 
C84964-P66

>  <fragmenstein_outcome>  (250) 
acceptable

>  <inchikey>  (250) 
ZUHWXMNPZPHIPL-UHFFFAOYSA-N

>  <fragmenstein_mode>  (250) 
expansion

>  <HIPPO Pose ID>  (250) 
8342

>  <Energy>  (250) 
89.032849

>  <fragmenstein_error>  (250) 


>  <tags>  (250) 
{'openbind_xx01zvns2b_c1_fragmenstein', 'fragmenstein_placed'}

>  <ref_pdb>  (250) 
1

>  <scratch_subdir>  (250) 
/opt/xchem-fragalysis-2/maxwin/BulkDock/SCRATCH/511027/C84964-P66

>  <alias>  (250) 
CCC(=O)Nc1cccc(C(=O)Nc2cnn(C)c2C)c1-c1cnc(F)c(C)c1

>  <HIPPO Compound ID>  (250) 
98692

>  <fragmenstein_runtime>  (250) 
3.957965

$$$$
Cc1cc(-c2c(C)cccc2C(=O)Nc2cn(N)c(C)c2C)cnc1F
     RDKit          3D

 26 28  0  0  0  0  0  0  0  0999 V2000
   -3.2963    8.9273  -17.2178 C   0  0  0  0  0  0  0  0  0  0  0  0
   -3.7550    7.6207  -16.6606 C   0  0  0  0  0  0  0  0  0  0  0  0
   -4.9820    7.0597  -17.0248 C   0  0  0  0  0  0  0  0  0  0  0  0
   -5.4037    5.8433  -16.4723 C   0  0  0  0  0  0  0  0  0  0  0  0
   -6.6668    5.1985  -16.8836 C   0  0  0  0  0  0  0  0  0  0  0  0
   -6.8708    4.7895  -18.2273 C   0  0  0  0  0  0  0  0  0  0  0  0
   -5.8397    5.0006  -19.3042 C   0  0  0  0  0  0  0  0  0  0  0  0
   -8.0861    4.1925  -18.6137 C   0  0  0  0  0  0  0  0  0  0  0  0
   -9.0920    3.9538  -17.6907 C   0  0  0  0  0  0  0  0  0  0  0  0
   -8.8987    4.3194  -16.3672 C   0  0  0  0  0  0  0  0  0  0  0  0
   -7.7100    4.9465  -15.9639 C   0  0  0  0  0  0  0  0  0  0  0  0
   -7.6628    5.4635  -14.5656 C   0  0  0  0  0  0  0  0  0  0  0  0
   -7.4847    6.6051  -14.3976 O   0  0  0  0  0  0  0  0  0  0  0  0
   -7.9688    4.3368  -13.5516 N   0  0  0  0  0  0  0  0  0  0  0  0
   -8.0227    4.3618  -12.1814 C   0  0  0  0  0  0  0  0  0  0  0  0
   -8.3083    3.2233  -11.4617 C   0  0  0  0  0  0  0  0  0  0  0  0
   -8.3134    3.5369  -10.1385 N   0  0  0  0  0  0  0  0  0  0  0  0
   -8.5460    2.6119   -9.1030 N   0  0  0  0  0  0  0  0  0  0  0  0
   -8.0516    4.8698   -9.9761 C   0  0  0  0  0  0  0  0  0  0  0  0
   -8.0173    5.5166   -8.6382 C   0  0  0  0  0  0  0  0  0  0  0  0
   -7.8367    5.4178  -11.2416 C   0  0  0  0  0  0  0  0  0  0  0  0
   -7.4912    6.8379  -11.5201 C   0  0  0  0  0  0  0  0  0  0  0  0
   -4.5502    5.2671  -15.5305 C   0  0  0  0  0  0  0  0  0  0  0  0
   -3.3488    5.7699  -15.1575 N   0  0  0  0  0  0  0  0  0  0  0  0
   -2.9902    6.9376  -15.7235 C   0  0  0  0  0  0  0  0  0  0  0  0
   -1.8063    7.4533  -15.3575 F   0  0  0  0  0  0  0  0  0  0  0  0
  1  2  1  0
  2  3  2  0
  3  4  1  0
  4  5  1  0
  5  6  2  0
  6  7  1  0
  6  8  1  0
  8  9  2  0
  9 10  1  0
 10 11  2  0
 11 12  1  0
 12 13  2  0
 12 14  1  0
 14 15  1  0
 15 16  2  0
 16 17  1  0
 17 18  1  0
 17 19  1  0
 19 20  1  0
 19 21  2  0
 21 22  1  0
  4 23  2  0
 23 24  1  0
 24 25  2  0
 25 26  1  0
 25  2  1  0
 11  5  1  0
 21 15  1  0
M  END
>  <smiles>  (251) 
C84966-P66

>  <fragmenstein_outcome>  (251) 
acceptable

>  <inchikey>  (251) 
UUPUGSRQFYOFQD-UHFFFAOYSA-N

>  <fragmenstein_mode>  (251) 
expansion

>  <HIPPO Pose ID>  (251) 
8343

>  <Energy>  (251) 
31.880031

>  <fragmenstein_error>  (251) 


>  <tags>  (251) 
{'openbind_xx01zvns2b_c1_fragmenstein', 'fragmenstein_placed'}

>  <ref_pdb>  (251) 
1

>  <scratch_subdir>  (251) 
/opt/xchem-fragalysis-2/maxwin/BulkDock/SCRATCH/511027/C84966-P66

>  <alias>  (251) 
Cc1cc(-c2c(C)cccc2C(=O)Nc2cn(N)c(C)c2C)cnc1F

>  <HIPPO Compound ID>  (251) 
84966

>  <fragmenstein_runtime>  (251) 
3.715061

$$$$
Cc1cc(-c2ccccc2C(=O)C(=O)c2cn(NCO)c(C)c2CCN)cnc1F
     RDKit          3D

 30 32  0  0  0  0  0  0  0  0999 V2000
   -3.1702    8.8878  -17.3375 C   0  0  0  0  0  0  0  0  0  0  0  0
   -3.6644    7.6048  -16.7563 C   0  0  0  0  0  0  0  0  0  0  0  0
   -4.8803    7.0437  -17.1546 C   0  0  0  0  0  0  0  0  0  0  0  0
   -5.3462    5.8644  -16.5607 C   0  0  0  0  0  0  0  0  0  0  0  0
   -6.6163    5.2561  -16.9772 C   0  0  0  0  0  0  0  0  0  0  0  0
   -6.7702    4.8515  -18.3190 C   0  0  0  0  0  0  0  0  0  0  0  0
   -7.9457    4.2473  -18.7718 C   0  0  0  0  0  0  0  0  0  0  0  0
   -9.0037    4.0421  -17.9015 C   0  0  0  0  0  0  0  0  0  0  0  0
   -8.8785    4.4323  -16.5735 C   0  0  0  0  0  0  0  0  0  0  0  0
   -7.6967    5.0325  -16.1026 C   0  0  0  0  0  0  0  0  0  0  0  0
   -7.6375    5.4302  -14.6629 C   0  0  0  0  0  0  0  0  0  0  0  0
   -7.3594    6.5780  -14.3554 O   0  0  0  0  0  0  0  0  0  0  0  0
   -7.9312    4.3465  -13.6411 C   0  0  0  0  0  0  0  0  0  0  0  0
   -8.1383    3.2534  -14.1576 O   0  0  0  0  0  0  0  0  0  0  0  0
   -8.0213    4.4517  -12.1863 C   0  0  0  0  0  0  0  0  0  0  0  0
   -8.5071    3.3728  -11.4618 C   0  0  0  0  0  0  0  0  0  0  0  0
   -8.5800    3.6831  -10.1459 N   0  0  0  0  0  0  0  0  0  0  0  0
   -9.2926    2.8818   -9.2421 N   0  0  0  0  0  0  0  0  0  0  0  0
   -8.4838    2.0282   -8.4260 C   0  0  0  0  0  0  0  0  0  0  0  0
   -8.3830    2.6405   -7.1527 O   0  0  0  0  0  0  0  0  0  0  0  0
   -8.0814    4.9474   -9.9580 C   0  0  0  0  0  0  0  0  0  0  0  0
   -7.9851    5.5708   -8.6109 C   0  0  0  0  0  0  0  0  0  0  0  0
   -7.7131    5.4572  -11.2089 C   0  0  0  0  0  0  0  0  0  0  0  0
   -7.1047    6.8078  -11.4399 C   0  0  0  0  0  0  0  0  0  0  0  0
   -8.1598    7.8856  -11.7336 C   0  0  0  0  0  0  0  0  0  0  0  0
   -7.5645    9.0921  -12.3202 N   0  0  0  0  0  0  0  0  0  0  0  0
   -4.5343    5.3020  -15.5751 C   0  0  0  0  0  0  0  0  0  0  0  0
   -3.3493    5.8108  -15.1637 N   0  0  0  0  0  0  0  0  0  0  0  0
   -2.9520    6.9526  -15.7573 C   0  0  0  0  0  0  0  0  0  0  0  0
   -1.7876    7.4786  -15.3465 F   0  0  0  0  0  0  0  0  0  0  0  0
  1  2  1  0
  2  3  2  0
  3  4  1  0
  4  5  1  0
  5  6  2  0
  6  7  1  0
  7  8  2  0
  8  9  1  0
  9 10  2  0
 10 11  1  0
 11 12  2  0
 11 13  1  0
 13 14  2  0
 13 15  1  0
 15 16  2  0
 16 17  1  0
 17 18  1  0
 18 19  1  0
 19 20  1  0
 17 21  1  0
 21 22  1  0
 21 23  2  0
 23 24  1  0
 24 25  1  0
 25 26  1  0
  4 27  2  0
 27 28  1  0
 28 29  2  0
 29 30  1  0
 29  2  1  0
 10  5  1  0
 23 15  1  0
M  END
>  <smiles>  (252) 
C84979-P66

>  <fragmenstein_outcome>  (252) 
acceptable

>  <inchikey>  (252) 
IMWVONCPJMFRAK-UHFFFAOYSA-N

>  <fragmenstein_mode>  (252) 
expansion

>  <HIPPO Pose ID>  (252) 
8351

>  <Energy>  (252) 
75.817054

>  <fragmenstein_error>  (252) 


>  <tags>  (252) 
{'openbind_xx01zvns2b_c1_fragmenstein', 'fragmenstein_placed'}

>  <ref_pdb>  (252) 
1

>  <scratch_subdir>  (252) 
/opt/xchem-fragalysis-2/maxwin/BulkDock/SCRATCH/511027/C84979-P66

>  <alias>  (252) 
Cc1cc(-c2ccccc2C(=O)C(=O)c2cn(NCO)c(C)c2CCN)cnc1F

>  <HIPPO Compound ID>  (252) 
75097

>  <fragmenstein_runtime>  (252) 
2.349398

$$$$
Cc1cc(-c2c(CN)cc(Cl)cc2C(=O)Nc2cc(C)n(CN)c2)cnc1F
     RDKit          3D

 28 30  0  0  0  0  0  0  0  0999 V2000
   -3.1082    9.1217  -16.9953 C   0  0  0  0  0  0  0  0  0  0  0  0
   -3.5573    7.8066  -16.4536 C   0  0  0  0  0  0  0  0  0  0  0  0
   -4.7935    7.2663  -16.8014 C   0  0  0  0  0  0  0  0  0  0  0  0
   -5.1636    5.9966  -16.3431 C   0  0  0  0  0  0  0  0  0  0  0  0
   -6.4155    5.3682  -16.7764 C   0  0  0  0  0  0  0  0  0  0  0  0
   -6.6341    5.0343  -18.1438 C   0  0  0  0  0  0  0  0  0  0  0  0
   -5.6602    5.3300  -19.2721 C   0  0  0  0  0  0  0  0  0  0  0  0
   -4.3075    4.8211  -19.0775 N   0  0  0  0  0  0  0  0  0  0  0  0
   -7.8879    4.5198  -18.5261 C   0  0  0  0  0  0  0  0  0  0  0  0
   -8.9058    4.3614  -17.5994 C   0  0  0  0  0  0  0  0  0  0  0  0
  -10.4978    4.0730  -18.1328 Cl  0  0  0  0  0  0  0  0  0  0  0  0
   -8.6841    4.6059  -16.2586 C   0  0  0  0  0  0  0  0  0  0  0  0
   -7.4495    5.1107  -15.8450 C   0  0  0  0  0  0  0  0  0  0  0  0
   -7.3637    5.5123  -14.4082 C   0  0  0  0  0  0  0  0  0  0  0  0
   -7.0902    6.6106  -14.1248 O   0  0  0  0  0  0  0  0  0  0  0  0
   -7.7425    4.3124  -13.5133 N   0  0  0  0  0  0  0  0  0  0  0  0
   -7.9450    4.2408  -12.1673 C   0  0  0  0  0  0  0  0  0  0  0  0
   -8.3540    3.0874  -11.4718 C   0  0  0  0  0  0  0  0  0  0  0  0
   -8.4965    3.4081  -10.1382 C   0  0  0  0  0  0  0  0  0  0  0  0
   -8.9408    2.5295   -9.0213 C   0  0  0  0  0  0  0  0  0  0  0  0
   -8.1231    4.7282  -10.0053 N   0  0  0  0  0  0  0  0  0  0  0  0
   -8.0343    5.4731   -8.7589 C   0  0  0  0  0  0  0  0  0  0  0  0
   -6.9580    4.8871   -7.9708 N   0  0  0  0  0  0  0  0  0  0  0  0
   -7.8160    5.2469  -11.2446 C   0  0  0  0  0  0  0  0  0  0  0  0
   -4.2628    5.3430  -15.5038 C   0  0  0  0  0  0  0  0  0  0  0  0
   -3.0500    5.8263  -15.1567 N   0  0  0  0  0  0  0  0  0  0  0  0
   -2.7298    7.0406  -15.6424 C   0  0  0  0  0  0  0  0  0  0  0  0
   -1.5154    7.5157  -15.3331 F   0  0  0  0  0  0  0  0  0  0  0  0
  1  2  1  0
  2  3  2  0
  3  4  1  0
  4  5  1  0
  5  6  2  0
  6  7  1  0
  7  8  1  0
  6  9  1  0
  9 10  2  0
 10 11  1  0
 10 12  1  0
 12 13  2  0
 13 14  1  0
 14 15  2  0
 14 16  1  0
 16 17  1  0
 17 18  1  0
 18 19  2  0
 19 20  1  0
 19 21  1  0
 21 22  1  0
 22 23  1  0
 21 24  1  0
  4 25  2  0
 25 26  1  0
 26 27  2  0
 27 28  1  0
 27  2  1  0
 13  5  1  0
 24 17  2  0
M  END
>  <smiles>  (253) 
C84997-P66

>  <fragmenstein_outcome>  (253) 
acceptable

>  <inchikey>  (253) 
ZMKLTABLHCMVDI-UHFFFAOYSA-N

>  <fragmenstein_mode>  (253) 
expansion

>  <HIPPO Pose ID>  (253) 
8359

>  <Energy>  (253) 
61.391414

>  <fragmenstein_error>  (253) 


>  <tags>  (253) 
{'openbind_xx01zvns2b_c1_fragmenstein', 'fragmenstein_placed'}

>  <ref_pdb>  (253) 
1

>  <scratch_subdir>  (253) 
/opt/xchem-fragalysis-2/maxwin/BulkDock/SCRATCH/511027/C84997-P66

>  <alias>  (253) 
Cc1cc(-c2c(CN)cc(Cl)cc2C(=O)Nc2cc(C)n(CN)c2)cnc1F

>  <HIPPO Compound ID>  (253) 
90533

>  <fragmenstein_runtime>  (253) 
4.002212

$$$$
Cc1cc(-c2ccccc2C(=O)N[C@@H]2CN(C)[C@@]3(CCNC3)C2)cnc1F
     RDKit          3D

 27 30  0  0  0  0  0  0  0  0999 V2000
   -3.1864    8.8298  -17.4538 C   0  0  0  0  0  0  0  0  0  0  0  0
   -3.6913    7.5818  -16.8098 C   0  0  0  0  0  0  0  0  0  0  0  0
   -4.8766    6.9704  -17.2274 C   0  0  0  0  0  0  0  0  0  0  0  0
   -5.3309    5.8032  -16.6016 C   0  0  0  0  0  0  0  0  0  0  0  0
   -6.5797    5.1490  -17.0165 C   0  0  0  0  0  0  0  0  0  0  0  0
   -6.7399    4.7419  -18.3552 C   0  0  0  0  0  0  0  0  0  0  0  0
   -7.9125    4.1199  -18.7954 C   0  0  0  0  0  0  0  0  0  0  0  0
   -8.9547    3.8828  -17.9109 C   0  0  0  0  0  0  0  0  0  0  0  0
   -8.8222    4.2685  -16.5828 C   0  0  0  0  0  0  0  0  0  0  0  0
   -7.6478    4.8999  -16.1361 C   0  0  0  0  0  0  0  0  0  0  0  0
   -7.6673    5.4376  -14.7465 C   0  0  0  0  0  0  0  0  0  0  0  0
   -7.5010    6.5763  -14.5787 O   0  0  0  0  0  0  0  0  0  0  0  0
   -8.0197    4.3271  -13.7500 N   0  0  0  0  0  0  0  0  0  0  0  0
   -8.3352    4.3945  -12.3542 C   0  0  2  0  0  0  0  0  0  0  0  0
   -7.7942    5.5793  -11.5724 C   0  0  0  0  0  0  0  0  0  0  0  0
   -8.2016    5.2167  -10.2135 N   0  0  0  0  0  0  0  0  0  0  0  0
   -7.6261    6.0685   -9.1954 C   0  0  0  0  0  0  0  0  0  0  0  0
   -8.0003    3.7592  -10.0627 C   0  0  2  0  0  0  0  0  0  0  0  0
   -9.1924    3.1369   -9.3231 C   0  0  0  0  0  0  0  0  0  0  0  0
   -8.6538    1.9841   -8.5068 C   0  0  0  0  0  0  0  0  0  0  0  0
   -7.2772    1.8746   -8.9636 N   0  0  0  0  0  0  0  0  0  0  0  0
   -6.8500    3.2483   -9.2006 C   0  0  0  0  0  0  0  0  0  0  0  0
   -7.8920    3.2151  -11.5153 C   0  0  0  0  0  0  0  0  0  0  0  0
   -4.5317    5.2990  -15.5738 C   0  0  0  0  0  0  0  0  0  0  0  0
   -3.3546    5.8338  -15.1709 N   0  0  0  0  0  0  0  0  0  0  0  0
   -2.9705    6.9629  -15.7954 C   0  0  0  0  0  0  0  0  0  0  0  0
   -1.8071    7.5079  -15.4063 F   0  0  0  0  0  0  0  0  0  0  0  0
  1  2  1  0
  2  3  2  0
  3  4  1  0
  4  5  1  0
  5  6  2  0
  6  7  1  0
  7  8  2  0
  8  9  1  0
  9 10  2  0
 10 11  1  0
 11 12  2  0
 11 13  1  0
 14 13  1  6
 14 15  1  0
 15 16  1  0
 16 17  1  0
 16 18  1  0
 18 19  1  1
 19 20  1  0
 20 21  1  0
 21 22  1  0
 18 23  1  0
  4 24  2  0
 24 25  1  0
 25 26  2  0
 26 27  1  0
 26  2  1  0
 10  5  1  0
 23 14  1  0
 22 18  1  0
M  END
>  <smiles>  (254) 
C85001-P66

>  <fragmenstein_outcome>  (254) 
acceptable

>  <inchikey>  (254) 
YQADBIORGQKTGC-UHFFFAOYSA-N

>  <fragmenstein_mode>  (254) 
expansion

>  <HIPPO Pose ID>  (254) 
8362

>  <Energy>  (254) 
117.614421

>  <fragmenstein_error>  (254) 


>  <tags>  (254) 
{'openbind_xx01zvns2b_c1_fragmenstein', 'fragmenstein_placed'}

>  <ref_pdb>  (254) 
1

>  <scratch_subdir>  (254) 
/opt/xchem-fragalysis-2/maxwin/BulkDock/SCRATCH/511027/C85001-P66

>  <alias>  (254) 
Cc1cc(-c2ccccc2C(=O)N[C@@H]2CN(C)[C@@]3(CCNC3)C2)cnc1F

>  <HIPPO Compound ID>  (254) 
72368

>  <fragmenstein_runtime>  (254) 
5.212254

$$$$
COc1c(C)c(F)[n+]([O-])c(C)c1-c1ccccc1C(=O)N[C@H]1CN(C)[C@]2(CCNC2)C1
     RDKit          3D

 31 34  0  0  0  0  0  0  0  0999 V2000
   -5.5044    7.3322  -19.9340 C   0  0  0  0  0  0  0  0  0  0  0  0
   -5.9218    7.5177  -18.5756 O   0  0  0  0  0  0  0  0  0  0  0  0
   -5.0386    6.9122  -17.7089 C   0  0  0  0  0  0  0  0  0  0  0  0
   -3.7334    7.4110  -17.6138 C   0  0  0  0  0  0  0  0  0  0  0  0
   -3.2846    8.6950  -18.2368 C   0  0  0  0  0  0  0  0  0  0  0  0
   -2.7938    6.6333  -16.9512 C   0  0  0  0  0  0  0  0  0  0  0  0
   -1.4865    6.9317  -17.0676 F   0  0  0  0  0  0  0  0  0  0  0  0
   -3.1837    5.5602  -16.1795 N   0  0  0  0  0  0  0  0  0  0  0  0
   -2.2956    4.8774  -15.5905 O   0  0  0  0  0  0  0  0  0  0  0  0
   -4.5310    5.2358  -16.0570 C   0  0  0  0  0  0  0  0  0  0  0  0
   -4.8440    4.3307  -14.9095 C   0  0  0  0  0  0  0  0  0  0  0  0
   -5.4792    5.8179  -16.9249 C   0  0  0  0  0  0  0  0  0  0  0  0
   -6.8310    5.2182  -17.0916 C   0  0  0  0  0  0  0  0  0  0  0  0
   -7.1801    4.7032  -18.3619 C   0  0  0  0  0  0  0  0  0  0  0  0
   -8.4230    4.1197  -18.6157 C   0  0  0  0  0  0  0  0  0  0  0  0
   -9.3428    3.9910  -17.5906 C   0  0  0  0  0  0  0  0  0  0  0  0
   -9.0115    4.4397  -16.3148 C   0  0  0  0  0  0  0  0  0  0  0  0
   -7.7802    5.0689  -16.0569 C   0  0  0  0  0  0  0  0  0  0  0  0
   -7.5876    5.7009  -14.7079 C   0  0  0  0  0  0  0  0  0  0  0  0
   -7.1658    6.7860  -14.6767 O   0  0  0  0  0  0  0  0  0  0  0  0
   -8.0761    4.7874  -13.5693 N   0  0  0  0  0  0  0  0  0  0  0  0
   -8.2373    5.0503  -12.1644 C   0  0  1  0  0  0  0  0  0  0  0  0
   -8.3203    3.8405  -11.2463 C   0  0  0  0  0  0  0  0  0  0  0  0
   -8.2841    4.4858   -9.9259 N   0  0  0  0  0  0  0  0  0  0  0  0
   -8.0904    3.5187   -8.8603 C   0  0  0  0  0  0  0  0  0  0  0  0
   -7.3210    5.6001  -10.0049 C   0  0  1  0  0  0  0  0  0  0  0  0
   -7.9220    6.8467   -9.3418 C   0  0  0  0  0  0  0  0  0  0  0  0
   -6.7200    7.7369   -9.0314 C   0  0  0  0  0  0  0  0  0  0  0  0
   -5.5176    6.9142   -9.2054 N   0  0  0  0  0  0  0  0  0  0  0  0
   -5.9764    5.5196   -9.2595 C   0  0  0  0  0  0  0  0  0  0  0  0
   -7.1071    5.8370  -11.5235 C   0  0  0  0  0  0  0  0  0  0  0  0
  1  2  1  0
  2  3  1  0
  3  4  2  0
  4  5  1  0
  4  6  1  0
  6  7  1  0
  6  8  2  0
  8  9  1  0
  8 10  1  0
 10 11  1  0
 10 12  2  0
 12 13  1  0
 13 14  2  0
 14 15  1  0
 15 16  2  0
 16 17  1  0
 17 18  2  0
 18 19  1  0
 19 20  2  0
 19 21  1  0
 22 21  1  6
 22 23  1  0
 23 24  1  0
 24 25  1  0
 24 26  1  0
 26 27  1  1
 27 28  1  0
 28 29  1  0
 29 30  1  0
 26 31  1  0
 12  3  1  0
 18 13  1  0
 31 22  1  0
 30 26  1  0
M  CHG  2   8   1   9  -1
M  END
>  <smiles>  (255) 
C85057-P68

>  <fragmenstein_outcome>  (255) 
acceptable

>  <inchikey>  (255) 
WZTXGVBALCYGHQ-UHFFFAOYSA-N

>  <fragmenstein_mode>  (255) 
expansion

>  <HIPPO Pose ID>  (255) 
8383

>  <Energy>  (255) 
152.633874

>  <fragmenstein_error>  (255) 


>  <tags>  (255) 
{'openbind_xx01zvns2b_c1_fragmenstein', 'fragmenstein_placed'}

>  <ref_pdb>  (255) 
1

>  <scratch_subdir>  (255) 
/opt/xchem-fragalysis-2/maxwin/BulkDock/SCRATCH/511027/C85057-P68

>  <alias>  (255) 
COc1c(C)c(F)[n+]([O-])c(C)c1-c1ccccc1C(=O)N[C@H]1CN(C)[C@]2(CCNC2)C1

>  <HIPPO Compound ID>  (255) 
98402

>  <fragmenstein_runtime>  (255) 
4.157157

$$$$
CNCc1c(-c2ccccc2C(=O)Nc2cnn(C)c2)cnc(F)c1C
     RDKit          3D

 26 28  0  0  0  0  0  0  0  0999 V2000
   -5.0245    7.5148  -20.9972 C   0  0  0  0  0  0  0  0  0  0  0  0
   -4.7010    6.8288  -19.7630 N   0  0  0  0  0  0  0  0  0  0  0  0
   -5.4535    7.3328  -18.6155 C   0  0  0  0  0  0  0  0  0  0  0  0
   -4.8757    6.7434  -17.3423 C   0  0  0  0  0  0  0  0  0  0  0  0
   -5.4210    5.5925  -16.7195 C   0  0  0  0  0  0  0  0  0  0  0  0
   -6.7304    4.9856  -17.0563 C   0  0  0  0  0  0  0  0  0  0  0  0
   -6.9901    4.5256  -18.3589 C   0  0  0  0  0  0  0  0  0  0  0  0
   -8.2332    3.9942  -18.7131 C   0  0  0  0  0  0  0  0  0  0  0  0
   -9.2352    3.8607  -17.7633 C   0  0  0  0  0  0  0  0  0  0  0  0
   -8.9955    4.2588  -16.4541 C   0  0  0  0  0  0  0  0  0  0  0  0
   -7.7641    4.8283  -16.0996 C   0  0  0  0  0  0  0  0  0  0  0  0
   -7.6574    5.4287  -14.7364 C   0  0  0  0  0  0  0  0  0  0  0  0
   -7.3821    6.5604  -14.6677 O   0  0  0  0  0  0  0  0  0  0  0  0
   -8.0149    4.4173  -13.6271 N   0  0  0  0  0  0  0  0  0  0  0  0
   -8.0161    4.5545  -12.2705 C   0  0  0  0  0  0  0  0  0  0  0  0
   -7.7192    5.7031  -11.5080 C   0  0  0  0  0  0  0  0  0  0  0  0
   -7.8293    5.4873  -10.1930 N   0  0  0  0  0  0  0  0  0  0  0  0
   -8.1893    4.1863  -10.1252 N   0  0  0  0  0  0  0  0  0  0  0  0
   -8.3666    3.5673   -8.8345 C   0  0  0  0  0  0  0  0  0  0  0  0
   -8.3156    3.5868  -11.3480 C   0  0  0  0  0  0  0  0  0  0  0  0
   -4.6642    5.0322  -15.6813 C   0  0  0  0  0  0  0  0  0  0  0  0
   -3.4901    5.5064  -15.2111 N   0  0  0  0  0  0  0  0  0  0  0  0
   -3.0533    6.6470  -15.7668 C   0  0  0  0  0  0  0  0  0  0  0  0
   -1.9098    7.1512  -15.2762 F   0  0  0  0  0  0  0  0  0  0  0  0
   -3.6903    7.3137  -16.8089 C   0  0  0  0  0  0  0  0  0  0  0  0
   -3.1023    8.5946  -17.3282 C   0  0  0  0  0  0  0  0  0  0  0  0
  1  2  1  0
  2  3  1  0
  3  4  1  0
  4  5  2  0
  5  6  1  0
  6  7  2  0
  7  8  1  0
  8  9  2  0
  9 10  1  0
 10 11  2  0
 11 12  1  0
 12 13  2  0
 12 14  1  0
 14 15  1  0
 15 16  1  0
 16 17  2  0
 17 18  1  0
 18 19  1  0
 18 20  1  0
  5 21  1  0
 21 22  2  0
 22 23  1  0
 23 24  1  0
 23 25  2  0
 25 26  1  0
 25  4  1  0
 11  6  1  0
 20 15  2  0
M  END
>  <smiles>  (256) 
C85088-P68

>  <fragmenstein_outcome>  (256) 
acceptable

>  <inchikey>  (256) 
RTEKTTZGDCFNCZ-UHFFFAOYSA-N

>  <fragmenstein_mode>  (256) 
expansion

>  <HIPPO Pose ID>  (256) 
8396

>  <Energy>  (256) 
74.29601

>  <fragmenstein_error>  (256) 


>  <tags>  (256) 
{'openbind_xx01zvns2b_c1_fragmenstein', 'fragmenstein_placed'}

>  <ref_pdb>  (256) 
1

>  <scratch_subdir>  (256) 
/opt/xchem-fragalysis-2/maxwin/BulkDock/SCRATCH/511027/C85088-P68

>  <alias>  (256) 
CNCc1c(-c2ccccc2C(=O)Nc2cnn(C)c2)cnc(F)c1C

>  <HIPPO Compound ID>  (256) 
72635

>  <fragmenstein_runtime>  (256) 
2.234124

$$$$
Cc1cc(-c2ccc(Cl)cc2C(=O)N[C@H]2CN(C)[C@@]3(CCNC3)C2)cnc1F
     RDKit          3D

 28 31  0  0  0  0  0  0  0  0999 V2000
   -3.2445    8.7469  -17.5965 C   0  0  0  0  0  0  0  0  0  0  0  0
   -3.6441    7.4478  -16.9802 C   0  0  0  0  0  0  0  0  0  0  0  0
   -4.8717    6.8537  -17.2687 C   0  0  0  0  0  0  0  0  0  0  0  0
   -5.2297    5.6424  -16.6640 C   0  0  0  0  0  0  0  0  0  0  0  0
   -6.5445    5.0516  -16.9107 C   0  0  0  0  0  0  0  0  0  0  0  0
   -6.8711    4.6415  -18.2187 C   0  0  0  0  0  0  0  0  0  0  0  0
   -8.1591    4.2221  -18.5376 C   0  0  0  0  0  0  0  0  0  0  0  0
   -9.1238    4.1912  -17.5441 C   0  0  0  0  0  0  0  0  0  0  0  0
  -10.7585    3.9745  -17.9582 Cl  0  0  0  0  0  0  0  0  0  0  0  0
   -8.8119    4.4992  -16.2286 C   0  0  0  0  0  0  0  0  0  0  0  0
   -7.5319    4.9538  -15.9092 C   0  0  0  0  0  0  0  0  0  0  0  0
   -7.3764    5.5946  -14.5694 C   0  0  0  0  0  0  0  0  0  0  0  0
   -6.9625    6.6820  -14.5288 O   0  0  0  0  0  0  0  0  0  0  0  0
   -7.9083    4.6889  -13.4480 N   0  0  0  0  0  0  0  0  0  0  0  0
   -8.1323    4.9616  -12.0546 C   0  0  1  0  0  0  0  0  0  0  0  0
   -8.3332    3.7512  -11.1622 C   0  0  0  0  0  0  0  0  0  0  0  0
   -8.2799    4.3588   -9.8217 N   0  0  0  0  0  0  0  0  0  0  0  0
   -8.1879    3.3198   -8.8097 C   0  0  0  0  0  0  0  0  0  0  0  0
   -7.2374    5.4181   -9.8661 C   0  0  2  0  0  0  0  0  0  0  0  0
   -5.9436    5.2010   -9.0767 C   0  0  0  0  0  0  0  0  0  0  0  0
   -6.2196    5.7551   -7.6826 C   0  0  0  0  0  0  0  0  0  0  0  0
   -7.5003    6.4790   -7.7310 N   0  0  0  0  0  0  0  0  0  0  0  0
   -7.7614    6.6937   -9.1705 C   0  0  0  0  0  0  0  0  0  0  0  0
   -6.9736    5.6571  -11.3644 C   0  0  0  0  0  0  0  0  0  0  0  0
   -4.2990    5.0661  -15.8033 C   0  0  0  0  0  0  0  0  0  0  0  0
   -3.0804    5.5870  -15.5335 N   0  0  0  0  0  0  0  0  0  0  0  0
   -2.7899    6.7648  -16.1228 C   0  0  0  0  0  0  0  0  0  0  0  0
   -1.5858    7.2957  -15.8568 F   0  0  0  0  0  0  0  0  0  0  0  0
  1  2  1  0
  2  3  2  0
  3  4  1  0
  4  5  1  0
  5  6  2  0
  6  7  1  0
  7  8  2  0
  8  9  1  0
  8 10  1  0
 10 11  2  0
 11 12  1  0
 12 13  2  0
 12 14  1  0
 15 14  1  6
 15 16  1  0
 16 17  1  0
 17 18  1  0
 17 19  1  0
 19 20  1  1
 20 21  1  0
 21 22  1  0
 22 23  1  0
 19 24  1  0
  4 25  2  0
 25 26  1  0
 26 27  2  0
 27 28  1  0
 27  2  1  0
 11  5  1  0
 24 15  1  0
 23 19  1  0
M  END
>  <smiles>  (257) 
C85141-P68

>  <fragmenstein_outcome>  (257) 
acceptable

>  <inchikey>  (257) 
XKWUXPMDXSMZKG-UHFFFAOYSA-N

>  <fragmenstein_mode>  (257) 
expansion

>  <HIPPO Pose ID>  (257) 
8423

>  <Energy>  (257) 
114.545144

>  <fragmenstein_error>  (257) 


>  <tags>  (257) 
{'openbind_xx01zvns2b_c1_fragmenstein', 'fragmenstein_placed'}

>  <ref_pdb>  (257) 
1

>  <scratch_subdir>  (257) 
/opt/xchem-fragalysis-2/maxwin/BulkDock/SCRATCH/511027/C85141-P68

>  <alias>  (257) 
Cc1cc(-c2ccc(Cl)cc2C(=O)N[C@H]2CN(C)[C@@]3(CCNC3)C2)cnc1F

>  <HIPPO Compound ID>  (257) 
85141

>  <fragmenstein_runtime>  (257) 
3.751721

$$$$
CN(C)Cc1nc(CC(=O)c2cc(Cl)cc3c2cnn3[C@H]2C[C@@](C)(O)C2)cs1
     RDKit          3D

 28 31  0  0  0  0  0  0  0  0999 V2000
   -9.8997    4.1294   -6.3839 C   0  0  0  0  0  0  0  0  0  0  0  0
   -9.2175    2.8975   -6.7375 N   0  0  0  0  0  0  0  0  0  0  0  0
   -9.8869    1.8089   -6.0176 C   0  0  0  0  0  0  0  0  0  0  0  0
   -9.2359    2.5435   -8.1739 C   0  0  0  0  0  0  0  0  0  0  0  0
   -8.5427    3.4449   -9.1676 C   0  0  0  0  0  0  0  0  0  0  0  0
   -8.6115    3.2041  -10.4602 N   0  0  0  0  0  0  0  0  0  0  0  0
   -7.8653    4.1107  -11.1767 C   0  0  0  0  0  0  0  0  0  0  0  0
   -7.6671    3.8363  -12.6174 C   0  0  0  0  0  0  0  0  0  0  0  0
   -8.3778    4.7933  -13.5350 C   0  0  0  0  0  0  0  0  0  0  0  0
   -9.3042    5.5494  -13.2511 O   0  0  0  0  0  0  0  0  0  0  0  0
   -7.9400    4.7707  -14.9322 C   0  0  0  0  0  0  0  0  0  0  0  0
   -8.8696    4.3889  -15.8908 C   0  0  0  0  0  0  0  0  0  0  0  0
   -8.5371    4.4476  -17.2307 C   0  0  0  0  0  0  0  0  0  0  0  0
   -9.7569    4.1296  -18.3633 Cl  0  0  0  0  0  0  0  0  0  0  0  0
   -7.2909    4.8808  -17.6757 C   0  0  0  0  0  0  0  0  0  0  0  0
   -6.3822    5.2830  -16.6910 C   0  0  0  0  0  0  0  0  0  0  0  0
   -6.6681    5.2162  -15.3277 C   0  0  0  0  0  0  0  0  0  0  0  0
   -5.5000    5.7009  -14.7029 C   0  0  0  0  0  0  0  0  0  0  0  0
   -4.5691    6.0912  -15.5751 N   0  0  0  0  0  0  0  0  0  0  0  0
   -5.1438    5.8708  -16.7723 N   0  0  0  0  0  0  0  0  0  0  0  0
   -4.6421    6.4630  -18.0266 C   0  0  1  0  0  0  0  0  0  0  0  0
   -3.3719    7.3322  -17.9006 C   0  0  0  0  0  0  0  0  0  0  0  0
   -2.8539    6.6524  -19.2062 C   0  0  1  0  0  0  0  0  0  0  0  0
   -3.1800    7.3867  -20.5010 C   0  0  0  0  0  0  0  0  0  0  0  0
   -1.4530    6.3016  -19.2046 O   0  0  0  0  0  0  0  0  0  0  0  0
   -3.8081    5.4752  -18.8626 C   0  0  0  0  0  0  0  0  0  0  0  0
   -7.3001    5.1159  -10.4214 C   0  0  0  0  0  0  0  0  0  0  0  0
   -7.5924    4.8219   -8.7625 S   0  0  0  0  0  0  0  0  0  0  0  0
  1  2  1  0
  2  3  1  0
  2  4  1  0
  4  5  1  0
  5  6  2  0
  6  7  1  0
  7  8  1  0
  8  9  1  0
  9 10  2  0
  9 11  1  0
 11 12  2  0
 12 13  1  0
 13 14  1  0
 13 15  2  0
 15 16  1  0
 16 17  2  0
 17 18  1  0
 18 19  2  0
 19 20  1  0
 21 20  1  1
 21 22  1  0
 22 23  1  0
 23 24  1  6
 23 25  1  0
 23 26  1  0
  7 27  2  0
 27 28  1  0
 28  5  1  0
 17 11  1  0
 26 21  1  0
 20 16  1  0
M  END
>  <smiles>  (258) 
C85415-P69

>  <fragmenstein_outcome>  (258) 
acceptable

>  <inchikey>  (258) 
GAHBJXOYUUOCLT-UHFFFAOYSA-N

>  <fragmenstein_mode>  (258) 
expansion

>  <HIPPO Pose ID>  (258) 
8637

>  <Energy>  (258) 
102.836735

>  <fragmenstein_error>  (258) 


>  <tags>  (258) 
{'openbind_xx01zvns2b_c1_fragmenstein', 'fragmenstein_placed'}

>  <ref_pdb>  (258) 
1

>  <scratch_subdir>  (258) 
/opt/xchem-fragalysis-2/maxwin/BulkDock/SCRATCH/511027/C85415-P69

>  <alias>  (258) 
CN(C)Cc1nc(CC(=O)c2cc(Cl)cc3c2cnn3[C@H]2C[C@@](C)(O)C2)cs1

>  <HIPPO Compound ID>  (258) 
72865

>  <fragmenstein_runtime>  (258) 
5.633438

$$$$
CCCc1cc(N)cc(C(=O)Nc2cnn(C)c2)c1
     RDKit          3D

 19 20  0  0  0  0  0  0  0  0999 V2000
   -2.6163    5.3153  -19.3770 C   0  0  0  0  0  0  0  0  0  0  0  0
   -3.6264    5.3260  -18.2387 C   0  0  0  0  0  0  0  0  0  0  0  0
   -5.0456    5.2047  -18.7881 C   0  0  0  0  0  0  0  0  0  0  0  0
   -6.1475    4.9339  -17.7969 C   0  0  0  0  0  0  0  0  0  0  0  0
   -7.3667    4.4803  -18.3188 C   0  0  0  0  0  0  0  0  0  0  0  0
   -8.4913    4.3303  -17.5151 C   0  0  0  0  0  0  0  0  0  0  0  0
   -9.6975    3.9206  -18.0850 N   0  0  0  0  0  0  0  0  0  0  0  0
   -8.3680    4.4765  -16.1410 C   0  0  0  0  0  0  0  0  0  0  0  0
   -7.1586    4.9114  -15.5932 C   0  0  0  0  0  0  0  0  0  0  0  0
   -7.0823    5.2292  -14.1402 C   0  0  0  0  0  0  0  0  0  0  0  0
   -6.5844    6.2339  -13.8129 O   0  0  0  0  0  0  0  0  0  0  0  0
   -7.7907    4.1419  -13.3008 N   0  0  0  0  0  0  0  0  0  0  0  0
   -7.9426    4.0240  -11.9499 C   0  0  0  0  0  0  0  0  0  0  0  0
   -8.4548    2.9286  -11.2318 C   0  0  0  0  0  0  0  0  0  0  0  0
   -8.4685    3.1447   -9.9168 N   0  0  0  0  0  0  0  0  0  0  0  0
   -7.9687    4.3818   -9.7994 N   0  0  0  0  0  0  0  0  0  0  0  0
   -7.8069    4.9279   -8.4817 C   0  0  0  0  0  0  0  0  0  0  0  0
   -7.6409    4.9591  -10.9910 C   0  0  0  0  0  0  0  0  0  0  0  0
   -6.0581    5.1711  -16.4212 C   0  0  0  0  0  0  0  0  0  0  0  0
  1  2  1  0
  2  3  1  0
  3  4  1  0
  4  5  2  0
  5  6  1  0
  6  7  1  0
  6  8  2  0
  8  9  1  0
  9 10  1  0
 10 11  2  0
 10 12  1  0
 12 13  1  0
 13 14  1  0
 14 15  2  0
 15 16  1  0
 16 17  1  0
 16 18  1  0
  9 19  2  0
 19  4  1  0
 18 13  2  0
M  END
>  <smiles>  (259) 
C85717-P71

>  <fragmenstein_outcome>  (259) 
acceptable

>  <inchikey>  (259) 
IKFLIMCYWKJILX-UHFFFAOYSA-N

>  <fragmenstein_mode>  (259) 
expansion

>  <HIPPO Pose ID>  (259) 
8811

>  <Energy>  (259) 
36.050622

>  <fragmenstein_error>  (259) 


>  <tags>  (259) 
{'openbind_xx01zvns2b_c1_fragmenstein', 'fragmenstein_placed'}

>  <ref_pdb>  (259) 
1

>  <scratch_subdir>  (259) 
/opt/xchem-fragalysis-2/maxwin/BulkDock/SCRATCH/511027/C85717-P71

>  <alias>  (259) 
CCCc1cc(N)cc(C(=O)Nc2cnn(C)c2)c1

>  <HIPPO Compound ID>  (259) 
70685

>  <fragmenstein_runtime>  (259) 
2.561383

$$$$
CO[C@@H]1CC[C@@]2(CN1)c1c(cccc1C(=O)N[C@@H]1CN(C)[C@@]3(CCNC3)C1)NN[C@H]2C1CCNCC1
     RDKit          3D

 36 41  0  0  0  0  0  0  0  0999 V2000
   -6.6749   10.5533  -13.3069 C   0  0  0  0  0  0  0  0  0  0  0  0
   -6.4961   10.1638  -14.6605 O   0  0  0  0  0  0  0  0  0  0  0  0
   -5.6734    9.0100  -14.8266 C   0  0  2  0  0  0  0  0  0  0  0  0
   -5.2610    8.9633  -16.3035 C   0  0  0  0  0  0  0  0  0  0  0  0
   -5.3282    7.6060  -17.0359 C   0  0  0  0  0  0  0  0  0  0  0  0
   -5.4876    6.2739  -16.1936 C   0  0  1  0  0  0  0  0  0  0  0  0
   -5.5256    6.6388  -14.6994 C   0  0  0  0  0  0  0  0  0  0  0  0
   -6.3635    7.8004  -14.4285 N   0  0  0  0  0  0  0  0  0  0  0  0
   -6.7195    5.4450  -16.7333 C   0  0  0  0  0  0  0  0  0  0  0  0
   -6.5428    4.9173  -18.0424 C   0  0  0  0  0  0  0  0  0  0  0  0
   -7.5725    4.2225  -18.7074 C   0  0  0  0  0  0  0  0  0  0  0  0
   -8.7813    3.9694  -18.0875 C   0  0  0  0  0  0  0  0  0  0  0  0
   -8.9565    4.4001  -16.7874 C   0  0  0  0  0  0  0  0  0  0  0  0
   -7.9539    5.1362  -16.1147 C   0  0  0  0  0  0  0  0  0  0  0  0
   -8.4220    5.5055  -14.7604 C   0  0  0  0  0  0  0  0  0  0  0  0
   -9.1814    6.3719  -14.6447 O   0  0  0  0  0  0  0  0  0  0  0  0
   -7.8493    4.5532  -13.7254 N   0  0  0  0  0  0  0  0  0  0  0  0
   -8.1537    4.3964  -12.3443 C   0  0  2  0  0  0  0  0  0  0  0  0
   -7.9243    5.6703  -11.5171 C   0  0  0  0  0  0  0  0  0  0  0  0
   -7.2339    5.2286  -10.2983 N   0  0  0  0  0  0  0  0  0  0  0  0
   -7.5375    6.0723   -9.1542 C   0  0  0  0  0  0  0  0  0  0  0  0
   -7.4980    3.7862  -10.1685 C   0  0  2  0  0  0  0  0  0  0  0  0
   -8.8610    3.3739   -9.5771 C   0  0  0  0  0  0  0  0  0  0  0  0
   -8.5666    2.2164   -8.6465 C   0  0  0  0  0  0  0  0  0  0  0  0
   -7.2451    1.7577   -9.0768 N   0  0  0  0  0  0  0  0  0  0  0  0
   -6.5034    3.0018   -9.3289 C   0  0  0  0  0  0  0  0  0  0  0  0
   -7.3717    3.3334  -11.6322 C   0  0  0  0  0  0  0  0  0  0  0  0
   -5.2711    4.9058  -18.6611 N   0  0  0  0  0  0  0  0  0  0  0  0
   -4.0874    5.2243  -17.9863 N   0  0  0  0  0  0  0  0  0  0  0  0
   -4.2841    5.2883  -16.5058 C   0  0  1  0  0  0  0  0  0  0  0  0
   -2.8696    5.4880  -15.8672 C   0  0  0  0  0  0  0  0  0  0  0  0
   -2.2859    6.8985  -15.9950 C   0  0  0  0  0  0  0  0  0  0  0  0
   -0.9059    7.0116  -15.3516 C   0  0  0  0  0  0  0  0  0  0  0  0
   -0.9411    6.6052  -13.9485 N   0  0  0  0  0  0  0  0  0  0  0  0
   -1.3422    5.2057  -13.8318 C   0  0  0  0  0  0  0  0  0  0  0  0
   -2.7293    4.9430  -14.4259 C   0  0  0  0  0  0  0  0  0  0  0  0
  1  2  1  0
  3  2  1  6
  3  4  1  0
  4  5  1  0
  6  5  1  6
  6  7  1  0
  7  8  1  0
  6  9  1  0
  9 10  1  0
 10 11  2  0
 11 12  1  0
 12 13  2  0
 13 14  1  0
 14 15  1  0
 15 16  2  0
 15 17  1  0
 18 17  1  6
 18 19  1  0
 19 20  1  0
 20 21  1  0
 20 22  1  0
 22 23  1  1
 23 24  1  0
 24 25  1  0
 25 26  1  0
 22 27  1  0
 10 28  1  0
 28 29  1  0
 29 30  1  0
 30 31  1  1
 31 32  1  0
 32 33  1  0
 33 34  1  0
 34 35  1  0
 35 36  1  0
  8  3  1  0
 14  9  2  0
 27 18  1  0
 36 31  1  0
 30  6  1  0
 26 22  1  0
M  END
>  <smiles>  (260) 
C85850-P72

>  <fragmenstein_outcome>  (260) 
acceptable

>  <inchikey>  (260) 
MNZXJJNJNCTWDP-UHFFFAOYSA-N

>  <fragmenstein_mode>  (260) 
expansion

>  <HIPPO Pose ID>  (260) 
8890

>  <Energy>  (260) 
166.565069

>  <fragmenstein_error>  (260) 


>  <tags>  (260) 
{'openbind_xx01zvns2b_c1_fragmenstein', 'fragmenstein_placed'}

>  <ref_pdb>  (260) 
1

>  <scratch_subdir>  (260) 
/opt/xchem-fragalysis-2/maxwin/BulkDock/SCRATCH/511027/C85850-P72

>  <alias>  (260) 
CO[C@@H]1CC[C@@]2(CN1)c1c(cccc1C(=O)N[C@@H]1CN(C)[C@@]3(CCNC3)C1)NN[C@H]2C1CCNCC1

>  <HIPPO Compound ID>  (260) 
79167

>  <fragmenstein_runtime>  (260) 
11.161064

$$$$
COCNC[C@@]12CCC[C@@H]1NNc1cccc(C(=O)N[C@@H]3CN(C)[C@@]4(CCNC4)C3)c12
     RDKit          3D

 31 35  0  0  0  0  0  0  0  0999 V2000
   -0.6332    7.2509  -15.6067 C   0  0  0  0  0  0  0  0  0  0  0  0
   -1.4705    6.9427  -14.5024 O   0  0  0  0  0  0  0  0  0  0  0  0
   -2.3664    5.8734  -14.7655 C   0  0  0  0  0  0  0  0  0  0  0  0
   -3.4785    6.3609  -15.5244 N   0  0  0  0  0  0  0  0  0  0  0  0
   -4.4210    5.3287  -15.9408 C   0  0  0  0  0  0  0  0  0  0  0  0
   -5.2725    5.7676  -17.1846 C   0  0  1  0  0  0  0  0  0  0  0  0
   -5.3820    7.3127  -17.3507 C   0  0  0  0  0  0  0  0  0  0  0  0
   -4.1140    7.7953  -18.0693 C   0  0  0  0  0  0  0  0  0  0  0  0
   -3.4084    6.5459  -18.5861 C   0  0  0  0  0  0  0  0  0  0  0  0
   -4.4497    5.4281  -18.4789 C   0  0  2  0  0  0  0  0  0  0  0  0
   -5.2531    5.4924  -19.7025 N   0  0  0  0  0  0  0  0  0  0  0  0
   -6.3137    4.5874  -19.6203 N   0  0  0  0  0  0  0  0  0  0  0  0
   -7.1361    4.6237  -18.4583 C   0  0  0  0  0  0  0  0  0  0  0  0
   -8.4173    4.0588  -18.5859 C   0  0  0  0  0  0  0  0  0  0  0  0
   -9.2903    4.0262  -17.5188 C   0  0  0  0  0  0  0  0  0  0  0  0
   -8.8662    4.5145  -16.2945 C   0  0  0  0  0  0  0  0  0  0  0  0
   -7.5732    5.0550  -16.1206 C   0  0  0  0  0  0  0  0  0  0  0  0
   -7.3442    5.7024  -14.7832 C   0  0  0  0  0  0  0  0  0  0  0  0
   -6.9361    6.7921  -14.7632 O   0  0  0  0  0  0  0  0  0  0  0  0
   -7.8073    4.7893  -13.6336 N   0  0  0  0  0  0  0  0  0  0  0  0
   -7.9548    5.0587  -12.2269 C   0  0  2  0  0  0  0  0  0  0  0  0
   -6.7418    5.7068  -11.5759 C   0  0  0  0  0  0  0  0  0  0  0  0
   -6.9104    5.4711  -10.1293 N   0  0  0  0  0  0  0  0  0  0  0  0
   -7.7482    6.5088   -9.5240 C   0  0  0  0  0  0  0  0  0  0  0  0
   -7.4792    4.1069  -10.0351 C   0  0  2  0  0  0  0  0  0  0  0  0
   -8.3579    3.8173   -8.8191 C   0  0  0  0  0  0  0  0  0  0  0  0
   -8.4168    2.3071   -8.7748 C   0  0  0  0  0  0  0  0  0  0  0  0
   -7.1355    1.8389   -9.3390 N   0  0  0  0  0  0  0  0  0  0  0  0
   -6.3996    3.0357   -9.7973 C   0  0  0  0  0  0  0  0  0  0  0  0
   -8.1975    3.8212  -11.3807 C   0  0  0  0  0  0  0  0  0  0  0  0
   -6.6714    5.1216  -17.2149 C   0  0  0  0  0  0  0  0  0  0  0  0
  1  2  1  0
  2  3  1  0
  3  4  1  0
  4  5  1  0
  6  5  1  1
  6  7  1  0
  7  8  1  0
  8  9  1  0
 10  9  1  6
 10 11  1  0
 11 12  1  0
 12 13  1  0
 13 14  2  0
 14 15  1  0
 15 16  2  0
 16 17  1  0
 17 18  1  0
 18 19  2  0
 18 20  1  0
 21 20  1  6
 21 22  1  0
 22 23  1  0
 23 24  1  0
 23 25  1  0
 25 26  1  1
 26 27  1  0
 27 28  1  0
 28 29  1  0
 25 30  1  0
 17 31  2  0
 10  6  1  0
 31 13  1  0
 31  6  1  0
 30 21  1  0
 29 25  1  0
M  END
>  <smiles>  (261) 
C85860-P72

>  <fragmenstein_outcome>  (261) 
acceptable

>  <inchikey>  (261) 
BNURXCATLRYUCD-UHFFFAOYSA-N

>  <fragmenstein_mode>  (261) 
expansion

>  <HIPPO Pose ID>  (261) 
8891

>  <Energy>  (261) 
136.731524

>  <fragmenstein_error>  (261) 


>  <tags>  (261) 
{'openbind_xx01zvns2b_c1_fragmenstein', 'fragmenstein_placed'}

>  <ref_pdb>  (261) 
1

>  <scratch_subdir>  (261) 
/opt/xchem-fragalysis-2/maxwin/BulkDock/SCRATCH/511027/C85860-P72

>  <alias>  (261) 
COCNC[C@@]12CCC[C@@H]1NNc1cccc(C(=O)N[C@@H]3CN(C)[C@@]4(CCNC4)C3)c12

>  <HIPPO Compound ID>  (261) 
78078

>  <fragmenstein_runtime>  (261) 
7.814097

$$$$
CNCc1cc(OC)ncc1-c1ccc(Cl)cc1C(=O)N[C@@H]1CNC2(CCN(C)CC2)C1
     RDKit          3D

 32 35  0  0  0  0  0  0  0  0999 V2000
   -5.1728    7.3659  -21.0345 C   0  0  0  0  0  0  0  0  0  0  0  0
   -5.2916    7.1806  -19.5895 N   0  0  0  0  0  0  0  0  0  0  0  0
   -4.3518    6.1455  -19.1668 C   0  0  0  0  0  0  0  0  0  0  0  0
   -4.1785    6.0443  -17.6683 C   0  0  0  0  0  0  0  0  0  0  0  0
   -3.0297    6.6916  -17.1599 C   0  0  0  0  0  0  0  0  0  0  0  0
   -2.6511    6.5056  -15.8466 C   0  0  0  0  0  0  0  0  0  0  0  0
   -1.5437    7.1997  -15.4129 O   0  0  0  0  0  0  0  0  0  0  0  0
   -1.2956    7.0327  -14.0202 C   0  0  0  0  0  0  0  0  0  0  0  0
   -3.2833    5.6676  -15.0223 N   0  0  0  0  0  0  0  0  0  0  0  0
   -4.4402    5.1464  -15.4921 C   0  0  0  0  0  0  0  0  0  0  0  0
   -5.0130    5.3521  -16.7620 C   0  0  0  0  0  0  0  0  0  0  0  0
   -6.4230    4.9181  -17.0123 C   0  0  0  0  0  0  0  0  0  0  0  0
   -6.8420    4.4135  -18.2568 C   0  0  0  0  0  0  0  0  0  0  0  0
   -8.1803    4.1326  -18.5448 C   0  0  0  0  0  0  0  0  0  0  0  0
   -9.1390    4.2988  -17.5655 C   0  0  0  0  0  0  0  0  0  0  0  0
  -10.7877    4.1499  -17.9573 Cl  0  0  0  0  0  0  0  0  0  0  0  0
   -8.7762    4.6856  -16.2901 C   0  0  0  0  0  0  0  0  0  0  0  0
   -7.4441    5.0172  -16.0268 C   0  0  0  0  0  0  0  0  0  0  0  0
   -7.2267    5.5808  -14.6702 C   0  0  0  0  0  0  0  0  0  0  0  0
   -7.0125    6.7178  -14.5488 O   0  0  0  0  0  0  0  0  0  0  0  0
   -7.3145    4.4644  -13.6155 N   0  0  0  0  0  0  0  0  0  0  0  0
   -7.0630    4.4951  -12.1959 C   0  0  2  0  0  0  0  0  0  0  0  0
   -7.9116    3.5204  -11.3732 C   0  0  0  0  0  0  0  0  0  0  0  0
   -8.3019    4.2114  -10.1251 N   0  0  0  0  0  0  0  0  0  0  0  0
   -7.5051    5.4633  -10.0577 C   0  0  0  0  0  0  0  0  0  0  0  0
   -8.2046    6.5944   -9.2893 C   0  0  0  0  0  0  0  0  0  0  0  0
   -8.2823    6.3242   -7.7850 C   0  0  0  0  0  0  0  0  0  0  0  0
   -6.9508    6.0905   -7.2077 N   0  0  0  0  0  0  0  0  0  0  0  0
   -7.0569    5.8647   -5.7674 C   0  0  0  0  0  0  0  0  0  0  0  0
   -6.3148    4.9393   -7.8638 C   0  0  0  0  0  0  0  0  0  0  0  0
   -6.1546    5.1884   -9.3646 C   0  0  0  0  0  0  0  0  0  0  0  0
   -7.3412    5.8326  -11.5343 C   0  0  0  0  0  0  0  0  0  0  0  0
  1  2  1  0
  2  3  1  0
  3  4  1  0
  4  5  2  0
  5  6  1  0
  6  7  1  0
  7  8  1  0
  6  9  2  0
  9 10  1  0
 10 11  2  0
 11 12  1  0
 12 13  2  0
 13 14  1  0
 14 15  2  0
 15 16  1  0
 15 17  1  0
 17 18  2  0
 18 19  1  0
 19 20  2  0
 19 21  1  0
 22 21  1  6
 22 23  1  0
 23 24  1  0
 24 25  1  0
 25 26  1  0
 26 27  1  0
 27 28  1  0
 28 29  1  0
 28 30  1  0
 30 31  1  0
 25 32  1  0
 11  4  1  0
 18 12  1  0
 32 22  1  0
 31 25  1  0
M  END
>  <smiles>  (262) 
C85865-P72

>  <fragmenstein_outcome>  (262) 
acceptable

>  <inchikey>  (262) 
BLBCHUXVNXPYND-UHFFFAOYSA-N

>  <fragmenstein_mode>  (262) 
expansion

>  <HIPPO Pose ID>  (262) 
8893

>  <Energy>  (262) 
82.537999

>  <fragmenstein_error>  (262) 


>  <tags>  (262) 
{'openbind_xx01zvns2b_c1_fragmenstein', 'fragmenstein_placed'}

>  <ref_pdb>  (262) 
1

>  <scratch_subdir>  (262) 
/opt/xchem-fragalysis-2/maxwin/BulkDock/SCRATCH/511027/C85865-P72

>  <alias>  (262) 
CNCc1cc(OC)ncc1-c1ccc(Cl)cc1C(=O)N[C@@H]1CNC2(CCN(C)CC2)C1

>  <HIPPO Compound ID>  (262) 
85003

>  <fragmenstein_runtime>  (262) 
4.955149

$$$$
COc1ccc(-c2ccc(Cl)cc2C(=O)N[C@@H]2CN(C)[C@@]3(CCNC3)C2)cn1
     RDKit          3D

 28 31  0  0  0  0  0  0  0  0999 V2000
   -0.8890    6.7604  -14.4583 C   0  0  0  0  0  0  0  0  0  0  0  0
   -1.5245    7.3342  -15.5961 O   0  0  0  0  0  0  0  0  0  0  0  0
   -2.7486    6.7628  -15.8732 C   0  0  0  0  0  0  0  0  0  0  0  0
   -3.4433    7.2959  -16.9446 C   0  0  0  0  0  0  0  0  0  0  0  0
   -4.6835    6.7516  -17.2625 C   0  0  0  0  0  0  0  0  0  0  0  0
   -5.2078    5.6983  -16.5014 C   0  0  0  0  0  0  0  0  0  0  0  0
   -6.5226    5.1203  -16.8102 C   0  0  0  0  0  0  0  0  0  0  0  0
   -6.8148    4.7500  -18.1421 C   0  0  0  0  0  0  0  0  0  0  0  0
   -8.0915    4.3359  -18.5203 C   0  0  0  0  0  0  0  0  0  0  0  0
   -9.0911    4.2791  -17.5656 C   0  0  0  0  0  0  0  0  0  0  0  0
  -10.7200    4.1131  -18.0299 Cl  0  0  0  0  0  0  0  0  0  0  0  0
   -8.8146    4.5291  -16.2325 C   0  0  0  0  0  0  0  0  0  0  0  0
   -7.5403    4.9582  -15.8503 C   0  0  0  0  0  0  0  0  0  0  0  0
   -7.4343    5.4433  -14.4443 C   0  0  0  0  0  0  0  0  0  0  0  0
   -7.0702    6.5315  -14.2471 O   0  0  0  0  0  0  0  0  0  0  0  0
   -7.9509    4.3717  -13.4676 N   0  0  0  0  0  0  0  0  0  0  0  0
   -8.2175    4.4447  -12.0580 C   0  0  2  0  0  0  0  0  0  0  0  0
   -8.1794    5.8383  -11.4496 C   0  0  0  0  0  0  0  0  0  0  0  0
   -8.3292    5.5530  -10.0179 N   0  0  0  0  0  0  0  0  0  0  0  0
   -7.9517    6.7033   -9.2127 C   0  0  0  0  0  0  0  0  0  0  0  0
   -7.6417    4.2572   -9.7533 C   0  0  2  0  0  0  0  0  0  0  0  0
   -8.6064    3.3144   -9.0292 C   0  0  0  0  0  0  0  0  0  0  0  0
   -8.4825    3.7382   -7.5803 C   0  0  0  0  0  0  0  0  0  0  0  0
   -7.0602    4.0927   -7.3904 N   0  0  0  0  0  0  0  0  0  0  0  0
   -6.4807    4.2476   -8.7479 C   0  0  0  0  0  0  0  0  0  0  0  0
   -7.2567    3.7104  -11.1457 C   0  0  0  0  0  0  0  0  0  0  0  0
   -4.4199    5.2534  -15.4399 C   0  0  0  0  0  0  0  0  0  0  0  0
   -3.1999    5.7432  -15.1186 N   0  0  0  0  0  0  0  0  0  0  0  0
  1  2  1  0
  2  3  1  0
  3  4  2  0
  4  5  1  0
  5  6  2  0
  6  7  1  0
  7  8  2  0
  8  9  1  0
  9 10  2  0
 10 11  1  0
 10 12  1  0
 12 13  2  0
 13 14  1  0
 14 15  2  0
 14 16  1  0
 17 16  1  6
 17 18  1  0
 18 19  1  0
 19 20  1  0
 19 21  1  0
 21 22  1  1
 22 23  1  0
 23 24  1  0
 24 25  1  0
 21 26  1  0
  6 27  1  0
 27 28  2  0
 28  3  1  0
 13  7  1  0
 26 17  1  0
 25 21  1  0
M  END
>  <smiles>  (263) 
C85771-P72

>  <fragmenstein_outcome>  (263) 
acceptable

>  <inchikey>  (263) 
QLCXODTVMRXTQG-UHFFFAOYSA-N

>  <fragmenstein_mode>  (263) 
expansion

>  <HIPPO Pose ID>  (263) 
8907

>  <Energy>  (263) 
104.458828

>  <fragmenstein_error>  (263) 


>  <tags>  (263) 
{'openbind_xx01zvns2b_c1_fragmenstein', 'fragmenstein_placed'}

>  <ref_pdb>  (263) 
1

>  <scratch_subdir>  (263) 
/opt/xchem-fragalysis-2/maxwin/BulkDock/SCRATCH/511027/C85771-P72

>  <alias>  (263) 
COc1ccc(-c2ccc(Cl)cc2C(=O)N[C@@H]2CN(C)[C@@]3(CCNC3)C2)cn1

>  <HIPPO Compound ID>  (263) 
101310

>  <fragmenstein_runtime>  (263) 
5.699294

$$$$
CN1C[C@H](NC(=O)c2cccc3c2C2=C(CN3)[C@@H](CCN)NC2)C[C@]12CCNC2
     RDKit          3D

 29 33  0  0  0  0  0  0  0  0999 V2000
   -7.6694    6.1032   -9.1451 C   0  0  0  0  0  0  0  0  0  0  0  0
   -8.1664    5.2668  -10.2196 N   0  0  0  0  0  0  0  0  0  0  0  0
   -7.6435    5.6438  -11.5421 C   0  0  0  0  0  0  0  0  0  0  0  0
   -7.2761    4.3284  -12.2373 C   0  0  2  0  0  0  0  0  0  0  0  0
   -7.4387    4.2795  -13.6588 N   0  0  0  0  0  0  0  0  0  0  0  0
   -7.6545    5.3997  -14.6714 C   0  0  0  0  0  0  0  0  0  0  0  0
   -7.6598    6.5525  -14.5297 O   0  0  0  0  0  0  0  0  0  0  0  0
   -7.7743    4.8449  -16.0324 C   0  0  0  0  0  0  0  0  0  0  0  0
   -9.0004    4.2973  -16.4100 C   0  0  0  0  0  0  0  0  0  0  0  0
   -9.2172    3.9460  -17.7360 C   0  0  0  0  0  0  0  0  0  0  0  0
   -8.2145    4.1584  -18.6788 C   0  0  0  0  0  0  0  0  0  0  0  0
   -6.9867    4.7315  -18.3141 C   0  0  0  0  0  0  0  0  0  0  0  0
   -6.7352    5.0123  -16.9548 C   0  0  0  0  0  0  0  0  0  0  0  0
   -5.4002    5.4844  -16.6125 C   0  0  0  0  0  0  0  0  0  0  0  0
   -4.5826    5.9005  -17.5792 C   0  0  0  0  0  0  0  0  0  0  0  0
   -4.8776    5.7999  -19.0333 C   0  0  0  0  0  0  0  0  0  0  0  0
   -5.9968    4.8961  -19.3054 N   0  0  0  0  0  0  0  0  0  0  0  0
   -3.3137    6.4035  -16.9839 C   0  0  1  0  0  0  0  0  0  0  0  0
   -3.2358    7.9303  -16.7748 C   0  0  0  0  0  0  0  0  0  0  0  0
   -3.5492    8.8001  -17.9909 C   0  0  0  0  0  0  0  0  0  0  0  0
   -4.9650    9.1768  -18.0615 N   0  0  0  0  0  0  0  0  0  0  0  0
   -3.2874    5.7493  -15.6475 N   0  0  0  0  0  0  0  0  0  0  0  0
   -4.7130    5.5222  -15.2983 C   0  0  0  0  0  0  0  0  0  0  0  0
   -8.1259    3.3132  -11.5105 C   0  0  0  0  0  0  0  0  0  0  0  0
   -8.0315    3.8102  -10.0578 C   0  0  2  0  0  0  0  0  0  0  0  0
   -9.1299    3.1996   -9.1867 C   0  0  0  0  0  0  0  0  0  0  0  0
   -8.5014    2.0254   -8.4707 C   0  0  0  0  0  0  0  0  0  0  0  0
   -7.1871    1.8623   -9.1102 N   0  0  0  0  0  0  0  0  0  0  0  0
   -6.7680    3.2424   -9.3968 C   0  0  0  0  0  0  0  0  0  0  0  0
  1  2  1  0
  2  3  1  0
  3  4  1  0
  4  5  1  6
  5  6  1  0
  6  7  2  0
  6  8  1  0
  8  9  2  0
  9 10  1  0
 10 11  2  0
 11 12  1  0
 12 13  2  0
 13 14  1  0
 14 15  2  0
 15 16  1  0
 16 17  1  0
 15 18  1  0
 18 19  1  1
 19 20  1  0
 20 21  1  0
 18 22  1  0
 22 23  1  0
  4 24  1  0
 25 24  1  6
 25 26  1  0
 26 27  1  0
 27 28  1  0
 28 29  1  0
 25  2  1  0
 13  8  1  0
 23 14  1  0
 29 25  1  0
 17 12  1  0
M  END
>  <smiles>  (264) 
C85898-P72

>  <fragmenstein_outcome>  (264) 
acceptable

>  <inchikey>  (264) 
DZYWPYRZHVXBEM-UHFFFAOYSA-N

>  <fragmenstein_mode>  (264) 
expansion

>  <HIPPO Pose ID>  (264) 
8920

>  <Energy>  (264) 
94.22898

>  <fragmenstein_error>  (264) 


>  <tags>  (264) 
{'openbind_xx01zvns2b_c1_fragmenstein', 'fragmenstein_placed'}

>  <ref_pdb>  (264) 
1

>  <scratch_subdir>  (264) 
/opt/xchem-fragalysis-2/maxwin/BulkDock/SCRATCH/511027/C85898-P72

>  <alias>  (264) 
CN1C[C@H](NC(=O)c2cccc3c2C2=C(CN3)[C@@H](CCN)NC2)C[C@]12CCNC2

>  <HIPPO Compound ID>  (264) 
85898

>  <fragmenstein_runtime>  (264) 
9.841325

$$$$
CNCc1cc(OC)ncc1-c1ccc(F)cc1C(=O)N[C@@H]1CN(C)[C@@]2(CCNC2)C1
     RDKit          3D

 31 34  0  0  0  0  0  0  0  0999 V2000
   -5.0034    9.5519  -19.5377 C   0  0  0  0  0  0  0  0  0  0  0  0
   -5.8616    8.9770  -18.5122 N   0  0  0  0  0  0  0  0  0  0  0  0
   -5.7634    7.5045  -18.4760 C   0  0  0  0  0  0  0  0  0  0  0  0
   -5.0918    6.9431  -17.2280 C   0  0  0  0  0  0  0  0  0  0  0  0
   -3.8472    7.4694  -16.8363 C   0  0  0  0  0  0  0  0  0  0  0  0
   -3.1824    6.9282  -15.7490 C   0  0  0  0  0  0  0  0  0  0  0  0
   -1.9537    7.4800  -15.4479 O   0  0  0  0  0  0  0  0  0  0  0  0
   -1.3403    6.8811  -14.3104 C   0  0  0  0  0  0  0  0  0  0  0  0
   -3.6578    5.9060  -15.0210 N   0  0  0  0  0  0  0  0  0  0  0  0
   -4.8471    5.3955  -15.4146 C   0  0  0  0  0  0  0  0  0  0  0  0
   -5.6144    5.8430  -16.4967 C   0  0  0  0  0  0  0  0  0  0  0  0
   -6.8072    5.0701  -16.9014 C   0  0  0  0  0  0  0  0  0  0  0  0
   -6.8230    4.5359  -18.2123 C   0  0  0  0  0  0  0  0  0  0  0  0
   -7.9277    3.8564  -18.7163 C   0  0  0  0  0  0  0  0  0  0  0  0
   -9.0115    3.6427  -17.8930 C   0  0  0  0  0  0  0  0  0  0  0  0
  -10.0664    2.9737  -18.3465 F   0  0  0  0  0  0  0  0  0  0  0  0
   -9.0272    4.0997  -16.5937 C   0  0  0  0  0  0  0  0  0  0  0  0
   -7.9385    4.8152  -16.0911 C   0  0  0  0  0  0  0  0  0  0  0  0
   -8.2633    5.4872  -14.8138 C   0  0  0  0  0  0  0  0  0  0  0  0
   -9.0018    6.3729  -14.8981 O   0  0  0  0  0  0  0  0  0  0  0  0
   -7.6252    4.8520  -13.5944 N   0  0  0  0  0  0  0  0  0  0  0  0
   -7.8278    5.1062  -12.1969 C   0  0  2  0  0  0  0  0  0  0  0  0
   -6.6868    5.8308  -11.5036 C   0  0  0  0  0  0  0  0  0  0  0  0
   -6.8749    5.5446  -10.0696 N   0  0  0  0  0  0  0  0  0  0  0  0
   -7.8225    6.4809   -9.4609 C   0  0  0  0  0  0  0  0  0  0  0  0
   -7.3310    4.1400  -10.0398 C   0  0  2  0  0  0  0  0  0  0  0  0
   -8.1074    3.6849   -8.8076 C   0  0  0  0  0  0  0  0  0  0  0  0
   -8.0415    2.1764   -8.9284 C   0  0  0  0  0  0  0  0  0  0  0  0
   -6.7689    1.8657   -9.6191 N   0  0  0  0  0  0  0  0  0  0  0  0
   -6.1477    3.1561   -9.9488 C   0  0  0  0  0  0  0  0  0  0  0  0
   -8.0998    3.8793  -11.3593 C   0  0  0  0  0  0  0  0  0  0  0  0
  1  2  1  0
  2  3  1  0
  3  4  1  0
  4  5  2  0
  5  6  1  0
  6  7  1  0
  7  8  1  0
  6  9  2  0
  9 10  1  0
 10 11  2  0
 11 12  1  0
 12 13  2  0
 13 14  1  0
 14 15  2  0
 15 16  1  0
 15 17  1  0
 17 18  2  0
 18 19  1  0
 19 20  2  0
 19 21  1  0
 22 21  1  6
 22 23  1  0
 23 24  1  0
 24 25  1  0
 24 26  1  0
 26 27  1  1
 27 28  1  0
 28 29  1  0
 29 30  1  0
 26 31  1  0
 11  4  1  0
 18 12  1  0
 31 22  1  0
 30 26  1  0
M  END
>  <smiles>  (265) 
C85904-P72

>  <fragmenstein_outcome>  (265) 
acceptable

>  <inchikey>  (265) 
XOUKDFRRRAHSRG-UHFFFAOYSA-N

>  <fragmenstein_mode>  (265) 
expansion

>  <HIPPO Pose ID>  (265) 
8923

>  <Energy>  (265) 
103.616517

>  <fragmenstein_error>  (265) 


>  <tags>  (265) 
{'openbind_xx01zvns2b_c1_fragmenstein', 'fragmenstein_placed'}

>  <ref_pdb>  (265) 
1

>  <scratch_subdir>  (265) 
/opt/xchem-fragalysis-2/maxwin/BulkDock/SCRATCH/511027/C85904-P72

>  <alias>  (265) 
CNCc1cc(OC)ncc1-c1ccc(F)cc1C(=O)N[C@@H]1CN(C)[C@@]2(CCNC2)C1

>  <HIPPO Compound ID>  (265) 
80272

>  <fragmenstein_runtime>  (265) 
6.84465

$$$$
CO[C@@H]1CC[C@]2(CN1)N[C@@H](N)Sc1cccc(C(=O)N[C@@H]3CN(C)[C@]4(CCNC4)C3)c12
     RDKit          3D

 31 35  0  0  0  0  0  0  0  0999 V2000
   -2.7402    8.9046  -13.8200 C   0  0  0  0  0  0  0  0  0  0  0  0
   -3.4610    7.7851  -14.3086 O   0  0  0  0  0  0  0  0  0  0  0  0
   -2.9171    7.2498  -15.5110 C   0  0  2  0  0  0  0  0  0  0  0  0
   -3.6201    7.8800  -16.7283 C   0  0  0  0  0  0  0  0  0  0  0  0
   -5.0673    7.3801  -16.8886 C   0  0  0  0  0  0  0  0  0  0  0  0
   -5.1499    5.8282  -16.8580 C   0  0  2  0  0  0  0  0  0  0  0  0
   -4.4556    5.3971  -15.5142 C   0  0  0  0  0  0  0  0  0  0  0  0
   -3.0260    5.7882  -15.4903 N   0  0  0  0  0  0  0  0  0  0  0  0
   -4.2086    5.2979  -17.9061 N   0  0  0  0  0  0  0  0  0  0  0  0
   -4.5966    5.6422  -19.2366 C   0  0  1  0  0  0  0  0  0  0  0  0
   -3.4454    5.3305  -20.0376 N   0  0  0  0  0  0  0  0  0  0  0  0
   -5.9559    4.6295  -19.7432 S   0  0  0  0  0  0  0  0  0  0  0  0
   -6.9800    4.7173  -18.2870 C   0  0  0  0  0  0  0  0  0  0  0  0
   -8.2565    4.1562  -18.4870 C   0  0  0  0  0  0  0  0  0  0  0  0
   -9.1720    4.0898  -17.4581 C   0  0  0  0  0  0  0  0  0  0  0  0
   -8.8107    4.5892  -16.2198 C   0  0  0  0  0  0  0  0  0  0  0  0
   -7.5426    5.1773  -15.9984 C   0  0  0  0  0  0  0  0  0  0  0  0
   -7.4318    5.8633  -14.6747 C   0  0  0  0  0  0  0  0  0  0  0  0
   -7.1383    6.9845  -14.6596 O   0  0  0  0  0  0  0  0  0  0  0  0
   -7.8406    4.9320  -13.5365 N   0  0  0  0  0  0  0  0  0  0  0  0
   -8.0684    5.2035  -12.1447 C   0  0  2  0  0  0  0  0  0  0  0  0
   -6.9616    6.0038  -11.4595 C   0  0  0  0  0  0  0  0  0  0  0  0
   -7.0030    5.5872  -10.0424 N   0  0  0  0  0  0  0  0  0  0  0  0
   -7.9833    6.3635   -9.2874 C   0  0  0  0  0  0  0  0  0  0  0  0
   -7.3067    4.1447  -10.0970 C   0  0  1  0  0  0  0  0  0  0  0  0
   -6.0067    3.3540  -10.2911 C   0  0  0  0  0  0  0  0  0  0  0  0
   -6.4096    1.9304   -9.9483 C   0  0  0  0  0  0  0  0  0  0  0  0
   -7.6453    2.0117   -9.1540 N   0  0  0  0  0  0  0  0  0  0  0  0
   -7.8586    3.4329   -8.8555 C   0  0  0  0  0  0  0  0  0  0  0  0
   -8.2367    3.9488  -11.3114 C   0  0  0  0  0  0  0  0  0  0  0  0
   -6.5743    5.2505  -17.0332 C   0  0  0  0  0  0  0  0  0  0  0  0
  1  2  1  0
  3  2  1  1
  3  4  1  0
  4  5  1  0
  6  5  1  1
  6  7  1  0
  7  8  1  0
  6  9  1  0
  9 10  1  0
 10 11  1  6
 10 12  1  0
 12 13  1  0
 13 14  2  0
 14 15  1  0
 15 16  2  0
 16 17  1  0
 17 18  1  0
 18 19  2  0
 18 20  1  0
 21 20  1  6
 21 22  1  0
 22 23  1  0
 23 24  1  0
 23 25  1  0
 25 26  1  6
 26 27  1  0
 27 28  1  0
 28 29  1  0
 25 30  1  0
 17 31  2  0
  8  3  1  0
 31 13  1  0
 31  6  1  0
 30 21  1  0
 29 25  1  0
M  END
>  <smiles>  (266) 
C85905-P72

>  <fragmenstein_outcome>  (266) 
acceptable

>  <inchikey>  (266) 
HKMXJZFBIRWUPM-UHFFFAOYSA-N

>  <fragmenstein_mode>  (266) 
expansion

>  <HIPPO Pose ID>  (266) 
8924

>  <Energy>  (266) 
-12.088725

>  <fragmenstein_error>  (266) 


>  <tags>  (266) 
{'openbind_xx01zvns2b_c1_fragmenstein', 'fragmenstein_placed'}

>  <ref_pdb>  (266) 
1

>  <scratch_subdir>  (266) 
/opt/xchem-fragalysis-2/maxwin/BulkDock/SCRATCH/511027/C85905-P72

>  <alias>  (266) 
CO[C@@H]1CC[C@]2(CN1)N[C@@H](N)Sc1cccc(C(=O)N[C@@H]3CN(C)[C@]4(CCNC4)C3)c12

>  <HIPPO Compound ID>  (266) 
82390

>  <fragmenstein_runtime>  (266) 
5.264772

$$$$
CCN1C[C@H](n2ncc3c(C(=O)C[C@H]4CC5=C(OC=CCC5)[C@@H](F)C4)cc(Cl)cc32)[C@H]1O
     RDKit          3D

 32 36  0  0  0  0  0  0  0  0999 V2000
   -7.8475    4.0560   -8.9110 C   0  0  0  0  0  0  0  0  0  0  0  0
   -8.3870    4.6890  -10.1805 C   0  0  0  0  0  0  0  0  0  0  0  0
   -7.3066    5.0027  -11.1208 N   0  0  0  0  0  0  0  0  0  0  0  0
   -6.8358    3.7785  -11.8219 C   0  0  0  0  0  0  0  0  0  0  0  0
   -7.5920    4.2015  -13.0906 C   0  0  2  0  0  0  0  0  0  0  0  0
   -6.7671    4.3929  -14.2947 N   0  0  0  0  0  0  0  0  0  0  0  0
   -5.4518    4.6797  -14.2098 N   0  0  0  0  0  0  0  0  0  0  0  0
   -5.0968    4.9443  -15.4621 C   0  0  0  0  0  0  0  0  0  0  0  0
   -6.1662    4.8132  -16.3732 C   0  0  0  0  0  0  0  0  0  0  0  0
   -6.3243    4.9470  -17.7650 C   0  0  0  0  0  0  0  0  0  0  0  0
   -5.1588    5.3624  -18.5873 C   0  0  0  0  0  0  0  0  0  0  0  0
   -4.0514    5.4542  -18.0651 O   0  0  0  0  0  0  0  0  0  0  0  0
   -5.3788    5.6882  -20.0455 C   0  0  0  0  0  0  0  0  0  0  0  0
   -4.1082    6.1244  -20.7944 C   0  0  1  0  0  0  0  0  0  0  0  0
   -4.3593    6.1668  -22.3146 C   0  0  0  0  0  0  0  0  0  0  0  0
   -4.9234    7.4659  -22.8794 C   0  0  0  0  0  0  0  0  0  0  0  0
   -4.9740    8.5921  -22.1277 C   0  0  0  0  0  0  0  0  0  0  0  0
   -5.4438    9.8291  -22.5455 O   0  0  0  0  0  0  0  0  0  0  0  0
   -5.0361   10.3389  -23.7512 C   0  0  0  0  0  0  0  0  0  0  0  0
   -5.2945    9.7729  -24.9323 C   0  0  0  0  0  0  0  0  0  0  0  0
   -6.0618    8.4969  -25.0157 C   0  0  0  0  0  0  0  0  0  0  0  0
   -5.3589    7.3263  -24.3293 C   0  0  0  0  0  0  0  0  0  0  0  0
   -4.4811    8.6434  -20.7025 C   0  0  1  0  0  0  0  0  0  0  0  0
   -5.5387    8.6794  -19.8382 F   0  0  0  0  0  0  0  0  0  0  0  0
   -3.5639    7.4825  -20.3332 C   0  0  0  0  0  0  0  0  0  0  0  0
   -7.5748    4.6642  -18.3231 C   0  0  0  0  0  0  0  0  0  0  0  0
   -8.6543    4.3187  -17.5187 C   0  0  0  0  0  0  0  0  0  0  0  0
  -10.1549    4.0235  -18.2909 Cl  0  0  0  0  0  0  0  0  0  0  0  0
   -8.5376    4.2321  -16.1300 C   0  0  0  0  0  0  0  0  0  0  0  0
   -7.2627    4.4566  -15.5833 C   0  0  0  0  0  0  0  0  0  0  0  0
   -7.7955    5.5452  -12.3909 C   0  0  1  0  0  0  0  0  0  0  0  0
   -9.1375    6.0138  -12.3365 O   0  0  0  0  0  0  0  0  0  0  0  0
  1  2  1  0
  2  3  1  0
  3  4  1  0
  4  5  1  0
  5  6  1  6
  6  7  1  0
  7  8  2  0
  8  9  1  0
  9 10  2  0
 10 11  1  0
 11 12  2  0
 11 13  1  0
 14 13  1  1
 14 15  1  0
 15 16  1  0
 16 17  2  0
 17 18  1  0
 18 19  1  0
 19 20  2  0
 20 21  1  0
 21 22  1  0
 17 23  1  0
 23 24  1  1
 23 25  1  0
 10 26  1  0
 26 27  2  0
 27 28  1  0
 27 29  1  0
 29 30  2  0
  5 31  1  0
 31 32  1  1
 31  3  1  0
 30  6  1  0
 30  9  1  0
 25 14  1  0
 22 16  1  0
M  END
>  <smiles>  (267) 
C86134-P73

>  <fragmenstein_outcome>  (267) 
acceptable

>  <inchikey>  (267) 
IIKKBILNLWQBOG-UHFFFAOYSA-N

>  <fragmenstein_mode>  (267) 
expansion

>  <HIPPO Pose ID>  (267) 
9086

>  <Energy>  (267) 
55.263188

>  <fragmenstein_error>  (267) 


>  <tags>  (267) 
{'openbind_xx01zvns2b_c1_fragmenstein', 'fragmenstein_placed'}

>  <ref_pdb>  (267) 
1

>  <scratch_subdir>  (267) 
/opt/xchem-fragalysis-2/maxwin/BulkDock/SCRATCH/511027/C86134-P73

>  <alias>  (267) 
CCN1C[C@H](n2ncc3c(C(=O)C[C@H]4CC5=C(OC=CCC5)[C@@H](F)C4)cc(Cl)cc32)[C@H]1O

>  <HIPPO Compound ID>  (267) 
78649

>  <fragmenstein_runtime>  (267) 
4.807242

$$$$
CN(C)Cc1cc(CC(=O)c2cc(Cl)cc3c2cnn3[C@@H]2CN(C)[C@H]2O)cc(C#N)c1O
     RDKit          3D

 32 35  0  0  0  0  0  0  0  0999 V2000
   -3.7190    6.6872  -25.3447 C   0  0  0  0  0  0  0  0  0  0  0  0
   -2.8096    7.7444  -24.9381 N   0  0  0  0  0  0  0  0  0  0  0  0
   -3.3458    9.0595  -25.2642 C   0  0  0  0  0  0  0  0  0  0  0  0
   -2.3395    7.6238  -23.5506 C   0  0  0  0  0  0  0  0  0  0  0  0
   -3.3755    7.6493  -22.4373 C   0  0  0  0  0  0  0  0  0  0  0  0
   -3.8592    6.4326  -21.8981 C   0  0  0  0  0  0  0  0  0  0  0  0
   -4.7312    6.4217  -20.7994 C   0  0  0  0  0  0  0  0  0  0  0  0
   -5.1689    5.1299  -20.1384 C   0  0  0  0  0  0  0  0  0  0  0  0
   -5.2557    5.2462  -18.6227 C   0  0  0  0  0  0  0  0  0  0  0  0
   -4.2714    5.6526  -17.9988 O   0  0  0  0  0  0  0  0  0  0  0  0
   -6.4995    4.9192  -17.8579 C   0  0  0  0  0  0  0  0  0  0  0  0
   -7.6958    4.4994  -18.4534 C   0  0  0  0  0  0  0  0  0  0  0  0
   -8.8257    4.2425  -17.6773 C   0  0  0  0  0  0  0  0  0  0  0  0
  -10.2979    3.8276  -18.4564 Cl  0  0  0  0  0  0  0  0  0  0  0  0
   -8.8101    4.3527  -16.2864 C   0  0  0  0  0  0  0  0  0  0  0  0
   -7.6187    4.7779  -15.6898 C   0  0  0  0  0  0  0  0  0  0  0  0
   -6.4799    5.0667  -16.4469 C   0  0  0  0  0  0  0  0  0  0  0  0
   -5.5254    5.4683  -15.4856 C   0  0  0  0  0  0  0  0  0  0  0  0
   -5.9958    5.4526  -14.2443 N   0  0  0  0  0  0  0  0  0  0  0  0
   -7.2611    5.0107  -14.3737 N   0  0  0  0  0  0  0  0  0  0  0  0
   -8.1865    4.9052  -13.2233 C   0  0  2  0  0  0  0  0  0  0  0  0
   -8.3752    6.2583  -12.5122 C   0  0  0  0  0  0  0  0  0  0  0  0
   -7.4516    5.8269  -11.4558 N   0  0  0  0  0  0  0  0  0  0  0  0
   -8.0122    6.0342  -10.1288 C   0  0  0  0  0  0  0  0  0  0  0  0
   -7.5252    4.4256  -11.9130 C   0  0  1  0  0  0  0  0  0  0  0  0
   -8.3436    3.5907  -11.0766 O   0  0  0  0  0  0  0  0  0  0  0  0
   -5.1932    7.6450  -20.3080 C   0  0  0  0  0  0  0  0  0  0  0  0
   -4.7503    8.8583  -20.8379 C   0  0  0  0  0  0  0  0  0  0  0  0
   -5.2992   10.0611  -20.2916 C   0  0  0  0  0  0  0  0  0  0  0  0
   -5.8085   11.0109  -19.8608 N   0  0  0  0  0  0  0  0  0  0  0  0
   -3.8175    8.8612  -21.8773 C   0  0  0  0  0  0  0  0  0  0  0  0
   -3.2903   10.0245  -22.3751 O   0  0  0  0  0  0  0  0  0  0  0  0
  1  2  1  0
  2  3  1  0
  2  4  1  0
  4  5  1  0
  5  6  2  0
  6  7  1  0
  7  8  1  0
  8  9  1  0
  9 10  2  0
  9 11  1  0
 11 12  2  0
 12 13  1  0
 13 14  1  0
 13 15  2  0
 15 16  1  0
 16 17  2  0
 17 18  1  0
 18 19  2  0
 19 20  1  0
 21 20  1  6
 21 22  1  0
 22 23  1  0
 23 24  1  0
 23 25  1  0
 25 26  1  1
  7 27  2  0
 27 28  1  0
 28 29  1  0
 29 30  3  0
 28 31  2  0
 31 32  1  0
 31  5  1  0
 17 11  1  0
 25 21  1  0
 20 16  1  0
M  END
>  <smiles>  (268) 
C86144-P73

>  <fragmenstein_outcome>  (268) 
acceptable

>  <inchikey>  (268) 
SMHUVZQUBCAIBH-UHFFFAOYSA-N

>  <fragmenstein_mode>  (268) 
expansion

>  <HIPPO Pose ID>  (268) 
9091

>  <Energy>  (268) 
86.723797

>  <fragmenstein_error>  (268) 


>  <tags>  (268) 
{'openbind_xx01zvns2b_c1_fragmenstein', 'fragmenstein_placed'}

>  <ref_pdb>  (268) 
1

>  <scratch_subdir>  (268) 
/opt/xchem-fragalysis-2/maxwin/BulkDock/SCRATCH/511027/C86144-P73

>  <alias>  (268) 
CN(C)Cc1cc(CC(=O)c2cc(Cl)cc3c2cnn3[C@@H]2CN(C)[C@H]2O)cc(C#N)c1O

>  <HIPPO Compound ID>  (268) 
82396

>  <fragmenstein_runtime>  (268) 
5.203443

$$$$
CNN1CC[C@]2(C[C@@H]([C@@](N)(O)N(C)c3cc(Cl)cc(C(=O)NC(C)(C)CO)c3)CC[C@@H]2O)C1
     RDKit          3D

 33 35  0  0  0  0  0  0  0  0999 V2000
   -9.2554    9.1229   -8.8160 C   0  0  0  0  0  0  0  0  0  0  0  0
   -8.3621    8.8664   -9.9440 N   0  0  0  0  0  0  0  0  0  0  0  0
   -7.6796    7.6025   -9.8986 N   0  0  0  0  0  0  0  0  0  0  0  0
   -6.5179    7.5814   -9.0090 C   0  0  0  0  0  0  0  0  0  0  0  0
   -6.3134    6.0956   -8.6884 C   0  0  0  0  0  0  0  0  0  0  0  0
   -7.3903    5.3347   -9.5018 C   0  0  1  0  0  0  0  0  0  0  0  0
   -6.8251    4.9729  -10.9012 C   0  0  0  0  0  0  0  0  0  0  0  0
   -7.8203    4.1582  -11.7689 C   0  0  1  0  0  0  0  0  0  0  0  0
   -7.3420    3.9351  -13.2553 C   0  0  1  0  0  0  0  0  0  0  0  0
   -5.9268    3.6566  -13.2989 N   0  0  0  0  0  0  0  0  0  0  0  0
   -7.9057    2.7284  -13.6990 O   0  0  0  0  0  0  0  0  0  0  0  0
   -7.8940    5.0132  -14.0972 N   0  0  0  0  0  0  0  0  0  0  0  0
   -7.4367    6.3542  -13.7053 C   0  0  0  0  0  0  0  0  0  0  0  0
   -7.7555    4.8256  -15.4925 C   0  0  0  0  0  0  0  0  0  0  0  0
   -8.8372    4.3290  -16.2214 C   0  0  0  0  0  0  0  0  0  0  0  0
   -8.7851    4.2609  -17.6104 C   0  0  0  0  0  0  0  0  0  0  0  0
  -10.1819    3.7809  -18.4839 Cl  0  0  0  0  0  0  0  0  0  0  0  0
   -7.6486    4.6676  -18.3046 C   0  0  0  0  0  0  0  0  0  0  0  0
   -6.5466    5.1522  -17.5990 C   0  0  0  0  0  0  0  0  0  0  0  0
   -5.3366    5.7663  -18.2438 C   0  0  0  0  0  0  0  0  0  0  0  0
   -4.7372    6.5347  -17.6054 O   0  0  0  0  0  0  0  0  0  0  0  0
   -5.1036    5.2662  -19.6792 N   0  0  0  0  0  0  0  0  0  0  0  0
   -4.1255    5.6814  -20.6818 C   0  0  0  0  0  0  0  0  0  0  0  0
   -4.5133    5.0977  -22.0415 C   0  0  0  0  0  0  0  0  0  0  0  0
   -2.7416    5.1657  -20.2769 C   0  0  0  0  0  0  0  0  0  0  0  0
   -4.0988    7.2292  -20.7674 C   0  0  0  0  0  0  0  0  0  0  0  0
   -5.3831    7.7470  -21.1267 O   0  0  0  0  0  0  0  0  0  0  0  0
   -6.6079    5.2081  -16.1982 C   0  0  0  0  0  0  0  0  0  0  0  0
   -8.1419    2.8557  -11.0213 C   0  0  0  0  0  0  0  0  0  0  0  0
   -8.7105    3.1353   -9.6437 C   0  0  0  0  0  0  0  0  0  0  0  0
   -7.8184    4.0318   -8.7971 C   0  0  2  0  0  0  0  0  0  0  0  0
   -8.5169    4.3070   -7.5847 O   0  0  0  0  0  0  0  0  0  0  0  0
   -8.4801    6.4141   -9.5839 C   0  0  0  0  0  0  0  0  0  0  0  0
  1  2  1  0
  2  3  1  0
  3  4  1  0
  4  5  1  0
  6  5  1  1
  6  7  1  0
  8  7  1  1
  8  9  1  0
  9 10  1  1
  9 11  1  0
  9 12  1  0
 12 13  1  0
 12 14  1  0
 14 15  2  0
 15 16  1  0
 16 17  1  0
 16 18  2  0
 18 19  1  0
 19 20  1  0
 20 21  2  0
 20 22  1  0
 22 23  1  0
 23 24  1  0
 23 25  1  0
 23 26  1  0
 26 27  1  0
 19 28  2  0
  8 29  1  0
 29 30  1  0
 30 31  1  0
 31 32  1  1
  6 33  1  0
 33  3  1  0
 31  6  1  0
 28 14  1  0
M  END
>  <smiles>  (269) 
C86175-P73

>  <fragmenstein_outcome>  (269) 
acceptable

>  <inchikey>  (269) 
NRLZMRJBNKXXOK-UHFFFAOYSA-N

>  <fragmenstein_mode>  (269) 
expansion

>  <HIPPO Pose ID>  (269) 
9115

>  <Energy>  (269) 
-14.496353

>  <fragmenstein_error>  (269) 


>  <tags>  (269) 
{'openbind_xx01zvns2b_c1_fragmenstein', 'fragmenstein_placed'}

>  <ref_pdb>  (269) 
1

>  <scratch_subdir>  (269) 
/opt/xchem-fragalysis-2/maxwin/BulkDock/SCRATCH/511027/C86175-P73

>  <alias>  (269) 
CNN1CC[C@]2(C[C@@H]([C@@](N)(O)N(C)c3cc(Cl)cc(C(=O)NC(C)(C)CO)c3)CC[C@@H]2O)C1

>  <HIPPO Compound ID>  (269) 
86175

>  <fragmenstein_runtime>  (269) 
10.518462

$$$$
CN(C)Cn1cc(NC(=O)c2cc(Cl)cc3nc(NC(C)(C)CO)c(O)cc23)cn1
     RDKit          3D

 30 32  0  0  0  0  0  0  0  0999 V2000
   -8.7247    3.6721   -6.7083 C   0  0  0  0  0  0  0  0  0  0  0  0
   -8.8907    2.4281   -7.4446 N   0  0  0  0  0  0  0  0  0  0  0  0
   -7.6340    1.7279   -7.5969 C   0  0  0  0  0  0  0  0  0  0  0  0
   -9.5742    2.5629   -8.7269 C   0  0  0  0  0  0  0  0  0  0  0  0
   -8.8711    3.3643   -9.7372 N   0  0  0  0  0  0  0  0  0  0  0  0
   -8.7100    2.9749  -11.0442 C   0  0  0  0  0  0  0  0  0  0  0  0
   -8.2332    4.0585  -11.7238 C   0  0  0  0  0  0  0  0  0  0  0  0
   -7.9946    4.0965  -13.0647 N   0  0  0  0  0  0  0  0  0  0  0  0
   -7.4588    5.2326  -13.9525 C   0  0  0  0  0  0  0  0  0  0  0  0
   -7.0634    6.2914  -13.6681 O   0  0  0  0  0  0  0  0  0  0  0  0
   -7.4551    4.8446  -15.3902 C   0  0  0  0  0  0  0  0  0  0  0  0
   -8.6654    4.4554  -15.9726 C   0  0  0  0  0  0  0  0  0  0  0  0
   -8.7380    4.3212  -17.3521 C   0  0  0  0  0  0  0  0  0  0  0  0
  -10.2331    3.9613  -18.1166 Cl  0  0  0  0  0  0  0  0  0  0  0  0
   -7.6244    4.5732  -18.1419 C   0  0  0  0  0  0  0  0  0  0  0  0
   -6.4191    4.9524  -17.5839 C   0  0  0  0  0  0  0  0  0  0  0  0
   -5.4198    5.2456  -18.4270 N   0  0  0  0  0  0  0  0  0  0  0  0
   -4.2393    5.6444  -17.9475 C   0  0  0  0  0  0  0  0  0  0  0  0
   -3.2032    6.0323  -18.8147 N   0  0  0  0  0  0  0  0  0  0  0  0
   -3.5464    6.4324  -20.2064 C   0  0  0  0  0  0  0  0  0  0  0  0
   -4.4890    7.6500  -20.2189 C   0  0  0  0  0  0  0  0  0  0  0  0
   -2.2061    6.8906  -20.8305 C   0  0  0  0  0  0  0  0  0  0  0  0
   -4.1376    5.2639  -21.0482 C   0  0  0  0  0  0  0  0  0  0  0  0
   -4.1910    5.5300  -22.4543 O   0  0  0  0  0  0  0  0  0  0  0  0
   -3.9998    5.6791  -16.5769 C   0  0  0  0  0  0  0  0  0  0  0  0
   -2.7862    6.0829  -16.0924 O   0  0  0  0  0  0  0  0  0  0  0  0
   -5.0228    5.3941  -15.6886 C   0  0  0  0  0  0  0  0  0  0  0  0
   -6.2993    5.0579  -16.1844 C   0  0  0  0  0  0  0  0  0  0  0  0
   -8.0948    5.0623  -10.7467 C   0  0  0  0  0  0  0  0  0  0  0  0
   -8.4971    4.6590   -9.5358 N   0  0  0  0  0  0  0  0  0  0  0  0
  1  2  1  0
  2  3  1  0
  2  4  1  0
  4  5  1  0
  5  6  1  0
  6  7  2  0
  7  8  1  0
  8  9  1  0
  9 10  2  0
  9 11  1  0
 11 12  2  0
 12 13  1  0
 13 14  1  0
 13 15  2  0
 15 16  1  0
 16 17  2  0
 17 18  1  0
 18 19  1  0
 19 20  1  0
 20 21  1  0
 20 22  1  0
 20 23  1  0
 23 24  1  0
 18 25  2  0
 25 26  1  0
 25 27  1  0
 27 28  2  0
  7 29  1  0
 29 30  2  0
 30  5  1  0
 28 11  1  0
 28 16  1  0
M  END
>  <smiles>  (270) 
C86234-P73

>  <fragmenstein_outcome>  (270) 
acceptable

>  <inchikey>  (270) 
YUCZMDPOPOASOO-UHFFFAOYSA-N

>  <fragmenstein_mode>  (270) 
expansion

>  <HIPPO Pose ID>  (270) 
9142

>  <Energy>  (270) 
92.57059

>  <fragmenstein_error>  (270) 


>  <tags>  (270) 
{'openbind_xx01zvns2b_c1_fragmenstein', 'fragmenstein_placed'}

>  <ref_pdb>  (270) 
1

>  <scratch_subdir>  (270) 
/opt/xchem-fragalysis-2/maxwin/BulkDock/SCRATCH/511027/C86234-P73

>  <alias>  (270) 
CN(C)Cn1cc(NC(=O)c2cc(Cl)cc3nc(NC(C)(C)CO)c(O)cc23)cn1

>  <HIPPO Compound ID>  (270) 
74379

>  <fragmenstein_runtime>  (270) 
8.581246

$$$$
CNCc1ccc2c(C(=O)Nc3cnn(C)c3)cc(Cl)cc2n1
     RDKit          3D

 23 25  0  0  0  0  0  0  0  0999 V2000
   -1.7523    4.0865  -19.7821 C   0  0  0  0  0  0  0  0  0  0  0  0
   -2.7410    5.0039  -20.3141 N   0  0  0  0  0  0  0  0  0  0  0  0
   -3.1780    5.9822  -19.3153 C   0  0  0  0  0  0  0  0  0  0  0  0
   -4.1520    5.4737  -18.2594 C   0  0  0  0  0  0  0  0  0  0  0  0
   -3.8500    5.6351  -16.9154 C   0  0  0  0  0  0  0  0  0  0  0  0
   -4.8641    5.4620  -15.9807 C   0  0  0  0  0  0  0  0  0  0  0  0
   -6.1700    5.1393  -16.3950 C   0  0  0  0  0  0  0  0  0  0  0  0
   -7.2892    5.1020  -15.5253 C   0  0  0  0  0  0  0  0  0  0  0  0
   -7.2252    5.6744  -14.1573 C   0  0  0  0  0  0  0  0  0  0  0  0
   -6.8622    6.7770  -14.0435 O   0  0  0  0  0  0  0  0  0  0  0  0
   -7.7391    4.6782  -13.1008 N   0  0  0  0  0  0  0  0  0  0  0  0
   -7.9902    4.8481  -11.7721 C   0  0  0  0  0  0  0  0  0  0  0  0
   -7.8893    6.0137  -10.9836 C   0  0  0  0  0  0  0  0  0  0  0  0
   -8.1816    5.7836   -9.6972 N   0  0  0  0  0  0  0  0  0  0  0  0
   -8.4528    4.4605   -9.6767 N   0  0  0  0  0  0  0  0  0  0  0  0
   -8.6962    3.7909   -8.4233 C   0  0  0  0  0  0  0  0  0  0  0  0
   -8.3940    3.8682  -10.9062 C   0  0  0  0  0  0  0  0  0  0  0  0
   -8.5584    4.7882  -15.9988 C   0  0  0  0  0  0  0  0  0  0  0  0
   -8.7204    4.5473  -17.3505 C   0  0  0  0  0  0  0  0  0  0  0  0
  -10.3124    4.3798  -17.9499 Cl  0  0  0  0  0  0  0  0  0  0  0  0
   -7.6352    4.5861  -18.2231 C   0  0  0  0  0  0  0  0  0  0  0  0
   -6.3601    4.8944  -17.7721 C   0  0  0  0  0  0  0  0  0  0  0  0
   -5.3706    5.0445  -18.6759 N   0  0  0  0  0  0  0  0  0  0  0  0
  1  2  1  0
  2  3  1  0
  3  4  1  0
  4  5  2  0
  5  6  1  0
  6  7  2  0
  7  8  1  0
  8  9  1  0
  9 10  2  0
  9 11  1  0
 11 12  1  0
 12 13  1  0
 13 14  2  0
 14 15  1  0
 15 16  1  0
 15 17  1  0
  8 18  2  0
 18 19  1  0
 19 20  1  0
 19 21  2  0
 21 22  1  0
 22 23  2  0
 23  4  1  0
 22  7  1  0
 17 12  2  0
M  END
>  <smiles>  (271) 
C86378-P74

>  <fragmenstein_outcome>  (271) 
acceptable

>  <inchikey>  (271) 
STYNGALNKQNYRV-UHFFFAOYSA-N

>  <fragmenstein_mode>  (271) 
expansion

>  <HIPPO Pose ID>  (271) 
9212

>  <Energy>  (271) 
60.816891

>  <fragmenstein_error>  (271) 


>  <tags>  (271) 
{'openbind_xx01zvns2b_c1_fragmenstein', 'fragmenstein_placed'}

>  <ref_pdb>  (271) 
1

>  <scratch_subdir>  (271) 
/opt/xchem-fragalysis-2/maxwin/BulkDock/SCRATCH/511027/C86378-P74

>  <alias>  (271) 
CNCc1ccc2c(C(=O)Nc3cnn(C)c3)cc(Cl)cc2n1

>  <HIPPO Compound ID>  (271) 
45037

>  <fragmenstein_runtime>  (271) 
3.622744

$$$$
CNCc1ccc2c(C(=O)Nc3cc(C)n(C)c3)cc(Cl)cc2n1
     RDKit          3D

 24 26  0  0  0  0  0  0  0  0999 V2000
   -0.9080    4.7582  -20.1012 C   0  0  0  0  0  0  0  0  0  0  0  0
   -1.8702    4.5601  -19.0285 N   0  0  0  0  0  0  0  0  0  0  0  0
   -3.1650    5.1592  -19.3734 C   0  0  0  0  0  0  0  0  0  0  0  0
   -4.1852    5.0683  -18.2600 C   0  0  0  0  0  0  0  0  0  0  0  0
   -3.8563    5.4229  -16.9601 C   0  0  0  0  0  0  0  0  0  0  0  0
   -4.8658    5.4637  -16.0087 C   0  0  0  0  0  0  0  0  0  0  0  0
   -6.1916    5.1626  -16.3706 C   0  0  0  0  0  0  0  0  0  0  0  0
   -7.2884    5.2482  -15.4879 C   0  0  0  0  0  0  0  0  0  0  0  0
   -7.1774    5.8541  -14.1455 C   0  0  0  0  0  0  0  0  0  0  0  0
   -6.7608    6.9390  -14.0463 O   0  0  0  0  0  0  0  0  0  0  0  0
   -7.7392    4.8984  -13.0763 N   0  0  0  0  0  0  0  0  0  0  0  0
   -7.9805    5.0970  -11.7555 C   0  0  0  0  0  0  0  0  0  0  0  0
   -7.9329    6.3133  -11.0458 C   0  0  0  0  0  0  0  0  0  0  0  0
   -8.2325    6.0366   -9.7252 C   0  0  0  0  0  0  0  0  0  0  0  0
   -8.3035    6.9567   -8.5697 C   0  0  0  0  0  0  0  0  0  0  0  0
   -8.4339    4.6762   -9.6311 N   0  0  0  0  0  0  0  0  0  0  0  0
   -8.6694    3.9112   -8.4266 C   0  0  0  0  0  0  0  0  0  0  0  0
   -8.3302    4.1077  -10.8752 C   0  0  0  0  0  0  0  0  0  0  0  0
   -8.5755    4.9318  -15.9028 C   0  0  0  0  0  0  0  0  0  0  0  0
   -8.7793    4.5680  -17.2175 C   0  0  0  0  0  0  0  0  0  0  0  0
  -10.3872    4.3456  -17.7307 Cl  0  0  0  0  0  0  0  0  0  0  0  0
   -7.7196    4.4913  -18.1130 C   0  0  0  0  0  0  0  0  0  0  0  0
   -6.4260    4.7788  -17.7073 C   0  0  0  0  0  0  0  0  0  0  0  0
   -5.4450    4.7325  -18.6206 N   0  0  0  0  0  0  0  0  0  0  0  0
  1  2  1  0
  2  3  1  0
  3  4  1  0
  4  5  2  0
  5  6  1  0
  6  7  2  0
  7  8  1  0
  8  9  1  0
  9 10  2  0
  9 11  1  0
 11 12  1  0
 12 13  1  0
 13 14  2  0
 14 15  1  0
 14 16  1  0
 16 17  1  0
 16 18  1  0
  8 19  2  0
 19 20  1  0
 20 21  1  0
 20 22  2  0
 22 23  1  0
 23 24  2  0
 24  4  1  0
 23  7  1  0
 18 12  2  0
M  END
>  <smiles>  (272) 
C86410-P74

>  <fragmenstein_outcome>  (272) 
acceptable

>  <inchikey>  (272) 
XAHLPKWWKLVVOT-UHFFFAOYSA-N

>  <fragmenstein_mode>  (272) 
expansion

>  <HIPPO Pose ID>  (272) 
9217

>  <Energy>  (272) 
48.143222

>  <fragmenstein_error>  (272) 


>  <tags>  (272) 
{'openbind_xx01zvns2b_c1_fragmenstein', 'fragmenstein_placed'}

>  <ref_pdb>  (272) 
1

>  <scratch_subdir>  (272) 
/opt/xchem-fragalysis-2/maxwin/BulkDock/SCRATCH/511027/C86410-P74

>  <alias>  (272) 
CNCc1ccc2c(C(=O)Nc3cc(C)n(C)c3)cc(Cl)cc2n1

>  <HIPPO Compound ID>  (272) 
86410

>  <fragmenstein_runtime>  (272) 
3.43508

$$$$
CS(=O)(=O)c1ccc(N2CCNCC2)cc1NC(=O)c1cccc2ncc3c(c12)CCNC3
     RDKit          3D

 33 37  0  0  0  0  0  0  0  0999 V2000
   -7.6629    9.1895  -12.9280 C   0  0  0  0  0  0  0  0  0  0  0  0
   -9.1726    8.3296  -12.5237 S   0  0  0  0  0  0  0  0  0  0  0  0
   -9.9741    9.2743  -11.7598 O   0  0  0  0  0  0  0  0  0  0  0  0
   -9.7993    7.6984  -13.6686 O   0  0  0  0  0  0  0  0  0  0  0  0
   -8.6465    7.0451  -11.4119 C   0  0  0  0  0  0  0  0  0  0  0  0
   -8.6923    7.3918  -10.0560 C   0  0  0  0  0  0  0  0  0  0  0  0
   -8.5888    6.4114   -9.0773 C   0  0  0  0  0  0  0  0  0  0  0  0
   -8.4912    5.0567   -9.4088 C   0  0  0  0  0  0  0  0  0  0  0  0
   -8.5342    4.1010   -8.4091 N   0  0  0  0  0  0  0  0  0  0  0  0
   -8.9180    2.7088   -8.7157 C   0  0  0  0  0  0  0  0  0  0  0  0
   -9.0086    1.8279   -7.4468 C   0  0  0  0  0  0  0  0  0  0  0  0
   -9.3556    2.5319   -6.2029 N   0  0  0  0  0  0  0  0  0  0  0  0
   -8.4338    3.6546   -5.9702 C   0  0  0  0  0  0  0  0  0  0  0  0
   -7.7221    4.2631   -7.2036 C   0  0  0  0  0  0  0  0  0  0  0  0
   -8.4261    4.7342  -10.7765 C   0  0  0  0  0  0  0  0  0  0  0  0
   -8.4494    5.7095  -11.7912 C   0  0  0  0  0  0  0  0  0  0  0  0
   -8.2032    5.2218  -13.0857 N   0  0  0  0  0  0  0  0  0  0  0  0
   -7.6759    5.9406  -14.3434 C   0  0  0  0  0  0  0  0  0  0  0  0
   -7.2896    7.0327  -14.4845 O   0  0  0  0  0  0  0  0  0  0  0  0
   -7.5934    5.0673  -15.5305 C   0  0  0  0  0  0  0  0  0  0  0  0
   -8.8129    4.7078  -16.1090 C   0  0  0  0  0  0  0  0  0  0  0  0
   -8.8469    4.3613  -17.4478 C   0  0  0  0  0  0  0  0  0  0  0  0
   -7.6692    4.4137  -18.1916 C   0  0  0  0  0  0  0  0  0  0  0  0
   -6.4392    4.7205  -17.6195 C   0  0  0  0  0  0  0  0  0  0  0  0
   -5.3741    4.7663  -18.4324 N   0  0  0  0  0  0  0  0  0  0  0  0
   -4.1737    5.0749  -17.9098 C   0  0  0  0  0  0  0  0  0  0  0  0
   -3.9445    5.3005  -16.5648 C   0  0  0  0  0  0  0  0  0  0  0  0
   -5.0438    5.2140  -15.7006 C   0  0  0  0  0  0  0  0  0  0  0  0
   -6.3571    4.9960  -16.2385 C   0  0  0  0  0  0  0  0  0  0  0  0
   -4.7698    5.3557  -14.2153 C   0  0  0  0  0  0  0  0  0  0  0  0
   -3.3022    5.0994  -13.8556 C   0  0  0  0  0  0  0  0  0  0  0  0
   -2.4329    5.9438  -14.6743 N   0  0  0  0  0  0  0  0  0  0  0  0
   -2.5444    5.5624  -16.0839 C   0  0  0  0  0  0  0  0  0  0  0  0
  1  2  1  0
  2  3  2  0
  2  4  2  0
  2  5  1  0
  5  6  2  0
  6  7  1  0
  7  8  2  0
  8  9  1  0
  9 10  1  0
 10 11  1  0
 11 12  1  0
 12 13  1  0
 13 14  1  0
  8 15  1  0
 15 16  2  0
 16 17  1  0
 17 18  1  0
 18 19  2  0
 18 20  1  0
 20 21  2  0
 21 22  1  0
 22 23  2  0
 23 24  1  0
 24 25  2  0
 25 26  1  0
 26 27  2  0
 27 28  1  0
 28 29  2  0
 28 30  1  0
 30 31  1  0
 31 32  1  0
 32 33  1  0
 16  5  1  0
 29 20  1  0
 14  9  1  0
 29 24  1  0
 33 27  1  0
M  END
>  <smiles>  (273) 
C86430-P74

>  <fragmenstein_outcome>  (273) 
acceptable

>  <inchikey>  (273) 
RJOSXIQVUMJROR-UHFFFAOYSA-N

>  <fragmenstein_mode>  (273) 
expansion

>  <HIPPO Pose ID>  (273) 
9223

>  <Energy>  (273) 
209.735399

>  <fragmenstein_error>  (273) 


>  <tags>  (273) 
{'openbind_xx01zvns2b_c1_fragmenstein', 'fragmenstein_placed'}

>  <ref_pdb>  (273) 
1

>  <scratch_subdir>  (273) 
/opt/xchem-fragalysis-2/maxwin/BulkDock/SCRATCH/511027/C86430-P74

>  <alias>  (273) 
CS(=O)(=O)c1ccc(N2CCNCC2)cc1NC(=O)c1cccc2ncc3c(c12)CCNC3

>  <HIPPO Compound ID>  (273) 
94447

>  <fragmenstein_runtime>  (273) 
7.090314

$$$$
CS(=O)(=O)c1ccc(N2CCNCC2)cc1NC(=O)c1cccc2c(N)cccc12
     RDKit          3D

 30 33  0  0  0  0  0  0  0  0999 V2000
   -7.4672    9.1142  -12.9720 C   0  0  0  0  0  0  0  0  0  0  0  0
   -8.9757    8.2537  -12.5879 S   0  0  0  0  0  0  0  0  0  0  0  0
   -9.8167    9.2042  -11.8759 O   0  0  0  0  0  0  0  0  0  0  0  0
   -9.5373    7.5945  -13.7507 O   0  0  0  0  0  0  0  0  0  0  0  0
   -8.4839    6.9943  -11.4315 C   0  0  0  0  0  0  0  0  0  0  0  0
   -8.5763    7.3588  -10.0856 C   0  0  0  0  0  0  0  0  0  0  0  0
   -8.5369    6.3823   -9.0995 C   0  0  0  0  0  0  0  0  0  0  0  0
   -8.4581    5.0204   -9.4176 C   0  0  0  0  0  0  0  0  0  0  0  0
   -8.5474    4.0807   -8.4036 N   0  0  0  0  0  0  0  0  0  0  0  0
   -8.9368    2.6891   -8.7037 C   0  0  0  0  0  0  0  0  0  0  0  0
   -9.0281    1.8138   -7.4311 C   0  0  0  0  0  0  0  0  0  0  0  0
   -9.3772    2.5219   -6.1911 N   0  0  0  0  0  0  0  0  0  0  0  0
   -8.4563    3.6452   -5.9607 C   0  0  0  0  0  0  0  0  0  0  0  0
   -7.7396    4.2459   -7.1945 C   0  0  0  0  0  0  0  0  0  0  0  0
   -8.3602    4.6787  -10.7796 C   0  0  0  0  0  0  0  0  0  0  0  0
   -8.3096    5.6493  -11.7919 C   0  0  0  0  0  0  0  0  0  0  0  0
   -8.0837    5.1858  -13.0953 N   0  0  0  0  0  0  0  0  0  0  0  0
   -7.3322    5.8420  -14.2801 C   0  0  0  0  0  0  0  0  0  0  0  0
   -6.7190    6.8358  -14.3309 O   0  0  0  0  0  0  0  0  0  0  0  0
   -7.5242    5.1115  -15.5697 C   0  0  0  0  0  0  0  0  0  0  0  0
   -8.8432    4.8055  -15.9226 C   0  0  0  0  0  0  0  0  0  0  0  0
   -9.1571    4.4415  -17.2218 C   0  0  0  0  0  0  0  0  0  0  0  0
   -8.1559    4.4280  -18.1851 C   0  0  0  0  0  0  0  0  0  0  0  0
   -6.8109    4.7282  -17.8707 C   0  0  0  0  0  0  0  0  0  0  0  0
   -5.8017    4.7655  -18.8680 C   0  0  0  0  0  0  0  0  0  0  0  0
   -6.1066    4.5265  -20.2168 N   0  0  0  0  0  0  0  0  0  0  0  0
   -4.4609    4.9056  -18.4945 C   0  0  0  0  0  0  0  0  0  0  0  0
   -4.1137    5.1346  -17.1692 C   0  0  0  0  0  0  0  0  0  0  0  0
   -5.1113    5.2176  -16.2015 C   0  0  0  0  0  0  0  0  0  0  0  0
   -6.4748    5.0204  -16.5228 C   0  0  0  0  0  0  0  0  0  0  0  0
  1  2  1  0
  2  3  2  0
  2  4  2  0
  2  5  1  0
  5  6  2  0
  6  7  1  0
  7  8  2  0
  8  9  1  0
  9 10  1  0
 10 11  1  0
 11 12  1  0
 12 13  1  0
 13 14  1  0
  8 15  1  0
 15 16  2  0
 16 17  1  0
 17 18  1  0
 18 19  2  0
 18 20  1  0
 20 21  2  0
 21 22  1  0
 22 23  2  0
 23 24  1  0
 24 25  2  0
 25 26  1  0
 25 27  1  0
 27 28  2  0
 28 29  1  0
 29 30  2  0
 16  5  1  0
 30 20  1  0
 14  9  1  0
 30 24  1  0
M  END
>  <smiles>  (274) 
C85428-P74

>  <fragmenstein_outcome>  (274) 
acceptable

>  <inchikey>  (274) 
NCBQFZOELYCPQU-UHFFFAOYSA-N

>  <fragmenstein_mode>  (274) 
expansion

>  <HIPPO Pose ID>  (274) 
9224

>  <Energy>  (274) 
198.690619

>  <fragmenstein_error>  (274) 


>  <tags>  (274) 
{'openbind_xx01zvns2b_c1_fragmenstein', 'fragmenstein_placed'}

>  <ref_pdb>  (274) 
1

>  <scratch_subdir>  (274) 
/opt/xchem-fragalysis-2/maxwin/BulkDock/SCRATCH/511027/C85428-P74

>  <alias>  (274) 
CS(=O)(=O)c1ccc(N2CCNCC2)cc1NC(=O)c1cccc2c(N)cccc12

>  <HIPPO Compound ID>  (274) 
85428

>  <fragmenstein_runtime>  (274) 
4.91537

$$$$
CCc1ccc(C(=O)Nc2cc(N3CCNCC3)ccc2S(C)(=O)=O)c2ccc(O)nc12
     RDKit          3D

 32 35  0  0  0  0  0  0  0  0999 V2000
   -9.6562    4.8773  -19.3107 C   0  0  0  0  0  0  0  0  0  0  0  0
   -8.5441    3.9026  -19.0248 C   0  0  0  0  0  0  0  0  0  0  0  0
   -7.9653    4.2324  -17.6786 C   0  0  0  0  0  0  0  0  0  0  0  0
   -8.8752    4.2338  -16.6190 C   0  0  0  0  0  0  0  0  0  0  0  0
   -8.5003    4.7206  -15.4002 C   0  0  0  0  0  0  0  0  0  0  0  0
   -7.1817    5.1240  -15.1865 C   0  0  0  0  0  0  0  0  0  0  0  0
   -6.9969    5.9181  -13.9432 C   0  0  0  0  0  0  0  0  0  0  0  0
   -6.3897    6.9135  -13.9963 O   0  0  0  0  0  0  0  0  0  0  0  0
   -7.7746    5.2798  -12.7684 N   0  0  0  0  0  0  0  0  0  0  0  0
   -8.0358    5.7606  -11.4943 C   0  0  0  0  0  0  0  0  0  0  0  0
   -8.1162    4.7873  -10.4918 C   0  0  0  0  0  0  0  0  0  0  0  0
   -8.3736    5.1118   -9.1555 C   0  0  0  0  0  0  0  0  0  0  0  0
   -8.5333    4.1444   -8.1772 N   0  0  0  0  0  0  0  0  0  0  0  0
   -8.7074    2.7176   -8.5523 C   0  0  0  0  0  0  0  0  0  0  0  0
   -9.1097    1.8634   -7.3249 C   0  0  0  0  0  0  0  0  0  0  0  0
   -9.7687    2.6558   -6.2665 N   0  0  0  0  0  0  0  0  0  0  0  0
   -8.7959    3.6499   -5.7674 C   0  0  0  0  0  0  0  0  0  0  0  0
   -7.9336    4.3428   -6.8518 C   0  0  0  0  0  0  0  0  0  0  0  0
   -8.5582    6.4696   -8.8589 C   0  0  0  0  0  0  0  0  0  0  0  0
   -8.5706    7.4468   -9.8556 C   0  0  0  0  0  0  0  0  0  0  0  0
   -8.3393    7.0909  -11.1856 C   0  0  0  0  0  0  0  0  0  0  0  0
   -8.8519    8.2800  -12.4178 S   0  0  0  0  0  0  0  0  0  0  0  0
   -7.3838    9.2032  -12.7972 C   0  0  0  0  0  0  0  0  0  0  0  0
   -9.7669    9.2108  -11.7755 O   0  0  0  0  0  0  0  0  0  0  0  0
   -9.3292    7.5572  -13.5829 O   0  0  0  0  0  0  0  0  0  0  0  0
   -6.2163    5.0437  -16.2229 C   0  0  0  0  0  0  0  0  0  0  0  0
   -4.8573    5.4040  -16.0751 C   0  0  0  0  0  0  0  0  0  0  0  0
   -3.9902    5.3630  -17.1606 C   0  0  0  0  0  0  0  0  0  0  0  0
   -4.5187    4.9775  -18.3657 C   0  0  0  0  0  0  0  0  0  0  0  0
   -3.7639    4.9785  -19.4951 O   0  0  0  0  0  0  0  0  0  0  0  0
   -5.7863    4.6060  -18.5628 N   0  0  0  0  0  0  0  0  0  0  0  0
   -6.6295    4.6136  -17.5068 C   0  0  0  0  0  0  0  0  0  0  0  0
  1  2  1  0
  2  3  1  0
  3  4  2  0
  4  5  1  0
  5  6  2  0
  6  7  1  0
  7  8  2  0
  7  9  1  0
  9 10  1  0
 10 11  2  0
 11 12  1  0
 12 13  1  0
 13 14  1  0
 14 15  1  0
 15 16  1  0
 16 17  1  0
 17 18  1  0
 12 19  2  0
 19 20  1  0
 20 21  2  0
 21 22  1  0
 22 23  1  0
 22 24  2  0
 22 25  2  0
  6 26  1  0
 26 27  2  0
 27 28  1  0
 28 29  2  0
 29 30  1  0
 29 31  1  0
 31 32  2  0
 32  3  1  0
 21 10  1  0
 32 26  1  0
 18 13  1  0
M  END
>  <smiles>  (275) 
C86437-P74

>  <fragmenstein_outcome>  (275) 
acceptable

>  <inchikey>  (275) 
DDWRQORDMGWXMM-UHFFFAOYSA-N

>  <fragmenstein_mode>  (275) 
expansion

>  <HIPPO Pose ID>  (275) 
9225

>  <Energy>  (275) 
156.529258

>  <fragmenstein_error>  (275) 


>  <tags>  (275) 
{'openbind_xx01zvns2b_c1_fragmenstein', 'fragmenstein_placed'}

>  <ref_pdb>  (275) 
1

>  <scratch_subdir>  (275) 
/opt/xchem-fragalysis-2/maxwin/BulkDock/SCRATCH/511027/C86437-P74

>  <alias>  (275) 
CCc1ccc(C(=O)Nc2cc(N3CCNCC3)ccc2S(C)(=O)=O)c2ccc(O)nc12

>  <HIPPO Compound ID>  (275) 
80349

>  <fragmenstein_runtime>  (275) 
8.531357

$$$$
CS(=O)(=O)c1ccc2c3c1N[C@](O)(c1cccc4ncccc14)C(=O)[C@H]3CCNC21CCNCC1
     RDKit          3D

 35 40  0  0  0  0  0  0  0  0999 V2000
   -7.7528    8.8974  -13.3931 C   0  0  0  0  0  0  0  0  0  0  0  0
   -9.3180    8.4664  -12.6640 S   0  0  0  0  0  0  0  0  0  0  0  0
   -9.7335    9.6149  -11.8784 O   0  0  0  0  0  0  0  0  0  0  0  0
  -10.2165    7.9117  -13.6570 O   0  0  0  0  0  0  0  0  0  0  0  0
   -8.9051    7.1618  -11.5408 C   0  0  0  0  0  0  0  0  0  0  0  0
   -9.0289    7.4069  -10.1837 C   0  0  0  0  0  0  0  0  0  0  0  0
   -8.7060    6.3985   -9.2929 C   0  0  0  0  0  0  0  0  0  0  0  0
   -8.2496    5.1344   -9.7266 C   0  0  0  0  0  0  0  0  0  0  0  0
   -8.0114    4.9408  -11.1193 C   0  0  0  0  0  0  0  0  0  0  0  0
   -8.4012    5.9442  -12.0238 C   0  0  0  0  0  0  0  0  0  0  0  0
   -8.3656    5.7112  -13.4047 N   0  0  0  0  0  0  0  0  0  0  0  0
   -7.2121    4.9898  -13.9331 C   0  0  2  0  0  0  0  0  0  0  0  0
   -6.1393    5.8942  -13.7085 O   0  0  0  0  0  0  0  0  0  0  0  0
   -7.3472    4.7848  -15.4590 C   0  0  0  0  0  0  0  0  0  0  0  0
   -8.6235    4.6124  -16.0417 C   0  0  0  0  0  0  0  0  0  0  0  0
   -8.7912    4.5099  -17.4177 C   0  0  0  0  0  0  0  0  0  0  0  0
   -7.6842    4.5818  -18.2497 C   0  0  0  0  0  0  0  0  0  0  0  0
   -6.4039    4.7004  -17.7433 C   0  0  0  0  0  0  0  0  0  0  0  0
   -5.3999    4.7500  -18.6349 N   0  0  0  0  0  0  0  0  0  0  0  0
   -4.1358    4.8010  -18.1857 C   0  0  0  0  0  0  0  0  0  0  0  0
   -3.8093    4.8040  -16.8516 C   0  0  0  0  0  0  0  0  0  0  0  0
   -4.8519    4.7759  -15.9313 C   0  0  0  0  0  0  0  0  0  0  0  0
   -6.2083    4.7584  -16.3398 C   0  0  0  0  0  0  0  0  0  0  0  0
   -7.0518    3.6567  -13.1570 C   0  0  0  0  0  0  0  0  0  0  0  0
   -6.6717    2.6020  -13.6775 O   0  0  0  0  0  0  0  0  0  0  0  0
   -7.2581    3.7162  -11.6420 C   0  0  1  0  0  0  0  0  0  0  0  0
   -5.8550    3.6447  -11.0084 C   0  0  0  0  0  0  0  0  0  0  0  0
   -5.8184    3.0959   -9.5847 C   0  0  0  0  0  0  0  0  0  0  0  0
   -6.5139    3.8898   -8.5846 N   0  0  0  0  0  0  0  0  0  0  0  0
   -7.9808    4.0158   -8.6859 C   0  0  0  0  0  0  0  0  0  0  0  0
   -8.7747    2.7209   -9.0614 C   0  0  0  0  0  0  0  0  0  0  0  0
   -9.4816    2.0235   -7.9057 C   0  0  0  0  0  0  0  0  0  0  0  0
   -8.6499    1.9782   -6.7210 N   0  0  0  0  0  0  0  0  0  0  0  0
   -8.3649    3.3077   -6.2080 C   0  0  0  0  0  0  0  0  0  0  0  0
   -8.4534    4.4191   -7.2514 C   0  0  0  0  0  0  0  0  0  0  0  0
  1  2  1  0
  2  3  2  0
  2  4  2  0
  2  5  1  0
  5  6  2  0
  6  7  1  0
  7  8  2  0
  8  9  1  0
  9 10  2  0
 10 11  1  0
 11 12  1  0
 12 13  1  6
 12 14  1  0
 14 15  2  0
 15 16  1  0
 16 17  2  0
 17 18  1  0
 18 19  2  0
 19 20  1  0
 20 21  2  0
 21 22  1  0
 22 23  2  0
 12 24  1  0
 24 25  2  0
 24 26  1  0
 26 27  1  1
 27 28  1  0
 28 29  1  0
 29 30  1  0
 30 31  1  0
 31 32  1  0
 32 33  1  0
 33 34  1  0
 34 35  1  0
 10  5  1  0
 23 14  1  0
 35 30  1  0
 30  8  1  0
 26  9  1  0
 23 18  1  0
M  END
>  <smiles>  (276) 
C86461-P74

>  <fragmenstein_outcome>  (276) 
acceptable

>  <inchikey>  (276) 
AXPZSDNKXXYWJN-UHFFFAOYSA-N

>  <fragmenstein_mode>  (276) 
expansion

>  <HIPPO Pose ID>  (276) 
9239

>  <Energy>  (276) 
146.56291

>  <fragmenstein_error>  (276) 


>  <tags>  (276) 
{'openbind_xx01zvns2b_c1_fragmenstein', 'fragmenstein_placed'}

>  <ref_pdb>  (276) 
1

>  <scratch_subdir>  (276) 
/opt/xchem-fragalysis-2/maxwin/BulkDock/SCRATCH/511027/C86461-P74

>  <alias>  (276) 
CS(=O)(=O)c1ccc2c3c1N[C@](O)(c1cccc4ncccc14)C(=O)[C@H]3CCNC21CCNCC1

>  <HIPPO Compound ID>  (276) 
87832

>  <fragmenstein_runtime>  (276) 
4.499755

$$$$
CS(=O)(=O)c1c(NC(=O)c2cc(Cl)cc3c(N)cccc23)cc(N2CCNCC2)c2nnnnc12
     RDKit          3D

 35 39  0  0  0  0  0  0  0  0999 V2000
   -7.5398    9.1867  -12.9477 C   0  0  0  0  0  0  0  0  0  0  0  0
   -8.9720    8.1848  -12.6226 S   0  0  0  0  0  0  0  0  0  0  0  0
   -9.9639    9.0281  -11.9788 O   0  0  0  0  0  0  0  0  0  0  0  0
   -9.3956    7.4876  -13.8222 O   0  0  0  0  0  0  0  0  0  0  0  0
   -8.4142    6.9665  -11.4531 C   0  0  0  0  0  0  0  0  0  0  0  0
   -8.3085    5.6149  -11.8038 C   0  0  0  0  0  0  0  0  0  0  0  0
   -8.0627    5.1541  -13.1018 N   0  0  0  0  0  0  0  0  0  0  0  0
   -7.2395    5.7846  -14.2553 C   0  0  0  0  0  0  0  0  0  0  0  0
   -6.5766    6.7476  -14.2745 O   0  0  0  0  0  0  0  0  0  0  0  0
   -7.4231    5.0779  -15.5601 C   0  0  0  0  0  0  0  0  0  0  0  0
   -8.7476    4.8495  -15.9446 C   0  0  0  0  0  0  0  0  0  0  0  0
   -9.0365    4.5438  -17.2612 C   0  0  0  0  0  0  0  0  0  0  0  0
  -10.6625    4.4207  -17.7724 Cl  0  0  0  0  0  0  0  0  0  0  0  0
   -8.0292    4.4752  -18.2073 C   0  0  0  0  0  0  0  0  0  0  0  0
   -6.6881    4.7142  -17.8632 C   0  0  0  0  0  0  0  0  0  0  0  0
   -5.6786    4.7334  -18.8564 C   0  0  0  0  0  0  0  0  0  0  0  0
   -5.9976    4.5370  -20.2130 N   0  0  0  0  0  0  0  0  0  0  0  0
   -4.3393    4.8433  -18.4748 C   0  0  0  0  0  0  0  0  0  0  0  0
   -3.9977    5.0439  -17.1414 C   0  0  0  0  0  0  0  0  0  0  0  0
   -4.9974    5.1304  -16.1735 C   0  0  0  0  0  0  0  0  0  0  0  0
   -6.3624    4.9725  -16.5041 C   0  0  0  0  0  0  0  0  0  0  0  0
   -8.3977    4.6708  -10.7906 C   0  0  0  0  0  0  0  0  0  0  0  0
   -8.4515    5.0557   -9.4354 C   0  0  0  0  0  0  0  0  0  0  0  0
   -8.5332    4.0877   -8.4316 N   0  0  0  0  0  0  0  0  0  0  0  0
   -9.0264    2.7206   -8.7094 C   0  0  0  0  0  0  0  0  0  0  0  0
   -9.0600    1.8348   -7.4385 C   0  0  0  0  0  0  0  0  0  0  0  0
   -9.3246    2.5478   -6.1811 N   0  0  0  0  0  0  0  0  0  0  0  0
   -8.3701    3.6553   -6.0004 C   0  0  0  0  0  0  0  0  0  0  0  0
   -7.6463    4.1696   -7.2675 C   0  0  0  0  0  0  0  0  0  0  0  0
   -8.4307    6.4444   -9.1173 C   0  0  0  0  0  0  0  0  0  0  0  0
   -8.4748    6.9037   -7.8556 N   0  0  0  0  0  0  0  0  0  0  0  0
   -8.4131    8.1867   -7.6137 N   0  0  0  0  0  0  0  0  0  0  0  0
   -8.3219    9.0355   -8.5410 N   0  0  0  0  0  0  0  0  0  0  0  0
   -8.3134    8.6871   -9.7950 N   0  0  0  0  0  0  0  0  0  0  0  0
   -8.3954    7.3894  -10.1254 C   0  0  0  0  0  0  0  0  0  0  0  0
  1  2  1  0
  2  3  2  0
  2  4  2  0
  2  5  1  0
  5  6  2  0
  6  7  1  0
  7  8  1  0
  8  9  2  0
  8 10  1  0
 10 11  2  0
 11 12  1  0
 12 13  1  0
 12 14  2  0
 14 15  1  0
 15 16  2  0
 16 17  1  0
 16 18  1  0
 18 19  2  0
 19 20  1  0
 20 21  2  0
  6 22  1  0
 22 23  2  0
 23 24  1  0
 24 25  1  0
 25 26  1  0
 26 27  1  0
 27 28  1  0
 28 29  1  0
 23 30  1  0
 30 31  2  0
 31 32  1  0
 32 33  2  0
 33 34  1  0
 34 35  2  0
 35  5  1  0
 21 10  1  0
 29 24  1  0
 35 30  1  0
 21 15  1  0
M  END
>  <smiles>  (277) 
C86475-P74

>  <fragmenstein_outcome>  (277) 
acceptable

>  <inchikey>  (277) 
ATRMPXODHNGUEL-UHFFFAOYSA-N

>  <fragmenstein_mode>  (277) 
expansion

>  <HIPPO Pose ID>  (277) 
9248

>  <Energy>  (277) 
205.708026

>  <fragmenstein_error>  (277) 


>  <tags>  (277) 
{'openbind_xx01zvns2b_c1_fragmenstein', 'fragmenstein_placed'}

>  <ref_pdb>  (277) 
1

>  <scratch_subdir>  (277) 
/opt/xchem-fragalysis-2/maxwin/BulkDock/SCRATCH/511027/C86475-P74

>  <alias>  (277) 
CS(=O)(=O)c1c(NC(=O)c2cc(Cl)cc3c(N)cccc23)cc(N2CCNCC2)c2nnnnc12

>  <HIPPO Compound ID>  (277) 
86475

>  <fragmenstein_runtime>  (277) 
4.763822

$$$$
C[C@@H]1CNCCN1c1ccc(S(C)(=O)=O)c(NC(=O)c2cc(F)cc3ncccc23)c1
     RDKit          3D

 31 34  0  0  0  0  0  0  0  0999 V2000
   -7.9194    2.1834   -9.3311 C   0  0  0  0  0  0  0  0  0  0  0  0
   -8.1941    2.9920   -8.0980 C   0  0  2  0  0  0  0  0  0  0  0  0
   -9.1646    2.1616   -7.1946 C   0  0  0  0  0  0  0  0  0  0  0  0
   -9.7972    2.9025   -6.0819 N   0  0  0  0  0  0  0  0  0  0  0  0
   -8.8937    3.9864   -5.6931 C   0  0  0  0  0  0  0  0  0  0  0  0
   -8.6995    5.0150   -6.8330 C   0  0  0  0  0  0  0  0  0  0  0  0
   -8.6663    4.4003   -8.1990 N   0  0  0  0  0  0  0  0  0  0  0  0
   -8.5370    5.2695   -9.2835 C   0  0  0  0  0  0  0  0  0  0  0  0
   -8.5422    6.6624   -9.0748 C   0  0  0  0  0  0  0  0  0  0  0  0
   -8.5696    7.5838  -10.1141 C   0  0  0  0  0  0  0  0  0  0  0  0
   -8.5205    7.1450  -11.4324 C   0  0  0  0  0  0  0  0  0  0  0  0
   -9.0107    8.3496  -12.6416 S   0  0  0  0  0  0  0  0  0  0  0  0
   -7.5025    9.2071  -13.0390 C   0  0  0  0  0  0  0  0  0  0  0  0
   -9.8689    9.3152  -11.9727 O   0  0  0  0  0  0  0  0  0  0  0  0
   -9.5514    7.6331  -13.7798 O   0  0  0  0  0  0  0  0  0  0  0  0
   -8.3975    5.7824  -11.7161 C   0  0  0  0  0  0  0  0  0  0  0  0
   -8.1365    5.2592  -12.9975 N   0  0  0  0  0  0  0  0  0  0  0  0
   -7.3624    5.8686  -14.1956 C   0  0  0  0  0  0  0  0  0  0  0  0
   -6.7564    6.8655  -14.2780 O   0  0  0  0  0  0  0  0  0  0  0  0
   -7.4807    5.0966  -15.4693 C   0  0  0  0  0  0  0  0  0  0  0  0
   -8.7536    4.7495  -15.9201 C   0  0  0  0  0  0  0  0  0  0  0  0
   -8.9169    4.3505  -17.2381 C   0  0  0  0  0  0  0  0  0  0  0  0
  -10.1385    4.0328  -17.6882 F   0  0  0  0  0  0  0  0  0  0  0  0
   -7.8434    4.3195  -18.1157 C   0  0  0  0  0  0  0  0  0  0  0  0
   -6.5630    4.6215  -17.6872 C   0  0  0  0  0  0  0  0  0  0  0  0
   -5.5640    4.5623  -18.5828 N   0  0  0  0  0  0  0  0  0  0  0  0
   -4.3083    4.8333  -18.1816 C   0  0  0  0  0  0  0  0  0  0  0  0
   -3.9821    5.1731  -16.8888 C   0  0  0  0  0  0  0  0  0  0  0  0
   -5.0165    5.2572  -15.9647 C   0  0  0  0  0  0  0  0  0  0  0  0
   -6.3555    4.9927  -16.3407 C   0  0  0  0  0  0  0  0  0  0  0  0
   -8.4918    4.8740  -10.6398 C   0  0  0  0  0  0  0  0  0  0  0  0
  2  1  1  6
  2  3  1  0
  3  4  1  0
  4  5  1  0
  5  6  1  0
  6  7  1  0
  7  8  1  0
  8  9  2  0
  9 10  1  0
 10 11  2  0
 11 12  1  0
 12 13  1  0
 12 14  2  0
 12 15  2  0
 11 16  1  0
 16 17  1  0
 17 18  1  0
 18 19  2  0
 18 20  1  0
 20 21  2  0
 21 22  1  0
 22 23  1  0
 22 24  2  0
 24 25  1  0
 25 26  2  0
 26 27  1  0
 27 28  2  0
 28 29  1  0
 29 30  2  0
 16 31  2  0
  7  2  1  0
 31  8  1  0
 30 20  1  0
 30 25  1  0
M  END
>  <smiles>  (278) 
C85643-P74

>  <fragmenstein_outcome>  (278) 
acceptable

>  <inchikey>  (278) 
VAKIUYPEQUTBST-UHFFFAOYSA-N

>  <fragmenstein_mode>  (278) 
expansion

>  <HIPPO Pose ID>  (278) 
9250

>  <Energy>  (278) 
180.950373

>  <fragmenstein_error>  (278) 


>  <tags>  (278) 
{'openbind_xx01zvns2b_c1_fragmenstein', 'fragmenstein_placed'}

>  <ref_pdb>  (278) 
1

>  <scratch_subdir>  (278) 
/opt/xchem-fragalysis-2/maxwin/BulkDock/SCRATCH/511027/C85643-P74

>  <alias>  (278) 
C[C@@H]1CNCCN1c1ccc(S(C)(=O)=O)c(NC(=O)c2cc(F)cc3ncccc23)c1

>  <HIPPO Compound ID>  (278) 
96021

>  <fragmenstein_runtime>  (278) 
6.937266

$$$$
CS(=O)(=O)c1ccc(N2CCNCC2)cc1NC(=O)c1cc(Cl)c(C#N)c2ncccc12
     RDKit          3D

 32 35  0  0  0  0  0  0  0  0999 V2000
   -7.5267    9.1880  -12.8704 C   0  0  0  0  0  0  0  0  0  0  0  0
   -9.0052    8.2470  -12.5706 S   0  0  0  0  0  0  0  0  0  0  0  0
   -9.9388    9.1472  -11.9127 O   0  0  0  0  0  0  0  0  0  0  0  0
   -9.4507    7.5602  -13.7684 O   0  0  0  0  0  0  0  0  0  0  0  0
   -8.5177    7.0131  -11.3860 C   0  0  0  0  0  0  0  0  0  0  0  0
   -8.6602    7.3773  -10.0454 C   0  0  0  0  0  0  0  0  0  0  0  0
   -8.6069    6.4031   -9.0560 C   0  0  0  0  0  0  0  0  0  0  0  0
   -8.4824    5.0428   -9.3698 C   0  0  0  0  0  0  0  0  0  0  0  0
   -8.5629    4.1010   -8.3578 N   0  0  0  0  0  0  0  0  0  0  0  0
   -8.9397    2.7057   -8.6600 C   0  0  0  0  0  0  0  0  0  0  0  0
   -9.0362    1.8316   -7.3872 C   0  0  0  0  0  0  0  0  0  0  0  0
   -9.3838    2.5431   -6.1489 N   0  0  0  0  0  0  0  0  0  0  0  0
   -8.4568    3.6606   -5.9164 C   0  0  0  0  0  0  0  0  0  0  0  0
   -7.7520    4.2721   -7.1518 C   0  0  0  0  0  0  0  0  0  0  0  0
   -8.3419    4.7015  -10.7260 C   0  0  0  0  0  0  0  0  0  0  0  0
   -8.2889    5.6742  -11.7343 C   0  0  0  0  0  0  0  0  0  0  0  0
   -7.9478    5.2227  -13.0141 N   0  0  0  0  0  0  0  0  0  0  0  0
   -7.1518    5.9132  -14.1417 C   0  0  0  0  0  0  0  0  0  0  0  0
   -6.5894    6.9361  -14.1540 O   0  0  0  0  0  0  0  0  0  0  0  0
   -7.1870    5.1759  -15.4273 C   0  0  0  0  0  0  0  0  0  0  0  0
   -8.4359    4.9229  -15.9852 C   0  0  0  0  0  0  0  0  0  0  0  0
   -8.5157    4.5593  -17.3251 C   0  0  0  0  0  0  0  0  0  0  0  0
  -10.0957    4.3736  -17.9696 Cl  0  0  0  0  0  0  0  0  0  0  0  0
   -7.3590    4.4474  -18.1059 C   0  0  0  0  0  0  0  0  0  0  0  0
   -7.4006    4.0901  -19.4940 C   0  0  0  0  0  0  0  0  0  0  0  0
   -7.3487    3.7465  -20.6035 N   0  0  0  0  0  0  0  0  0  0  0  0
   -6.0967    4.6702  -17.5504 C   0  0  0  0  0  0  0  0  0  0  0  0
   -4.9911    4.5735  -18.3229 N   0  0  0  0  0  0  0  0  0  0  0  0
   -3.7750    4.7775  -17.7876 C   0  0  0  0  0  0  0  0  0  0  0  0
   -3.5798    5.0952  -16.4670 C   0  0  0  0  0  0  0  0  0  0  0  0
   -4.7045    5.2218  -15.6646 C   0  0  0  0  0  0  0  0  0  0  0  0
   -6.0018    5.0214  -16.1883 C   0  0  0  0  0  0  0  0  0  0  0  0
  1  2  1  0
  2  3  2  0
  2  4  2  0
  2  5  1  0
  5  6  2  0
  6  7  1  0
  7  8  2  0
  8  9  1  0
  9 10  1  0
 10 11  1  0
 11 12  1  0
 12 13  1  0
 13 14  1  0
  8 15  1  0
 15 16  2  0
 16 17  1  0
 17 18  1  0
 18 19  2  0
 18 20  1  0
 20 21  2  0
 21 22  1  0
 22 23  1  0
 22 24  2  0
 24 25  1  0
 25 26  3  0
 24 27  1  0
 27 28  2  0
 28 29  1  0
 29 30  2  0
 30 31  1  0
 31 32  2  0
 16  5  1  0
 32 20  1  0
 14  9  1  0
 32 27  1  0
M  END
>  <smiles>  (279) 
C85518-P74

>  <fragmenstein_outcome>  (279) 
acceptable

>  <inchikey>  (279) 
GZHLXKJJLVOIFQ-UHFFFAOYSA-N

>  <fragmenstein_mode>  (279) 
expansion

>  <HIPPO Pose ID>  (279) 
9251

>  <Energy>  (279) 
178.380526

>  <fragmenstein_error>  (279) 


>  <tags>  (279) 
{'openbind_xx01zvns2b_c1_fragmenstein', 'fragmenstein_placed'}

>  <ref_pdb>  (279) 
1

>  <scratch_subdir>  (279) 
/opt/xchem-fragalysis-2/maxwin/BulkDock/SCRATCH/511027/C85518-P74

>  <alias>  (279) 
CS(=O)(=O)c1ccc(N2CCNCC2)cc1NC(=O)c1cc(Cl)c(C#N)c2ncccc12

>  <HIPPO Compound ID>  (279) 
94296

>  <fragmenstein_runtime>  (279) 
5.15955

$$$$
CS(=O)(=O)c1ccc(N2CCNCC2)cc1NC(=O)[C@@H]1C[C@H](Br)C[C@H]2NCC(=O)C[C@H]21
     RDKit          3D

 31 34  0  0  0  0  0  0  0  0999 V2000
   -7.6702    9.5610  -12.7439 C   0  0  0  0  0  0  0  0  0  0  0  0
   -9.0712    8.5091  -12.4541 S   0  0  0  0  0  0  0  0  0  0  0  0
  -10.0326    9.3079  -11.7114 O   0  0  0  0  0  0  0  0  0  0  0  0
   -9.5200    7.8714  -13.6755 O   0  0  0  0  0  0  0  0  0  0  0  0
   -8.4688    7.2338  -11.3691 C   0  0  0  0  0  0  0  0  0  0  0  0
   -8.6470    7.4831  -10.0075 C   0  0  0  0  0  0  0  0  0  0  0  0
   -8.5647    6.4360   -9.1026 C   0  0  0  0  0  0  0  0  0  0  0  0
   -8.3713    5.1139   -9.5251 C   0  0  0  0  0  0  0  0  0  0  0  0
   -8.4382    4.0990   -8.5894 N   0  0  0  0  0  0  0  0  0  0  0  0
   -8.8142    2.7266   -8.9759 C   0  0  0  0  0  0  0  0  0  0  0  0
   -8.9407    1.7867   -7.7508 C   0  0  0  0  0  0  0  0  0  0  0  0
   -9.3524    2.4276   -6.4904 N   0  0  0  0  0  0  0  0  0  0  0  0
   -8.4689    3.5585   -6.1686 C   0  0  0  0  0  0  0  0  0  0  0  0
   -7.6904    4.2087   -7.3374 C   0  0  0  0  0  0  0  0  0  0  0  0
   -8.1772    4.8886  -10.9022 C   0  0  0  0  0  0  0  0  0  0  0  0
   -8.1490    5.9448  -11.8257 C   0  0  0  0  0  0  0  0  0  0  0  0
   -7.8191    5.6475  -13.1561 N   0  0  0  0  0  0  0  0  0  0  0  0
   -7.0712    6.4957  -14.2254 C   0  0  0  0  0  0  0  0  0  0  0  0
   -6.5487    7.5404  -14.1358 O   0  0  0  0  0  0  0  0  0  0  0  0
   -7.1514    5.8539  -15.6174 C   0  0  2  0  0  0  0  0  0  0  0  0
   -8.5355    5.3103  -15.9604 C   0  0  0  0  0  0  0  0  0  0  0  0
   -8.6171    5.0609  -17.4605 C   0  0  2  0  0  0  0  0  0  0  0  0
  -10.3964    4.4398  -17.8631 Br  0  0  0  0  0  0  0  0  0  0  0  0
   -7.5962    4.0536  -17.8739 C   0  0  0  0  0  0  0  0  0  0  0  0
   -6.1757    4.4543  -17.4879 C   0  0  1  0  0  0  0  0  0  0  0  0
   -5.6689    5.5475  -18.3226 N   0  0  0  0  0  0  0  0  0  0  0  0
   -4.1982    5.5374  -18.2907 C   0  0  0  0  0  0  0  0  0  0  0  0
   -3.6744    5.2662  -16.8844 C   0  0  0  0  0  0  0  0  0  0  0  0
   -2.4904    4.9795  -16.6910 O   0  0  0  0  0  0  0  0  0  0  0  0
   -4.6356    5.4523  -15.7265 C   0  0  0  0  0  0  0  0  0  0  0  0
   -6.0367    4.8630  -15.9969 C   0  0  1  0  0  0  0  0  0  0  0  0
  1  2  1  0
  2  3  2  0
  2  4  2  0
  2  5  1  0
  5  6  2  0
  6  7  1  0
  7  8  2  0
  8  9  1  0
  9 10  1  0
 10 11  1  0
 11 12  1  0
 12 13  1  0
 13 14  1  0
  8 15  1  0
 15 16  2  0
 16 17  1  0
 17 18  1  0
 18 19  2  0
 20 18  1  1
 20 21  1  0
 21 22  1  0
 22 23  1  1
 22 24  1  0
 25 24  1  6
 25 26  1  0
 26 27  1  0
 27 28  1  0
 28 29  2  0
 28 30  1  0
 31 30  1  6
 16  5  1  0
 31 20  1  0
 14  9  1  0
 31 25  1  0
M  END
>  <smiles>  (280) 
C86479-P74

>  <fragmenstein_outcome>  (280) 
acceptable

>  <inchikey>  (280) 
IRSCCUOKJPJTPQ-UHFFFAOYSA-N

>  <fragmenstein_mode>  (280) 
expansion

>  <HIPPO Pose ID>  (280) 
9252

>  <Energy>  (280) 
193.725219

>  <fragmenstein_error>  (280) 


>  <tags>  (280) 
{'openbind_xx01zvns2b_c1_fragmenstein', 'fragmenstein_placed'}

>  <ref_pdb>  (280) 
1

>  <scratch_subdir>  (280) 
/opt/xchem-fragalysis-2/maxwin/BulkDock/SCRATCH/511027/C86479-P74

>  <alias>  (280) 
CS(=O)(=O)c1ccc(N2CCNCC2)cc1NC(=O)[C@@H]1C[C@H](Br)C[C@H]2NCC(=O)C[C@H]21

>  <HIPPO Compound ID>  (280) 
86479

>  <fragmenstein_runtime>  (280) 
5.482111

$$$$
CS(=O)(=O)c1ccc2c(cc3n2CCNC3)c1NC(=O)c1cc2ccnc2c2[nH]cccc12
     RDKit          3D

 33 38  0  0  0  0  0  0  0  0999 V2000
   -7.5060    9.1443  -12.9078 C   0  0  0  0  0  0  0  0  0  0  0  0
   -8.9793    8.2231  -12.5315 S   0  0  0  0  0  0  0  0  0  0  0  0
   -9.9089    9.1640  -11.9252 O   0  0  0  0  0  0  0  0  0  0  0  0
   -9.4322    7.4664  -13.6838 O   0  0  0  0  0  0  0  0  0  0  0  0
   -8.4864    7.0697  -11.2557 C   0  0  0  0  0  0  0  0  0  0  0  0
   -8.5785    7.5665   -9.9527 C   0  0  0  0  0  0  0  0  0  0  0  0
   -8.5114    6.7116   -8.8646 C   0  0  0  0  0  0  0  0  0  0  0  0
   -8.4747    5.3381   -9.1235 C   0  0  0  0  0  0  0  0  0  0  0  0
   -8.4083    4.7982  -10.4140 C   0  0  0  0  0  0  0  0  0  0  0  0
   -8.4560    3.3746  -10.2550 C   0  0  0  0  0  0  0  0  0  0  0  0
   -8.6257    3.0974   -8.9100 C   0  0  0  0  0  0  0  0  0  0  0  0
   -8.5286    4.2860   -8.2428 N   0  0  0  0  0  0  0  0  0  0  0  0
   -8.6504    4.4096   -6.8026 C   0  0  0  0  0  0  0  0  0  0  0  0
   -8.7320    3.0605   -6.0957 C   0  0  0  0  0  0  0  0  0  0  0  0
   -9.5037    2.0833   -6.8607 N   0  0  0  0  0  0  0  0  0  0  0  0
   -8.8749    1.8287   -8.1679 C   0  0  0  0  0  0  0  0  0  0  0  0
   -8.3009    5.6894  -11.5122 C   0  0  0  0  0  0  0  0  0  0  0  0
   -7.9539    5.1899  -12.7701 N   0  0  0  0  0  0  0  0  0  0  0  0
   -7.0970    5.8134  -13.8972 C   0  0  0  0  0  0  0  0  0  0  0  0
   -6.4842    6.8078  -13.9203 O   0  0  0  0  0  0  0  0  0  0  0  0
   -7.1894    5.0037  -15.1550 C   0  0  0  0  0  0  0  0  0  0  0  0
   -8.4291    4.8429  -15.6778 C   0  0  0  0  0  0  0  0  0  0  0  0
   -8.5440    4.5276  -17.0850 C   0  0  0  0  0  0  0  0  0  0  0  0
   -9.6439    4.4873  -17.8399 C   0  0  0  0  0  0  0  0  0  0  0  0
   -9.0476    4.3640  -19.1764 C   0  0  0  0  0  0  0  0  0  0  0  0
   -7.7581    4.2630  -19.2338 N   0  0  0  0  0  0  0  0  0  0  0  0
   -7.3816    4.4184  -17.9378 C   0  0  0  0  0  0  0  0  0  0  0  0
   -6.1394    4.5831  -17.4696 C   0  0  0  0  0  0  0  0  0  0  0  0
   -5.0031    4.5788  -18.2567 N   0  0  0  0  0  0  0  0  0  0  0  0
   -3.7478    4.6879  -17.7322 C   0  0  0  0  0  0  0  0  0  0  0  0
   -3.5583    4.8435  -16.4127 C   0  0  0  0  0  0  0  0  0  0  0  0
   -4.7191    4.9258  -15.5326 C   0  0  0  0  0  0  0  0  0  0  0  0
   -5.9844    4.8220  -16.0086 C   0  0  0  0  0  0  0  0  0  0  0  0
  1  2  1  0
  2  3  2  0
  2  4  2  0
  2  5  1  0
  5  6  2  0
  6  7  1  0
  7  8  2  0
  8  9  1  0
  9 10  1  0
 10 11  2  0
 11 12  1  0
 12 13  1  0
 13 14  1  0
 14 15  1  0
 15 16  1  0
  9 17  2  0
 17 18  1  0
 18 19  1  0
 19 20  2  0
 19 21  1  0
 21 22  2  0
 22 23  1  0
 23 24  2  0
 24 25  1  0
 25 26  2  0
 26 27  1  0
 27 28  2  0
 28 29  1  0
 29 30  1  0
 30 31  2  0
 31 32  1  0
 32 33  2  0
 17  5  1  0
 33 21  1  0
 12  8  1  0
 27 23  1  0
 33 28  1  0
 16 11  1  0
M  END
>  <smiles>  (281) 
C86484-P74

>  <fragmenstein_outcome>  (281) 
acceptable

>  <inchikey>  (281) 
WUSJEFHMVSCFHE-UHFFFAOYSA-N

>  <fragmenstein_mode>  (281) 
expansion

>  <HIPPO Pose ID>  (281) 
9255

>  <Energy>  (281) 
130.238418

>  <fragmenstein_error>  (281) 


>  <tags>  (281) 
{'openbind_xx01zvns2b_c1_fragmenstein', 'fragmenstein_placed'}

>  <ref_pdb>  (281) 
1

>  <scratch_subdir>  (281) 
/opt/xchem-fragalysis-2/maxwin/BulkDock/SCRATCH/511027/C86484-P74

>  <alias>  (281) 
CS(=O)(=O)c1ccc2c(cc3n2CCNC3)c1NC(=O)c1cc2ccnc2c2[nH]cccc12

>  <HIPPO Compound ID>  (281) 
86484

>  <fragmenstein_runtime>  (281) 
6.890964

$$$$
CS(=O)(=O)c1ccc(N2CCNCC2)cc1NC(=O)c1cc(CC(F)F)cc2ncccc12
     RDKit          3D

 33 36  0  0  0  0  0  0  0  0999 V2000
   -7.4945    9.2950  -12.8711 C   0  0  0  0  0  0  0  0  0  0  0  0
   -8.9378    8.3140  -12.5437 S   0  0  0  0  0  0  0  0  0  0  0  0
   -9.8839    9.1886  -11.8690 O   0  0  0  0  0  0  0  0  0  0  0  0
   -9.3847    7.6149  -13.7334 O   0  0  0  0  0  0  0  0  0  0  0  0
   -8.4041    7.0888  -11.3673 C   0  0  0  0  0  0  0  0  0  0  0  0
   -8.6186    7.4065  -10.0247 C   0  0  0  0  0  0  0  0  0  0  0  0
   -8.5887    6.4029   -9.0618 C   0  0  0  0  0  0  0  0  0  0  0  0
   -8.4072    5.0563   -9.4059 C   0  0  0  0  0  0  0  0  0  0  0  0
   -8.5388    4.0710   -8.4392 N   0  0  0  0  0  0  0  0  0  0  0  0
   -8.7162    2.6541   -8.8368 C   0  0  0  0  0  0  0  0  0  0  0  0
   -9.0636    1.7713   -7.6138 C   0  0  0  0  0  0  0  0  0  0  0  0
   -9.6874    2.5278   -6.5092 N   0  0  0  0  0  0  0  0  0  0  0  0
   -8.7053    3.5205   -6.0261 C   0  0  0  0  0  0  0  0  0  0  0  0
   -7.8956    4.2491   -7.1287 C   0  0  0  0  0  0  0  0  0  0  0  0
   -8.1757    4.7676  -10.7620 C   0  0  0  0  0  0  0  0  0  0  0  0
   -8.1055    5.7720  -11.7381 C   0  0  0  0  0  0  0  0  0  0  0  0
   -7.7537    5.3625  -13.0269 N   0  0  0  0  0  0  0  0  0  0  0  0
   -6.9444    6.0912  -14.1280 C   0  0  0  0  0  0  0  0  0  0  0  0
   -6.3810    7.1140  -14.1015 O   0  0  0  0  0  0  0  0  0  0  0  0
   -7.0069    5.3800  -15.4308 C   0  0  0  0  0  0  0  0  0  0  0  0
   -8.2741    5.0129  -15.8748 C   0  0  0  0  0  0  0  0  0  0  0  0
   -8.4372    4.4952  -17.1545 C   0  0  0  0  0  0  0  0  0  0  0  0
   -9.7624    3.9377  -17.5353 C   0  0  0  0  0  0  0  0  0  0  0  0
  -10.6562    4.7682  -18.3918 C   0  0  0  0  0  0  0  0  0  0  0  0
  -11.8606    4.1388  -18.4447 F   0  0  0  0  0  0  0  0  0  0  0  0
  -10.9367    5.9165  -17.7859 F   0  0  0  0  0  0  0  0  0  0  0  0
   -7.3447    4.4328  -18.0184 C   0  0  0  0  0  0  0  0  0  0  0  0
   -6.0726    4.7785  -17.5983 C   0  0  0  0  0  0  0  0  0  0  0  0
   -5.0661    4.6430  -18.4740 N   0  0  0  0  0  0  0  0  0  0  0  0
   -3.8162    4.9258  -18.0663 C   0  0  0  0  0  0  0  0  0  0  0  0
   -3.5100    5.3603  -16.7951 C   0  0  0  0  0  0  0  0  0  0  0  0
   -4.5552    5.5259  -15.8950 C   0  0  0  0  0  0  0  0  0  0  0  0
   -5.8814    5.2391  -16.2770 C   0  0  0  0  0  0  0  0  0  0  0  0
  1  2  1  0
  2  3  2  0
  2  4  2  0
  2  5  1  0
  5  6  2  0
  6  7  1  0
  7  8  2  0
  8  9  1  0
  9 10  1  0
 10 11  1  0
 11 12  1  0
 12 13  1  0
 13 14  1  0
  8 15  1  0
 15 16  2  0
 16 17  1  0
 17 18  1  0
 18 19  2  0
 18 20  1  0
 20 21  2  0
 21 22  1  0
 22 23  1  0
 23 24  1  0
 24 25  1  0
 24 26  1  0
 22 27  2  0
 27 28  1  0
 28 29  2  0
 29 30  1  0
 30 31  2  0
 31 32  1  0
 32 33  2  0
 16  5  1  0
 33 20  1  0
 14  9  1  0
 33 28  1  0
M  END
>  <smiles>  (282) 
C86486-P74

>  <fragmenstein_outcome>  (282) 
acceptable

>  <inchikey>  (282) 
RZXZOMHHPVGTRL-UHFFFAOYSA-N

>  <fragmenstein_mode>  (282) 
expansion

>  <HIPPO Pose ID>  (282) 
9257

>  <Energy>  (282) 
205.021536

>  <fragmenstein_error>  (282) 


>  <tags>  (282) 
{'openbind_xx01zvns2b_c1_fragmenstein', 'fragmenstein_placed'}

>  <ref_pdb>  (282) 
1

>  <scratch_subdir>  (282) 
/opt/xchem-fragalysis-2/maxwin/BulkDock/SCRATCH/511027/C86486-P74

>  <alias>  (282) 
CS(=O)(=O)c1ccc(N2CCNCC2)cc1NC(=O)c1cc(CC(F)F)cc2ncccc12

>  <HIPPO Compound ID>  (282) 
103733

>  <fragmenstein_runtime>  (282) 
6.363535

$$$$
Cc1cc(C(=O)Nc2cc(N3CCNCC3)ccc2S(C)(=O)=O)c2ccc(C)nc2c1
     RDKit          3D

 31 34  0  0  0  0  0  0  0  0999 V2000
  -10.1198    4.3721  -17.8499 C   0  0  0  0  0  0  0  0  0  0  0  0
   -8.7459    4.5710  -17.3046 C   0  0  0  0  0  0  0  0  0  0  0  0
   -8.5451    4.9279  -15.9767 C   0  0  0  0  0  0  0  0  0  0  0  0
   -7.2506    5.1925  -15.5212 C   0  0  0  0  0  0  0  0  0  0  0  0
   -7.1304    5.9041  -14.2190 C   0  0  0  0  0  0  0  0  0  0  0  0
   -6.5269    6.9041  -14.2215 O   0  0  0  0  0  0  0  0  0  0  0  0
   -7.9330    5.2209  -13.0875 N   0  0  0  0  0  0  0  0  0  0  0  0
   -8.2301    5.6585  -11.7921 C   0  0  0  0  0  0  0  0  0  0  0  0
   -8.2879    4.6733  -10.7959 C   0  0  0  0  0  0  0  0  0  0  0  0
   -8.4473    4.9907   -9.4339 C   0  0  0  0  0  0  0  0  0  0  0  0
   -8.5616    4.0248   -8.4459 N   0  0  0  0  0  0  0  0  0  0  0  0
   -8.7529    2.6018   -8.8114 C   0  0  0  0  0  0  0  0  0  0  0  0
   -9.0851    1.7475   -7.5646 C   0  0  0  0  0  0  0  0  0  0  0  0
   -9.7050    2.5291   -6.4754 N   0  0  0  0  0  0  0  0  0  0  0  0
   -8.7196    3.5319   -6.0201 C   0  0  0  0  0  0  0  0  0  0  0  0
   -7.9075    4.2250   -7.1436 C   0  0  0  0  0  0  0  0  0  0  0  0
   -8.5739    6.3472   -9.1049 C   0  0  0  0  0  0  0  0  0  0  0  0
   -8.6035    7.3369  -10.0804 C   0  0  0  0  0  0  0  0  0  0  0  0
   -8.4538    6.9930  -11.4253 C   0  0  0  0  0  0  0  0  0  0  0  0
   -8.9536    8.2414  -12.5910 S   0  0  0  0  0  0  0  0  0  0  0  0
   -7.4694    9.1537  -12.9418 C   0  0  0  0  0  0  0  0  0  0  0  0
   -9.8451    9.1580  -11.8971 O   0  0  0  0  0  0  0  0  0  0  0  0
   -9.4574    7.5626  -13.7690 O   0  0  0  0  0  0  0  0  0  0  0  0
   -6.1324    5.0701  -16.3904 C   0  0  0  0  0  0  0  0  0  0  0  0
   -4.7918    5.3083  -16.0190 C   0  0  0  0  0  0  0  0  0  0  0  0
   -3.7718    5.2553  -16.9633 C   0  0  0  0  0  0  0  0  0  0  0  0
   -4.1050    4.9624  -18.2741 C   0  0  0  0  0  0  0  0  0  0  0  0
   -3.0655    4.9919  -19.3531 C   0  0  0  0  0  0  0  0  0  0  0  0
   -5.3672    4.6713  -18.6491 N   0  0  0  0  0  0  0  0  0  0  0  0
   -6.3529    4.7238  -17.7371 C   0  0  0  0  0  0  0  0  0  0  0  0
   -7.6461    4.4764  -18.1638 C   0  0  0  0  0  0  0  0  0  0  0  0
  1  2  1  0
  2  3  2  0
  3  4  1  0
  4  5  1  0
  5  6  2  0
  5  7  1  0
  7  8  1  0
  8  9  2  0
  9 10  1  0
 10 11  1  0
 11 12  1  0
 12 13  1  0
 13 14  1  0
 14 15  1  0
 15 16  1  0
 10 17  2  0
 17 18  1  0
 18 19  2  0
 19 20  1  0
 20 21  1  0
 20 22  2  0
 20 23  2  0
  4 24  2  0
 24 25  1  0
 25 26  2  0
 26 27  1  0
 27 28  1  0
 27 29  2  0
 29 30  1  0
 30 31  2  0
 31  2  1  0
 19  8  1  0
 30 24  1  0
 16 11  1  0
M  END
>  <smiles>  (283) 
C86487-P74

>  <fragmenstein_outcome>  (283) 
acceptable

>  <inchikey>  (283) 
QLTKKZOQZJYJSC-UHFFFAOYSA-N

>  <fragmenstein_mode>  (283) 
expansion

>  <HIPPO Pose ID>  (283) 
9258

>  <Energy>  (283) 
187.455982

>  <fragmenstein_error>  (283) 


>  <tags>  (283) 
{'openbind_xx01zvns2b_c1_fragmenstein', 'fragmenstein_placed'}

>  <ref_pdb>  (283) 
1

>  <scratch_subdir>  (283) 
/opt/xchem-fragalysis-2/maxwin/BulkDock/SCRATCH/511027/C86487-P74

>  <alias>  (283) 
Cc1cc(C(=O)Nc2cc(N3CCNCC3)ccc2S(C)(=O)=O)c2ccc(C)nc2c1

>  <HIPPO Compound ID>  (283) 
94386

>  <fragmenstein_runtime>  (283) 
6.178901

$$$$
CCc1cc(C(=O)Nc2cc(N3CCNCC3)ccc2S(C)(=O)=O)c2cccc(C)c2c1
     RDKit          3D

 32 35  0  0  0  0  0  0  0  0999 V2000
  -10.6597    4.9354  -18.4265 C   0  0  0  0  0  0  0  0  0  0  0  0
   -9.8521    4.0312  -17.5471 C   0  0  0  0  0  0  0  0  0  0  0  0
   -8.5189    4.5510  -17.1260 C   0  0  0  0  0  0  0  0  0  0  0  0
   -8.3198    4.8933  -15.7955 C   0  0  0  0  0  0  0  0  0  0  0  0
   -7.0495    5.2590  -15.3491 C   0  0  0  0  0  0  0  0  0  0  0  0
   -6.9879    5.9677  -14.0398 C   0  0  0  0  0  0  0  0  0  0  0  0
   -6.3995    6.9754  -14.0141 O   0  0  0  0  0  0  0  0  0  0  0  0
   -7.8221    5.2681  -12.9455 N   0  0  0  0  0  0  0  0  0  0  0  0
   -8.1737    5.6923  -11.6659 C   0  0  0  0  0  0  0  0  0  0  0  0
   -8.2387    4.7062  -10.6746 C   0  0  0  0  0  0  0  0  0  0  0  0
   -8.4437    5.0243   -9.3223 C   0  0  0  0  0  0  0  0  0  0  0  0
   -8.5618    4.0566   -8.3382 N   0  0  0  0  0  0  0  0  0  0  0  0
   -8.7425    2.6315   -8.7037 C   0  0  0  0  0  0  0  0  0  0  0  0
   -9.1011    1.7805   -7.4616 C   0  0  0  0  0  0  0  0  0  0  0  0
   -9.7455    2.5661   -6.3900 N   0  0  0  0  0  0  0  0  0  0  0  0
   -8.7742    3.5746   -5.9172 C   0  0  0  0  0  0  0  0  0  0  0  0
   -7.9371    4.2638   -7.0239 C   0  0  0  0  0  0  0  0  0  0  0  0
   -8.6092    6.3801   -9.0026 C   0  0  0  0  0  0  0  0  0  0  0  0
   -8.6436    7.3672   -9.9833 C   0  0  0  0  0  0  0  0  0  0  0  0
   -8.4475    7.0226  -11.3208 C   0  0  0  0  0  0  0  0  0  0  0  0
   -8.9536    8.2435  -12.5188 S   0  0  0  0  0  0  0  0  0  0  0  0
   -7.4952    9.2014  -12.8498 C   0  0  0  0  0  0  0  0  0  0  0  0
   -9.8912    9.1386  -11.8589 O   0  0  0  0  0  0  0  0  0  0  0  0
   -9.4054    7.5438  -13.7073 O   0  0  0  0  0  0  0  0  0  0  0  0
   -5.9391    5.2571  -16.2280 C   0  0  0  0  0  0  0  0  0  0  0  0
   -4.6144    5.4739  -15.7893 C   0  0  0  0  0  0  0  0  0  0  0  0
   -3.5506    5.5452  -16.6823 C   0  0  0  0  0  0  0  0  0  0  0  0
   -3.7954    5.4758  -18.0441 C   0  0  0  0  0  0  0  0  0  0  0  0
   -5.0970    5.2776  -18.5199 C   0  0  0  0  0  0  0  0  0  0  0  0
   -5.3408    5.4009  -19.9985 C   0  0  0  0  0  0  0  0  0  0  0  0
   -6.1691    5.0638  -17.6114 C   0  0  0  0  0  0  0  0  0  0  0  0
   -7.4661    4.6947  -18.0316 C   0  0  0  0  0  0  0  0  0  0  0  0
  1  2  1  0
  2  3  1  0
  3  4  2  0
  4  5  1  0
  5  6  1  0
  6  7  2  0
  6  8  1  0
  8  9  1  0
  9 10  2  0
 10 11  1  0
 11 12  1  0
 12 13  1  0
 13 14  1  0
 14 15  1  0
 15 16  1  0
 16 17  1  0
 11 18  2  0
 18 19  1  0
 19 20  2  0
 20 21  1  0
 21 22  1  0
 21 23  2  0
 21 24  2  0
  5 25  2  0
 25 26  1  0
 26 27  2  0
 27 28  1  0
 28 29  2  0
 29 30  1  0
 29 31  1  0
 31 32  2  0
 32  3  1  0
 20  9  1  0
 31 25  1  0
 17 12  1  0
M  END
>  <smiles>  (284) 
C86488-P74

>  <fragmenstein_outcome>  (284) 
acceptable

>  <inchikey>  (284) 
IEPQCVPGJGWQDT-UHFFFAOYSA-N

>  <fragmenstein_mode>  (284) 
expansion

>  <HIPPO Pose ID>  (284) 
9259

>  <Energy>  (284) 
202.303107

>  <fragmenstein_error>  (284) 


>  <tags>  (284) 
{'openbind_xx01zvns2b_c1_fragmenstein', 'fragmenstein_placed'}

>  <ref_pdb>  (284) 
1

>  <scratch_subdir>  (284) 
/opt/xchem-fragalysis-2/maxwin/BulkDock/SCRATCH/511027/C86488-P74

>  <alias>  (284) 
CCc1cc(C(=O)Nc2cc(N3CCNCC3)ccc2S(C)(=O)=O)c2cccc(C)c2c1

>  <HIPPO Compound ID>  (284) 
86488

>  <fragmenstein_runtime>  (284) 
7.688769

$$$$
CS(=O)(=O)c1ccc(N2CCNCC2)cc1N[C@@H](N=CNC[C@@H]1CCCO1)c1cc(Cl)cc2ncccc12
     RDKit          3D

 38 42  0  0  0  0  0  0  0  0999 V2000
   -9.7563    9.5260  -11.9828 C   0  0  0  0  0  0  0  0  0  0  0  0
   -8.9252    8.1814  -12.7759 S   0  0  0  0  0  0  0  0  0  0  0  0
   -9.9040    7.6357  -13.6982 O   0  0  0  0  0  0  0  0  0  0  0  0
   -7.6410    8.6809  -13.2378 O   0  0  0  0  0  0  0  0  0  0  0  0
   -8.6018    6.9721  -11.5223 C   0  0  0  0  0  0  0  0  0  0  0  0
   -8.5085    7.3849  -10.1912 C   0  0  0  0  0  0  0  0  0  0  0  0
   -8.4489    6.4388   -9.1655 C   0  0  0  0  0  0  0  0  0  0  0  0
   -8.4713    5.0638   -9.4244 C   0  0  0  0  0  0  0  0  0  0  0  0
   -8.5425    4.1382   -8.3916 N   0  0  0  0  0  0  0  0  0  0  0  0
   -8.8056    2.7080   -8.6995 C   0  0  0  0  0  0  0  0  0  0  0  0
   -9.0911    1.8990   -7.4105 C   0  0  0  0  0  0  0  0  0  0  0  0
   -9.5913    2.7458   -6.3072 N   0  0  0  0  0  0  0  0  0  0  0  0
   -8.5186    3.6987   -5.9526 C   0  0  0  0  0  0  0  0  0  0  0  0
   -7.7767    4.3421   -7.1538 C   0  0  0  0  0  0  0  0  0  0  0  0
   -8.5194    4.6877  -10.7765 C   0  0  0  0  0  0  0  0  0  0  0  0
   -8.5884    5.6108  -11.8395 C   0  0  0  0  0  0  0  0  0  0  0  0
   -8.5950    5.1177  -13.1621 N   0  0  0  0  0  0  0  0  0  0  0  0
   -7.2674    5.0777  -13.8078 C   0  0  1  0  0  0  0  0  0  0  0  0
   -6.3516    4.1660  -13.1161 N   0  0  0  0  0  0  0  0  0  0  0  0
   -6.6386    3.0012  -13.0452 C   0  0  0  0  0  0  0  0  0  0  0  0
   -6.0487    1.8618  -12.1476 N   0  0  0  0  0  0  0  0  0  0  0  0
   -5.0707    1.9116  -11.0971 C   0  0  0  0  0  0  0  0  0  0  0  0
   -3.8925    2.8408  -11.3980 C   0  0  2  0  0  0  0  0  0  0  0  0
   -3.1469    2.5343  -12.6878 C   0  0  0  0  0  0  0  0  0  0  0  0
   -1.8162    3.1924  -12.4234 C   0  0  0  0  0  0  0  0  0  0  0  0
   -1.5988    2.8907  -10.9554 C   0  0  0  0  0  0  0  0  0  0  0  0
   -2.8929    2.7162  -10.3569 O   0  0  0  0  0  0  0  0  0  0  0  0
   -7.3769    4.8549  -15.3213 C   0  0  0  0  0  0  0  0  0  0  0  0
   -8.6405    4.7055  -15.9131 C   0  0  0  0  0  0  0  0  0  0  0  0
   -8.7799    4.5647  -17.2845 C   0  0  0  0  0  0  0  0  0  0  0  0
  -10.3581    4.4673  -17.9430 Cl  0  0  0  0  0  0  0  0  0  0  0  0
   -7.6685    4.5662  -18.1101 C   0  0  0  0  0  0  0  0  0  0  0  0
   -6.3999    4.7164  -17.5828 C   0  0  0  0  0  0  0  0  0  0  0  0
   -5.3702    4.7311  -18.4457 N   0  0  0  0  0  0  0  0  0  0  0  0
   -4.1247    4.8831  -17.9640 C   0  0  0  0  0  0  0  0  0  0  0  0
   -3.8427    5.0478  -16.6270 C   0  0  0  0  0  0  0  0  0  0  0  0
   -4.9087    5.0499  -15.7340 C   0  0  0  0  0  0  0  0  0  0  0  0
   -6.2356    4.8701  -16.1806 C   0  0  0  0  0  0  0  0  0  0  0  0
  1  2  1  0
  2  3  2  0
  2  4  2  0
  2  5  1  0
  5  6  2  0
  6  7  1  0
  7  8  2  0
  8  9  1  0
  9 10  1  0
 10 11  1  0
 11 12  1  0
 12 13  1  0
 13 14  1  0
  8 15  1  0
 15 16  2  0
 16 17  1  0
 18 17  1  1
 18 19  1  0
 19 20  2  3
 20 21  1  0
 21 22  1  0
 23 22  1  1
 23 24  1  0
 24 25  1  0
 25 26  1  0
 26 27  1  0
 18 28  1  0
 28 29  2  0
 29 30  1  0
 30 31  1  0
 30 32  2  0
 32 33  1  0
 33 34  2  0
 34 35  1  0
 35 36  2  0
 36 37  1  0
 37 38  2  0
 16  5  1  0
 27 23  1  0
 38 28  1  0
 14  9  1  0
 38 33  1  0
M  END
>  <smiles>  (285) 
C86489-P74

>  <fragmenstein_outcome>  (285) 
acceptable

>  <inchikey>  (285) 
IBNFCCNXELXVBQ-UHFFFAOYSA-N

>  <fragmenstein_mode>  (285) 
expansion

>  <HIPPO Pose ID>  (285) 
9260

>  <Energy>  (285) 
159.63753

>  <fragmenstein_error>  (285) 


>  <tags>  (285) 
{'openbind_xx01zvns2b_c1_fragmenstein', 'fragmenstein_placed'}

>  <ref_pdb>  (285) 
1

>  <scratch_subdir>  (285) 
/opt/xchem-fragalysis-2/maxwin/BulkDock/SCRATCH/511027/C86489-P74

>  <alias>  (285) 
CS(=O)(=O)c1ccc(N2CCNCC2)cc1N[C@@H](N=CNC[C@@H]1CCCO1)c1cc(Cl)cc2ncccc12

>  <HIPPO Compound ID>  (285) 
76725

>  <fragmenstein_runtime>  (285) 
18.212389

$$$$
CS(=O)(=O)c1ccc(N2CCNCC2)cc1NC(=O)c1cc(F)cc2c1CC1(CCCCC1)CN2
     RDKit          3D

 35 39  0  0  0  0  0  0  0  0999 V2000
   -7.5619    9.1682  -12.9503 C   0  0  0  0  0  0  0  0  0  0  0  0
   -9.0556    8.2703  -12.5865 S   0  0  0  0  0  0  0  0  0  0  0  0
   -9.9087    9.1905  -11.8492 O   0  0  0  0  0  0  0  0  0  0  0  0
   -9.6161    7.6228  -13.7556 O   0  0  0  0  0  0  0  0  0  0  0  0
   -8.5370    6.9958  -11.4608 C   0  0  0  0  0  0  0  0  0  0  0  0
   -8.6376    7.3319  -10.1073 C   0  0  0  0  0  0  0  0  0  0  0  0
   -8.5769    6.3405   -9.1363 C   0  0  0  0  0  0  0  0  0  0  0  0
   -8.4598    4.9875   -9.4750 C   0  0  0  0  0  0  0  0  0  0  0  0
   -8.5504    4.0164   -8.4902 N   0  0  0  0  0  0  0  0  0  0  0  0
   -8.7419    2.5942   -8.8602 C   0  0  0  0  0  0  0  0  0  0  0  0
   -9.0646    1.7359   -7.6135 C   0  0  0  0  0  0  0  0  0  0  0  0
   -9.6770    2.5147   -6.5164 N   0  0  0  0  0  0  0  0  0  0  0  0
   -8.6858    3.5144   -6.0659 C   0  0  0  0  0  0  0  0  0  0  0  0
   -7.8829    4.2107   -7.1943 C   0  0  0  0  0  0  0  0  0  0  0  0
   -8.3388    4.6785  -10.8440 C   0  0  0  0  0  0  0  0  0  0  0  0
   -8.3244    5.6641  -11.8452 C   0  0  0  0  0  0  0  0  0  0  0  0
   -8.0601    5.2085  -13.1463 N   0  0  0  0  0  0  0  0  0  0  0  0
   -7.3958    5.9228  -14.3439 C   0  0  0  0  0  0  0  0  0  0  0  0
   -6.8947    6.9752  -14.4143 O   0  0  0  0  0  0  0  0  0  0  0  0
   -7.4713    5.1457  -15.6087 C   0  0  0  0  0  0  0  0  0  0  0  0
   -8.7338    4.7600  -16.0595 C   0  0  0  0  0  0  0  0  0  0  0  0
   -8.8854    4.3560  -17.3755 C   0  0  0  0  0  0  0  0  0  0  0  0
  -10.0990    4.0014  -17.8178 F   0  0  0  0  0  0  0  0  0  0  0  0
   -7.8106    4.3671  -18.2552 C   0  0  0  0  0  0  0  0  0  0  0  0
   -6.5244    4.6830  -17.8019 C   0  0  0  0  0  0  0  0  0  0  0  0
   -6.3455    5.0636  -16.4596 C   0  0  0  0  0  0  0  0  0  0  0  0
   -4.9415    5.2930  -15.9458 C   0  0  0  0  0  0  0  0  0  0  0  0
   -3.9346    5.7251  -17.0358 C   0  0  0  0  0  0  0  0  0  0  0  0
   -4.1638    7.2084  -17.4186 C   0  0  0  0  0  0  0  0  0  0  0  0
   -3.0855    7.7727  -18.3444 C   0  0  0  0  0  0  0  0  0  0  0  0
   -1.6894    7.5913  -17.7604 C   0  0  0  0  0  0  0  0  0  0  0  0
   -1.4174    6.1417  -17.3769 C   0  0  0  0  0  0  0  0  0  0  0  0
   -2.5044    5.5913  -16.4549 C   0  0  0  0  0  0  0  0  0  0  0  0
   -4.1182    4.7768  -18.2355 C   0  0  0  0  0  0  0  0  0  0  0  0
   -5.4823    4.7828  -18.7284 N   0  0  0  0  0  0  0  0  0  0  0  0
  1  2  1  0
  2  3  2  0
  2  4  2  0
  2  5  1  0
  5  6  2  0
  6  7  1  0
  7  8  2  0
  8  9  1  0
  9 10  1  0
 10 11  1  0
 11 12  1  0
 12 13  1  0
 13 14  1  0
  8 15  1  0
 15 16  2  0
 16 17  1  0
 17 18  1  0
 18 19  2  0
 18 20  1  0
 20 21  2  0
 21 22  1  0
 22 23  1  0
 22 24  2  0
 24 25  1  0
 25 26  2  0
 26 27  1  0
 27 28  1  0
 28 29  1  0
 29 30  1  0
 30 31  1  0
 31 32  1  0
 32 33  1  0
 28 34  1  0
 34 35  1  0
 16  5  1  0
 26 20  1  0
 33 28  1  0
 14  9  1  0
 35 25  1  0
M  END
>  <smiles>  (286) 
C86490-P74

>  <fragmenstein_outcome>  (286) 
acceptable

>  <inchikey>  (286) 
UHFDIJIKGBDNFW-UHFFFAOYSA-N

>  <fragmenstein_mode>  (286) 
expansion

>  <HIPPO Pose ID>  (286) 
9261

>  <Energy>  (286) 
162.999412

>  <fragmenstein_error>  (286) 


>  <tags>  (286) 
{'openbind_xx01zvns2b_c1_fragmenstein', 'fragmenstein_placed'}

>  <ref_pdb>  (286) 
1

>  <scratch_subdir>  (286) 
/opt/xchem-fragalysis-2/maxwin/BulkDock/SCRATCH/511027/C86490-P74

>  <alias>  (286) 
CS(=O)(=O)c1ccc(N2CCNCC2)cc1NC(=O)c1cc(F)cc2c1CC1(CCCCC1)CN2

>  <HIPPO Compound ID>  (286) 
72742

>  <fragmenstein_runtime>  (286) 
7.076988

$$$$
CS(=O)(=O)[C@@H]1[C@H]2COC[C@@H]3CS(=O)(=O)CC[C@@]32[C@@H](N2CCNCC2)C[C@H]1NC(=O)c1cc(F)cc2ncccc12
     RDKit          3D

 40 45  0  0  0  0  0  0  0  0999 V2000
   -9.8988    9.4069  -11.9692 C   0  0  0  0  0  0  0  0  0  0  0  0
   -8.8172    8.1983  -12.6843 S   0  0  0  0  0  0  0  0  0  0  0  0
   -9.6047    7.5497  -13.7193 O   0  0  0  0  0  0  0  0  0  0  0  0
   -7.5801    8.8959  -12.9734 O   0  0  0  0  0  0  0  0  0  0  0  0
   -8.4849    6.9451  -11.4397 C   0  0  1  0  0  0  0  0  0  0  0  0
   -7.5167    5.8788  -11.9343 C   0  0  2  0  0  0  0  0  0  0  0  0
   -7.6052    5.4097  -13.2962 N   0  0  0  0  0  0  0  0  0  0  0  0
   -7.0352    6.0028  -14.5958 C   0  0  0  0  0  0  0  0  0  0  0  0
   -6.3395    6.9217  -14.7648 O   0  0  0  0  0  0  0  0  0  0  0  0
   -7.3592    5.2122  -15.8144 C   0  0  0  0  0  0  0  0  0  0  0  0
   -8.6833    4.8909  -16.1105 C   0  0  0  0  0  0  0  0  0  0  0  0
   -8.9819    4.4282  -17.3837 C   0  0  0  0  0  0  0  0  0  0  0  0
  -10.2509    4.1386  -17.7058 F   0  0  0  0  0  0  0  0  0  0  0  0
   -7.9972    4.3198  -18.3567 C   0  0  0  0  0  0  0  0  0  0  0  0
   -6.6714    4.6007  -18.0712 C   0  0  0  0  0  0  0  0  0  0  0  0
   -5.7641    4.4924  -19.0543 N   0  0  0  0  0  0  0  0  0  0  0  0
   -4.4693    4.7508  -18.7846 C   0  0  0  0  0  0  0  0  0  0  0  0
   -4.0035    5.0876  -17.5363 C   0  0  0  0  0  0  0  0  0  0  0  0
   -4.9412    5.2140  -16.5234 C   0  0  0  0  0  0  0  0  0  0  0  0
   -6.3225    5.0083  -16.7714 C   0  0  0  0  0  0  0  0  0  0  0  0
   -7.5124    4.7320  -10.9259 C   0  0  0  0  0  0  0  0  0  0  0  0
   -7.2103    5.1246   -9.4165 C   0  0  2  0  0  0  0  0  0  0  0  0
   -8.1735    4.5174   -8.4390 N   0  0  0  0  0  0  0  0  0  0  0  0
   -8.6376    3.1430   -8.8762 C   0  0  0  0  0  0  0  0  0  0  0  0
   -9.1120    2.1773   -7.7558 C   0  0  0  0  0  0  0  0  0  0  0  0
   -9.5762    2.9038   -6.5685 N   0  0  0  0  0  0  0  0  0  0  0  0
   -8.4430    3.6722   -6.0419 C   0  0  0  0  0  0  0  0  0  0  0  0
   -7.5146    4.2810   -7.1234 C   0  0  0  0  0  0  0  0  0  0  0  0
   -6.8568    6.7134   -9.3149 C   0  0  2  0  0  0  0  0  0  0  0  0
   -5.3675    6.7700   -9.8861 C   0  0  0  0  0  0  0  0  0  0  0  0
   -4.7544    8.1390  -10.1077 C   0  0  0  0  0  0  0  0  0  0  0  0
   -4.4863    8.9220   -8.5436 S   0  0  0  0  0  0  0  0  0  0  0  0
   -4.1843   10.3200   -8.7745 O   0  0  0  0  0  0  0  0  0  0  0  0
   -3.6027    8.0895   -7.7492 O   0  0  0  0  0  0  0  0  0  0  0  0
   -6.1040    8.8089   -7.8591 C   0  0  0  0  0  0  0  0  0  0  0  0
   -6.7128    7.3728   -7.8629 C   0  0  1  0  0  0  0  0  0  0  0  0
   -8.0628    7.5535   -7.1685 C   0  0  0  0  0  0  0  0  0  0  0  0
   -8.8503    8.3948   -7.9919 O   0  0  0  0  0  0  0  0  0  0  0  0
   -9.1949    7.7346   -9.1942 C   0  0  0  0  0  0  0  0  0  0  0  0
   -7.9689    7.5434  -10.1018 C   0  0  2  0  0  0  0  0  0  0  0  0
  1  2  1  0
  2  3  2  0
  2  4  2  0
  5  2  1  6
  5  6  1  0
  6  7  1  6
  7  8  1  0
  8  9  2  0
  8 10  1  0
 10 11  2  0
 11 12  1  0
 12 13  1  0
 12 14  2  0
 14 15  1  0
 15 16  2  0
 16 17  1  0
 17 18  2  0
 18 19  1  0
 19 20  2  0
  6 21  1  0
 21 22  1  0
 22 23  1  1
 23 24  1  0
 24 25  1  0
 25 26  1  0
 26 27  1  0
 27 28  1  0
 22 29  1  0
 29 30  1  6
 30 31  1  0
 31 32  1  0
 32 33  2  0
 32 34  2  0
 32 35  1  0
 36 35  1  6
 36 37  1  0
 37 38  1  0
 38 39  1  0
 40 39  1  1
 40  5  1  0
 20 10  1  0
 28 23  1  0
 36 29  1  0
 20 15  1  0
 40 29  1  0
M  END
>  <smiles>  (287) 
C85541-P74

>  <fragmenstein_outcome>  (287) 
acceptable

>  <inchikey>  (287) 
UDAPBYNAMRAZSU-UHFFFAOYSA-N

>  <fragmenstein_mode>  (287) 
expansion

>  <HIPPO Pose ID>  (287) 
9262

>  <Energy>  (287) 
176.404567

>  <fragmenstein_error>  (287) 


>  <tags>  (287) 
{'openbind_xx01zvns2b_c1_fragmenstein', 'fragmenstein_placed'}

>  <ref_pdb>  (287) 
1

>  <scratch_subdir>  (287) 
/opt/xchem-fragalysis-2/maxwin/BulkDock/SCRATCH/511027/C85541-P74

>  <alias>  (287) 
CS(=O)(=O)[C@@H]1[C@H]2COC[C@@H]3CS(=O)(=O)CC[C@@]32[C@@H](N2CCNCC2)C[C@H]1NC(=O)c1cc(F)cc2ncccc12

>  <HIPPO Compound ID>  (287) 
83086

>  <fragmenstein_runtime>  (287) 
13.862135

$$$$
CS(=O)(=O)[C@@H]1[C@H]2CN3COCC[C@@]2(C3)[C@@H](N2CCNCC2)C[C@H]1NC(=O)c1cc(F)cc2ncccc12
     RDKit          3D

 37 42  0  0  0  0  0  0  0  0999 V2000
   -9.7816    9.5021  -11.8213 C   0  0  0  0  0  0  0  0  0  0  0  0
   -8.7505    8.3078  -12.6341 S   0  0  0  0  0  0  0  0  0  0  0  0
   -9.6288    7.6659  -13.5991 O   0  0  0  0  0  0  0  0  0  0  0  0
   -7.5464    9.0071  -13.0325 O   0  0  0  0  0  0  0  0  0  0  0  0
   -8.3752    7.1223  -11.3790 C   0  0  1  0  0  0  0  0  0  0  0  0
   -7.8438    5.7396  -11.8525 C   0  0  2  0  0  0  0  0  0  0  0  0
   -7.9619    5.3626  -13.2329 N   0  0  0  0  0  0  0  0  0  0  0  0
   -7.2349    5.8979  -14.4819 C   0  0  0  0  0  0  0  0  0  0  0  0
   -6.4828    6.7808  -14.5976 O   0  0  0  0  0  0  0  0  0  0  0  0
   -7.5018    5.1365  -15.7358 C   0  0  0  0  0  0  0  0  0  0  0  0
   -8.8127    4.8238  -16.0860 C   0  0  0  0  0  0  0  0  0  0  0  0
   -9.0746    4.3981  -17.3789 C   0  0  0  0  0  0  0  0  0  0  0  0
  -10.3346    4.1163  -17.7407 F   0  0  0  0  0  0  0  0  0  0  0  0
   -8.0623    4.3151  -18.3251 C   0  0  0  0  0  0  0  0  0  0  0  0
   -6.7459    4.5881  -17.9931 C   0  0  0  0  0  0  0  0  0  0  0  0
   -5.8127    4.5016  -18.9553 N   0  0  0  0  0  0  0  0  0  0  0  0
   -4.5253    4.7488  -18.6452 C   0  0  0  0  0  0  0  0  0  0  0  0
   -4.0944    5.0585  -17.3775 C   0  0  0  0  0  0  0  0  0  0  0  0
   -5.0596    5.1620  -16.3865 C   0  0  0  0  0  0  0  0  0  0  0  0
   -6.4354    4.9620  -16.6718 C   0  0  0  0  0  0  0  0  0  0  0  0
   -8.2259    4.7276  -10.7830 C   0  0  0  0  0  0  0  0  0  0  0  0
   -7.5739    5.0684   -9.3848 C   0  0  2  0  0  0  0  0  0  0  0  0
   -8.2092    4.2643   -8.3112 N   0  0  0  0  0  0  0  0  0  0  0  0
   -8.5195    2.8593   -8.6742 C   0  0  0  0  0  0  0  0  0  0  0  0
   -8.9411    1.9452   -7.4959 C   0  0  0  0  0  0  0  0  0  0  0  0
   -9.3434    2.6623   -6.2805 N   0  0  0  0  0  0  0  0  0  0  0  0
   -8.2688    3.5772   -5.8793 C   0  0  0  0  0  0  0  0  0  0  0  0
   -7.5037    4.2853   -7.0279 C   0  0  0  0  0  0  0  0  0  0  0  0
   -7.5023    6.6408   -9.0482 C   0  0  2  0  0  0  0  0  0  0  0  0
   -8.7278    7.1368   -8.1810 C   0  0  0  0  0  0  0  0  0  0  0  0
   -8.4031    7.9186   -6.8911 C   0  0  0  0  0  0  0  0  0  0  0  0
   -7.9452    9.2352   -7.1529 O   0  0  0  0  0  0  0  0  0  0  0  0
   -6.5627    9.3266   -7.4588 C   0  0  0  0  0  0  0  0  0  0  0  0
   -6.1579    8.5786   -8.6398 N   0  0  0  0  0  0  0  0  0  0  0  0
   -7.0443    8.8888   -9.7986 C   0  0  0  0  0  0  0  0  0  0  0  0
   -7.3374    7.5048  -10.3347 C   0  0  2  0  0  0  0  0  0  0  0  0
   -6.1814    7.1113   -8.4086 C   0  0  0  0  0  0  0  0  0  0  0  0
  1  2  1  0
  2  3  2  0
  2  4  2  0
  5  2  1  6
  5  6  1  0
  6  7  1  6
  7  8  1  0
  8  9  2  0
  8 10  1  0
 10 11  2  0
 11 12  1  0
 12 13  1  0
 12 14  2  0
 14 15  1  0
 15 16  2  0
 16 17  1  0
 17 18  2  0
 18 19  1  0
 19 20  2  0
  6 21  1  0
 21 22  1  0
 22 23  1  1
 23 24  1  0
 24 25  1  0
 25 26  1  0
 26 27  1  0
 27 28  1  0
 22 29  1  0
 29 30  1  1
 30 31  1  0
 31 32  1  0
 32 33  1  0
 33 34  1  0
 34 35  1  0
 36 35  1  1
 34 37  1  0
 36  5  1  0
 20 10  1  0
 28 23  1  0
 36 29  1  0
 20 15  1  0
 37 29  1  0
M  END
>  <smiles>  (288) 
C86494-P74

>  <fragmenstein_outcome>  (288) 
acceptable

>  <inchikey>  (288) 
WKSWJHDODMLBIN-UHFFFAOYSA-N

>  <fragmenstein_mode>  (288) 
expansion

>  <HIPPO Pose ID>  (288) 
9269

>  <Energy>  (288) 
164.034388

>  <fragmenstein_error>  (288) 


>  <tags>  (288) 
{'openbind_xx01zvns2b_c1_fragmenstein', 'fragmenstein_placed'}

>  <ref_pdb>  (288) 
1

>  <scratch_subdir>  (288) 
/opt/xchem-fragalysis-2/maxwin/BulkDock/SCRATCH/511027/C86494-P74

>  <alias>  (288) 
CS(=O)(=O)[C@@H]1[C@H]2CN3COCC[C@@]2(C3)[C@@H](N2CCNCC2)C[C@H]1NC(=O)c1cc(F)cc2ncccc12

>  <HIPPO Compound ID>  (288) 
107129

>  <fragmenstein_runtime>  (288) 
13.223518

$$$$
CS(=O)(=O)[C@@H]1C[C@@H]2SCC[C@H]3N[C@@H](N)C[C@@H]3[C@H]2C[C@@H]1n1[nH]c2ccc3ncccc3c2c1=O
     RDKit          3D

 33 38  0  0  0  0  0  0  0  0999 V2000
   -7.4763    8.6669  -13.3804 C   0  0  0  0  0  0  0  0  0  0  0  0
   -8.9981    8.1339  -12.6227 S   0  0  0  0  0  0  0  0  0  0  0  0
   -9.4994    9.2763  -11.8781 O   0  0  0  0  0  0  0  0  0  0  0  0
   -9.8522    7.5468  -13.6413 O   0  0  0  0  0  0  0  0  0  0  0  0
   -8.5774    6.8807  -11.4325 C   0  0  2  0  0  0  0  0  0  0  0  0
   -7.4271    7.2671  -10.5149 C   0  0  0  0  0  0  0  0  0  0  0  0
   -7.5667    6.4324   -9.2441 C   0  0  2  0  0  0  0  0  0  0  0  0
   -6.2732    6.9307   -8.0597 S   0  0  0  0  0  0  0  0  0  0  0  0
   -7.0995    6.5966   -6.4704 C   0  0  0  0  0  0  0  0  0  0  0  0
   -8.2963    5.6465   -6.4117 C   0  0  0  0  0  0  0  0  0  0  0  0
   -8.0780    4.2857   -7.0770 C   0  0  1  0  0  0  0  0  0  0  0  0
   -8.9574    3.2933   -6.4500 N   0  0  0  0  0  0  0  0  0  0  0  0
   -8.9300    2.1446   -7.3343 C   0  0  1  0  0  0  0  0  0  0  0  0
  -10.2150    1.5538   -7.1083 N   0  0  0  0  0  0  0  0  0  0  0  0
   -8.6658    2.6796   -8.7438 C   0  0  0  0  0  0  0  0  0  0  0  0
   -8.4952    4.1902   -8.5573 C   0  0  2  0  0  0  0  0  0  0  0  0
   -7.5120    4.9059   -9.5052 C   0  0  1  0  0  0  0  0  0  0  0  0
   -7.6264    4.5304  -11.0047 C   0  0  0  0  0  0  0  0  0  0  0  0
   -8.4733    5.4353  -11.9311 C   0  0  2  0  0  0  0  0  0  0  0  0
   -8.0808    5.2744  -13.3310 N   0  0  0  0  0  0  0  0  0  0  0  0
   -9.0923    5.0042  -14.3072 N   0  0  0  0  0  0  0  0  0  0  0  0
   -8.3466    4.8361  -15.4979 C   0  0  0  0  0  0  0  0  0  0  0  0
   -8.8420    4.5849  -16.7597 C   0  0  0  0  0  0  0  0  0  0  0  0
   -7.9321    4.5404  -17.8265 C   0  0  0  0  0  0  0  0  0  0  0  0
   -6.5553    4.7267  -17.6474 C   0  0  0  0  0  0  0  0  0  0  0  0
   -5.7404    4.6961  -18.7126 N   0  0  0  0  0  0  0  0  0  0  0  0
   -4.4147    4.8630  -18.5248 C   0  0  0  0  0  0  0  0  0  0  0  0
   -3.8338    5.0819  -17.2923 C   0  0  0  0  0  0  0  0  0  0  0  0
   -4.6696    5.1425  -16.1874 C   0  0  0  0  0  0  0  0  0  0  0  0
   -6.0563    4.9669  -16.3509 C   0  0  0  0  0  0  0  0  0  0  0  0
   -6.9835    5.0261  -15.3130 C   0  0  0  0  0  0  0  0  0  0  0  0
   -6.8281    5.3755  -13.9003 C   0  0  0  0  0  0  0  0  0  0  0  0
   -5.8083    5.7718  -13.3669 O   0  0  0  0  0  0  0  0  0  0  0  0
  1  2  1  0
  2  3  2  0
  2  4  2  0
  5  2  1  6
  5  6  1  0
  7  6  1  6
  7  8  1  0
  8  9  1  0
  9 10  1  0
 11 10  1  1
 11 12  1  0
 12 13  1  0
 13 14  1  6
 13 15  1  0
 16 15  1  6
 16 17  1  0
 17 18  1  6
 18 19  1  0
 19 20  1  6
 20 21  1  0
 21 22  1  0
 22 23  2  0
 23 24  1  0
 24 25  2  0
 25 26  1  0
 26 27  2  0
 27 28  1  0
 28 29  2  0
 29 30  1  0
 30 31  2  0
 31 32  1  0
 32 33  2  0
 19  5  1  0
 32 20  1  0
 17  7  1  0
 31 22  1  0
 16 11  1  0
 30 25  1  0
M  END
>  <smiles>  (289) 
C86495-P74

>  <fragmenstein_outcome>  (289) 
acceptable

>  <inchikey>  (289) 
PZNJXTBFQKRJJW-UHFFFAOYSA-N

>  <fragmenstein_mode>  (289) 
expansion

>  <HIPPO Pose ID>  (289) 
9270

>  <Energy>  (289) 
33.968841

>  <fragmenstein_error>  (289) 


>  <tags>  (289) 
{'openbind_xx01zvns2b_c1_fragmenstein', 'fragmenstein_placed'}

>  <ref_pdb>  (289) 
1

>  <scratch_subdir>  (289) 
/opt/xchem-fragalysis-2/maxwin/BulkDock/SCRATCH/511027/C86495-P74

>  <alias>  (289) 
CS(=O)(=O)[C@@H]1C[C@@H]2SCC[C@H]3N[C@@H](N)C[C@@H]3[C@H]2C[C@@H]1n1[nH]c2ccc3ncccc3c2c1=O

>  <HIPPO Compound ID>  (289) 
86495

>  <fragmenstein_runtime>  (289) 
4.114214

$$$$
CC(C)[C@@H]1NN[C@]2(CNc3cc(F)cc(C(=O)Nc4cc(N5CCNCC5)ccc4S(C)(=O)=O)c3C2)S1
     RDKit          3D

 37 41  0  0  0  0  0  0  0  0999 V2000
   -2.3236    7.6077  -20.3602 C   0  0  0  0  0  0  0  0  0  0  0  0
   -2.0109    8.4370  -19.1081 C   0  0  0  0  0  0  0  0  0  0  0  0
   -0.5219    8.8083  -19.1076 C   0  0  0  0  0  0  0  0  0  0  0  0
   -2.4088    7.7592  -17.7768 C   0  0  2  0  0  0  0  0  0  0  0  0
   -1.7649    6.4508  -17.5810 N   0  0  0  0  0  0  0  0  0  0  0  0
   -2.5877    5.6565  -16.6651 N   0  0  0  0  0  0  0  0  0  0  0  0
   -3.9908    5.7370  -17.1683 C   0  0  1  0  0  0  0  0  0  0  0  0
   -4.2100    4.8005  -18.3773 C   0  0  0  0  0  0  0  0  0  0  0  0
   -5.5991    4.7658  -18.8172 N   0  0  0  0  0  0  0  0  0  0  0  0
   -6.6074    4.6885  -17.8563 C   0  0  0  0  0  0  0  0  0  0  0  0
   -7.9076    4.3795  -18.2718 C   0  0  0  0  0  0  0  0  0  0  0  0
   -8.9578    4.3864  -17.3652 C   0  0  0  0  0  0  0  0  0  0  0  0
  -10.1906    4.0646  -17.7786 F   0  0  0  0  0  0  0  0  0  0  0  0
   -8.7638    4.7823  -16.0522 C   0  0  0  0  0  0  0  0  0  0  0  0
   -7.4867    5.1559  -15.6313 C   0  0  0  0  0  0  0  0  0  0  0  0
   -7.3752    5.9059  -14.3490 C   0  0  0  0  0  0  0  0  0  0  0  0
   -6.8371    6.9407  -14.4035 O   0  0  0  0  0  0  0  0  0  0  0  0
   -8.0710    5.2002  -13.1633 N   0  0  0  0  0  0  0  0  0  0  0  0
   -8.3259    5.6486  -11.8581 C   0  0  0  0  0  0  0  0  0  0  0  0
   -8.3475    4.6626  -10.8581 C   0  0  0  0  0  0  0  0  0  0  0  0
   -8.4579    4.9742   -9.4882 C   0  0  0  0  0  0  0  0  0  0  0  0
   -8.5455    4.0048   -8.5023 N   0  0  0  0  0  0  0  0  0  0  0  0
   -8.7575    2.5846   -8.8648 C   0  0  0  0  0  0  0  0  0  0  0  0
   -9.0740    1.7315   -7.6135 C   0  0  0  0  0  0  0  0  0  0  0  0
   -9.6908    2.5111   -6.5210 N   0  0  0  0  0  0  0  0  0  0  0  0
   -8.7101    3.5217   -6.0741 C   0  0  0  0  0  0  0  0  0  0  0  0
   -7.8913    4.2021   -7.2003 C   0  0  0  0  0  0  0  0  0  0  0  0
   -8.5635    6.3287   -9.1498 C   0  0  0  0  0  0  0  0  0  0  0  0
   -8.6193    7.3207  -10.1202 C   0  0  0  0  0  0  0  0  0  0  0  0
   -8.5245    6.9828  -11.4731 C   0  0  0  0  0  0  0  0  0  0  0  0
   -9.0410    8.2582  -12.6001 S   0  0  0  0  0  0  0  0  0  0  0  0
   -7.5467    9.1528  -12.9675 C   0  0  0  0  0  0  0  0  0  0  0  0
   -9.8932    9.1789  -11.8626 O   0  0  0  0  0  0  0  0  0  0  0  0
   -9.6008    7.6087  -13.7684 O   0  0  0  0  0  0  0  0  0  0  0  0
   -6.3873    5.0771  -16.5189 C   0  0  0  0  0  0  0  0  0  0  0  0
   -4.9648    5.3183  -16.0511 C   0  0  0  0  0  0  0  0  0  0  0  0
   -4.1977    7.5109  -17.6128 S   0  0  0  0  0  0  0  0  0  0  0  0
  1  2  1  0
  2  3  1  0
  4  2  1  6
  4  5  1  0
  5  6  1  0
  6  7  1  0
  7  8  1  6
  8  9  1  0
  9 10  1  0
 10 11  2  0
 11 12  1  0
 12 13  1  0
 12 14  2  0
 14 15  1  0
 15 16  1  0
 16 17  2  0
 16 18  1  0
 18 19  1  0
 19 20  2  0
 20 21  1  0
 21 22  1  0
 22 23  1  0
 23 24  1  0
 24 25  1  0
 25 26  1  0
 26 27  1  0
 21 28  2  0
 28 29  1  0
 29 30  2  0
 30 31  1  0
 31 32  1  0
 31 33  2  0
 31 34  2  0
 15 35  2  0
 35 36  1  0
  7 37  1  0
 37  4  1  0
 36  7  1  0
 35 10  1  0
 30 19  1  0
 27 22  1  0
M  END
>  <smiles>  (290) 
C85551-P74

>  <fragmenstein_outcome>  (290) 
acceptable

>  <inchikey>  (290) 
LMGMXZQTYLFWIW-UHFFFAOYSA-N

>  <fragmenstein_mode>  (290) 
expansion

>  <HIPPO Pose ID>  (290) 
9273

>  <Energy>  (290) 
234.544095

>  <fragmenstein_error>  (290) 


>  <tags>  (290) 
{'openbind_xx01zvns2b_c1_fragmenstein', 'fragmenstein_placed'}

>  <ref_pdb>  (290) 
1

>  <scratch_subdir>  (290) 
/opt/xchem-fragalysis-2/maxwin/BulkDock/SCRATCH/511027/C85551-P74

>  <alias>  (290) 
CC(C)[C@@H]1NN[C@]2(CNc3cc(F)cc(C(=O)Nc4cc(N5CCNCC5)ccc4S(C)(=O)=O)c3C2)S1

>  <HIPPO Compound ID>  (290) 
85551

>  <fragmenstein_runtime>  (290) 
11.78459

$$$$
C[C@@H]1N[C@@H]2C[C@H](F)C[C@@H](C(=O)Nc3cc(N4CCNCC4)ccc3S(C)(=O)=O)[C@H]2[C@H](OCCCO)C1=O
     RDKit          3D

 37 40  0  0  0  0  0  0  0  0999 V2000
   -3.0246    5.5265  -19.1631 C   0  0  0  0  0  0  0  0  0  0  0  0
   -4.0540    4.7976  -18.3054 C   0  0  2  0  0  0  0  0  0  0  0  0
   -5.3962    5.2251  -18.7239 N   0  0  0  0  0  0  0  0  0  0  0  0
   -6.4188    4.7278  -17.8156 C   0  0  2  0  0  0  0  0  0  0  0  0
   -7.8357    4.7893  -18.3641 C   0  0  0  0  0  0  0  0  0  0  0  0
   -8.7943    4.1278  -17.3710 C   0  0  2  0  0  0  0  0  0  0  0  0
  -10.0541    4.5604  -17.6317 F   0  0  0  0  0  0  0  0  0  0  0  0
   -8.4516    4.3615  -15.8892 C   0  0  0  0  0  0  0  0  0  0  0  0
   -7.5706    5.5877  -15.7222 C   0  0  1  0  0  0  0  0  0  0  0  0
   -7.4492    6.3416  -14.4023 C   0  0  0  0  0  0  0  0  0  0  0  0
   -7.0288    7.4329  -14.4395 O   0  0  0  0  0  0  0  0  0  0  0  0
   -8.0213    5.5240  -13.2128 N   0  0  0  0  0  0  0  0  0  0  0  0
   -8.2738    5.9015  -11.8866 C   0  0  0  0  0  0  0  0  0  0  0  0
   -8.2972    4.8644  -10.9361 C   0  0  0  0  0  0  0  0  0  0  0  0
   -8.4174    5.1062   -9.5543 C   0  0  0  0  0  0  0  0  0  0  0  0
   -8.5258    4.0915   -8.6132 N   0  0  0  0  0  0  0  0  0  0  0  0
   -8.7140    2.6866   -9.0524 C   0  0  0  0  0  0  0  0  0  0  0  0
   -9.0018    1.7574   -7.8466 C   0  0  0  0  0  0  0  0  0  0  0  0
   -9.5983    2.4659   -6.6945 N   0  0  0  0  0  0  0  0  0  0  0  0
   -8.6173    3.4620   -6.2148 C   0  0  0  0  0  0  0  0  0  0  0  0
   -7.8286    4.2099   -7.3215 C   0  0  0  0  0  0  0  0  0  0  0  0
   -8.5055    6.4454   -9.1544 C   0  0  0  0  0  0  0  0  0  0  0  0
   -8.5440    7.4877  -10.0765 C   0  0  0  0  0  0  0  0  0  0  0  0
   -8.4802    7.2153  -11.4442 C   0  0  0  0  0  0  0  0  0  0  0  0
   -9.0138    8.5038  -12.5462 S   0  0  0  0  0  0  0  0  0  0  0  0
  -10.1636    9.5054  -11.6584 C   0  0  0  0  0  0  0  0  0  0  0  0
   -9.8124    7.8739  -13.5850 O   0  0  0  0  0  0  0  0  0  0  0  0
   -7.8790    9.3653  -12.8167 O   0  0  0  0  0  0  0  0  0  0  0  0
   -6.2414    5.5241  -16.5088 C   0  0  1  0  0  0  0  0  0  0  0  0
   -4.9852    4.9437  -15.8230 C   0  0  2  0  0  0  0  0  0  0  0  0
   -4.7991    5.4094  -14.4934 O   0  0  0  0  0  0  0  0  0  0  0  0
   -4.0706    6.6352  -14.3583 C   0  0  0  0  0  0  0  0  0  0  0  0
   -4.1669    7.1004  -12.9075 C   0  0  0  0  0  0  0  0  0  0  0  0
   -3.1505    8.1804  -12.5705 C   0  0  0  0  0  0  0  0  0  0  0  0
   -3.2298    9.2625  -13.4857 O   0  0  0  0  0  0  0  0  0  0  0  0
   -3.7764    5.0122  -16.8076 C   0  0  0  0  0  0  0  0  0  0  0  0
   -2.6084    5.0714  -16.4047 O   0  0  0  0  0  0  0  0  0  0  0  0
  2  1  1  6
  2  3  1  0
  3  4  1  0
  4  5  1  6
  5  6  1  0
  6  7  1  1
  6  8  1  0
  8  9  1  0
  9 10  1  1
 10 11  2  0
 10 12  1  0
 12 13  1  0
 13 14  2  0
 14 15  1  0
 15 16  1  0
 16 17  1  0
 17 18  1  0
 18 19  1  0
 19 20  1  0
 20 21  1  0
 15 22  2  0
 22 23  1  0
 23 24  2  0
 24 25  1  0
 25 26  1  0
 25 27  2  0
 25 28  2  0
 29  9  1  1
 29 30  1  0
 30 31  1  1
 31 32  1  0
 32 33  1  0
 33 34  1  0
 34 35  1  0
 30 36  1  0
 36 37  2  0
 36  2  1  0
 29  4  1  0
 24 13  1  0
 21 16  1  0
M  END
>  <smiles>  (291) 
C85561-P74

>  <fragmenstein_outcome>  (291) 
acceptable

>  <inchikey>  (291) 
FUXRBYPGDZUEKV-UHFFFAOYSA-N

>  <fragmenstein_mode>  (291) 
expansion

>  <HIPPO Pose ID>  (291) 
9276

>  <Energy>  (291) 
222.499868

>  <fragmenstein_error>  (291) 


>  <tags>  (291) 
{'openbind_xx01zvns2b_c1_fragmenstein', 'fragmenstein_placed'}

>  <ref_pdb>  (291) 
1

>  <scratch_subdir>  (291) 
/opt/xchem-fragalysis-2/maxwin/BulkDock/SCRATCH/511027/C85561-P74

>  <alias>  (291) 
C[C@@H]1N[C@@H]2C[C@H](F)C[C@@H](C(=O)Nc3cc(N4CCNCC4)ccc3S(C)(=O)=O)[C@H]2[C@H](OCCCO)C1=O

>  <HIPPO Compound ID>  (291) 
85561

>  <fragmenstein_runtime>  (291) 
12.630264

$$$$
Cc1cc(N2CCNC[C@@H]2N)cc(NC(=O)c2cccc3ncccc23)c1S(C)(=O)=O
     RDKit          3D

 31 34  0  0  0  0  0  0  0  0999 V2000
   -8.7500    8.8953   -9.5821 C   0  0  0  0  0  0  0  0  0  0  0  0
   -8.5762    7.4741  -10.0496 C   0  0  0  0  0  0  0  0  0  0  0  0
   -8.5368    6.4898   -9.0529 C   0  0  0  0  0  0  0  0  0  0  0  0
   -8.4521    5.1141   -9.3200 C   0  0  0  0  0  0  0  0  0  0  0  0
   -8.4888    4.1837   -8.2834 N   0  0  0  0  0  0  0  0  0  0  0  0
   -8.5248    4.6469   -6.8914 C   0  0  0  0  0  0  0  0  0  0  0  0
   -8.3756    3.5246   -5.8639 C   0  0  0  0  0  0  0  0  0  0  0  0
   -9.3782    2.4740   -5.9799 N   0  0  0  0  0  0  0  0  0  0  0  0
   -9.6726    2.1529   -7.3858 C   0  0  0  0  0  0  0  0  0  0  0  0
   -8.7953    2.7686   -8.5439 C   0  0  2  0  0  0  0  0  0  0  0  0
   -7.6612    1.9059   -8.8170 N   0  0  0  0  0  0  0  0  0  0  0  0
   -8.3125    4.7543  -10.6722 C   0  0  0  0  0  0  0  0  0  0  0  0
   -8.3017    5.7053  -11.7092 C   0  0  0  0  0  0  0  0  0  0  0  0
   -8.0259    5.2170  -12.9976 N   0  0  0  0  0  0  0  0  0  0  0  0
   -7.2450    5.8594  -14.1710 C   0  0  0  0  0  0  0  0  0  0  0  0
   -6.6441    6.8611  -14.2229 O   0  0  0  0  0  0  0  0  0  0  0  0
   -7.3775    5.1089  -15.4553 C   0  0  0  0  0  0  0  0  0  0  0  0
   -8.6705    4.8126  -15.9007 C   0  0  0  0  0  0  0  0  0  0  0  0
   -8.8771    4.4363  -17.2219 C   0  0  0  0  0  0  0  0  0  0  0  0
   -7.7941    4.3790  -18.0985 C   0  0  0  0  0  0  0  0  0  0  0  0
   -6.4955    4.6387  -17.6808 C   0  0  0  0  0  0  0  0  0  0  0  0
   -5.5052    4.5707  -18.5875 N   0  0  0  0  0  0  0  0  0  0  0  0
   -4.2414    4.8090  -18.1895 C   0  0  0  0  0  0  0  0  0  0  0  0
   -3.8972    5.1259  -16.8949 C   0  0  0  0  0  0  0  0  0  0  0  0
   -4.9214    5.2212  -15.9618 C   0  0  0  0  0  0  0  0  0  0  0  0
   -6.2660    4.9890  -16.3336 C   0  0  0  0  0  0  0  0  0  0  0  0
   -8.5212    7.0640  -11.3934 C   0  0  0  0  0  0  0  0  0  0  0  0
   -9.0488    8.2257  -12.6512 S   0  0  0  0  0  0  0  0  0  0  0  0
   -7.5748    9.1521  -13.0288 C   0  0  0  0  0  0  0  0  0  0  0  0
   -9.9899    9.1619  -12.0572 O   0  0  0  0  0  0  0  0  0  0  0  0
   -9.5129    7.4708  -13.7995 O   0  0  0  0  0  0  0  0  0  0  0  0
  1  2  1  0
  2  3  2  0
  3  4  1  0
  4  5  1  0
  5  6  1  0
  6  7  1  0
  7  8  1  0
  8  9  1  0
  9 10  1  0
 10 11  1  1
  4 12  2  0
 12 13  1  0
 13 14  1  0
 14 15  1  0
 15 16  2  0
 15 17  1  0
 17 18  2  0
 18 19  1  0
 19 20  2  0
 20 21  1  0
 21 22  2  0
 22 23  1  0
 23 24  2  0
 24 25  1  0
 25 26  2  0
 13 27  2  0
 27 28  1  0
 28 29  1  0
 28 30  2  0
 28 31  2  0
 27  2  1  0
 10  5  1  0
 26 17  1  0
 26 21  1  0
M  END
>  <smiles>  (292) 
C85563-P74

>  <fragmenstein_outcome>  (292) 
acceptable

>  <inchikey>  (292) 
OAKKCSWFXSTSNI-UHFFFAOYSA-N

>  <fragmenstein_mode>  (292) 
expansion

>  <HIPPO Pose ID>  (292) 
9278

>  <Energy>  (292) 
163.389742

>  <fragmenstein_error>  (292) 


>  <tags>  (292) 
{'openbind_xx01zvns2b_c1_fragmenstein', 'fragmenstein_placed'}

>  <ref_pdb>  (292) 
1

>  <scratch_subdir>  (292) 
/opt/xchem-fragalysis-2/maxwin/BulkDock/SCRATCH/511027/C85563-P74

>  <alias>  (292) 
Cc1cc(N2CCNC[C@@H]2N)cc(NC(=O)c2cccc3ncccc23)c1S(C)(=O)=O

>  <HIPPO Compound ID>  (292) 
85563

>  <fragmenstein_runtime>  (292) 
5.805745

$$$$
CS(=O)(=O)c1ccc(N2CCN[C@@H](C(=O)O)C2)cc1NC(=O)c1cc(Cl)cc2ncccc12
     RDKit          3D

 33 36  0  0  0  0  0  0  0  0999 V2000
   -7.4836    9.1859  -13.0090 C   0  0  0  0  0  0  0  0  0  0  0  0
   -8.9737    8.2765  -12.6704 S   0  0  0  0  0  0  0  0  0  0  0  0
   -9.8884    9.2074  -12.0271 O   0  0  0  0  0  0  0  0  0  0  0  0
   -9.4460    7.5547  -13.8352 O   0  0  0  0  0  0  0  0  0  0  0  0
   -8.4919    7.0698  -11.4589 C   0  0  0  0  0  0  0  0  0  0  0  0
   -8.6732    7.4656  -10.1353 C   0  0  0  0  0  0  0  0  0  0  0  0
   -8.6719    6.5117   -9.1317 C   0  0  0  0  0  0  0  0  0  0  0  0
   -8.5249    5.1432   -9.4091 C   0  0  0  0  0  0  0  0  0  0  0  0
   -8.6658    4.2294   -8.3718 N   0  0  0  0  0  0  0  0  0  0  0  0
   -8.7978    2.7832   -8.6519 C   0  0  0  0  0  0  0  0  0  0  0  0
   -9.4043    2.0725   -7.4188 C   0  0  0  0  0  0  0  0  0  0  0  0
   -8.6987    2.3413   -6.1476 N   0  0  0  0  0  0  0  0  0  0  0  0
   -8.5873    3.8158   -5.9469 C   0  0  1  0  0  0  0  0  0  0  0  0
   -7.6746    4.0885   -4.7598 C   0  0  0  0  0  0  0  0  0  0  0  0
   -7.6167    5.1316   -4.1275 O   0  0  0  0  0  0  0  0  0  0  0  0
   -6.8387    3.0444   -4.5272 O   0  0  0  0  0  0  0  0  0  0  0  0
   -7.9101    4.5103   -7.1397 C   0  0  0  0  0  0  0  0  0  0  0  0
   -8.3240    4.7707  -10.7483 C   0  0  0  0  0  0  0  0  0  0  0  0
   -8.2544    5.7225  -11.7748 C   0  0  0  0  0  0  0  0  0  0  0  0
   -7.9444    5.2479  -13.0534 N   0  0  0  0  0  0  0  0  0  0  0  0
   -7.1328    5.8988  -14.1963 C   0  0  0  0  0  0  0  0  0  0  0  0
   -6.5312    6.8994  -14.2226 O   0  0  0  0  0  0  0  0  0  0  0  0
   -7.2361    5.1548  -15.4785 C   0  0  0  0  0  0  0  0  0  0  0  0
   -8.5218    4.8935  -15.9485 C   0  0  0  0  0  0  0  0  0  0  0  0
   -8.6891    4.5332  -17.2747 C   0  0  0  0  0  0  0  0  0  0  0  0
  -10.2741    4.3386  -17.8788 Cl  0  0  0  0  0  0  0  0  0  0  0  0
   -7.6006    4.4307  -18.1321 C   0  0  0  0  0  0  0  0  0  0  0  0
   -6.3127    4.6565  -17.6788 C   0  0  0  0  0  0  0  0  0  0  0  0
   -5.3031    4.5622  -18.5588 N   0  0  0  0  0  0  0  0  0  0  0  0
   -4.0452    4.7794  -18.1318 C   0  0  0  0  0  0  0  0  0  0  0  0
   -3.7278    5.1003  -16.8311 C   0  0  0  0  0  0  0  0  0  0  0  0
   -4.7716    5.2210  -15.9232 C   0  0  0  0  0  0  0  0  0  0  0  0
   -6.1084    5.0093  -16.3277 C   0  0  0  0  0  0  0  0  0  0  0  0
  1  2  1  0
  2  3  2  0
  2  4  2  0
  2  5  1  0
  5  6  2  0
  6  7  1  0
  7  8  2  0
  8  9  1  0
  9 10  1  0
 10 11  1  0
 11 12  1  0
 12 13  1  0
 13 14  1  1
 14 15  2  0
 14 16  1  0
 13 17  1  0
  8 18  1  0
 18 19  2  0
 19 20  1  0
 20 21  1  0
 21 22  2  0
 21 23  1  0
 23 24  2  0
 24 25  1  0
 25 26  1  0
 25 27  2  0
 27 28  1  0
 28 29  2  0
 29 30  1  0
 30 31  2  0
 31 32  1  0
 32 33  2  0
 19  5  1  0
 33 23  1  0
 17  9  1  0
 33 28  1  0
M  END
>  <smiles>  (293) 
C86502-P74

>  <fragmenstein_outcome>  (293) 
acceptable

>  <inchikey>  (293) 
QOLOEYOOBSNUAG-UHFFFAOYSA-N

>  <fragmenstein_mode>  (293) 
expansion

>  <HIPPO Pose ID>  (293) 
9280

>  <Energy>  (293) 
176.989535

>  <fragmenstein_error>  (293) 


>  <tags>  (293) 
{'openbind_xx01zvns2b_c1_fragmenstein', 'fragmenstein_placed'}

>  <ref_pdb>  (293) 
1

>  <scratch_subdir>  (293) 
/opt/xchem-fragalysis-2/maxwin/BulkDock/SCRATCH/511027/C86502-P74

>  <alias>  (293) 
CS(=O)(=O)c1ccc(N2CCN[C@@H](C(=O)O)C2)cc1NC(=O)c1cc(Cl)cc2ncccc12

>  <HIPPO Compound ID>  (293) 
74785

>  <fragmenstein_runtime>  (293) 
7.233985

$$$$
CC(C)O[C@@H]1N[C@H]2C[C@@H](F)C[C@@H](C(=O)Nc3cc(N4CCNCC4)ccc3S(C)(=O)=O)[C@H]2[C@@H](C)C1=O
     RDKit          3D

 36 39  0  0  0  0  0  0  0  0999 V2000
   -2.6584    8.3052  -20.0244 C   0  0  0  0  0  0  0  0  0  0  0  0
   -2.6504    6.8601  -19.5405 C   0  0  0  0  0  0  0  0  0  0  0  0
   -2.1946    5.9283  -20.6600 C   0  0  0  0  0  0  0  0  0  0  0  0
   -3.9882    6.5379  -19.1542 O   0  0  0  0  0  0  0  0  0  0  0  0
   -4.0730    5.5047  -18.1989 C   0  0  2  0  0  0  0  0  0  0  0  0
   -5.2696    4.7267  -18.4705 N   0  0  0  0  0  0  0  0  0  0  0  0
   -6.5233    5.2875  -17.9510 C   0  0  1  0  0  0  0  0  0  0  0  0
   -7.6160    4.3200  -18.3874 C   0  0  0  0  0  0  0  0  0  0  0  0
   -8.9247    4.4467  -17.6583 C   0  0  1  0  0  0  0  0  0  0  0  0
   -9.7651    3.4615  -18.0812 F   0  0  0  0  0  0  0  0  0  0  0  0
   -8.7032    4.2776  -16.1757 C   0  0  0  0  0  0  0  0  0  0  0  0
   -7.7357    5.2927  -15.5850 C   0  0  1  0  0  0  0  0  0  0  0  0
   -7.5186    4.8929  -14.0946 C   0  0  0  0  0  0  0  0  0  0  0  0
   -6.8751    3.9822  -13.7539 O   0  0  0  0  0  0  0  0  0  0  0  0
   -8.3176    5.9266  -13.2595 N   0  0  0  0  0  0  0  0  0  0  0  0
   -8.4070    6.1006  -11.8768 C   0  0  0  0  0  0  0  0  0  0  0  0
   -8.2133    5.0358  -10.9900 C   0  0  0  0  0  0  0  0  0  0  0  0
   -8.3658    5.2029   -9.6000 C   0  0  0  0  0  0  0  0  0  0  0  0
   -8.3716    4.1438   -8.7095 N   0  0  0  0  0  0  0  0  0  0  0  0
   -8.5644    2.7521   -9.1850 C   0  0  0  0  0  0  0  0  0  0  0  0
   -8.8965    1.8054   -8.0000 C   0  0  0  0  0  0  0  0  0  0  0  0
   -9.5129    2.5031   -6.8467 N   0  0  0  0  0  0  0  0  0  0  0  0
   -8.5382    3.4864   -6.3284 C   0  0  0  0  0  0  0  0  0  0  0  0
   -7.7124    4.2421   -7.4020 C   0  0  0  0  0  0  0  0  0  0  0  0
   -8.6291    6.5025   -9.1334 C   0  0  0  0  0  0  0  0  0  0  0  0
   -8.8203    7.5773   -9.9987 C   0  0  0  0  0  0  0  0  0  0  0  0
   -8.7390    7.3617  -11.3686 C   0  0  0  0  0  0  0  0  0  0  0  0
   -9.0842    8.6693  -12.5024 S   0  0  0  0  0  0  0  0  0  0  0  0
  -10.1067    9.8449  -11.6801 C   0  0  0  0  0  0  0  0  0  0  0  0
   -9.8899    8.0767  -13.5586 O   0  0  0  0  0  0  0  0  0  0  0  0
   -7.8165    9.2939  -12.8299 O   0  0  0  0  0  0  0  0  0  0  0  0
   -6.4624    5.6199  -16.4279 C   0  0  1  0  0  0  0  0  0  0  0  0
   -5.0645    5.4070  -15.7901 C   0  0  1  0  0  0  0  0  0  0  0  0
   -4.6333    3.9831  -15.4888 C   0  0  0  0  0  0  0  0  0  0  0  0
   -4.0443    6.0112  -16.7402 C   0  0  0  0  0  0  0  0  0  0  0  0
   -3.2251    6.8472  -16.3464 O   0  0  0  0  0  0  0  0  0  0  0  0
  1  2  1  0
  2  3  1  0
  2  4  1  0
  5  4  1  6
  5  6  1  0
  6  7  1  0
  7  8  1  1
  8  9  1  0
  9 10  1  6
  9 11  1  0
 11 12  1  0
 12 13  1  1
 13 14  2  0
 13 15  1  0
 15 16  1  0
 16 17  2  0
 17 18  1  0
 18 19  1  0
 19 20  1  0
 20 21  1  0
 21 22  1  0
 22 23  1  0
 23 24  1  0
 18 25  2  0
 25 26  1  0
 26 27  2  0
 27 28  1  0
 28 29  1  0
 28 30  2  0
 28 31  2  0
 32 12  1  1
 32 33  1  0
 33 34  1  6
 33 35  1  0
 35 36  2  0
 35  5  1  0
 32  7  1  0
 27 16  1  0
 24 19  1  0
M  END
>  <smiles>  (294) 
C85568-P74

>  <fragmenstein_outcome>  (294) 
acceptable

>  <inchikey>  (294) 
CNZKQXBKWFJRGI-UHFFFAOYSA-N

>  <fragmenstein_mode>  (294) 
expansion

>  <HIPPO Pose ID>  (294) 
9281

>  <Energy>  (294) 
188.372112

>  <fragmenstein_error>  (294) 


>  <tags>  (294) 
{'openbind_xx01zvns2b_c1_fragmenstein', 'fragmenstein_placed'}

>  <ref_pdb>  (294) 
1

>  <scratch_subdir>  (294) 
/opt/xchem-fragalysis-2/maxwin/BulkDock/SCRATCH/511027/C85568-P74

>  <alias>  (294) 
CC(C)O[C@@H]1N[C@H]2C[C@@H](F)C[C@@H](C(=O)Nc3cc(N4CCNCC4)ccc3S(C)(=O)=O)[C@H]2[C@@H](C)C1=O

>  <HIPPO Compound ID>  (294) 
85568

>  <fragmenstein_runtime>  (294) 
15.516107

$$$$
CS(=O)(=O)c1ccc(N2CCNCC2)cc1N[C@@](OCc1ccccn1)(C(=O)NCC(F)F)c1cc(Br)cc2ncccc12
     RDKit          3D

 44 48  0  0  0  0  0  0  0  0999 V2000
  -10.1990    9.3805  -11.9188 C   0  0  0  0  0  0  0  0  0  0  0  0
   -9.0258    8.2868  -12.6546 S   0  0  0  0  0  0  0  0  0  0  0  0
   -9.7088    7.6096  -13.7426 O   0  0  0  0  0  0  0  0  0  0  0  0
   -7.8210    9.0547  -12.9047 O   0  0  0  0  0  0  0  0  0  0  0  0
   -8.6206    7.0252  -11.4697 C   0  0  0  0  0  0  0  0  0  0  0  0
   -8.6577    7.3723  -10.1213 C   0  0  0  0  0  0  0  0  0  0  0  0
   -8.5754    6.3750   -9.1584 C   0  0  0  0  0  0  0  0  0  0  0  0
   -8.4617    5.0217   -9.5039 C   0  0  0  0  0  0  0  0  0  0  0  0
   -8.6056    4.0594   -8.5130 N   0  0  0  0  0  0  0  0  0  0  0  0
   -8.8613    2.6430   -8.8722 C   0  0  0  0  0  0  0  0  0  0  0  0
   -9.4893    1.9047   -7.6665 C   0  0  0  0  0  0  0  0  0  0  0  0
   -8.7031    2.0254   -6.4346 N   0  0  0  0  0  0  0  0  0  0  0  0
   -8.4426    3.4333   -6.1341 C   0  0  0  0  0  0  0  0  0  0  0  0
   -7.7827    4.1959   -7.2997 C   0  0  0  0  0  0  0  0  0  0  0  0
   -8.3223    4.7160  -10.8686 C   0  0  0  0  0  0  0  0  0  0  0  0
   -8.3897    5.6923  -11.8773 C   0  0  0  0  0  0  0  0  0  0  0  0
   -8.2685    5.3204  -13.2167 N   0  0  0  0  0  0  0  0  0  0  0  0
   -7.0273    4.7560  -13.8255 C   0  0  1  0  0  0  0  0  0  0  0  0
   -5.8850    5.5241  -13.4017 O   0  0  0  0  0  0  0  0  0  0  0  0
   -5.8767    6.9181  -13.6898 C   0  0  0  0  0  0  0  0  0  0  0  0
   -4.4906    7.3811  -14.0908 C   0  0  0  0  0  0  0  0  0  0  0  0
   -3.3801    7.0252  -13.3249 C   0  0  0  0  0  0  0  0  0  0  0  0
   -2.1174    7.4500  -13.7278 C   0  0  0  0  0  0  0  0  0  0  0  0
   -1.9942    8.2214  -14.8762 C   0  0  0  0  0  0  0  0  0  0  0  0
   -3.1458    8.5429  -15.5737 C   0  0  0  0  0  0  0  0  0  0  0  0
   -4.3834    8.1503  -15.2043 N   0  0  0  0  0  0  0  0  0  0  0  0
   -6.7935    3.2119  -13.3231 C   0  0  0  0  0  0  0  0  0  0  0  0
   -7.4050    2.3029  -13.7293 O   0  0  0  0  0  0  0  0  0  0  0  0
   -5.6184    3.2609  -12.3046 N   0  0  0  0  0  0  0  0  0  0  0  0
   -5.0216    2.2108  -11.5084 C   0  0  0  0  0  0  0  0  0  0  0  0
   -3.5757    1.9049  -11.8873 C   0  0  0  0  0  0  0  0  0  0  0  0
   -3.4247    1.7743  -13.2305 F   0  0  0  0  0  0  0  0  0  0  0  0
   -2.7837    2.9545  -11.5231 F   0  0  0  0  0  0  0  0  0  0  0  0
   -7.1879    4.7153  -15.3742 C   0  0  0  0  0  0  0  0  0  0  0  0
   -8.4886    4.5912  -15.9012 C   0  0  0  0  0  0  0  0  0  0  0  0
   -8.7171    4.6381  -17.2661 C   0  0  0  0  0  0  0  0  0  0  0  0
  -10.4820    4.5582  -17.8972 Br  0  0  0  0  0  0  0  0  0  0  0  0
   -7.6690    4.8038  -18.1524 C   0  0  0  0  0  0  0  0  0  0  0  0
   -6.3700    4.8681  -17.6988 C   0  0  0  0  0  0  0  0  0  0  0  0
   -5.4163    5.0089  -18.6321 N   0  0  0  0  0  0  0  0  0  0  0  0
   -4.1316    4.9964  -18.2453 C   0  0  0  0  0  0  0  0  0  0  0  0
   -3.7424    4.8446  -16.9374 C   0  0  0  0  0  0  0  0  0  0  0  0
   -4.7348    4.7133  -15.9713 C   0  0  0  0  0  0  0  0  0  0  0  0
   -6.1029    4.7702  -16.3076 C   0  0  0  0  0  0  0  0  0  0  0  0
  1  2  1  0
  2  3  2  0
  2  4  2  0
  2  5  1  0
  5  6  2  0
  6  7  1  0
  7  8  2  0
  8  9  1  0
  9 10  1  0
 10 11  1  0
 11 12  1  0
 12 13  1  0
 13 14  1  0
  8 15  1  0
 15 16  2  0
 16 17  1  0
 18 17  1  1
 18 19  1  0
 19 20  1  0
 20 21  1  0
 21 22  2  0
 22 23  1  0
 23 24  2  0
 24 25  1  0
 25 26  2  0
 18 27  1  0
 27 28  2  0
 27 29  1  0
 29 30  1  0
 30 31  1  0
 31 32  1  0
 31 33  1  0
 18 34  1  0
 34 35  2  0
 35 36  1  0
 36 37  1  0
 36 38  2  0
 38 39  1  0
 39 40  2  0
 40 41  1  0
 41 42  2  0
 42 43  1  0
 43 44  2  0
 16  5  1  0
 26 21  1  0
 44 34  1  0
 14  9  1  0
 44 39  1  0
M  END
>  <smiles>  (295) 
C85572-P74

>  <fragmenstein_outcome>  (295) 
acceptable

>  <inchikey>  (295) 
JZDFKXFZUZLBKC-UHFFFAOYSA-N

>  <fragmenstein_mode>  (295) 
expansion

>  <HIPPO Pose ID>  (295) 
9283

>  <Energy>  (295) 
295.932934

>  <fragmenstein_error>  (295) 


>  <tags>  (295) 
{'openbind_xx01zvns2b_c1_fragmenstein', 'fragmenstein_placed'}

>  <ref_pdb>  (295) 
1

>  <scratch_subdir>  (295) 
/opt/xchem-fragalysis-2/maxwin/BulkDock/SCRATCH/511027/C85572-P74

>  <alias>  (295) 
CS(=O)(=O)c1ccc(N2CCNCC2)cc1N[C@@](OCc1ccccn1)(C(=O)NCC(F)F)c1cc(Br)cc2ncccc12

>  <HIPPO Compound ID>  (295) 
89022

>  <fragmenstein_runtime>  (295) 
30.581288

$$$$
CS(=O)(=O)c1ccc(N2CCNCC2)cc1N[C@](OCC(=O)O)(C(=O)NCC(F)F)c1cc(Cl)cc2ncccc12
     RDKit          3D

 41 44  0  0  0  0  0  0  0  0999 V2000
   -7.6726    9.2620  -12.5224 C   0  0  0  0  0  0  0  0  0  0  0  0
   -8.9909    8.0875  -12.6660 S   0  0  0  0  0  0  0  0  0  0  0  0
  -10.1870    8.7550  -12.1860 O   0  0  0  0  0  0  0  0  0  0  0  0
   -8.9621    7.5269  -13.9992 O   0  0  0  0  0  0  0  0  0  0  0  0
   -8.5475    6.8356  -11.5052 C   0  0  0  0  0  0  0  0  0  0  0  0
   -8.6009    7.2469  -10.1694 C   0  0  0  0  0  0  0  0  0  0  0  0
   -8.4245    6.3282   -9.1471 C   0  0  0  0  0  0  0  0  0  0  0  0
   -8.2560    4.9646   -9.4131 C   0  0  0  0  0  0  0  0  0  0  0  0
   -8.2058    4.0032   -8.3711 N   0  0  0  0  0  0  0  0  0  0  0  0
   -8.9676    2.7582   -8.6854 C   0  0  0  0  0  0  0  0  0  0  0  0
   -9.0175    1.7603   -7.5122 C   0  0  0  0  0  0  0  0  0  0  0  0
   -9.4118    2.3443   -6.2155 N   0  0  0  0  0  0  0  0  0  0  0  0
   -8.4828    3.4378   -5.9194 C   0  0  0  0  0  0  0  0  0  0  0  0
   -8.4638    4.5193   -7.0071 C   0  0  0  0  0  0  0  0  0  0  0  0
   -8.1377    4.5957  -10.7760 C   0  0  0  0  0  0  0  0  0  0  0  0
   -8.2772    5.5039  -11.8508 C   0  0  0  0  0  0  0  0  0  0  0  0
   -8.1813    5.0234  -13.1671 N   0  0  0  0  0  0  0  0  0  0  0  0
   -6.8939    4.9720  -13.9233 C   0  0  2  0  0  0  0  0  0  0  0  0
   -6.3117    3.7186  -13.6152 O   0  0  0  0  0  0  0  0  0  0  0  0
   -5.3055    3.6830  -12.6149 C   0  0  0  0  0  0  0  0  0  0  0  0
   -4.9176    2.2626  -12.2308 C   0  0  0  0  0  0  0  0  0  0  0  0
   -3.9245    1.9547  -11.5847 O   0  0  0  0  0  0  0  0  0  0  0  0
   -5.7768    1.3377  -12.6933 O   0  0  0  0  0  0  0  0  0  0  0  0
   -5.9726    6.3585  -13.6833 C   0  0  0  0  0  0  0  0  0  0  0  0
   -5.2119    6.4126  -12.7921 O   0  0  0  0  0  0  0  0  0  0  0  0
   -6.2492    7.3728  -14.8412 N   0  0  0  0  0  0  0  0  0  0  0  0
   -5.5788    8.6114  -15.1880 C   0  0  0  0  0  0  0  0  0  0  0  0
   -4.1960    8.8432  -14.5792 C   0  0  0  0  0  0  0  0  0  0  0  0
   -4.2881    9.0644  -13.2465 F   0  0  0  0  0  0  0  0  0  0  0  0
   -3.3882    7.7740  -14.7740 F   0  0  0  0  0  0  0  0  0  0  0  0
   -7.2052    4.7890  -15.4576 C   0  0  0  0  0  0  0  0  0  0  0  0
   -8.5363    4.6413  -15.9034 C   0  0  0  0  0  0  0  0  0  0  0  0
   -8.8359    4.5590  -17.2590 C   0  0  0  0  0  0  0  0  0  0  0  0
  -10.4657    4.4324  -17.7762 Cl  0  0  0  0  0  0  0  0  0  0  0  0
   -7.8356    4.6460  -18.2099 C   0  0  0  0  0  0  0  0  0  0  0  0
   -6.5190    4.7864  -17.8374 C   0  0  0  0  0  0  0  0  0  0  0  0
   -5.6330    4.9117  -18.8358 N   0  0  0  0  0  0  0  0  0  0  0  0
   -4.3326    5.0329  -18.5401 C   0  0  0  0  0  0  0  0  0  0  0  0
   -3.8603    5.0371  -17.2488 C   0  0  0  0  0  0  0  0  0  0  0  0
   -4.7823    4.9189  -16.2109 C   0  0  0  0  0  0  0  0  0  0  0  0
   -6.1697    4.8175  -16.4623 C   0  0  0  0  0  0  0  0  0  0  0  0
  1  2  1  0
  2  3  2  0
  2  4  2  0
  2  5  1  0
  5  6  2  0
  6  7  1  0
  7  8  2  0
  8  9  1  0
  9 10  1  0
 10 11  1  0
 11 12  1  0
 12 13  1  0
 13 14  1  0
  8 15  1  0
 15 16  2  0
 16 17  1  0
 18 17  1  1
 18 19  1  0
 19 20  1  0
 20 21  1  0
 21 22  2  0
 21 23  1  0
 18 24  1  0
 24 25  2  0
 24 26  1  0
 26 27  1  0
 27 28  1  0
 28 29  1  0
 28 30  1  0
 18 31  1  0
 31 32  2  0
 32 33  1  0
 33 34  1  0
 33 35  2  0
 35 36  1  0
 36 37  2  0
 37 38  1  0
 38 39  2  0
 39 40  1  0
 40 41  2  0
 16  5  1  0
 41 31  1  0
 14  9  1  0
 41 36  1  0
M  END
>  <smiles>  (296) 
C85573-P74

>  <fragmenstein_outcome>  (296) 
acceptable

>  <inchikey>  (296) 
CCIKLJSODKKHGY-UHFFFAOYSA-N

>  <fragmenstein_mode>  (296) 
expansion

>  <HIPPO Pose ID>  (296) 
9284

>  <Energy>  (296) 
278.10961

>  <fragmenstein_error>  (296) 


>  <tags>  (296) 
{'openbind_xx01zvns2b_c1_fragmenstein', 'fragmenstein_placed'}

>  <ref_pdb>  (296) 
1

>  <scratch_subdir>  (296) 
/opt/xchem-fragalysis-2/maxwin/BulkDock/SCRATCH/511027/C85573-P74

>  <alias>  (296) 
CS(=O)(=O)c1ccc(N2CCNCC2)cc1N[C@](OCC(=O)O)(C(=O)NCC(F)F)c1cc(Cl)cc2ncccc12

>  <HIPPO Compound ID>  (296) 
97141

>  <fragmenstein_runtime>  (296) 
15.633348

$$$$
CS(=O)(=O)c1ccc2c(cc3n2CCNC3)c1NC(=O)c1cccc2ncccc12
     RDKit          3D

 30 34  0  0  0  0  0  0  0  0999 V2000
   -9.9486    9.3300  -11.8483 C   0  0  0  0  0  0  0  0  0  0  0  0
   -8.8214    8.2177  -12.6375 S   0  0  0  0  0  0  0  0  0  0  0  0
   -9.6400    7.5120  -13.6108 O   0  0  0  0  0  0  0  0  0  0  0  0
   -7.6742    9.0236  -13.0069 O   0  0  0  0  0  0  0  0  0  0  0  0
   -8.3223    7.0446  -11.3839 C   0  0  0  0  0  0  0  0  0  0  0  0
   -8.2726    7.5285  -10.0743 C   0  0  0  0  0  0  0  0  0  0  0  0
   -8.2549    6.6553   -8.9972 C   0  0  0  0  0  0  0  0  0  0  0  0
   -8.3606    5.2881   -9.2678 C   0  0  0  0  0  0  0  0  0  0  0  0
   -8.3867    4.7618  -10.5678 C   0  0  0  0  0  0  0  0  0  0  0  0
   -8.5239    3.3429  -10.4169 C   0  0  0  0  0  0  0  0  0  0  0  0
   -8.6616    3.0627   -9.0690 C   0  0  0  0  0  0  0  0  0  0  0  0
   -8.4533    4.2320   -8.3932 N   0  0  0  0  0  0  0  0  0  0  0  0
   -8.5018    4.3382   -6.9451 C   0  0  0  0  0  0  0  0  0  0  0  0
   -8.8201    3.0100   -6.2528 C   0  0  0  0  0  0  0  0  0  0  0  0
   -9.6558    2.1175   -7.0591 N   0  0  0  0  0  0  0  0  0  0  0  0
   -8.9653    1.8080   -8.3232 C   0  0  0  0  0  0  0  0  0  0  0  0
   -8.2623    5.6565  -11.6651 C   0  0  0  0  0  0  0  0  0  0  0  0
   -8.0266    5.1644  -12.9565 N   0  0  0  0  0  0  0  0  0  0  0  0
   -7.2389    5.7815  -14.1403 C   0  0  0  0  0  0  0  0  0  0  0  0
   -6.6006    6.7586  -14.1975 O   0  0  0  0  0  0  0  0  0  0  0  0
   -7.4104    5.0554  -15.4329 C   0  0  0  0  0  0  0  0  0  0  0  0
   -8.7136    4.7815  -15.8584 C   0  0  0  0  0  0  0  0  0  0  0  0
   -8.9486    4.4273  -17.1813 C   0  0  0  0  0  0  0  0  0  0  0  0
   -7.8831    4.3710  -18.0795 C   0  0  0  0  0  0  0  0  0  0  0  0
   -6.5745    4.6146  -17.6845 C   0  0  0  0  0  0  0  0  0  0  0  0
   -5.6047    4.5533  -18.6134 N   0  0  0  0  0  0  0  0  0  0  0  0
   -4.3320    4.7891  -18.2422 C   0  0  0  0  0  0  0  0  0  0  0  0
   -3.9576    5.0835  -16.9511 C   0  0  0  0  0  0  0  0  0  0  0  0
   -4.9605    5.1613  -15.9934 C   0  0  0  0  0  0  0  0  0  0  0  0
   -6.3156    4.9411  -16.3370 C   0  0  0  0  0  0  0  0  0  0  0  0
  1  2  1  0
  2  3  2  0
  2  4  2  0
  2  5  1  0
  5  6  2  0
  6  7  1  0
  7  8  2  0
  8  9  1  0
  9 10  1  0
 10 11  2  0
 11 12  1  0
 12 13  1  0
 13 14  1  0
 14 15  1  0
 15 16  1  0
  9 17  2  0
 17 18  1  0
 18 19  1  0
 19 20  2  0
 19 21  1  0
 21 22  2  0
 22 23  1  0
 23 24  2  0
 24 25  1  0
 25 26  2  0
 26 27  1  0
 27 28  2  0
 28 29  1  0
 29 30  2  0
 17  5  1  0
 30 21  1  0
 12  8  1  0
 30 25  1  0
 16 11  1  0
M  END
>  <smiles>  (297) 
C86506-P74

>  <fragmenstein_outcome>  (297) 
acceptable

>  <inchikey>  (297) 
FFJVNZQJTYFRFU-UHFFFAOYSA-N

>  <fragmenstein_mode>  (297) 
expansion

>  <HIPPO Pose ID>  (297) 
9285

>  <Energy>  (297) 
118.335701

>  <fragmenstein_error>  (297) 


>  <tags>  (297) 
{'openbind_xx01zvns2b_c1_fragmenstein', 'fragmenstein_placed'}

>  <ref_pdb>  (297) 
1

>  <scratch_subdir>  (297) 
/opt/xchem-fragalysis-2/maxwin/BulkDock/SCRATCH/511027/C86506-P74

>  <alias>  (297) 
CS(=O)(=O)c1ccc2c(cc3n2CCNC3)c1NC(=O)c1cccc2ncccc12

>  <HIPPO Compound ID>  (297) 
89651

>  <fragmenstein_runtime>  (297) 
6.614499

$$$$
CC[C@H]1CN(c2ccc(S(C)(=O)=O)c(NC(=O)c3cc(F)cc4ncccc34)c2)CCN1
     RDKit          3D

 32 35  0  0  0  0  0  0  0  0999 V2000
  -10.8094    1.7036   -5.7462 C   0  0  0  0  0  0  0  0  0  0  0  0
  -10.1381    1.9545   -7.0861 C   0  0  0  0  0  0  0  0  0  0  0  0
   -8.6184    2.1539   -7.0758 C   0  0  1  0  0  0  0  0  0  0  0  0
   -8.1936    2.8798   -8.4055 C   0  0  0  0  0  0  0  0  0  0  0  0
   -8.3083    4.3493   -8.2505 N   0  0  0  0  0  0  0  0  0  0  0  0
   -8.3732    5.2025   -9.3441 C   0  0  0  0  0  0  0  0  0  0  0  0
   -8.6551    6.5587   -9.1228 C   0  0  0  0  0  0  0  0  0  0  0  0
   -8.7707    7.4677  -10.1593 C   0  0  0  0  0  0  0  0  0  0  0  0
   -8.5956    7.0431  -11.4754 C   0  0  0  0  0  0  0  0  0  0  0  0
   -9.0904    8.2312  -12.6975 S   0  0  0  0  0  0  0  0  0  0  0  0
   -7.5977    9.1477  -13.0238 C   0  0  0  0  0  0  0  0  0  0  0  0
  -10.0088    9.1659  -12.0642 O   0  0  0  0  0  0  0  0  0  0  0  0
   -9.5594    7.4993  -13.8563 O   0  0  0  0  0  0  0  0  0  0  0  0
   -8.2954    5.6993  -11.7594 C   0  0  0  0  0  0  0  0  0  0  0  0
   -8.0160    5.1950  -13.0417 N   0  0  0  0  0  0  0  0  0  0  0  0
   -7.2954    5.8511  -14.2458 C   0  0  0  0  0  0  0  0  0  0  0  0
   -6.7541    6.8838  -14.3338 O   0  0  0  0  0  0  0  0  0  0  0  0
   -7.3996    5.0768  -15.5150 C   0  0  0  0  0  0  0  0  0  0  0  0
   -8.6700    4.7204  -15.9675 C   0  0  0  0  0  0  0  0  0  0  0  0
   -8.8229    4.3272  -17.2876 C   0  0  0  0  0  0  0  0  0  0  0  0
  -10.0371    3.9962  -17.7443 F   0  0  0  0  0  0  0  0  0  0  0  0
   -7.7465    4.3123  -18.1627 C   0  0  0  0  0  0  0  0  0  0  0  0
   -6.4699    4.6214  -17.7286 C   0  0  0  0  0  0  0  0  0  0  0  0
   -5.4648    4.5737  -18.6187 N   0  0  0  0  0  0  0  0  0  0  0  0
   -4.2139    4.8491  -18.2054 C   0  0  0  0  0  0  0  0  0  0  0  0
   -3.8990    5.1886  -16.9092 C   0  0  0  0  0  0  0  0  0  0  0  0
   -4.9398    5.2648  -15.9925 C   0  0  0  0  0  0  0  0  0  0  0  0
   -6.2718    4.9885  -16.3802 C   0  0  0  0  0  0  0  0  0  0  0  0
   -8.2356    4.7887  -10.6847 C   0  0  0  0  0  0  0  0  0  0  0  0
   -7.6007    4.8263   -7.0461 C   0  0  0  0  0  0  0  0  0  0  0  0
   -8.2527    4.2025   -5.8040 C   0  0  0  0  0  0  0  0  0  0  0  0
   -8.1176    2.7597   -5.8209 N   0  0  0  0  0  0  0  0  0  0  0  0
  1  2  1  0
  3  2  1  1
  3  4  1  0
  4  5  1  0
  5  6  1  0
  6  7  2  0
  7  8  1  0
  8  9  2  0
  9 10  1  0
 10 11  1  0
 10 12  2  0
 10 13  2  0
  9 14  1  0
 14 15  1  0
 15 16  1  0
 16 17  2  0
 16 18  1  0
 18 19  2  0
 19 20  1  0
 20 21  1  0
 20 22  2  0
 22 23  1  0
 23 24  2  0
 24 25  1  0
 25 26  2  0
 26 27  1  0
 27 28  2  0
 14 29  2  0
  5 30  1  0
 30 31  1  0
 31 32  1  0
 32  3  1  0
 29  6  1  0
 28 18  1  0
 28 23  1  0
M  END
>  <smiles>  (298) 
C86508-P74

>  <fragmenstein_outcome>  (298) 
acceptable

>  <inchikey>  (298) 
NSHODBAOJUGSGF-UHFFFAOYSA-N

>  <fragmenstein_mode>  (298) 
expansion

>  <HIPPO Pose ID>  (298) 
9287

>  <Energy>  (298) 
165.41219

>  <fragmenstein_error>  (298) 


>  <tags>  (298) 
{'openbind_xx01zvns2b_c1_fragmenstein', 'fragmenstein_placed'}

>  <ref_pdb>  (298) 
1

>  <scratch_subdir>  (298) 
/opt/xchem-fragalysis-2/maxwin/BulkDock/SCRATCH/511027/C86508-P74

>  <alias>  (298) 
CC[C@H]1CN(c2ccc(S(C)(=O)=O)c(NC(=O)c3cc(F)cc4ncccc34)c2)CCN1

>  <HIPPO Compound ID>  (298) 
92625

>  <fragmenstein_runtime>  (298) 
6.867489

$$$$
C[C@H]1CNCCN1c1ccc(S(C)(=O)=O)c(NC(=O)c2cccc3c2CCC2(CCNCC2)N3)c1
     RDKit          3D

 35 39  0  0  0  0  0  0  0  0999 V2000
   -7.2697    2.1420   -9.5615 C   0  0  0  0  0  0  0  0  0  0  0  0
   -8.5896    2.6160   -8.9498 C   0  0  1  0  0  0  0  0  0  0  0  0
   -8.9720    1.7502   -7.7065 C   0  0  0  0  0  0  0  0  0  0  0  0
   -9.7690    2.4876   -6.7036 N   0  0  0  0  0  0  0  0  0  0  0  0
   -8.9293    3.5801   -6.1728 C   0  0  0  0  0  0  0  0  0  0  0  0
   -8.0058    4.2754   -7.2043 C   0  0  0  0  0  0  0  0  0  0  0  0
   -8.5069    4.0585   -8.5740 N   0  0  0  0  0  0  0  0  0  0  0  0
   -8.4989    5.0572   -9.5336 C   0  0  0  0  0  0  0  0  0  0  0  0
   -8.5537    6.4091   -9.1788 C   0  0  0  0  0  0  0  0  0  0  0  0
   -8.6272    7.4156  -10.1367 C   0  0  0  0  0  0  0  0  0  0  0  0
   -8.5932    7.0966  -11.4968 C   0  0  0  0  0  0  0  0  0  0  0  0
   -9.0839    8.3970  -12.5966 S   0  0  0  0  0  0  0  0  0  0  0  0
   -7.5602    9.2275  -12.9938 C   0  0  0  0  0  0  0  0  0  0  0  0
   -9.8772    9.3463  -11.8312 O   0  0  0  0  0  0  0  0  0  0  0  0
   -9.7002    7.7789  -13.7533 O   0  0  0  0  0  0  0  0  0  0  0  0
   -8.4672    5.7670  -11.9059 C   0  0  0  0  0  0  0  0  0  0  0  0
   -8.2764    5.3169  -13.2226 N   0  0  0  0  0  0  0  0  0  0  0  0
   -7.5143    5.9594  -14.4014 C   0  0  0  0  0  0  0  0  0  0  0  0
   -6.9900    6.9996  -14.4870 O   0  0  0  0  0  0  0  0  0  0  0  0
   -7.5319    5.1313  -15.6352 C   0  0  0  0  0  0  0  0  0  0  0  0
   -8.7654    4.8009  -16.1986 C   0  0  0  0  0  0  0  0  0  0  0  0
   -8.8273    4.3895  -17.5286 C   0  0  0  0  0  0  0  0  0  0  0  0
   -7.6671    4.3662  -18.3074 C   0  0  0  0  0  0  0  0  0  0  0  0
   -6.4289    4.7079  -17.7567 C   0  0  0  0  0  0  0  0  0  0  0  0
   -6.3535    4.9958  -16.3879 C   0  0  0  0  0  0  0  0  0  0  0  0
   -4.9739    5.1713  -15.8225 C   0  0  0  0  0  0  0  0  0  0  0  0
   -4.2536    6.1575  -16.7157 C   0  0  0  0  0  0  0  0  0  0  0  0
   -4.2072    5.7148  -18.2076 C   0  0  0  0  0  0  0  0  0  0  0  0
   -2.8280    5.0793  -18.4912 C   0  0  0  0  0  0  0  0  0  0  0  0
   -2.4892    5.0013  -19.9755 C   0  0  0  0  0  0  0  0  0  0  0  0
   -2.6158    6.2996  -20.6354 N   0  0  0  0  0  0  0  0  0  0  0  0
   -3.9912    6.7857  -20.5343 C   0  0  0  0  0  0  0  0  0  0  0  0
   -4.3898    6.9828  -19.0779 C   0  0  0  0  0  0  0  0  0  0  0  0
   -5.2637    4.7202  -18.5392 N   0  0  0  0  0  0  0  0  0  0  0  0
   -8.4967    4.7767  -10.9162 C   0  0  0  0  0  0  0  0  0  0  0  0
  2  1  1  1
  2  3  1  0
  3  4  1  0
  4  5  1  0
  5  6  1  0
  6  7  1  0
  7  8  1  0
  8  9  2  0
  9 10  1  0
 10 11  2  0
 11 12  1  0
 12 13  1  0
 12 14  2  0
 12 15  2  0
 11 16  1  0
 16 17  1  0
 17 18  1  0
 18 19  2  0
 18 20  1  0
 20 21  2  0
 21 22  1  0
 22 23  2  0
 23 24  1  0
 24 25  2  0
 25 26  1  0
 26 27  1  0
 27 28  1  0
 28 29  1  0
 29 30  1  0
 30 31  1  0
 31 32  1  0
 32 33  1  0
 28 34  1  0
 16 35  2  0
  7  2  1  0
 35  8  1  0
 25 20  1  0
 33 28  1  0
 34 24  1  0
M  END
>  <smiles>  (299) 
C86509-P74

>  <fragmenstein_outcome>  (299) 
acceptable

>  <inchikey>  (299) 
IBYKYWABJVFMRL-UHFFFAOYSA-N

>  <fragmenstein_mode>  (299) 
expansion

>  <HIPPO Pose ID>  (299) 
9288

>  <Energy>  (299) 
178.595859

>  <fragmenstein_error>  (299) 


>  <tags>  (299) 
{'openbind_xx01zvns2b_c1_fragmenstein', 'fragmenstein_placed'}

>  <ref_pdb>  (299) 
1

>  <scratch_subdir>  (299) 
/opt/xchem-fragalysis-2/maxwin/BulkDock/SCRATCH/511027/C86509-P74

>  <alias>  (299) 
C[C@H]1CNCCN1c1ccc(S(C)(=O)=O)c(NC(=O)c2cccc3c2CCC2(CCNCC2)N3)c1

>  <HIPPO Compound ID>  (299) 
105261

>  <fragmenstein_runtime>  (299) 
9.182298

$$$$
CS(=O)(=O)c1ccc(N2CCNCC2)cc1NC(=O)c1cc(Cl)cc2c(OCN)cccc12
     RDKit          3D

 33 36  0  0  0  0  0  0  0  0999 V2000
   -7.4508    9.0840  -12.9052 C   0  0  0  0  0  0  0  0  0  0  0  0
   -8.9526    8.2001  -12.5566 S   0  0  0  0  0  0  0  0  0  0  0  0
   -9.8360    9.1398  -11.8833 O   0  0  0  0  0  0  0  0  0  0  0  0
   -9.4538    7.5211  -13.7363 O   0  0  0  0  0  0  0  0  0  0  0  0
   -8.4859    6.9583  -11.3672 C   0  0  0  0  0  0  0  0  0  0  0  0
   -8.6227    7.3247  -10.0276 C   0  0  0  0  0  0  0  0  0  0  0  0
   -8.5911    6.3494   -9.0361 C   0  0  0  0  0  0  0  0  0  0  0  0
   -8.4787    4.9855   -9.3426 C   0  0  0  0  0  0  0  0  0  0  0  0
   -8.5830    4.0334   -8.3417 N   0  0  0  0  0  0  0  0  0  0  0  0
   -8.7800    2.6042   -8.6841 C   0  0  0  0  0  0  0  0  0  0  0  0
   -9.1182    1.7729   -7.4232 C   0  0  0  0  0  0  0  0  0  0  0  0
   -9.7483    2.5772   -6.3561 N   0  0  0  0  0  0  0  0  0  0  0  0
   -8.7676    3.5895   -5.9119 C   0  0  0  0  0  0  0  0  0  0  0  0
   -7.9374    4.2523   -7.0397 C   0  0  0  0  0  0  0  0  0  0  0  0
   -8.3410    4.6444  -10.6991 C   0  0  0  0  0  0  0  0  0  0  0  0
   -8.2854    5.6135  -11.7084 C   0  0  0  0  0  0  0  0  0  0  0  0
   -7.9925    5.1548  -12.9929 N   0  0  0  0  0  0  0  0  0  0  0  0
   -7.1671    5.8014  -14.1235 C   0  0  0  0  0  0  0  0  0  0  0  0
   -6.5377    6.7840  -14.1335 O   0  0  0  0  0  0  0  0  0  0  0  0
   -7.2965    5.0806  -15.4180 C   0  0  0  0  0  0  0  0  0  0  0  0
   -8.5962    4.8584  -15.8811 C   0  0  0  0  0  0  0  0  0  0  0  0
   -8.7990    4.5635  -17.2177 C   0  0  0  0  0  0  0  0  0  0  0  0
  -10.3976    4.3989  -17.8033 Cl  0  0  0  0  0  0  0  0  0  0  0  0
   -7.7298    4.5260  -18.1023 C   0  0  0  0  0  0  0  0  0  0  0  0
   -6.4116    4.7380  -17.6522 C   0  0  0  0  0  0  0  0  0  0  0  0
   -5.3206    4.8012  -18.5422 C   0  0  0  0  0  0  0  0  0  0  0  0
   -5.5724    4.7887  -19.8920 O   0  0  0  0  0  0  0  0  0  0  0  0
   -5.2428    6.0353  -20.5175 C   0  0  0  0  0  0  0  0  0  0  0  0
   -6.0873    7.1452  -20.0804 N   0  0  0  0  0  0  0  0  0  0  0  0
   -4.0050    4.8945  -18.0856 C   0  0  0  0  0  0  0  0  0  0  0  0
   -3.7597    5.0251  -16.7280 C   0  0  0  0  0  0  0  0  0  0  0  0
   -4.8320    5.0846  -15.8393 C   0  0  0  0  0  0  0  0  0  0  0  0
   -6.1740    4.9574  -16.2768 C   0  0  0  0  0  0  0  0  0  0  0  0
  1  2  1  0
  2  3  2  0
  2  4  2  0
  2  5  1  0
  5  6  2  0
  6  7  1  0
  7  8  2  0
  8  9  1  0
  9 10  1  0
 10 11  1  0
 11 12  1  0
 12 13  1  0
 13 14  1  0
  8 15  1  0
 15 16  2  0
 16 17  1  0
 17 18  1  0
 18 19  2  0
 18 20  1  0
 20 21  2  0
 21 22  1  0
 22 23  1  0
 22 24  2  0
 24 25  1  0
 25 26  2  0
 26 27  1  0
 27 28  1  0
 28 29  1  0
 26 30  1  0
 30 31  2  0
 31 32  1  0
 32 33  2  0
 16  5  1  0
 33 20  1  0
 14  9  1  0
 33 25  1  0
M  END
>  <smiles>  (300) 
C86510-P74

>  <fragmenstein_outcome>  (300) 
acceptable

>  <inchikey>  (300) 
CXPWQJPHUWMDJS-UHFFFAOYSA-N

>  <fragmenstein_mode>  (300) 
expansion

>  <HIPPO Pose ID>  (300) 
9289

>  <Energy>  (300) 
169.21305

>  <fragmenstein_error>  (300) 


>  <tags>  (300) 
{'openbind_xx01zvns2b_c1_fragmenstein', 'fragmenstein_placed'}

>  <ref_pdb>  (300) 
1

>  <scratch_subdir>  (300) 
/opt/xchem-fragalysis-2/maxwin/BulkDock/SCRATCH/511027/C86510-P74

>  <alias>  (300) 
CS(=O)(=O)c1ccc(N2CCNCC2)cc1NC(=O)c1cc(Cl)cc2c(OCN)cccc12

>  <HIPPO Compound ID>  (300) 
88247

>  <fragmenstein_runtime>  (300) 
9.807508

$$$$
CNCc1cccc2c(C(=O)Nc3cc(N4CCNCC4)ccc3S(C)(=O)=O)cc(Br)cc12
     RDKit          3D

 33 36  0  0  0  0  0  0  0  0999 V2000
   -5.3368    6.6544  -21.6413 C   0  0  0  0  0  0  0  0  0  0  0  0
   -5.5068    6.3810  -20.2258 N   0  0  0  0  0  0  0  0  0  0  0  0
   -5.2180    4.9864  -19.8957 C   0  0  0  0  0  0  0  0  0  0  0  0
   -5.1163    4.8317  -18.3929 C   0  0  0  0  0  0  0  0  0  0  0  0
   -3.8257    4.9057  -17.8351 C   0  0  0  0  0  0  0  0  0  0  0  0
   -3.6490    4.9706  -16.4650 C   0  0  0  0  0  0  0  0  0  0  0  0
   -4.7642    5.0125  -15.6399 C   0  0  0  0  0  0  0  0  0  0  0  0
   -6.0774    4.9362  -16.1569 C   0  0  0  0  0  0  0  0  0  0  0  0
   -7.2234    5.0700  -15.3358 C   0  0  0  0  0  0  0  0  0  0  0  0
   -7.1227    5.7963  -14.0440 C   0  0  0  0  0  0  0  0  0  0  0  0
   -6.4961    6.7802  -14.0435 O   0  0  0  0  0  0  0  0  0  0  0  0
   -7.9694    5.1519  -12.9317 N   0  0  0  0  0  0  0  0  0  0  0  0
   -8.2910    5.6128  -11.6576 C   0  0  0  0  0  0  0  0  0  0  0  0
   -8.3478    4.6467  -10.6469 C   0  0  0  0  0  0  0  0  0  0  0  0
   -8.4921    4.9929   -9.2939 C   0  0  0  0  0  0  0  0  0  0  0  0
   -8.5937    4.0428   -8.2915 N   0  0  0  0  0  0  0  0  0  0  0  0
   -8.7848    2.6114   -8.6302 C   0  0  0  0  0  0  0  0  0  0  0  0
   -9.1293    1.7846   -7.3679 C   0  0  0  0  0  0  0  0  0  0  0  0
   -9.7686    2.5934   -6.3095 N   0  0  0  0  0  0  0  0  0  0  0  0
   -8.7932    3.6101   -5.8630 C   0  0  0  0  0  0  0  0  0  0  0  0
   -7.9547    4.2671   -6.9878 C   0  0  0  0  0  0  0  0  0  0  0  0
   -8.6123    6.3581   -8.9942 C   0  0  0  0  0  0  0  0  0  0  0  0
   -8.6468    7.3297   -9.9905 C   0  0  0  0  0  0  0  0  0  0  0  0
   -8.4999    6.9584  -11.3271 C   0  0  0  0  0  0  0  0  0  0  0  0
   -8.9590    8.1911  -12.5302 S   0  0  0  0  0  0  0  0  0  0  0  0
   -7.4602    9.0824  -12.8709 C   0  0  0  0  0  0  0  0  0  0  0  0
   -9.8543    9.1301  -11.8715 O   0  0  0  0  0  0  0  0  0  0  0  0
   -9.4430    7.5058  -13.7136 O   0  0  0  0  0  0  0  0  0  0  0  0
   -8.5095    4.8780  -15.8374 C   0  0  0  0  0  0  0  0  0  0  0  0
   -8.6678    4.6256  -17.1859 C   0  0  0  0  0  0  0  0  0  0  0  0
  -10.4037    4.4913  -17.8804 Br  0  0  0  0  0  0  0  0  0  0  0  0
   -7.5718    4.6081  -18.0421 C   0  0  0  0  0  0  0  0  0  0  0  0
   -6.2579    4.7696  -17.5514 C   0  0  0  0  0  0  0  0  0  0  0  0
  1  2  1  0
  2  3  1  0
  3  4  1  0
  4  5  2  0
  5  6  1  0
  6  7  2  0
  7  8  1  0
  8  9  2  0
  9 10  1  0
 10 11  2  0
 10 12  1  0
 12 13  1  0
 13 14  2  0
 14 15  1  0
 15 16  1  0
 16 17  1  0
 17 18  1  0
 18 19  1  0
 19 20  1  0
 20 21  1  0
 15 22  2  0
 22 23  1  0
 23 24  2  0
 24 25  1  0
 25 26  1  0
 25 27  2  0
 25 28  2  0
  9 29  1  0
 29 30  2  0
 30 31  1  0
 30 32  1  0
 32 33  2  0
 33  4  1  0
 33  8  1  0
 24 13  1  0
 21 16  1  0
M  END
>  <smiles>  (301) 
C86511-P74

>  <fragmenstein_outcome>  (301) 
acceptable

>  <inchikey>  (301) 
NSSBBBDBYZLOAO-UHFFFAOYSA-N

>  <fragmenstein_mode>  (301) 
expansion

>  <HIPPO Pose ID>  (301) 
9290

>  <Energy>  (301) 
186.45567

>  <fragmenstein_error>  (301) 


>  <tags>  (301) 
{'openbind_xx01zvns2b_c1_fragmenstein', 'fragmenstein_placed'}

>  <ref_pdb>  (301) 
1

>  <scratch_subdir>  (301) 
/opt/xchem-fragalysis-2/maxwin/BulkDock/SCRATCH/511027/C86511-P74

>  <alias>  (301) 
CNCc1cccc2c(C(=O)Nc3cc(N4CCNCC4)ccc3S(C)(=O)=O)cc(Br)cc12

>  <HIPPO Compound ID>  (301) 
100029

>  <fragmenstein_runtime>  (301) 
6.437555

$$$$
CS(=O)(=O)c1ccc(N2CCNCC2)cc1N[C@](O)(CC(=O)O)c1cc(Cl)cc2ncccc12
     RDKit          3D

 34 37  0  0  0  0  0  0  0  0999 V2000
   -7.3299    8.7166  -13.3320 C   0  0  0  0  0  0  0  0  0  0  0  0
   -8.9265    8.3135  -12.6675 S   0  0  0  0  0  0  0  0  0  0  0  0
   -9.4296    9.5088  -12.0141 O   0  0  0  0  0  0  0  0  0  0  0  0
   -9.7303    7.6565  -13.6841 O   0  0  0  0  0  0  0  0  0  0  0  0
   -8.5813    7.0973  -11.4297 C   0  0  0  0  0  0  0  0  0  0  0  0
   -8.7947    7.4399  -10.0943 C   0  0  0  0  0  0  0  0  0  0  0  0
   -8.6810    6.4615   -9.1135 C   0  0  0  0  0  0  0  0  0  0  0  0
   -8.4269    5.1254   -9.4449 C   0  0  0  0  0  0  0  0  0  0  0  0
   -8.5155    4.1385   -8.4731 N   0  0  0  0  0  0  0  0  0  0  0  0
   -8.6823    2.7178   -8.8715 C   0  0  0  0  0  0  0  0  0  0  0  0
   -9.0293    1.8337   -7.6478 C   0  0  0  0  0  0  0  0  0  0  0  0
   -9.6225    2.5960   -6.5279 N   0  0  0  0  0  0  0  0  0  0  0  0
   -8.6193    3.5758   -6.0616 C   0  0  0  0  0  0  0  0  0  0  0  0
   -7.8453    4.3223   -7.1794 C   0  0  0  0  0  0  0  0  0  0  0  0
   -8.1857    4.8341  -10.8026 C   0  0  0  0  0  0  0  0  0  0  0  0
   -8.1934    5.8038  -11.8163 C   0  0  0  0  0  0  0  0  0  0  0  0
   -7.9065    5.5372  -13.1606 N   0  0  0  0  0  0  0  0  0  0  0  0
   -7.1571    4.3752  -13.7009 C   0  0  2  0  0  0  0  0  0  0  0  0
   -7.8526    3.2098  -13.2906 O   0  0  0  0  0  0  0  0  0  0  0  0
   -5.7946    4.3135  -12.9748 C   0  0  0  0  0  0  0  0  0  0  0  0
   -4.8849    3.1681  -13.3328 C   0  0  0  0  0  0  0  0  0  0  0  0
   -5.1299    1.9772  -13.4073 O   0  0  0  0  0  0  0  0  0  0  0  0
   -3.6028    3.5741  -13.4992 O   0  0  0  0  0  0  0  0  0  0  0  0
   -7.2252    4.5349  -15.2543 C   0  0  0  0  0  0  0  0  0  0  0  0
   -8.5214    4.4226  -15.8277 C   0  0  0  0  0  0  0  0  0  0  0  0
   -8.7382    4.4566  -17.1989 C   0  0  0  0  0  0  0  0  0  0  0  0
  -10.3351    4.3908  -17.8183 Cl  0  0  0  0  0  0  0  0  0  0  0  0
   -7.6729    4.5706  -18.0644 C   0  0  0  0  0  0  0  0  0  0  0  0
   -6.3955    4.7350  -17.5811 C   0  0  0  0  0  0  0  0  0  0  0  0
   -5.4483    4.8725  -18.5198 N   0  0  0  0  0  0  0  0  0  0  0  0
   -4.1853    5.1072  -18.1452 C   0  0  0  0  0  0  0  0  0  0  0  0
   -3.8254    5.2828  -16.8349 C   0  0  0  0  0  0  0  0  0  0  0  0
   -4.8171    5.1539  -15.8630 C   0  0  0  0  0  0  0  0  0  0  0  0
   -6.1487    4.7950  -16.1763 C   0  0  0  0  0  0  0  0  0  0  0  0
  1  2  1  0
  2  3  2  0
  2  4  2  0
  2  5  1  0
  5  6  2  0
  6  7  1  0
  7  8  2  0
  8  9  1  0
  9 10  1  0
 10 11  1  0
 11 12  1  0
 12 13  1  0
 13 14  1  0
  8 15  1  0
 15 16  2  0
 16 17  1  0
 17 18  1  0
 18 19  1  6
 18 20  1  0
 20 21  1  0
 21 22  2  0
 21 23  1  0
 18 24  1  0
 24 25  2  0
 25 26  1  0
 26 27  1  0
 26 28  2  0
 28 29  1  0
 29 30  2  0
 30 31  1  0
 31 32  2  0
 32 33  1  0
 33 34  2  0
 16  5  1  0
 34 24  1  0
 14  9  1  0
 34 29  1  0
M  END
>  <smiles>  (302) 
C85594-P74

>  <fragmenstein_outcome>  (302) 
acceptable

>  <inchikey>  (302) 
FJKWBUNJULIVGC-UHFFFAOYSA-N

>  <fragmenstein_mode>  (302) 
expansion

>  <HIPPO Pose ID>  (302) 
9292

>  <Energy>  (302) 
113.578899

>  <fragmenstein_error>  (302) 


>  <tags>  (302) 
{'openbind_xx01zvns2b_c1_fragmenstein', 'fragmenstein_placed'}

>  <ref_pdb>  (302) 
1

>  <scratch_subdir>  (302) 
/opt/xchem-fragalysis-2/maxwin/BulkDock/SCRATCH/511027/C85594-P74

>  <alias>  (302) 
CS(=O)(=O)c1ccc(N2CCNCC2)cc1N[C@](O)(CC(=O)O)c1cc(Cl)cc2ncccc12

>  <HIPPO Compound ID>  (302) 
82392

>  <fragmenstein_runtime>  (302) 
8.450743

$$$$
CS(=O)(=O)c1ccc(N2CCNCC2)cc1N[C@](O)(C(=O)NCCCF)c1cc(Cl)cc2ncccc12
     RDKit          3D

 37 40  0  0  0  0  0  0  0  0999 V2000
   -7.6728    9.0624  -13.0629 C   0  0  0  0  0  0  0  0  0  0  0  0
   -9.1802    8.2676  -12.5888 S   0  0  0  0  0  0  0  0  0  0  0  0
   -9.9843    9.2502  -11.8865 O   0  0  0  0  0  0  0  0  0  0  0  0
   -9.7233    7.5846  -13.7495 O   0  0  0  0  0  0  0  0  0  0  0  0
   -8.7054    7.0093  -11.4305 C   0  0  0  0  0  0  0  0  0  0  0  0
   -8.7380    7.3540  -10.0756 C   0  0  0  0  0  0  0  0  0  0  0  0
   -8.5003    6.3854   -9.1016 C   0  0  0  0  0  0  0  0  0  0  0  0
   -8.2554    5.0535   -9.4453 C   0  0  0  0  0  0  0  0  0  0  0  0
   -8.0581    4.0463   -8.5015 N   0  0  0  0  0  0  0  0  0  0  0  0
   -8.8698    2.8170   -8.7164 C   0  0  0  0  0  0  0  0  0  0  0  0
   -9.0155    1.9568   -7.4438 C   0  0  0  0  0  0  0  0  0  0  0  0
   -9.4646    2.6663   -6.2294 N   0  0  0  0  0  0  0  0  0  0  0  0
   -8.9227    4.0309   -6.1652 C   0  0  0  0  0  0  0  0  0  0  0  0
   -7.7408    4.3471   -7.1004 C   0  0  0  0  0  0  0  0  0  0  0  0
   -8.2115    4.7454  -10.8213 C   0  0  0  0  0  0  0  0  0  0  0  0
   -8.4299    5.6923  -11.8371 C   0  0  0  0  0  0  0  0  0  0  0  0
   -8.3691    5.2928  -13.1838 N   0  0  0  0  0  0  0  0  0  0  0  0
   -7.0972    4.8034  -13.7662 C   0  0  2  0  0  0  0  0  0  0  0  0
   -6.9450    3.4544  -13.3690 O   0  0  0  0  0  0  0  0  0  0  0  0
   -5.8931    5.7132  -13.1918 C   0  0  0  0  0  0  0  0  0  0  0  0
   -5.6768    6.8130  -13.5307 O   0  0  0  0  0  0  0  0  0  0  0  0
   -5.1554    4.8122  -12.1518 N   0  0  0  0  0  0  0  0  0  0  0  0
   -4.0717    5.1147  -11.2593 C   0  0  0  0  0  0  0  0  0  0  0  0
   -4.5684    5.3596   -9.8431 C   0  0  0  0  0  0  0  0  0  0  0  0
   -3.4191    5.6582   -8.9018 C   0  0  0  0  0  0  0  0  0  0  0  0
   -3.9079    5.8497   -7.6468 F   0  0  0  0  0  0  0  0  0  0  0  0
   -7.1926    4.7620  -15.3055 C   0  0  0  0  0  0  0  0  0  0  0  0
   -8.4738    4.6017  -15.8797 C   0  0  0  0  0  0  0  0  0  0  0  0
   -8.6550    4.5519  -17.2528 C   0  0  0  0  0  0  0  0  0  0  0  0
  -10.2353    4.3796  -17.8807 Cl  0  0  0  0  0  0  0  0  0  0  0  0
   -7.5759    4.6641  -18.1065 C   0  0  0  0  0  0  0  0  0  0  0  0
   -6.2953    4.7671  -17.6075 C   0  0  0  0  0  0  0  0  0  0  0  0
   -5.3109    4.8395  -18.5155 N   0  0  0  0  0  0  0  0  0  0  0  0
   -4.0382    4.8611  -18.0924 C   0  0  0  0  0  0  0  0  0  0  0  0
   -3.6878    4.8130  -16.7653 C   0  0  0  0  0  0  0  0  0  0  0  0
   -4.7104    4.7592  -15.8224 C   0  0  0  0  0  0  0  0  0  0  0  0
   -6.0726    4.7734  -16.2017 C   0  0  0  0  0  0  0  0  0  0  0  0
  1  2  1  0
  2  3  2  0
  2  4  2  0
  2  5  1  0
  5  6  2  0
  6  7  1  0
  7  8  2  0
  8  9  1  0
  9 10  1  0
 10 11  1  0
 11 12  1  0
 12 13  1  0
 13 14  1  0
  8 15  1  0
 15 16  2  0
 16 17  1  0
 17 18  1  0
 18 19  1  1
 18 20  1  0
 20 21  2  0
 20 22  1  0
 22 23  1  0
 23 24  1  0
 24 25  1  0
 25 26  1  0
 18 27  1  0
 27 28  2  0
 28 29  1  0
 29 30  1  0
 29 31  2  0
 31 32  1  0
 32 33  2  0
 33 34  1  0
 34 35  2  0
 35 36  1  0
 36 37  2  0
 16  5  1  0
 37 27  1  0
 14  9  1  0
 37 32  1  0
M  END
>  <smiles>  (303) 
C85591-P74

>  <fragmenstein_outcome>  (303) 
acceptable

>  <inchikey>  (303) 
GAIDPANBYIJGCZ-UHFFFAOYSA-N

>  <fragmenstein_mode>  (303) 
expansion

>  <HIPPO Pose ID>  (303) 
9293

>  <Energy>  (303) 
210.343509

>  <fragmenstein_error>  (303) 


>  <tags>  (303) 
{'openbind_xx01zvns2b_c1_fragmenstein', 'fragmenstein_placed'}

>  <ref_pdb>  (303) 
1

>  <scratch_subdir>  (303) 
/opt/xchem-fragalysis-2/maxwin/BulkDock/SCRATCH/511027/C85591-P74

>  <alias>  (303) 
CS(=O)(=O)c1ccc(N2CCNCC2)cc1N[C@](O)(C(=O)NCCCF)c1cc(Cl)cc2ncccc12

>  <HIPPO Compound ID>  (303) 
81622

>  <fragmenstein_runtime>  (303) 
11.319422

$$$$
CS(=O)(=O)c1ccc(N2CCNCC2)cc1NC(=O)c1cc(Cl)cc2c1C[C@]1(CCCNC1)CN2
     RDKit          3D

 35 39  0  0  0  0  0  0  0  0999 V2000
   -7.4016    8.8519  -13.1538 C   0  0  0  0  0  0  0  0  0  0  0  0
   -9.0204    8.3269  -12.6453 S   0  0  0  0  0  0  0  0  0  0  0  0
   -9.6676    9.4529  -12.0012 O   0  0  0  0  0  0  0  0  0  0  0  0
   -9.6629    7.6499  -13.7574 O   0  0  0  0  0  0  0  0  0  0  0  0
   -8.6833    7.0878  -11.4404 C   0  0  0  0  0  0  0  0  0  0  0  0
   -8.8341    7.4090  -10.0948 C   0  0  0  0  0  0  0  0  0  0  0  0
   -8.6326    6.4202   -9.1363 C   0  0  0  0  0  0  0  0  0  0  0  0
   -8.3021    5.1024   -9.4917 C   0  0  0  0  0  0  0  0  0  0  0  0
   -8.3230    4.1035   -8.5354 N   0  0  0  0  0  0  0  0  0  0  0  0
   -8.4998    2.6867   -8.9352 C   0  0  0  0  0  0  0  0  0  0  0  0
   -8.9361    1.8209   -7.7264 C   0  0  0  0  0  0  0  0  0  0  0  0
   -9.5735    2.6057   -6.6445 N   0  0  0  0  0  0  0  0  0  0  0  0
   -8.5722    3.5626   -6.1288 C   0  0  0  0  0  0  0  0  0  0  0  0
   -7.7364    4.3002   -7.2068 C   0  0  0  0  0  0  0  0  0  0  0  0
   -8.0769    4.8356  -10.8551 C   0  0  0  0  0  0  0  0  0  0  0  0
   -8.2822    5.8081  -11.8369 C   0  0  0  0  0  0  0  0  0  0  0  0
   -8.1630    5.4643  -13.1871 N   0  0  0  0  0  0  0  0  0  0  0  0
   -7.2347    4.4427  -13.8855 C   0  0  0  0  0  0  0  0  0  0  0  0
   -6.4803    3.6754  -13.4350 O   0  0  0  0  0  0  0  0  0  0  0  0
   -7.3975    4.5489  -15.3681 C   0  0  0  0  0  0  0  0  0  0  0  0
   -8.6854    4.4415  -15.8921 C   0  0  0  0  0  0  0  0  0  0  0  0
   -8.8818    4.5181  -17.2611 C   0  0  0  0  0  0  0  0  0  0  0  0
  -10.4769    4.4649  -17.8786 Cl  0  0  0  0  0  0  0  0  0  0  0  0
   -7.8074    4.6955  -18.1221 C   0  0  0  0  0  0  0  0  0  0  0  0
   -6.5076    4.8061  -17.6175 C   0  0  0  0  0  0  0  0  0  0  0  0
   -6.3012    4.7739  -16.2229 C   0  0  0  0  0  0  0  0  0  0  0  0
   -4.9067    4.9490  -15.6733 C   0  0  0  0  0  0  0  0  0  0  0  0
   -3.9495    5.6783  -16.6470 C   0  0  1  0  0  0  0  0  0  0  0  0
   -4.2801    7.1908  -16.7031 C   0  0  0  0  0  0  0  0  0  0  0  0
   -3.2810    7.9807  -17.5548 C   0  0  0  0  0  0  0  0  0  0  0  0
   -1.8755    7.3787  -17.5578 C   0  0  0  0  0  0  0  0  0  0  0  0
   -1.5874    6.6572  -16.3245 N   0  0  0  0  0  0  0  0  0  0  0  0
   -2.4957    5.5166  -16.1224 C   0  0  0  0  0  0  0  0  0  0  0  0
   -4.1140    4.9885  -18.0195 C   0  0  0  0  0  0  0  0  0  0  0  0
   -5.4748    5.1280  -18.5100 N   0  0  0  0  0  0  0  0  0  0  0  0
  1  2  1  0
  2  3  2  0
  2  4  2  0
  2  5  1  0
  5  6  2  0
  6  7  1  0
  7  8  2  0
  8  9  1  0
  9 10  1  0
 10 11  1  0
 11 12  1  0
 12 13  1  0
 13 14  1  0
  8 15  1  0
 15 16  2  0
 16 17  1  0
 17 18  1  0
 18 19  2  0
 18 20  1  0
 20 21  2  0
 21 22  1  0
 22 23  1  0
 22 24  2  0
 24 25  1  0
 25 26  2  0
 26 27  1  0
 28 27  1  1
 28 29  1  0
 29 30  1  0
 30 31  1  0
 31 32  1  0
 32 33  1  0
 28 34  1  0
 34 35  1  0
 16  5  1  0
 26 20  1  0
 33 28  1  0
 14  9  1  0
 35 25  1  0
M  END
>  <smiles>  (304) 
C86518-P74

>  <fragmenstein_outcome>  (304) 
acceptable

>  <inchikey>  (304) 
KLGXIUJOBXKESG-UHFFFAOYSA-N

>  <fragmenstein_mode>  (304) 
expansion

>  <HIPPO Pose ID>  (304) 
9295

>  <Energy>  (304) 
156.276828

>  <fragmenstein_error>  (304) 


>  <tags>  (304) 
{'openbind_xx01zvns2b_c1_fragmenstein', 'fragmenstein_placed'}

>  <ref_pdb>  (304) 
1

>  <scratch_subdir>  (304) 
/opt/xchem-fragalysis-2/maxwin/BulkDock/SCRATCH/511027/C86518-P74

>  <alias>  (304) 
CS(=O)(=O)c1ccc(N2CCNCC2)cc1NC(=O)c1cc(Cl)cc2c1C[C@]1(CCCNC1)CN2

>  <HIPPO Compound ID>  (304) 
105924

>  <fragmenstein_runtime>  (304) 
8.5193

$$$$
CS(=O)(=O)c1ccc2c(cc3n2CCNC3)c1NC(=O)c1cccc2c1CC[C@@]1(CCCNC1)N2
     RDKit          3D

 35 40  0  0  0  0  0  0  0  0999 V2000
   -7.2655    8.7417  -13.2404 C   0  0  0  0  0  0  0  0  0  0  0  0
   -8.8946    8.2965  -12.6911 S   0  0  0  0  0  0  0  0  0  0  0  0
   -9.5055    9.4798  -12.1162 O   0  0  0  0  0  0  0  0  0  0  0  0
   -9.5715    7.5726  -13.7529 O   0  0  0  0  0  0  0  0  0  0  0  0
   -8.5848    7.1228  -11.3995 C   0  0  0  0  0  0  0  0  0  0  0  0
   -8.6801    7.5939  -10.0918 C   0  0  0  0  0  0  0  0  0  0  0  0
   -8.5060    6.7242   -9.0319 C   0  0  0  0  0  0  0  0  0  0  0  0
   -8.3513    5.3648   -9.3252 C   0  0  0  0  0  0  0  0  0  0  0  0
   -8.2468    4.8569  -10.6334 C   0  0  0  0  0  0  0  0  0  0  0  0
   -8.2736    3.4279  -10.4912 C   0  0  0  0  0  0  0  0  0  0  0  0
   -8.4705    3.1267   -9.1522 C   0  0  0  0  0  0  0  0  0  0  0  0
   -8.3379    4.2959   -8.4587 N   0  0  0  0  0  0  0  0  0  0  0  0
   -8.4609    4.3860   -7.0129 C   0  0  0  0  0  0  0  0  0  0  0  0
   -8.7743    3.0458   -6.3447 C   0  0  0  0  0  0  0  0  0  0  0  0
   -9.5534    2.1463   -7.1940 N   0  0  0  0  0  0  0  0  0  0  0  0
   -8.8096    1.8620   -8.4354 C   0  0  0  0  0  0  0  0  0  0  0  0
   -8.2851    5.7715  -11.7215 C   0  0  0  0  0  0  0  0  0  0  0  0
   -8.1057    5.4564  -13.0832 N   0  0  0  0  0  0  0  0  0  0  0  0
   -7.3369    4.2901  -13.7537 C   0  0  0  0  0  0  0  0  0  0  0  0
   -6.6696    3.4544  -13.2841 O   0  0  0  0  0  0  0  0  0  0  0  0
   -7.4763    4.4222  -15.2538 C   0  0  0  0  0  0  0  0  0  0  0  0
   -8.7694    4.3883  -15.7894 C   0  0  0  0  0  0  0  0  0  0  0  0
   -8.9795    4.4662  -17.1607 C   0  0  0  0  0  0  0  0  0  0  0  0
   -7.8925    4.6252  -18.0097 C   0  0  0  0  0  0  0  0  0  0  0  0
   -6.5926    4.7592  -17.5007 C   0  0  0  0  0  0  0  0  0  0  0  0
   -6.3704    4.6231  -16.1121 C   0  0  0  0  0  0  0  0  0  0  0  0
   -4.9773    4.8017  -15.5695 C   0  0  0  0  0  0  0  0  0  0  0  0
   -3.8921    4.7137  -16.6421 C   0  0  0  0  0  0  0  0  0  0  0  0
   -4.2630    5.4463  -17.9428 C   0  0  2  0  0  0  0  0  0  0  0  0
   -3.1838    5.1480  -19.0192 C   0  0  0  0  0  0  0  0  0  0  0  0
   -2.8567    6.3406  -19.9221 C   0  0  0  0  0  0  0  0  0  0  0  0
   -4.0776    7.2094  -20.1865 C   0  0  0  0  0  0  0  0  0  0  0  0
   -4.6635    7.7703  -18.9672 N   0  0  0  0  0  0  0  0  0  0  0  0
   -4.3527    6.9870  -17.7525 C   0  0  0  0  0  0  0  0  0  0  0  0
   -5.5463    4.9186  -18.4232 N   0  0  0  0  0  0  0  0  0  0  0  0
  1  2  1  0
  2  3  2  0
  2  4  2  0
  2  5  1  0
  5  6  2  0
  6  7  1  0
  7  8  2  0
  8  9  1  0
  9 10  1  0
 10 11  2  0
 11 12  1  0
 12 13  1  0
 13 14  1  0
 14 15  1  0
 15 16  1  0
  9 17  2  0
 17 18  1  0
 18 19  1  0
 19 20  2  0
 19 21  1  0
 21 22  2  0
 22 23  1  0
 23 24  2  0
 24 25  1  0
 25 26  2  0
 26 27  1  0
 27 28  1  0
 29 28  1  1
 29 30  1  0
 30 31  1  0
 31 32  1  0
 32 33  1  0
 33 34  1  0
 29 35  1  0
 17  5  1  0
 26 21  1  0
 34 29  1  0
 12  8  1  0
 35 25  1  0
 16 11  1  0
M  END
>  <smiles>  (305) 
C86521-P74

>  <fragmenstein_outcome>  (305) 
acceptable

>  <inchikey>  (305) 
OKZOBLCGKCXWQS-UHFFFAOYSA-N

>  <fragmenstein_mode>  (305) 
expansion

>  <HIPPO Pose ID>  (305) 
9296

>  <Energy>  (305) 
119.868261

>  <fragmenstein_error>  (305) 


>  <tags>  (305) 
{'openbind_xx01zvns2b_c1_fragmenstein', 'fragmenstein_placed'}

>  <ref_pdb>  (305) 
1

>  <scratch_subdir>  (305) 
/opt/xchem-fragalysis-2/maxwin/BulkDock/SCRATCH/511027/C86521-P74

>  <alias>  (305) 
CS(=O)(=O)c1ccc2c(cc3n2CCNC3)c1NC(=O)c1cccc2c1CC[C@@]1(CCCNC1)N2

>  <HIPPO Compound ID>  (305) 
75096

>  <fragmenstein_runtime>  (305) 
13.0416

$$$$
C[C@@H]1CNCCN1c1ccc(S(C)(=O)=O)c(NC(=O)c2cc(Cl)cc3c2C[C@@]2(CCCNC2)CN3)c1
     RDKit          3D

 36 40  0  0  0  0  0  0  0  0999 V2000
   -7.0966    5.1489   -6.4657 C   0  0  0  0  0  0  0  0  0  0  0  0
   -8.3287    4.4496   -7.0557 C   0  0  2  0  0  0  0  0  0  0  0  0
   -8.6763    3.2439   -6.1441 C   0  0  0  0  0  0  0  0  0  0  0  0
   -9.6322    2.3076   -6.7405 N   0  0  0  0  0  0  0  0  0  0  0  0
   -8.9641    1.7682   -7.9354 C   0  0  0  0  0  0  0  0  0  0  0  0
   -8.6697    2.8330   -9.0022 C   0  0  0  0  0  0  0  0  0  0  0  0
   -8.0864    4.1145   -8.4880 N   0  0  0  0  0  0  0  0  0  0  0  0
   -8.1861    5.1509   -9.4566 C   0  0  0  0  0  0  0  0  0  0  0  0
   -8.6030    6.4526   -9.1264 C   0  0  0  0  0  0  0  0  0  0  0  0
   -8.8594    7.4157  -10.0980 C   0  0  0  0  0  0  0  0  0  0  0  0
   -8.6686    7.0974  -11.4368 C   0  0  0  0  0  0  0  0  0  0  0  0
   -9.0593    8.3160  -12.6499 S   0  0  0  0  0  0  0  0  0  0  0  0
   -7.4650    8.9183  -13.1521 C   0  0  0  0  0  0  0  0  0  0  0  0
   -9.7634    9.4106  -12.0112 O   0  0  0  0  0  0  0  0  0  0  0  0
   -9.6666    7.6027  -13.7595 O   0  0  0  0  0  0  0  0  0  0  0  0
   -8.1690    5.8480  -11.8208 C   0  0  0  0  0  0  0  0  0  0  0  0
   -7.9906    5.5527  -13.1799 N   0  0  0  0  0  0  0  0  0  0  0  0
   -7.1873    4.4225  -13.8654 C   0  0  0  0  0  0  0  0  0  0  0  0
   -6.4876    3.6086  -13.4090 O   0  0  0  0  0  0  0  0  0  0  0  0
   -7.3672    4.5169  -15.3487 C   0  0  0  0  0  0  0  0  0  0  0  0
   -8.6624    4.4335  -15.8625 C   0  0  0  0  0  0  0  0  0  0  0  0
   -8.8681    4.5118  -17.2319 C   0  0  0  0  0  0  0  0  0  0  0  0
  -10.4659    4.4716  -17.8513 Cl  0  0  0  0  0  0  0  0  0  0  0  0
   -7.7968    4.6782  -18.0998 C   0  0  0  0  0  0  0  0  0  0  0  0
   -6.4913    4.7691  -17.6054 C   0  0  0  0  0  0  0  0  0  0  0  0
   -6.2738    4.7246  -16.2127 C   0  0  0  0  0  0  0  0  0  0  0  0
   -4.8680    4.8567  -15.6774 C   0  0  0  0  0  0  0  0  0  0  0  0
   -3.9132    5.5987  -16.6464 C   0  0  2  0  0  0  0  0  0  0  0  0
   -2.4392    5.4078  -16.1918 C   0  0  0  0  0  0  0  0  0  0  0  0
   -1.8289    6.6496  -15.5387 C   0  0  0  0  0  0  0  0  0  0  0  0
   -2.8476    7.4009  -14.6948 C   0  0  0  0  0  0  0  0  0  0  0  0
   -4.0163    7.8481  -15.4541 N   0  0  0  0  0  0  0  0  0  0  0  0
   -4.2273    7.1161  -16.7127 C   0  0  0  0  0  0  0  0  0  0  0  0
   -4.0989    4.9486  -18.0327 C   0  0  0  0  0  0  0  0  0  0  0  0
   -5.4634    5.0838  -18.5059 N   0  0  0  0  0  0  0  0  0  0  0  0
   -7.9016    4.9026  -10.8231 C   0  0  0  0  0  0  0  0  0  0  0  0
  2  1  1  1
  2  3  1  0
  3  4  1  0
  4  5  1  0
  5  6  1  0
  6  7  1  0
  7  8  1  0
  8  9  2  0
  9 10  1  0
 10 11  2  0
 11 12  1  0
 12 13  1  0
 12 14  2  0
 12 15  2  0
 11 16  1  0
 16 17  1  0
 17 18  1  0
 18 19  2  0
 18 20  1  0
 20 21  2  0
 21 22  1  0
 22 23  1  0
 22 24  2  0
 24 25  1  0
 25 26  2  0
 26 27  1  0
 28 27  1  1
 28 29  1  0
 29 30  1  0
 30 31  1  0
 31 32  1  0
 32 33  1  0
 28 34  1  0
 34 35  1  0
 16 36  2  0
  7  2  1  0
 36  8  1  0
 26 20  1  0
 33 28  1  0
 35 25  1  0
M  END
>  <smiles>  (306) 
C85599-P74

>  <fragmenstein_outcome>  (306) 
acceptable

>  <inchikey>  (306) 
VXQKSVVHJHMXEJ-UHFFFAOYSA-N

>  <fragmenstein_mode>  (306) 
expansion

>  <HIPPO Pose ID>  (306) 
9297

>  <Energy>  (306) 
156.43633

>  <fragmenstein_error>  (306) 


>  <tags>  (306) 
{'openbind_xx01zvns2b_c1_fragmenstein', 'fragmenstein_placed'}

>  <ref_pdb>  (306) 
1

>  <scratch_subdir>  (306) 
/opt/xchem-fragalysis-2/maxwin/BulkDock/SCRATCH/511027/C85599-P74

>  <alias>  (306) 
C[C@@H]1CNCCN1c1ccc(S(C)(=O)=O)c(NC(=O)c2cc(Cl)cc3c2C[C@@]2(CCCNC2)CN3)c1

>  <HIPPO Compound ID>  (306) 
82540

>  <fragmenstein_runtime>  (306) 
10.974932

$$$$
CNCc1cnc2cc(Br)cc(C(=O)Nc3cc(N4CCNCC4)ccc3S(C)(=O)=O)c2c1
     RDKit          3D

 33 36  0  0  0  0  0  0  0  0999 V2000
   -2.1726    7.8374  -17.3504 C   0  0  0  0  0  0  0  0  0  0  0  0
   -2.0772    6.9795  -16.1767 N   0  0  0  0  0  0  0  0  0  0  0  0
   -2.2892    5.5652  -16.4969 C   0  0  0  0  0  0  0  0  0  0  0  0
   -3.7058    5.2276  -16.8636 C   0  0  0  0  0  0  0  0  0  0  0  0
   -4.0487    4.8642  -18.1528 C   0  0  0  0  0  0  0  0  0  0  0  0
   -5.3074    4.5936  -18.5487 N   0  0  0  0  0  0  0  0  0  0  0  0
   -6.3018    4.6834  -17.6531 C   0  0  0  0  0  0  0  0  0  0  0  0
   -7.5950    4.4564  -18.0885 C   0  0  0  0  0  0  0  0  0  0  0  0
   -8.6704    4.5776  -17.2176 C   0  0  0  0  0  0  0  0  0  0  0  0
  -10.4233    4.4471  -17.8580 Br  0  0  0  0  0  0  0  0  0  0  0  0
   -8.4847    4.9284  -15.8930 C   0  0  0  0  0  0  0  0  0  0  0  0
   -7.1933    5.1834  -15.4400 C   0  0  0  0  0  0  0  0  0  0  0  0
   -7.0818    5.9028  -14.1446 C   0  0  0  0  0  0  0  0  0  0  0  0
   -6.4739    6.8997  -14.1437 O   0  0  0  0  0  0  0  0  0  0  0  0
   -7.9005    5.2280  -13.0210 N   0  0  0  0  0  0  0  0  0  0  0  0
   -8.2105    5.6710  -11.7332 C   0  0  0  0  0  0  0  0  0  0  0  0
   -8.2747    4.6887  -10.7357 C   0  0  0  0  0  0  0  0  0  0  0  0
   -8.4490    5.0105   -9.3784 C   0  0  0  0  0  0  0  0  0  0  0  0
   -8.5671    4.0465   -8.3894 N   0  0  0  0  0  0  0  0  0  0  0  0
   -8.7560    2.6214   -8.7533 C   0  0  0  0  0  0  0  0  0  0  0  0
   -9.0962    1.7699   -7.5064 C   0  0  0  0  0  0  0  0  0  0  0  0
   -9.7183    2.5566   -6.4218 N   0  0  0  0  0  0  0  0  0  0  0  0
   -8.7320    3.5577   -5.9650 C   0  0  0  0  0  0  0  0  0  0  0  0
   -7.9161    4.2486   -7.0866 C   0  0  0  0  0  0  0  0  0  0  0  0
   -8.5860    6.3682   -9.0569 C   0  0  0  0  0  0  0  0  0  0  0  0
   -8.6138    7.3543  -10.0375 C   0  0  0  0  0  0  0  0  0  0  0  0
   -8.4469    7.0058  -11.3788 C   0  0  0  0  0  0  0  0  0  0  0  0
   -8.9357    8.2438  -12.5612 S   0  0  0  0  0  0  0  0  0  0  0  0
   -7.4524    9.1626  -12.8954 C   0  0  0  0  0  0  0  0  0  0  0  0
   -9.8444    9.1595  -11.8890 O   0  0  0  0  0  0  0  0  0  0  0  0
   -9.4123    7.5590  -13.7475 O   0  0  0  0  0  0  0  0  0  0  0  0
   -6.0801    5.0493  -16.3086 C   0  0  0  0  0  0  0  0  0  0  0  0
   -4.7429    5.3001  -15.9324 C   0  0  0  0  0  0  0  0  0  0  0  0
  1  2  1  0
  2  3  1  0
  3  4  1  0
  4  5  2  0
  5  6  1  0
  6  7  2  0
  7  8  1  0
  8  9  2  0
  9 10  1  0
  9 11  1  0
 11 12  2  0
 12 13  1  0
 13 14  2  0
 13 15  1  0
 15 16  1  0
 16 17  2  0
 17 18  1  0
 18 19  1  0
 19 20  1  0
 20 21  1  0
 21 22  1  0
 22 23  1  0
 23 24  1  0
 18 25  2  0
 25 26  1  0
 26 27  2  0
 27 28  1  0
 28 29  1  0
 28 30  2  0
 28 31  2  0
 12 32  1  0
 32 33  2  0
 33  4  1  0
 32  7  1  0
 27 16  1  0
 24 19  1  0
M  END
>  <smiles>  (307) 
C86522-P74

>  <fragmenstein_outcome>  (307) 
acceptable

>  <inchikey>  (307) 
RKLIJAXZOPXXNM-UHFFFAOYSA-N

>  <fragmenstein_mode>  (307) 
expansion

>  <HIPPO Pose ID>  (307) 
9298

>  <Energy>  (307) 
168.502219

>  <fragmenstein_error>  (307) 


>  <tags>  (307) 
{'openbind_xx01zvns2b_c1_fragmenstein', 'fragmenstein_placed'}

>  <ref_pdb>  (307) 
1

>  <scratch_subdir>  (307) 
/opt/xchem-fragalysis-2/maxwin/BulkDock/SCRATCH/511027/C86522-P74

>  <alias>  (307) 
CNCc1cnc2cc(Br)cc(C(=O)Nc3cc(N4CCNCC4)ccc3S(C)(=O)=O)c2c1

>  <HIPPO Compound ID>  (307) 
98957

>  <fragmenstein_runtime>  (307) 
5.574697

$$$$
C[C@@H]1CNCCN1c1ccc(S(C)(=O)=O)c(NC(=O)c2cc(Cl)cc3nc(C4CCNCC4)ccc23)c1
     RDKit          3D

 37 41  0  0  0  0  0  0  0  0999 V2000
   -9.3638    2.3967   -9.5356 C   0  0  0  0  0  0  0  0  0  0  0  0
   -8.2702    2.6238   -8.5006 C   0  0  2  0  0  0  0  0  0  0  0  0
   -8.8087    2.0475   -7.1330 C   0  0  0  0  0  0  0  0  0  0  0  0
   -9.6575    3.0038   -6.3846 N   0  0  0  0  0  0  0  0  0  0  0  0
   -8.8523    4.1917   -6.0433 C   0  0  0  0  0  0  0  0  0  0  0  0
   -7.6381    4.4720   -6.9548 C   0  0  0  0  0  0  0  0  0  0  0  0
   -7.9194    4.0784   -8.3425 N   0  0  0  0  0  0  0  0  0  0  0  0
   -8.0847    5.0351   -9.3278 C   0  0  0  0  0  0  0  0  0  0  0  0
   -8.5083    6.3348   -9.0266 C   0  0  0  0  0  0  0  0  0  0  0  0
   -8.7174    7.2918  -10.0182 C   0  0  0  0  0  0  0  0  0  0  0  0
   -8.4843    6.9798  -11.3611 C   0  0  0  0  0  0  0  0  0  0  0  0
   -9.0681    8.1777  -12.5394 S   0  0  0  0  0  0  0  0  0  0  0  0
   -7.6557    9.2184  -12.8373 C   0  0  0  0  0  0  0  0  0  0  0  0
  -10.0531    9.0141  -11.8718 O   0  0  0  0  0  0  0  0  0  0  0  0
   -9.4797    7.4646  -13.7332 O   0  0  0  0  0  0  0  0  0  0  0  0
   -8.0209    5.7038  -11.7076 C   0  0  0  0  0  0  0  0  0  0  0  0
   -7.7059    5.2668  -12.9997 N   0  0  0  0  0  0  0  0  0  0  0  0
   -7.0702    6.0207  -14.1851 C   0  0  0  0  0  0  0  0  0  0  0  0
   -6.6378    7.1028  -14.2490 O   0  0  0  0  0  0  0  0  0  0  0  0
   -7.1051    5.2489  -15.4546 C   0  0  0  0  0  0  0  0  0  0  0  0
   -8.3534    4.8729  -15.9416 C   0  0  0  0  0  0  0  0  0  0  0  0
   -8.4590    4.5255  -17.2794 C   0  0  0  0  0  0  0  0  0  0  0  0
  -10.0080    4.2132  -17.9277 Cl  0  0  0  0  0  0  0  0  0  0  0  0
   -7.3493    4.5478  -18.1243 C   0  0  0  0  0  0  0  0  0  0  0  0
   -6.0964    4.9133  -17.6571 C   0  0  0  0  0  0  0  0  0  0  0  0
   -5.0708    5.0305  -18.5287 N   0  0  0  0  0  0  0  0  0  0  0  0
   -3.8784    5.4979  -18.0893 C   0  0  0  0  0  0  0  0  0  0  0  0
   -2.7766    5.8278  -19.0869 C   0  0  0  0  0  0  0  0  0  0  0  0
   -3.2851    6.3226  -20.4487 C   0  0  0  0  0  0  0  0  0  0  0  0
   -2.1331    6.3805  -21.4572 C   0  0  0  0  0  0  0  0  0  0  0  0
   -1.4315    5.1080  -21.6610 N   0  0  0  0  0  0  0  0  0  0  0  0
   -1.7327    4.1205  -20.6368 C   0  0  0  0  0  0  0  0  0  0  0  0
   -1.7834    4.6711  -19.2257 C   0  0  0  0  0  0  0  0  0  0  0  0
   -3.6313    5.7191  -16.7431 C   0  0  0  0  0  0  0  0  0  0  0  0
   -4.6756    5.5829  -15.8438 C   0  0  0  0  0  0  0  0  0  0  0  0
   -5.9606    5.2329  -16.2912 C   0  0  0  0  0  0  0  0  0  0  0  0
   -7.8348    4.7588  -10.6832 C   0  0  0  0  0  0  0  0  0  0  0  0
  2  1  1  6
  2  3  1  0
  3  4  1  0
  4  5  1  0
  5  6  1  0
  6  7  1  0
  7  8  1  0
  8  9  2  0
  9 10  1  0
 10 11  2  0
 11 12  1  0
 12 13  1  0
 12 14  2  0
 12 15  2  0
 11 16  1  0
 16 17  1  0
 17 18  1  0
 18 19  2  0
 18 20  1  0
 20 21  2  0
 21 22  1  0
 22 23  1  0
 22 24  2  0
 24 25  1  0
 25 26  2  0
 26 27  1  0
 27 28  1  0
 28 29  1  0
 29 30  1  0
 30 31  1  0
 31 32  1  0
 32 33  1  0
 27 34  2  0
 34 35  1  0
 35 36  2  0
 16 37  2  0
  7  2  1  0
 37  8  1  0
 36 20  1  0
 36 25  1  0
 33 28  1  0
M  END
>  <smiles>  (308) 
C86526-P74

>  <fragmenstein_outcome>  (308) 
acceptable

>  <inchikey>  (308) 
YOAOFQJKGVIPQI-UHFFFAOYSA-N

>  <fragmenstein_mode>  (308) 
expansion

>  <HIPPO Pose ID>  (308) 
9300

>  <Energy>  (308) 
180.895336

>  <fragmenstein_error>  (308) 


>  <tags>  (308) 
{'openbind_xx01zvns2b_c1_fragmenstein', 'fragmenstein_placed'}

>  <ref_pdb>  (308) 
1

>  <scratch_subdir>  (308) 
/opt/xchem-fragalysis-2/maxwin/BulkDock/SCRATCH/511027/C86526-P74

>  <alias>  (308) 
C[C@@H]1CNCCN1c1ccc(S(C)(=O)=O)c(NC(=O)c2cc(Cl)cc3nc(C4CCNCC4)ccc23)c1

>  <HIPPO Compound ID>  (308) 
103697

>  <fragmenstein_runtime>  (308) 
11.427392

$$$$
CS(=O)(=O)c1ccc(N2CCNCC2)cc1NC(=O)c1cc(Cl)cc2nc(CC3CNC3)ccc12
     RDKit          3D

 35 39  0  0  0  0  0  0  0  0999 V2000
   -7.4752    9.1265  -12.9245 C   0  0  0  0  0  0  0  0  0  0  0  0
   -8.9725    8.2306  -12.5843 S   0  0  0  0  0  0  0  0  0  0  0  0
   -9.8636    9.1615  -11.9091 O   0  0  0  0  0  0  0  0  0  0  0  0
   -9.4674    7.5511  -13.7660 O   0  0  0  0  0  0  0  0  0  0  0  0
   -8.4948    6.9889  -11.4027 C   0  0  0  0  0  0  0  0  0  0  0  0
   -8.6188    7.3597  -10.0620 C   0  0  0  0  0  0  0  0  0  0  0  0
   -8.5793    6.3877   -9.0705 C   0  0  0  0  0  0  0  0  0  0  0  0
   -8.4801    5.0245   -9.3806 C   0  0  0  0  0  0  0  0  0  0  0  0
   -8.5678    4.0882   -8.3634 N   0  0  0  0  0  0  0  0  0  0  0  0
   -8.9493    2.6936   -8.6613 C   0  0  0  0  0  0  0  0  0  0  0  0
   -9.0397    1.8216   -7.3868 C   0  0  0  0  0  0  0  0  0  0  0  0
   -9.3843    2.5336   -6.1479 N   0  0  0  0  0  0  0  0  0  0  0  0
   -8.4599    3.6545   -5.9212 C   0  0  0  0  0  0  0  0  0  0  0  0
   -7.7543    4.2596   -7.1592 C   0  0  0  0  0  0  0  0  0  0  0  0
   -8.3587    4.6762  -10.7377 C   0  0  0  0  0  0  0  0  0  0  0  0
   -8.2980    5.6442  -11.7500 C   0  0  0  0  0  0  0  0  0  0  0  0
   -7.9970    5.1849  -13.0372 N   0  0  0  0  0  0  0  0  0  0  0  0
   -7.1863    5.8459  -14.1745 C   0  0  0  0  0  0  0  0  0  0  0  0
   -6.5778    6.8426  -14.1898 O   0  0  0  0  0  0  0  0  0  0  0  0
   -7.2974    5.1240  -15.4700 C   0  0  0  0  0  0  0  0  0  0  0  0
   -8.5813    4.8802  -15.9501 C   0  0  0  0  0  0  0  0  0  0  0  0
   -8.7455    4.5543  -17.2864 C   0  0  0  0  0  0  0  0  0  0  0  0
  -10.3378    4.4022  -17.8974 Cl  0  0  0  0  0  0  0  0  0  0  0  0
   -7.6505    4.4705  -18.1425 C   0  0  0  0  0  0  0  0  0  0  0  0
   -6.3602    4.6862  -17.6811 C   0  0  0  0  0  0  0  0  0  0  0  0
   -5.3390    4.6405  -18.5576 N   0  0  0  0  0  0  0  0  0  0  0  0
   -4.0768    4.8550  -18.1273 C   0  0  0  0  0  0  0  0  0  0  0  0
   -2.9765    4.8486  -19.1581 C   0  0  0  0  0  0  0  0  0  0  0  0
   -2.6122    6.2798  -19.5362 C   0  0  0  0  0  0  0  0  0  0  0  0
   -3.4435    6.9057  -20.6780 C   0  0  0  0  0  0  0  0  0  0  0  0
   -2.3676    6.5345  -21.6213 N   0  0  0  0  0  0  0  0  0  0  0  0
   -1.4186    6.4305  -20.5043 C   0  0  0  0  0  0  0  0  0  0  0  0
   -3.7853    5.1119  -16.7984 C   0  0  0  0  0  0  0  0  0  0  0  0
   -4.8359    5.1860  -15.8946 C   0  0  0  0  0  0  0  0  0  0  0  0
   -6.1666    4.9935  -16.3186 C   0  0  0  0  0  0  0  0  0  0  0  0
  1  2  1  0
  2  3  2  0
  2  4  2  0
  2  5  1  0
  5  6  2  0
  6  7  1  0
  7  8  2  0
  8  9  1  0
  9 10  1  0
 10 11  1  0
 11 12  1  0
 12 13  1  0
 13 14  1  0
  8 15  1  0
 15 16  2  0
 16 17  1  0
 17 18  1  0
 18 19  2  0
 18 20  1  0
 20 21  2  0
 21 22  1  0
 22 23  1  0
 22 24  2  0
 24 25  1  0
 25 26  2  0
 26 27  1  0
 27 28  1  0
 28 29  1  0
 29 30  1  0
 30 31  1  0
 31 32  1  0
 27 33  2  0
 33 34  1  0
 34 35  2  0
 16  5  1  0
 35 20  1  0
 14  9  1  0
 35 25  1  0
 32 29  1  0
M  END
>  <smiles>  (309) 
C86528-P74

>  <fragmenstein_outcome>  (309) 
acceptable

>  <inchikey>  (309) 
WXZSQZFWMNUCCG-UHFFFAOYSA-N

>  <fragmenstein_mode>  (309) 
expansion

>  <HIPPO Pose ID>  (309) 
9301

>  <Energy>  (309) 
179.008154

>  <fragmenstein_error>  (309) 


>  <tags>  (309) 
{'openbind_xx01zvns2b_c1_fragmenstein', 'fragmenstein_placed'}

>  <ref_pdb>  (309) 
1

>  <scratch_subdir>  (309) 
/opt/xchem-fragalysis-2/maxwin/BulkDock/SCRATCH/511027/C86528-P74

>  <alias>  (309) 
CS(=O)(=O)c1ccc(N2CCNCC2)cc1NC(=O)c1cc(Cl)cc2nc(CC3CNC3)ccc12

>  <HIPPO Compound ID>  (309) 
101052

>  <fragmenstein_runtime>  (309) 
6.454754

$$$$
Cc1ncc(-c2c(C(=O)Nc3cnn(C)c3)ccc(C)c2C)cn1
     RDKit          3D

 24 26  0  0  0  0  0  0  0  0999 V2000
   -1.5537    7.5012  -15.2983 C   0  0  0  0  0  0  0  0  0  0  0  0
   -2.9009    6.9329  -15.6017 C   0  0  0  0  0  0  0  0  0  0  0  0
   -3.1966    5.7305  -15.0762 N   0  0  0  0  0  0  0  0  0  0  0  0
   -4.4159    5.2378  -15.3734 C   0  0  0  0  0  0  0  0  0  0  0  0
   -5.3326    5.8655  -16.1955 C   0  0  0  0  0  0  0  0  0  0  0  0
   -6.6191    5.2615  -16.5512 C   0  0  0  0  0  0  0  0  0  0  0  0
   -7.6226    5.0708  -15.5709 C   0  0  0  0  0  0  0  0  0  0  0  0
   -7.5088    5.6348  -14.1978 C   0  0  0  0  0  0  0  0  0  0  0  0
   -7.2289    6.7619  -14.0777 O   0  0  0  0  0  0  0  0  0  0  0  0
   -7.8997    4.5805  -13.1365 N   0  0  0  0  0  0  0  0  0  0  0  0
   -7.9338    4.6642  -11.7757 C   0  0  0  0  0  0  0  0  0  0  0  0
   -8.2031    3.6620  -10.8224 C   0  0  0  0  0  0  0  0  0  0  0  0
   -8.1503    4.1330   -9.5722 N   0  0  0  0  0  0  0  0  0  0  0  0
   -7.8742    5.4374   -9.7377 N   0  0  0  0  0  0  0  0  0  0  0  0
   -7.7531    6.2888   -8.5822 C   0  0  0  0  0  0  0  0  0  0  0  0
   -7.7264    5.8033  -11.0410 C   0  0  0  0  0  0  0  0  0  0  0  0
   -8.8397    4.4702  -15.8879 C   0  0  0  0  0  0  0  0  0  0  0  0
   -9.0867    4.0646  -17.1819 C   0  0  0  0  0  0  0  0  0  0  0  0
   -8.1130    4.2234  -18.1750 C   0  0  0  0  0  0  0  0  0  0  0  0
   -8.4947    3.6968  -19.5172 C   0  0  0  0  0  0  0  0  0  0  0  0
   -6.8689    4.8185  -17.8804 C   0  0  0  0  0  0  0  0  0  0  0  0
   -5.8488    5.0361  -18.9821 C   0  0  0  0  0  0  0  0  0  0  0  0
   -4.9095    7.0884  -16.6801 C   0  0  0  0  0  0  0  0  0  0  0  0
   -3.7067    7.6389  -16.4165 N   0  0  0  0  0  0  0  0  0  0  0  0
  1  2  1  0
  2  3  2  0
  3  4  1  0
  4  5  2  0
  5  6  1  0
  6  7  1  0
  7  8  1  0
  8  9  2  0
  8 10  1  0
 10 11  1  0
 11 12  1  0
 12 13  2  0
 13 14  1  0
 14 15  1  0
 14 16  1  0
  7 17  2  0
 17 18  1  0
 18 19  2  0
 19 20  1  0
 19 21  1  0
 21 22  1  0
  5 23  1  0
 23 24  2  0
 24  2  1  0
 21  6  2  0
 16 11  2  0
M  END
>  <smiles>  (310) 
C86577-P75

>  <fragmenstein_outcome>  (310) 
acceptable

>  <inchikey>  (310) 
OHWSAUTYZDQULH-UHFFFAOYSA-N

>  <fragmenstein_mode>  (310) 
expansion

>  <HIPPO Pose ID>  (310) 
9327

>  <Energy>  (310) 
72.165624

>  <fragmenstein_error>  (310) 


>  <tags>  (310) 
{'openbind_xx01zvns2b_c1_fragmenstein', 'fragmenstein_placed'}

>  <ref_pdb>  (310) 
1

>  <scratch_subdir>  (310) 
/opt/xchem-fragalysis-2/maxwin/BulkDock/SCRATCH/511027/C86577-P75

>  <alias>  (310) 
Cc1ncc(-c2c(C(=O)Nc3cnn(C)c3)ccc(C)c2C)cn1

>  <HIPPO Compound ID>  (310) 
86577

>  <fragmenstein_runtime>  (310) 
2.844524

$$$$
Cc1ncc(-c2ccccc2C(=O)Nc2cnn(C)c2)c(F)n1
     RDKit          3D

 23 25  0  0  0  0  0  0  0  0999 V2000
   -1.6635    7.1621  -15.1491 C   0  0  0  0  0  0  0  0  0  0  0  0
   -2.9298    6.5389  -15.6393 C   0  0  0  0  0  0  0  0  0  0  0  0
   -3.5324    5.6397  -14.8494 N   0  0  0  0  0  0  0  0  0  0  0  0
   -4.7221    5.1596  -15.2782 C   0  0  0  0  0  0  0  0  0  0  0  0
   -5.3416    5.5111  -16.4641 C   0  0  0  0  0  0  0  0  0  0  0  0
   -6.6569    4.9790  -16.8832 C   0  0  0  0  0  0  0  0  0  0  0  0
   -6.8679    4.5784  -18.2170 C   0  0  0  0  0  0  0  0  0  0  0  0
   -8.0920    4.0547  -18.6473 C   0  0  0  0  0  0  0  0  0  0  0  0
   -9.1371    3.8878  -17.7508 C   0  0  0  0  0  0  0  0  0  0  0  0
   -8.9664    4.2654  -16.4251 C   0  0  0  0  0  0  0  0  0  0  0  0
   -7.7539    4.8294  -15.9998 C   0  0  0  0  0  0  0  0  0  0  0  0
   -7.7381    5.4337  -14.6386 C   0  0  0  0  0  0  0  0  0  0  0  0
   -7.4647    6.5646  -14.5448 O   0  0  0  0  0  0  0  0  0  0  0  0
   -8.0848    4.3938  -13.5505 N   0  0  0  0  0  0  0  0  0  0  0  0
   -8.0756    4.4984  -12.1873 C   0  0  0  0  0  0  0  0  0  0  0  0
   -8.2740    3.5070  -11.2053 C   0  0  0  0  0  0  0  0  0  0  0  0
   -8.1536    3.9930   -9.9654 N   0  0  0  0  0  0  0  0  0  0  0  0
   -7.9183    5.3009  -10.1597 N   0  0  0  0  0  0  0  0  0  0  0  0
   -7.7460    6.1669   -9.0201 C   0  0  0  0  0  0  0  0  0  0  0  0
   -7.8487    5.6508  -11.4754 C   0  0  0  0  0  0  0  0  0  0  0  0
   -4.5733    6.3931  -17.2064 C   0  0  0  0  0  0  0  0  0  0  0  0
   -4.9612    6.7307  -18.4444 F   0  0  0  0  0  0  0  0  0  0  0  0
   -3.3996    6.9389  -16.8232 N   0  0  0  0  0  0  0  0  0  0  0  0
  1  2  1  0
  2  3  2  0
  3  4  1  0
  4  5  2  0
  5  6  1  0
  6  7  2  0
  7  8  1  0
  8  9  2  0
  9 10  1  0
 10 11  2  0
 11 12  1  0
 12 13  2  0
 12 14  1  0
 14 15  1  0
 15 16  1  0
 16 17  2  0
 17 18  1  0
 18 19  1  0
 18 20  1  0
  5 21  1  0
 21 22  1  0
 21 23  2  0
 23  2  1  0
 11  6  1  0
 20 15  2  0
M  END
>  <smiles>  (311) 
C86604-P75

>  <fragmenstein_outcome>  (311) 
acceptable

>  <inchikey>  (311) 
SOFWPAQJUMXWMN-UHFFFAOYSA-N

>  <fragmenstein_mode>  (311) 
expansion

>  <HIPPO Pose ID>  (311) 
9343

>  <Energy>  (311) 
45.000174

>  <fragmenstein_error>  (311) 


>  <tags>  (311) 
{'openbind_xx01zvns2b_c1_fragmenstein', 'fragmenstein_placed'}

>  <ref_pdb>  (311) 
1

>  <scratch_subdir>  (311) 
/opt/xchem-fragalysis-2/maxwin/BulkDock/SCRATCH/511027/C86604-P75

>  <alias>  (311) 
Cc1ncc(-c2ccccc2C(=O)Nc2cnn(C)c2)c(F)n1

>  <HIPPO Compound ID>  (311) 
82587

>  <fragmenstein_runtime>  (311) 
2.572339

$$$$
Cc1cc(NC(=O)c2cccc3c2[C@]2(CN[C@@H](C)NC2)[C@@H](C(C)C)N3)cn1CN
     RDKit          3D

 29 32  0  0  0  0  0  0  0  0999 V2000
   -8.8239    2.4075   -8.6386 C   0  0  0  0  0  0  0  0  0  0  0  0
   -8.4613    3.3014   -9.7769 C   0  0  0  0  0  0  0  0  0  0  0  0
   -8.3689    2.9645  -11.1154 C   0  0  0  0  0  0  0  0  0  0  0  0
   -8.1084    4.1321  -11.8499 C   0  0  0  0  0  0  0  0  0  0  0  0
   -7.9890    4.2219  -13.2040 N   0  0  0  0  0  0  0  0  0  0  0  0
   -7.9205    5.4540  -14.1214 C   0  0  0  0  0  0  0  0  0  0  0  0
   -8.0324    6.5875  -13.8741 O   0  0  0  0  0  0  0  0  0  0  0  0
   -7.7242    5.0481  -15.5283 C   0  0  0  0  0  0  0  0  0  0  0  0
   -8.8279    4.4283  -16.1412 C   0  0  0  0  0  0  0  0  0  0  0  0
   -8.8215    4.1405  -17.5054 C   0  0  0  0  0  0  0  0  0  0  0  0
   -7.7109    4.4758  -18.2682 C   0  0  0  0  0  0  0  0  0  0  0  0
   -6.6226    5.0799  -17.6505 C   0  0  0  0  0  0  0  0  0  0  0  0
   -6.5830    5.3403  -16.2782 C   0  0  0  0  0  0  0  0  0  0  0  0
   -5.1728    5.8360  -15.9085 C   0  0  1  0  0  0  0  0  0  0  0  0
   -5.1470    7.0487  -14.9600 C   0  0  0  0  0  0  0  0  0  0  0  0
   -3.8802    7.2816  -14.2595 N   0  0  0  0  0  0  0  0  0  0  0  0
   -3.4077    6.1190  -13.5384 C   0  0  1  0  0  0  0  0  0  0  0  0
   -4.2585    5.7280  -12.3289 C   0  0  0  0  0  0  0  0  0  0  0  0
   -3.1991    5.0632  -14.5073 N   0  0  0  0  0  0  0  0  0  0  0  0
   -4.4285    4.6877  -15.2120 C   0  0  0  0  0  0  0  0  0  0  0  0
   -4.6541    6.2147  -17.3680 C   0  0  1  0  0  0  0  0  0  0  0  0
   -3.1789    6.1895  -17.8608 C   0  0  0  0  0  0  0  0  0  0  0  0
   -2.1621    6.9662  -17.0373 C   0  0  0  0  0  0  0  0  0  0  0  0
   -2.6201    4.8108  -18.1947 C   0  0  0  0  0  0  0  0  0  0  0  0
   -5.4259    5.3777  -18.3150 N   0  0  0  0  0  0  0  0  0  0  0  0
   -7.9988    5.1629  -10.9508 C   0  0  0  0  0  0  0  0  0  0  0  0
   -8.1461    4.6435   -9.6835 N   0  0  0  0  0  0  0  0  0  0  0  0
   -7.9423    5.4195   -8.4667 C   0  0  0  0  0  0  0  0  0  0  0  0
   -6.6480    5.0187   -7.9050 N   0  0  0  0  0  0  0  0  0  0  0  0
  1  2  1  0
  2  3  2  0
  3  4  1  0
  4  5  1  0
  5  6  1  0
  6  7  2  0
  6  8  1  0
  8  9  2  0
  9 10  1  0
 10 11  2  0
 11 12  1  0
 12 13  2  0
 13 14  1  0
 14 15  1  1
 15 16  1  0
 16 17  1  0
 17 18  1  1
 17 19  1  0
 19 20  1  0
 14 21  1  0
 21 22  1  1
 22 23  1  0
 22 24  1  0
 21 25  1  0
  4 26  2  0
 26 27  1  0
 27 28  1  0
 28 29  1  0
 27  2  1  0
 13  8  1  0
 20 14  1  0
 25 12  1  0
M  END
>  <smiles>  (312) 
C86655-P75

>  <fragmenstein_outcome>  (312) 
acceptable

>  <inchikey>  (312) 
OFASZNQROFWTPT-UHFFFAOYSA-N

>  <fragmenstein_mode>  (312) 
expansion

>  <HIPPO Pose ID>  (312) 
9366

>  <Energy>  (312) 
34.747162

>  <fragmenstein_error>  (312) 


>  <tags>  (312) 
{'openbind_xx01zvns2b_c1_fragmenstein', 'fragmenstein_placed'}

>  <ref_pdb>  (312) 
1

>  <scratch_subdir>  (312) 
/opt/xchem-fragalysis-2/maxwin/BulkDock/SCRATCH/511027/C86655-P75

>  <alias>  (312) 
Cc1cc(NC(=O)c2cccc3c2[C@]2(CN[C@@H](C)NC2)[C@@H](C(C)C)N3)cn1CN

>  <HIPPO Compound ID>  (312) 
104957

>  <fragmenstein_runtime>  (312) 
10.854142

$$$$
Cc1ncc(-c2ccccc2C(=O)N[C@H]2CN(C)[C@@]3(CCNC3)C2)cn1
     RDKit          3D

 26 29  0  0  0  0  0  0  0  0999 V2000
   -1.7943    7.4435  -15.5526 C   0  0  0  0  0  0  0  0  0  0  0  0
   -3.0940    6.8288  -15.9617 C   0  0  0  0  0  0  0  0  0  0  0  0
   -3.4774    5.7143  -15.3171 N   0  0  0  0  0  0  0  0  0  0  0  0
   -4.6589    5.1854  -15.7033 C   0  0  0  0  0  0  0  0  0  0  0  0
   -5.4591    5.6868  -16.7164 C   0  0  0  0  0  0  0  0  0  0  0  0
   -6.7456    5.0917  -17.0967 C   0  0  0  0  0  0  0  0  0  0  0  0
   -6.9748    4.6758  -18.4170 C   0  0  0  0  0  0  0  0  0  0  0  0
   -8.1862    4.0830  -18.7893 C   0  0  0  0  0  0  0  0  0  0  0  0
   -9.1914    3.8779  -17.8513 C   0  0  0  0  0  0  0  0  0  0  0  0
   -8.9917    4.2729  -16.5359 C   0  0  0  0  0  0  0  0  0  0  0  0
   -7.7920    4.8961  -16.1744 C   0  0  0  0  0  0  0  0  0  0  0  0
   -7.6724    5.4230  -14.7957 C   0  0  0  0  0  0  0  0  0  0  0  0
   -7.5090    6.5606  -14.6261 O   0  0  0  0  0  0  0  0  0  0  0  0
   -7.6966    4.2658  -13.7981 N   0  0  0  0  0  0  0  0  0  0  0  0
   -7.4320    4.2444  -12.3917 C   0  0  1  0  0  0  0  0  0  0  0  0
   -7.7151    5.5327  -11.6123 C   0  0  0  0  0  0  0  0  0  0  0  0
   -8.2078    5.1008  -10.2942 N   0  0  0  0  0  0  0  0  0  0  0  0
   -7.6727    5.8859   -9.1967 C   0  0  0  0  0  0  0  0  0  0  0  0
   -8.0681    3.6350  -10.1981 C   0  0  2  0  0  0  0  0  0  0  0  0
   -9.1210    2.9850   -9.2912 C   0  0  0  0  0  0  0  0  0  0  0  0
   -8.3932    1.8977   -8.5281 C   0  0  0  0  0  0  0  0  0  0  0  0
   -7.1466    1.6826   -9.2767 N   0  0  0  0  0  0  0  0  0  0  0  0
   -6.7532    3.0344   -9.6723 C   0  0  0  0  0  0  0  0  0  0  0  0
   -8.2530    3.2063  -11.6609 C   0  0  0  0  0  0  0  0  0  0  0  0
   -4.9393    6.8150  -17.3203 C   0  0  0  0  0  0  0  0  0  0  0  0
   -3.7736    7.4062  -16.9707 N   0  0  0  0  0  0  0  0  0  0  0  0
  1  2  1  0
  2  3  2  0
  3  4  1  0
  4  5  2  0
  5  6  1  0
  6  7  2  0
  7  8  1  0
  8  9  2  0
  9 10  1  0
 10 11  2  0
 11 12  1  0
 12 13  2  0
 12 14  1  0
 15 14  1  6
 15 16  1  0
 16 17  1  0
 17 18  1  0
 17 19  1  0
 19 20  1  1
 20 21  1  0
 21 22  1  0
 22 23  1  0
 19 24  1  0
  5 25  1  0
 25 26  2  0
 26  2  1  0
 11  6  1  0
 24 15  1  0
 23 19  1  0
M  END
>  <smiles>  (313) 
C86659-P75

>  <fragmenstein_outcome>  (313) 
acceptable

>  <inchikey>  (313) 
CLPSFMBFVCMXRB-UHFFFAOYSA-N

>  <fragmenstein_mode>  (313) 
expansion

>  <HIPPO Pose ID>  (313) 
9369

>  <Energy>  (313) 
105.515374

>  <fragmenstein_error>  (313) 


>  <tags>  (313) 
{'openbind_xx01zvns2b_c1_fragmenstein', 'fragmenstein_placed'}

>  <ref_pdb>  (313) 
1

>  <scratch_subdir>  (313) 
/opt/xchem-fragalysis-2/maxwin/BulkDock/SCRATCH/511027/C86659-P75

>  <alias>  (313) 
Cc1ncc(-c2ccccc2C(=O)N[C@H]2CN(C)[C@@]3(CCNC3)C2)cn1

>  <HIPPO Compound ID>  (313) 
87258

>  <fragmenstein_runtime>  (313) 
4.414135

$$$$
Cc1ncc(-c2ccc(Cl)cc2C(=O)N[C@@H]2CN(C)[C@]3(CNCCOC3)C2)cn1
     RDKit          3D

 29 32  0  0  0  0  0  0  0  0999 V2000
   -1.5141    7.4481  -15.3002 C   0  0  0  0  0  0  0  0  0  0  0  0
   -2.7968    6.8086  -15.7187 C   0  0  0  0  0  0  0  0  0  0  0  0
   -3.1828    5.7049  -15.0545 N   0  0  0  0  0  0  0  0  0  0  0  0
   -4.3749    5.1837  -15.4111 C   0  0  0  0  0  0  0  0  0  0  0  0
   -5.1823    5.6939  -16.4098 C   0  0  0  0  0  0  0  0  0  0  0  0
   -6.4718    5.1193  -16.7786 C   0  0  0  0  0  0  0  0  0  0  0  0
   -6.7272    4.7668  -18.1207 C   0  0  0  0  0  0  0  0  0  0  0  0
   -7.9862    4.3194  -18.5288 C   0  0  0  0  0  0  0  0  0  0  0  0
   -9.0014    4.2114  -17.5946 C   0  0  0  0  0  0  0  0  0  0  0  0
  -10.6083    3.9224  -18.0628 Cl  0  0  0  0  0  0  0  0  0  0  0  0
   -8.7617    4.4726  -16.2597 C   0  0  0  0  0  0  0  0  0  0  0  0
   -7.5074    4.9349  -15.8510 C   0  0  0  0  0  0  0  0  0  0  0  0
   -7.4743    5.4346  -14.4523 C   0  0  0  0  0  0  0  0  0  0  0  0
   -7.2160    6.5497  -14.2445 O   0  0  0  0  0  0  0  0  0  0  0  0
   -7.9120    4.3188  -13.4929 N   0  0  0  0  0  0  0  0  0  0  0  0
   -8.2147    4.3603  -12.0991 C   0  0  2  0  0  0  0  0  0  0  0  0
   -8.2636    5.7205  -11.4308 C   0  0  0  0  0  0  0  0  0  0  0  0
   -8.5534    5.3653  -10.0294 N   0  0  0  0  0  0  0  0  0  0  0  0
   -8.1490    6.4435   -9.1376 C   0  0  0  0  0  0  0  0  0  0  0  0
   -7.9876    3.9933   -9.7726 C   0  0  1  0  0  0  0  0  0  0  0  0
   -6.9580    3.8916   -8.6275 C   0  0  0  0  0  0  0  0  0  0  0  0
   -7.3603    4.0178   -7.2020 N   0  0  0  0  0  0  0  0  0  0  0  0
   -8.7287    3.5805   -6.8958 C   0  0  0  0  0  0  0  0  0  0  0  0
   -9.0894    2.1573   -7.3273 C   0  0  0  0  0  0  0  0  0  0  0  0
   -8.7673    1.8819   -8.6834 O   0  0  0  0  0  0  0  0  0  0  0  0
   -9.1264    2.9346   -9.5685 C   0  0  0  0  0  0  0  0  0  0  0  0
   -7.3169    3.6196  -11.1344 C   0  0  0  0  0  0  0  0  0  0  0  0
   -4.6727    6.8242  -17.0220 C   0  0  0  0  0  0  0  0  0  0  0  0
   -3.4986    7.4046  -16.6999 N   0  0  0  0  0  0  0  0  0  0  0  0
  1  2  1  0
  2  3  2  0
  3  4  1  0
  4  5  2  0
  5  6  1  0
  6  7  2  0
  7  8  1  0
  8  9  2  0
  9 10  1  0
  9 11  1  0
 11 12  2  0
 12 13  1  0
 13 14  2  0
 13 15  1  0
 16 15  1  6
 16 17  1  0
 17 18  1  0
 18 19  1  0
 18 20  1  0
 20 21  1  1
 21 22  1  0
 22 23  1  0
 23 24  1  0
 24 25  1  0
 25 26  1  0
 20 27  1  0
  5 28  1  0
 28 29  2  0
 29  2  1  0
 12  6  1  0
 27 16  1  0
 26 20  1  0
M  END
>  <smiles>  (314) 
C86661-P75

>  <fragmenstein_outcome>  (314) 
acceptable

>  <inchikey>  (314) 
AGLAHIJUWOGBTP-UHFFFAOYSA-N

>  <fragmenstein_mode>  (314) 
expansion

>  <HIPPO Pose ID>  (314) 
9371

>  <Energy>  (314) 
158.931924

>  <fragmenstein_error>  (314) 


>  <tags>  (314) 
{'openbind_xx01zvns2b_c1_fragmenstein', 'fragmenstein_placed'}

>  <ref_pdb>  (314) 
1

>  <scratch_subdir>  (314) 
/opt/xchem-fragalysis-2/maxwin/BulkDock/SCRATCH/511027/C86661-P75

>  <alias>  (314) 
Cc1ncc(-c2ccc(Cl)cc2C(=O)N[C@@H]2CN(C)[C@]3(CNCCOC3)C2)cn1

>  <HIPPO Compound ID>  (314) 
88050

>  <fragmenstein_runtime>  (314) 
4.77104

$$$$
CNC(=O)[C@@](O)(N[C@H]1C[C@H]2CCO[C@@H](O)[C@@H]2C1)c1cc(Cl)ccc1-c1cnc(C)nc1
     RDKit          3D

 31 34  0  0  0  0  0  0  0  0999 V2000
   -8.5821    8.8548  -12.3800 C   0  0  0  0  0  0  0  0  0  0  0  0
   -8.0547    7.6573  -12.9601 N   0  0  0  0  0  0  0  0  0  0  0  0
   -8.7712    6.5057  -13.7370 C   0  0  0  0  0  0  0  0  0  0  0  0
   -9.8852    6.4041  -14.0843 O   0  0  0  0  0  0  0  0  0  0  0  0
   -7.6068    5.3863  -14.0757 C   0  0  1  0  0  0  0  0  0  0  0  0
   -6.3468    5.9183  -13.7025 O   0  0  0  0  0  0  0  0  0  0  0  0
   -7.9251    4.2114  -13.2651 N   0  0  0  0  0  0  0  0  0  0  0  0
   -7.3804    4.1234  -11.9171 C   0  0  1  0  0  0  0  0  0  0  0  0
   -7.5157    5.3447  -10.9806 C   0  0  0  0  0  0  0  0  0  0  0  0
   -7.4933    4.7010   -9.6083 C   0  0  1  0  0  0  0  0  0  0  0  0
   -7.9041    5.5432   -8.4166 C   0  0  0  0  0  0  0  0  0  0  0  0
   -8.0789    4.6178   -7.2083 C   0  0  0  0  0  0  0  0  0  0  0  0
   -8.9904    3.5577   -7.4725 O   0  0  0  0  0  0  0  0  0  0  0  0
   -8.6025    2.7235   -8.5723 C   0  0  1  0  0  0  0  0  0  0  0  0
   -9.5686    1.7073   -8.7270 O   0  0  0  0  0  0  0  0  0  0  0  0
   -8.4871    3.5712   -9.8204 C   0  0  2  0  0  0  0  0  0  0  0  0
   -8.0313    2.9462  -11.1338 C   0  0  0  0  0  0  0  0  0  0  0  0
   -7.6383    5.0105  -15.5941 C   0  0  0  0  0  0  0  0  0  0  0  0
   -8.8606    4.4981  -16.0820 C   0  0  0  0  0  0  0  0  0  0  0  0
   -9.0836    4.2612  -17.4353 C   0  0  0  0  0  0  0  0  0  0  0  0
  -10.6702    3.9874  -17.9824 Cl  0  0  0  0  0  0  0  0  0  0  0  0
   -8.0614    4.3788  -18.3509 C   0  0  0  0  0  0  0  0  0  0  0  0
   -6.8194    4.8009  -17.9035 C   0  0  0  0  0  0  0  0  0  0  0  0
   -6.5869    5.1515  -16.5469 C   0  0  0  0  0  0  0  0  0  0  0  0
   -5.2578    5.6926  -16.2690 C   0  0  0  0  0  0  0  0  0  0  0  0
   -4.3194    5.0751  -15.4667 C   0  0  0  0  0  0  0  0  0  0  0  0
   -3.1045    5.5920  -15.1866 N   0  0  0  0  0  0  0  0  0  0  0  0
   -2.8247    6.7895  -15.7291 C   0  0  0  0  0  0  0  0  0  0  0  0
   -1.4895    7.3854  -15.4256 C   0  0  0  0  0  0  0  0  0  0  0  0
   -3.6481    7.4770  -16.5412 N   0  0  0  0  0  0  0  0  0  0  0  0
   -4.8366    6.8985  -16.8040 C   0  0  0  0  0  0  0  0  0  0  0  0
  1  2  1  0
  2  3  1  0
  3  4  2  0
  3  5  1  0
  5  6  1  1
  5  7  1  0
  8  7  1  6
  8  9  1  0
 10  9  1  6
 10 11  1  0
 11 12  1  0
 12 13  1  0
 13 14  1  0
 14 15  1  6
 14 16  1  0
 16 17  1  6
  5 18  1  0
 18 19  2  0
 19 20  1  0
 20 21  1  0
 20 22  2  0
 22 23  1  0
 23 24  2  0
 24 25  1  0
 25 26  2  0
 26 27  1  0
 27 28  2  0
 28 29  1  0
 28 30  1  0
 30 31  2  0
 17  8  1  0
 24 18  1  0
 31 25  1  0
 16 10  1  0
M  END
>  <smiles>  (315) 
C86662-P75

>  <fragmenstein_outcome>  (315) 
acceptable

>  <inchikey>  (315) 
KWWZTONRIRQCFL-UHFFFAOYSA-N

>  <fragmenstein_mode>  (315) 
expansion

>  <HIPPO Pose ID>  (315) 
9372

>  <Energy>  (315) 
93.314756

>  <fragmenstein_error>  (315) 


>  <tags>  (315) 
{'openbind_xx01zvns2b_c1_fragmenstein', 'fragmenstein_placed'}

>  <ref_pdb>  (315) 
1

>  <scratch_subdir>  (315) 
/opt/xchem-fragalysis-2/maxwin/BulkDock/SCRATCH/511027/C86662-P75

>  <alias>  (315) 
CNC(=O)[C@@](O)(N[C@H]1C[C@H]2CCO[C@@H](O)[C@@H]2C1)c1cc(Cl)ccc1-c1cnc(C)nc1

>  <HIPPO Compound ID>  (315) 
90793

>  <fragmenstein_runtime>  (315) 
5.750886

$$$$
CNCc1ncc(-c2ccc(Cl)cc2C(=O)Nc2cc(C)n([C@@H]3CCNC3)c2)cn1
     RDKit          3D

 30 33  0  0  0  0  0  0  0  0999 V2000
   -1.7220    7.3266  -12.7222 C   0  0  0  0  0  0  0  0  0  0  0  0
   -1.4567    8.0807  -13.9422 N   0  0  0  0  0  0  0  0  0  0  0  0
   -1.4192    7.2095  -15.1340 C   0  0  0  0  0  0  0  0  0  0  0  0
   -2.7574    6.6322  -15.5522 C   0  0  0  0  0  0  0  0  0  0  0  0
   -3.1418    5.4801  -14.9682 N   0  0  0  0  0  0  0  0  0  0  0  0
   -4.3767    5.0397  -15.2706 C   0  0  0  0  0  0  0  0  0  0  0  0
   -5.2214    5.6598  -16.1672 C   0  0  0  0  0  0  0  0  0  0  0  0
   -6.5260    5.1279  -16.5399 C   0  0  0  0  0  0  0  0  0  0  0  0
   -6.7598    4.8277  -17.8971 C   0  0  0  0  0  0  0  0  0  0  0  0
   -8.0128    4.4170  -18.3376 C   0  0  0  0  0  0  0  0  0  0  0  0
   -9.0417    4.2834  -17.4200 C   0  0  0  0  0  0  0  0  0  0  0  0
  -10.6296    4.0210  -17.9773 Cl  0  0  0  0  0  0  0  0  0  0  0  0
   -8.8239    4.4894  -16.0647 C   0  0  0  0  0  0  0  0  0  0  0  0
   -7.5751    4.9287  -15.6214 C   0  0  0  0  0  0  0  0  0  0  0  0
   -7.4774    5.3529  -14.1948 C   0  0  0  0  0  0  0  0  0  0  0  0
   -7.0964    6.4298  -13.9542 O   0  0  0  0  0  0  0  0  0  0  0  0
   -8.0031    4.2433  -13.2563 N   0  0  0  0  0  0  0  0  0  0  0  0
   -8.0766    4.1955  -11.8943 C   0  0  0  0  0  0  0  0  0  0  0  0
   -8.4827    3.0884  -11.1295 C   0  0  0  0  0  0  0  0  0  0  0  0
   -8.4398    3.4394   -9.7925 C   0  0  0  0  0  0  0  0  0  0  0  0
   -8.7645    2.5667   -8.6241 C   0  0  0  0  0  0  0  0  0  0  0  0
   -8.0393    4.7629   -9.7370 N   0  0  0  0  0  0  0  0  0  0  0  0
   -7.8600    5.5422   -8.5236 C   0  0  2  0  0  0  0  0  0  0  0  0
   -8.0719    7.0570   -8.6374 C   0  0  0  0  0  0  0  0  0  0  0  0
   -6.6961    7.6493   -8.3872 C   0  0  0  0  0  0  0  0  0  0  0  0
   -6.0769    6.7256   -7.4251 N   0  0  0  0  0  0  0  0  0  0  0  0
   -6.4438    5.3955   -7.9530 C   0  0  0  0  0  0  0  0  0  0  0  0
   -7.7847    5.2078  -11.0160 C   0  0  0  0  0  0  0  0  0  0  0  0
   -4.7173    6.8290  -16.7086 C   0  0  0  0  0  0  0  0  0  0  0  0
   -3.5057    7.3426  -16.4209 N   0  0  0  0  0  0  0  0  0  0  0  0
  1  2  1  0
  2  3  1  0
  3  4  1  0
  4  5  2  0
  5  6  1  0
  6  7  2  0
  7  8  1  0
  8  9  2  0
  9 10  1  0
 10 11  2  0
 11 12  1  0
 11 13  1  0
 13 14  2  0
 14 15  1  0
 15 16  2  0
 15 17  1  0
 17 18  1  0
 18 19  1  0
 19 20  2  0
 20 21  1  0
 20 22  1  0
 23 22  1  6
 23 24  1  0
 24 25  1  0
 25 26  1  0
 26 27  1  0
 22 28  1  0
  7 29  1  0
 29 30  2  0
 30  4  1  0
 14  8  1  0
 28 18  2  0
 27 23  1  0
M  END
>  <smiles>  (316) 
C86673-P75

>  <fragmenstein_outcome>  (316) 
acceptable

>  <inchikey>  (316) 
KNTPWGLVJYBZLH-UHFFFAOYSA-N

>  <fragmenstein_mode>  (316) 
expansion

>  <HIPPO Pose ID>  (316) 
9379

>  <Energy>  (316) 
98.23311

>  <fragmenstein_error>  (316) 


>  <tags>  (316) 
{'openbind_xx01zvns2b_c1_fragmenstein', 'fragmenstein_placed'}

>  <ref_pdb>  (316) 
1

>  <scratch_subdir>  (316) 
/opt/xchem-fragalysis-2/maxwin/BulkDock/SCRATCH/511027/C86673-P75

>  <alias>  (316) 
CNCc1ncc(-c2ccc(Cl)cc2C(=O)Nc2cc(C)n([C@@H]3CCNC3)c2)cn1

>  <HIPPO Compound ID>  (316) 
75377

>  <fragmenstein_runtime>  (316) 
5.969725

$$$$
Cc1ncc(-c2ccccc2C(=O)N[C@@H]2C[C@]3(CCNC3)N(C)[C@H]2C#N)cn1
     RDKit          3D

 28 31  0  0  0  0  0  0  0  0999 V2000
   -1.7307    7.4449  -15.4643 C   0  0  0  0  0  0  0  0  0  0  0  0
   -3.0430    6.8231  -15.8171 C   0  0  0  0  0  0  0  0  0  0  0  0
   -3.3939    5.7071  -15.1554 N   0  0  0  0  0  0  0  0  0  0  0  0
   -4.5899    5.1744  -15.4839 C   0  0  0  0  0  0  0  0  0  0  0  0
   -5.4338    5.6727  -16.4604 C   0  0  0  0  0  0  0  0  0  0  0  0
   -6.7247    5.0643  -16.7966 C   0  0  0  0  0  0  0  0  0  0  0  0
   -6.9960    4.6914  -18.1268 C   0  0  0  0  0  0  0  0  0  0  0  0
   -8.2218    4.1276  -18.4867 C   0  0  0  0  0  0  0  0  0  0  0  0
   -9.1949    3.9009  -17.5210 C   0  0  0  0  0  0  0  0  0  0  0  0
   -8.9462    4.2382  -16.1925 C   0  0  0  0  0  0  0  0  0  0  0  0
   -7.7324    4.8346  -15.8363 C   0  0  0  0  0  0  0  0  0  0  0  0
   -7.6207    5.4104  -14.4696 C   0  0  0  0  0  0  0  0  0  0  0  0
   -7.5681    6.5694  -14.3754 O   0  0  0  0  0  0  0  0  0  0  0  0
   -7.5563    4.3199  -13.3900 N   0  0  0  0  0  0  0  0  0  0  0  0
   -7.3153    4.4200  -11.9574 C   0  0  2  0  0  0  0  0  0  0  0  0
   -7.9539    3.2965  -11.1675 C   0  0  0  0  0  0  0  0  0  0  0  0
   -8.1518    3.8724   -9.7590 C   0  0  1  0  0  0  0  0  0  0  0  0
   -9.1180    2.9602   -9.0073 C   0  0  0  0  0  0  0  0  0  0  0  0
   -8.8721    3.2029   -7.5410 C   0  0  0  0  0  0  0  0  0  0  0  0
   -7.5231    3.7796   -7.4449 N   0  0  0  0  0  0  0  0  0  0  0  0
   -6.9535    3.7575   -8.8173 C   0  0  0  0  0  0  0  0  0  0  0  0
   -8.5501    5.2727  -10.0353 N   0  0  0  0  0  0  0  0  0  0  0  0
   -8.4321    6.2468   -8.9522 C   0  0  0  0  0  0  0  0  0  0  0  0
   -7.8631    5.7078  -11.2940 C   0  0  1  0  0  0  0  0  0  0  0  0
   -6.7433    6.6769  -11.1462 C   0  0  0  0  0  0  0  0  0  0  0  0
   -5.8641    7.4218  -10.9897 N   0  0  0  0  0  0  0  0  0  0  0  0
   -4.9438    6.8006  -17.0918 C   0  0  0  0  0  0  0  0  0  0  0  0
   -3.7655    7.3946  -16.7989 N   0  0  0  0  0  0  0  0  0  0  0  0
  1  2  1  0
  2  3  2  0
  3  4  1  0
  4  5  2  0
  5  6  1  0
  6  7  2  0
  7  8  1  0
  8  9  2  0
  9 10  1  0
 10 11  2  0
 11 12  1  0
 12 13  2  0
 12 14  1  0
 15 14  1  6
 15 16  1  0
 17 16  1  6
 17 18  1  0
 18 19  1  0
 19 20  1  0
 20 21  1  0
 17 22  1  0
 22 23  1  0
 22 24  1  0
 24 25  1  1
 25 26  3  0
  5 27  1  0
 27 28  2  0
 28  2  1  0
 11  6  1  0
 24 15  1  0
 21 17  1  0
M  END
>  <smiles>  (317) 
C86688-P75

>  <fragmenstein_outcome>  (317) 
acceptable

>  <inchikey>  (317) 
UWJKSMAPYKOXBI-UHFFFAOYSA-N

>  <fragmenstein_mode>  (317) 
expansion

>  <HIPPO Pose ID>  (317) 
9398

>  <Energy>  (317) 
139.515287

>  <fragmenstein_error>  (317) 


>  <tags>  (317) 
{'openbind_xx01zvns2b_c1_fragmenstein', 'fragmenstein_placed'}

>  <ref_pdb>  (317) 
1

>  <scratch_subdir>  (317) 
/opt/xchem-fragalysis-2/maxwin/BulkDock/SCRATCH/511027/C86688-P75

>  <alias>  (317) 
Cc1ncc(-c2ccccc2C(=O)N[C@@H]2C[C@]3(CCNC3)N(C)[C@H]2C#N)cn1

>  <HIPPO Compound ID>  (317) 
102856

>  <fragmenstein_runtime>  (317) 
6.787198

$$$$
Cc1ncc(-c2ccccc2C(=O)N[C@@H]2CN(C)[C@@]3(CCCNC3)C2)c[n+]1[O-]
     RDKit          3D

 28 31  0  0  0  0  0  0  0  0999 V2000
   -1.7835    7.4767  -15.4982 C   0  0  0  0  0  0  0  0  0  0  0  0
   -3.0851    6.8578  -15.8750 C   0  0  0  0  0  0  0  0  0  0  0  0
   -3.8412    7.4154  -16.8676 N   0  0  0  0  0  0  0  0  0  0  0  0
   -5.0100    6.8129  -17.1835 C   0  0  0  0  0  0  0  0  0  0  0  0
   -5.5005    5.6760  -16.5634 C   0  0  0  0  0  0  0  0  0  0  0  0
   -6.7770    5.0613  -16.9467 C   0  0  0  0  0  0  0  0  0  0  0  0
   -6.9720    4.6367  -18.2736 C   0  0  0  0  0  0  0  0  0  0  0  0
   -8.1698    4.0429  -18.6764 C   0  0  0  0  0  0  0  0  0  0  0  0
   -9.1893    3.8347  -17.7576 C   0  0  0  0  0  0  0  0  0  0  0  0
   -9.0200    4.2340  -16.4359 C   0  0  0  0  0  0  0  0  0  0  0  0
   -7.8364    4.8668  -16.0351 C   0  0  0  0  0  0  0  0  0  0  0  0
   -7.8089    5.5152  -14.6919 C   0  0  0  0  0  0  0  0  0  0  0  0
   -7.5220    6.6417  -14.6407 O   0  0  0  0  0  0  0  0  0  0  0  0
   -8.2116    4.5405  -13.5794 N   0  0  0  0  0  0  0  0  0  0  0  0
   -8.2564    4.7181  -12.1497 C   0  0  2  0  0  0  0  0  0  0  0  0
   -7.0268    5.4217  -11.5709 C   0  0  0  0  0  0  0  0  0  0  0  0
   -6.6738    4.7018  -10.3381 N   0  0  0  0  0  0  0  0  0  0  0  0
   -6.1910    5.6103   -9.3082 C   0  0  0  0  0  0  0  0  0  0  0  0
   -7.8057    3.8096   -9.9782 C   0  0  2  0  0  0  0  0  0  0  0  0
   -8.8479    4.5149   -9.1020 C   0  0  0  0  0  0  0  0  0  0  0  0
   -8.6791    4.2494   -7.6033 C   0  0  0  0  0  0  0  0  0  0  0  0
   -8.8747    2.7577   -7.3301 C   0  0  0  0  0  0  0  0  0  0  0  0
   -8.4677    1.9288   -8.4578 N   0  0  0  0  0  0  0  0  0  0  0  0
   -7.3792    2.5224   -9.2498 C   0  0  0  0  0  0  0  0  0  0  0  0
   -8.3481    3.4283  -11.3669 C   0  0  0  0  0  0  0  0  0  0  0  0
   -4.7025    5.1476  -15.5519 C   0  0  0  0  0  0  0  0  0  0  0  0
   -3.4867    5.7105  -15.2079 N   0  0  0  0  0  0  0  0  0  0  0  0
   -2.7622    5.1566  -14.3164 O   0  0  0  0  0  0  0  0  0  0  0  0
  1  2  1  0
  2  3  2  0
  3  4  1  0
  4  5  2  0
  5  6  1  0
  6  7  2  0
  7  8  1  0
  8  9  2  0
  9 10  1  0
 10 11  2  0
 11 12  1  0
 12 13  2  0
 12 14  1  0
 15 14  1  6
 15 16  1  0
 16 17  1  0
 17 18  1  0
 17 19  1  0
 19 20  1  1
 20 21  1  0
 21 22  1  0
 22 23  1  0
 23 24  1  0
 19 25  1  0
  5 26  1  0
 26 27  2  0
 27 28  1  0
 27  2  1  0
 11  6  1  0
 25 15  1  0
 24 19  1  0
M  CHG  2  27   1  28  -1
M  END
>  <smiles>  (318) 
C86711-P75

>  <fragmenstein_outcome>  (318) 
acceptable

>  <inchikey>  (318) 
CDCRUJSOUPHSRA-UHFFFAOYSA-N

>  <fragmenstein_mode>  (318) 
expansion

>  <HIPPO Pose ID>  (318) 
9415

>  <Energy>  (318) 
140.489141

>  <fragmenstein_error>  (318) 


>  <tags>  (318) 
{'openbind_xx01zvns2b_c1_fragmenstein', 'fragmenstein_placed'}

>  <ref_pdb>  (318) 
1

>  <scratch_subdir>  (318) 
/opt/xchem-fragalysis-2/maxwin/BulkDock/SCRATCH/511027/C86711-P75

>  <alias>  (318) 
Cc1ncc(-c2ccccc2C(=O)N[C@@H]2CN(C)[C@@]3(CCCNC3)C2)c[n+]1[O-]

>  <HIPPO Compound ID>  (318) 
106651

>  <fragmenstein_runtime>  (318) 
4.493244

$$$$
CNCc1nc(C)ncc1-c1ccccc1C(=O)N[C@H]1CN(C)[C@@]2(CCNC2)C1
     RDKit          3D

 29 32  0  0  0  0  0  0  0  0999 V2000
   -3.2228    6.4500  -20.2669 C   0  0  0  0  0  0  0  0  0  0  0  0
   -4.5670    6.0121  -19.9248 N   0  0  0  0  0  0  0  0  0  0  0  0
   -5.1422    6.8368  -18.8446 C   0  0  0  0  0  0  0  0  0  0  0  0
   -4.6227    6.4726  -17.4648 C   0  0  0  0  0  0  0  0  0  0  0  0
   -3.4545    7.0878  -17.1188 N   0  0  0  0  0  0  0  0  0  0  0  0
   -2.8711    6.7155  -15.9670 C   0  0  0  0  0  0  0  0  0  0  0  0
   -1.6235    7.4241  -15.5519 C   0  0  0  0  0  0  0  0  0  0  0  0
   -3.3446    5.7749  -15.1455 N   0  0  0  0  0  0  0  0  0  0  0  0
   -4.5276    5.2321  -15.4992 C   0  0  0  0  0  0  0  0  0  0  0  0
   -5.2568    5.5419  -16.6427 C   0  0  0  0  0  0  0  0  0  0  0  0
   -6.5958    4.9646  -16.8862 C   0  0  0  0  0  0  0  0  0  0  0  0
   -6.9265    4.3933  -18.1245 C   0  0  0  0  0  0  0  0  0  0  0  0
   -8.2092    3.9185  -18.4031 C   0  0  0  0  0  0  0  0  0  0  0  0
   -9.1979    3.9638  -17.4391 C   0  0  0  0  0  0  0  0  0  0  0  0
   -8.8875    4.4436  -16.1783 C   0  0  0  0  0  0  0  0  0  0  0  0
   -7.6116    4.9576  -15.9111 C   0  0  0  0  0  0  0  0  0  0  0  0
   -7.3937    5.5339  -14.5596 C   0  0  0  0  0  0  0  0  0  0  0  0
   -7.0020    6.6186  -14.4412 O   0  0  0  0  0  0  0  0  0  0  0  0
   -7.6724    4.4650  -13.5121 N   0  0  0  0  0  0  0  0  0  0  0  0
   -7.4423    4.4638  -12.1074 C   0  0  1  0  0  0  0  0  0  0  0  0
   -7.7113    5.7830  -11.3751 C   0  0  0  0  0  0  0  0  0  0  0  0
   -8.2937    5.4067  -10.0738 N   0  0  0  0  0  0  0  0  0  0  0  0
   -7.7834    6.2117   -8.9799 C   0  0  0  0  0  0  0  0  0  0  0  0
   -8.1582    3.9463   -9.9365 C   0  0  2  0  0  0  0  0  0  0  0  0
   -9.1771    3.2806   -9.0163 C   0  0  0  0  0  0  0  0  0  0  0  0
   -8.5637    1.9376   -8.6665 C   0  0  0  0  0  0  0  0  0  0  0  0
   -7.2140    1.9690   -9.2427 N   0  0  0  0  0  0  0  0  0  0  0  0
   -6.8619    3.3850   -9.3546 C   0  0  0  0  0  0  0  0  0  0  0  0
   -8.3149    3.4708  -11.3872 C   0  0  0  0  0  0  0  0  0  0  0  0
  1  2  1  0
  2  3  1  0
  3  4  1  0
  4  5  2  0
  5  6  1  0
  6  7  1  0
  6  8  2  0
  8  9  1  0
  9 10  2  0
 10 11  1  0
 11 12  2  0
 12 13  1  0
 13 14  2  0
 14 15  1  0
 15 16  2  0
 16 17  1  0
 17 18  2  0
 17 19  1  0
 20 19  1  6
 20 21  1  0
 21 22  1  0
 22 23  1  0
 22 24  1  0
 24 25  1  1
 25 26  1  0
 26 27  1  0
 27 28  1  0
 24 29  1  0
 10  4  1  0
 16 11  1  0
 29 20  1  0
 28 24  1  0
M  END
>  <smiles>  (319) 
C86721-P293

>  <fragmenstein_outcome>  (319) 
acceptable

>  <inchikey>  (319) 
QQIRTUFNMJMRBV-UHFFFAOYSA-N

>  <fragmenstein_mode>  (319) 
expansion

>  <HIPPO Pose ID>  (319) 
9434

>  <Energy>  (319) 
125.664083

>  <fragmenstein_error>  (319) 


>  <tags>  (319) 
{'openbind_xx01zvns2b_c1_fragmenstein', 'fragmenstein_placed'}

>  <ref_pdb>  (319) 
1

>  <scratch_subdir>  (319) 
/opt/xchem-fragalysis-2/maxwin/BulkDock/SCRATCH/511027/C86721-P293

>  <alias>  (319) 
CNCc1nc(C)ncc1-c1ccccc1C(=O)N[C@H]1CN(C)[C@@]2(CCNC2)C1

>  <HIPPO Compound ID>  (319) 
90036

>  <fragmenstein_runtime>  (319) 
8.025291

$$$$
Cc1ncc(-c2ccccc2[C@@](O)(CC(=O)O)N[C@H]2CN(C)[C@]3(CCNC3)C2)cn1
     RDKit          3D

 30 33  0  0  0  0  0  0  0  0999 V2000
   -1.7580    7.6859  -15.7464 C   0  0  0  0  0  0  0  0  0  0  0  0
   -2.9775    6.9498  -16.1963 C   0  0  0  0  0  0  0  0  0  0  0  0
   -3.0814    5.6608  -15.8403 N   0  0  0  0  0  0  0  0  0  0  0  0
   -4.2458    5.0557  -16.1497 C   0  0  0  0  0  0  0  0  0  0  0  0
   -5.3272    5.6657  -16.7499 C   0  0  0  0  0  0  0  0  0  0  0  0
   -6.6522    5.0415  -16.9080 C   0  0  0  0  0  0  0  0  0  0  0  0
   -7.0620    4.7207  -18.2186 C   0  0  0  0  0  0  0  0  0  0  0  0
   -8.3355    4.2235  -18.4817 C   0  0  0  0  0  0  0  0  0  0  0  0
   -9.2295    4.0365  -17.4404 C   0  0  0  0  0  0  0  0  0  0  0  0
   -8.8457    4.3213  -16.1287 C   0  0  0  0  0  0  0  0  0  0  0  0
   -7.5647    4.8236  -15.8186 C   0  0  0  0  0  0  0  0  0  0  0  0
   -7.2158    5.1815  -14.3482 C   0  0  1  0  0  0  0  0  0  0  0  0
   -5.9716    4.5539  -14.0941 O   0  0  0  0  0  0  0  0  0  0  0  0
   -7.1043    6.7176  -14.2357 C   0  0  0  0  0  0  0  0  0  0  0  0
   -6.0279    7.3404  -13.3805 C   0  0  0  0  0  0  0  0  0  0  0  0
   -6.1196    8.4953  -12.9756 O   0  0  0  0  0  0  0  0  0  0  0  0
   -4.9322    6.6038  -13.1281 O   0  0  0  0  0  0  0  0  0  0  0  0
   -8.1431    4.6234  -13.3570 N   0  0  0  0  0  0  0  0  0  0  0  0
   -7.6905    4.8136  -11.9674 C   0  0  1  0  0  0  0  0  0  0  0  0
   -8.1972    6.0839  -11.2633 C   0  0  0  0  0  0  0  0  0  0  0  0
   -8.5261    5.6749   -9.8987 N   0  0  0  0  0  0  0  0  0  0  0  0
   -8.3748    6.7525   -8.9416 C   0  0  0  0  0  0  0  0  0  0  0  0
   -7.8512    4.3882   -9.6411 C   0  0  1  0  0  0  0  0  0  0  0  0
   -6.3742    4.4969   -9.2484 C   0  0  0  0  0  0  0  0  0  0  0  0
   -6.4046    4.6353   -7.7394 C   0  0  0  0  0  0  0  0  0  0  0  0
   -7.6142    3.9504   -7.2665 N   0  0  0  0  0  0  0  0  0  0  0  0
   -8.4110    3.5843   -8.4682 C   0  0  0  0  0  0  0  0  0  0  0  0
   -8.0745    3.7008  -10.9962 C   0  0  0  0  0  0  0  0  0  0  0  0
   -5.0621    6.9626  -17.1471 C   0  0  0  0  0  0  0  0  0  0  0  0
   -3.9206    7.6324  -16.8721 N   0  0  0  0  0  0  0  0  0  0  0  0
  1  2  1  0
  2  3  2  0
  3  4  1  0
  4  5  2  0
  5  6  1  0
  6  7  2  0
  7  8  1  0
  8  9  2  0
  9 10  1  0
 10 11  2  0
 11 12  1  0
 12 13  1  1
 12 14  1  0
 14 15  1  0
 15 16  2  0
 15 17  1  0
 12 18  1  0
 19 18  1  6
 19 20  1  0
 20 21  1  0
 21 22  1  0
 21 23  1  0
 23 24  1  1
 24 25  1  0
 25 26  1  0
 26 27  1  0
 23 28  1  0
  5 29  1  0
 29 30  2  0
 30  2  1  0
 11  6  1  0
 28 19  1  0
 27 23  1  0
M  END
>  <smiles>  (320) 
C86733-P75

>  <fragmenstein_outcome>  (320) 
acceptable

>  <inchikey>  (320) 
BRKLTDWXXAKBFP-UHFFFAOYSA-N

>  <fragmenstein_mode>  (320) 
expansion

>  <HIPPO Pose ID>  (320) 
9439

>  <Energy>  (320) 
51.034957

>  <fragmenstein_error>  (320) 


>  <tags>  (320) 
{'openbind_xx01zvns2b_c1_fragmenstein', 'fragmenstein_placed'}

>  <ref_pdb>  (320) 
1

>  <scratch_subdir>  (320) 
/opt/xchem-fragalysis-2/maxwin/BulkDock/SCRATCH/511027/C86733-P75

>  <alias>  (320) 
Cc1ncc(-c2ccccc2[C@@](O)(CC(=O)O)N[C@H]2CN(C)[C@]3(CCNC3)C2)cn1

>  <HIPPO Compound ID>  (320) 
71110

>  <fragmenstein_runtime>  (320) 
5.686622

$$$$
CNCc1nc(C)ncc1-c1ccccc1C(=O)N[C@H]1CN(C)[C@]2(CCNC2)C1
     RDKit          3D

 29 32  0  0  0  0  0  0  0  0999 V2000
   -4.8728    7.2525  -20.8173 C   0  0  0  0  0  0  0  0  0  0  0  0
   -4.3858    6.8047  -19.5276 N   0  0  0  0  0  0  0  0  0  0  0  0
   -5.1783    7.3313  -18.4116 C   0  0  0  0  0  0  0  0  0  0  0  0
   -4.6729    6.7514  -17.1066 C   0  0  0  0  0  0  0  0  0  0  0  0
   -3.4882    7.2954  -16.7012 N   0  0  0  0  0  0  0  0  0  0  0  0
   -2.9029    6.7729  -15.6133 C   0  0  0  0  0  0  0  0  0  0  0  0
   -1.5942    7.3513  -15.1865 C   0  0  0  0  0  0  0  0  0  0  0  0
   -3.3806    5.7353  -14.9187 N   0  0  0  0  0  0  0  0  0  0  0  0
   -4.5673    5.2479  -15.3382 C   0  0  0  0  0  0  0  0  0  0  0  0
   -5.2980    5.7034  -16.4300 C   0  0  0  0  0  0  0  0  0  0  0  0
   -6.5967    5.0888  -16.7819 C   0  0  0  0  0  0  0  0  0  0  0  0
   -6.8383    4.6237  -18.0899 C   0  0  0  0  0  0  0  0  0  0  0  0
   -8.0644    4.0611  -18.4588 C   0  0  0  0  0  0  0  0  0  0  0  0
   -9.0683    3.8954  -17.5158 C   0  0  0  0  0  0  0  0  0  0  0  0
   -8.8439    4.2886  -16.2014 C   0  0  0  0  0  0  0  0  0  0  0  0
   -7.6348    4.8992  -15.8409 C   0  0  0  0  0  0  0  0  0  0  0  0
   -7.5120    5.3734  -14.4315 C   0  0  0  0  0  0  0  0  0  0  0  0
   -7.3498    6.5055  -14.2157 O   0  0  0  0  0  0  0  0  0  0  0  0
   -7.5486    4.1715  -13.4737 N   0  0  0  0  0  0  0  0  0  0  0  0
   -7.2982    4.0954  -12.0542 C   0  0  1  0  0  0  0  0  0  0  0  0
   -6.8632    5.3563  -11.3035 C   0  0  0  0  0  0  0  0  0  0  0  0
   -7.4508    5.2228   -9.9635 N   0  0  0  0  0  0  0  0  0  0  0  0
   -6.6400    5.7401   -8.8869 C   0  0  0  0  0  0  0  0  0  0  0  0
   -8.0301    3.8809   -9.7927 C   0  0  1  0  0  0  0  0  0  0  0  0
   -7.1789    2.6815   -9.3603 C   0  0  0  0  0  0  0  0  0  0  0  0
   -8.2100    1.8008   -8.6526 C   0  0  0  0  0  0  0  0  0  0  0  0
   -8.8649    2.7751   -7.7903 N   0  0  0  0  0  0  0  0  0  0  0  0
   -9.1537    3.8507   -8.7376 C   0  0  0  0  0  0  0  0  0  0  0  0
   -8.4960    3.6252  -11.2400 C   0  0  0  0  0  0  0  0  0  0  0  0
  1  2  1  0
  2  3  1  0
  3  4  1  0
  4  5  2  0
  5  6  1  0
  6  7  1  0
  6  8  2  0
  8  9  1  0
  9 10  2  0
 10 11  1  0
 11 12  2  0
 12 13  1  0
 13 14  2  0
 14 15  1  0
 15 16  2  0
 16 17  1  0
 17 18  2  0
 17 19  1  0
 20 19  1  6
 20 21  1  0
 21 22  1  0
 22 23  1  0
 22 24  1  0
 24 25  1  1
 25 26  1  0
 26 27  1  0
 27 28  1  0
 24 29  1  0
 10  4  1  0
 16 11  1  0
 29 20  1  0
 28 24  1  0
M  END
>  <smiles>  (321) 
C86721-P305

>  <fragmenstein_outcome>  (321) 
acceptable

>  <inchikey>  (321) 
ANCYBOYIAPIGLW-UHFFFAOYSA-N

>  <fragmenstein_mode>  (321) 
expansion

>  <HIPPO Pose ID>  (321) 
9441

>  <Energy>  (321) 
130.312145

>  <fragmenstein_error>  (321) 


>  <tags>  (321) 
{'openbind_xx01zvns2b_c1_fragmenstein', 'fragmenstein_placed'}

>  <ref_pdb>  (321) 
1

>  <scratch_subdir>  (321) 
/opt/xchem-fragalysis-2/maxwin/BulkDock/SCRATCH/511027/C86721-P305

>  <alias>  (321) 
CNCc1nc(C)ncc1-c1ccccc1C(=O)N[C@H]1CN(C)[C@]2(CCNC2)C1

>  <HIPPO Compound ID>  (321) 
95618

>  <fragmenstein_runtime>  (321) 
5.965516

$$$$
CNCc1nc(C)ncc1-c1ccc(Cl)cc1C(=O)N[C@@H]1CN(F)N(C)[C@]12CCCC2=O
     RDKit          3D

 32 35  0  0  0  0  0  0  0  0999 V2000
   -4.8489    9.5494  -19.6660 C   0  0  0  0  0  0  0  0  0  0  0  0
   -4.3625    8.3116  -19.0878 N   0  0  0  0  0  0  0  0  0  0  0  0
   -5.2454    7.8247  -18.0117 C   0  0  0  0  0  0  0  0  0  0  0  0
   -4.5054    6.8984  -17.0657 C   0  0  0  0  0  0  0  0  0  0  0  0
   -3.2962    7.3887  -16.6669 N   0  0  0  0  0  0  0  0  0  0  0  0
   -2.5989    6.6740  -15.7702 C   0  0  0  0  0  0  0  0  0  0  0  0
   -1.3158    7.2530  -15.2760 C   0  0  0  0  0  0  0  0  0  0  0  0
   -3.0011    5.5140  -15.2407 N   0  0  0  0  0  0  0  0  0  0  0  0
   -4.2109    5.0782  -15.6399 C   0  0  0  0  0  0  0  0  0  0  0  0
   -5.0365    5.7165  -16.5561 C   0  0  0  0  0  0  0  0  0  0  0  0
   -6.3712    5.1792  -16.8542 C   0  0  0  0  0  0  0  0  0  0  0  0
   -6.6878    4.7708  -18.1614 C   0  0  0  0  0  0  0  0  0  0  0  0
   -7.9722    4.3365  -18.4836 C   0  0  0  0  0  0  0  0  0  0  0  0
   -8.9457    4.2809  -17.4953 C   0  0  0  0  0  0  0  0  0  0  0  0
  -10.5687    4.0060  -17.9380 Cl  0  0  0  0  0  0  0  0  0  0  0  0
   -8.6459    4.5842  -16.1718 C   0  0  0  0  0  0  0  0  0  0  0  0
   -7.3676    5.0491  -15.8564 C   0  0  0  0  0  0  0  0  0  0  0  0
   -7.1240    5.5660  -14.4796 C   0  0  0  0  0  0  0  0  0  0  0  0
   -6.7027    6.6468  -14.3723 O   0  0  0  0  0  0  0  0  0  0  0  0
   -7.4433    4.5093  -13.4081 N   0  0  0  0  0  0  0  0  0  0  0  0
   -7.2202    4.5238  -11.9667 C   0  0  2  0  0  0  0  0  0  0  0  0
   -8.0478    3.4986  -11.2037 C   0  0  0  0  0  0  0  0  0  0  0  0
   -7.9128    3.9537   -9.8233 N   0  0  0  0  0  0  0  0  0  0  0  0
   -8.8750    3.3887   -9.0120 F   0  0  0  0  0  0  0  0  0  0  0  0
   -8.0330    5.3914   -9.8694 N   0  0  0  0  0  0  0  0  0  0  0  0
   -7.4632    5.9453   -8.6502 C   0  0  0  0  0  0  0  0  0  0  0  0
   -7.4497    5.8301  -11.1697 C   0  0  2  0  0  0  0  0  0  0  0  0
   -8.3959    6.8949  -11.7550 C   0  0  0  0  0  0  0  0  0  0  0  0
   -7.7993    8.2491  -11.3865 C   0  0  0  0  0  0  0  0  0  0  0  0
   -6.2956    8.0567  -11.4328 C   0  0  0  0  0  0  0  0  0  0  0  0
   -6.1402    6.6119  -11.0367 C   0  0  0  0  0  0  0  0  0  0  0  0
   -5.0687    6.1542  -10.6486 O   0  0  0  0  0  0  0  0  0  0  0  0
  1  2  1  0
  2  3  1  0
  3  4  1  0
  4  5  2  0
  5  6  1  0
  6  7  1  0
  6  8  2  0
  8  9  1  0
  9 10  2  0
 10 11  1  0
 11 12  2  0
 12 13  1  0
 13 14  2  0
 14 15  1  0
 14 16  1  0
 16 17  2  0
 17 18  1  0
 18 19  2  0
 18 20  1  0
 21 20  1  6
 21 22  1  0
 22 23  1  0
 23 24  1  0
 23 25  1  0
 25 26  1  0
 25 27  1  0
 27 28  1  6
 28 29  1  0
 29 30  1  0
 30 31  1  0
 31 32  2  0
 10  4  1  0
 17 11  1  0
 27 21  1  0
 31 27  1  0
M  END
>  <smiles>  (322) 
C86751-P75

>  <fragmenstein_outcome>  (322) 
acceptable

>  <inchikey>  (322) 
DPEWWUXGZLQBLA-UHFFFAOYSA-N

>  <fragmenstein_mode>  (322) 
expansion

>  <HIPPO Pose ID>  (322) 
9459

>  <Energy>  (322) 
124.340942

>  <fragmenstein_error>  (322) 


>  <tags>  (322) 
{'openbind_xx01zvns2b_c1_fragmenstein', 'fragmenstein_placed'}

>  <ref_pdb>  (322) 
1

>  <scratch_subdir>  (322) 
/opt/xchem-fragalysis-2/maxwin/BulkDock/SCRATCH/511027/C86751-P75

>  <alias>  (322) 
CNCc1nc(C)ncc1-c1ccc(Cl)cc1C(=O)N[C@@H]1CN(F)N(C)[C@]12CCCC2=O

>  <HIPPO Compound ID>  (322) 
93867

>  <fragmenstein_runtime>  (322) 
3.277092

$$$$
CCn1cc(NC(=O)c2cc(Cl)ccc2-c2cnc(C)nc2CNC)cc1C
     RDKit          3D

 28 30  0  0  0  0  0  0  0  0999 V2000
   -8.5051    7.6943   -9.1771 C   0  0  0  0  0  0  0  0  0  0  0  0
   -7.8017    6.3688   -8.9231 C   0  0  0  0  0  0  0  0  0  0  0  0
   -7.8907    5.4189  -10.0206 N   0  0  0  0  0  0  0  0  0  0  0  0
   -7.6674    5.7296  -11.3398 C   0  0  0  0  0  0  0  0  0  0  0  0
   -7.8196    4.5871  -12.0836 C   0  0  0  0  0  0  0  0  0  0  0  0
   -7.6988    4.4952  -13.4379 N   0  0  0  0  0  0  0  0  0  0  0  0
   -7.3768    5.5773  -14.4922 C   0  0  0  0  0  0  0  0  0  0  0  0
   -7.0888    6.7006  -14.3600 O   0  0  0  0  0  0  0  0  0  0  0  0
   -7.5104    5.0235  -15.8610 C   0  0  0  0  0  0  0  0  0  0  0  0
   -8.7796    4.5636  -16.2072 C   0  0  0  0  0  0  0  0  0  0  0  0
   -9.0426    4.2288  -17.5238 C   0  0  0  0  0  0  0  0  0  0  0  0
  -10.6587    4.0031  -17.9923 Cl  0  0  0  0  0  0  0  0  0  0  0  0
   -8.0341    4.2152  -18.4729 C   0  0  0  0  0  0  0  0  0  0  0  0
   -6.7531    4.6264  -18.1107 C   0  0  0  0  0  0  0  0  0  0  0  0
   -6.4790    5.1072  -16.8172 C   0  0  0  0  0  0  0  0  0  0  0  0
   -5.1642    5.6839  -16.5112 C   0  0  0  0  0  0  0  0  0  0  0  0
   -4.3641    5.1316  -15.5193 C   0  0  0  0  0  0  0  0  0  0  0  0
   -3.1610    5.6017  -15.1393 N   0  0  0  0  0  0  0  0  0  0  0  0
   -2.7554    6.7199  -15.7536 C   0  0  0  0  0  0  0  0  0  0  0  0
   -1.4450    7.3034  -15.3413 C   0  0  0  0  0  0  0  0  0  0  0  0
   -3.4272    7.3406  -16.7356 N   0  0  0  0  0  0  0  0  0  0  0  0
   -4.6214    6.8166  -17.1216 C   0  0  0  0  0  0  0  0  0  0  0  0
   -5.3381    7.6090  -18.2042 C   0  0  0  0  0  0  0  0  0  0  0  0
   -4.5724    7.8139  -19.4493 N   0  0  0  0  0  0  0  0  0  0  0  0
   -4.4336    6.5901  -20.2272 C   0  0  0  0  0  0  0  0  0  0  0  0
   -8.1193    3.5395  -11.1909 C   0  0  0  0  0  0  0  0  0  0  0  0
   -8.1338    4.0659   -9.9111 C   0  0  0  0  0  0  0  0  0  0  0  0
   -8.3576    3.3556   -8.6228 C   0  0  0  0  0  0  0  0  0  0  0  0
  1  2  1  0
  2  3  1  0
  3  4  1  0
  4  5  2  0
  5  6  1  0
  6  7  1  0
  7  8  2  0
  7  9  1  0
  9 10  2  0
 10 11  1  0
 11 12  1  0
 11 13  2  0
 13 14  1  0
 14 15  2  0
 15 16  1  0
 16 17  2  0
 17 18  1  0
 18 19  2  0
 19 20  1  0
 19 21  1  0
 21 22  2  0
 22 23  1  0
 23 24  1  0
 24 25  1  0
  5 26  1  0
 26 27  2  0
 27 28  1  0
 27  3  1  0
 15  9  1  0
 22 16  1  0
M  END
>  <smiles>  (323) 
C86757-P75

>  <fragmenstein_outcome>  (323) 
acceptable

>  <inchikey>  (323) 
ZKDGXGOLMCFUQB-UHFFFAOYSA-O

>  <fragmenstein_mode>  (323) 
expansion

>  <HIPPO Pose ID>  (323) 
9463

>  <Energy>  (323) 
65.489997

>  <fragmenstein_error>  (323) 


>  <tags>  (323) 
{'openbind_xx01zvns2b_c1_fragmenstein', 'fragmenstein_placed'}

>  <ref_pdb>  (323) 
1

>  <scratch_subdir>  (323) 
/opt/xchem-fragalysis-2/maxwin/BulkDock/SCRATCH/511027/C86757-P75

>  <alias>  (323) 
CCn1cc(NC(=O)c2cc(Cl)ccc2-c2cnc(C)nc2CNC)cc1C

>  <HIPPO Compound ID>  (323) 
92333

>  <fragmenstein_runtime>  (323) 
3.140637

$$$$
CN(C)Cc1cc(CN(c2cc(Cl)cc3cc(NC(C)(C)CO)cnc23)C(F)F)ccc1O
     RDKit          3D

 33 35  0  0  0  0  0  0  0  0999 V2000
   -7.0136    1.9358   -8.8644 C   0  0  0  0  0  0  0  0  0  0  0  0
   -7.8202    2.6833   -7.8995 N   0  0  0  0  0  0  0  0  0  0  0  0
   -8.3601    1.7758   -6.8870 C   0  0  0  0  0  0  0  0  0  0  0  0
   -8.9340    3.3752   -8.5570 C   0  0  0  0  0  0  0  0  0  0  0  0
   -8.5068    4.4482   -9.5297 C   0  0  0  0  0  0  0  0  0  0  0  0
   -8.4909    4.1566  -10.9014 C   0  0  0  0  0  0  0  0  0  0  0  0
   -8.1334    5.1234  -11.8526 C   0  0  0  0  0  0  0  0  0  0  0  0
   -8.2501    4.7766  -13.3160 C   0  0  0  0  0  0  0  0  0  0  0  0
   -7.0604    5.0502  -14.1341 N   0  0  0  0  0  0  0  0  0  0  0  0
   -7.2462    4.9190  -15.5570 C   0  0  0  0  0  0  0  0  0  0  0  0
   -8.4696    4.4318  -16.0790 C   0  0  0  0  0  0  0  0  0  0  0  0
   -8.6619    4.2869  -17.4426 C   0  0  0  0  0  0  0  0  0  0  0  0
  -10.1965    3.8568  -18.0779 Cl  0  0  0  0  0  0  0  0  0  0  0  0
   -7.6320    4.5651  -18.3136 C   0  0  0  0  0  0  0  0  0  0  0  0
   -6.4319    5.0995  -17.8474 C   0  0  0  0  0  0  0  0  0  0  0  0
   -5.4390    5.4518  -18.7745 C   0  0  0  0  0  0  0  0  0  0  0  0
   -4.2487    6.0707  -18.3980 C   0  0  0  0  0  0  0  0  0  0  0  0
   -3.3187    6.3566  -19.3843 N   0  0  0  0  0  0  0  0  0  0  0  0
   -2.1224    7.2223  -19.2892 C   0  0  0  0  0  0  0  0  0  0  0  0
   -1.5648    7.3491  -20.7286 C   0  0  0  0  0  0  0  0  0  0  0  0
   -1.0277    6.5605  -18.4421 C   0  0  0  0  0  0  0  0  0  0  0  0
   -2.4588    8.6425  -18.7649 C   0  0  0  0  0  0  0  0  0  0  0  0
   -3.4204    9.3038  -19.5928 O   0  0  0  0  0  0  0  0  0  0  0  0
   -4.1102    6.2348  -17.0367 C   0  0  0  0  0  0  0  0  0  0  0  0
   -5.0474    5.9058  -16.1021 N   0  0  0  0  0  0  0  0  0  0  0  0
   -6.2150    5.3200  -16.4763 C   0  0  0  0  0  0  0  0  0  0  0  0
   -5.8761    4.3010  -13.7034 C   0  0  0  0  0  0  0  0  0  0  0  0
   -5.4068    4.8131  -12.5363 F   0  0  0  0  0  0  0  0  0  0  0  0
   -6.2188    3.0093  -13.4541 F   0  0  0  0  0  0  0  0  0  0  0  0
   -7.7731    6.4012  -11.4148 C   0  0  0  0  0  0  0  0  0  0  0  0
   -7.7655    6.7008  -10.0500 C   0  0  0  0  0  0  0  0  0  0  0  0
   -8.1340    5.7279   -9.1190 C   0  0  0  0  0  0  0  0  0  0  0  0
   -8.1622    6.0336   -7.7868 O   0  0  0  0  0  0  0  0  0  0  0  0
  1  2  1  0
  2  3  1  0
  2  4  1  0
  4  5  1  0
  5  6  2  0
  6  7  1  0
  7  8  1  0
  8  9  1  0
  9 10  1  0
 10 11  2  0
 11 12  1  0
 12 13  1  0
 12 14  2  0
 14 15  1  0
 15 16  2  0
 16 17  1  0
 17 18  1  0
 18 19  1  0
 19 20  1  0
 19 21  1  0
 19 22  1  0
 22 23  1  0
 17 24  2  0
 24 25  1  0
 25 26  2  0
  9 27  1  0
 27 28  1  0
 27 29  1  0
  7 30  2  0
 30 31  1  0
 31 32  2  0
 32 33  1  0
 32  5  1  0
 26 10  1  0
 26 15  1  0
M  END
>  <smiles>  (324) 
C86795-P76

>  <fragmenstein_outcome>  (324) 
acceptable

>  <inchikey>  (324) 
JGQINLGTYZHTRE-UHFFFAOYSA-N

>  <fragmenstein_mode>  (324) 
expansion

>  <HIPPO Pose ID>  (324) 
9485

>  <Energy>  (324) 
115.089135

>  <fragmenstein_error>  (324) 


>  <tags>  (324) 
{'openbind_xx01zvns2b_c1_fragmenstein', 'fragmenstein_placed'}

>  <ref_pdb>  (324) 
1

>  <scratch_subdir>  (324) 
/opt/xchem-fragalysis-2/maxwin/BulkDock/SCRATCH/511027/C86795-P76

>  <alias>  (324) 
CN(C)Cc1cc(CN(c2cc(Cl)cc3cc(NC(C)(C)CO)cnc23)C(F)F)ccc1O

>  <HIPPO Compound ID>  (324) 
92009

>  <fragmenstein_runtime>  (324) 
7.924083

$$$$
CN(C)Cc1cc(CNc2cc(Cl)c3nc(C(C)(C)CO)n(O)c3c2)ccc1O
     RDKit          3D

 29 31  0  0  0  0  0  0  0  0999 V2000
   -7.0841    1.8618   -8.7563 C   0  0  0  0  0  0  0  0  0  0  0  0
   -7.8352    2.6523   -7.7818 N   0  0  0  0  0  0  0  0  0  0  0  0
   -8.3214    1.7914   -6.7038 C   0  0  0  0  0  0  0  0  0  0  0  0
   -8.9857    3.3126   -8.4015 C   0  0  0  0  0  0  0  0  0  0  0  0
   -8.6140    4.3534   -9.4269 C   0  0  0  0  0  0  0  0  0  0  0  0
   -8.6413    4.0014  -10.7843 C   0  0  0  0  0  0  0  0  0  0  0  0
   -8.3732    4.9413  -11.7828 C   0  0  0  0  0  0  0  0  0  0  0  0
   -8.4922    4.5164  -13.2263 C   0  0  0  0  0  0  0  0  0  0  0  0
   -7.4642    5.1795  -14.0012 N   0  0  0  0  0  0  0  0  0  0  0  0
   -7.3432    4.9043  -15.3616 C   0  0  0  0  0  0  0  0  0  0  0  0
   -8.3672    4.4170  -16.1782 C   0  0  0  0  0  0  0  0  0  0  0  0
   -8.1761    4.2675  -17.5642 C   0  0  0  0  0  0  0  0  0  0  0  0
   -9.4832    3.8503  -18.5799 Cl  0  0  0  0  0  0  0  0  0  0  0  0
   -6.9380    4.5818  -18.1592 C   0  0  0  0  0  0  0  0  0  0  0  0
   -6.3945    4.4770  -19.4391 N   0  0  0  0  0  0  0  0  0  0  0  0
   -5.2447    5.1380  -19.4309 C   0  0  0  0  0  0  0  0  0  0  0  0
   -4.3216    5.4820  -20.5963 C   0  0  0  0  0  0  0  0  0  0  0  0
   -2.8693    5.0601  -20.2973 C   0  0  0  0  0  0  0  0  0  0  0  0
   -4.7551    4.7389  -21.8733 C   0  0  0  0  0  0  0  0  0  0  0  0
   -4.4026    7.0020  -20.9147 C   0  0  0  0  0  0  0  0  0  0  0  0
   -3.6249    7.8358  -20.0584 O   0  0  0  0  0  0  0  0  0  0  0  0
   -5.0139    5.5693  -18.1586 N   0  0  0  0  0  0  0  0  0  0  0  0
   -4.0279    6.4505  -17.7664 O   0  0  0  0  0  0  0  0  0  0  0  0
   -5.9979    5.1630  -17.3249 C   0  0  0  0  0  0  0  0  0  0  0  0
   -6.1571    5.3376  -15.9553 C   0  0  0  0  0  0  0  0  0  0  0  0
   -8.0709    6.2583  -11.4046 C   0  0  0  0  0  0  0  0  0  0  0  0
   -8.0038    6.6140  -10.0564 C   0  0  0  0  0  0  0  0  0  0  0  0
   -8.2737    5.6611   -9.0767 C   0  0  0  0  0  0  0  0  0  0  0  0
   -8.2517    6.0141   -7.7568 O   0  0  0  0  0  0  0  0  0  0  0  0
  1  2  1  0
  2  3  1  0
  2  4  1  0
  4  5  1  0
  5  6  2  0
  6  7  1  0
  7  8  1  0
  8  9  1  0
  9 10  1  0
 10 11  2  0
 11 12  1  0
 12 13  1  0
 12 14  2  0
 14 15  1  0
 15 16  2  0
 16 17  1  0
 17 18  1  0
 17 19  1  0
 17 20  1  0
 20 21  1  0
 16 22  1  0
 22 23  1  0
 22 24  1  0
 24 25  2  0
  7 26  2  0
 26 27  1  0
 27 28  2  0
 28 29  1  0
 28  5  1  0
 25 10  1  0
 24 14  1  0
M  END
>  <smiles>  (325) 
C86798-P76

>  <fragmenstein_outcome>  (325) 
acceptable

>  <inchikey>  (325) 
UUBISSRMQDSSED-UHFFFAOYSA-N

>  <fragmenstein_mode>  (325) 
expansion

>  <HIPPO Pose ID>  (325) 
9489

>  <Energy>  (325) 
70.888097

>  <fragmenstein_error>  (325) 


>  <tags>  (325) 
{'openbind_xx01zvns2b_c1_fragmenstein', 'fragmenstein_placed'}

>  <ref_pdb>  (325) 
1

>  <scratch_subdir>  (325) 
/opt/xchem-fragalysis-2/maxwin/BulkDock/SCRATCH/511027/C86798-P76

>  <alias>  (325) 
CN(C)Cc1cc(CNc2cc(Cl)c3nc(C(C)(C)CO)n(O)c3c2)ccc1O

>  <HIPPO Compound ID>  (325) 
91820

>  <fragmenstein_runtime>  (325) 
5.358698

$$$$
CN(C)Cc1cc(CNc2cc(Cl)cc([C@](NOCO)(NC(C)(C)CO)n3ccnc3)c2)ccc1O
     RDKit          3D

 36 38  0  0  0  0  0  0  0  0999 V2000
   -6.8529    1.9132   -8.9041 C   0  0  0  0  0  0  0  0  0  0  0  0
   -7.8545    2.6265   -8.0975 N   0  0  0  0  0  0  0  0  0  0  0  0
   -8.4275    1.7117   -7.1044 C   0  0  0  0  0  0  0  0  0  0  0  0
   -8.9232    3.1012   -8.9947 C   0  0  0  0  0  0  0  0  0  0  0  0
   -8.4855    4.3325   -9.7542 C   0  0  0  0  0  0  0  0  0  0  0  0
   -8.5922    4.3653  -11.1496 C   0  0  0  0  0  0  0  0  0  0  0  0
   -8.2584    5.5199  -11.8759 C   0  0  0  0  0  0  0  0  0  0  0  0
   -8.4086    5.5574  -13.3773 C   0  0  0  0  0  0  0  0  0  0  0  0
   -7.8908    4.3284  -13.9597 N   0  0  0  0  0  0  0  0  0  0  0  0
   -7.7802    4.3840  -15.3538 C   0  0  0  0  0  0  0  0  0  0  0  0
   -8.8661    4.1838  -16.1750 C   0  0  0  0  0  0  0  0  0  0  0  0
   -8.6935    4.2608  -17.5460 C   0  0  0  0  0  0  0  0  0  0  0  0
  -10.0531    3.9628  -18.5438 Cl  0  0  0  0  0  0  0  0  0  0  0  0
   -7.4558    4.6200  -18.1051 C   0  0  0  0  0  0  0  0  0  0  0  0
   -6.3450    4.9533  -17.3010 C   0  0  0  0  0  0  0  0  0  0  0  0
   -4.9885    5.5114  -17.8668 C   0  0  2  0  0  0  0  0  0  0  0  0
   -4.7062    4.8148  -19.1582 N   0  0  0  0  0  0  0  0  0  0  0  0
   -3.5583    5.4293  -19.8357 O   0  0  0  0  0  0  0  0  0  0  0  0
   -3.9009    6.1290  -21.0380 C   0  0  0  0  0  0  0  0  0  0  0  0
   -3.1272    7.3171  -21.1170 O   0  0  0  0  0  0  0  0  0  0  0  0
   -3.8074    5.2799  -17.0250 N   0  0  0  0  0  0  0  0  0  0  0  0
   -3.5547    5.8501  -15.6754 C   0  0  0  0  0  0  0  0  0  0  0  0
   -4.3972    7.0555  -15.1860 C   0  0  0  0  0  0  0  0  0  0  0  0
   -2.0830    6.3630  -15.6744 C   0  0  0  0  0  0  0  0  0  0  0  0
   -3.5604    4.7258  -14.5514 C   0  0  0  0  0  0  0  0  0  0  0  0
   -3.9128    3.4498  -15.0926 O   0  0  0  0  0  0  0  0  0  0  0  0
   -5.0532    6.9599  -18.1916 N   0  0  0  0  0  0  0  0  0  0  0  0
   -4.0843    7.9381  -18.1999 C   0  0  0  0  0  0  0  0  0  0  0  0
   -4.7117    9.0981  -18.5871 C   0  0  0  0  0  0  0  0  0  0  0  0
   -6.0054    8.8448  -18.9413 N   0  0  0  0  0  0  0  0  0  0  0  0
   -6.1084    7.5398  -18.8204 C   0  0  0  0  0  0  0  0  0  0  0  0
   -6.5707    4.7731  -15.9320 C   0  0  0  0  0  0  0  0  0  0  0  0
   -7.8283    6.6584  -11.1793 C   0  0  0  0  0  0  0  0  0  0  0  0
   -7.6945    6.6305   -9.7914 C   0  0  0  0  0  0  0  0  0  0  0  0
   -8.0046    5.4696   -9.0955 C   0  0  0  0  0  0  0  0  0  0  0  0
   -7.7931    5.4630   -7.7437 O   0  0  0  0  0  0  0  0  0  0  0  0
  1  2  1  0
  2  3  1  0
  2  4  1  0
  4  5  1  0
  5  6  2  0
  6  7  1  0
  7  8  1  0
  8  9  1  0
  9 10  1  0
 10 11  2  0
 11 12  1  0
 12 13  1  0
 12 14  2  0
 14 15  1  0
 15 16  1  0
 16 17  1  6
 17 18  1  0
 18 19  1  0
 19 20  1  0
 16 21  1  0
 21 22  1  0
 22 23  1  0
 22 24  1  0
 22 25  1  0
 25 26  1  0
 16 27  1  0
 27 28  1  0
 28 29  2  0
 29 30  1  0
 30 31  2  0
 15 32  2  0
  7 33  2  0
 33 34  1  0
 34 35  2  0
 35 36  1  0
 35  5  1  0
 32 10  1  0
 31 27  1  0
M  END
>  <smiles>  (326) 
C86812-P76

>  <fragmenstein_outcome>  (326) 
acceptable

>  <inchikey>  (326) 
NEVPDTIPDBQTER-UHFFFAOYSA-N

>  <fragmenstein_mode>  (326) 
expansion

>  <HIPPO Pose ID>  (326) 
9499

>  <Energy>  (326) 
105.576929

>  <fragmenstein_error>  (326) 


>  <tags>  (326) 
{'openbind_xx01zvns2b_c1_fragmenstein', 'fragmenstein_placed'}

>  <ref_pdb>  (326) 
1

>  <scratch_subdir>  (326) 
/opt/xchem-fragalysis-2/maxwin/BulkDock/SCRATCH/511027/C86812-P76

>  <alias>  (326) 
CN(C)Cc1cc(CNc2cc(Cl)cc([C@](NOCO)(NC(C)(C)CO)n3ccnc3)c2)ccc1O

>  <HIPPO Compound ID>  (326) 
106848

>  <fragmenstein_runtime>  (326) 
11.50841

$$$$
Cc1c2cc(NCc3ccc(O)c(CN(C)C)c3)cc(Cl)c2cn1CC(C)(C)CO
     RDKit          3D

 30 32  0  0  0  0  0  0  0  0999 V2000
   -3.8124    5.9767  -16.7839 C   0  0  0  0  0  0  0  0  0  0  0  0
   -5.0686    5.4506  -17.3660 C   0  0  0  0  0  0  0  0  0  0  0  0
   -6.1887    4.9537  -16.7382 C   0  0  0  0  0  0  0  0  0  0  0  0
   -6.3584    4.8311  -15.3705 C   0  0  0  0  0  0  0  0  0  0  0  0
   -7.6514    4.3443  -15.0580 C   0  0  0  0  0  0  0  0  0  0  0  0
   -7.9769    4.2107  -13.6861 N   0  0  0  0  0  0  0  0  0  0  0  0
   -8.3746    5.5004  -13.1339 C   0  0  0  0  0  0  0  0  0  0  0  0
   -8.2603    5.4952  -11.6335 C   0  0  0  0  0  0  0  0  0  0  0  0
   -7.8306    6.6495  -10.9607 C   0  0  0  0  0  0  0  0  0  0  0  0
   -7.7125    6.6590   -9.5719 C   0  0  0  0  0  0  0  0  0  0  0  0
   -8.0410    5.5194   -8.8524 C   0  0  0  0  0  0  0  0  0  0  0  0
   -7.8287    5.5303   -7.5017 O   0  0  0  0  0  0  0  0  0  0  0  0
   -8.5352    4.3773   -9.4879 C   0  0  0  0  0  0  0  0  0  0  0  0
   -8.9773    3.1643   -8.7107 C   0  0  0  0  0  0  0  0  0  0  0  0
   -7.8702    2.6209   -7.9120 N   0  0  0  0  0  0  0  0  0  0  0  0
   -6.9447    1.9124   -8.8099 C   0  0  0  0  0  0  0  0  0  0  0  0
   -8.4118    1.6864   -6.9231 C   0  0  0  0  0  0  0  0  0  0  0  0
   -8.6209    4.3699  -10.8819 C   0  0  0  0  0  0  0  0  0  0  0  0
   -8.6740    4.0951  -16.0352 C   0  0  0  0  0  0  0  0  0  0  0  0
   -8.4531    4.1917  -17.4119 C   0  0  0  0  0  0  0  0  0  0  0  0
   -9.6416    3.9320  -18.5812 Cl  0  0  0  0  0  0  0  0  0  0  0  0
   -7.1638    4.6237  -17.7121 C   0  0  0  0  0  0  0  0  0  0  0  0
   -6.5337    4.7481  -18.9178 C   0  0  0  0  0  0  0  0  0  0  0  0
   -5.3467    5.4158  -18.7232 N   0  0  0  0  0  0  0  0  0  0  0  0
   -4.5976    6.1166  -19.7601 C   0  0  0  0  0  0  0  0  0  0  0  0
   -3.6381    5.2809  -20.6363 C   0  0  0  0  0  0  0  0  0  0  0  0
   -2.7490    4.3634  -19.7852 C   0  0  0  0  0  0  0  0  0  0  0  0
   -2.7262    6.2601  -21.4090 C   0  0  0  0  0  0  0  0  0  0  0  0
   -4.4280    4.4470  -21.6617 C   0  0  0  0  0  0  0  0  0  0  0  0
   -5.2082    5.2602  -22.5288 O   0  0  0  0  0  0  0  0  0  0  0  0
  1  2  1  0
  2  3  2  0
  3  4  1  0
  4  5  2  0
  5  6  1  0
  6  7  1  0
  7  8  1  0
  8  9  2  0
  9 10  1  0
 10 11  2  0
 11 12  1  0
 11 13  1  0
 13 14  1  0
 14 15  1  0
 15 16  1  0
 15 17  1  0
 13 18  2  0
  5 19  1  0
 19 20  2  0
 20 21  1  0
 20 22  1  0
 22 23  2  0
 23 24  1  0
 24 25  1  0
 25 26  1  0
 26 27  1  0
 26 28  1  0
 26 29  1  0
 29 30  1  0
 24  2  1  0
 22  3  1  0
 18  8  1  0
M  END
>  <smiles>  (327) 
C86819-P76

>  <fragmenstein_outcome>  (327) 
acceptable

>  <inchikey>  (327) 
NOLSMAJGFALSDC-UHFFFAOYSA-N

>  <fragmenstein_mode>  (327) 
expansion

>  <HIPPO Pose ID>  (327) 
9501

>  <Energy>  (327) 
73.441657

>  <fragmenstein_error>  (327) 


>  <tags>  (327) 
{'openbind_xx01zvns2b_c1_fragmenstein', 'fragmenstein_placed'}

>  <ref_pdb>  (327) 
1

>  <scratch_subdir>  (327) 
/opt/xchem-fragalysis-2/maxwin/BulkDock/SCRATCH/511027/C86819-P76

>  <alias>  (327) 
Cc1c2cc(NCc3ccc(O)c(CN(C)C)c3)cc(Cl)c2cn1CC(C)(C)CO

>  <HIPPO Compound ID>  (327) 
87695

>  <fragmenstein_runtime>  (327) 
11.148635

$$$$
CO[C@H]1CNC[C@]2(C1)[C@@H](NC(=O)c1ccc(O)c(CN(C)C)c1)C[C@@H](Cl)C[C@H]2C(=O)NC(C)(C)CO
     RDKit          3D

 36 38  0  0  0  0  0  0  0  0999 V2000
   -3.4091    8.4392  -15.6386 C   0  0  0  0  0  0  0  0  0  0  0  0
   -3.4050    7.4522  -14.6176 O   0  0  0  0  0  0  0  0  0  0  0  0
   -3.9190    6.1946  -15.0324 C   0  0  1  0  0  0  0  0  0  0  0  0
   -3.5265    5.1871  -13.9306 C   0  0  0  0  0  0  0  0  0  0  0  0
   -4.2803    3.9365  -13.9914 N   0  0  0  0  0  0  0  0  0  0  0  0
   -4.8210    3.7389  -15.3281 C   0  0  0  0  0  0  0  0  0  0  0  0
   -5.9419    4.7718  -15.7441 C   0  0  2  0  0  0  0  0  0  0  0  0
   -5.4597    6.1609  -15.1980 C   0  0  0  0  0  0  0  0  0  0  0  0
   -7.2819    4.2923  -15.0464 C   0  0  1  0  0  0  0  0  0  0  0  0
   -7.3918    4.6669  -13.6513 N   0  0  0  0  0  0  0  0  0  0  0  0
   -8.2389    5.7614  -12.9719 C   0  0  0  0  0  0  0  0  0  0  0  0
   -8.9228    6.5841  -13.4351 O   0  0  0  0  0  0  0  0  0  0  0  0
   -8.1535    5.6537  -11.5080 C   0  0  0  0  0  0  0  0  0  0  0  0
   -7.7870    6.7757  -10.7644 C   0  0  0  0  0  0  0  0  0  0  0  0
   -7.7218    6.6795   -9.3791 C   0  0  0  0  0  0  0  0  0  0  0  0
   -8.0447    5.4747   -8.7651 C   0  0  0  0  0  0  0  0  0  0  0  0
   -7.8879    5.3911   -7.4090 O   0  0  0  0  0  0  0  0  0  0  0  0
   -8.4859    4.3650   -9.5014 C   0  0  0  0  0  0  0  0  0  0  0  0
   -8.9431    3.1010   -8.8197 C   0  0  0  0  0  0  0  0  0  0  0  0
   -7.8660    2.5631   -7.9794 N   0  0  0  0  0  0  0  0  0  0  0  0
   -6.9030    1.8603   -8.8383 C   0  0  0  0  0  0  0  0  0  0  0  0
   -8.4316    1.6368   -6.9973 C   0  0  0  0  0  0  0  0  0  0  0  0
   -8.5160    4.4547  -10.8919 C   0  0  0  0  0  0  0  0  0  0  0  0
   -8.5775    4.6597  -15.7602 C   0  0  0  0  0  0  0  0  0  0  0  0
   -8.5509    4.1691  -17.1813 C   0  0  1  0  0  0  0  0  0  0  0  0
  -10.1320    4.3022  -17.9885 Cl  0  0  0  0  0  0  0  0  0  0  0  0
   -7.4475    4.8305  -17.9742 C   0  0  0  0  0  0  0  0  0  0  0  0
   -6.0441    4.6935  -17.3521 C   0  0  1  0  0  0  0  0  0  0  0  0
   -5.1405    5.6778  -18.1696 C   0  0  0  0  0  0  0  0  0  0  0  0
   -4.8154    6.7120  -17.7466 O   0  0  0  0  0  0  0  0  0  0  0  0
   -4.8819    5.0362  -19.5500 N   0  0  0  0  0  0  0  0  0  0  0  0
   -4.0761    5.5035  -20.6796 C   0  0  0  0  0  0  0  0  0  0  0  0
   -2.6041    5.2733  -20.3297 C   0  0  0  0  0  0  0  0  0  0  0  0
   -4.4369    4.7241  -21.9476 C   0  0  0  0  0  0  0  0  0  0  0  0
   -4.3400    7.0121  -20.9582 C   0  0  0  0  0  0  0  0  0  0  0  0
   -3.7664    7.8890  -19.9913 O   0  0  0  0  0  0  0  0  0  0  0  0
  1  2  1  0
  3  2  1  1
  3  4  1  0
  4  5  1  0
  5  6  1  0
  7  6  1  1
  7  8  1  0
  7  9  1  0
  9 10  1  1
 10 11  1  0
 11 12  2  0
 11 13  1  0
 13 14  2  0
 14 15  1  0
 15 16  2  0
 16 17  1  0
 16 18  1  0
 18 19  1  0
 19 20  1  0
 20 21  1  0
 20 22  1  0
 18 23  2  0
  9 24  1  0
 24 25  1  0
 25 26  1  6
 25 27  1  0
 27 28  1  0
 28 29  1  6
 29 30  2  0
 29 31  1  0
 31 32  1  0
 32 33  1  0
 32 34  1  0
 32 35  1  0
 35 36  1  0
  8  3  1  0
 23 13  1  0
 28  7  1  0
M  END
>  <smiles>  (328) 
C85961-P76

>  <fragmenstein_outcome>  (328) 
acceptable

>  <inchikey>  (328) 
WAXSLAZOEYQDDU-UHFFFAOYSA-N

>  <fragmenstein_mode>  (328) 
expansion

>  <HIPPO Pose ID>  (328) 
9502

>  <Energy>  (328) 
116.750731

>  <fragmenstein_error>  (328) 


>  <tags>  (328) 
{'openbind_xx01zvns2b_c1_fragmenstein', 'fragmenstein_placed'}

>  <ref_pdb>  (328) 
1

>  <scratch_subdir>  (328) 
/opt/xchem-fragalysis-2/maxwin/BulkDock/SCRATCH/511027/C85961-P76

>  <alias>  (328) 
CO[C@H]1CNC[C@]2(C1)[C@@H](NC(=O)c1ccc(O)c(CN(C)C)c1)C[C@@H](Cl)C[C@H]2C(=O)NC(C)(C)CO

>  <HIPPO Compound ID>  (328) 
70756

>  <fragmenstein_runtime>  (328) 
26.405584

$$$$
C[C@H]1C[C@@]2(CN[C@@H]1F)[C@@H](NC(=O)c1ccc(O)c(CN(C)C)c1)C[C@@H](Cl)C[C@H]2C(=O)NC(C)(C)CO
     RDKit          3D

 36 38  0  0  0  0  0  0  0  0999 V2000
   -4.8499    8.2747  -14.1523 C   0  0  0  0  0  0  0  0  0  0  0  0
   -5.1784    6.7798  -14.1267 C   0  0  1  0  0  0  0  0  0  0  0  0
   -5.9599    6.3740  -15.3937 C   0  0  0  0  0  0  0  0  0  0  0  0
   -5.9792    4.8563  -15.7526 C   0  0  1  0  0  0  0  0  0  0  0  0
   -4.6930    4.1316  -15.2253 C   0  0  0  0  0  0  0  0  0  0  0  0
   -4.2572    4.5396  -13.8978 N   0  0  0  0  0  0  0  0  0  0  0  0
   -3.9178    5.9524  -13.9338 C   0  0  2  0  0  0  0  0  0  0  0  0
   -3.3659    6.2491  -12.7286 F   0  0  0  0  0  0  0  0  0  0  0  0
   -7.2562    4.1947  -15.0810 C   0  0  1  0  0  0  0  0  0  0  0  0
   -7.4104    4.5519  -13.6786 N   0  0  0  0  0  0  0  0  0  0  0  0
   -8.3259    5.5945  -13.0051 C   0  0  0  0  0  0  0  0  0  0  0  0
   -9.0448    6.3850  -13.4739 O   0  0  0  0  0  0  0  0  0  0  0  0
   -8.1901    5.5710  -11.5394 C   0  0  0  0  0  0  0  0  0  0  0  0
   -7.8727    6.7679  -10.8936 C   0  0  0  0  0  0  0  0  0  0  0  0
   -7.8493    6.8138   -9.5055 C   0  0  0  0  0  0  0  0  0  0  0  0
   -8.1765    5.6708   -8.7793 C   0  0  0  0  0  0  0  0  0  0  0  0
   -8.2164    5.7378   -7.4152 O   0  0  0  0  0  0  0  0  0  0  0  0
   -8.5158    4.4694   -9.4182 C   0  0  0  0  0  0  0  0  0  0  0  0
   -8.9354    3.2510   -8.6346 C   0  0  0  0  0  0  0  0  0  0  0  0
   -7.8131    2.5959   -7.9599 N   0  0  0  0  0  0  0  0  0  0  0  0
   -6.9557    1.9015   -8.9166 C   0  0  0  0  0  0  0  0  0  0  0  0
   -8.3387    1.6643   -6.9651 C   0  0  0  0  0  0  0  0  0  0  0  0
   -8.4977    4.4188  -10.8185 C   0  0  0  0  0  0  0  0  0  0  0  0
   -8.5739    4.4904  -15.8106 C   0  0  0  0  0  0  0  0  0  0  0  0
   -8.4827    4.1724  -17.2772 C   0  0  1  0  0  0  0  0  0  0  0  0
  -10.0586    4.3185  -18.0893 Cl  0  0  0  0  0  0  0  0  0  0  0  0
   -7.3691    4.9411  -17.9684 C   0  0  0  0  0  0  0  0  0  0  0  0
   -5.9987    4.6431  -17.3384 C   0  0  1  0  0  0  0  0  0  0  0  0
   -4.8230    5.3921  -18.0705 C   0  0  0  0  0  0  0  0  0  0  0  0
   -4.0770    6.0646  -17.4776 O   0  0  0  0  0  0  0  0  0  0  0  0
   -4.8765    5.0418  -19.5752 N   0  0  0  0  0  0  0  0  0  0  0  0
   -4.0690    5.5287  -20.6927 C   0  0  0  0  0  0  0  0  0  0  0  0
   -2.5982    5.2172  -20.4040 C   0  0  0  0  0  0  0  0  0  0  0  0
   -4.4853    4.8259  -21.9886 C   0  0  0  0  0  0  0  0  0  0  0  0
   -4.2811    7.0567  -20.8691 C   0  0  0  0  0  0  0  0  0  0  0  0
   -3.7169    7.8493  -19.8264 O   0  0  0  0  0  0  0  0  0  0  0  0
  2  1  1  6
  2  3  1  0
  4  3  1  6
  4  5  1  0
  5  6  1  0
  6  7  1  0
  7  8  1  1
  4  9  1  0
  9 10  1  1
 10 11  1  0
 11 12  2  0
 11 13  1  0
 13 14  2  0
 14 15  1  0
 15 16  2  0
 16 17  1  0
 16 18  1  0
 18 19  1  0
 19 20  1  0
 20 21  1  0
 20 22  1  0
 18 23  2  0
  9 24  1  0
 24 25  1  0
 25 26  1  6
 25 27  1  0
 27 28  1  0
 28 29  1  6
 29 30  2  0
 29 31  1  0
 31 32  1  0
 32 33  1  0
 32 34  1  0
 32 35  1  0
 35 36  1  0
  7  2  1  0
 23 13  1  0
 28  4  1  0
M  END
>  <smiles>  (329) 
C85966-P76

>  <fragmenstein_outcome>  (329) 
acceptable

>  <inchikey>  (329) 
WMGFFBLVSOFZHZ-UHFFFAOYSA-N

>  <fragmenstein_mode>  (329) 
expansion

>  <HIPPO Pose ID>  (329) 
9506

>  <Energy>  (329) 
68.770347

>  <fragmenstein_error>  (329) 


>  <tags>  (329) 
{'openbind_xx01zvns2b_c1_fragmenstein', 'fragmenstein_placed'}

>  <ref_pdb>  (329) 
1

>  <scratch_subdir>  (329) 
/opt/xchem-fragalysis-2/maxwin/BulkDock/SCRATCH/511027/C85966-P76

>  <alias>  (329) 
C[C@H]1C[C@@]2(CN[C@@H]1F)[C@@H](NC(=O)c1ccc(O)c(CN(C)C)c1)C[C@@H](Cl)C[C@H]2C(=O)NC(C)(C)CO

>  <HIPPO Compound ID>  (329) 
80166

>  <fragmenstein_runtime>  (329) 
15.67662

$$$$
CN(C)Cc1cc(CC(=O)c2[nH]c(Cl)c3nc(NC(C)(C)CO)ccc23)ccc1O
     RDKit          3D

 30 32  0  0  0  0  0  0  0  0999 V2000
   -7.1112    1.8930   -8.7710 C   0  0  0  0  0  0  0  0  0  0  0  0
   -7.8400    2.6529   -7.7566 N   0  0  0  0  0  0  0  0  0  0  0  0
   -8.3453    1.7556   -6.7192 C   0  0  0  0  0  0  0  0  0  0  0  0
   -8.9706    3.3773   -8.3388 C   0  0  0  0  0  0  0  0  0  0  0  0
   -8.5639    4.4684   -9.2958 C   0  0  0  0  0  0  0  0  0  0  0  0
   -8.6185    4.2153  -10.6710 C   0  0  0  0  0  0  0  0  0  0  0  0
   -8.3223    5.2153  -11.6015 C   0  0  0  0  0  0  0  0  0  0  0  0
   -8.5368    4.9311  -13.0593 C   0  0  0  0  0  0  0  0  0  0  0  0
   -7.3240    5.0551  -13.9503 C   0  0  0  0  0  0  0  0  0  0  0  0
   -6.2474    5.4819  -13.5398 O   0  0  0  0  0  0  0  0  0  0  0  0
   -7.5524    4.7353  -15.3469 C   0  0  0  0  0  0  0  0  0  0  0  0
   -8.7645    4.2875  -15.8780 N   0  0  0  0  0  0  0  0  0  0  0  0
   -8.6945    4.2514  -17.2388 C   0  0  0  0  0  0  0  0  0  0  0  0
  -10.1059    3.9278  -18.1156 Cl  0  0  0  0  0  0  0  0  0  0  0  0
   -7.4186    4.5462  -17.5944 C   0  0  0  0  0  0  0  0  0  0  0  0
   -6.8983    4.6092  -18.8207 N   0  0  0  0  0  0  0  0  0  0  0  0
   -5.5890    4.9548  -18.8402 C   0  0  0  0  0  0  0  0  0  0  0  0
   -5.1283    4.8975  -20.1243 N   0  0  0  0  0  0  0  0  0  0  0  0
   -4.0779    5.6393  -20.8091 C   0  0  0  0  0  0  0  0  0  0  0  0
   -2.6859    5.2151  -20.3321 C   0  0  0  0  0  0  0  0  0  0  0  0
   -4.2001    5.2030  -22.2888 C   0  0  0  0  0  0  0  0  0  0  0  0
   -4.2948    7.1736  -20.7629 C   0  0  0  0  0  0  0  0  0  0  0  0
   -3.9369    7.7979  -19.5329 O   0  0  0  0  0  0  0  0  0  0  0  0
   -4.8149    5.2372  -17.6920 C   0  0  0  0  0  0  0  0  0  0  0  0
   -5.3452    5.2051  -16.3869 C   0  0  0  0  0  0  0  0  0  0  0  0
   -6.6849    4.8345  -16.4201 C   0  0  0  0  0  0  0  0  0  0  0  0
   -7.9215    6.4754  -11.1457 C   0  0  0  0  0  0  0  0  0  0  0  0
   -7.8270    6.7296   -9.7781 C   0  0  0  0  0  0  0  0  0  0  0  0
   -8.1552    5.7303   -8.8639 C   0  0  0  0  0  0  0  0  0  0  0  0
   -8.1151    5.9949   -7.5246 O   0  0  0  0  0  0  0  0  0  0  0  0
  1  2  1  0
  2  3  1  0
  2  4  1  0
  4  5  1  0
  5  6  2  0
  6  7  1  0
  7  8  1  0
  8  9  1  0
  9 10  2  0
  9 11  1  0
 11 12  1  0
 12 13  1  0
 13 14  1  0
 13 15  2  0
 15 16  1  0
 16 17  2  0
 17 18  1  0
 18 19  1  0
 19 20  1  0
 19 21  1  0
 19 22  1  0
 22 23  1  0
 17 24  1  0
 24 25  2  0
 25 26  1  0
  7 27  2  0
 27 28  1  0
 28 29  2  0
 29 30  1  0
 29  5  1  0
 26 11  2  0
 26 15  1  0
M  END
>  <smiles>  (330) 
C86825-P76

>  <fragmenstein_outcome>  (330) 
acceptable

>  <inchikey>  (330) 
FQEUSXBBEGLWEN-UHFFFAOYSA-N

>  <fragmenstein_mode>  (330) 
expansion

>  <HIPPO Pose ID>  (330) 
9508

>  <Energy>  (330) 
78.975794

>  <fragmenstein_error>  (330) 


>  <tags>  (330) 
{'openbind_xx01zvns2b_c1_fragmenstein', 'fragmenstein_placed'}

>  <ref_pdb>  (330) 
1

>  <scratch_subdir>  (330) 
/opt/xchem-fragalysis-2/maxwin/BulkDock/SCRATCH/511027/C86825-P76

>  <alias>  (330) 
CN(C)Cc1cc(CC(=O)c2[nH]c(Cl)c3nc(NC(C)(C)CO)ccc23)ccc1O

>  <HIPPO Compound ID>  (330) 
86825

>  <fragmenstein_runtime>  (330) 
4.652567

$$$$
CN(C)Cc1cc(CC(=O)[C@H]2C[C@@H](Cl)C[C@H](C(=O)NC(C)(C)CO)[C@]23CN[C@@H](C)NC3)ccc1O
     RDKit          3D

 35 37  0  0  0  0  0  0  0  0999 V2000
   -2.4909    7.2300  -15.5537 C   0  0  0  0  0  0  0  0  0  0  0  0
   -3.3693    6.0251  -15.2267 C   0  0  2  0  0  0  0  0  0  0  0  0
   -3.7096    5.3331  -16.4607 N   0  0  0  0  0  0  0  0  0  0  0  0
   -4.8176    4.4185  -16.2750 C   0  0  0  0  0  0  0  0  0  0  0  0
   -6.1061    5.2611  -16.1439 C   0  0  2  0  0  0  0  0  0  0  0  0
   -5.7047    6.6009  -15.4217 C   0  0  0  0  0  0  0  0  0  0  0  0
   -4.5665    6.4536  -14.5191 N   0  0  0  0  0  0  0  0  0  0  0  0
   -7.1812    4.4258  -15.3234 C   0  0  1  0  0  0  0  0  0  0  0  0
   -7.1503    4.7296  -13.8216 C   0  0  0  0  0  0  0  0  0  0  0  0
   -6.0984    4.5555  -13.2005 O   0  0  0  0  0  0  0  0  0  0  0  0
   -8.3778    5.3380  -13.1635 C   0  0  0  0  0  0  0  0  0  0  0  0
   -8.2690    5.4310  -11.6695 C   0  0  0  0  0  0  0  0  0  0  0  0
   -7.8007    6.5916  -11.0430 C   0  0  0  0  0  0  0  0  0  0  0  0
   -7.6756    6.6341   -9.6556 C   0  0  0  0  0  0  0  0  0  0  0  0
   -8.0201    5.5190   -8.9027 C   0  0  0  0  0  0  0  0  0  0  0  0
   -7.8034    5.5635   -7.5529 O   0  0  0  0  0  0  0  0  0  0  0  0
   -8.5275    4.3635   -9.5043 C   0  0  0  0  0  0  0  0  0  0  0  0
   -8.9744    3.1750   -8.6933 C   0  0  0  0  0  0  0  0  0  0  0  0
   -7.8643    2.6282   -7.9024 N   0  0  0  0  0  0  0  0  0  0  0  0
   -6.9495    1.9084   -8.8013 C   0  0  0  0  0  0  0  0  0  0  0  0
   -8.4042    1.7047   -6.9020 C   0  0  0  0  0  0  0  0  0  0  0  0
   -8.6169    4.3185  -10.8958 C   0  0  0  0  0  0  0  0  0  0  0  0
   -8.6088    4.5228  -15.8797 C   0  0  0  0  0  0  0  0  0  0  0  0
   -8.6932    4.0651  -17.3199 C   0  0  1  0  0  0  0  0  0  0  0  0
  -10.2919    4.3924  -18.0284 Cl  0  0  0  0  0  0  0  0  0  0  0  0
   -7.5296    4.5215  -18.1928 C   0  0  0  0  0  0  0  0  0  0  0  0
   -6.6829    5.6233  -17.5541 C   0  0  2  0  0  0  0  0  0  0  0  0
   -5.7909    6.4214  -18.5491 C   0  0  0  0  0  0  0  0  0  0  0  0
   -5.7950    7.5910  -18.5123 O   0  0  0  0  0  0  0  0  0  0  0  0
   -5.0545    5.4510  -19.5032 N   0  0  0  0  0  0  0  0  0  0  0  0
   -4.0810    5.7165  -20.5658 C   0  0  0  0  0  0  0  0  0  0  0  0
   -2.6979    5.2911  -20.0661 C   0  0  0  0  0  0  0  0  0  0  0  0
   -4.4602    4.8984  -21.8104 C   0  0  0  0  0  0  0  0  0  0  0  0
   -4.0676    7.2115  -20.9882 C   0  0  0  0  0  0  0  0  0  0  0  0
   -3.5257    8.0726  -19.9909 O   0  0  0  0  0  0  0  0  0  0  0  0
  2  1  1  6
  2  3  1  0
  3  4  1  0
  5  4  1  6
  5  6  1  0
  6  7  1  0
  5  8  1  0
  8  9  1  1
  9 10  2  0
  9 11  1  0
 11 12  1  0
 12 13  2  0
 13 14  1  0
 14 15  2  0
 15 16  1  0
 15 17  1  0
 17 18  1  0
 18 19  1  0
 19 20  1  0
 19 21  1  0
 17 22  2  0
  8 23  1  0
 23 24  1  0
 24 25  1  6
 24 26  1  0
 26 27  1  0
 27 28  1  6
 28 29  2  0
 28 30  1  0
 30 31  1  0
 31 32  1  0
 31 33  1  0
 31 34  1  0
 34 35  1  0
  7  2  1  0
 22 12  1  0
 27  5  1  0
M  END
>  <smiles>  (331) 
C85971-P76

>  <fragmenstein_outcome>  (331) 
acceptable

>  <inchikey>  (331) 
RACUADFPHAAGJT-UHFFFAOYSA-N

>  <fragmenstein_mode>  (331) 
expansion

>  <HIPPO Pose ID>  (331) 
9511

>  <Energy>  (331) 
24.636973

>  <fragmenstein_error>  (331) 


>  <tags>  (331) 
{'openbind_xx01zvns2b_c1_fragmenstein', 'fragmenstein_placed'}

>  <ref_pdb>  (331) 
1

>  <scratch_subdir>  (331) 
/opt/xchem-fragalysis-2/maxwin/BulkDock/SCRATCH/511027/C85971-P76

>  <alias>  (331) 
CN(C)Cc1cc(CC(=O)[C@H]2C[C@@H](Cl)C[C@H](C(=O)NC(C)(C)CO)[C@]23CN[C@@H](C)NC3)ccc1O

>  <HIPPO Compound ID>  (331) 
100759

>  <fragmenstein_runtime>  (331) 
17.598288

$$$$
CN[C@H]1CC[C@@]2(CN1)[C@H](C(=O)Cc1ccc(O)c(CN(C)C)c1)C[C@@H](Cl)C[C@H]2C(=O)NC(C)(C)CO
     RDKit          3D

 36 38  0  0  0  0  0  0  0  0999 V2000
   -1.8365    6.7263  -12.9863 C   0  0  0  0  0  0  0  0  0  0  0  0
   -2.7123    5.5746  -13.1613 N   0  0  0  0  0  0  0  0  0  0  0  0
   -3.9216    5.8947  -13.8997 C   0  0  1  0  0  0  0  0  0  0  0  0
   -3.7063    6.5064  -15.2891 C   0  0  0  0  0  0  0  0  0  0  0  0
   -5.0371    6.5794  -16.0471 C   0  0  0  0  0  0  0  0  0  0  0  0
   -5.8037    5.2095  -16.0851 C   0  0  1  0  0  0  0  0  0  0  0  0
   -5.0094    4.1664  -15.2470 C   0  0  0  0  0  0  0  0  0  0  0  0
   -4.6273    4.6276  -13.9155 N   0  0  0  0  0  0  0  0  0  0  0  0
   -7.2437    5.4229  -15.4944 C   0  0  2  0  0  0  0  0  0  0  0  0
   -7.3569    5.8359  -14.0181 C   0  0  0  0  0  0  0  0  0  0  0  0
   -7.2098    7.0283  -13.7310 O   0  0  0  0  0  0  0  0  0  0  0  0
   -7.7267    4.7752  -12.9977 C   0  0  0  0  0  0  0  0  0  0  0  0
   -7.6671    5.1299  -11.5303 C   0  0  0  0  0  0  0  0  0  0  0  0
   -6.8617    6.1359  -10.9819 C   0  0  0  0  0  0  0  0  0  0  0  0
   -6.7831    6.3189   -9.5995 C   0  0  0  0  0  0  0  0  0  0  0  0
   -7.4779    5.4657   -8.7567 C   0  0  0  0  0  0  0  0  0  0  0  0
   -7.2578    5.5698   -7.4112 O   0  0  0  0  0  0  0  0  0  0  0  0
   -8.3080    4.4674   -9.2684 C   0  0  0  0  0  0  0  0  0  0  0  0
   -9.0281    3.4987   -8.3672 C   0  0  0  0  0  0  0  0  0  0  0  0
   -8.0809    2.6639   -7.6202 N   0  0  0  0  0  0  0  0  0  0  0  0
   -7.3604    1.7802   -8.5481 C   0  0  0  0  0  0  0  0  0  0  0  0
   -8.8102    1.8373   -6.6583 C   0  0  0  0  0  0  0  0  0  0  0  0
   -8.3923    4.3085  -10.6556 C   0  0  0  0  0  0  0  0  0  0  0  0
   -8.2669    4.3492  -15.8515 C   0  0  0  0  0  0  0  0  0  0  0  0
   -8.3963    4.1519  -17.3529 C   0  0  1  0  0  0  0  0  0  0  0  0
  -10.0486    4.4386  -17.9520 Cl  0  0  0  0  0  0  0  0  0  0  0  0
   -7.3231    4.8340  -18.1970 C   0  0  0  0  0  0  0  0  0  0  0  0
   -5.9246    4.6493  -17.5879 C   0  0  1  0  0  0  0  0  0  0  0  0
   -4.6722    4.9775  -18.4802 C   0  0  0  0  0  0  0  0  0  0  0  0
   -3.6156    4.8281  -17.9371 O   0  0  0  0  0  0  0  0  0  0  0  0
   -4.9852    5.4221  -19.8039 N   0  0  0  0  0  0  0  0  0  0  0  0
   -4.1234    5.9265  -20.8794 C   0  0  0  0  0  0  0  0  0  0  0  0
   -2.8648    5.0574  -21.0128 C   0  0  0  0  0  0  0  0  0  0  0  0
   -4.8675    5.8817  -22.2187 C   0  0  0  0  0  0  0  0  0  0  0  0
   -3.7337    7.3966  -20.5759 C   0  0  0  0  0  0  0  0  0  0  0  0
   -3.0209    7.5734  -19.3543 O   0  0  0  0  0  0  0  0  0  0  0  0
  1  2  1  0
  3  2  1  6
  3  4  1  0
  4  5  1  0
  6  5  1  6
  6  7  1  0
  7  8  1  0
  6  9  1  0
  9 10  1  1
 10 11  2  0
 10 12  1  0
 12 13  1  0
 13 14  2  0
 14 15  1  0
 15 16  2  0
 16 17  1  0
 16 18  1  0
 18 19  1  0
 19 20  1  0
 20 21  1  0
 20 22  1  0
 18 23  2  0
  9 24  1  0
 24 25  1  0
 25 26  1  6
 25 27  1  0
 27 28  1  0
 28 29  1  6
 29 30  2  0
 29 31  1  0
 31 32  1  0
 32 33  1  0
 32 34  1  0
 32 35  1  0
 35 36  1  0
  8  3  1  0
 23 13  1  0
 28  6  1  0
M  END
>  <smiles>  (332) 
C86827-P76

>  <fragmenstein_outcome>  (332) 
acceptable

>  <inchikey>  (332) 
VOAHRGPLGSHAGC-UHFFFAOYSA-N

>  <fragmenstein_mode>  (332) 
expansion

>  <HIPPO Pose ID>  (332) 
9513

>  <Energy>  (332) 
35.873114

>  <fragmenstein_error>  (332) 


>  <tags>  (332) 
{'openbind_xx01zvns2b_c1_fragmenstein', 'fragmenstein_placed'}

>  <ref_pdb>  (332) 
1

>  <scratch_subdir>  (332) 
/opt/xchem-fragalysis-2/maxwin/BulkDock/SCRATCH/511027/C86827-P76

>  <alias>  (332) 
CN[C@H]1CC[C@@]2(CN1)[C@H](C(=O)Cc1ccc(O)c(CN(C)C)c1)C[C@@H](Cl)C[C@H]2C(=O)NC(C)(C)CO

>  <HIPPO Compound ID>  (332) 
104815

>  <fragmenstein_runtime>  (332) 
20.507169

$$$$
CN(C)Cc1cc(CN[C@H]2C[C@@H](Cl)C[C@]3(C2)NCC[C@@H]3C(C)(C)CO)ccc1O
     RDKit          3D

 29 31  0  0  0  0  0  0  0  0999 V2000
   -7.0689    1.8357   -8.6756 C   0  0  0  0  0  0  0  0  0  0  0  0
   -7.8752    2.6170   -7.7256 N   0  0  0  0  0  0  0  0  0  0  0  0
   -8.3913    1.7341   -6.6797 C   0  0  0  0  0  0  0  0  0  0  0  0
   -9.0079    3.2183   -8.4340 C   0  0  0  0  0  0  0  0  0  0  0  0
   -8.5435    4.3205   -9.3444 C   0  0  0  0  0  0  0  0  0  0  0  0
   -8.6412    4.1426  -10.7214 C   0  0  0  0  0  0  0  0  0  0  0  0
   -8.2533    5.1539  -11.6025 C   0  0  0  0  0  0  0  0  0  0  0  0
   -8.4102    4.9029  -13.0701 C   0  0  0  0  0  0  0  0  0  0  0  0
   -7.1262    4.9256  -13.7739 N   0  0  0  0  0  0  0  0  0  0  0  0
   -7.2090    4.1343  -15.0167 C   0  0  1  0  0  0  0  0  0  0  0  0
   -8.4128    4.5616  -15.8626 C   0  0  0  0  0  0  0  0  0  0  0  0
   -8.1521    4.2504  -17.3090 C   0  0  1  0  0  0  0  0  0  0  0  0
   -9.6426    4.2779  -18.2774 Cl  0  0  0  0  0  0  0  0  0  0  0  0
   -6.9863    5.0474  -17.8940 C   0  0  0  0  0  0  0  0  0  0  0  0
   -5.7839    5.2514  -16.9314 C   0  0  2  0  0  0  0  0  0  0  0  0
   -5.8707    4.1941  -15.7868 C   0  0  0  0  0  0  0  0  0  0  0  0
   -5.7660    6.5675  -16.2647 N   0  0  0  0  0  0  0  0  0  0  0  0
   -4.4199    6.7273  -15.6968 C   0  0  0  0  0  0  0  0  0  0  0  0
   -3.5023    5.7944  -16.4792 C   0  0  0  0  0  0  0  0  0  0  0  0
   -4.3727    5.2426  -17.6287 C   0  0  2  0  0  0  0  0  0  0  0  0
   -4.0605    6.0393  -18.9813 C   0  0  0  0  0  0  0  0  0  0  0  0
   -4.9905    5.6613  -20.1459 C   0  0  0  0  0  0  0  0  0  0  0  0
   -4.1470    7.5747  -18.8337 C   0  0  0  0  0  0  0  0  0  0  0  0
   -2.6139    5.6924  -19.4749 C   0  0  0  0  0  0  0  0  0  0  0  0
   -2.4876    4.3043  -19.7664 O   0  0  0  0  0  0  0  0  0  0  0  0
   -7.7608    6.3617  -11.0947 C   0  0  0  0  0  0  0  0  0  0  0  0
   -7.6233    6.5356   -9.7174 C   0  0  0  0  0  0  0  0  0  0  0  0
   -7.9871    5.5052   -8.8590 C   0  0  0  0  0  0  0  0  0  0  0  0
   -7.7388    5.6544   -7.5231 O   0  0  0  0  0  0  0  0  0  0  0  0
  1  2  1  0
  2  3  1  0
  2  4  1  0
  4  5  1  0
  5  6  2  0
  6  7  1  0
  7  8  1  0
  8  9  1  0
 10  9  1  1
 10 11  1  0
 11 12  1  0
 12 13  1  6
 12 14  1  0
 15 14  1  6
 15 16  1  0
 15 17  1  0
 17 18  1  0
 18 19  1  0
 19 20  1  0
 20 21  1  6
 21 22  1  0
 21 23  1  0
 21 24  1  0
 24 25  1  0
  7 26  2  0
 26 27  1  0
 27 28  2  0
 28 29  1  0
 28  5  1  0
 16 10  1  0
 20 15  1  0
M  END
>  <smiles>  (333) 
C86829-P76

>  <fragmenstein_outcome>  (333) 
acceptable

>  <inchikey>  (333) 
BBCNFIFWHAVYKF-UHFFFAOYSA-N

>  <fragmenstein_mode>  (333) 
expansion

>  <HIPPO Pose ID>  (333) 
9514

>  <Energy>  (333) 
79.227719

>  <fragmenstein_error>  (333) 


>  <tags>  (333) 
{'openbind_xx01zvns2b_c1_fragmenstein', 'fragmenstein_placed'}

>  <ref_pdb>  (333) 
1

>  <scratch_subdir>  (333) 
/opt/xchem-fragalysis-2/maxwin/BulkDock/SCRATCH/511027/C86829-P76

>  <alias>  (333) 
CN(C)Cc1cc(CN[C@H]2C[C@@H](Cl)C[C@]3(C2)NCC[C@@H]3C(C)(C)CO)ccc1O

>  <HIPPO Compound ID>  (333) 
86829

>  <fragmenstein_runtime>  (333) 
7.951133

$$$$
CN(C)Cc1cc(CNc2cc(Cl)c3ccc(C(C)(C)CO)c(O)c3c2)ccc1O
     RDKit          3D

 30 32  0  0  0  0  0  0  0  0999 V2000
   -7.1265    1.8796   -8.7365 C   0  0  0  0  0  0  0  0  0  0  0  0
   -7.8490    2.6514   -7.7260 N   0  0  0  0  0  0  0  0  0  0  0  0
   -8.3515    1.7645   -6.6799 C   0  0  0  0  0  0  0  0  0  0  0  0
   -8.9797    3.3776   -8.3062 C   0  0  0  0  0  0  0  0  0  0  0  0
   -8.5733    4.4420   -9.2917 C   0  0  0  0  0  0  0  0  0  0  0  0
   -8.5994    4.1354  -10.6566 C   0  0  0  0  0  0  0  0  0  0  0  0
   -8.2778    5.0940  -11.6203 C   0  0  0  0  0  0  0  0  0  0  0  0
   -8.4382    4.7220  -13.0665 C   0  0  0  0  0  0  0  0  0  0  0  0
   -7.3807    5.3101  -13.8685 N   0  0  0  0  0  0  0  0  0  0  0  0
   -7.3766    4.9862  -15.2298 C   0  0  0  0  0  0  0  0  0  0  0  0
   -8.5006    4.5234  -15.9120 C   0  0  0  0  0  0  0  0  0  0  0  0
   -8.4454    4.2762  -17.2749 C   0  0  0  0  0  0  0  0  0  0  0  0
   -9.9323    3.8478  -18.0606 Cl  0  0  0  0  0  0  0  0  0  0  0  0
   -7.2414    4.4621  -17.9764 C   0  0  0  0  0  0  0  0  0  0  0  0
   -7.0989    4.0814  -19.3001 C   0  0  0  0  0  0  0  0  0  0  0  0
   -5.9356    4.3338  -20.0265 C   0  0  0  0  0  0  0  0  0  0  0  0
   -4.8958    5.0923  -19.5111 C   0  0  0  0  0  0  0  0  0  0  0  0
   -3.8136    5.6370  -20.4625 C   0  0  0  0  0  0  0  0  0  0  0  0
   -2.4037    5.2703  -19.9745 C   0  0  0  0  0  0  0  0  0  0  0  0
   -3.9303    5.0703  -21.9105 C   0  0  0  0  0  0  0  0  0  0  0  0
   -3.9943    7.1777  -20.6089 C   0  0  0  0  0  0  0  0  0  0  0  0
   -3.5058    7.9387  -19.5102 O   0  0  0  0  0  0  0  0  0  0  0  0
   -4.9860    5.3728  -18.1383 C   0  0  0  0  0  0  0  0  0  0  0  0
   -3.9398    6.0369  -17.5445 O   0  0  0  0  0  0  0  0  0  0  0  0
   -6.1269    5.0413  -17.3479 C   0  0  0  0  0  0  0  0  0  0  0  0
   -6.2296    5.3022  -15.9688 C   0  0  0  0  0  0  0  0  0  0  0  0
   -7.9206    6.3827  -11.2052 C   0  0  0  0  0  0  0  0  0  0  0  0
   -7.8637    6.6950   -9.8470 C   0  0  0  0  0  0  0  0  0  0  0  0
   -8.1899    5.7251   -8.9004 C   0  0  0  0  0  0  0  0  0  0  0  0
   -8.1767    6.0382   -7.5709 O   0  0  0  0  0  0  0  0  0  0  0  0
  1  2  1  0
  2  3  1  0
  2  4  1  0
  4  5  1  0
  5  6  2  0
  6  7  1  0
  7  8  1  0
  8  9  1  0
  9 10  1  0
 10 11  2  0
 11 12  1  0
 12 13  1  0
 12 14  2  0
 14 15  1  0
 15 16  2  0
 16 17  1  0
 17 18  1  0
 18 19  1  0
 18 20  1  0
 18 21  1  0
 21 22  1  0
 17 23  2  0
 23 24  1  0
 23 25  1  0
 25 26  2  0
  7 27  2  0
 27 28  1  0
 28 29  2  0
 29 30  1  0
 29  5  1  0
 26 10  1  0
 25 14  1  0
M  END
>  <smiles>  (334) 
C85980-P76

>  <fragmenstein_outcome>  (334) 
acceptable

>  <inchikey>  (334) 
BRQNMBLTUPASSB-UHFFFAOYSA-N

>  <fragmenstein_mode>  (334) 
expansion

>  <HIPPO Pose ID>  (334) 
9515

>  <Energy>  (334) 
88.633134

>  <fragmenstein_error>  (334) 


>  <tags>  (334) 
{'openbind_xx01zvns2b_c1_fragmenstein', 'fragmenstein_placed'}

>  <ref_pdb>  (334) 
1

>  <scratch_subdir>  (334) 
/opt/xchem-fragalysis-2/maxwin/BulkDock/SCRATCH/511027/C85980-P76

>  <alias>  (334) 
CN(C)Cc1cc(CNc2cc(Cl)c3ccc(C(C)(C)CO)c(O)c3c2)ccc1O

>  <HIPPO Compound ID>  (334) 
73279

>  <fragmenstein_runtime>  (334) 
5.368864

$$$$
CN(C)Cc1cc(CC(=O)c2cc(Cl)cc([C@H](N=O)N[C@@](C)(CO)CCc3ccccc3)c2)ccc1O
     RDKit          3D

 37 39  0  0  0  0  0  0  0  0999 V2000
   -6.9714    1.8799   -8.7598 C   0  0  0  0  0  0  0  0  0  0  0  0
   -7.8528    2.6226   -7.8467 N   0  0  0  0  0  0  0  0  0  0  0  0
   -8.3660    1.7240   -6.8106 C   0  0  0  0  0  0  0  0  0  0  0  0
   -8.9876    3.1526   -8.6105 C   0  0  0  0  0  0  0  0  0  0  0  0
   -8.5679    4.3071   -9.4800 C   0  0  0  0  0  0  0  0  0  0  0  0
   -8.6955    4.1970  -10.8647 C   0  0  0  0  0  0  0  0  0  0  0  0
   -8.4227    5.2870  -11.6948 C   0  0  0  0  0  0  0  0  0  0  0  0
   -8.6280    5.1379  -13.1773 C   0  0  0  0  0  0  0  0  0  0  0  0
   -7.3436    5.0271  -13.9532 C   0  0  0  0  0  0  0  0  0  0  0  0
   -6.2465    5.3007  -13.4678 O   0  0  0  0  0  0  0  0  0  0  0  0
   -7.4267    4.7135  -15.4041 C   0  0  0  0  0  0  0  0  0  0  0  0
   -8.6119    4.3617  -16.0479 C   0  0  0  0  0  0  0  0  0  0  0  0
   -8.6304    4.2628  -17.4357 C   0  0  0  0  0  0  0  0  0  0  0  0
  -10.1151    3.9262  -18.2332 Cl  0  0  0  0  0  0  0  0  0  0  0  0
   -7.4834    4.5209  -18.1865 C   0  0  0  0  0  0  0  0  0  0  0  0
   -6.2809    4.8710  -17.5582 C   0  0  0  0  0  0  0  0  0  0  0  0
   -5.0126    5.2862  -18.3030 C   0  0  2  0  0  0  0  0  0  0  0  0
   -4.5720    6.6509  -17.8234 N   0  0  0  0  0  0  0  0  0  0  0  0
   -5.4358    7.5285  -17.9562 O   0  0  0  0  0  0  0  0  0  0  0  0
   -5.1091    5.1126  -19.7585 N   0  0  0  0  0  0  0  0  0  0  0  0
   -3.9814    5.6040  -20.5973 C   0  0  1  0  0  0  0  0  0  0  0  0
   -2.6037    5.2702  -20.0076 C   0  0  0  0  0  0  0  0  0  0  0  0
   -4.0690    4.8121  -21.9400 C   0  0  0  0  0  0  0  0  0  0  0  0
   -5.3820    4.8460  -22.4832 O   0  0  0  0  0  0  0  0  0  0  0  0
   -4.2435    7.1123  -20.9389 C   0  0  0  0  0  0  0  0  0  0  0  0
   -3.1896    8.1499  -20.5263 C   0  0  0  0  0  0  0  0  0  0  0  0
   -1.9415    8.1968  -21.3784 C   0  0  0  0  0  0  0  0  0  0  0  0
   -2.0109    8.3128  -22.7737 C   0  0  0  0  0  0  0  0  0  0  0  0
   -0.8462    8.3797  -23.5415 C   0  0  0  0  0  0  0  0  0  0  0  0
    0.4017    8.3452  -22.9239 C   0  0  0  0  0  0  0  0  0  0  0  0
    0.4860    8.2484  -21.5373 C   0  0  0  0  0  0  0  0  0  0  0  0
   -0.6779    8.1808  -20.7691 C   0  0  0  0  0  0  0  0  0  0  0  0
   -6.2664    4.9181  -16.1550 C   0  0  0  0  0  0  0  0  0  0  0  0
   -7.9728    6.4880  -11.1297 C   0  0  0  0  0  0  0  0  0  0  0  0
   -7.7853    6.5888   -9.7515 C   0  0  0  0  0  0  0  0  0  0  0  0
   -8.0678    5.4963   -8.9425 C   0  0  0  0  0  0  0  0  0  0  0  0
   -7.8081    5.5992   -7.6037 O   0  0  0  0  0  0  0  0  0  0  0  0
  1  2  1  0
  2  3  1  0
  2  4  1  0
  4  5  1  0
  5  6  2  0
  6  7  1  0
  7  8  1  0
  8  9  1  0
  9 10  2  0
  9 11  1  0
 11 12  2  0
 12 13  1  0
 13 14  1  0
 13 15  2  0
 15 16  1  0
 16 17  1  0
 17 18  1  0
 18 19  2  0
 17 20  1  6
 20 21  1  0
 21 22  1  1
 21 23  1  0
 23 24  1  0
 21 25  1  0
 25 26  1  0
 26 27  1  0
 27 28  2  0
 28 29  1  0
 29 30  2  0
 30 31  1  0
 31 32  2  0
 16 33  2  0
  7 34  2  0
 34 35  1  0
 35 36  2  0
 36 37  1  0
 36  5  1  0
 33 11  1  0
 32 27  1  0
M  END
>  <smiles>  (335) 
C86009-P76

>  <fragmenstein_outcome>  (335) 
acceptable

>  <inchikey>  (335) 
QOEDUSMELRNUIE-UHFFFAOYSA-N

>  <fragmenstein_mode>  (335) 
expansion

>  <HIPPO Pose ID>  (335) 
9540

>  <Energy>  (335) 
123.716277

>  <fragmenstein_error>  (335) 


>  <tags>  (335) 
{'openbind_xx01zvns2b_c1_fragmenstein', 'fragmenstein_placed'}

>  <ref_pdb>  (335) 
1

>  <scratch_subdir>  (335) 
/opt/xchem-fragalysis-2/maxwin/BulkDock/SCRATCH/511027/C86009-P76

>  <alias>  (335) 
CN(C)Cc1cc(CC(=O)c2cc(Cl)cc([C@H](N=O)N[C@@](C)(CO)CCc3ccccc3)c2)ccc1O

>  <HIPPO Compound ID>  (335) 
94957

>  <fragmenstein_runtime>  (335) 
9.96579

$$$$
CN(C)C[C@H]1C[C@H](CC(=O)c2cc(Cl)cc(C(=O)NC(C)(C)CO)c2)CC2(NNNN2)[C@H]1O
     RDKit          3D

 33 35  0  0  0  0  0  0  0  0999 V2000
   -2.8515    3.8249   -7.7990 C   0  0  0  0  0  0  0  0  0  0  0  0
   -4.0157    4.6866   -8.0037 N   0  0  0  0  0  0  0  0  0  0  0  0
   -3.7517    6.0265   -7.4781 C   0  0  0  0  0  0  0  0  0  0  0  0
   -4.3935    4.7127   -9.4280 C   0  0  0  0  0  0  0  0  0  0  0  0
   -5.7881    5.3249   -9.7441 C   0  0  1  0  0  0  0  0  0  0  0  0
   -6.0361    5.3329  -11.2664 C   0  0  0  0  0  0  0  0  0  0  0  0
   -6.3990    3.9430  -11.8093 C   0  0  2  0  0  0  0  0  0  0  0  0
   -6.5147    3.9058  -13.3306 C   0  0  0  0  0  0  0  0  0  0  0  0
   -7.6074    4.7449  -13.9644 C   0  0  0  0  0  0  0  0  0  0  0  0
   -8.4430    5.4168  -13.3730 O   0  0  0  0  0  0  0  0  0  0  0  0
   -7.6380    4.7115  -15.4346 C   0  0  0  0  0  0  0  0  0  0  0  0
   -8.8013    4.3184  -16.0791 C   0  0  0  0  0  0  0  0  0  0  0  0
   -8.8170    4.2912  -17.4650 C   0  0  0  0  0  0  0  0  0  0  0  0
  -10.2768    3.9099  -18.2775 Cl  0  0  0  0  0  0  0  0  0  0  0  0
   -7.6914    4.6620  -18.2067 C   0  0  0  0  0  0  0  0  0  0  0  0
   -6.5346    5.1018  -17.5608 C   0  0  0  0  0  0  0  0  0  0  0  0
   -5.3380    5.6954  -18.2512 C   0  0  0  0  0  0  0  0  0  0  0  0
   -4.6963    6.4290  -17.6126 O   0  0  0  0  0  0  0  0  0  0  0  0
   -5.1547    5.2133  -19.6973 N   0  0  0  0  0  0  0  0  0  0  0  0
   -4.1804    5.6095  -20.7161 C   0  0  0  0  0  0  0  0  0  0  0  0
   -2.7755    5.2154  -20.2410 C   0  0  0  0  0  0  0  0  0  0  0  0
   -4.4898    4.8866  -22.0315 C   0  0  0  0  0  0  0  0  0  0  0  0
   -4.2604    7.1399  -20.9640 C   0  0  0  0  0  0  0  0  0  0  0  0
   -3.7575    7.9315  -19.8905 O   0  0  0  0  0  0  0  0  0  0  0  0
   -6.5139    5.1091  -16.1599 C   0  0  0  0  0  0  0  0  0  0  0  0
   -7.6438    3.3864  -11.1032 C   0  0  0  0  0  0  0  0  0  0  0  0
   -7.4189    3.2681   -9.5795 C   0  0  0  0  0  0  0  0  0  0  0  0
   -6.4061    2.2253   -9.3169 N   0  0  0  0  0  0  0  0  0  0  0  0
   -6.9211    1.5203   -8.1909 N   0  0  0  0  0  0  0  0  0  0  0  0
   -8.3173    1.5111   -8.3594 N   0  0  0  0  0  0  0  0  0  0  0  0
   -8.6442    2.7863   -8.9240 N   0  0  0  0  0  0  0  0  0  0  0  0
   -6.9977    4.6791   -9.0146 C   0  0  1  0  0  0  0  0  0  0  0  0
   -6.7668    4.6948   -7.5994 O   0  0  0  0  0  0  0  0  0  0  0  0
  1  2  1  0
  2  3  1  0
  2  4  1  0
  5  4  1  6
  5  6  1  0
  6  7  1  0
  7  8  1  6
  8  9  1  0
  9 10  2  0
  9 11  1  0
 11 12  2  0
 12 13  1  0
 13 14  1  0
 13 15  2  0
 15 16  1  0
 16 17  1  0
 17 18  2  0
 17 19  1  0
 19 20  1  0
 20 21  1  0
 20 22  1  0
 20 23  1  0
 23 24  1  0
 16 25  2  0
  7 26  1  0
 26 27  1  0
 27 28  1  0
 28 29  1  0
 29 30  1  0
 30 31  1  0
 27 32  1  0
 32 33  1  1
 32  5  1  0
 25 11  1  0
 31 27  1  0
M  END
>  <smiles>  (336) 
C86013-P76

>  <fragmenstein_outcome>  (336) 
acceptable

>  <inchikey>  (336) 
SPQOIYLBZBEZJX-UHFFFAOYSA-N

>  <fragmenstein_mode>  (336) 
expansion

>  <HIPPO Pose ID>  (336) 
9543

>  <Energy>  (336) 
132.919501

>  <fragmenstein_error>  (336) 


>  <tags>  (336) 
{'openbind_xx01zvns2b_c1_fragmenstein', 'fragmenstein_placed'}

>  <ref_pdb>  (336) 
1

>  <scratch_subdir>  (336) 
/opt/xchem-fragalysis-2/maxwin/BulkDock/SCRATCH/511027/C86013-P76

>  <alias>  (336) 
CN(C)C[C@H]1C[C@H](CC(=O)c2cc(Cl)cc(C(=O)NC(C)(C)CO)c2)CC2(NNNN2)[C@H]1O

>  <HIPPO Compound ID>  (336) 
77333

>  <fragmenstein_runtime>  (336) 
7.144095

$$$$
CCN1CC[C@@]2(C[C@H](CC(=O)c3cc(Cl)c(C#N)c(C(=O)NC(C)(C)CO)c3)CC[C@H]2O)C1
     RDKit          3D

 33 35  0  0  0  0  0  0  0  0999 V2000
   -8.3570    3.8266   -4.9219 C   0  0  0  0  0  0  0  0  0  0  0  0
   -8.1870    4.2952   -6.3612 C   0  0  0  0  0  0  0  0  0  0  0  0
   -8.0139    3.1843   -7.2948 N   0  0  0  0  0  0  0  0  0  0  0  0
   -9.1975    2.3502   -7.4481 C   0  0  0  0  0  0  0  0  0  0  0  0
   -8.8753    1.5540   -8.6986 C   0  0  0  0  0  0  0  0  0  0  0  0
   -7.9020    2.4090   -9.5445 C   0  0  2  0  0  0  0  0  0  0  0  0
   -8.5362    2.8347  -10.8834 C   0  0  0  0  0  0  0  0  0  0  0  0
   -7.6065    3.7499  -11.7119 C   0  0  2  0  0  0  0  0  0  0  0  0
   -8.1142    3.8486  -13.1587 C   0  0  0  0  0  0  0  0  0  0  0  0
   -7.3677    4.8742  -13.9894 C   0  0  0  0  0  0  0  0  0  0  0  0
   -6.7309    5.8084  -13.5127 O   0  0  0  0  0  0  0  0  0  0  0  0
   -7.3973    4.7302  -15.4645 C   0  0  0  0  0  0  0  0  0  0  0  0
   -8.5655    4.3807  -16.1392 C   0  0  0  0  0  0  0  0  0  0  0  0
   -8.5377    4.2078  -17.5286 C   0  0  0  0  0  0  0  0  0  0  0  0
  -10.0342    3.8566  -18.3066 Cl  0  0  0  0  0  0  0  0  0  0  0  0
   -7.3380    4.3312  -18.2416 C   0  0  0  0  0  0  0  0  0  0  0  0
   -7.2052    3.8630  -19.5894 C   0  0  0  0  0  0  0  0  0  0  0  0
   -6.9358    3.4592  -20.6488 N   0  0  0  0  0  0  0  0  0  0  0  0
   -6.1890    4.7694  -17.5688 C   0  0  0  0  0  0  0  0  0  0  0  0
   -4.8680    4.9005  -18.2542 C   0  0  0  0  0  0  0  0  0  0  0  0
   -3.9493    4.4137  -17.7273 O   0  0  0  0  0  0  0  0  0  0  0  0
   -4.9645    5.6672  -19.5919 N   0  0  0  0  0  0  0  0  0  0  0  0
   -3.9510    5.9160  -20.6228 C   0  0  0  0  0  0  0  0  0  0  0  0
   -2.5463    5.5501  -20.1309 C   0  0  0  0  0  0  0  0  0  0  0  0
   -4.2722    5.0859  -21.8749 C   0  0  0  0  0  0  0  0  0  0  0  0
   -4.0218    7.4141  -20.9912 C   0  0  0  0  0  0  0  0  0  0  0  0
   -3.8295    8.2478  -19.8474 O   0  0  0  0  0  0  0  0  0  0  0  0
   -6.2199    4.9653  -16.1802 C   0  0  0  0  0  0  0  0  0  0  0  0
   -6.1357    3.2897  -11.6472 C   0  0  0  0  0  0  0  0  0  0  0  0
   -6.0097    1.8340  -11.2246 C   0  0  0  0  0  0  0  0  0  0  0  0
   -6.5981    1.5952   -9.8289 C   0  0  1  0  0  0  0  0  0  0  0  0
   -5.5624    1.8665   -8.8966 O   0  0  0  0  0  0  0  0  0  0  0  0
   -7.7089    3.6512   -8.6502 C   0  0  0  0  0  0  0  0  0  0  0  0
  1  2  1  0
  2  3  1  0
  3  4  1  0
  4  5  1  0
  6  5  1  1
  6  7  1  0
  7  8  1  0
  8  9  1  6
  9 10  1  0
 10 11  2  0
 10 12  1  0
 12 13  2  0
 13 14  1  0
 14 15  1  0
 14 16  2  0
 16 17  1  0
 17 18  3  0
 16 19  1  0
 19 20  1  0
 20 21  2  0
 20 22  1  0
 22 23  1  0
 23 24  1  0
 23 25  1  0
 23 26  1  0
 26 27  1  0
 19 28  2  0
  8 29  1  0
 29 30  1  0
 30 31  1  0
 31 32  1  1
  6 33  1  0
 33  3  1  0
 31  6  1  0
 28 12  1  0
M  END
>  <smiles>  (337) 
C86861-P76

>  <fragmenstein_outcome>  (337) 
acceptable

>  <inchikey>  (337) 
YEUIYIACLCSYNQ-UHFFFAOYSA-N

>  <fragmenstein_mode>  (337) 
expansion

>  <HIPPO Pose ID>  (337) 
9555

>  <Energy>  (337) 
93.253916

>  <fragmenstein_error>  (337) 


>  <tags>  (337) 
{'openbind_xx01zvns2b_c1_fragmenstein', 'fragmenstein_placed'}

>  <ref_pdb>  (337) 
1

>  <scratch_subdir>  (337) 
/opt/xchem-fragalysis-2/maxwin/BulkDock/SCRATCH/511027/C86861-P76

>  <alias>  (337) 
CCN1CC[C@@]2(C[C@H](CC(=O)c3cc(Cl)c(C#N)c(C(=O)NC(C)(C)CO)c3)CC[C@H]2O)C1

>  <HIPPO Compound ID>  (337) 
86861

>  <fragmenstein_runtime>  (337) 
10.807774

$$$$
CN(C)Cc1cc(CC(=O)c2[nH]c(Cl)c3c2C(=O)C(NC(C)(C)CO)=N3)ccc1O
     RDKit          3D

 30 32  0  0  0  0  0  0  0  0999 V2000
   -6.9104    1.8819   -8.8252 C   0  0  0  0  0  0  0  0  0  0  0  0
   -7.8280    2.6302   -7.9525 N   0  0  0  0  0  0  0  0  0  0  0  0
   -8.3833    1.7322   -6.9360 C   0  0  0  0  0  0  0  0  0  0  0  0
   -8.9265    3.1659   -8.7670 C   0  0  0  0  0  0  0  0  0  0  0  0
   -8.4612    4.3243   -9.6131 C   0  0  0  0  0  0  0  0  0  0  0  0
   -8.5893    4.2557  -11.0016 C   0  0  0  0  0  0  0  0  0  0  0  0
   -8.2523    5.3485  -11.8108 C   0  0  0  0  0  0  0  0  0  0  0  0
   -8.5423    5.2742  -13.2823 C   0  0  0  0  0  0  0  0  0  0  0  0
   -7.3506    5.2300  -14.2260 C   0  0  0  0  0  0  0  0  0  0  0  0
   -6.2359    5.6137  -13.8879 O   0  0  0  0  0  0  0  0  0  0  0  0
   -7.6609    4.8207  -15.5873 C   0  0  0  0  0  0  0  0  0  0  0  0
   -8.9287    4.3516  -15.9866 N   0  0  0  0  0  0  0  0  0  0  0  0
   -8.9729    4.1954  -17.3384 C   0  0  0  0  0  0  0  0  0  0  0  0
  -10.4449    3.9236  -18.1078 Cl  0  0  0  0  0  0  0  0  0  0  0  0
   -7.7198    4.3915  -17.7815 C   0  0  0  0  0  0  0  0  0  0  0  0
   -6.9033    4.8368  -16.7466 C   0  0  0  0  0  0  0  0  0  0  0  0
   -5.6528    5.1868  -17.3622 C   0  0  0  0  0  0  0  0  0  0  0  0
   -4.6502    5.7030  -16.9133 O   0  0  0  0  0  0  0  0  0  0  0  0
   -5.9233    4.8339  -18.8623 C   0  0  0  0  0  0  0  0  0  0  0  0
   -5.1994    4.9171  -20.0134 N   0  0  0  0  0  0  0  0  0  0  0  0
   -3.9951    5.6023  -20.4239 C   0  0  0  0  0  0  0  0  0  0  0  0
   -2.7883    5.1331  -19.6137 C   0  0  0  0  0  0  0  0  0  0  0  0
   -3.7677    5.1777  -21.8975 C   0  0  0  0  0  0  0  0  0  0  0  0
   -4.1729    7.1390  -20.4118 C   0  0  0  0  0  0  0  0  0  0  0  0
   -4.4136    7.7133  -19.1336 O   0  0  0  0  0  0  0  0  0  0  0  0
   -7.1380    4.3652  -19.0295 N   0  0  0  0  0  0  0  0  0  0  0  0
   -7.7411    6.5084  -11.2174 C   0  0  0  0  0  0  0  0  0  0  0  0
   -7.5678    6.5713   -9.8342 C   0  0  0  0  0  0  0  0  0  0  0  0
   -7.9178    5.4809   -9.0477 C   0  0  0  0  0  0  0  0  0  0  0  0
   -7.6807    5.5531   -7.7026 O   0  0  0  0  0  0  0  0  0  0  0  0
  1  2  1  0
  2  3  1  0
  2  4  1  0
  4  5  1  0
  5  6  2  0
  6  7  1  0
  7  8  1  0
  8  9  1  0
  9 10  2  0
  9 11  1  0
 11 12  1  0
 12 13  1  0
 13 14  1  0
 13 15  2  0
 15 16  1  0
 16 17  1  0
 17 18  2  0
 17 19  1  0
 19 20  1  0
 20 21  1  0
 21 22  1  0
 21 23  1  0
 21 24  1  0
 24 25  1  0
 19 26  2  0
  7 27  2  0
 27 28  1  0
 28 29  2  0
 29 30  1  0
 29  5  1  0
 16 11  2  0
 26 15  1  0
M  END
>  <smiles>  (338) 
C86064-P76

>  <fragmenstein_outcome>  (338) 
acceptable

>  <inchikey>  (338) 
MFFTZISIVJILBP-UHFFFAOYSA-N

>  <fragmenstein_mode>  (338) 
expansion

>  <HIPPO Pose ID>  (338) 
9597

>  <Energy>  (338) 
149.149577

>  <fragmenstein_error>  (338) 


>  <tags>  (338) 
{'openbind_xx01zvns2b_c1_fragmenstein', 'fragmenstein_placed'}

>  <ref_pdb>  (338) 
1

>  <scratch_subdir>  (338) 
/opt/xchem-fragalysis-2/maxwin/BulkDock/SCRATCH/511027/C86064-P76

>  <alias>  (338) 
CN(C)Cc1cc(CC(=O)c2[nH]c(Cl)c3c2C(=O)C(NC(C)(C)CO)=N3)ccc1O

>  <HIPPO Compound ID>  (338) 
105068

>  <fragmenstein_runtime>  (338) 
6.979373

$$$$
CN(C)Cc1cc(CC(=O)c2cc(Cl)cc3c(NC(C)(C)CO)c[nH]c23)ccc1O
     RDKit          3D

 30 32  0  0  0  0  0  0  0  0999 V2000
   -6.9730    1.8379   -8.7567 C   0  0  0  0  0  0  0  0  0  0  0  0
   -7.8549    2.6127   -7.8700 N   0  0  0  0  0  0  0  0  0  0  0  0
   -8.3874    1.7412   -6.8205 C   0  0  0  0  0  0  0  0  0  0  0  0
   -8.9729    3.1422   -8.6591 C   0  0  0  0  0  0  0  0  0  0  0  0
   -8.5164    4.2567   -9.5629 C   0  0  0  0  0  0  0  0  0  0  0  0
   -8.6231    4.1012  -10.9453 C   0  0  0  0  0  0  0  0  0  0  0  0
   -8.2678    5.1371  -11.8157 C   0  0  0  0  0  0  0  0  0  0  0  0
   -8.5005    4.9410  -13.2873 C   0  0  0  0  0  0  0  0  0  0  0  0
   -7.2956    5.0629  -14.1865 C   0  0  0  0  0  0  0  0  0  0  0  0
   -6.1868    5.4395  -13.8102 O   0  0  0  0  0  0  0  0  0  0  0  0
   -7.5072    4.7788  -15.6326 C   0  0  0  0  0  0  0  0  0  0  0  0
   -8.7556    4.4070  -16.1552 C   0  0  0  0  0  0  0  0  0  0  0  0
   -8.9347    4.2502  -17.5218 C   0  0  0  0  0  0  0  0  0  0  0  0
  -10.5035    3.9606  -18.1506 Cl  0  0  0  0  0  0  0  0  0  0  0  0
   -7.8787    4.4211  -18.4060 C   0  0  0  0  0  0  0  0  0  0  0  0
   -6.6195    4.8153  -17.9199 C   0  0  0  0  0  0  0  0  0  0  0  0
   -5.3823    5.1617  -18.5417 C   0  0  0  0  0  0  0  0  0  0  0  0
   -5.2436    5.1997  -19.8879 N   0  0  0  0  0  0  0  0  0  0  0  0
   -4.1307    5.6562  -20.7297 C   0  0  0  0  0  0  0  0  0  0  0  0
   -2.7515    5.2569  -20.2016 C   0  0  0  0  0  0  0  0  0  0  0  0
   -4.3223    4.9679  -22.0994 C   0  0  0  0  0  0  0  0  0  0  0  0
   -4.2287    7.1864  -20.9620 C   0  0  0  0  0  0  0  0  0  0  0  0
   -4.0211    7.9487  -19.7762 O   0  0  0  0  0  0  0  0  0  0  0  0
   -4.4883    5.4470  -17.5414 C   0  0  0  0  0  0  0  0  0  0  0  0
   -5.1442    5.3273  -16.3415 N   0  0  0  0  0  0  0  0  0  0  0  0
   -6.4577    4.9682  -16.5464 C   0  0  0  0  0  0  0  0  0  0  0  0
   -7.7925    6.3428  -11.2845 C   0  0  0  0  0  0  0  0  0  0  0  0
   -7.6412    6.4933   -9.9046 C   0  0  0  0  0  0  0  0  0  0  0  0
   -7.9821    5.4450   -9.0599 C   0  0  0  0  0  0  0  0  0  0  0  0
   -7.7408    5.5833   -7.7207 O   0  0  0  0  0  0  0  0  0  0  0  0
  1  2  1  0
  2  3  1  0
  2  4  1  0
  4  5  1  0
  5  6  2  0
  6  7  1  0
  7  8  1  0
  8  9  1  0
  9 10  2  0
  9 11  1  0
 11 12  2  0
 12 13  1  0
 13 14  1  0
 13 15  2  0
 15 16  1  0
 16 17  1  0
 17 18  1  0
 18 19  1  0
 19 20  1  0
 19 21  1  0
 19 22  1  0
 22 23  1  0
 17 24  2  0
 24 25  1  0
 25 26  1  0
  7 27  2  0
 27 28  1  0
 28 29  2  0
 29 30  1  0
 29  5  1  0
 26 11  1  0
 26 16  2  0
M  END
>  <smiles>  (339) 
C86936-P76

>  <fragmenstein_outcome>  (339) 
acceptable

>  <inchikey>  (339) 
ZCWPUOJQXZWZSO-UHFFFAOYSA-N

>  <fragmenstein_mode>  (339) 
expansion

>  <HIPPO Pose ID>  (339) 
9621

>  <Energy>  (339) 
74.227635

>  <fragmenstein_error>  (339) 


>  <tags>  (339) 
{'openbind_xx01zvns2b_c1_fragmenstein', 'fragmenstein_placed'}

>  <ref_pdb>  (339) 
1

>  <scratch_subdir>  (339) 
/opt/xchem-fragalysis-2/maxwin/BulkDock/SCRATCH/511027/C86936-P76

>  <alias>  (339) 
CN(C)Cc1cc(CC(=O)c2cc(Cl)cc3c(NC(C)(C)CO)c[nH]c23)ccc1O

>  <HIPPO Compound ID>  (339) 
104821

>  <fragmenstein_runtime>  (339) 
6.874403

$$$$
C[C@H]1[C@@H](c2[nH]nc3c(C(=O)Cc4cc(Br)c(O)c(CN(C)C)c4)cc(Cl)cc23)CN1CO
     RDKit          3D

 32 35  0  0  0  0  0  0  0  0999 V2000
   -4.8451    4.5556  -21.4556 C   0  0  0  0  0  0  0  0  0  0  0  0
   -4.8307    5.9377  -20.8317 C   0  0  1  0  0  0  0  0  0  0  0  0
   -4.6391    6.1923  -19.3260 C   0  0  1  0  0  0  0  0  0  0  0  0
   -4.9969    5.2787  -18.1312 C   0  0  0  0  0  0  0  0  0  0  0  0
   -4.1669    5.1930  -17.0476 N   0  0  0  0  0  0  0  0  0  0  0  0
   -4.8026    4.9802  -15.8970 N   0  0  0  0  0  0  0  0  0  0  0  0
   -6.0893    4.7863  -16.2293 C   0  0  0  0  0  0  0  0  0  0  0  0
   -7.2439    4.6357  -15.4310 C   0  0  0  0  0  0  0  0  0  0  0  0
   -7.2261    5.0002  -14.0014 C   0  0  0  0  0  0  0  0  0  0  0  0
   -6.3140    5.7047  -13.5755 O   0  0  0  0  0  0  0  0  0  0  0  0
   -8.4113    4.6041  -13.1585 C   0  0  0  0  0  0  0  0  0  0  0  0
   -8.3255    5.0015  -11.7060 C   0  0  0  0  0  0  0  0  0  0  0  0
   -8.0305    6.3106  -11.3015 C   0  0  0  0  0  0  0  0  0  0  0  0
   -7.9886    6.6357   -9.9464 C   0  0  0  0  0  0  0  0  0  0  0  0
   -7.5635    8.4142   -9.4450 Br  0  0  0  0  0  0  0  0  0  0  0  0
   -8.2806    5.6700   -8.9814 C   0  0  0  0  0  0  0  0  0  0  0  0
   -8.2812    5.9840   -7.6479 O   0  0  0  0  0  0  0  0  0  0  0  0
   -8.6192    4.3712   -9.3662 C   0  0  0  0  0  0  0  0  0  0  0  0
   -9.0006    3.3071   -8.3703 C   0  0  0  0  0  0  0  0  0  0  0  0
   -7.8533    2.6357   -7.7587 N   0  0  0  0  0  0  0  0  0  0  0  0
   -7.0926    1.8697   -8.7453 C   0  0  0  0  0  0  0  0  0  0  0  0
   -8.3414    1.7537   -6.7010 C   0  0  0  0  0  0  0  0  0  0  0  0
   -8.6210    4.0460  -10.7307 C   0  0  0  0  0  0  0  0  0  0  0  0
   -8.4251    4.3356  -16.1476 C   0  0  0  0  0  0  0  0  0  0  0  0
   -8.4658    4.2866  -17.5681 C   0  0  0  0  0  0  0  0  0  0  0  0
   -9.9947    3.9592  -18.3048 Cl  0  0  0  0  0  0  0  0  0  0  0  0
   -7.3619    4.5621  -18.3994 C   0  0  0  0  0  0  0  0  0  0  0  0
   -6.1976    4.7928  -17.6761 C   0  0  0  0  0  0  0  0  0  0  0  0
   -3.1304    6.2438  -19.6735 C   0  0  0  0  0  0  0  0  0  0  0  0
   -3.4896    6.5667  -21.0743 N   0  0  0  0  0  0  0  0  0  0  0  0
   -3.5912    8.0044  -21.2541 C   0  0  0  0  0  0  0  0  0  0  0  0
   -2.2879    8.5271  -21.4017 O   0  0  0  0  0  0  0  0  0  0  0  0
  2  1  1  1
  2  3  1  0
  3  4  1  1
  4  5  1  0
  5  6  1  0
  6  7  2  0
  7  8  1  0
  8  9  1  0
  9 10  2  0
  9 11  1  0
 11 12  1  0
 12 13  2  0
 13 14  1  0
 14 15  1  0
 14 16  2  0
 16 17  1  0
 16 18  1  0
 18 19  1  0
 19 20  1  0
 20 21  1  0
 20 22  1  0
 18 23  2  0
  8 24  2  0
 24 25  1  0
 25 26  1  0
 25 27  2  0
 27 28  1  0
  3 29  1  0
 29 30  1  0
 30 31  1  0
 31 32  1  0
 30  2  1  0
 28  4  2  0
 28  7  1  0
 23 12  1  0
M  END
>  <smiles>  (340) 
C86939-P76

>  <fragmenstein_outcome>  (340) 
acceptable

>  <inchikey>  (340) 
QKHNFMBKLCSWGS-UHFFFAOYSA-N

>  <fragmenstein_mode>  (340) 
expansion

>  <HIPPO Pose ID>  (340) 
9623

>  <Energy>  (340) 
106.448758

>  <fragmenstein_error>  (340) 


>  <tags>  (340) 
{'openbind_xx01zvns2b_c1_fragmenstein', 'fragmenstein_placed'}

>  <ref_pdb>  (340) 
1

>  <scratch_subdir>  (340) 
/opt/xchem-fragalysis-2/maxwin/BulkDock/SCRATCH/511027/C86939-P76

>  <alias>  (340) 
C[C@H]1[C@@H](c2[nH]nc3c(C(=O)Cc4cc(Br)c(O)c(CN(C)C)c4)cc(Cl)cc23)CN1CO

>  <HIPPO Compound ID>  (340) 
86939

>  <fragmenstein_runtime>  (340) 
7.531601

$$$$
C[C@@H]1[C@@H](c2[nH]nc3c(C(=O)Cc4ccc(O)c(CN(C)C)c4)cc(Cl)cc23)CN1CO
     RDKit          3D

 31 34  0  0  0  0  0  0  0  0999 V2000
   -3.0628    4.7350  -21.4328 C   0  0  0  0  0  0  0  0  0  0  0  0
   -3.5055    5.5722  -20.2495 C   0  0  2  0  0  0  0  0  0  0  0  0
   -4.9996    5.4361  -19.8565 C   0  0  1  0  0  0  0  0  0  0  0  0
   -5.3299    5.2725  -18.3424 C   0  0  0  0  0  0  0  0  0  0  0  0
   -4.5363    5.6734  -17.3130 N   0  0  0  0  0  0  0  0  0  0  0  0
   -5.0913    5.5325  -16.1007 N   0  0  0  0  0  0  0  0  0  0  0  0
   -6.3139    5.0174  -16.3197 C   0  0  0  0  0  0  0  0  0  0  0  0
   -7.3790    4.7194  -15.4420 C   0  0  0  0  0  0  0  0  0  0  0  0
   -7.2693    4.9244  -13.9829 C   0  0  0  0  0  0  0  0  0  0  0  0
   -6.1815    4.8688  -13.4169 O   0  0  0  0  0  0  0  0  0  0  0  0
   -8.5448    5.2767  -13.2520 C   0  0  0  0  0  0  0  0  0  0  0  0
   -8.3731    5.3813  -11.7604 C   0  0  0  0  0  0  0  0  0  0  0  0
   -7.9204    6.5605  -11.1556 C   0  0  0  0  0  0  0  0  0  0  0  0
   -7.7554    6.6202   -9.7719 C   0  0  0  0  0  0  0  0  0  0  0  0
   -8.0518    5.5053   -8.9984 C   0  0  0  0  0  0  0  0  0  0  0  0
   -7.8132    5.5718   -7.6529 O   0  0  0  0  0  0  0  0  0  0  0  0
   -8.5409    4.3301   -9.5769 C   0  0  0  0  0  0  0  0  0  0  0  0
   -8.9622    3.1474   -8.7453 C   0  0  0  0  0  0  0  0  0  0  0  0
   -7.8461    2.6335   -7.9396 N   0  0  0  0  0  0  0  0  0  0  0  0
   -6.9085    1.9287   -8.8252 C   0  0  0  0  0  0  0  0  0  0  0  0
   -8.3735    1.7104   -6.9338 C   0  0  0  0  0  0  0  0  0  0  0  0
   -8.6575    4.2654  -10.9664 C   0  0  0  0  0  0  0  0  0  0  0  0
   -8.5747    4.3248  -16.0947 C   0  0  0  0  0  0  0  0  0  0  0  0
   -8.6899    4.2135  -17.5090 C   0  0  0  0  0  0  0  0  0  0  0  0
  -10.2465    3.8841  -18.1744 Cl  0  0  0  0  0  0  0  0  0  0  0  0
   -7.6340    4.4313  -18.4035 C   0  0  0  0  0  0  0  0  0  0  0  0
   -6.4853    4.8484  -17.7479 C   0  0  0  0  0  0  0  0  0  0  0  0
   -5.1539    6.8905  -20.3535 C   0  0  0  0  0  0  0  0  0  0  0  0
   -3.7337    6.9612  -20.6836 N   0  0  0  0  0  0  0  0  0  0  0  0
   -3.0044    7.9179  -19.8734 C   0  0  0  0  0  0  0  0  0  0  0  0
   -3.1096    7.6988  -18.4751 O   0  0  0  0  0  0  0  0  0  0  0  0
  2  1  1  6
  2  3  1  0
  3  4  1  1
  4  5  1  0
  5  6  1  0
  6  7  2  0
  7  8  1  0
  8  9  1  0
  9 10  2  0
  9 11  1  0
 11 12  1  0
 12 13  2  0
 13 14  1  0
 14 15  2  0
 15 16  1  0
 15 17  1  0
 17 18  1  0
 18 19  1  0
 19 20  1  0
 19 21  1  0
 17 22  2  0
  8 23  2  0
 23 24  1  0
 24 25  1  0
 24 26  2  0
 26 27  1  0
  3 28  1  0
 28 29  1  0
 29 30  1  0
 30 31  1  0
 29  2  1  0
 27  4  2  0
 27  7  1  0
 22 12  1  0
M  END
>  <smiles>  (341) 
C86926-P76

>  <fragmenstein_outcome>  (341) 
acceptable

>  <inchikey>  (341) 
JUDGFUZVKYVIRT-UHFFFAOYSA-N

>  <fragmenstein_mode>  (341) 
expansion

>  <HIPPO Pose ID>  (341) 
9629

>  <Energy>  (341) 
73.121482

>  <fragmenstein_error>  (341) 


>  <tags>  (341) 
{'openbind_xx01zvns2b_c1_fragmenstein', 'fragmenstein_placed'}

>  <ref_pdb>  (341) 
1

>  <scratch_subdir>  (341) 
/opt/xchem-fragalysis-2/maxwin/BulkDock/SCRATCH/511027/C86926-P76

>  <alias>  (341) 
C[C@@H]1[C@@H](c2[nH]nc3c(C(=O)Cc4ccc(O)c(CN(C)C)c4)cc(Cl)cc23)CN1CO

>  <HIPPO Compound ID>  (341) 
82865

>  <fragmenstein_runtime>  (341) 
6.398823

$$$$
CN(C)Cc1cc(CC(=O)c2cc(Cl)cc3c2cnn3[C@H]2CN(C)[C@H]2CO)ccc1O
     RDKit          3D

 31 34  0  0  0  0  0  0  0  0999 V2000
   -6.8981    1.8884   -8.8258 C   0  0  0  0  0  0  0  0  0  0  0  0
   -7.8476    2.5995   -7.9598 N   0  0  0  0  0  0  0  0  0  0  0  0
   -8.3738    1.6938   -6.9385 C   0  0  0  0  0  0  0  0  0  0  0  0
   -8.9606    3.0909   -8.7830 C   0  0  0  0  0  0  0  0  0  0  0  0
   -8.5439    4.2827   -9.6035 C   0  0  0  0  0  0  0  0  0  0  0  0
   -8.6469    4.2272  -10.9943 C   0  0  0  0  0  0  0  0  0  0  0  0
   -8.3715    5.3538  -11.7762 C   0  0  0  0  0  0  0  0  0  0  0  0
   -8.5348    5.2616  -13.2694 C   0  0  0  0  0  0  0  0  0  0  0  0
   -7.2265    5.1084  -14.0136 C   0  0  0  0  0  0  0  0  0  0  0  0
   -6.1307    5.2336  -13.4703 O   0  0  0  0  0  0  0  0  0  0  0  0
   -7.2826    4.8819  -15.4825 C   0  0  0  0  0  0  0  0  0  0  0  0
   -8.4536    4.4303  -16.1113 C   0  0  0  0  0  0  0  0  0  0  0  0
   -8.4874    4.2603  -17.4868 C   0  0  0  0  0  0  0  0  0  0  0  0
   -9.9769    3.8477  -18.2418 Cl  0  0  0  0  0  0  0  0  0  0  0  0
   -7.3529    4.4658  -18.2712 C   0  0  0  0  0  0  0  0  0  0  0  0
   -6.1841    4.9403  -17.6521 C   0  0  0  0  0  0  0  0  0  0  0  0
   -6.1444    5.1743  -16.2750 C   0  0  0  0  0  0  0  0  0  0  0  0
   -4.8515    5.7081  -16.0529 C   0  0  0  0  0  0  0  0  0  0  0  0
   -4.1279    5.8166  -17.1695 N   0  0  0  0  0  0  0  0  0  0  0  0
   -4.9149    5.2528  -18.1116 N   0  0  0  0  0  0  0  0  0  0  0  0
   -4.3001    4.8137  -19.3748 C   0  0  1  0  0  0  0  0  0  0  0  0
   -5.2233    4.8278  -20.5896 C   0  0  0  0  0  0  0  0  0  0  0  0
   -4.0410    5.1757  -21.4135 N   0  0  0  0  0  0  0  0  0  0  0  0
   -4.4152    6.0355  -22.5264 C   0  0  0  0  0  0  0  0  0  0  0  0
   -3.5105    5.9013  -20.1934 C   0  0  1  0  0  0  0  0  0  0  0  0
   -3.8822    7.3872  -20.0751 C   0  0  0  0  0  0  0  0  0  0  0  0
   -3.2890    7.9618  -18.9182 O   0  0  0  0  0  0  0  0  0  0  0  0
   -7.9532    6.5380  -11.1549 C   0  0  0  0  0  0  0  0  0  0  0  0
   -7.8008    6.5885   -9.7693 C   0  0  0  0  0  0  0  0  0  0  0  0
   -8.0779    5.4598   -9.0097 C   0  0  0  0  0  0  0  0  0  0  0  0
   -7.8470    5.5142   -7.6624 O   0  0  0  0  0  0  0  0  0  0  0  0
  1  2  1  0
  2  3  1  0
  2  4  1  0
  4  5  1  0
  5  6  2  0
  6  7  1  0
  7  8  1  0
  8  9  1  0
  9 10  2  0
  9 11  1  0
 11 12  2  0
 12 13  1  0
 13 14  1  0
 13 15  2  0
 15 16  1  0
 16 17  2  0
 17 18  1  0
 18 19  2  0
 19 20  1  0
 21 20  1  1
 21 22  1  0
 22 23  1  0
 23 24  1  0
 23 25  1  0
 25 26  1  1
 26 27  1  0
  7 28  2  0
 28 29  1  0
 29 30  2  0
 30 31  1  0
 30  5  1  0
 17 11  1  0
 25 21  1  0
 20 16  1  0
M  END
>  <smiles>  (342) 
C86121-P76

>  <fragmenstein_outcome>  (342) 
acceptable

>  <inchikey>  (342) 
NRQGMZAHBHVOIH-UHFFFAOYSA-N

>  <fragmenstein_mode>  (342) 
expansion

>  <HIPPO Pose ID>  (342) 
9634

>  <Energy>  (342) 
101.12638

>  <fragmenstein_error>  (342) 


>  <tags>  (342) 
{'openbind_xx01zvns2b_c1_fragmenstein', 'fragmenstein_placed'}

>  <ref_pdb>  (342) 
1

>  <scratch_subdir>  (342) 
/opt/xchem-fragalysis-2/maxwin/BulkDock/SCRATCH/511027/C86121-P76

>  <alias>  (342) 
CN(C)Cc1cc(CC(=O)c2cc(Cl)cc3c2cnn3[C@H]2CN(C)[C@H]2CO)ccc1O

>  <HIPPO Compound ID>  (342) 
96295

>  <fragmenstein_runtime>  (342) 
6.737302

$$$$
CN(C)Cc1cc(CC(=O)c2cc(Cl)cc3c2cnn3[C@@H]2CN(C)[C@H]2CO)cc(C#N)c1O
     RDKit          3D

 33 36  0  0  0  0  0  0  0  0999 V2000
   -6.9047    1.8584   -8.8181 C   0  0  0  0  0  0  0  0  0  0  0  0
   -7.8420    2.5966   -7.9557 N   0  0  0  0  0  0  0  0  0  0  0  0
   -8.3629    1.7075   -6.9142 C   0  0  0  0  0  0  0  0  0  0  0  0
   -8.9611    3.0745   -8.7754 C   0  0  0  0  0  0  0  0  0  0  0  0
   -8.5445    4.2579   -9.6122 C   0  0  0  0  0  0  0  0  0  0  0  0
   -8.6823    4.1881  -10.9994 C   0  0  0  0  0  0  0  0  0  0  0  0
   -8.4039    5.2963  -11.8023 C   0  0  0  0  0  0  0  0  0  0  0  0
   -8.5804    5.1801  -13.2937 C   0  0  0  0  0  0  0  0  0  0  0  0
   -7.2795    4.9347  -14.0215 C   0  0  0  0  0  0  0  0  0  0  0  0
   -6.1902    5.0351  -13.4615 O   0  0  0  0  0  0  0  0  0  0  0  0
   -7.3275    4.6776  -15.4861 C   0  0  0  0  0  0  0  0  0  0  0  0
   -8.5264    4.3940  -16.1567 C   0  0  0  0  0  0  0  0  0  0  0  0
   -8.5455    4.2679  -17.5419 C   0  0  0  0  0  0  0  0  0  0  0  0
  -10.0492    3.9535  -18.3161 Cl  0  0  0  0  0  0  0  0  0  0  0  0
   -7.3882    4.4227  -18.3083 C   0  0  0  0  0  0  0  0  0  0  0  0
   -6.1863    4.6739  -17.6314 C   0  0  0  0  0  0  0  0  0  0  0  0
   -6.1369    4.7823  -16.2398 C   0  0  0  0  0  0  0  0  0  0  0  0
   -4.7709    5.0051  -15.9556 C   0  0  0  0  0  0  0  0  0  0  0  0
   -4.0157    5.0572  -17.0492 N   0  0  0  0  0  0  0  0  0  0  0  0
   -4.8870    4.8660  -18.0598 N   0  0  0  0  0  0  0  0  0  0  0  0
   -4.4774    5.0468  -19.4682 C   0  0  2  0  0  0  0  0  0  0  0  0
   -3.0162    4.6421  -19.7809 C   0  0  0  0  0  0  0  0  0  0  0  0
   -2.8562    5.9253  -20.5179 N   0  0  0  0  0  0  0  0  0  0  0  0
   -1.5768    6.5319  -20.1393 C   0  0  0  0  0  0  0  0  0  0  0  0
   -3.9631    6.4873  -19.6978 C   0  0  1  0  0  0  0  0  0  0  0  0
   -4.8827    7.3851  -20.4945 C   0  0  0  0  0  0  0  0  0  0  0  0
   -4.1706    8.5612  -20.8640 O   0  0  0  0  0  0  0  0  0  0  0  0
   -7.9360    6.4761  -11.2062 C   0  0  0  0  0  0  0  0  0  0  0  0
   -7.7360    6.5443   -9.8204 C   0  0  0  0  0  0  0  0  0  0  0  0
   -7.1976    7.7442   -9.2484 C   0  0  0  0  0  0  0  0  0  0  0  0
   -6.7480    8.7387   -8.8486 N   0  0  0  0  0  0  0  0  0  0  0  0
   -8.0327    5.4298   -9.0354 C   0  0  0  0  0  0  0  0  0  0  0  0
   -7.7855    5.4575   -7.6866 O   0  0  0  0  0  0  0  0  0  0  0  0
  1  2  1  0
  2  3  1  0
  2  4  1  0
  4  5  1  0
  5  6  2  0
  6  7  1  0
  7  8  1  0
  8  9  1  0
  9 10  2  0
  9 11  1  0
 11 12  2  0
 12 13  1  0
 13 14  1  0
 13 15  2  0
 15 16  1  0
 16 17  2  0
 17 18  1  0
 18 19  2  0
 19 20  1  0
 21 20  1  1
 21 22  1  0
 22 23  1  0
 23 24  1  0
 23 25  1  0
 25 26  1  6
 26 27  1  0
  7 28  2  0
 28 29  1  0
 29 30  1  0
 30 31  3  0
 29 32  2  0
 32 33  1  0
 32  5  1  0
 17 11  1  0
 25 21  1  0
 20 16  1  0
M  END
>  <smiles>  (343) 
C86970-P76

>  <fragmenstein_outcome>  (343) 
acceptable

>  <inchikey>  (343) 
BIWYXHLJJGDTKD-UHFFFAOYSA-N

>  <fragmenstein_mode>  (343) 
expansion

>  <HIPPO Pose ID>  (343) 
9658

>  <Energy>  (343) 
111.100179

>  <fragmenstein_error>  (343) 


>  <tags>  (343) 
{'openbind_xx01zvns2b_c1_fragmenstein', 'fragmenstein_placed'}

>  <ref_pdb>  (343) 
1

>  <scratch_subdir>  (343) 
/opt/xchem-fragalysis-2/maxwin/BulkDock/SCRATCH/511027/C86970-P76

>  <alias>  (343) 
CN(C)Cc1cc(CC(=O)c2cc(Cl)cc3c2cnn3[C@@H]2CN(C)[C@H]2CO)cc(C#N)c1O

>  <HIPPO Compound ID>  (343) 
91530

>  <fragmenstein_runtime>  (343) 
5.818682

$$$$
CN(C)Cc1cc(CC(=O)c2cc(Cl)cc3c2cnn3[C@@H]2CN(CO)C2(C)C)ccc1O
     RDKit          3D

 32 35  0  0  0  0  0  0  0  0999 V2000
   -8.3286    1.7461   -6.7424 C   0  0  0  0  0  0  0  0  0  0  0  0
   -7.8384    2.6327   -7.7952 N   0  0  0  0  0  0  0  0  0  0  0  0
   -7.0757    1.8812   -8.7867 C   0  0  0  0  0  0  0  0  0  0  0  0
   -8.9860    3.3078   -8.4048 C   0  0  0  0  0  0  0  0  0  0  0  0
   -8.6092    4.4039   -9.3675 C   0  0  0  0  0  0  0  0  0  0  0  0
   -8.6482    4.1416  -10.7445 C   0  0  0  0  0  0  0  0  0  0  0  0
   -8.4084    5.1529  -11.6789 C   0  0  0  0  0  0  0  0  0  0  0  0
   -8.5709    4.8479  -13.1474 C   0  0  0  0  0  0  0  0  0  0  0  0
   -7.4020    5.2509  -14.0024 C   0  0  0  0  0  0  0  0  0  0  0  0
   -6.4694    5.9350  -13.5829 O   0  0  0  0  0  0  0  0  0  0  0  0
   -7.4133    4.8853  -15.4411 C   0  0  0  0  0  0  0  0  0  0  0  0
   -8.5720    4.4996  -16.1230 C   0  0  0  0  0  0  0  0  0  0  0  0
   -8.5491    4.3759  -17.5103 C   0  0  0  0  0  0  0  0  0  0  0  0
  -10.0252    3.9905  -18.3139 Cl  0  0  0  0  0  0  0  0  0  0  0  0
   -7.3917    4.6480  -18.2579 C   0  0  0  0  0  0  0  0  0  0  0  0
   -6.2229    4.9937  -17.5610 C   0  0  0  0  0  0  0  0  0  0  0  0
   -6.2163    5.0476  -16.1648 C   0  0  0  0  0  0  0  0  0  0  0  0
   -4.8733    5.2850  -15.8167 C   0  0  0  0  0  0  0  0  0  0  0  0
   -4.0862    5.4062  -16.8750 N   0  0  0  0  0  0  0  0  0  0  0  0
   -4.9402    5.3750  -17.9270 N   0  0  0  0  0  0  0  0  0  0  0  0
   -4.5407    6.2183  -19.0672 C   0  0  2  0  0  0  0  0  0  0  0  0
   -5.0526    5.9738  -20.4750 C   0  0  0  0  0  0  0  0  0  0  0  0
   -3.6769    6.1726  -21.0044 N   0  0  0  0  0  0  0  0  0  0  0  0
   -3.4214    7.5211  -21.4800 C   0  0  0  0  0  0  0  0  0  0  0  0
   -3.7352    8.5526  -20.5613 O   0  0  0  0  0  0  0  0  0  0  0  0
   -3.1312    5.8329  -19.6494 C   0  0  0  0  0  0  0  0  0  0  0  0
   -1.9641    6.6741  -19.1240 C   0  0  0  0  0  0  0  0  0  0  0  0
   -2.7161    4.3548  -19.6958 C   0  0  0  0  0  0  0  0  0  0  0  0
   -8.1051    6.4409  -11.2169 C   0  0  0  0  0  0  0  0  0  0  0  0
   -8.0122    6.7033   -9.8508 C   0  0  0  0  0  0  0  0  0  0  0  0
   -8.2660    5.6863   -8.9355 C   0  0  0  0  0  0  0  0  0  0  0  0
   -8.2275    5.9532   -7.5961 O   0  0  0  0  0  0  0  0  0  0  0  0
  1  2  1  0
  2  3  1  0
  2  4  1  0
  4  5  1  0
  5  6  2  0
  6  7  1  0
  7  8  1  0
  8  9  1  0
  9 10  2  0
  9 11  1  0
 11 12  2  0
 12 13  1  0
 13 14  1  0
 13 15  2  0
 15 16  1  0
 16 17  2  0
 17 18  1  0
 18 19  2  0
 19 20  1  0
 21 20  1  1
 21 22  1  0
 22 23  1  0
 23 24  1  0
 24 25  1  0
 23 26  1  0
 26 27  1  0
 26 28  1  0
  7 29  2  0
 29 30  1  0
 30 31  2  0
 31 32  1  0
 31  5  1  0
 17 11  1  0
 26 21  1  0
 20 16  1  0
M  END
>  <smiles>  (344) 
C86984-P76

>  <fragmenstein_outcome>  (344) 
acceptable

>  <inchikey>  (344) 
UZTKLQAPHWWIMA-UHFFFAOYSA-N

>  <fragmenstein_mode>  (344) 
expansion

>  <HIPPO Pose ID>  (344) 
9674

>  <Energy>  (344) 
84.954757

>  <fragmenstein_error>  (344) 


>  <tags>  (344) 
{'openbind_xx01zvns2b_c1_fragmenstein', 'fragmenstein_placed'}

>  <ref_pdb>  (344) 
1

>  <scratch_subdir>  (344) 
/opt/xchem-fragalysis-2/maxwin/BulkDock/SCRATCH/511027/C86984-P76

>  <alias>  (344) 
CN(C)Cc1cc(CC(=O)c2cc(Cl)cc3c2cnn3[C@@H]2CN(CO)C2(C)C)ccc1O

>  <HIPPO Compound ID>  (344) 
87314

>  <fragmenstein_runtime>  (344) 
8.007542

$$$$
Oc1ccc(CN=C(Nc2cnn3c2CNCC3)c2cccc3ncccc23)cc1CNc1nc2ccccc2[nH]1
     RDKit          3D

 41 47  0  0  0  0  0  0  0  0999 V2000
   -0.3174    3.6025  -12.5660 O   0  0  0  0  0  0  0  0  0  0  0  0
   -1.5732    4.1388  -12.5716 C   0  0  0  0  0  0  0  0  0  0  0  0
   -1.6580    5.4530  -13.0327 C   0  0  0  0  0  0  0  0  0  0  0  0
   -2.8902    6.0991  -13.0873 C   0  0  0  0  0  0  0  0  0  0  0  0
   -4.0441    5.4309  -12.6732 C   0  0  0  0  0  0  0  0  0  0  0  0
   -5.3943    6.1067  -12.7006 C   0  0  0  0  0  0  0  0  0  0  0  0
   -6.1132    5.8209  -13.9203 N   0  0  0  0  0  0  0  0  0  0  0  0
   -6.9849    4.9984  -14.1089 C   0  0  0  0  0  0  0  0  0  0  0  0
   -7.9066    4.2175  -13.0775 N   0  0  0  0  0  0  0  0  0  0  0  0
   -8.0170    4.3327  -11.7481 C   0  0  0  0  0  0  0  0  0  0  0  0
   -8.1807    3.2788  -10.8218 C   0  0  0  0  0  0  0  0  0  0  0  0
   -8.2490    3.7243   -9.5635 N   0  0  0  0  0  0  0  0  0  0  0  0
   -8.1888    5.0549   -9.7036 N   0  0  0  0  0  0  0  0  0  0  0  0
   -8.1305    5.4860  -11.0013 C   0  0  0  0  0  0  0  0  0  0  0  0
   -8.2099    6.9388  -11.3087 C   0  0  0  0  0  0  0  0  0  0  0  0
   -7.6530    7.7469  -10.2132 N   0  0  0  0  0  0  0  0  0  0  0  0
   -8.3054    7.3816   -8.9417 C   0  0  0  0  0  0  0  0  0  0  0  0
   -8.0685    5.9198   -8.5480 C   0  0  0  0  0  0  0  0  0  0  0  0
   -7.3281    4.7394  -15.5860 C   0  0  0  0  0  0  0  0  0  0  0  0
   -8.6310    4.3302  -15.9144 C   0  0  0  0  0  0  0  0  0  0  0  0
   -8.9915    4.0906  -17.2358 C   0  0  0  0  0  0  0  0  0  0  0  0
   -8.0644    4.2999  -18.2474 C   0  0  0  0  0  0  0  0  0  0  0  0
   -6.7833    4.7470  -17.9766 C   0  0  0  0  0  0  0  0  0  0  0  0
   -5.9794    4.9626  -19.0277 N   0  0  0  0  0  0  0  0  0  0  0  0
   -4.7242    5.3902  -18.8176 C   0  0  0  0  0  0  0  0  0  0  0  0
   -4.1985    5.6041  -17.5713 C   0  0  0  0  0  0  0  0  0  0  0  0
   -5.0313    5.3756  -16.4861 C   0  0  0  0  0  0  0  0  0  0  0  0
   -6.3806    4.9616  -16.6401 C   0  0  0  0  0  0  0  0  0  0  0  0
   -3.9475    4.1039  -12.2224 C   0  0  0  0  0  0  0  0  0  0  0  0
   -2.7118    3.4416  -12.1464 C   0  0  0  0  0  0  0  0  0  0  0  0
   -2.6807    2.0484  -11.5590 C   0  0  0  0  0  0  0  0  0  0  0  0
   -2.2372    1.0807  -12.5520 N   0  0  0  0  0  0  0  0  0  0  0  0
   -1.0596    0.4607  -12.3887 C   0  0  0  0  0  0  0  0  0  0  0  0
   -0.0890    0.4349  -13.2659 N   0  0  0  0  0  0  0  0  0  0  0  0
    0.9577   -0.1815  -12.6184 C   0  0  0  0  0  0  0  0  0  0  0  0
    2.2575   -0.4534  -13.0677 C   0  0  0  0  0  0  0  0  0  0  0  0
    3.1512   -1.0881  -12.1961 C   0  0  0  0  0  0  0  0  0  0  0  0
    2.7615   -1.4370  -10.9011 C   0  0  0  0  0  0  0  0  0  0  0  0
    1.4674   -1.1764  -10.4367 C   0  0  0  0  0  0  0  0  0  0  0  0
    0.5907   -0.5623  -11.3317 C   0  0  0  0  0  0  0  0  0  0  0  0
   -0.7347   -0.2172  -11.2446 N   0  0  0  0  0  0  0  0  0  0  0  0
  1  2  1  0
  2  3  2  0
  3  4  1  0
  4  5  2  0
  5  6  1  0
  6  7  1  0
  7  8  2  3
  8  9  1  0
  9 10  1  0
 10 11  1  0
 11 12  2  0
 12 13  1  0
 13 14  1  0
 14 15  1  0
 15 16  1  0
 16 17  1  0
 17 18  1  0
  8 19  1  0
 19 20  2  0
 20 21  1  0
 21 22  2  0
 22 23  1  0
 23 24  2  0
 24 25  1  0
 25 26  2  0
 26 27  1  0
 27 28  2  0
  5 29  1  0
 29 30  2  0
 30 31  1  0
 31 32  1  0
 32 33  1  0
 33 34  2  0
 34 35  1  0
 35 36  2  0
 36 37  1  0
 37 38  2  0
 38 39  1  0
 39 40  2  0
 40 41  1  0
 30  2  1  0
 41 33  1  0
 14 10  2  0
 28 19  1  0
 40 35  1  0
 18 13  1  0
 28 23  1  0
M  END
>  <smiles>  (345) 
C87046-P77

>  <fragmenstein_outcome>  (345) 
acceptable

>  <inchikey>  (345) 
XHTIXAXTEMZXSV-UHFFFAOYSA-N

>  <fragmenstein_mode>  (345) 
expansion

>  <HIPPO Pose ID>  (345) 
9707

>  <Energy>  (345) 
70.190805

>  <fragmenstein_error>  (345) 


>  <tags>  (345) 
{'openbind_xx01zvns2b_c1_fragmenstein', 'fragmenstein_placed'}

>  <ref_pdb>  (345) 
1

>  <scratch_subdir>  (345) 
/opt/xchem-fragalysis-2/maxwin/BulkDock/SCRATCH/511027/C87046-P77

>  <alias>  (345) 
Oc1ccc(CN=C(Nc2cnn3c2CNCC3)c2cccc3ncccc23)cc1CNc1nc2ccccc2[nH]1

>  <HIPPO Compound ID>  (345) 
97285

>  <fragmenstein_runtime>  (345) 
11.756677

$$$$
CCc1ccc2c(C(O)(O)Nc3cnn4c3CNCC4)ccc(C)c2n1
     RDKit          3D

 26 29  0  0  0  0  0  0  0  0999 V2000
   -2.0395    5.0808  -18.8587 C   0  0  0  0  0  0  0  0  0  0  0  0
   -3.3080    5.9021  -19.0271 C   0  0  0  0  0  0  0  0  0  0  0  0
   -4.3789    5.5609  -18.0277 C   0  0  0  0  0  0  0  0  0  0  0  0
   -4.2244    5.8358  -16.6898 C   0  0  0  0  0  0  0  0  0  0  0  0
   -5.2884    5.5632  -15.8353 C   0  0  0  0  0  0  0  0  0  0  0  0
   -6.5237    5.0439  -16.2991 C   0  0  0  0  0  0  0  0  0  0  0  0
   -7.7060    4.8216  -15.5071 C   0  0  0  0  0  0  0  0  0  0  0  0
   -7.9041    5.3206  -14.0906 C   0  0  0  0  0  0  0  0  0  0  0  0
   -6.9616    6.2992  -13.7767 O   0  0  0  0  0  0  0  0  0  0  0  0
   -9.1832    5.9085  -13.9861 O   0  0  0  0  0  0  0  0  0  0  0  0
   -7.8815    4.2860  -13.1066 N   0  0  0  0  0  0  0  0  0  0  0  0
   -7.9200    4.4256  -11.7553 C   0  0  0  0  0  0  0  0  0  0  0  0
   -7.9012    3.3612  -10.8206 C   0  0  0  0  0  0  0  0  0  0  0  0
   -7.8047    3.7991   -9.5622 N   0  0  0  0  0  0  0  0  0  0  0  0
   -7.7313    5.1292   -9.7044 N   0  0  0  0  0  0  0  0  0  0  0  0
   -7.9634    5.5708  -10.9807 C   0  0  0  0  0  0  0  0  0  0  0  0
   -8.1017    7.0396  -11.1702 C   0  0  0  0  0  0  0  0  0  0  0  0
   -7.0044    7.7141  -10.4783 N   0  0  0  0  0  0  0  0  0  0  0  0
   -7.1444    7.4586   -9.0347 C   0  0  0  0  0  0  0  0  0  0  0  0
   -7.2047    5.9666   -8.6411 C   0  0  0  0  0  0  0  0  0  0  0  0
   -8.8043    4.1730  -16.0954 C   0  0  0  0  0  0  0  0  0  0  0  0
   -8.7967    3.8271  -17.4264 C   0  0  0  0  0  0  0  0  0  0  0  0
   -7.6797    4.1257  -18.2020 C   0  0  0  0  0  0  0  0  0  0  0  0
   -7.7139    3.7067  -19.6301 C   0  0  0  0  0  0  0  0  0  0  0  0
   -6.5438    4.7318  -17.6719 C   0  0  0  0  0  0  0  0  0  0  0  0
   -5.5034    4.9948  -18.4980 N   0  0  0  0  0  0  0  0  0  0  0  0
  1  2  1  0
  2  3  1  0
  3  4  2  0
  4  5  1  0
  5  6  2  0
  6  7  1  0
  7  8  1  0
  8  9  1  0
  8 10  1  0
  8 11  1  0
 11 12  1  0
 12 13  1  0
 13 14  2  0
 14 15  1  0
 15 16  1  0
 16 17  1  0
 17 18  1  0
 18 19  1  0
 19 20  1  0
  7 21  2  0
 21 22  1  0
 22 23  2  0
 23 24  1  0
 23 25  1  0
 25 26  2  0
 26  3  1  0
 25  6  1  0
 16 12  2  0
 20 15  1  0
M  END
>  <smiles>  (346) 
C87059-P77

>  <fragmenstein_outcome>  (346) 
acceptable

>  <inchikey>  (346) 
IHLDZTMOIPNDOU-UHFFFAOYSA-N

>  <fragmenstein_mode>  (346) 
expansion

>  <HIPPO Pose ID>  (346) 
9712

>  <Energy>  (346) 
-62.486344

>  <fragmenstein_error>  (346) 


>  <tags>  (346) 
{'openbind_xx01zvns2b_c1_fragmenstein', 'fragmenstein_placed'}

>  <ref_pdb>  (346) 
1

>  <scratch_subdir>  (346) 
/opt/xchem-fragalysis-2/maxwin/BulkDock/SCRATCH/511027/C87059-P77

>  <alias>  (346) 
CCc1ccc2c(C(O)(O)Nc3cnn4c3CNCC4)ccc(C)c2n1

>  <HIPPO Compound ID>  (346) 
22053

>  <fragmenstein_runtime>  (346) 
2.620531

$$$$
CC(O)(O)[C@H](C(=O)c1cnn2c1CNCC2)c1cccc2ncccc12
     RDKit          3D

 26 29  0  0  0  0  0  0  0  0999 V2000
   -5.2951    5.3490  -11.8216 C   0  0  0  0  0  0  0  0  0  0  0  0
   -5.7019    5.4471  -13.2976 C   0  0  0  0  0  0  0  0  0  0  0  0
   -5.3286    6.7912  -13.6387 O   0  0  0  0  0  0  0  0  0  0  0  0
   -4.8112    4.5077  -13.8851 O   0  0  0  0  0  0  0  0  0  0  0  0
   -7.1673    5.1855  -13.7871 C   0  0  2  0  0  0  0  0  0  0  0  0
   -7.7825    4.1347  -12.8480 C   0  0  0  0  0  0  0  0  0  0  0  0
   -7.8738    2.9620  -13.1976 O   0  0  0  0  0  0  0  0  0  0  0  0
   -8.1588    4.4692  -11.4766 C   0  0  0  0  0  0  0  0  0  0  0  0
   -8.4266    3.4902  -10.4776 C   0  0  0  0  0  0  0  0  0  0  0  0
   -8.5484    4.0216   -9.2627 N   0  0  0  0  0  0  0  0  0  0  0  0
   -8.3695    5.3258   -9.4769 N   0  0  0  0  0  0  0  0  0  0  0  0
   -8.2450    5.6812  -10.7974 C   0  0  0  0  0  0  0  0  0  0  0  0
   -8.1868    7.1296  -11.1573 C   0  0  0  0  0  0  0  0  0  0  0  0
   -7.7408    7.9712  -10.0442 N   0  0  0  0  0  0  0  0  0  0  0  0
   -8.4929    7.6673   -8.8194 C   0  0  0  0  0  0  0  0  0  0  0  0
   -8.2282    6.2368   -8.3600 C   0  0  0  0  0  0  0  0  0  0  0  0
   -7.4102    4.8811  -15.3218 C   0  0  0  0  0  0  0  0  0  0  0  0
   -8.7103    4.4189  -15.6296 C   0  0  0  0  0  0  0  0  0  0  0  0
   -9.1094    4.1095  -16.9249 C   0  0  0  0  0  0  0  0  0  0  0  0
   -8.2219    4.2620  -17.9717 C   0  0  0  0  0  0  0  0  0  0  0  0
   -6.9526    4.7477  -17.7618 C   0  0  0  0  0  0  0  0  0  0  0  0
   -6.2229    4.8881  -18.8768 N   0  0  0  0  0  0  0  0  0  0  0  0
   -4.9837    5.3807  -18.7945 C   0  0  0  0  0  0  0  0  0  0  0  0
   -4.4171    5.7534  -17.6107 C   0  0  0  0  0  0  0  0  0  0  0  0
   -5.1825    5.6047  -16.4567 C   0  0  0  0  0  0  0  0  0  0  0  0
   -6.5088    5.0871  -16.4496 C   0  0  0  0  0  0  0  0  0  0  0  0
  1  2  1  0
  2  3  1  0
  2  4  1  0
  5  2  1  6
  5  6  1  0
  6  7  2  0
  6  8  1  0
  8  9  1  0
  9 10  2  0
 10 11  1  0
 11 12  1  0
 12 13  1  0
 13 14  1  0
 14 15  1  0
 15 16  1  0
  5 17  1  0
 17 18  2  0
 18 19  1  0
 19 20  2  0
 20 21  1  0
 21 22  2  0
 22 23  1  0
 23 24  2  0
 24 25  1  0
 25 26  2  0
 12  8  2  0
 26 17  1  0
 16 11  1  0
 26 21  1  0
M  END
>  <smiles>  (347) 
C87063-P77

>  <fragmenstein_outcome>  (347) 
acceptable

>  <inchikey>  (347) 
UTIPBGRESNBMPA-UHFFFAOYSA-N

>  <fragmenstein_mode>  (347) 
expansion

>  <HIPPO Pose ID>  (347) 
9714

>  <Energy>  (347) 
81.925965

>  <fragmenstein_error>  (347) 


>  <tags>  (347) 
{'openbind_xx01zvns2b_c1_fragmenstein', 'fragmenstein_placed'}

>  <ref_pdb>  (347) 
1

>  <scratch_subdir>  (347) 
/opt/xchem-fragalysis-2/maxwin/BulkDock/SCRATCH/511027/C87063-P77

>  <alias>  (347) 
CC(O)(O)[C@H](C(=O)c1cnn2c1CNCC2)c1cccc2ncccc12

>  <HIPPO Compound ID>  (347) 
83384

>  <fragmenstein_runtime>  (347) 
2.404039

$$$$
CCC(=O)Nc1cccc2c(C(=O)Nc3cnn4c3CNCC4)cccc12
     RDKit          3D

 27 30  0  0  0  0  0  0  0  0999 V2000
   -4.6076    8.0061  -23.0591 C   0  0  0  0  0  0  0  0  0  0  0  0
   -5.4618    7.2709  -22.0384 C   0  0  0  0  0  0  0  0  0  0  0  0
   -4.6502    6.7687  -20.8500 C   0  0  0  0  0  0  0  0  0  0  0  0
   -3.4971    6.9633  -20.7556 O   0  0  0  0  0  0  0  0  0  0  0  0
   -5.6523    6.1031  -19.8466 N   0  0  0  0  0  0  0  0  0  0  0  0
   -5.4582    5.6473  -18.5342 C   0  0  0  0  0  0  0  0  0  0  0  0
   -4.2231    5.9132  -17.9396 C   0  0  0  0  0  0  0  0  0  0  0  0
   -4.0764    5.8364  -16.5655 C   0  0  0  0  0  0  0  0  0  0  0  0
   -5.1785    5.5309  -15.7802 C   0  0  0  0  0  0  0  0  0  0  0  0
   -6.4198    5.1758  -16.3502 C   0  0  0  0  0  0  0  0  0  0  0  0
   -7.5553    4.8946  -15.5497 C   0  0  0  0  0  0  0  0  0  0  0  0
   -7.6240    5.4971  -14.1823 C   0  0  0  0  0  0  0  0  0  0  0  0
   -7.3992    6.6389  -14.1050 O   0  0  0  0  0  0  0  0  0  0  0  0
   -7.9712    4.4734  -13.0893 N   0  0  0  0  0  0  0  0  0  0  0  0
   -8.0204    4.6081  -11.7304 C   0  0  0  0  0  0  0  0  0  0  0  0
   -7.6806    5.7401  -10.9563 C   0  0  0  0  0  0  0  0  0  0  0  0
   -7.7877    5.5218   -9.6403 N   0  0  0  0  0  0  0  0  0  0  0  0
   -8.1789    4.2360   -9.5809 N   0  0  0  0  0  0  0  0  0  0  0  0
   -8.4017    3.6719  -10.8069 C   0  0  0  0  0  0  0  0  0  0  0  0
   -8.9337    2.3080  -10.8942 C   0  0  0  0  0  0  0  0  0  0  0  0
   -9.7061    1.9715   -9.6984 N   0  0  0  0  0  0  0  0  0  0  0  0
   -8.8606    2.1346   -8.5057 C   0  0  0  0  0  0  0  0  0  0  0  0
   -8.4357    3.5875   -8.3069 C   0  0  0  0  0  0  0  0  0  0  0  0
   -8.7046    4.3308  -16.1047 C   0  0  0  0  0  0  0  0  0  0  0  0
   -8.7666    4.1215  -17.4787 C   0  0  0  0  0  0  0  0  0  0  0  0
   -7.7189    4.5577  -18.2975 C   0  0  0  0  0  0  0  0  0  0  0  0
   -6.5338    5.1192  -17.7608 C   0  0  0  0  0  0  0  0  0  0  0  0
  1  2  1  0
  2  3  1  0
  3  4  2  0
  3  5  1  0
  5  6  1  0
  6  7  2  0
  7  8  1  0
  8  9  2  0
  9 10  1  0
 10 11  2  0
 11 12  1  0
 12 13  2  0
 12 14  1  0
 14 15  1  0
 15 16  1  0
 16 17  2  0
 17 18  1  0
 18 19  1  0
 19 20  1  0
 20 21  1  0
 21 22  1  0
 22 23  1  0
 11 24  1  0
 24 25  2  0
 25 26  1  0
 26 27  2  0
 27  6  1  0
 27 10  1  0
 19 15  2  0
 23 18  1  0
M  END
>  <smiles>  (348) 
C87074-P77

>  <fragmenstein_outcome>  (348) 
acceptable

>  <inchikey>  (348) 
YJNIVDBCRYWDCU-UHFFFAOYSA-N

>  <fragmenstein_mode>  (348) 
expansion

>  <HIPPO Pose ID>  (348) 
9718

>  <Energy>  (348) 
73.749461

>  <fragmenstein_error>  (348) 


>  <tags>  (348) 
{'openbind_xx01zvns2b_c1_fragmenstein', 'fragmenstein_placed'}

>  <ref_pdb>  (348) 
1

>  <scratch_subdir>  (348) 
/opt/xchem-fragalysis-2/maxwin/BulkDock/SCRATCH/511027/C87074-P77

>  <alias>  (348) 
CCC(=O)Nc1cccc2c(C(=O)Nc3cnn4c3CNCC4)cccc12

>  <HIPPO Compound ID>  (348) 
92975

>  <fragmenstein_runtime>  (348) 
7.94668

$$$$
CN[C@@H]1CC[C@@]2(CCNc3cccc(C(=O)Nc4cnn(C)c4)c32)CN1
     RDKit          3D

 26 29  0  0  0  0  0  0  0  0999 V2000
   -4.0380    6.4446  -11.2958 C   0  0  0  0  0  0  0  0  0  0  0  0
   -3.8355    5.4430  -12.3278 N   0  0  0  0  0  0  0  0  0  0  0  0
   -3.1366    5.9211  -13.4991 C   0  0  2  0  0  0  0  0  0  0  0  0
   -3.8070    7.0537  -14.2821 C   0  0  0  0  0  0  0  0  0  0  0  0
   -5.0984    6.5974  -14.9498 C   0  0  0  0  0  0  0  0  0  0  0  0
   -4.8847    5.3416  -15.8423 C   0  0  2  0  0  0  0  0  0  0  0  0
   -3.9423    5.7842  -17.0102 C   0  0  0  0  0  0  0  0  0  0  0  0
   -4.1234    4.9101  -18.2289 C   0  0  0  0  0  0  0  0  0  0  0  0
   -5.4652    5.1275  -18.7194 N   0  0  0  0  0  0  0  0  0  0  0  0
   -6.4827    4.8616  -17.7836 C   0  0  0  0  0  0  0  0  0  0  0  0
   -7.7830    4.6895  -18.2949 C   0  0  0  0  0  0  0  0  0  0  0  0
   -8.8731    4.4647  -17.4683 C   0  0  0  0  0  0  0  0  0  0  0  0
   -8.6612    4.3638  -16.1071 C   0  0  0  0  0  0  0  0  0  0  0  0
   -7.3753    4.5476  -15.5717 C   0  0  0  0  0  0  0  0  0  0  0  0
   -7.2949    4.1959  -14.1343 C   0  0  0  0  0  0  0  0  0  0  0  0
   -6.8623    3.1536  -13.8444 O   0  0  0  0  0  0  0  0  0  0  0  0
   -7.9155    5.3001  -13.2551 N   0  0  0  0  0  0  0  0  0  0  0  0
   -8.0405    5.3876  -11.8982 C   0  0  0  0  0  0  0  0  0  0  0  0
   -8.3861    6.4760  -11.0748 C   0  0  0  0  0  0  0  0  0  0  0  0
   -8.4033    6.1508   -9.7742 N   0  0  0  0  0  0  0  0  0  0  0  0
   -8.1260    4.8237   -9.7866 N   0  0  0  0  0  0  0  0  0  0  0  0
   -8.1250    4.0601   -8.5618 C   0  0  0  0  0  0  0  0  0  0  0  0
   -7.8549    4.3427  -11.0312 C   0  0  0  0  0  0  0  0  0  0  0  0
   -6.2631    4.8876  -16.3861 C   0  0  0  0  0  0  0  0  0  0  0  0
   -4.1263    4.2547  -15.0282 C   0  0  0  0  0  0  0  0  0  0  0  0
   -2.9175    4.7490  -14.3348 N   0  0  0  0  0  0  0  0  0  0  0  0
  1  2  1  0
  3  2  1  1
  3  4  1  0
  4  5  1  0
  6  5  1  1
  6  7  1  0
  7  8  1  0
  8  9  1  0
  9 10  1  0
 10 11  2  0
 11 12  1  0
 12 13  2  0
 13 14  1  0
 14 15  1  0
 15 16  2  0
 15 17  1  0
 17 18  1  0
 18 19  1  0
 19 20  2  0
 20 21  1  0
 21 22  1  0
 21 23  1  0
 14 24  2  0
  6 25  1  0
 25 26  1  0
 26  3  1  0
 24  6  1  0
 24 10  1  0
 23 18  2  0
M  END
>  <smiles>  (349) 
C87286-P78

>  <fragmenstein_outcome>  (349) 
acceptable

>  <inchikey>  (349) 
UJNNJAFAJWQWHA-UHFFFAOYSA-N

>  <fragmenstein_mode>  (349) 
expansion

>  <HIPPO Pose ID>  (349) 
9809

>  <Energy>  (349) 
5.093983

>  <fragmenstein_error>  (349) 


>  <tags>  (349) 
{'openbind_xx01zvns2b_c1_fragmenstein', 'fragmenstein_placed'}

>  <ref_pdb>  (349) 
1

>  <scratch_subdir>  (349) 
/opt/xchem-fragalysis-2/maxwin/BulkDock/SCRATCH/511027/C87286-P78

>  <alias>  (349) 
CN[C@@H]1CC[C@@]2(CCNc3cccc(C(=O)Nc4cnn(C)c4)c32)CN1

>  <HIPPO Compound ID>  (349) 
96758

>  <fragmenstein_runtime>  (349) 
4.784215

$$$$
COc1cc(C(=CNc2ccc(N3CCCCC3)c(F)c2)Oc2cc(C)nc3ncnn23)nc(C2(N)CCNCC2)n1
     RDKit          3D

 42 47  0  0  0  0  0  0  0  0999 V2000
   -4.8197   11.9855  -13.8395 C   0  0  0  0  0  0  0  0  0  0  0  0
   -4.8373   10.5661  -13.9628 O   0  0  0  0  0  0  0  0  0  0  0  0
   -6.0508   10.0055  -13.6086 C   0  0  0  0  0  0  0  0  0  0  0  0
   -6.1181    8.6356  -13.6654 C   0  0  0  0  0  0  0  0  0  0  0  0
   -7.3267    8.0704  -13.3297 C   0  0  0  0  0  0  0  0  0  0  0  0
   -7.5549    6.6004  -13.3603 C   0  0  0  0  0  0  0  0  0  0  0  0
   -8.6825    6.0497  -12.8993 C   0  0  0  0  0  0  0  0  0  0  0  0
   -8.8088    4.7423  -12.4614 N   0  0  0  0  0  0  0  0  0  0  0  0
   -8.5779    4.5122  -11.0727 C   0  0  0  0  0  0  0  0  0  0  0  0
   -8.6185    3.2249  -10.5462 C   0  0  0  0  0  0  0  0  0  0  0  0
   -8.5796    3.0349   -9.1547 C   0  0  0  0  0  0  0  0  0  0  0  0
   -8.5109    4.1139   -8.2477 C   0  0  0  0  0  0  0  0  0  0  0  0
   -8.5953    3.9190   -6.8709 N   0  0  0  0  0  0  0  0  0  0  0  0
   -8.2230    4.9821   -5.9411 C   0  0  0  0  0  0  0  0  0  0  0  0
   -8.1217    4.4357   -4.5241 C   0  0  0  0  0  0  0  0  0  0  0  0
   -9.4664    3.8909   -4.0603 C   0  0  0  0  0  0  0  0  0  0  0  0
  -10.2829    3.2850   -5.2032 C   0  0  0  0  0  0  0  0  0  0  0  0
   -9.4329    2.8177   -6.3814 C   0  0  0  0  0  0  0  0  0  0  0  0
   -8.3801    5.3847   -8.8148 C   0  0  0  0  0  0  0  0  0  0  0  0
   -8.2821    6.4886   -8.0538 F   0  0  0  0  0  0  0  0  0  0  0  0
   -8.4335    5.5839  -10.1814 C   0  0  0  0  0  0  0  0  0  0  0  0
   -6.4664    5.7730  -13.5828 O   0  0  0  0  0  0  0  0  0  0  0  0
   -6.1290    5.4432  -14.8922 C   0  0  0  0  0  0  0  0  0  0  0  0
   -4.8400    5.5525  -15.2417 C   0  0  0  0  0  0  0  0  0  0  0  0
   -4.5141    5.2838  -16.6658 C   0  0  0  0  0  0  0  0  0  0  0  0
   -3.0771    5.4620  -17.0888 C   0  0  0  0  0  0  0  0  0  0  0  0
   -5.3711    4.9369  -17.5751 N   0  0  0  0  0  0  0  0  0  0  0  0
   -6.6600    4.7451  -17.1651 C   0  0  0  0  0  0  0  0  0  0  0  0
   -7.6900    4.3245  -17.8627 N   0  0  0  0  0  0  0  0  0  0  0  0
   -8.6945    4.2797  -16.9516 C   0  0  0  0  0  0  0  0  0  0  0  0
   -8.3787    4.6861  -15.7220 N   0  0  0  0  0  0  0  0  0  0  0  0
   -7.0617    4.9834  -15.8410 N   0  0  0  0  0  0  0  0  0  0  0  0
   -8.3665    8.8360  -12.9256 N   0  0  0  0  0  0  0  0  0  0  0  0
   -8.2232   10.1726  -12.9200 C   0  0  0  0  0  0  0  0  0  0  0  0
   -9.3787   11.0803  -12.4268 C   0  0  0  0  0  0  0  0  0  0  0  0
   -8.8525   12.0155  -11.3786 N   0  0  0  0  0  0  0  0  0  0  0  0
  -10.5338   10.2866  -11.7849 C   0  0  0  0  0  0  0  0  0  0  0  0
  -11.3503    9.4873  -12.8066 C   0  0  0  0  0  0  0  0  0  0  0  0
  -11.4023   10.0860  -14.1430 N   0  0  0  0  0  0  0  0  0  0  0  0
  -11.2939   11.5320  -14.0848 C   0  0  0  0  0  0  0  0  0  0  0  0
   -9.9019   11.9454  -13.6054 C   0  0  0  0  0  0  0  0  0  0  0  0
   -7.0716   10.7951  -13.2494 N   0  0  0  0  0  0  0  0  0  0  0  0
  1  2  1  0
  2  3  1  0
  3  4  2  0
  4  5  1  0
  5  6  1  0
  6  7  2  3
  7  8  1  0
  8  9  1  0
  9 10  2  0
 10 11  1  0
 11 12  2  0
 12 13  1  0
 13 14  1  0
 14 15  1  0
 15 16  1  0
 16 17  1  0
 17 18  1  0
 12 19  1  0
 19 20  1  0
 19 21  2  0
  6 22  1  0
 22 23  1  0
 23 24  2  0
 24 25  1  0
 25 26  1  0
 25 27  2  0
 27 28  1  0
 28 29  2  0
 29 30  1  0
 30 31  2  0
 31 32  1  0
  5 33  2  0
 33 34  1  0
 34 35  1  0
 35 36  1  0
 35 37  1  0
 37 38  1  0
 38 39  1  0
 39 40  1  0
 40 41  1  0
 34 42  2  0
 42  3  1  0
 21  9  1  0
 32 23  1  0
 41 35  1  0
 18 13  1  0
 32 28  1  0
M  END
>  <smiles>  (350) 
C88161-P81

>  <fragmenstein_outcome>  (350) 
acceptable

>  <inchikey>  (350) 
RFLYMBZFEYZEIJ-UHFFFAOYSA-N

>  <fragmenstein_mode>  (350) 
expansion

>  <HIPPO Pose ID>  (350) 
10313

>  <Energy>  (350) 
120.531804

>  <fragmenstein_error>  (350) 


>  <tags>  (350) 
{'openbind_xx01zvns2b_c1_fragmenstein', 'fragmenstein_placed'}

>  <ref_pdb>  (350) 
1

>  <scratch_subdir>  (350) 
/opt/xchem-fragalysis-2/maxwin/BulkDock/SCRATCH/511027/C88161-P81

>  <alias>  (350) 
COc1cc(C(=CNc2ccc(N3CCCCC3)c(F)c2)Oc2cc(C)nc3ncnn23)nc(C2(N)CCNCC2)n1

>  <HIPPO Compound ID>  (350) 
102379

>  <fragmenstein_runtime>  (350) 
14.277973

$$$$
COc1cc(C(=CNc2ccc3c(c2)CNC3)Oc2cc(C)nc3ncnn23)nc2c1nc1n2[C@]2(CCNC2)CNC1
     RDKit          3D

 42 49  0  0  0  0  0  0  0  0999 V2000
   -2.5856    6.1240  -15.9745 C   0  0  0  0  0  0  0  0  0  0  0  0
   -3.3999    6.1322  -14.8070 O   0  0  0  0  0  0  0  0  0  0  0  0
   -4.7344    5.8101  -15.0156 C   0  0  0  0  0  0  0  0  0  0  0  0
   -5.5012    5.7302  -13.8608 C   0  0  0  0  0  0  0  0  0  0  0  0
   -6.8632    5.4796  -13.9692 C   0  0  0  0  0  0  0  0  0  0  0  0
   -7.6992    5.7473  -12.7794 C   0  0  0  0  0  0  0  0  0  0  0  0
   -8.1701    7.0112  -12.6844 C   0  0  0  0  0  0  0  0  0  0  0  0
   -8.9615    7.6341  -11.7548 N   0  0  0  0  0  0  0  0  0  0  0  0
   -9.3785    8.9788  -11.6738 C   0  0  0  0  0  0  0  0  0  0  0  0
  -10.2045    9.3560  -10.5875 C   0  0  0  0  0  0  0  0  0  0  0  0
  -10.6773   10.6630  -10.4293 C   0  0  0  0  0  0  0  0  0  0  0  0
  -10.3109   11.6014  -11.3698 C   0  0  0  0  0  0  0  0  0  0  0  0
   -9.4833   11.2598  -12.4327 C   0  0  0  0  0  0  0  0  0  0  0  0
   -9.0004    9.9677  -12.5918 C   0  0  0  0  0  0  0  0  0  0  0  0
   -9.2357   12.4720  -13.2643 C   0  0  0  0  0  0  0  0  0  0  0  0
  -10.2418   13.4719  -12.8200 N   0  0  0  0  0  0  0  0  0  0  0  0
  -10.6491   13.0503  -11.4506 C   0  0  0  0  0  0  0  0  0  0  0  0
   -7.8506    4.6708  -11.9216 O   0  0  0  0  0  0  0  0  0  0  0  0
   -8.0142    4.7760  -10.5394 C   0  0  0  0  0  0  0  0  0  0  0  0
   -7.6346    5.8377   -9.8012 C   0  0  0  0  0  0  0  0  0  0  0  0
   -8.0667    5.8496   -8.3726 C   0  0  0  0  0  0  0  0  0  0  0  0
   -7.9248    7.1511   -7.6364 C   0  0  0  0  0  0  0  0  0  0  0  0
   -8.6059    4.8583   -7.7393 N   0  0  0  0  0  0  0  0  0  0  0  0
   -8.7872    3.7241   -8.4648 C   0  0  0  0  0  0  0  0  0  0  0  0
   -9.2423    2.5716   -8.0435 N   0  0  0  0  0  0  0  0  0  0  0  0
   -9.2096    1.8123   -9.1629 C   0  0  0  0  0  0  0  0  0  0  0  0
   -8.8792    2.4317  -10.2980 N   0  0  0  0  0  0  0  0  0  0  0  0
   -8.5451    3.6670   -9.8493 N   0  0  0  0  0  0  0  0  0  0  0  0
   -7.5193    5.2330  -15.1304 N   0  0  0  0  0  0  0  0  0  0  0  0
   -6.7442    5.2789  -16.2338 C   0  0  0  0  0  0  0  0  0  0  0  0
   -5.3892    5.6086  -16.2432 C   0  0  0  0  0  0  0  0  0  0  0  0
   -4.9270    5.6963  -17.5120 N   0  0  0  0  0  0  0  0  0  0  0  0
   -5.9176    5.2770  -18.2614 C   0  0  0  0  0  0  0  0  0  0  0  0
   -7.0867    5.0182  -17.5594 N   0  0  0  0  0  0  0  0  0  0  0  0
   -8.2051    4.2233  -18.1210 C   0  0  1  0  0  0  0  0  0  0  0  0
   -8.8139    3.3475  -17.0203 C   0  0  0  0  0  0  0  0  0  0  0  0
   -9.9083    4.1991  -16.4251 C   0  0  0  0  0  0  0  0  0  0  0  0
  -10.6106    4.6005  -17.6205 N   0  0  0  0  0  0  0  0  0  0  0  0
   -9.5499    4.8505  -18.5886 C   0  0  0  0  0  0  0  0  0  0  0  0
   -7.7507    3.5486  -19.4428 C   0  0  0  0  0  0  0  0  0  0  0  0
   -6.4310    3.7568  -20.0445 N   0  0  0  0  0  0  0  0  0  0  0  0
   -5.7743    5.0014  -19.6885 C   0  0  0  0  0  0  0  0  0  0  0  0
  1  2  1  0
  2  3  1  0
  3  4  2  0
  4  5  1  0
  5  6  1  0
  6  7  2  3
  7  8  1  0
  8  9  1  0
  9 10  2  0
 10 11  1  0
 11 12  2  0
 12 13  1  0
 13 14  2  0
 13 15  1  0
 15 16  1  0
 16 17  1  0
  6 18  1  0
 18 19  1  0
 19 20  2  0
 20 21  1  0
 21 22  1  0
 21 23  2  0
 23 24  1  0
 24 25  2  0
 25 26  1  0
 26 27  2  0
 27 28  1  0
  5 29  2  0
 29 30  1  0
 30 31  2  0
 31 32  1  0
 32 33  2  0
 33 34  1  0
 34 35  1  0
 35 36  1  1
 36 37  1  0
 37 38  1  0
 38 39  1  0
 35 40  1  0
 40 41  1  0
 41 42  1  0
 31  3  1  0
 42 33  1  0
 14  9  1  0
 28 19  1  0
 34 30  1  0
 39 35  1  0
 17 12  1  0
 28 24  1  0
M  END
>  <smiles>  (351) 
C88183-P174

>  <fragmenstein_outcome>  (351) 
acceptable

>  <inchikey>  (351) 
JJJWBHNELOLDEW-UHFFFAOYSA-N

>  <fragmenstein_mode>  (351) 
expansion

>  <HIPPO Pose ID>  (351) 
10332

>  <Energy>  (351) 
221.283912

>  <fragmenstein_error>  (351) 


>  <tags>  (351) 
{'openbind_xx01zvns2b_c1_fragmenstein', 'fragmenstein_placed'}

>  <ref_pdb>  (351) 
1

>  <scratch_subdir>  (351) 
/opt/xchem-fragalysis-2/maxwin/BulkDock/SCRATCH/511027/C88183-P174

>  <alias>  (351) 
COc1cc(C(=CNc2ccc3c(c2)CNC3)Oc2cc(C)nc3ncnn23)nc2c1nc1n2[C@]2(CCNC2)CNC1

>  <HIPPO Compound ID>  (351) 
88183

>  <fragmenstein_runtime>  (351) 
10.724626

$$$$
CC[C@@]1(O)Cc2c(cncc2C(=O)Nc2cc(CN)ncc2C)N1
     RDKit          3D

 24 26  0  0  0  0  0  0  0  0999 V2000
   -3.1096    7.5918  -16.8932 C   0  0  0  0  0  0  0  0  0  0  0  0
   -4.1823    7.1023  -17.8686 C   0  0  0  0  0  0  0  0  0  0  0  0
   -4.6345    5.6723  -17.5681 C   0  0  1  0  0  0  0  0  0  0  0  0
   -3.4854    4.8548  -17.6226 O   0  0  0  0  0  0  0  0  0  0  0  0
   -5.3095    5.5567  -16.1835 C   0  0  0  0  0  0  0  0  0  0  0  0
   -6.6357    4.9877  -16.5378 C   0  0  0  0  0  0  0  0  0  0  0  0
   -6.7064    4.7534  -17.8989 C   0  0  0  0  0  0  0  0  0  0  0  0
   -7.8695    4.2041  -18.4078 C   0  0  0  0  0  0  0  0  0  0  0  0
   -8.9439    3.9014  -17.6280 N   0  0  0  0  0  0  0  0  0  0  0  0
   -8.8564    4.2167  -16.3055 C   0  0  0  0  0  0  0  0  0  0  0  0
   -7.7296    4.7628  -15.7179 C   0  0  0  0  0  0  0  0  0  0  0  0
   -7.7762    5.3891  -14.3877 C   0  0  0  0  0  0  0  0  0  0  0  0
   -7.5791    6.5399  -14.3611 O   0  0  0  0  0  0  0  0  0  0  0  0
   -8.0969    4.4017  -13.2447 N   0  0  0  0  0  0  0  0  0  0  0  0
   -8.1478    4.6002  -11.8510 C   0  0  0  0  0  0  0  0  0  0  0  0
   -8.2496    3.4326  -11.0835 C   0  0  0  0  0  0  0  0  0  0  0  0
   -8.2099    3.5104   -9.6908 C   0  0  0  0  0  0  0  0  0  0  0  0
   -8.2284    2.2516   -8.8545 C   0  0  0  0  0  0  0  0  0  0  0  0
   -9.5757    1.8170   -8.4830 N   0  0  0  0  0  0  0  0  0  0  0  0
   -8.1182    4.6882   -9.0293 N   0  0  0  0  0  0  0  0  0  0  0  0
   -8.0638    5.7977   -9.7851 C   0  0  0  0  0  0  0  0  0  0  0  0
   -8.0827    5.8305  -11.1816 C   0  0  0  0  0  0  0  0  0  0  0  0
   -8.0677    7.1913  -11.8014 C   0  0  0  0  0  0  0  0  0  0  0  0
   -5.5296    5.1173  -18.5956 N   0  0  0  0  0  0  0  0  0  0  0  0
  1  2  1  0
  2  3  1  0
  3  4  1  1
  3  5  1  0
  5  6  1  0
  6  7  2  0
  7  8  1  0
  8  9  2  0
  9 10  1  0
 10 11  2  0
 11 12  1  0
 12 13  2  0
 12 14  1  0
 14 15  1  0
 15 16  2  0
 16 17  1  0
 17 18  1  0
 18 19  1  0
 17 20  2  0
 20 21  1  0
 21 22  2  0
 22 23  1  0
  7 24  1  0
 24  3  1  0
 11  6  1  0
 22 15  1  0
M  END
>  <smiles>  (352) 
C88346-P82

>  <fragmenstein_outcome>  (352) 
acceptable

>  <inchikey>  (352) 
MVHOORWKEONLBH-UHFFFAOYSA-N

>  <fragmenstein_mode>  (352) 
expansion

>  <HIPPO Pose ID>  (352) 
10425

>  <Energy>  (352) 
63.503885

>  <fragmenstein_error>  (352) 


>  <tags>  (352) 
{'openbind_xx01zvns2b_c1_fragmenstein', 'fragmenstein_placed'}

>  <ref_pdb>  (352) 
1

>  <scratch_subdir>  (352) 
/opt/xchem-fragalysis-2/maxwin/BulkDock/SCRATCH/511027/C88346-P82

>  <alias>  (352) 
CC[C@@]1(O)Cc2c(cncc2C(=O)Nc2cc(CN)ncc2C)N1

>  <HIPPO Compound ID>  (352) 
88346

>  <fragmenstein_runtime>  (352) 
10.111387

$$$$
CCC1=Nc2cncc(C(=O)Nc3cc(CN)nc(C)c3C)c2C1=O
     RDKit          3D

 25 27  0  0  0  0  0  0  0  0999 V2000
   -2.7147    6.3701  -16.8810 C   0  0  0  0  0  0  0  0  0  0  0  0
   -3.6770    6.3063  -18.0530 C   0  0  0  0  0  0  0  0  0  0  0  0
   -4.9519    5.5567  -17.8140 C   0  0  0  0  0  0  0  0  0  0  0  0
   -5.7420    5.0681  -18.7342 N   0  0  0  0  0  0  0  0  0  0  0  0
   -6.8944    4.6114  -18.0471 C   0  0  0  0  0  0  0  0  0  0  0  0
   -8.0484    4.0481  -18.5427 C   0  0  0  0  0  0  0  0  0  0  0  0
   -9.1089    3.7384  -17.7375 N   0  0  0  0  0  0  0  0  0  0  0  0
   -9.0296    4.0723  -16.4138 C   0  0  0  0  0  0  0  0  0  0  0  0
   -7.9118    4.6235  -15.8287 C   0  0  0  0  0  0  0  0  0  0  0  0
   -7.9144    5.2748  -14.5153 C   0  0  0  0  0  0  0  0  0  0  0  0
   -7.6346    6.4089  -14.5185 O   0  0  0  0  0  0  0  0  0  0  0  0
   -8.2594    4.3311  -13.3405 N   0  0  0  0  0  0  0  0  0  0  0  0
   -8.2400    4.5567  -11.9445 C   0  0  0  0  0  0  0  0  0  0  0  0
   -8.3629    3.4003  -11.1626 C   0  0  0  0  0  0  0  0  0  0  0  0
   -8.3294    3.4951   -9.7761 C   0  0  0  0  0  0  0  0  0  0  0  0
   -8.5863    2.2629   -8.9202 C   0  0  0  0  0  0  0  0  0  0  0  0
   -8.4975    2.5433   -7.4779 N   0  0  0  0  0  0  0  0  0  0  0  0
   -8.1279    4.6739   -9.1375 N   0  0  0  0  0  0  0  0  0  0  0  0
   -8.0209    5.7921   -9.8855 C   0  0  0  0  0  0  0  0  0  0  0  0
   -7.8340    7.0479   -9.0793 C   0  0  0  0  0  0  0  0  0  0  0  0
   -8.1246    5.8008  -11.2912 C   0  0  0  0  0  0  0  0  0  0  0  0
   -8.1478    7.1263  -11.9933 C   0  0  0  0  0  0  0  0  0  0  0  0
   -6.8571    4.8417  -16.6802 C   0  0  0  0  0  0  0  0  0  0  0  0
   -5.5377    5.3755  -16.4242 C   0  0  0  0  0  0  0  0  0  0  0  0
   -4.9688    5.5373  -15.3734 O   0  0  0  0  0  0  0  0  0  0  0  0
  1  2  1  0
  2  3  1  0
  3  4  2  0
  4  5  1  0
  5  6  2  0
  6  7  1  0
  7  8  2  0
  8  9  1  0
  9 10  1  0
 10 11  2  0
 10 12  1  0
 12 13  1  0
 13 14  2  0
 14 15  1  0
 15 16  1  0
 16 17  1  0
 15 18  2  0
 18 19  1  0
 19 20  1  0
 19 21  2  0
 21 22  1  0
  9 23  2  0
 23 24  1  0
 24 25  2  0
 24  3  1  0
 23  5  1  0
 21 13  1  0
M  END
>  <smiles>  (353) 
C88355-P82

>  <fragmenstein_outcome>  (353) 
acceptable

>  <inchikey>  (353) 
CNDHCGIXNQVGMI-UHFFFAOYSA-N

>  <fragmenstein_mode>  (353) 
expansion

>  <HIPPO Pose ID>  (353) 
10429

>  <Energy>  (353) 
93.582663

>  <fragmenstein_error>  (353) 


>  <tags>  (353) 
{'openbind_xx01zvns2b_c1_fragmenstein', 'fragmenstein_placed'}

>  <ref_pdb>  (353) 
1

>  <scratch_subdir>  (353) 
/opt/xchem-fragalysis-2/maxwin/BulkDock/SCRATCH/511027/C88355-P82

>  <alias>  (353) 
CCC1=Nc2cncc(C(=O)Nc3cc(CN)nc(C)c3C)c2C1=O

>  <HIPPO Compound ID>  (353) 
70544

>  <fragmenstein_runtime>  (353) 
5.59314

$$$$
Cc1cccc(C(O)(O)Nc2cc3c(cc2C)CCNC3)c1
     RDKit          3D

 22 24  0  0  0  0  0  0  0  0999 V2000
   -5.3643    5.2575  -18.1907 C   0  0  0  0  0  0  0  0  0  0  0  0
   -6.5604    4.8836  -17.3697 C   0  0  0  0  0  0  0  0  0  0  0  0
   -7.8034    4.7114  -17.9848 C   0  0  0  0  0  0  0  0  0  0  0  0
   -8.9151    4.3646  -17.2260 C   0  0  0  0  0  0  0  0  0  0  0  0
   -8.7868    4.1884  -15.8490 C   0  0  0  0  0  0  0  0  0  0  0  0
   -7.5565    4.3521  -15.1932 C   0  0  0  0  0  0  0  0  0  0  0  0
   -7.4151    3.9986  -13.7083 C   0  0  0  0  0  0  0  0  0  0  0  0
   -6.1913    4.5072  -13.2399 O   0  0  0  0  0  0  0  0  0  0  0  0
   -7.4040    2.5998  -13.5908 O   0  0  0  0  0  0  0  0  0  0  0  0
   -8.4871    4.5829  -12.9333 N   0  0  0  0  0  0  0  0  0  0  0  0
   -8.4335    4.5172  -11.5209 C   0  0  0  0  0  0  0  0  0  0  0  0
   -8.6903    3.3167  -10.8369 C   0  0  0  0  0  0  0  0  0  0  0  0
   -8.7334    3.2634   -9.4248 C   0  0  0  0  0  0  0  0  0  0  0  0
   -8.4320    4.4075   -8.6797 C   0  0  0  0  0  0  0  0  0  0  0  0
   -8.1190    5.5931   -9.3509 C   0  0  0  0  0  0  0  0  0  0  0  0
   -8.1271    5.6642  -10.7564 C   0  0  0  0  0  0  0  0  0  0  0  0
   -7.8519    6.9954  -11.3984 C   0  0  0  0  0  0  0  0  0  0  0  0
   -8.5456    4.4009   -7.1732 C   0  0  0  0  0  0  0  0  0  0  0  0
   -8.9867    3.0705   -6.5468 C   0  0  0  0  0  0  0  0  0  0  0  0
   -9.8014    2.2494   -7.4276 N   0  0  0  0  0  0  0  0  0  0  0  0
   -9.1109    1.9950   -8.6990 C   0  0  0  0  0  0  0  0  0  0  0  0
   -6.4489    4.7187  -15.9796 C   0  0  0  0  0  0  0  0  0  0  0  0
  1  2  1  0
  2  3  2  0
  3  4  1  0
  4  5  2  0
  5  6  1  0
  6  7  1  0
  7  8  1  0
  7  9  1  0
  7 10  1  0
 10 11  1  0
 11 12  2  0
 12 13  1  0
 13 14  2  0
 14 15  1  0
 15 16  2  0
 16 17  1  0
 14 18  1  0
 18 19  1  0
 19 20  1  0
 20 21  1  0
  6 22  2  0
 22  2  1  0
 16 11  1  0
 21 13  1  0
M  END
>  <smiles>  (354) 
C88804-P83

>  <fragmenstein_outcome>  (354) 
acceptable

>  <inchikey>  (354) 
CMQTXBFCLYLHHQ-UHFFFAOYSA-N

>  <fragmenstein_mode>  (354) 
expansion

>  <HIPPO Pose ID>  (354) 
10615

>  <Energy>  (354) 
-54.110755

>  <fragmenstein_error>  (354) 


>  <tags>  (354) 
{'openbind_xx01zvns2b_c1_fragmenstein', 'fragmenstein_placed'}

>  <ref_pdb>  (354) 
1

>  <scratch_subdir>  (354) 
/opt/xchem-fragalysis-2/maxwin/BulkDock/SCRATCH/511027/C88804-P83

>  <alias>  (354) 
Cc1cccc(C(O)(O)Nc2cc3c(cc2C)CCNC3)c1

>  <HIPPO Compound ID>  (354) 
98276

>  <fragmenstein_runtime>  (354) 
3.902021

$$$$
C[C@H]1C[C@@H]2CNC[C@@H]2C[C@@H]1NC(=O)c1ccc2scnc2c1
     RDKit          3D

 22 25  0  0  0  0  0  0  0  0999 V2000
   -8.9179    4.2481  -17.1698 C   0  0  0  0  0  0  0  0  0  0  0  0
   -7.4181    4.4299  -16.9278 C   0  0  1  0  0  0  0  0  0  0  0  0
   -6.6445    4.5816  -18.2600 C   0  0  0  0  0  0  0  0  0  0  0  0
   -6.1838    6.0120  -18.5607 C   0  0  2  0  0  0  0  0  0  0  0  0
   -5.1877    6.1014  -19.7146 C   0  0  0  0  0  0  0  0  0  0  0  0
   -4.1573    7.0517  -19.2666 N   0  0  0  0  0  0  0  0  0  0  0  0
   -3.9898    6.7647  -17.8454 C   0  0  0  0  0  0  0  0  0  0  0  0
   -5.4345    6.6702  -17.3946 C   0  0  2  0  0  0  0  0  0  0  0  0
   -5.6306    5.9745  -16.0596 C   0  0  0  0  0  0  0  0  0  0  0  0
   -7.0991    5.5722  -15.9536 C   0  0  2  0  0  0  0  0  0  0  0  0
   -7.4382    5.2949  -14.5860 N   0  0  0  0  0  0  0  0  0  0  0  0
   -8.5120    5.9112  -13.6813 C   0  0  0  0  0  0  0  0  0  0  0  0
   -9.3448    6.6877  -13.9201 O   0  0  0  0  0  0  0  0  0  0  0  0
   -8.3428    5.4771  -12.2820 C   0  0  0  0  0  0  0  0  0  0  0  0
   -8.3009    6.4696  -11.2992 C   0  0  0  0  0  0  0  0  0  0  0  0
   -8.2042    6.1293   -9.9515 C   0  0  0  0  0  0  0  0  0  0  0  0
   -8.1723    4.7658   -9.6263 C   0  0  0  0  0  0  0  0  0  0  0  0
   -8.1180    4.0261   -8.0713 S   0  0  0  0  0  0  0  0  0  0  0  0
   -8.1170    2.4859   -8.8157 C   0  0  0  0  0  0  0  0  0  0  0  0
   -8.1529    2.4837  -10.1271 N   0  0  0  0  0  0  0  0  0  0  0  0
   -8.2000    3.7687  -10.6035 C   0  0  0  0  0  0  0  0  0  0  0  0
   -8.2764    4.1228  -11.9601 C   0  0  0  0  0  0  0  0  0  0  0  0
  2  1  1  6
  2  3  1  0
  4  3  1  1
  4  5  1  0
  5  6  1  0
  6  7  1  0
  8  7  1  6
  8  9  1  0
  9 10  1  0
 10 11  1  1
 11 12  1  0
 12 13  2  0
 12 14  1  0
 14 15  2  0
 15 16  1  0
 16 17  2  0
 17 18  1  0
 18 19  1  0
 19 20  2  0
 20 21  1  0
 21 22  2  0
 10  2  1  0
 22 14  1  0
  8  4  1  0
 21 17  1  0
M  END
>  <smiles>  (355) 
C88889-P84

>  <fragmenstein_outcome>  (355) 
acceptable

>  <inchikey>  (355) 
FKZUNCOMZMXKHO-UHFFFAOYSA-N

>  <fragmenstein_mode>  (355) 
expansion

>  <HIPPO Pose ID>  (355) 
10660

>  <Energy>  (355) 
46.546139

>  <fragmenstein_error>  (355) 


>  <tags>  (355) 
{'openbind_xx01zvns2b_c1_fragmenstein', 'fragmenstein_placed'}

>  <ref_pdb>  (355) 
1

>  <scratch_subdir>  (355) 
/opt/xchem-fragalysis-2/maxwin/BulkDock/SCRATCH/511027/C88889-P84

>  <alias>  (355) 
C[C@H]1C[C@@H]2CNC[C@@H]2C[C@@H]1NC(=O)c1ccc2scnc2c1

>  <HIPPO Compound ID>  (355) 
92823

>  <fragmenstein_runtime>  (355) 
2.807825

$$$$
Cc1cc(F)c(N)cc1NC(=O)c1cccc2c(C3CNC3)n[nH]c12
     RDKit          3D

 25 28  0  0  0  0  0  0  0  0999 V2000
   -8.8744    4.1667  -16.9316 C   0  0  0  0  0  0  0  0  0  0  0  0
   -7.4697    4.6807  -17.0845 C   0  0  0  0  0  0  0  0  0  0  0  0
   -6.9556    4.7993  -18.3839 C   0  0  0  0  0  0  0  0  0  0  0  0
   -5.6288    5.1686  -18.5819 C   0  0  0  0  0  0  0  0  0  0  0  0
   -5.1554    5.3230  -19.8219 F   0  0  0  0  0  0  0  0  0  0  0  0
   -4.7643    5.4193  -17.5188 C   0  0  0  0  0  0  0  0  0  0  0  0
   -3.3910    5.6494  -17.7353 N   0  0  0  0  0  0  0  0  0  0  0  0
   -5.2579    5.2566  -16.2314 C   0  0  0  0  0  0  0  0  0  0  0  0
   -6.6186    4.9848  -16.0097 C   0  0  0  0  0  0  0  0  0  0  0  0
   -7.0201    5.1036  -14.6830 N   0  0  0  0  0  0  0  0  0  0  0  0
   -8.3527    5.5785  -14.0816 C   0  0  0  0  0  0  0  0  0  0  0  0
   -9.3522    5.8726  -14.5997 O   0  0  0  0  0  0  0  0  0  0  0  0
   -8.2264    5.6634  -12.6282 C   0  0  0  0  0  0  0  0  0  0  0  0
   -8.0625    6.8971  -11.9978 C   0  0  0  0  0  0  0  0  0  0  0  0
   -8.0102    6.9643  -10.6099 C   0  0  0  0  0  0  0  0  0  0  0  0
   -8.1473    5.8075   -9.8330 C   0  0  0  0  0  0  0  0  0  0  0  0
   -8.3163    4.5614  -10.4657 C   0  0  0  0  0  0  0  0  0  0  0  0
   -8.6097    3.2360  -10.0751 C   0  0  0  0  0  0  0  0  0  0  0  0
   -9.0392    2.8248   -8.6466 C   0  0  0  0  0  0  0  0  0  0  0  0
   -8.4410    1.5521   -8.0555 C   0  0  0  0  0  0  0  0  0  0  0  0
   -8.3945    2.2372   -6.7320 N   0  0  0  0  0  0  0  0  0  0  0  0
   -8.3545    3.5225   -7.4646 C   0  0  0  0  0  0  0  0  0  0  0  0
   -8.7113    2.4140  -11.1211 N   0  0  0  0  0  0  0  0  0  0  0  0
   -8.5620    3.2092  -12.1833 N   0  0  0  0  0  0  0  0  0  0  0  0
   -8.3277    4.5133  -11.8538 C   0  0  0  0  0  0  0  0  0  0  0  0
  1  2  1  0
  2  3  2  0
  3  4  1  0
  4  5  1  0
  4  6  2  0
  6  7  1  0
  6  8  1  0
  8  9  2  0
  9 10  1  0
 10 11  1  0
 11 12  2  0
 11 13  1  0
 13 14  2  0
 14 15  1  0
 15 16  2  0
 16 17  1  0
 17 18  1  0
 18 19  1  0
 19 20  1  0
 20 21  1  0
 21 22  1  0
 18 23  2  0
 23 24  1  0
 24 25  1  0
  9  2  1  0
 25 13  1  0
 25 17  2  0
 22 19  1  0
M  END
>  <smiles>  (356) 
C29026-P84

>  <fragmenstein_outcome>  (356) 
acceptable

>  <inchikey>  (356) 
RFURKXUVSDHFHD-UHFFFAOYSA-N

>  <fragmenstein_mode>  (356) 
expansion

>  <HIPPO Pose ID>  (356) 
10665

>  <Energy>  (356) 
101.011646

>  <fragmenstein_error>  (356) 


>  <tags>  (356) 
{'openbind_xx01zvns2b_c1_fragmenstein', 'fragmenstein_placed'}

>  <ref_pdb>  (356) 
1

>  <scratch_subdir>  (356) 
/opt/xchem-fragalysis-2/maxwin/BulkDock/SCRATCH/511027/C29026-P84

>  <alias>  (356) 
Cc1cc(F)c(N)cc1NC(=O)c1cccc2c(C3CNC3)n[nH]c12

>  <HIPPO Compound ID>  (356) 
106792

>  <fragmenstein_runtime>  (356) 
4.017182

$$$$
C[C@H]1C[C@H]2CNC[C@H]2C[C@@H]1NC(=O)c1ccc2c(c1)[C@H](C1CCN(C)CC1)CC2
     RDKit          3D

 29 33  0  0  0  0  0  0  0  0999 V2000
   -9.0165    4.0843  -16.7804 C   0  0  0  0  0  0  0  0  0  0  0  0
   -7.5448    4.4439  -16.9772 C   0  0  1  0  0  0  0  0  0  0  0  0
   -7.3106    4.8343  -18.4402 C   0  0  0  0  0  0  0  0  0  0  0  0
   -5.8580    5.1979  -18.7312 C   0  0  1  0  0  0  0  0  0  0  0  0
   -5.6652    6.5527  -19.4175 C   0  0  0  0  0  0  0  0  0  0  0  0
   -4.3985    7.1058  -18.9065 N   0  0  0  0  0  0  0  0  0  0  0  0
   -3.7728    6.0765  -18.0760 C   0  0  0  0  0  0  0  0  0  0  0  0
   -4.9430    5.2784  -17.5164 C   0  0  1  0  0  0  0  0  0  0  0  0
   -5.5862    5.9533  -16.2999 C   0  0  0  0  0  0  0  0  0  0  0  0
   -7.0561    5.5763  -16.0642 C   0  0  2  0  0  0  0  0  0  0  0  0
   -7.2971    5.3275  -14.6618 N   0  0  0  0  0  0  0  0  0  0  0  0
   -8.4633    5.7592  -13.7562 C   0  0  0  0  0  0  0  0  0  0  0  0
   -9.3762    6.4482  -13.9773 O   0  0  0  0  0  0  0  0  0  0  0  0
   -8.2640    5.2496  -12.3798 C   0  0  0  0  0  0  0  0  0  0  0  0
   -8.1064    3.8761  -12.1411 C   0  0  0  0  0  0  0  0  0  0  0  0
   -7.9227    3.4203  -10.8372 C   0  0  0  0  0  0  0  0  0  0  0  0
   -7.8809    4.3534   -9.8100 C   0  0  0  0  0  0  0  0  0  0  0  0
   -8.0152    5.7273  -10.0472 C   0  0  0  0  0  0  0  0  0  0  0  0
   -8.2410    6.1835  -11.3345 C   0  0  0  0  0  0  0  0  0  0  0  0
   -7.9066    6.5187   -8.7624 C   0  0  2  0  0  0  0  0  0  0  0  0
   -6.5275    7.2098   -8.5502 C   0  0  0  0  0  0  0  0  0  0  0  0
   -6.3744    7.7013   -7.0897 C   0  0  0  0  0  0  0  0  0  0  0  0
   -5.4700    8.9268   -6.9744 C   0  0  0  0  0  0  0  0  0  0  0  0
   -5.9586   10.0830   -7.7335 N   0  0  0  0  0  0  0  0  0  0  0  0
   -6.7182   11.0113   -6.8978 C   0  0  0  0  0  0  0  0  0  0  0  0
   -6.7374    9.7146   -8.9254 C   0  0  0  0  0  0  0  0  0  0  0  0
   -6.2745    8.3856   -9.5207 C   0  0  0  0  0  0  0  0  0  0  0  0
   -8.1799    5.3817   -7.7369 C   0  0  0  0  0  0  0  0  0  0  0  0
   -7.6709    4.0783   -8.3576 C   0  0  0  0  0  0  0  0  0  0  0  0
  2  1  1  6
  2  3  1  0
  4  3  1  1
  4  5  1  0
  5  6  1  0
  6  7  1  0
  8  7  1  6
  8  9  1  0
  9 10  1  0
 10 11  1  1
 11 12  1  0
 12 13  2  0
 12 14  1  0
 14 15  2  0
 15 16  1  0
 16 17  2  0
 17 18  1  0
 18 19  2  0
 18 20  1  0
 20 21  1  1
 21 22  1  0
 22 23  1  0
 23 24  1  0
 24 25  1  0
 24 26  1  0
 26 27  1  0
 20 28  1  0
 28 29  1  0
 10  2  1  0
 19 14  1  0
 27 21  1  0
  8  4  1  0
 29 17  1  0
M  END
>  <smiles>  (357) 
C88901-P84

>  <fragmenstein_outcome>  (357) 
acceptable

>  <inchikey>  (357) 
RLPTVOBPSCOJLE-UHFFFAOYSA-N

>  <fragmenstein_mode>  (357) 
expansion

>  <HIPPO Pose ID>  (357) 
10672

>  <Energy>  (357) 
85.234526

>  <fragmenstein_error>  (357) 


>  <tags>  (357) 
{'openbind_xx01zvns2b_c1_fragmenstein', 'fragmenstein_placed'}

>  <ref_pdb>  (357) 
1

>  <scratch_subdir>  (357) 
/opt/xchem-fragalysis-2/maxwin/BulkDock/SCRATCH/511027/C88901-P84

>  <alias>  (357) 
C[C@H]1C[C@H]2CNC[C@H]2C[C@@H]1NC(=O)c1ccc2c(c1)[C@H](C1CCN(C)CC1)CC2

>  <HIPPO Compound ID>  (357) 
73101

>  <fragmenstein_runtime>  (357) 
5.025096

$$$$
Cc1c(Br)cc(N)cc1NC(=O)c1cccc2c(C3CNC3)n[nH]c12
     RDKit          3D

 25 28  0  0  0  0  0  0  0  0999 V2000
   -8.8979    4.1602  -15.9815 C   0  0  0  0  0  0  0  0  0  0  0  0
   -7.6399    4.7811  -16.5203 C   0  0  0  0  0  0  0  0  0  0  0  0
   -7.4061    4.7425  -17.8934 C   0  0  0  0  0  0  0  0  0  0  0  0
   -8.7947    4.1789  -19.0141 Br  0  0  0  0  0  0  0  0  0  0  0  0
   -6.1883    5.1312  -18.4448 C   0  0  0  0  0  0  0  0  0  0  0  0
   -5.1736    5.6052  -17.6195 C   0  0  0  0  0  0  0  0  0  0  0  0
   -3.9001    5.8658  -18.1520 N   0  0  0  0  0  0  0  0  0  0  0  0
   -5.3944    5.6463  -16.2380 C   0  0  0  0  0  0  0  0  0  0  0  0
   -6.6511    5.3309  -15.7034 C   0  0  0  0  0  0  0  0  0  0  0  0
   -6.8792    5.5766  -14.3528 N   0  0  0  0  0  0  0  0  0  0  0  0
   -8.1837    5.9389  -13.6037 C   0  0  0  0  0  0  0  0  0  0  0  0
   -9.2538    6.1630  -14.0126 O   0  0  0  0  0  0  0  0  0  0  0  0
   -7.9654    5.8759  -12.1679 C   0  0  0  0  0  0  0  0  0  0  0  0
   -7.5829    7.0066  -11.4541 C   0  0  0  0  0  0  0  0  0  0  0  0
   -7.3542    6.9031  -10.0889 C   0  0  0  0  0  0  0  0  0  0  0  0
   -7.5067    5.6773   -9.4264 C   0  0  0  0  0  0  0  0  0  0  0  0
   -7.9307    4.5397  -10.1399 C   0  0  0  0  0  0  0  0  0  0  0  0
   -8.2386    3.1897   -9.8568 C   0  0  0  0  0  0  0  0  0  0  0  0
   -8.1522    2.5230   -8.4538 C   0  0  0  0  0  0  0  0  0  0  0  0
   -9.4387    1.8557   -7.9486 C   0  0  0  0  0  0  0  0  0  0  0  0
   -9.1454    2.3682   -6.5824 N   0  0  0  0  0  0  0  0  0  0  0  0
   -8.3562    3.4417   -7.2296 C   0  0  0  0  0  0  0  0  0  0  0  0
   -8.5761    2.5115  -10.9564 N   0  0  0  0  0  0  0  0  0  0  0  0
   -8.5566    3.4270  -11.9295 N   0  0  0  0  0  0  0  0  0  0  0  0
   -8.1450    4.6607  -11.5061 C   0  0  0  0  0  0  0  0  0  0  0  0
  1  2  1  0
  2  3  2  0
  3  4  1  0
  3  5  1  0
  5  6  2  0
  6  7  1  0
  6  8  1  0
  8  9  2  0
  9 10  1  0
 10 11  1  0
 11 12  2  0
 11 13  1  0
 13 14  2  0
 14 15  1  0
 15 16  2  0
 16 17  1  0
 17 18  1  0
 18 19  1  0
 19 20  1  0
 20 21  1  0
 21 22  1  0
 18 23  2  0
 23 24  1  0
 24 25  1  0
  9  2  1  0
 25 13  1  0
 25 17  2  0
 22 19  1  0
M  END
>  <smiles>  (358) 
C31245-P84

>  <fragmenstein_outcome>  (358) 
acceptable

>  <inchikey>  (358) 
PVOIGHYSFWROHP-UHFFFAOYSA-N

>  <fragmenstein_mode>  (358) 
expansion

>  <HIPPO Pose ID>  (358) 
10675

>  <Energy>  (358) 
83.16112

>  <fragmenstein_error>  (358) 


>  <tags>  (358) 
{'openbind_xx01zvns2b_c1_fragmenstein', 'fragmenstein_placed'}

>  <ref_pdb>  (358) 
1

>  <scratch_subdir>  (358) 
/opt/xchem-fragalysis-2/maxwin/BulkDock/SCRATCH/511027/C31245-P84

>  <alias>  (358) 
Cc1c(Br)cc(N)cc1NC(=O)c1cccc2c(C3CNC3)n[nH]c12

>  <HIPPO Compound ID>  (358) 
98035

>  <fragmenstein_runtime>  (358) 
3.891474

$$$$
C[C@@H](N)C[C@@H](N)c1cc(Cl)c(Cl)c(CNN)c1
     RDKit          3D

 17 17  0  0  0  0  0  0  0  0999 V2000
   -8.8374    7.5417  -12.6792 C   0  0  0  0  0  0  0  0  0  0  0  0
   -7.3981    7.3750  -13.1590 C   0  0  1  0  0  0  0  0  0  0  0  0
   -6.5636    8.4040  -12.5130 N   0  0  0  0  0  0  0  0  0  0  0  0
   -6.7884    5.9977  -12.8503 C   0  0  0  0  0  0  0  0  0  0  0  0
   -7.4311    4.7722  -13.5302 C   0  0  1  0  0  0  0  0  0  0  0  0
   -8.7245    4.4432  -12.9320 N   0  0  0  0  0  0  0  0  0  0  0  0
   -7.4769    4.8526  -15.0443 C   0  0  0  0  0  0  0  0  0  0  0  0
   -8.6602    4.6496  -15.7612 C   0  0  0  0  0  0  0  0  0  0  0  0
   -8.6403    4.5113  -17.1416 C   0  0  0  0  0  0  0  0  0  0  0  0
  -10.1483    4.2392  -17.9334 Cl  0  0  0  0  0  0  0  0  0  0  0  0
   -7.4247    4.5850  -17.8240 C   0  0  0  0  0  0  0  0  0  0  0  0
   -7.3472    4.0802  -19.4440 Cl  0  0  0  0  0  0  0  0  0  0  0  0
   -6.2383    4.9292  -17.1650 C   0  0  0  0  0  0  0  0  0  0  0  0
   -4.8835    5.0247  -17.8370 C   0  0  0  0  0  0  0  0  0  0  0  0
   -4.8454    5.7229  -19.1294 N   0  0  0  0  0  0  0  0  0  0  0  0
   -3.4827    5.8432  -19.5860 N   0  0  0  0  0  0  0  0  0  0  0  0
   -6.2851    5.0334  -15.7658 C   0  0  0  0  0  0  0  0  0  0  0  0
  2  1  1  1
  2  3  1  0
  2  4  1  0
  4  5  1  0
  5  6  1  1
  5  7  1  0
  7  8  2  0
  8  9  1  0
  9 10  1  0
  9 11  2  0
 11 12  1  0
 11 13  1  0
 13 14  1  0
 14 15  1  0
 15 16  1  0
 13 17  2  0
 17  7  1  0
M  END
>  <smiles>  (359) 
C89093-P84

>  <fragmenstein_outcome>  (359) 
acceptable

>  <inchikey>  (359) 
HLQWGRSNZFGMEU-UHFFFAOYSA-N

>  <fragmenstein_mode>  (359) 
expansion

>  <HIPPO Pose ID>  (359) 
10796

>  <Energy>  (359) 
82.773152

>  <fragmenstein_error>  (359) 


>  <tags>  (359) 
{'openbind_xx01zvns2b_c1_fragmenstein', 'fragmenstein_placed'}

>  <ref_pdb>  (359) 
1

>  <scratch_subdir>  (359) 
/opt/xchem-fragalysis-2/maxwin/BulkDock/SCRATCH/511027/C89093-P84

>  <alias>  (359) 
C[C@@H](N)C[C@@H](N)c1cc(Cl)c(Cl)c(CNN)c1

>  <HIPPO Compound ID>  (359) 
89093

>  <fragmenstein_runtime>  (359) 
1.982932

$$$$
Clc1ccc2c3c(ccnc13)CCN2
     RDKit          3D

 14 16  0  0  0  0  0  0  0  0999 V2000
   -6.8636    3.8883  -20.2720 Cl  0  0  0  0  0  0  0  0  0  0  0  0
   -7.2982    4.2726  -18.6497 C   0  0  0  0  0  0  0  0  0  0  0  0
   -8.6012    3.9903  -18.2366 C   0  0  0  0  0  0  0  0  0  0  0  0
   -8.9569    4.1763  -16.9083 C   0  0  0  0  0  0  0  0  0  0  0  0
   -8.0065    4.6118  -15.9852 C   0  0  0  0  0  0  0  0  0  0  0  0
   -6.7175    4.9828  -16.4410 C   0  0  0  0  0  0  0  0  0  0  0  0
   -5.7724    5.5256  -15.5525 C   0  0  0  0  0  0  0  0  0  0  0  0
   -4.5069    5.8817  -16.0134 C   0  0  0  0  0  0  0  0  0  0  0  0
   -4.2181    5.6659  -17.3440 C   0  0  0  0  0  0  0  0  0  0  0  0
   -5.0947    5.1464  -18.2204 N   0  0  0  0  0  0  0  0  0  0  0  0
   -6.3388    4.8082  -17.7886 C   0  0  0  0  0  0  0  0  0  0  0  0
   -6.1849    5.7637  -14.1218 C   0  0  0  0  0  0  0  0  0  0  0  0
   -7.2714    4.7699  -13.7033 C   0  0  0  0  0  0  0  0  0  0  0  0
   -8.4091    4.7810  -14.6287 N   0  0  0  0  0  0  0  0  0  0  0  0
  1  2  1  0
  2  3  2  0
  3  4  1  0
  4  5  2  0
  5  6  1  0
  6  7  2  0
  7  8  1  0
  8  9  2  0
  9 10  1  0
 10 11  2  0
  7 12  1  0
 12 13  1  0
 13 14  1  0
 11  2  1  0
 14  5  1  0
 11  6  1  0
M  END
>  <smiles>  (360) 
C89695-P87

>  <fragmenstein_outcome>  (360) 
acceptable

>  <inchikey>  (360) 
MCHUHOUSPDACHS-UHFFFAOYSA-N

>  <fragmenstein_mode>  (360) 
expansion

>  <HIPPO Pose ID>  (360) 
11025

>  <Energy>  (360) 
70.727225

>  <fragmenstein_error>  (360) 


>  <tags>  (360) 
{'openbind_xx01zvns2b_c1_fragmenstein', 'fragmenstein_placed'}

>  <ref_pdb>  (360) 
1

>  <scratch_subdir>  (360) 
/opt/xchem-fragalysis-2/maxwin/BulkDock/SCRATCH/511027/C89695-P87

>  <alias>  (360) 
Clc1ccc2c3c(ccnc13)CCN2

>  <HIPPO Compound ID>  (360) 
89695

>  <fragmenstein_runtime>  (360) 
0.775175

$$$$
Nc1cc(S(N)(=O)=O)nc2c(Cl)cccc12
     RDKit          3D

 16 17  0  0  0  0  0  0  0  0999 V2000
   -5.3752    5.7378  -14.3811 N   0  0  0  0  0  0  0  0  0  0  0  0
   -5.4259    5.5835  -15.7792 C   0  0  0  0  0  0  0  0  0  0  0  0
   -4.2610    5.8385  -16.5020 C   0  0  0  0  0  0  0  0  0  0  0  0
   -4.2946    5.5962  -17.8538 C   0  0  0  0  0  0  0  0  0  0  0  0
   -3.0246    6.1605  -18.9524 S   0  0  0  0  0  0  0  0  0  0  0  0
   -3.9032    7.1247  -20.0249 N   0  0  0  0  0  0  0  0  0  0  0  0
   -2.1662    7.0852  -18.2401 O   0  0  0  0  0  0  0  0  0  0  0  0
   -2.4757    5.0590  -19.7133 O   0  0  0  0  0  0  0  0  0  0  0  0
   -5.3431    5.0819  -18.5188 N   0  0  0  0  0  0  0  0  0  0  0  0
   -6.4482    4.7699  -17.8280 C   0  0  0  0  0  0  0  0  0  0  0  0
   -7.5258    4.1934  -18.4966 C   0  0  0  0  0  0  0  0  0  0  0  0
   -7.3385    3.7408  -20.1476 Cl  0  0  0  0  0  0  0  0  0  0  0  0
   -8.7300    3.9093  -17.8609 C   0  0  0  0  0  0  0  0  0  0  0  0
   -8.8484    4.1572  -16.5039 C   0  0  0  0  0  0  0  0  0  0  0  0
   -7.7665    4.6774  -15.7941 C   0  0  0  0  0  0  0  0  0  0  0  0
   -6.5518    5.0094  -16.4395 C   0  0  0  0  0  0  0  0  0  0  0  0
  1  2  1  0
  2  3  2  0
  3  4  1  0
  4  5  1  0
  5  6  1  0
  5  7  2  0
  5  8  2  0
  4  9  2  0
  9 10  1  0
 10 11  2  0
 11 12  1  0
 11 13  1  0
 13 14  2  0
 14 15  1  0
 15 16  2  0
 16  2  1  0
 16 10  1  0
M  END
>  <smiles>  (361) 
C89715-P87

>  <fragmenstein_outcome>  (361) 
acceptable

>  <inchikey>  (361) 
NMFCPJBKOQILBS-UHFFFAOYSA-N

>  <fragmenstein_mode>  (361) 
expansion

>  <HIPPO Pose ID>  (361) 
11031

>  <Energy>  (361) 
30.539002

>  <fragmenstein_error>  (361) 


>  <tags>  (361) 
{'openbind_xx01zvns2b_c1_fragmenstein', 'fragmenstein_placed'}

>  <ref_pdb>  (361) 
1

>  <scratch_subdir>  (361) 
/opt/xchem-fragalysis-2/maxwin/BulkDock/SCRATCH/511027/C89715-P87

>  <alias>  (361) 
Nc1cc(S(N)(=O)=O)nc2c(Cl)cccc12

>  <HIPPO Compound ID>  (361) 
87671

>  <fragmenstein_runtime>  (361) 
0.688874

$$$$
Cc1cn2ccc(C(=O)c3ccc(N)c4cccc(Cl)c34)cc2n1
     RDKit          3D

 24 27  0  0  0  0  0  0  0  0999 V2000
   -4.0743    9.6559   -8.8877 C   0  0  0  0  0  0  0  0  0  0  0  0
   -4.3441    9.0788  -10.2225 C   0  0  0  0  0  0  0  0  0  0  0  0
   -4.8314    9.6964  -11.3557 C   0  0  0  0  0  0  0  0  0  0  0  0
   -4.8991    8.7162  -12.3112 N   0  0  0  0  0  0  0  0  0  0  0  0
   -5.3122    8.7977  -13.6372 C   0  0  0  0  0  0  0  0  0  0  0  0
   -5.2906    7.6906  -14.4000 C   0  0  0  0  0  0  0  0  0  0  0  0
   -4.8431    6.4237  -13.8132 C   0  0  0  0  0  0  0  0  0  0  0  0
   -4.8038    5.1307  -14.5784 C   0  0  0  0  0  0  0  0  0  0  0  0
   -4.3802    4.0808  -14.1041 O   0  0  0  0  0  0  0  0  0  0  0  0
   -5.1870    5.1500  -16.0033 C   0  0  0  0  0  0  0  0  0  0  0  0
   -4.1081    5.3806  -16.8680 C   0  0  0  0  0  0  0  0  0  0  0  0
   -4.3075    5.3677  -18.2377 C   0  0  0  0  0  0  0  0  0  0  0  0
   -5.5778    5.1283  -18.7622 C   0  0  0  0  0  0  0  0  0  0  0  0
   -5.7136    5.0597  -20.1549 N   0  0  0  0  0  0  0  0  0  0  0  0
   -6.6569    4.7896  -17.8982 C   0  0  0  0  0  0  0  0  0  0  0  0
   -7.8949    4.3699  -18.4389 C   0  0  0  0  0  0  0  0  0  0  0  0
   -8.9921    4.0741  -17.6479 C   0  0  0  0  0  0  0  0  0  0  0  0
   -8.8793    4.2096  -16.2813 C   0  0  0  0  0  0  0  0  0  0  0  0
   -7.6684    4.5894  -15.6975 C   0  0  0  0  0  0  0  0  0  0  0  0
   -7.7473    4.7969  -13.9814 Cl  0  0  0  0  0  0  0  0  0  0  0  0
   -6.5008    4.8502  -16.4811 C   0  0  0  0  0  0  0  0  0  0  0  0
   -4.4448    6.3675  -12.5215 C   0  0  0  0  0  0  0  0  0  0  0  0
   -4.4551    7.5424  -11.7172 C   0  0  0  0  0  0  0  0  0  0  0  0
   -4.1074    7.7451  -10.4639 N   0  0  0  0  0  0  0  0  0  0  0  0
  1  2  1  0
  2  3  2  0
  3  4  1  0
  4  5  1  0
  5  6  2  0
  6  7  1  0
  7  8  1  0
  8  9  2  0
  8 10  1  0
 10 11  2  0
 11 12  1  0
 12 13  2  0
 13 14  1  0
 13 15  1  0
 15 16  2  0
 16 17  1  0
 17 18  2  0
 18 19  1  0
 19 20  1  0
 19 21  2  0
  7 22  2  0
 22 23  1  0
 23 24  2  0
 24  2  1  0
 23  4  1  0
 21 10  1  0
 21 15  1  0
M  END
>  <smiles>  (362) 
C89748-P87

>  <fragmenstein_outcome>  (362) 
acceptable

>  <inchikey>  (362) 
HYUXPLTXWGHACB-UHFFFAOYSA-N

>  <fragmenstein_mode>  (362) 
expansion

>  <HIPPO Pose ID>  (362) 
11046

>  <Energy>  (362) 
95.185583

>  <fragmenstein_error>  (362) 


>  <tags>  (362) 
{'openbind_xx01zvns2b_c1_fragmenstein', 'fragmenstein_placed'}

>  <ref_pdb>  (362) 
1

>  <scratch_subdir>  (362) 
/opt/xchem-fragalysis-2/maxwin/BulkDock/SCRATCH/511027/C89748-P87

>  <alias>  (362) 
Cc1cn2ccc(C(=O)c3ccc(N)c4cccc(Cl)c34)cc2n1

>  <HIPPO Compound ID>  (362) 
97163

>  <fragmenstein_runtime>  (362) 
0.922757

$$$$
N[C@@H]1CCN2CCc3cccc1c32
     RDKit          3D

 13 15  0  0  0  0  0  0  0  0999 V2000
   -4.9074    6.1796  -14.4897 N   0  0  0  0  0  0  0  0  0  0  0  0
   -4.9237    5.4227  -15.7414 C   0  0  2  0  0  0  0  0  0  0  0  0
   -4.3739    6.3042  -16.8734 C   0  0  0  0  0  0  0  0  0  0  0  0
   -4.2908    5.5358  -18.1953 C   0  0  0  0  0  0  0  0  0  0  0  0
   -5.4287    4.6688  -18.4381 N   0  0  0  0  0  0  0  0  0  0  0  0
   -6.2122    4.7142  -19.6731 C   0  0  0  0  0  0  0  0  0  0  0  0
   -7.4793    3.8604  -19.4063 C   0  0  0  0  0  0  0  0  0  0  0  0
   -7.6541    4.1367  -17.9637 C   0  0  0  0  0  0  0  0  0  0  0  0
   -8.7584    3.9611  -17.1615 C   0  0  0  0  0  0  0  0  0  0  0  0
   -8.6157    4.2730  -15.8126 C   0  0  0  0  0  0  0  0  0  0  0  0
   -7.3975    4.7600  -15.3009 C   0  0  0  0  0  0  0  0  0  0  0  0
   -6.2898    4.9425  -16.1362 C   0  0  0  0  0  0  0  0  0  0  0  0
   -6.4419    4.6056  -17.4644 C   0  0  0  0  0  0  0  0  0  0  0  0
  2  1  1  1
  2  3  1  0
  3  4  1  0
  4  5  1  0
  5  6  1  0
  6  7  1  0
  7  8  1  0
  8  9  1  0
  9 10  2  0
 10 11  1  0
 11 12  2  0
 12 13  1  0
 12  2  1  0
 13  5  1  0
 13  8  2  0
M  END
>  <smiles>  (363) 
C89721-P160

>  <fragmenstein_outcome>  (363) 
acceptable

>  <inchikey>  (363) 
UWAJJKJNFPOWKJ-UHFFFAOYSA-N

>  <fragmenstein_mode>  (363) 
expansion

>  <HIPPO Pose ID>  (363) 
11068

>  <Energy>  (363) 
22.490428

>  <fragmenstein_error>  (363) 


>  <tags>  (363) 
{'openbind_xx01zvns2b_c1_fragmenstein', 'fragmenstein_placed'}

>  <ref_pdb>  (363) 
1

>  <scratch_subdir>  (363) 
/opt/xchem-fragalysis-2/maxwin/BulkDock/SCRATCH/511027/C89721-P160

>  <alias>  (363) 
N[C@@H]1CCN2CCc3cccc1c32

>  <HIPPO Compound ID>  (363) 
89721

>  <fragmenstein_runtime>  (363) 
0.909272

$$$$
Nc1cc([C@H](Nc2ccc3c(n2)CNC3)C(=O)NCC(F)F)nc2c(Cl)cccc12
     RDKit          3D

 30 33  0  0  0  0  0  0  0  0999 V2000
   -9.4563    4.1828  -17.9041 N   0  0  0  0  0  0  0  0  0  0  0  0
   -8.3932    4.4668  -17.0155 C   0  0  0  0  0  0  0  0  0  0  0  0
   -8.6041    4.2321  -15.6604 C   0  0  0  0  0  0  0  0  0  0  0  0
   -7.5675    4.3764  -14.7550 C   0  0  0  0  0  0  0  0  0  0  0  0
   -7.7355    3.9199  -13.2947 C   0  0  2  0  0  0  0  0  0  0  0  0
   -7.5695    5.0848  -12.3811 N   0  0  0  0  0  0  0  0  0  0  0  0
   -7.9376    4.8636  -11.0390 C   0  0  0  0  0  0  0  0  0  0  0  0
   -7.8528    5.9594  -10.1639 C   0  0  0  0  0  0  0  0  0  0  0  0
   -8.0786    5.7950   -8.7961 C   0  0  0  0  0  0  0  0  0  0  0  0
   -8.3803    4.5282   -8.3537 C   0  0  0  0  0  0  0  0  0  0  0  0
   -8.4479    3.4973   -9.2701 C   0  0  0  0  0  0  0  0  0  0  0  0
   -8.2382    3.6272  -10.5983 N   0  0  0  0  0  0  0  0  0  0  0  0
   -8.7666    2.2240   -8.5296 C   0  0  0  0  0  0  0  0  0  0  0  0
   -9.1530    2.6390   -7.1470 N   0  0  0  0  0  0  0  0  0  0  0  0
   -8.6305    4.0115   -6.9814 C   0  0  0  0  0  0  0  0  0  0  0  0
   -6.6915    2.7724  -13.0238 C   0  0  0  0  0  0  0  0  0  0  0  0
   -6.8888    1.6453  -13.2758 O   0  0  0  0  0  0  0  0  0  0  0  0
   -5.4181    3.4728  -12.4619 N   0  0  0  0  0  0  0  0  0  0  0  0
   -4.1071    2.9471  -12.1876 C   0  0  0  0  0  0  0  0  0  0  0  0
   -3.5025    2.1792  -13.3541 C   0  0  0  0  0  0  0  0  0  0  0  0
   -3.2107    3.0132  -14.3848 F   0  0  0  0  0  0  0  0  0  0  0  0
   -2.3132    1.6307  -12.9724 F   0  0  0  0  0  0  0  0  0  0  0  0
   -6.3684    4.8740  -15.1508 N   0  0  0  0  0  0  0  0  0  0  0  0
   -6.1016    5.0356  -16.4677 C   0  0  0  0  0  0  0  0  0  0  0  0
   -4.8308    5.4426  -16.9078 C   0  0  0  0  0  0  0  0  0  0  0  0
   -3.5909    5.8694  -15.7699 Cl  0  0  0  0  0  0  0  0  0  0  0  0
   -4.5006    5.5345  -18.2638 C   0  0  0  0  0  0  0  0  0  0  0  0
   -5.4495    5.2153  -19.2193 C   0  0  0  0  0  0  0  0  0  0  0  0
   -6.7268    4.8420  -18.8126 C   0  0  0  0  0  0  0  0  0  0  0  0
   -7.0854    4.7765  -17.4493 C   0  0  0  0  0  0  0  0  0  0  0  0
  1  2  1  0
  2  3  2  0
  3  4  1  0
  4  5  1  0
  5  6  1  1
  6  7  1  0
  7  8  2  0
  8  9  1  0
  9 10  2  0
 10 11  1  0
 11 12  2  0
 11 13  1  0
 13 14  1  0
 14 15  1  0
  5 16  1  0
 16 17  2  0
 16 18  1  0
 18 19  1  0
 19 20  1  0
 20 21  1  0
 20 22  1  0
  4 23  2  0
 23 24  1  0
 24 25  2  0
 25 26  1  0
 25 27  1  0
 27 28  2  0
 28 29  1  0
 29 30  2  0
 30  2  1  0
 12  7  1  0
 30 24  1  0
 15 10  1  0
M  END
>  <smiles>  (364) 
C89855-P87

>  <fragmenstein_outcome>  (364) 
acceptable

>  <inchikey>  (364) 
RUMHGUMDRHXREV-UHFFFAOYSA-N

>  <fragmenstein_mode>  (364) 
expansion

>  <HIPPO Pose ID>  (364) 
11090

>  <Energy>  (364) 
140.753869

>  <fragmenstein_error>  (364) 


>  <tags>  (364) 
{'openbind_xx01zvns2b_c1_fragmenstein', 'fragmenstein_placed'}

>  <ref_pdb>  (364) 
1

>  <scratch_subdir>  (364) 
/opt/xchem-fragalysis-2/maxwin/BulkDock/SCRATCH/511027/C89855-P87

>  <alias>  (364) 
Nc1cc([C@H](Nc2ccc3c(n2)CNC3)C(=O)NCC(F)F)nc2c(Cl)cccc12

>  <HIPPO Compound ID>  (364) 
95922

>  <fragmenstein_runtime>  (364) 
6.28322

$$$$
Nc1cc([C@@H](Nc2ccc3c(n2)CNC3)C(=O)NCC(F)F)nc2c(Cl)cccc12
     RDKit          3D

 30 33  0  0  0  0  0  0  0  0999 V2000
   -9.5977    4.2691  -17.6137 N   0  0  0  0  0  0  0  0  0  0  0  0
   -8.4397    4.5606  -16.8499 C   0  0  0  0  0  0  0  0  0  0  0  0
   -8.5013    4.3662  -15.4738 C   0  0  0  0  0  0  0  0  0  0  0  0
   -7.3789    4.6078  -14.6997 C   0  0  0  0  0  0  0  0  0  0  0  0
   -7.3225    4.3098  -13.2088 C   0  0  1  0  0  0  0  0  0  0  0  0
   -8.6537    4.2791  -12.5716 N   0  0  0  0  0  0  0  0  0  0  0  0
   -8.5287    4.3145  -11.1719 C   0  0  0  0  0  0  0  0  0  0  0  0
   -8.2399    5.5071  -10.4938 C   0  0  0  0  0  0  0  0  0  0  0  0
   -8.2470    5.5259   -9.0974 C   0  0  0  0  0  0  0  0  0  0  0  0
   -8.5444    4.3450   -8.4531 C   0  0  0  0  0  0  0  0  0  0  0  0
   -8.7626    3.2045   -9.2034 C   0  0  0  0  0  0  0  0  0  0  0  0
   -8.7616    3.1537  -10.5452 N   0  0  0  0  0  0  0  0  0  0  0  0
   -9.0372    2.0573   -8.2717 C   0  0  0  0  0  0  0  0  0  0  0  0
   -9.3550    2.6934   -6.9577 N   0  0  0  0  0  0  0  0  0  0  0  0
   -8.7168    4.0277   -7.0091 C   0  0  0  0  0  0  0  0  0  0  0  0
   -6.5845    2.9322  -13.0200 C   0  0  0  0  0  0  0  0  0  0  0  0
   -7.0666    1.9071  -13.3165 O   0  0  0  0  0  0  0  0  0  0  0  0
   -5.1766    3.2535  -12.4368 N   0  0  0  0  0  0  0  0  0  0  0  0
   -4.0499    2.3947  -12.1914 C   0  0  0  0  0  0  0  0  0  0  0  0
   -2.9219    2.6397  -13.1833 C   0  0  0  0  0  0  0  0  0  0  0  0
   -3.3674    2.6123  -14.4627 F   0  0  0  0  0  0  0  0  0  0  0  0
   -2.3845    3.8710  -12.9760 F   0  0  0  0  0  0  0  0  0  0  0  0
   -6.2195    5.0550  -15.2440 N   0  0  0  0  0  0  0  0  0  0  0  0
   -6.0856    5.1070  -16.5810 C   0  0  0  0  0  0  0  0  0  0  0  0
   -4.8437    5.4132  -17.1592 C   0  0  0  0  0  0  0  0  0  0  0  0
   -3.4699    5.7996  -16.1693 Cl  0  0  0  0  0  0  0  0  0  0  0  0
   -4.6457    5.4078  -18.5406 C   0  0  0  0  0  0  0  0  0  0  0  0
   -5.7015    5.0789  -19.3726 C   0  0  0  0  0  0  0  0  0  0  0  0
   -6.9484    4.7858  -18.8212 C   0  0  0  0  0  0  0  0  0  0  0  0
   -7.1757    4.8223  -17.4329 C   0  0  0  0  0  0  0  0  0  0  0  0
  1  2  1  0
  2  3  2  0
  3  4  1  0
  4  5  1  0
  5  6  1  6
  6  7  1  0
  7  8  2  0
  8  9  1  0
  9 10  2  0
 10 11  1  0
 11 12  2  0
 11 13  1  0
 13 14  1  0
 14 15  1  0
  5 16  1  0
 16 17  2  0
 16 18  1  0
 18 19  1  0
 19 20  1  0
 20 21  1  0
 20 22  1  0
  4 23  2  0
 23 24  1  0
 24 25  2  0
 25 26  1  0
 25 27  1  0
 27 28  2  0
 28 29  1  0
 29 30  2  0
 30  2  1  0
 12  7  1  0
 30 24  1  0
 15 10  1  0
M  END
>  <smiles>  (365) 
C89855-P241

>  <fragmenstein_outcome>  (365) 
acceptable

>  <inchikey>  (365) 
CGRYFNLBVWYRHS-UHFFFAOYSA-N

>  <fragmenstein_mode>  (365) 
expansion

>  <HIPPO Pose ID>  (365) 
11091

>  <Energy>  (365) 
146.954764

>  <fragmenstein_error>  (365) 


>  <tags>  (365) 
{'openbind_xx01zvns2b_c1_fragmenstein', 'fragmenstein_placed'}

>  <ref_pdb>  (365) 
1

>  <scratch_subdir>  (365) 
/opt/xchem-fragalysis-2/maxwin/BulkDock/SCRATCH/511027/C89855-P241

>  <alias>  (365) 
Nc1cc([C@@H](Nc2ccc3c(n2)CNC3)C(=O)NCC(F)F)nc2c(Cl)cccc12

>  <HIPPO Compound ID>  (365) 
89855

>  <fragmenstein_runtime>  (365) 
7.780448

$$$$
CC1=CC(C(=O)[C@H](C=O)c2ccncc2C)=C2CCCC3=C2N1CNC3
     RDKit          3D

 26 29  0  0  0  0  0  0  0  0999 V2000
   -8.5216    2.1818   -9.2224 C   0  0  0  0  0  0  0  0  0  0  0  0
   -8.3283    3.5376   -9.8497 C   0  0  0  0  0  0  0  0  0  0  0  0
   -8.4261    3.6564  -11.1890 C   0  0  0  0  0  0  0  0  0  0  0  0
   -8.3748    4.9662  -11.8031 C   0  0  0  0  0  0  0  0  0  0  0  0
   -8.4780    5.0862  -13.2899 C   0  0  0  0  0  0  0  0  0  0  0  0
   -9.5327    5.5055  -13.7734 O   0  0  0  0  0  0  0  0  0  0  0  0
   -7.1938    4.8333  -14.0960 C   0  0  2  0  0  0  0  0  0  0  0  0
   -6.2617    5.9662  -13.7301 C   0  0  0  0  0  0  0  0  0  0  0  0
   -5.2048    5.8342  -13.1192 O   0  0  0  0  0  0  0  0  0  0  0  0
   -7.3581    4.7043  -15.6239 C   0  0  0  0  0  0  0  0  0  0  0  0
   -8.5661    4.2158  -16.1546 C   0  0  0  0  0  0  0  0  0  0  0  0
   -8.7337    4.0752  -17.5231 C   0  0  0  0  0  0  0  0  0  0  0  0
   -7.7775    4.3630  -18.4137 N   0  0  0  0  0  0  0  0  0  0  0  0
   -6.6031    4.7859  -17.9165 C   0  0  0  0  0  0  0  0  0  0  0  0
   -6.3199    4.9501  -16.5554 C   0  0  0  0  0  0  0  0  0  0  0  0
   -4.9161    5.3584  -16.2088 C   0  0  0  0  0  0  0  0  0  0  0  0
   -8.2882    6.0896  -11.0525 C   0  0  0  0  0  0  0  0  0  0  0  0
   -8.2927    7.4971  -11.6083 C   0  0  0  0  0  0  0  0  0  0  0  0
   -8.9051    8.5032  -10.6426 C   0  0  0  0  0  0  0  0  0  0  0  0
   -8.1791    8.4597   -9.3047 C   0  0  0  0  0  0  0  0  0  0  0  0
   -8.0077    7.0518   -8.8021 C   0  0  0  0  0  0  0  0  0  0  0  0
   -8.1291    5.9619   -9.5927 C   0  0  0  0  0  0  0  0  0  0  0  0
   -8.1092    4.6703   -9.0414 N   0  0  0  0  0  0  0  0  0  0  0  0
   -8.0263    4.5966   -7.5802 C   0  0  0  0  0  0  0  0  0  0  0  0
   -7.2659    5.6309   -6.8729 N   0  0  0  0  0  0  0  0  0  0  0  0
   -7.7334    6.9367   -7.3250 C   0  0  0  0  0  0  0  0  0  0  0  0
  1  2  1  0
  2  3  2  0
  3  4  1  0
  4  5  1  0
  5  6  2  0
  5  7  1  0
  7  8  1  6
  8  9  2  0
  7 10  1  0
 10 11  2  0
 11 12  1  0
 12 13  2  0
 13 14  1  0
 14 15  2  0
 15 16  1  0
  4 17  2  0
 17 18  1  0
 18 19  1  0
 19 20  1  0
 20 21  1  0
 21 22  2  0
 22 23  1  0
 23 24  1  0
 24 25  1  0
 25 26  1  0
 23  2  1  0
 15 10  1  0
 22 17  1  0
 26 21  1  0
M  END
>  <smiles>  (366) 
C89979-P88

>  <fragmenstein_outcome>  (366) 
acceptable

>  <inchikey>  (366) 
QBZODJXDFFOSGE-UHFFFAOYSA-N

>  <fragmenstein_mode>  (366) 
expansion

>  <HIPPO Pose ID>  (366) 
11148

>  <Energy>  (366) 
18.524088

>  <fragmenstein_error>  (366) 


>  <tags>  (366) 
{'openbind_xx01zvns2b_c1_fragmenstein', 'fragmenstein_placed'}

>  <ref_pdb>  (366) 
1

>  <scratch_subdir>  (366) 
/opt/xchem-fragalysis-2/maxwin/BulkDock/SCRATCH/511027/C89979-P88

>  <alias>  (366) 
CC1=CC(C(=O)[C@H](C=O)c2ccncc2C)=C2CCCC3=C2N1CNC3

>  <HIPPO Compound ID>  (366) 
89979

>  <fragmenstein_runtime>  (366) 
4.675473

$$$$
Cc1cc(C(=O)[C@@H](C=O)c2ccc3c(c2)CNC3)c2cc(C(C)(C)S(C)(=O)=O)cc(C)c2n1
     RDKit          3D

 33 36  0  0  0  0  0  0  0  0999 V2000
   -9.3153    3.8233  -18.0600 C   0  0  0  0  0  0  0  0  0  0  0  0
   -8.1480    4.3082  -17.2614 C   0  0  0  0  0  0  0  0  0  0  0  0
   -8.2178    4.4553  -15.8915 C   0  0  0  0  0  0  0  0  0  0  0  0
   -7.1009    4.9783  -15.2450 C   0  0  0  0  0  0  0  0  0  0  0  0
   -7.2174    5.2537  -13.7939 C   0  0  0  0  0  0  0  0  0  0  0  0
   -7.3067    6.4348  -13.4701 O   0  0  0  0  0  0  0  0  0  0  0  0
   -7.1946    4.0670  -12.8404 C   0  0  1  0  0  0  0  0  0  0  0  0
   -5.7905    3.4995  -12.6668 C   0  0  0  0  0  0  0  0  0  0  0  0
   -4.7438    4.0668  -12.9708 O   0  0  0  0  0  0  0  0  0  0  0  0
   -7.7630    4.2883  -11.4388 C   0  0  0  0  0  0  0  0  0  0  0  0
   -7.6239    5.5074  -10.7376 C   0  0  0  0  0  0  0  0  0  0  0  0
   -7.9409    5.6131   -9.3805 C   0  0  0  0  0  0  0  0  0  0  0  0
   -8.3586    4.4776   -8.7192 C   0  0  0  0  0  0  0  0  0  0  0  0
   -8.5417    3.2814   -9.3980 C   0  0  0  0  0  0  0  0  0  0  0  0
   -8.2705    3.1695  -10.7501 C   0  0  0  0  0  0  0  0  0  0  0  0
   -9.0382    2.2462   -8.4488 C   0  0  0  0  0  0  0  0  0  0  0  0
   -8.8711    2.8281   -7.0907 N   0  0  0  0  0  0  0  0  0  0  0  0
   -8.6594    4.2817   -7.2743 C   0  0  0  0  0  0  0  0  0  0  0  0
   -5.9373    5.3456  -15.9632 C   0  0  0  0  0  0  0  0  0  0  0  0
   -4.7884    5.9441  -15.3823 C   0  0  0  0  0  0  0  0  0  0  0  0
   -3.6446    6.2793  -16.1226 C   0  0  0  0  0  0  0  0  0  0  0  0
   -2.4221    6.9607  -15.4797 C   0  0  0  0  0  0  0  0  0  0  0  0
   -2.4487    6.9637  -13.9366 C   0  0  0  0  0  0  0  0  0  0  0  0
   -1.1081    6.2833  -15.9168 C   0  0  0  0  0  0  0  0  0  0  0  0
   -2.4501    8.7178  -16.0849 S   0  0  0  0  0  0  0  0  0  0  0  0
   -1.1808    9.5569  -15.1639 C   0  0  0  0  0  0  0  0  0  0  0  0
   -3.7027    9.3467  -15.7030 O   0  0  0  0  0  0  0  0  0  0  0  0
   -2.0171    8.7552  -17.4722 O   0  0  0  0  0  0  0  0  0  0  0  0
   -3.6870    6.0011  -17.4942 C   0  0  0  0  0  0  0  0  0  0  0  0
   -4.8193    5.4223  -18.0978 C   0  0  0  0  0  0  0  0  0  0  0  0
   -4.8168    5.2377  -19.5953 C   0  0  0  0  0  0  0  0  0  0  0  0
   -5.9518    5.1054  -17.3449 C   0  0  0  0  0  0  0  0  0  0  0  0
   -7.0325    4.5985  -17.9589 N   0  0  0  0  0  0  0  0  0  0  0  0
  1  2  1  0
  2  3  2  0
  3  4  1  0
  4  5  1  0
  5  6  2  0
  5  7  1  0
  7  8  1  1
  8  9  2  0
  7 10  1  0
 10 11  2  0
 11 12  1  0
 12 13  2  0
 13 14  1  0
 14 15  2  0
 14 16  1  0
 16 17  1  0
 17 18  1  0
  4 19  2  0
 19 20  1  0
 20 21  2  0
 21 22  1  0
 22 23  1  0
 22 24  1  0
 22 25  1  0
 25 26  1  0
 25 27  2  0
 25 28  2  0
 21 29  1  0
 29 30  2  0
 30 31  1  0
 30 32  1  0
 32 33  2  0
 33  2  1  0
 15 10  1  0
 32 19  1  0
 18 13  1  0
M  END
>  <smiles>  (367) 
C90045-P88

>  <fragmenstein_outcome>  (367) 
acceptable

>  <inchikey>  (367) 
GIBJPHVNMADZBY-UHFFFAOYSA-N

>  <fragmenstein_mode>  (367) 
expansion

>  <HIPPO Pose ID>  (367) 
11185

>  <Energy>  (367) 
135.717364

>  <fragmenstein_error>  (367) 


>  <tags>  (367) 
{'openbind_xx01zvns2b_c1_fragmenstein', 'fragmenstein_placed'}

>  <ref_pdb>  (367) 
1

>  <scratch_subdir>  (367) 
/opt/xchem-fragalysis-2/maxwin/BulkDock/SCRATCH/511027/C90045-P88

>  <alias>  (367) 
Cc1cc(C(=O)[C@@H](C=O)c2ccc3c(c2)CNC3)c2cc(C(C)(C)S(C)(=O)=O)cc(C)c2n1

>  <HIPPO Compound ID>  (367) 
74431

>  <fragmenstein_runtime>  (367) 
8.622412

$$$$
CCCCO[C@H](Nc1ccc2c(c1)CNC2)[C@](N)(O)NCC(F)F
     RDKit          3D

 24 25  0  0  0  0  0  0  0  0999 V2000
   -2.3323    7.5367  -12.8206 C   0  0  0  0  0  0  0  0  0  0  0  0
   -3.1149    6.3674  -12.2447 C   0  0  0  0  0  0  0  0  0  0  0  0
   -4.1745    5.8681  -13.2234 C   0  0  0  0  0  0  0  0  0  0  0  0
   -4.9591    4.6918  -12.6468 C   0  0  0  0  0  0  0  0  0  0  0  0
   -5.8816    4.1806  -13.5997 O   0  0  0  0  0  0  0  0  0  0  0  0
   -7.1053    4.8978  -13.6824 C   0  0  2  0  0  0  0  0  0  0  0  0
   -8.1556    4.1219  -13.0096 N   0  0  0  0  0  0  0  0  0  0  0  0
   -8.2215    4.2034  -11.6074 C   0  0  0  0  0  0  0  0  0  0  0  0
   -8.2023    5.4296  -10.9106 C   0  0  0  0  0  0  0  0  0  0  0  0
   -8.3191    5.4796   -9.5144 C   0  0  0  0  0  0  0  0  0  0  0  0
   -8.5177    4.2942   -8.8319 C   0  0  0  0  0  0  0  0  0  0  0  0
   -8.5991    3.0873   -9.5129 C   0  0  0  0  0  0  0  0  0  0  0  0
   -8.4505    3.0238  -10.8857 C   0  0  0  0  0  0  0  0  0  0  0  0
   -8.8818    1.9849   -8.5498 C   0  0  0  0  0  0  0  0  0  0  0  0
   -9.2549    2.6643   -7.2800 N   0  0  0  0  0  0  0  0  0  0  0  0
   -8.7025    4.0345   -7.3739 C   0  0  0  0  0  0  0  0  0  0  0  0
   -7.5538    5.0837  -15.2364 C   0  0  2  0  0  0  0  0  0  0  0  0
   -6.4803    5.7145  -15.9447 N   0  0  0  0  0  0  0  0  0  0  0  0
   -8.6933    5.8972  -15.1949 O   0  0  0  0  0  0  0  0  0  0  0  0
   -7.9027    3.8756  -15.9478 N   0  0  0  0  0  0  0  0  0  0  0  0
   -8.6596    4.0053  -17.2174 C   0  0  0  0  0  0  0  0  0  0  0  0
   -7.9422    4.4731  -18.5012 C   0  0  0  0  0  0  0  0  0  0  0  0
   -7.2813    5.6398  -18.3071 F   0  0  0  0  0  0  0  0  0  0  0  0
   -7.0137    3.5608  -18.8779 F   0  0  0  0  0  0  0  0  0  0  0  0
  1  2  1  0
  2  3  1  0
  3  4  1  0
  4  5  1  0
  5  6  1  0
  6  7  1  1
  7  8  1  0
  8  9  2  0
  9 10  1  0
 10 11  2  0
 11 12  1  0
 12 13  2  0
 12 14  1  0
 14 15  1  0
 15 16  1  0
  6 17  1  0
 17 18  1  6
 17 19  1  0
 17 20  1  0
 20 21  1  0
 21 22  1  0
 22 23  1  0
 22 24  1  0
 13  8  1  0
 16 11  1  0
M  END
>  <smiles>  (368) 
C90078-P88

>  <fragmenstein_outcome>  (368) 
acceptable

>  <inchikey>  (368) 
ADNYAFAUKHWNKI-UHFFFAOYSA-O

>  <fragmenstein_mode>  (368) 
expansion

>  <HIPPO Pose ID>  (368) 
11219

>  <Energy>  (368) 
11.226268

>  <fragmenstein_error>  (368) 


>  <tags>  (368) 
{'openbind_xx01zvns2b_c1_fragmenstein', 'fragmenstein_placed'}

>  <ref_pdb>  (368) 
1

>  <scratch_subdir>  (368) 
/opt/xchem-fragalysis-2/maxwin/BulkDock/SCRATCH/511027/C90078-P88

>  <alias>  (368) 
CCCCO[C@H](Nc1ccc2c(c1)CNC2)[C@](N)(O)NCC(F)F

>  <HIPPO Compound ID>  (368) 
83186

>  <fragmenstein_runtime>  (368) 
4.730881

$$$$
CCOC(=O)c1c(C)c2c3c(cccc3c1N)C(N)=CN2
     RDKit          3D

 21 23  0  0  0  0  0  0  0  0999 V2000
   -2.1173    9.2236  -20.9639 C   0  0  0  0  0  0  0  0  0  0  0  0
   -2.2598    7.7192  -21.0840 C   0  0  0  0  0  0  0  0  0  0  0  0
   -3.1196    7.2672  -20.0341 O   0  0  0  0  0  0  0  0  0  0  0  0
   -3.3447    5.9270  -20.0407 C   0  0  0  0  0  0  0  0  0  0  0  0
   -2.8670    5.1120  -20.8173 O   0  0  0  0  0  0  0  0  0  0  0  0
   -4.2420    5.6241  -18.8979 C   0  0  0  0  0  0  0  0  0  0  0  0
   -3.7105    5.6154  -17.5964 C   0  0  0  0  0  0  0  0  0  0  0  0
   -2.2384    5.8315  -17.3632 C   0  0  0  0  0  0  0  0  0  0  0  0
   -4.6030    5.4696  -16.5168 C   0  0  0  0  0  0  0  0  0  0  0  0
   -5.9789    5.1727  -16.7267 C   0  0  0  0  0  0  0  0  0  0  0  0
   -6.8391    4.9252  -15.6124 C   0  0  0  0  0  0  0  0  0  0  0  0
   -8.1682    4.5379  -15.8336 C   0  0  0  0  0  0  0  0  0  0  0  0
   -8.6654    4.4403  -17.1245 C   0  0  0  0  0  0  0  0  0  0  0  0
   -7.8423    4.7390  -18.2096 C   0  0  0  0  0  0  0  0  0  0  0  0
   -6.4871    5.1142  -18.0487 C   0  0  0  0  0  0  0  0  0  0  0  0
   -5.6174    5.4047  -19.1398 C   0  0  0  0  0  0  0  0  0  0  0  0
   -6.1271    5.6167  -20.4356 N   0  0  0  0  0  0  0  0  0  0  0  0
   -6.2971    5.0673  -14.2246 C   0  0  0  0  0  0  0  0  0  0  0  0
   -7.1333    4.9438  -13.1352 N   0  0  0  0  0  0  0  0  0  0  0  0
   -4.9879    5.3506  -14.1287 C   0  0  0  0  0  0  0  0  0  0  0  0
   -4.1312    5.5088  -15.1856 N   0  0  0  0  0  0  0  0  0  0  0  0
  1  2  1  0
  2  3  1  0
  3  4  1  0
  4  5  2  0
  4  6  1  0
  6  7  2  0
  7  8  1  0
  7  9  1  0
  9 10  2  0
 10 11  1  0
 11 12  2  0
 12 13  1  0
 13 14  2  0
 14 15  1  0
 15 16  2  0
 16 17  1  0
 11 18  1  0
 18 19  1  0
 18 20  2  0
 20 21  1  0
 16  6  1  0
 21  9  1  0
 15 10  1  0
M  END
>  <smiles>  (369) 
C78538-P89

>  <fragmenstein_outcome>  (369) 
acceptable

>  <inchikey>  (369) 
FSAPLYDRDZPJGQ-UHFFFAOYSA-N

>  <fragmenstein_mode>  (369) 
expansion

>  <HIPPO Pose ID>  (369) 
11250

>  <Energy>  (369) 
92.472561

>  <fragmenstein_error>  (369) 


>  <tags>  (369) 
{'openbind_xx01zvns2b_c1_fragmenstein', 'fragmenstein_placed'}

>  <ref_pdb>  (369) 
1

>  <scratch_subdir>  (369) 
/opt/xchem-fragalysis-2/maxwin/BulkDock/SCRATCH/511027/C78538-P89

>  <alias>  (369) 
CCOC(=O)c1c(C)c2c3c(cccc3c1N)C(N)=CN2

>  <HIPPO Compound ID>  (369) 
79027

>  <fragmenstein_runtime>  (369) 
1.770886

$$$$
CCOC(=O)c1cc(N)c2c(C#N)cccc2c1N
     RDKit          3D

 19 20  0  0  0  0  0  0  0  0999 V2000
   -0.0813    6.0979  -20.8996 C   0  0  0  0  0  0  0  0  0  0  0  0
   -0.2655    5.8133  -19.4212 C   0  0  0  0  0  0  0  0  0  0  0  0
   -1.6641    5.5978  -19.1874 O   0  0  0  0  0  0  0  0  0  0  0  0
   -2.0759    5.7827  -17.9068 C   0  0  0  0  0  0  0  0  0  0  0  0
   -1.3605    6.1193  -16.9742 O   0  0  0  0  0  0  0  0  0  0  0  0
   -3.5440    5.5277  -17.7822 C   0  0  0  0  0  0  0  0  0  0  0  0
   -4.3211    5.4223  -18.9338 C   0  0  0  0  0  0  0  0  0  0  0  0
   -5.7031    5.1998  -18.8825 C   0  0  0  0  0  0  0  0  0  0  0  0
   -6.3493    5.3013  -20.1128 N   0  0  0  0  0  0  0  0  0  0  0  0
   -6.3592    5.0584  -17.6179 C   0  0  0  0  0  0  0  0  0  0  0  0
   -7.7355    4.7245  -17.4223 C   0  0  0  0  0  0  0  0  0  0  0  0
   -8.6209    4.3968  -18.4831 C   0  0  0  0  0  0  0  0  0  0  0  0
   -9.4107    4.1086  -19.2750 N   0  0  0  0  0  0  0  0  0  0  0  0
   -8.3227    4.6119  -16.1528 C   0  0  0  0  0  0  0  0  0  0  0  0
   -7.5580    4.7849  -15.0249 C   0  0  0  0  0  0  0  0  0  0  0  0
   -6.2048    5.0635  -15.1717 C   0  0  0  0  0  0  0  0  0  0  0  0
   -5.5724    5.2094  -16.4345 C   0  0  0  0  0  0  0  0  0  0  0  0
   -4.1701    5.4786  -16.5204 C   0  0  0  0  0  0  0  0  0  0  0  0
   -3.3839    5.5173  -15.3347 N   0  0  0  0  0  0  0  0  0  0  0  0
  1  2  1  0
  2  3  1  0
  3  4  1  0
  4  5  2  0
  4  6  1  0
  6  7  2  0
  7  8  1  0
  8  9  1  0
  8 10  2  0
 10 11  1  0
 11 12  1  0
 12 13  3  0
 11 14  2  0
 14 15  1  0
 15 16  2  0
 16 17  1  0
 17 18  2  0
 18 19  1  0
 18  6  1  0
 17 10  1  0
M  END
>  <smiles>  (370) 
C90228-P89

>  <fragmenstein_outcome>  (370) 
acceptable

>  <inchikey>  (370) 
BQUNIDDWQBTDAP-UHFFFAOYSA-N

>  <fragmenstein_mode>  (370) 
expansion

>  <HIPPO Pose ID>  (370) 
11265

>  <Energy>  (370) 
81.066057

>  <fragmenstein_error>  (370) 


>  <tags>  (370) 
{'openbind_xx01zvns2b_c1_fragmenstein', 'fragmenstein_placed'}

>  <ref_pdb>  (370) 
1

>  <scratch_subdir>  (370) 
/opt/xchem-fragalysis-2/maxwin/BulkDock/SCRATCH/511027/C90228-P89

>  <alias>  (370) 
CCOC(=O)c1cc(N)c2c(C#N)cccc2c1N

>  <HIPPO Compound ID>  (370) 
106013

>  <fragmenstein_runtime>  (370) 
1.340195

$$$$
CCOC(=O)[C@H]1CN2CCCc3c(N)ccc(c32)[C@H]1N
     RDKit          3D

 20 22  0  0  0  0  0  0  0  0999 V2000
   -3.4518   10.4698  -17.5157 C   0  0  0  0  0  0  0  0  0  0  0  0
   -4.5658    9.7145  -18.2134 C   0  0  0  0  0  0  0  0  0  0  0  0
   -4.1957    8.3331  -18.2762 O   0  0  0  0  0  0  0  0  0  0  0  0
   -5.1540    7.5085  -18.8039 C   0  0  0  0  0  0  0  0  0  0  0  0
   -6.1961    7.9307  -19.2903 O   0  0  0  0  0  0  0  0  0  0  0  0
   -4.6777    6.0648  -18.7830 C   0  0  1  0  0  0  0  0  0  0  0  0
   -3.9418    5.7188  -17.4895 C   0  0  0  0  0  0  0  0  0  0  0  0
   -4.8233    5.7387  -16.3220 N   0  0  0  0  0  0  0  0  0  0  0  0
   -4.1921    5.5191  -15.0291 C   0  0  0  0  0  0  0  0  0  0  0  0
   -5.0747    6.1142  -13.9479 C   0  0  0  0  0  0  0  0  0  0  0  0
   -6.4073    5.3813  -13.9228 C   0  0  0  0  0  0  0  0  0  0  0  0
   -6.9716    5.1093  -15.2999 C   0  0  0  0  0  0  0  0  0  0  0  0
   -8.2864    4.6072  -15.4295 C   0  0  0  0  0  0  0  0  0  0  0  0
   -9.1453    4.4528  -14.3115 N   0  0  0  0  0  0  0  0  0  0  0  0
   -8.8114    4.3968  -16.7041 C   0  0  0  0  0  0  0  0  0  0  0  0
   -8.0118    4.5444  -17.8317 C   0  0  0  0  0  0  0  0  0  0  0  0
   -6.6798    4.9679  -17.7154 C   0  0  0  0  0  0  0  0  0  0  0  0
   -6.1422    5.2611  -16.4441 C   0  0  0  0  0  0  0  0  0  0  0  0
   -5.7683    5.0087  -18.9196 C   0  0  1  0  0  0  0  0  0  0  0  0
   -6.4461    4.9616  -20.1959 N   0  0  0  0  0  0  0  0  0  0  0  0
  1  2  1  0
  2  3  1  0
  3  4  1  0
  4  5  2  0
  6  4  1  1
  6  7  1  0
  7  8  1  0
  8  9  1  0
  9 10  1  0
 10 11  1  0
 11 12  1  0
 12 13  1  0
 13 14  1  0
 13 15  2  0
 15 16  1  0
 16 17  2  0
 17 18  1  0
 17 19  1  0
 19 20  1  6
 19  6  1  0
 18  8  1  0
 18 12  2  0
M  END
>  <smiles>  (371) 
C90231-P89

>  <fragmenstein_outcome>  (371) 
acceptable

>  <inchikey>  (371) 
BDXJMSSZJQPANG-UHFFFAOYSA-N

>  <fragmenstein_mode>  (371) 
expansion

>  <HIPPO Pose ID>  (371) 
11266

>  <Energy>  (371) 
-7.383429

>  <fragmenstein_error>  (371) 


>  <tags>  (371) 
{'openbind_xx01zvns2b_c1_fragmenstein', 'fragmenstein_placed'}

>  <ref_pdb>  (371) 
1

>  <scratch_subdir>  (371) 
/opt/xchem-fragalysis-2/maxwin/BulkDock/SCRATCH/511027/C90231-P89

>  <alias>  (371) 
CCOC(=O)[C@H]1CN2CCCc3c(N)ccc(c32)[C@H]1N

>  <HIPPO Compound ID>  (371) 
86860

>  <fragmenstein_runtime>  (371) 
1.934238

$$$$
CCOC(=O)c1cnc2c(C#N)cc(F)c3c2c1C[C@H](Nc1cc2c(c(C4=CCS(=O)(=O)CC4)c1)CNC2)C3
     RDKit          3D

 39 44  0  0  0  0  0  0  0  0999 V2000
   -3.7906    4.7887  -10.4575 C   0  0  0  0  0  0  0  0  0  0  0  0
   -3.4197    5.9837  -11.3170 C   0  0  0  0  0  0  0  0  0  0  0  0
   -4.1049    5.9247  -12.5768 O   0  0  0  0  0  0  0  0  0  0  0  0
   -3.5218    5.1555  -13.5234 C   0  0  0  0  0  0  0  0  0  0  0  0
   -2.4592    4.5632  -13.4471 O   0  0  0  0  0  0  0  0  0  0  0  0
   -4.3249    5.2073  -14.7537 C   0  0  0  0  0  0  0  0  0  0  0  0
   -3.6415    5.5308  -15.9101 C   0  0  0  0  0  0  0  0  0  0  0  0
   -4.2134    5.5763  -17.1316 N   0  0  0  0  0  0  0  0  0  0  0  0
   -5.5203    5.2725  -17.2496 C   0  0  0  0  0  0  0  0  0  0  0  0
   -6.1273    5.2281  -18.5032 C   0  0  0  0  0  0  0  0  0  0  0  0
   -5.3639    5.6758  -19.6240 C   0  0  0  0  0  0  0  0  0  0  0  0
   -4.7075    6.1455  -20.4583 N   0  0  0  0  0  0  0  0  0  0  0  0
   -7.4497    4.8111  -18.6660 C   0  0  0  0  0  0  0  0  0  0  0  0
   -8.2183    4.5523  -17.5519 C   0  0  0  0  0  0  0  0  0  0  0  0
   -9.5020    4.1933  -17.6963 F   0  0  0  0  0  0  0  0  0  0  0  0
   -7.6754    4.6828  -16.2786 C   0  0  0  0  0  0  0  0  0  0  0  0
   -6.3072    4.9655  -16.1221 C   0  0  0  0  0  0  0  0  0  0  0  0
   -5.6904    4.9102  -14.8518 C   0  0  0  0  0  0  0  0  0  0  0  0
   -6.4898    4.3605  -13.6917 C   0  0  0  0  0  0  0  0  0  0  0  0
   -7.9514    4.8097  -13.7445 C   0  0  2  0  0  0  0  0  0  0  0  0
   -8.7624    4.1389  -12.7329 N   0  0  0  0  0  0  0  0  0  0  0  0
   -8.5175    4.2463  -11.3668 C   0  0  0  0  0  0  0  0  0  0  0  0
   -8.8304    3.1430  -10.5661 C   0  0  0  0  0  0  0  0  0  0  0  0
   -8.6961    3.2167   -9.1944 C   0  0  0  0  0  0  0  0  0  0  0  0
   -8.2932    4.3935   -8.5795 C   0  0  0  0  0  0  0  0  0  0  0  0
   -7.9670    5.5130   -9.3347 C   0  0  0  0  0  0  0  0  0  0  0  0
   -7.5389    6.7780   -8.7153 C   0  0  0  0  0  0  0  0  0  0  0  0
   -8.3987    7.8136   -8.6922 C   0  0  0  0  0  0  0  0  0  0  0  0
   -8.1562    9.1910   -8.1413 C   0  0  0  0  0  0  0  0  0  0  0  0
   -6.4337    9.4692   -7.7677 S   0  0  0  0  0  0  0  0  0  0  0  0
   -5.7049    9.7013   -9.0027 O   0  0  0  0  0  0  0  0  0  0  0  0
   -6.3493   10.4313   -6.6831 O   0  0  0  0  0  0  0  0  0  0  0  0
   -5.9285    7.8975   -7.1199 C   0  0  0  0  0  0  0  0  0  0  0  0
   -6.1435    6.8029   -8.1478 C   0  0  0  0  0  0  0  0  0  0  0  0
   -8.0851    5.4246  -10.7380 C   0  0  0  0  0  0  0  0  0  0  0  0
   -8.3154    4.1768   -7.1023 C   0  0  0  0  0  0  0  0  0  0  0  0
   -9.0417    2.9048   -6.8880 N   0  0  0  0  0  0  0  0  0  0  0  0
   -8.9275    2.1605   -8.1674 C   0  0  0  0  0  0  0  0  0  0  0  0
   -8.5704    4.4553  -15.1052 C   0  0  0  0  0  0  0  0  0  0  0  0
  1  2  1  0
  2  3  1  0
  3  4  1  0
  4  5  2  0
  4  6  1  0
  6  7  2  0
  7  8  1  0
  8  9  2  0
  9 10  1  0
 10 11  1  0
 11 12  3  0
 10 13  2  0
 13 14  1  0
 14 15  1  0
 14 16  2  0
 16 17  1  0
 17 18  2  0
 18 19  1  0
 19 20  1  0
 20 21  1  1
 21 22  1  0
 22 23  2  0
 23 24  1  0
 24 25  2  0
 25 26  1  0
 26 27  1  0
 27 28  2  0
 28 29  1  0
 29 30  1  0
 30 31  2  0
 30 32  2  0
 30 33  1  0
 33 34  1  0
 26 35  2  0
 25 36  1  0
 36 37  1  0
 37 38  1  0
 20 39  1  0
 18  6  1  0
 35 22  1  0
 17  9  1  0
 38 24  1  0
 39 16  1  0
 34 27  1  0
M  END
>  <smiles>  (372) 
C90307-P89

>  <fragmenstein_outcome>  (372) 
acceptable

>  <inchikey>  (372) 
LQEHWZPIDXWLPQ-UHFFFAOYSA-N

>  <fragmenstein_mode>  (372) 
expansion

>  <HIPPO Pose ID>  (372) 
11297

>  <Energy>  (372) 
111.177225

>  <fragmenstein_error>  (372) 


>  <tags>  (372) 
{'openbind_xx01zvns2b_c1_fragmenstein', 'fragmenstein_placed'}

>  <ref_pdb>  (372) 
1

>  <scratch_subdir>  (372) 
/opt/xchem-fragalysis-2/maxwin/BulkDock/SCRATCH/511027/C90307-P89

>  <alias>  (372) 
CCOC(=O)c1cnc2c(C#N)cc(F)c3c2c1C[C@H](Nc1cc2c(c(C4=CCS(=O)(=O)CC4)c1)CNC2)C3

>  <HIPPO Compound ID>  (372) 
90307

>  <fragmenstein_runtime>  (372) 
14.682008

$$$$
CCOC(=O)C1=CN(CNC)c2c(C#N)cc(Cl)c3c(N)[nH]c1c23
     RDKit          3D

 24 26  0  0  0  0  0  0  0  0999 V2000
   -3.6882    7.5313  -22.7417 C   0  0  0  0  0  0  0  0  0  0  0  0
   -2.7701    7.1215  -21.6063 C   0  0  0  0  0  0  0  0  0  0  0  0
   -3.5584    6.4672  -20.6051 O   0  0  0  0  0  0  0  0  0  0  0  0
   -2.9098    6.2612  -19.4280 C   0  0  0  0  0  0  0  0  0  0  0  0
   -1.7216    6.4819  -19.2376 O   0  0  0  0  0  0  0  0  0  0  0  0
   -3.8510    5.8190  -18.3742 C   0  0  0  0  0  0  0  0  0  0  0  0
   -3.4956    5.9531  -17.0721 C   0  0  0  0  0  0  0  0  0  0  0  0
   -4.3279    5.6960  -15.9468 N   0  0  0  0  0  0  0  0  0  0  0  0
   -3.7598    5.5904  -14.5997 C   0  0  0  0  0  0  0  0  0  0  0  0
   -3.4928    4.2559  -14.0727 N   0  0  0  0  0  0  0  0  0  0  0  0
   -2.8738    4.3065  -12.7605 C   0  0  0  0  0  0  0  0  0  0  0  0
   -5.6347    5.2590  -16.1921 C   0  0  0  0  0  0  0  0  0  0  0  0
   -6.7426    4.9123  -15.3613 C   0  0  0  0  0  0  0  0  0  0  0  0
   -6.6815    4.9587  -13.9308 C   0  0  0  0  0  0  0  0  0  0  0  0
   -6.7442    5.0028  -12.7723 N   0  0  0  0  0  0  0  0  0  0  0  0
   -8.0526    4.4931  -15.8633 C   0  0  0  0  0  0  0  0  0  0  0  0
   -8.3504    4.3169  -17.2220 C   0  0  0  0  0  0  0  0  0  0  0  0
   -9.8544    3.9222  -17.8586 Cl  0  0  0  0  0  0  0  0  0  0  0  0
   -7.2544    4.5938  -18.0215 C   0  0  0  0  0  0  0  0  0  0  0  0
   -7.0236    4.3906  -19.3579 C   0  0  0  0  0  0  0  0  0  0  0  0
   -7.7433    3.7976  -20.3328 N   0  0  0  0  0  0  0  0  0  0  0  0
   -5.7917    4.9275  -19.6866 N   0  0  0  0  0  0  0  0  0  0  0  0
   -5.1649    5.3229  -18.5346 C   0  0  0  0  0  0  0  0  0  0  0  0
   -6.0390    5.0666  -17.5101 C   0  0  0  0  0  0  0  0  0  0  0  0
  1  2  1  0
  2  3  1  0
  3  4  1  0
  4  5  2  0
  4  6  1  0
  6  7  2  0
  7  8  1  0
  8  9  1  0
  9 10  1  0
 10 11  1  0
  8 12  1  0
 12 13  2  0
 13 14  1  0
 14 15  3  0
 13 16  1  0
 16 17  2  0
 17 18  1  0
 17 19  1  0
 19 20  2  0
 20 21  1  0
 20 22  1  0
 22 23  1  0
 23 24  2  0
 23  6  1  0
 24 12  1  0
 24 19  1  0
M  END
>  <smiles>  (373) 
C90378-P89

>  <fragmenstein_outcome>  (373) 
acceptable

>  <inchikey>  (373) 
HNHAEXAYNIGAMS-UHFFFAOYSA-N

>  <fragmenstein_mode>  (373) 
expansion

>  <HIPPO Pose ID>  (373) 
11331

>  <Energy>  (373) 
78.481241

>  <fragmenstein_error>  (373) 


>  <tags>  (373) 
{'openbind_xx01zvns2b_c1_fragmenstein', 'fragmenstein_placed'}

>  <ref_pdb>  (373) 
1

>  <scratch_subdir>  (373) 
/opt/xchem-fragalysis-2/maxwin/BulkDock/SCRATCH/511027/C90378-P89

>  <alias>  (373) 
CCOC(=O)C1=CN(CNC)c2c(C#N)cc(Cl)c3c(N)[nH]c1c23

>  <HIPPO Compound ID>  (373) 
97281

>  <fragmenstein_runtime>  (373) 
2.045117

$$$$
C=Cc1cccc2c(N)nc(-c3ccccn3)nc12
     RDKit          3D

 19 21  0  0  0  0  0  0  0  0999 V2000
   -2.9921    6.8406  -16.9553 C   0  0  0  0  0  0  0  0  0  0  0  0
   -3.9124    5.9115  -16.6630 C   0  0  0  0  0  0  0  0  0  0  0  0
   -4.9749    5.4313  -17.5773 C   0  0  0  0  0  0  0  0  0  0  0  0
   -4.7304    5.3592  -18.9570 C   0  0  0  0  0  0  0  0  0  0  0  0
   -5.6980    4.8551  -19.8125 C   0  0  0  0  0  0  0  0  0  0  0  0
   -6.9122    4.4200  -19.2975 C   0  0  0  0  0  0  0  0  0  0  0  0
   -7.1917    4.5223  -17.9259 C   0  0  0  0  0  0  0  0  0  0  0  0
   -8.4273    4.1916  -17.3602 C   0  0  0  0  0  0  0  0  0  0  0  0
   -9.5279    3.8162  -18.1389 N   0  0  0  0  0  0  0  0  0  0  0  0
   -8.6495    4.2202  -16.0467 N   0  0  0  0  0  0  0  0  0  0  0  0
   -7.6148    4.5852  -15.2765 C   0  0  0  0  0  0  0  0  0  0  0  0
   -7.8204    4.6566  -13.8291 C   0  0  0  0  0  0  0  0  0  0  0  0
   -7.9923    5.8910  -13.2061 C   0  0  0  0  0  0  0  0  0  0  0  0
   -8.1982    5.9271  -11.8338 C   0  0  0  0  0  0  0  0  0  0  0  0
   -8.2274    4.7347  -11.1184 C   0  0  0  0  0  0  0  0  0  0  0  0
   -8.0330    3.5503  -11.8063 C   0  0  0  0  0  0  0  0  0  0  0  0
   -7.7988    3.4911  -13.1319 N   0  0  0  0  0  0  0  0  0  0  0  0
   -6.4322    5.0439  -15.7288 N   0  0  0  0  0  0  0  0  0  0  0  0
   -6.2077    4.9947  -17.0477 C   0  0  0  0  0  0  0  0  0  0  0  0
  1  2  2  0
  2  3  1  0
  3  4  2  0
  4  5  1  0
  5  6  2  0
  6  7  1  0
  7  8  2  0
  8  9  1  0
  8 10  1  0
 10 11  2  0
 11 12  1  0
 12 13  2  0
 13 14  1  0
 14 15  2  0
 15 16  1  0
 16 17  2  0
 11 18  1  0
 18 19  2  0
 19  3  1  0
 19  7  1  0
 17 12  1  0
M  END
>  <smiles>  (374) 
C90466-P90

>  <fragmenstein_outcome>  (374) 
acceptable

>  <inchikey>  (374) 
PLPDUQPVUSWQAD-UHFFFAOYSA-N

>  <fragmenstein_mode>  (374) 
expansion

>  <HIPPO Pose ID>  (374) 
11372

>  <Energy>  (374) 
58.132967

>  <fragmenstein_error>  (374) 


>  <tags>  (374) 
{'openbind_xx01zvns2b_c1_fragmenstein', 'fragmenstein_placed'}

>  <ref_pdb>  (374) 
1

>  <scratch_subdir>  (374) 
/opt/xchem-fragalysis-2/maxwin/BulkDock/SCRATCH/511027/C90466-P90

>  <alias>  (374) 
C=Cc1cccc2c(N)nc(-c3ccccn3)nc12

>  <HIPPO Compound ID>  (374) 
73073

>  <fragmenstein_runtime>  (374) 
1.643189

$$$$
CCC[C@H](N[C@H](N)c1ccccc1)c1ccccn1
     RDKit          3D

 19 20  0  0  0  0  0  0  0  0999 V2000
   -9.6935    2.3391   -6.3065 C   0  0  0  0  0  0  0  0  0  0  0  0
   -8.9439    1.8904   -7.5514 C   0  0  0  0  0  0  0  0  0  0  0  0
   -8.8170    2.9762   -8.6179 C   0  0  0  0  0  0  0  0  0  0  0  0
   -7.6484    3.9881   -8.5181 C   0  0  2  0  0  0  0  0  0  0  0  0
   -7.4447    4.5010   -7.1322 N   0  0  0  0  0  0  0  0  0  0  0  0
   -6.1912    5.2069   -6.9536 C   0  0  2  0  0  0  0  0  0  0  0  0
   -5.8842    4.9292   -5.5462 N   0  0  0  0  0  0  0  0  0  0  0  0
   -6.2223    6.7128   -7.1441 C   0  0  0  0  0  0  0  0  0  0  0  0
   -7.2924    7.4976   -6.6843 C   0  0  0  0  0  0  0  0  0  0  0  0
   -7.2789    8.8864   -6.8273 C   0  0  0  0  0  0  0  0  0  0  0  0
   -6.1840    9.5157   -7.4145 C   0  0  0  0  0  0  0  0  0  0  0  0
   -5.1060    8.7562   -7.8650 C   0  0  0  0  0  0  0  0  0  0  0  0
   -5.1238    7.3656   -7.7293 C   0  0  0  0  0  0  0  0  0  0  0  0
   -7.8911    5.0498   -9.6047 C   0  0  0  0  0  0  0  0  0  0  0  0
   -7.6334    4.7345  -10.9408 C   0  0  0  0  0  0  0  0  0  0  0  0
   -7.8611    5.6929  -11.9261 C   0  0  0  0  0  0  0  0  0  0  0  0
   -8.3245    6.9490  -11.5589 C   0  0  0  0  0  0  0  0  0  0  0  0
   -8.5814    7.1786  -10.2195 C   0  0  0  0  0  0  0  0  0  0  0  0
   -8.4075    6.2521   -9.2554 N   0  0  0  0  0  0  0  0  0  0  0  0
  1  2  1  0
  2  3  1  0
  4  3  1  1
  4  5  1  0
  5  6  1  0
  6  7  1  1
  6  8  1  0
  8  9  2  0
  9 10  1  0
 10 11  2  0
 11 12  1  0
 12 13  2  0
  4 14  1  0
 14 15  2  0
 15 16  1  0
 16 17  2  0
 17 18  1  0
 18 19  2  0
 13  8  1  0
 19 14  1  0
M  END
>  <smiles>  (375) 
C90522-P90

>  <fragmenstein_outcome>  (375) 
acceptable

>  <inchikey>  (375) 
GGOQCVICQCYAAU-UHFFFAOYSA-N

>  <fragmenstein_mode>  (375) 
expansion

>  <HIPPO Pose ID>  (375) 
11392

>  <Energy>  (375) 
-13.892261

>  <fragmenstein_error>  (375) 


>  <tags>  (375) 
{'openbind_xx01zvns2b_c1_fragmenstein', 'fragmenstein_placed'}

>  <ref_pdb>  (375) 
1

>  <scratch_subdir>  (375) 
/opt/xchem-fragalysis-2/maxwin/BulkDock/SCRATCH/511027/C90522-P90

>  <alias>  (375) 
CCC[C@H](N[C@H](N)c1ccccc1)c1ccccn1

>  <HIPPO Compound ID>  (375) 
77605

>  <fragmenstein_runtime>  (375) 
20.144849

$$$$
Nc1cnc(-c2nc(N)c3cc(O)ccc3n2)c(NC=O)c1
     RDKit          3D

 22 24  0  0  0  0  0  0  0  0999 V2000
   -8.2085    4.6012   -9.5154 N   0  0  0  0  0  0  0  0  0  0  0  0
   -7.9627    4.6648  -10.8938 C   0  0  0  0  0  0  0  0  0  0  0  0
   -8.6120    3.8355  -11.7981 C   0  0  0  0  0  0  0  0  0  0  0  0
   -8.4761    3.9114  -13.1406 N   0  0  0  0  0  0  0  0  0  0  0  0
   -7.6645    4.8609  -13.6589 C   0  0  0  0  0  0  0  0  0  0  0  0
   -7.4508    4.8063  -15.1298 C   0  0  0  0  0  0  0  0  0  0  0  0
   -8.4205    4.3658  -15.9521 N   0  0  0  0  0  0  0  0  0  0  0  0
   -8.1396    4.3099  -17.2651 C   0  0  0  0  0  0  0  0  0  0  0  0
   -9.1978    3.9137  -18.0853 N   0  0  0  0  0  0  0  0  0  0  0  0
   -6.9048    4.7140  -17.7985 C   0  0  0  0  0  0  0  0  0  0  0  0
   -6.5270    4.7220  -19.1662 C   0  0  0  0  0  0  0  0  0  0  0  0
   -5.2944    5.2472  -19.5396 C   0  0  0  0  0  0  0  0  0  0  0  0
   -4.8772    5.3877  -20.8211 O   0  0  0  0  0  0  0  0  0  0  0  0
   -4.4017    5.7001  -18.5870 C   0  0  0  0  0  0  0  0  0  0  0  0
   -4.7561    5.6545  -17.2485 C   0  0  0  0  0  0  0  0  0  0  0  0
   -5.9950    5.1888  -16.8511 C   0  0  0  0  0  0  0  0  0  0  0  0
   -6.2510    5.2531  -15.5537 N   0  0  0  0  0  0  0  0  0  0  0  0
   -7.0193    5.7952  -12.8160 C   0  0  0  0  0  0  0  0  0  0  0  0
   -6.1800    6.7850  -13.3459 N   0  0  0  0  0  0  0  0  0  0  0  0
   -5.4208    7.9370  -12.6478 C   0  0  0  0  0  0  0  0  0  0  0  0
   -5.4364    8.2878  -11.5371 O   0  0  0  0  0  0  0  0  0  0  0  0
   -7.2104    5.7032  -11.4330 C   0  0  0  0  0  0  0  0  0  0  0  0
  1  2  1  0
  2  3  2  0
  3  4  1  0
  4  5  2  0
  5  6  1  0
  6  7  2  0
  7  8  1  0
  8  9  1  0
  8 10  2  0
 10 11  1  0
 11 12  2  0
 12 13  1  0
 12 14  1  0
 14 15  2  0
 15 16  1  0
 16 17  2  0
  5 18  1  0
 18 19  1  0
 19 20  1  0
 20 21  2  0
 18 22  2  0
 22  2  1  0
 17  6  1  0
 16 10  1  0
M  END
>  <smiles>  (376) 
C90525-P90

>  <fragmenstein_outcome>  (376) 
acceptable

>  <inchikey>  (376) 
UAYJSSVPBNDWJV-UHFFFAOYSA-N

>  <fragmenstein_mode>  (376) 
expansion

>  <HIPPO Pose ID>  (376) 
11393

>  <Energy>  (376) 
47.655054

>  <fragmenstein_error>  (376) 


>  <tags>  (376) 
{'openbind_xx01zvns2b_c1_fragmenstein', 'fragmenstein_placed'}

>  <ref_pdb>  (376) 
1

>  <scratch_subdir>  (376) 
/opt/xchem-fragalysis-2/maxwin/BulkDock/SCRATCH/511027/C90525-P90

>  <alias>  (376) 
Nc1cnc(-c2nc(N)c3cc(O)ccc3n2)c(NC=O)c1

>  <HIPPO Compound ID>  (376) 
92834

>  <fragmenstein_runtime>  (376) 
2.200238

$$$$
CC[C@@H](CN)NCCc1cc(N)c2ccccc2c1C
     RDKit          3D

 20 21  0  0  0  0  0  0  0  0999 V2000
   -8.6129    3.0995   -7.9815 C   0  0  0  0  0  0  0  0  0  0  0  0
   -8.3926    2.8409   -9.4594 C   0  0  0  0  0  0  0  0  0  0  0  0
   -8.3867    4.0913  -10.3575 C   0  0  1  0  0  0  0  0  0  0  0  0
   -7.3717    5.1652   -9.9089 C   0  0  0  0  0  0  0  0  0  0  0  0
   -7.8411    6.5347  -10.1825 N   0  0  0  0  0  0  0  0  0  0  0  0
   -8.1532    3.5869  -11.7068 N   0  0  0  0  0  0  0  0  0  0  0  0
   -8.1158    4.5138  -12.8230 C   0  0  0  0  0  0  0  0  0  0  0  0
   -7.5141    3.6854  -13.9467 C   0  0  0  0  0  0  0  0  0  0  0  0
   -7.3990    4.3249  -15.3012 C   0  0  0  0  0  0  0  0  0  0  0  0
   -8.4328    4.0772  -16.2125 C   0  0  0  0  0  0  0  0  0  0  0  0
   -8.2257    4.1790  -17.5828 C   0  0  0  0  0  0  0  0  0  0  0  0
   -9.3257    3.9762  -18.4292 N   0  0  0  0  0  0  0  0  0  0  0  0
   -6.9720    4.6529  -18.0385 C   0  0  0  0  0  0  0  0  0  0  0  0
   -6.6314    4.6488  -19.3999 C   0  0  0  0  0  0  0  0  0  0  0  0
   -5.4308    5.1692  -19.8777 C   0  0  0  0  0  0  0  0  0  0  0  0
   -4.5023    5.6715  -18.9902 C   0  0  0  0  0  0  0  0  0  0  0  0
   -4.7717    5.6209  -17.6262 C   0  0  0  0  0  0  0  0  0  0  0  0
   -5.9860    5.0999  -17.1171 C   0  0  0  0  0  0  0  0  0  0  0  0
   -6.2134    4.9493  -15.7276 C   0  0  0  0  0  0  0  0  0  0  0  0
   -5.1400    5.3247  -14.7319 C   0  0  0  0  0  0  0  0  0  0  0  0
  1  2  1  0
  3  2  1  1
  3  4  1  0
  4  5  1  0
  3  6  1  0
  6  7  1  0
  7  8  1  0
  8  9  1  0
  9 10  2  0
 10 11  1  0
 11 12  1  0
 11 13  2  0
 13 14  1  0
 14 15  2  0
 15 16  1  0
 16 17  2  0
 17 18  1  0
 18 19  2  0
 19 20  1  0
 19  9  1  0
 18 13  1  0
M  END
>  <smiles>  (377) 
C90532-P90

>  <fragmenstein_outcome>  (377) 
acceptable

>  <inchikey>  (377) 
XECWUAZNGGJZFS-UHFFFAOYSA-N

>  <fragmenstein_mode>  (377) 
expansion

>  <HIPPO Pose ID>  (377) 
11397

>  <Energy>  (377) 
95.125293

>  <fragmenstein_error>  (377) 


>  <tags>  (377) 
{'openbind_xx01zvns2b_c1_fragmenstein', 'fragmenstein_placed'}

>  <ref_pdb>  (377) 
1

>  <scratch_subdir>  (377) 
/opt/xchem-fragalysis-2/maxwin/BulkDock/SCRATCH/511027/C90532-P90

>  <alias>  (377) 
CC[C@@H](CN)NCCc1cc(N)c2ccccc2c1C

>  <HIPPO Compound ID>  (377) 
90532

>  <fragmenstein_runtime>  (377) 
3.021152

$$$$
O=C(C(=O)[C@@H]1CCN[C@]2(CCNC2)C1)c1cccc2cccnc12
     RDKit          3D

 24 27  0  0  0  0  0  0  0  0999 V2000
   -5.6574    4.4298  -20.5635 O   0  0  0  0  0  0  0  0  0  0  0  0
   -4.7736    5.0214  -19.9612 C   0  0  0  0  0  0  0  0  0  0  0  0
   -3.5713    5.4304  -20.7846 C   0  0  0  0  0  0  0  0  0  0  0  0
   -2.6741    4.6028  -20.9494 O   0  0  0  0  0  0  0  0  0  0  0  0
   -3.4965    6.8336  -21.3490 C   0  0  2  0  0  0  0  0  0  0  0  0
   -3.1053    7.8955  -20.3135 C   0  0  0  0  0  0  0  0  0  0  0  0
   -3.6183    9.2905  -20.6881 C   0  0  0  0  0  0  0  0  0  0  0  0
   -3.5600    9.4984  -22.1261 N   0  0  0  0  0  0  0  0  0  0  0  0
   -4.4223    8.5829  -22.8984 C   0  0  1  0  0  0  0  0  0  0  0  0
   -5.7066    9.2627  -23.3756 C   0  0  0  0  0  0  0  0  0  0  0  0
   -6.1278    8.4236  -24.5734 C   0  0  0  0  0  0  0  0  0  0  0  0
   -4.8931    7.9149  -25.1839 N   0  0  0  0  0  0  0  0  0  0  0  0
   -3.7883    8.2595  -24.2720 C   0  0  0  0  0  0  0  0  0  0  0  0
   -4.7462    7.2850  -22.1025 C   0  0  0  0  0  0  0  0  0  0  0  0
   -4.7427    5.1880  -18.4783 C   0  0  0  0  0  0  0  0  0  0  0  0
   -3.5034    5.3520  -17.8305 C   0  0  0  0  0  0  0  0  0  0  0  0
   -3.4369    5.4123  -16.4429 C   0  0  0  0  0  0  0  0  0  0  0  0
   -4.5982    5.2669  -15.6940 C   0  0  0  0  0  0  0  0  0  0  0  0
   -5.8350    5.0730  -16.3283 C   0  0  0  0  0  0  0  0  0  0  0  0
   -6.9927    4.8322  -15.5733 C   0  0  0  0  0  0  0  0  0  0  0  0
   -8.1962    4.5705  -16.2126 C   0  0  0  0  0  0  0  0  0  0  0  0
   -8.2174    4.6286  -17.5875 C   0  0  0  0  0  0  0  0  0  0  0  0
   -7.1297    4.9182  -18.3274 N   0  0  0  0  0  0  0  0  0  0  0  0
   -5.9306    5.0656  -17.7389 C   0  0  0  0  0  0  0  0  0  0  0  0
  1  2  2  0
  2  3  1  0
  3  4  2  0
  5  3  1  1
  5  6  1  0
  6  7  1  0
  7  8  1  0
  8  9  1  0
  9 10  1  6
 10 11  1  0
 11 12  1  0
 12 13  1  0
  9 14  1  0
  2 15  1  0
 15 16  2  0
 16 17  1  0
 17 18  2  0
 18 19  1  0
 19 20  2  0
 20 21  1  0
 21 22  2  0
 22 23  1  0
 23 24  2  0
 14  5  1  0
 24 15  1  0
 13  9  1  0
 24 19  1  0
M  END
>  <smiles>  (378) 
C91310-P93

>  <fragmenstein_outcome>  (378) 
acceptable

>  <inchikey>  (378) 
MSADLZHBZVORBF-UHFFFAOYSA-N

>  <fragmenstein_mode>  (378) 
expansion

>  <HIPPO Pose ID>  (378) 
11904

>  <Energy>  (378) 
117.363051

>  <fragmenstein_error>  (378) 


>  <tags>  (378) 
{'openbind_xx01zvns2b_c1_fragmenstein', 'fragmenstein_placed'}

>  <ref_pdb>  (378) 
1

>  <scratch_subdir>  (378) 
/opt/xchem-fragalysis-2/maxwin/BulkDock/SCRATCH/511027/C91310-P93

>  <alias>  (378) 
O=C(C(=O)[C@@H]1CCN[C@]2(CCNC2)C1)c1cccc2cccnc12

>  <HIPPO Compound ID>  (378) 
83066

>  <fragmenstein_runtime>  (378) 
1.82279

$$$$
O=C(C(=O)[C@@H]1CCN[C@@]2(CCNC2)C1)c1cccc2cccnc12
     RDKit          3D

 24 27  0  0  0  0  0  0  0  0999 V2000
   -5.8702    4.4950  -20.2613 O   0  0  0  0  0  0  0  0  0  0  0  0
   -4.9604    5.0588  -19.6774 C   0  0  0  0  0  0  0  0  0  0  0  0
   -3.8161    5.6358  -20.4954 C   0  0  0  0  0  0  0  0  0  0  0  0
   -2.8342    4.9238  -20.7185 O   0  0  0  0  0  0  0  0  0  0  0  0
   -3.8657    7.1142  -20.8608 C   0  0  2  0  0  0  0  0  0  0  0  0
   -5.1451    7.8443  -20.4609 C   0  0  0  0  0  0  0  0  0  0  0  0
   -5.1460    9.2502  -21.0423 C   0  0  0  0  0  0  0  0  0  0  0  0
   -5.0447    9.3115  -22.4923 N   0  0  0  0  0  0  0  0  0  0  0  0
   -4.5806    8.0863  -23.1695 C   0  0  2  0  0  0  0  0  0  0  0  0
   -3.9969    8.4899  -24.5508 C   0  0  0  0  0  0  0  0  0  0  0  0
   -4.6811    7.6012  -25.5853 C   0  0  0  0  0  0  0  0  0  0  0  0
   -5.2497    6.5082  -24.8150 N   0  0  0  0  0  0  0  0  0  0  0  0
   -5.7313    7.1358  -23.5834 C   0  0  0  0  0  0  0  0  0  0  0  0
   -3.4886    7.3636  -22.3359 C   0  0  0  0  0  0  0  0  0  0  0  0
   -4.8906    5.1470  -18.1976 C   0  0  0  0  0  0  0  0  0  0  0  0
   -3.6429    5.3310  -17.5750 C   0  0  0  0  0  0  0  0  0  0  0  0
   -3.5532    5.3392  -16.1892 C   0  0  0  0  0  0  0  0  0  0  0  0
   -4.6998    5.1426  -15.4277 C   0  0  0  0  0  0  0  0  0  0  0  0
   -5.9478    4.9551  -16.0449 C   0  0  0  0  0  0  0  0  0  0  0  0
   -7.0977    4.7162  -15.2781 C   0  0  0  0  0  0  0  0  0  0  0  0
   -8.3216    4.5090  -15.8997 C   0  0  0  0  0  0  0  0  0  0  0  0
   -8.3640    4.5861  -17.2717 C   0  0  0  0  0  0  0  0  0  0  0  0
   -7.2820    4.8576  -18.0244 N   0  0  0  0  0  0  0  0  0  0  0  0
   -6.0686    4.9832  -17.4499 C   0  0  0  0  0  0  0  0  0  0  0  0
  1  2  2  0
  2  3  1  0
  3  4  2  0
  5  3  1  6
  5  6  1  0
  6  7  1  0
  7  8  1  0
  8  9  1  0
  9 10  1  6
 10 11  1  0
 11 12  1  0
 12 13  1  0
  9 14  1  0
  2 15  1  0
 15 16  2  0
 16 17  1  0
 17 18  2  0
 18 19  1  0
 19 20  2  0
 20 21  1  0
 21 22  2  0
 22 23  1  0
 23 24  2  0
 14  5  1  0
 24 15  1  0
 13  9  1  0
 24 19  1  0
M  END
>  <smiles>  (379) 
C91310-P31

>  <fragmenstein_outcome>  (379) 
acceptable

>  <inchikey>  (379) 
MLHYOCOFGDFIJB-UHFFFAOYSA-N

>  <fragmenstein_mode>  (379) 
expansion

>  <HIPPO Pose ID>  (379) 
11905

>  <Energy>  (379) 
116.800521

>  <fragmenstein_error>  (379) 


>  <tags>  (379) 
{'openbind_xx01zvns2b_c1_fragmenstein', 'fragmenstein_placed'}

>  <ref_pdb>  (379) 
1

>  <scratch_subdir>  (379) 
/opt/xchem-fragalysis-2/maxwin/BulkDock/SCRATCH/511027/C91310-P31

>  <alias>  (379) 
O=C(C(=O)[C@@H]1CCN[C@@]2(CCNC2)C1)c1cccc2cccnc12

>  <HIPPO Compound ID>  (379) 
91310

>  <fragmenstein_runtime>  (379) 
1.188978

$$$$
CNCc1ccnc2c(C(=O)C(=O)C3CCNCC3)cc(Cl)cc12
     RDKit          3D

 24 26  0  0  0  0  0  0  0  0999 V2000
   -8.1054    3.2356  -12.9243 C   0  0  0  0  0  0  0  0  0  0  0  0
   -8.0978    4.6594  -13.2683 N   0  0  0  0  0  0  0  0  0  0  0  0
   -6.8737    4.9993  -14.0002 C   0  0  0  0  0  0  0  0  0  0  0  0
   -6.9330    4.9111  -15.5145 C   0  0  0  0  0  0  0  0  0  0  0  0
   -8.1184    4.5922  -16.1844 C   0  0  0  0  0  0  0  0  0  0  0  0
   -8.1333    4.6142  -17.5648 C   0  0  0  0  0  0  0  0  0  0  0  0
   -7.0647    4.9493  -18.3131 N   0  0  0  0  0  0  0  0  0  0  0  0
   -5.9027    5.2164  -17.7022 C   0  0  0  0  0  0  0  0  0  0  0  0
   -4.7676    5.5127  -18.4538 C   0  0  0  0  0  0  0  0  0  0  0  0
   -4.8517    5.5932  -19.9147 C   0  0  0  0  0  0  0  0  0  0  0  0
   -4.4832    4.6497  -20.5989 O   0  0  0  0  0  0  0  0  0  0  0  0
   -5.1536    6.9664  -20.5237 C   0  0  0  0  0  0  0  0  0  0  0  0
   -5.5847    7.8661  -19.8052 O   0  0  0  0  0  0  0  0  0  0  0  0
   -4.7801    7.1630  -21.9881 C   0  0  0  0  0  0  0  0  0  0  0  0
   -3.2609    7.0323  -22.1756 C   0  0  0  0  0  0  0  0  0  0  0  0
   -2.8370    7.3538  -23.6063 C   0  0  0  0  0  0  0  0  0  0  0  0
   -3.2800    8.6865  -24.0153 N   0  0  0  0  0  0  0  0  0  0  0  0
   -4.7362    8.7862  -23.9330 C   0  0  0  0  0  0  0  0  0  0  0  0
   -5.2366    8.5321  -22.5138 C   0  0  0  0  0  0  0  0  0  0  0  0
   -3.5113    5.7540  -17.8873 C   0  0  0  0  0  0  0  0  0  0  0  0
   -3.3926    5.7379  -16.5126 C   0  0  0  0  0  0  0  0  0  0  0  0
   -1.8722    6.0551  -15.7767 Cl  0  0  0  0  0  0  0  0  0  0  0  0
   -4.5071    5.4773  -15.7205 C   0  0  0  0  0  0  0  0  0  0  0  0
   -5.7758    5.2031  -16.2917 C   0  0  0  0  0  0  0  0  0  0  0  0
  1  2  1  0
  2  3  1  0
  3  4  1  0
  4  5  2  0
  5  6  1  0
  6  7  2  0
  7  8  1  0
  8  9  2  0
  9 10  1  0
 10 11  2  0
 10 12  1  0
 12 13  2  0
 12 14  1  0
 14 15  1  0
 15 16  1  0
 16 17  1  0
 17 18  1  0
 18 19  1  0
  9 20  1  0
 20 21  2  0
 21 22  1  0
 21 23  1  0
 23 24  2  0
 24  4  1  0
 24  8  1  0
 19 14  1  0
M  END
>  <smiles>  (380) 
C91397-P93

>  <fragmenstein_outcome>  (380) 
acceptable

>  <inchikey>  (380) 
UDXAYRSTBNCIFN-UHFFFAOYSA-N

>  <fragmenstein_mode>  (380) 
expansion

>  <HIPPO Pose ID>  (380) 
11960

>  <Energy>  (380) 
58.403456

>  <fragmenstein_error>  (380) 


>  <tags>  (380) 
{'openbind_xx01zvns2b_c1_fragmenstein', 'fragmenstein_placed'}

>  <ref_pdb>  (380) 
1

>  <scratch_subdir>  (380) 
/opt/xchem-fragalysis-2/maxwin/BulkDock/SCRATCH/511027/C91397-P93

>  <alias>  (380) 
CNCc1ccnc2c(C(=O)C(=O)C3CCNCC3)cc(Cl)cc12

>  <HIPPO Compound ID>  (380) 
74590

>  <fragmenstein_runtime>  (380) 
3.734232

$$$$
O=C(c1cccc2cc3c(nc12)OCC3)C(=O)[C@H]1CC[C@@]2(CCNC2)CC1
     RDKit          3D

 27 31  0  0  0  0  0  0  0  0999 V2000
   -5.9929    5.3673  -13.6505 O   0  0  0  0  0  0  0  0  0  0  0  0
   -7.0891    5.0755  -14.1123 C   0  0  0  0  0  0  0  0  0  0  0  0
   -8.1997    5.0017  -13.0959 C   0  0  0  0  0  0  0  0  0  0  0  0
   -9.2976    5.4822  -13.3645 O   0  0  0  0  0  0  0  0  0  0  0  0
   -7.8014    4.4185  -11.7550 C   0  0  2  0  0  0  0  0  0  0  0  0
   -8.6940    3.2368  -11.4009 C   0  0  0  0  0  0  0  0  0  0  0  0
   -9.1116    3.2478   -9.9400 C   0  0  0  0  0  0  0  0  0  0  0  0
   -7.9744    3.6304   -8.9900 C   0  0  1  0  0  0  0  0  0  0  0  0
   -8.4301    3.5229   -7.5309 C   0  0  0  0  0  0  0  0  0  0  0  0
   -8.3833    2.0310   -7.2490 C   0  0  0  0  0  0  0  0  0  0  0  0
   -7.5041    1.4523   -8.2744 N   0  0  0  0  0  0  0  0  0  0  0  0
   -6.8996    2.5535   -9.0222 C   0  0  0  0  0  0  0  0  0  0  0  0
   -7.4386    5.0370   -9.3136 C   0  0  0  0  0  0  0  0  0  0  0  0
   -7.8023    5.5346  -10.7123 C   0  0  0  0  0  0  0  0  0  0  0  0
   -7.3665    4.8269  -15.5552 C   0  0  0  0  0  0  0  0  0  0  0  0
   -8.6133    4.3062  -15.9359 C   0  0  0  0  0  0  0  0  0  0  0  0
   -8.9504    4.1389  -17.2702 C   0  0  0  0  0  0  0  0  0  0  0  0
   -8.0114    4.4311  -18.2402 C   0  0  0  0  0  0  0  0  0  0  0  0
   -6.7395    4.8951  -17.8840 C   0  0  0  0  0  0  0  0  0  0  0  0
   -5.7869    5.1171  -18.8880 C   0  0  0  0  0  0  0  0  0  0  0  0
   -4.5339    5.5321  -18.5174 C   0  0  0  0  0  0  0  0  0  0  0  0
   -4.2806    5.7324  -17.1881 C   0  0  0  0  0  0  0  0  0  0  0  0
   -5.1524    5.5568  -16.1929 N   0  0  0  0  0  0  0  0  0  0  0  0
   -6.3892    5.1135  -16.5193 C   0  0  0  0  0  0  0  0  0  0  0  0
   -2.9757    6.1138  -16.9280 O   0  0  0  0  0  0  0  0  0  0  0  0
   -2.4596    6.4369  -18.2385 C   0  0  0  0  0  0  0  0  0  0  0  0
   -3.3076    5.7412  -19.3044 C   0  0  0  0  0  0  0  0  0  0  0  0
  1  2  2  0
  2  3  1  0
  3  4  2  0
  5  3  1  6
  5  6  1  0
  6  7  1  0
  8  7  1  6
  8  9  1  0
  9 10  1  0
 10 11  1  0
 11 12  1  0
  8 13  1  0
 13 14  1  0
  2 15  1  0
 15 16  2  0
 16 17  1  0
 17 18  2  0
 18 19  1  0
 19 20  2  0
 20 21  1  0
 21 22  2  0
 22 23  1  0
 23 24  2  0
 22 25  1  0
 25 26  1  0
 26 27  1  0
 14  5  1  0
 24 15  1  0
 12  8  1  0
 24 19  1  0
 27 21  1  0
M  END
>  <smiles>  (381) 
C91321-P93

>  <fragmenstein_outcome>  (381) 
acceptable

>  <inchikey>  (381) 
UITHNUOVGNWDJO-UHFFFAOYSA-N

>  <fragmenstein_mode>  (381) 
expansion

>  <HIPPO Pose ID>  (381) 
11981

>  <Energy>  (381) 
111.629546

>  <fragmenstein_error>  (381) 


>  <tags>  (381) 
{'openbind_xx01zvns2b_c1_fragmenstein', 'fragmenstein_placed'}

>  <ref_pdb>  (381) 
1

>  <scratch_subdir>  (381) 
/opt/xchem-fragalysis-2/maxwin/BulkDock/SCRATCH/511027/C91321-P93

>  <alias>  (381) 
O=C(c1cccc2cc3c(nc12)OCC3)C(=O)[C@H]1CC[C@@]2(CCNC2)CC1

>  <HIPPO Compound ID>  (381) 
106437

>  <fragmenstein_runtime>  (381) 
11.39137

$$$$
CC(=O)N[C@@H]1C(=O)N(c2cccc3cccnc23)Nc2cc3c(cc21)CN[C@H]3C
     RDKit          3D

 29 33  0  0  0  0  0  0  0  0999 V2000
   -5.5999    7.4498  -24.1139 C   0  0  0  0  0  0  0  0  0  0  0  0
   -5.1746    7.5100  -22.6627 C   0  0  0  0  0  0  0  0  0  0  0  0
   -5.2214    8.4851  -22.0244 O   0  0  0  0  0  0  0  0  0  0  0  0
   -4.6461    6.1006  -22.3035 N   0  0  0  0  0  0  0  0  0  0  0  0
   -4.1498    5.5716  -21.0442 C   0  0  2  0  0  0  0  0  0  0  0  0
   -5.2780    4.9676  -20.2006 C   0  0  0  0  0  0  0  0  0  0  0  0
   -5.9385    4.0521  -20.7141 O   0  0  0  0  0  0  0  0  0  0  0  0
   -5.4200    5.4263  -18.8895 N   0  0  0  0  0  0  0  0  0  0  0  0
   -6.4291    4.9635  -17.9576 C   0  0  0  0  0  0  0  0  0  0  0  0
   -7.6476    4.4365  -18.4153 C   0  0  0  0  0  0  0  0  0  0  0  0
   -8.6591    4.0665  -17.5316 C   0  0  0  0  0  0  0  0  0  0  0  0
   -8.4484    4.1689  -16.1653 C   0  0  0  0  0  0  0  0  0  0  0  0
   -7.2232    4.6383  -15.6778 C   0  0  0  0  0  0  0  0  0  0  0  0
   -6.9811    4.6904  -14.2985 C   0  0  0  0  0  0  0  0  0  0  0  0
   -5.7574    5.1368  -13.8197 C   0  0  0  0  0  0  0  0  0  0  0  0
   -4.8143    5.5347  -14.7392 C   0  0  0  0  0  0  0  0  0  0  0  0
   -5.0189    5.5208  -16.0721 N   0  0  0  0  0  0  0  0  0  0  0  0
   -6.2022    5.0563  -16.5634 C   0  0  0  0  0  0  0  0  0  0  0  0
   -4.7197    6.5858  -18.4374 N   0  0  0  0  0  0  0  0  0  0  0  0
   -3.4883    6.8996  -19.0463 C   0  0  0  0  0  0  0  0  0  0  0  0
   -2.6050    7.7648  -18.3780 C   0  0  0  0  0  0  0  0  0  0  0  0
   -1.4209    8.1322  -18.9954 C   0  0  0  0  0  0  0  0  0  0  0  0
   -1.1124    7.6779  -20.2696 C   0  0  0  0  0  0  0  0  0  0  0  0
   -1.9866    6.8644  -20.9643 C   0  0  0  0  0  0  0  0  0  0  0  0
   -3.1946    6.4834  -20.3475 C   0  0  0  0  0  0  0  0  0  0  0  0
    0.2014    8.2373  -20.6924 C   0  0  0  0  0  0  0  0  0  0  0  0
    0.8087    8.8057  -19.4583 N   0  0  0  0  0  0  0  0  0  0  0  0
   -0.3178    9.0130  -18.5021 C   0  0  1  0  0  0  0  0  0  0  0  0
   -0.7157   10.4847  -18.4746 C   0  0  0  0  0  0  0  0  0  0  0  0
  1  2  1  0
  2  3  2  0
  2  4  1  0
  5  4  1  6
  5  6  1  0
  6  7  2  0
  6  8  1  0
  8  9  1  0
  9 10  2  0
 10 11  1  0
 11 12  2  0
 12 13  1  0
 13 14  2  0
 14 15  1  0
 15 16  2  0
 16 17  1  0
 17 18  2  0
  8 19  1  0
 19 20  1  0
 20 21  2  0
 21 22  1  0
 22 23  2  0
 23 24  1  0
 24 25  2  0
 23 26  1  0
 26 27  1  0
 27 28  1  0
 28 29  1  6
 25  5  1  0
 18  9  1  0
 25 20  1  0
 18 13  1  0
 28 22  1  0
M  END
>  <smiles>  (382) 
C91555-P8

>  <fragmenstein_outcome>  (382) 
acceptable

>  <inchikey>  (382) 
BTDQOAISOOESSO-UHFFFAOYSA-N

>  <fragmenstein_mode>  (382) 
expansion

>  <HIPPO Pose ID>  (382) 
12067

>  <Energy>  (382) 
143.679226

>  <fragmenstein_error>  (382) 


>  <tags>  (382) 
{'openbind_xx01zvns2b_c1_fragmenstein', 'fragmenstein_placed'}

>  <ref_pdb>  (382) 
1

>  <scratch_subdir>  (382) 
/opt/xchem-fragalysis-2/maxwin/BulkDock/SCRATCH/511027/C91555-P8

>  <alias>  (382) 
CC(=O)N[C@@H]1C(=O)N(c2cccc3cccnc23)Nc2cc3c(cc21)CN[C@H]3C

>  <HIPPO Compound ID>  (382) 
71368

>  <fragmenstein_runtime>  (382) 
5.410114

$$$$
CC(=O)N[C@@H]1C(=O)N(c2ccc(C(C)=O)c3cccnc23)Nc2cc3c(cc21)CN[C@H]3C
     RDKit          3D

 32 36  0  0  0  0  0  0  0  0999 V2000
   -5.6676   10.6037  -21.8642 C   0  0  0  0  0  0  0  0  0  0  0  0
   -5.5344    9.1461  -22.2465 C   0  0  0  0  0  0  0  0  0  0  0  0
   -5.6261    8.7605  -23.3410 O   0  0  0  0  0  0  0  0  0  0  0  0
   -5.2363    8.3826  -20.9386 N   0  0  0  0  0  0  0  0  0  0  0  0
   -5.0806    6.9500  -20.6896 C   0  0  2  0  0  0  0  0  0  0  0  0
   -5.9297    6.6098  -19.4494 C   0  0  0  0  0  0  0  0  0  0  0  0
   -6.6615    7.4690  -18.9359 O   0  0  0  0  0  0  0  0  0  0  0  0
   -5.7352    5.3213  -18.9155 N   0  0  0  0  0  0  0  0  0  0  0  0
   -6.4300    5.0136  -17.6797 C   0  0  0  0  0  0  0  0  0  0  0  0
   -7.8200    4.8286  -17.7213 C   0  0  0  0  0  0  0  0  0  0  0  0
   -8.5458    4.6808  -16.5356 C   0  0  0  0  0  0  0  0  0  0  0  0
   -7.8960    4.7802  -15.2978 C   0  0  0  0  0  0  0  0  0  0  0  0
   -8.7451    4.7843  -14.0687 C   0  0  0  0  0  0  0  0  0  0  0  0
   -8.3399    3.9563  -12.8703 C   0  0  0  0  0  0  0  0  0  0  0  0
   -9.7468    5.5002  -14.0431 O   0  0  0  0  0  0  0  0  0  0  0  0
   -6.4918    4.9770  -15.2426 C   0  0  0  0  0  0  0  0  0  0  0  0
   -5.7612    5.1990  -14.0513 C   0  0  0  0  0  0  0  0  0  0  0  0
   -4.3837    5.3519  -14.0529 C   0  0  0  0  0  0  0  0  0  0  0  0
   -3.7450    5.2955  -15.2611 C   0  0  0  0  0  0  0  0  0  0  0  0
   -4.3945    5.1321  -16.4272 N   0  0  0  0  0  0  0  0  0  0  0  0
   -5.7488    5.0211  -16.4450 C   0  0  0  0  0  0  0  0  0  0  0  0
   -4.4060    4.7623  -19.0050 N   0  0  0  0  0  0  0  0  0  0  0  0
   -3.3684    5.6010  -19.4984 C   0  0  0  0  0  0  0  0  0  0  0  0
   -2.0410    5.3279  -19.1230 C   0  0  0  0  0  0  0  0  0  0  0  0
   -1.0215    6.1192  -19.6273 C   0  0  0  0  0  0  0  0  0  0  0  0
   -1.2844    7.0987  -20.5745 C   0  0  0  0  0  0  0  0  0  0  0  0
   -2.5755    7.3513  -21.0000 C   0  0  0  0  0  0  0  0  0  0  0  0
   -3.6346    6.6279  -20.4194 C   0  0  0  0  0  0  0  0  0  0  0  0
   -0.0236    7.8146  -20.9223 C   0  0  0  0  0  0  0  0  0  0  0  0
    1.0680    7.0384  -20.2795 N   0  0  0  0  0  0  0  0  0  0  0  0
    0.4301    6.1573  -19.2676 C   0  0  1  0  0  0  0  0  0  0  0  0
    0.6615    6.7220  -17.8691 C   0  0  0  0  0  0  0  0  0  0  0  0
  1  2  1  0
  2  3  2  0
  2  4  1  0
  5  4  1  1
  5  6  1  0
  6  7  2  0
  6  8  1  0
  8  9  1  0
  9 10  2  0
 10 11  1  0
 11 12  2  0
 12 13  1  0
 13 14  1  0
 13 15  2  0
 12 16  1  0
 16 17  2  0
 17 18  1  0
 18 19  2  0
 19 20  1  0
 20 21  2  0
  8 22  1  0
 22 23  1  0
 23 24  2  0
 24 25  1  0
 25 26  2  0
 26 27  1  0
 27 28  2  0
 26 29  1  0
 29 30  1  0
 30 31  1  0
 31 32  1  1
 28  5  1  0
 21  9  1  0
 28 23  1  0
 21 16  1  0
 31 25  1  0
M  END
>  <smiles>  (383) 
C91561-P94

>  <fragmenstein_outcome>  (383) 
acceptable

>  <inchikey>  (383) 
ZIYRHIOJSITOFL-UHFFFAOYSA-N

>  <fragmenstein_mode>  (383) 
expansion

>  <HIPPO Pose ID>  (383) 
12075

>  <Energy>  (383) 
167.626116

>  <fragmenstein_error>  (383) 


>  <tags>  (383) 
{'openbind_xx01zvns2b_c1_fragmenstein', 'fragmenstein_placed'}

>  <ref_pdb>  (383) 
1

>  <scratch_subdir>  (383) 
/opt/xchem-fragalysis-2/maxwin/BulkDock/SCRATCH/511027/C91561-P94

>  <alias>  (383) 
CC(=O)N[C@@H]1C(=O)N(c2ccc(C(C)=O)c3cccnc23)Nc2cc3c(cc21)CN[C@H]3C

>  <HIPPO Compound ID>  (383) 
91561

>  <fragmenstein_runtime>  (383) 
4.513122

$$$$
CC(=O)Nc1ccc([C@H](C)[NH3+])cc1C(=O)C(=O)c1ccc(=O)c2ccc[nH]c1-2
     RDKit          3D

 28 30  0  0  0  0  0  0  0  0999 V2000
   -6.1650    8.2930  -24.0873 C   0  0  0  0  0  0  0  0  0  0  0  0
   -4.7237    8.0766  -23.7170 C   0  0  0  0  0  0  0  0  0  0  0  0
   -3.8253    8.3787  -24.4016 O   0  0  0  0  0  0  0  0  0  0  0  0
   -4.7412    7.3750  -22.3256 N   0  0  0  0  0  0  0  0  0  0  0  0
   -3.6935    7.0046  -21.4874 C   0  0  0  0  0  0  0  0  0  0  0  0
   -2.3758    7.1597  -21.9394 C   0  0  0  0  0  0  0  0  0  0  0  0
   -1.2843    6.7516  -21.1692 C   0  0  0  0  0  0  0  0  0  0  0  0
   -1.4842    6.1678  -19.9174 C   0  0  0  0  0  0  0  0  0  0  0  0
   -0.3368    5.7533  -19.0198 C   0  0  2  0  0  0  0  0  0  0  0  0
    0.1288    6.9108  -18.1421 C   0  0  0  0  0  0  0  0  0  0  0  0
    0.8421    5.2286  -19.7472 N   0  0  0  0  0  0  0  0  0  0  0  0
   -2.8128    6.0304  -19.4596 C   0  0  0  0  0  0  0  0  0  0  0  0
   -3.9277    6.4209  -20.2368 C   0  0  0  0  0  0  0  0  0  0  0  0
   -5.3240    6.2531  -19.6935 C   0  0  0  0  0  0  0  0  0  0  0  0
   -6.1420    7.1553  -19.8097 O   0  0  0  0  0  0  0  0  0  0  0  0
   -5.6218    4.9960  -18.9005 C   0  0  0  0  0  0  0  0  0  0  0  0
   -4.7769    4.1075  -18.9741 O   0  0  0  0  0  0  0  0  0  0  0  0
   -6.6532    4.9613  -17.8347 C   0  0  0  0  0  0  0  0  0  0  0  0
   -8.0494    4.6682  -18.0872 C   0  0  0  0  0  0  0  0  0  0  0  0
   -8.9486    4.5605  -17.0930 C   0  0  0  0  0  0  0  0  0  0  0  0
   -8.5563    4.8086  -15.6771 C   0  0  0  0  0  0  0  0  0  0  0  0
   -9.3873    4.9124  -14.7812 O   0  0  0  0  0  0  0  0  0  0  0  0
   -7.0958    4.9863  -15.4414 C   0  0  0  0  0  0  0  0  0  0  0  0
   -6.6485    5.0663  -14.1715 C   0  0  0  0  0  0  0  0  0  0  0  0
   -5.2274    5.1727  -13.9006 C   0  0  0  0  0  0  0  0  0  0  0  0
   -4.3758    5.1786  -14.9362 C   0  0  0  0  0  0  0  0  0  0  0  0
   -4.8023    5.1544  -16.2474 N   0  0  0  0  0  0  0  0  0  0  0  0
   -6.1621    5.0467  -16.5778 C   0  0  0  0  0  0  0  0  0  0  0  0
  1  2  1  0
  2  3  2  0
  2  4  1  0
  4  5  1  0
  5  6  2  0
  6  7  1  0
  7  8  2  0
  8  9  1  0
  9 10  1  6
  9 11  1  0
  8 12  1  0
 12 13  2  0
 13 14  1  0
 14 15  2  0
 14 16  1  0
 16 17  2  0
 16 18  1  0
 18 19  1  0
 19 20  2  0
 20 21  1  0
 21 22  2  0
 21 23  1  0
 23 24  2  0
 24 25  1  0
 25 26  2  0
 26 27  1  0
 27 28  1  0
 13  5  1  0
 28 18  2  0
 28 23  1  0
M  CHG  1  11   1
M  END
>  <smiles>  (384) 
C91596-P94

>  <fragmenstein_outcome>  (384) 
acceptable

>  <inchikey>  (384) 
NSUAOKIXEZLXDT-UHFFFAOYSA-N

>  <fragmenstein_mode>  (384) 
expansion

>  <HIPPO Pose ID>  (384) 
12105

>  <Energy>  (384) 
139.412063

>  <fragmenstein_error>  (384) 


>  <tags>  (384) 
{'openbind_xx01zvns2b_c1_fragmenstein', 'fragmenstein_placed'}

>  <ref_pdb>  (384) 
1

>  <scratch_subdir>  (384) 
/opt/xchem-fragalysis-2/maxwin/BulkDock/SCRATCH/511027/C91596-P94

>  <alias>  (384) 
CC(=O)Nc1ccc([C@H](C)[NH3+])cc1C(=O)C(=O)c1ccc(=O)c2ccc[nH]c1-2

>  <HIPPO Compound ID>  (384) 
79446

>  <fragmenstein_runtime>  (384) 
4.815095

$$$$
Cc1nc2c(C(=O)[C@@]3(O)CCCC[C@@]4(CN)NCC[C@H]43)cccc2c(CO)c1N1CCCC1
     RDKit          3D

 33 37  0  0  0  0  0  0  0  0999 V2000
   -3.0071    5.4200  -15.0750 C   0  0  0  0  0  0  0  0  0  0  0  0
   -4.4972    5.2727  -15.2088 C   0  0  0  0  0  0  0  0  0  0  0  0
   -4.9298    5.1545  -16.4961 N   0  0  0  0  0  0  0  0  0  0  0  0
   -6.2303    4.9409  -16.7682 C   0  0  0  0  0  0  0  0  0  0  0  0
   -6.6875    4.7998  -18.0883 C   0  0  0  0  0  0  0  0  0  0  0  0
   -5.7978    4.8836  -19.2863 C   0  0  0  0  0  0  0  0  0  0  0  0
   -5.8913    3.9669  -20.1131 O   0  0  0  0  0  0  0  0  0  0  0  0
   -4.8753    6.1044  -19.6151 C   0  0  1  0  0  0  0  0  0  0  0  0
   -5.3099    6.4786  -20.9482 O   0  0  0  0  0  0  0  0  0  0  0  0
   -5.1082    7.3486  -18.7555 C   0  0  0  0  0  0  0  0  0  0  0  0
   -4.9238    8.7064  -19.4421 C   0  0  0  0  0  0  0  0  0  0  0  0
   -3.7188    8.8484  -20.3651 C   0  0  0  0  0  0  0  0  0  0  0  0
   -2.4753    8.1326  -19.8601 C   0  0  0  0  0  0  0  0  0  0  0  0
   -2.3100    6.6506  -20.2856 C   0  0  1  0  0  0  0  0  0  0  0  0
   -2.0874    6.5349  -21.8273 C   0  0  0  0  0  0  0  0  0  0  0  0
   -1.4589    5.2611  -22.2555 N   0  0  0  0  0  0  0  0  0  0  0  0
   -1.0459    6.2611  -19.5808 N   0  0  0  0  0  0  0  0  0  0  0  0
   -1.2820    5.0109  -18.8825 C   0  0  0  0  0  0  0  0  0  0  0  0
   -2.7372    5.1202  -18.4971 C   0  0  0  0  0  0  0  0  0  0  0  0
   -3.3909    5.6499  -19.7619 C   0  0  1  0  0  0  0  0  0  0  0  0
   -8.0291    4.4829  -18.3630 C   0  0  0  0  0  0  0  0  0  0  0  0
   -8.9459    4.3586  -17.3362 C   0  0  0  0  0  0  0  0  0  0  0  0
   -8.5174    4.5410  -16.0291 C   0  0  0  0  0  0  0  0  0  0  0  0
   -7.1682    4.8286  -15.7144 C   0  0  0  0  0  0  0  0  0  0  0  0
   -6.7161    5.0047  -14.3702 C   0  0  0  0  0  0  0  0  0  0  0  0
   -7.7104    4.9450  -13.2242 C   0  0  0  0  0  0  0  0  0  0  0  0
   -8.5343    6.1145  -13.2491 O   0  0  0  0  0  0  0  0  0  0  0  0
   -5.3536    5.2627  -14.1022 C   0  0  0  0  0  0  0  0  0  0  0  0
   -4.9497    5.4605  -12.7861 N   0  0  0  0  0  0  0  0  0  0  0  0
   -4.2310    6.6790  -12.3982 C   0  0  0  0  0  0  0  0  0  0  0  0
   -3.1574    6.2046  -11.4184 C   0  0  0  0  0  0  0  0  0  0  0  0
   -3.7190    4.9016  -10.8713 C   0  0  0  0  0  0  0  0  0  0  0  0
   -4.3987    4.2888  -12.0909 C   0  0  0  0  0  0  0  0  0  0  0  0
  1  2  1  0
  2  3  2  0
  3  4  1  0
  4  5  2  0
  5  6  1  0
  6  7  2  0
  6  8  1  0
  8  9  1  6
  8 10  1  0
 10 11  1  0
 11 12  1  0
 12 13  1  0
 13 14  1  0
 14 15  1  6
 15 16  1  0
 14 17  1  0
 17 18  1  0
 18 19  1  0
 20 19  1  1
  5 21  1  0
 21 22  2  0
 22 23  1  0
 23 24  2  0
 24 25  1  0
 25 26  1  0
 26 27  1  0
 25 28  2  0
 28 29  1  0
 29 30  1  0
 30 31  1  0
 31 32  1  0
 32 33  1  0
 28  2  1  0
 33 29  1  0
 24  4  1  0
 20  8  1  0
 20 14  1  0
M  END
>  <smiles>  (385) 
C91809-P94

>  <fragmenstein_outcome>  (385) 
acceptable

>  <inchikey>  (385) 
YXQZPGJFGGVNOF-UHFFFAOYSA-N

>  <fragmenstein_mode>  (385) 
expansion

>  <HIPPO Pose ID>  (385) 
12259

>  <Energy>  (385) 
172.24871

>  <fragmenstein_error>  (385) 


>  <tags>  (385) 
{'openbind_xx01zvns2b_c1_fragmenstein', 'fragmenstein_placed'}

>  <ref_pdb>  (385) 
1

>  <scratch_subdir>  (385) 
/opt/xchem-fragalysis-2/maxwin/BulkDock/SCRATCH/511027/C91809-P94

>  <alias>  (385) 
Cc1nc2c(C(=O)[C@@]3(O)CCCC[C@@]4(CN)NCC[C@H]43)cccc2c(CO)c1N1CCCC1

>  <HIPPO Compound ID>  (385) 
85598

>  <fragmenstein_runtime>  (385) 
4.514184

$$$$
Cc1cc(CN(C)C2CCOCC2)c2cccc(C(=O)C(=O)[C@H]3CCN[C@]4(CCNC4)C3)c2n1
     RDKit          3D

 34 38  0  0  0  0  0  0  0  0999 V2000
   -9.5884    4.1034  -17.9555 C   0  0  0  0  0  0  0  0  0  0  0  0
   -8.1679    4.5443  -17.8006 C   0  0  0  0  0  0  0  0  0  0  0  0
   -7.3400    4.6646  -18.8988 C   0  0  0  0  0  0  0  0  0  0  0  0
   -6.0249    5.1470  -18.7596 C   0  0  0  0  0  0  0  0  0  0  0  0
   -5.1980    5.1157  -20.0418 C   0  0  0  0  0  0  0  0  0  0  0  0
   -3.9929    5.9526  -20.1391 N   0  0  0  0  0  0  0  0  0  0  0  0
   -2.8871    5.2205  -20.7655 C   0  0  0  0  0  0  0  0  0  0  0  0
   -4.1709    7.2871  -20.7435 C   0  0  0  0  0  0  0  0  0  0  0  0
   -5.1690    8.1701  -19.9952 C   0  0  0  0  0  0  0  0  0  0  0  0
   -5.1275    9.5942  -20.5481 C   0  0  0  0  0  0  0  0  0  0  0  0
   -4.7595    9.6781  -21.9246 O   0  0  0  0  0  0  0  0  0  0  0  0
   -5.1884    8.5637  -22.6946 C   0  0  0  0  0  0  0  0  0  0  0  0
   -4.4782    7.2887  -22.2550 C   0  0  0  0  0  0  0  0  0  0  0  0
   -5.5719    5.4499  -17.4455 C   0  0  0  0  0  0  0  0  0  0  0  0
   -4.2746    5.9236  -17.1230 C   0  0  0  0  0  0  0  0  0  0  0  0
   -3.8724    6.1584  -15.8103 C   0  0  0  0  0  0  0  0  0  0  0  0
   -4.7417    5.8644  -14.7748 C   0  0  0  0  0  0  0  0  0  0  0  0
   -6.0269    5.3877  -15.0664 C   0  0  0  0  0  0  0  0  0  0  0  0
   -6.7925    4.8034  -13.9479 C   0  0  0  0  0  0  0  0  0  0  0  0
   -6.3280    3.8109  -13.4014 O   0  0  0  0  0  0  0  0  0  0  0  0
   -8.0028    5.5194  -13.3572 C   0  0  0  0  0  0  0  0  0  0  0  0
   -8.7382    6.1887  -14.0787 O   0  0  0  0  0  0  0  0  0  0  0  0
   -8.1279    5.5828  -11.8387 C   0  0  1  0  0  0  0  0  0  0  0  0
   -8.1344    4.2538  -11.0868 C   0  0  0  0  0  0  0  0  0  0  0  0
   -8.2859    4.4883   -9.5835 C   0  0  0  0  0  0  0  0  0  0  0  0
   -7.2734    5.4096   -9.0454 N   0  0  0  0  0  0  0  0  0  0  0  0
   -7.2106    6.7063   -9.7609 C   0  0  1  0  0  0  0  0  0  0  0  0
   -8.3877    7.6182   -9.3883 C   0  0  0  0  0  0  0  0  0  0  0  0
   -7.9718    8.2882   -8.0800 C   0  0  0  0  0  0  0  0  0  0  0  0
   -6.5537    7.9478   -7.8460 N   0  0  0  0  0  0  0  0  0  0  0  0
   -6.0528    7.5435   -9.1758 C   0  0  0  0  0  0  0  0  0  0  0  0
   -7.0419    6.4997  -11.2705 C   0  0  0  0  0  0  0  0  0  0  0  0
   -6.4768    5.2176  -16.3710 C   0  0  0  0  0  0  0  0  0  0  0  0
   -7.7352    4.8000  -16.5584 N   0  0  0  0  0  0  0  0  0  0  0  0
  1  2  1  0
  2  3  2  0
  3  4  1  0
  4  5  1  0
  5  6  1  0
  6  7  1  0
  6  8  1  0
  8  9  1  0
  9 10  1  0
 10 11  1  0
 11 12  1  0
 12 13  1  0
  4 14  2  0
 14 15  1  0
 15 16  2  0
 16 17  1  0
 17 18  2  0
 18 19  1  0
 19 20  2  0
 19 21  1  0
 21 22  2  0
 23 21  1  6
 23 24  1  0
 24 25  1  0
 25 26  1  0
 26 27  1  0
 27 28  1  6
 28 29  1  0
 29 30  1  0
 30 31  1  0
 27 32  1  0
 18 33  1  0
 33 34  2  0
 34  2  1  0
 13  8  1  0
 33 14  1  0
 32 23  1  0
 31 27  1  0
M  END
>  <smiles>  (386) 
C91905-P96

>  <fragmenstein_outcome>  (386) 
acceptable

>  <inchikey>  (386) 
QEFVXPPDRBPTRA-UHFFFAOYSA-N

>  <fragmenstein_mode>  (386) 
expansion

>  <HIPPO Pose ID>  (386) 
12484

>  <Energy>  (386) 
138.464571

>  <fragmenstein_error>  (386) 


>  <tags>  (386) 
{'openbind_xx01zvns2b_c1_fragmenstein', 'fragmenstein_placed'}

>  <ref_pdb>  (386) 
1

>  <scratch_subdir>  (386) 
/opt/xchem-fragalysis-2/maxwin/BulkDock/SCRATCH/511027/C91905-P96

>  <alias>  (386) 
Cc1cc(CN(C)C2CCOCC2)c2cccc(C(=O)C(=O)[C@H]3CCN[C@]4(CCNC4)C3)c2n1

>  <HIPPO Compound ID>  (386) 
91905

>  <fragmenstein_runtime>  (386) 
6.649242

$$$$
CNCc1cncc2c(C(=O)Nc3ccc4c(c3)CN(C)C4)cc(Cl)cc12
     RDKit          3D

 27 30  0  0  0  0  0  0  0  0999 V2000
   -5.8455    7.2942  -19.5039 C   0  0  0  0  0  0  0  0  0  0  0  0
   -4.8878    6.3968  -20.1335 N   0  0  0  0  0  0  0  0  0  0  0  0
   -5.0471    5.0208  -19.6523 C   0  0  0  0  0  0  0  0  0  0  0  0
   -5.0960    4.9261  -18.1543 C   0  0  0  0  0  0  0  0  0  0  0  0
   -3.9105    5.1820  -17.4678 C   0  0  0  0  0  0  0  0  0  0  0  0
   -3.8202    5.2863  -16.1368 N   0  0  0  0  0  0  0  0  0  0  0  0
   -4.9810    5.1961  -15.4552 C   0  0  0  0  0  0  0  0  0  0  0  0
   -6.2392    4.9356  -16.0224 C   0  0  0  0  0  0  0  0  0  0  0  0
   -7.4331    4.8651  -15.2702 C   0  0  0  0  0  0  0  0  0  0  0  0
   -7.4417    5.3190  -13.8655 C   0  0  0  0  0  0  0  0  0  0  0  0
   -7.0565    6.3929  -13.6266 O   0  0  0  0  0  0  0  0  0  0  0  0
   -7.9093    4.1953  -12.9256 N   0  0  0  0  0  0  0  0  0  0  0  0
   -8.0857    4.1862  -11.5506 C   0  0  0  0  0  0  0  0  0  0  0  0
   -7.7974    5.3255  -10.7766 C   0  0  0  0  0  0  0  0  0  0  0  0
   -7.9766    5.3162   -9.3921 C   0  0  0  0  0  0  0  0  0  0  0  0
   -8.4582    4.1597   -8.8166 C   0  0  0  0  0  0  0  0  0  0  0  0
   -8.7403    3.0307   -9.5887 C   0  0  0  0  0  0  0  0  0  0  0  0
   -8.5514    3.0183  -10.9548 C   0  0  0  0  0  0  0  0  0  0  0  0
   -9.2453    1.9459   -8.6982 C   0  0  0  0  0  0  0  0  0  0  0  0
   -9.6533    2.6736   -7.4786 N   0  0  0  0  0  0  0  0  0  0  0  0
   -9.5913    1.8291   -6.3105 C   0  0  0  0  0  0  0  0  0  0  0  0
   -8.7745    3.8544   -7.3875 C   0  0  0  0  0  0  0  0  0  0  0  0
   -8.6501    4.5150  -15.8487 C   0  0  0  0  0  0  0  0  0  0  0  0
   -8.6973    4.2940  -17.2117 C   0  0  0  0  0  0  0  0  0  0  0  0
  -10.1993    3.9600  -17.9562 Cl  0  0  0  0  0  0  0  0  0  0  0  0
   -7.5504    4.4256  -17.9923 C   0  0  0  0  0  0  0  0  0  0  0  0
   -6.2949    4.7457  -17.4165 C   0  0  0  0  0  0  0  0  0  0  0  0
  1  2  1  0
  2  3  1  0
  3  4  1  0
  4  5  2  0
  5  6  1  0
  6  7  2  0
  7  8  1  0
  8  9  2  0
  9 10  1  0
 10 11  2  0
 10 12  1  0
 12 13  1  0
 13 14  2  0
 14 15  1  0
 15 16  2  0
 16 17  1  0
 17 18  2  0
 17 19  1  0
 19 20  1  0
 20 21  1  0
 20 22  1  0
  9 23  1  0
 23 24  2  0
 24 25  1  0
 24 26  1  0
 26 27  2  0
 27  4  1  0
 27  8  1  0
 18 13  1  0
 22 16  1  0
M  END
>  <smiles>  (387) 
C92231-P97

>  <fragmenstein_outcome>  (387) 
acceptable

>  <inchikey>  (387) 
OQGKWXAIWBSYDT-UHFFFAOYSA-N

>  <fragmenstein_mode>  (387) 
expansion

>  <HIPPO Pose ID>  (387) 
12600

>  <Energy>  (387) 
69.939587

>  <fragmenstein_error>  (387) 


>  <tags>  (387) 
{'openbind_xx01zvns2b_c1_fragmenstein', 'fragmenstein_placed'}

>  <ref_pdb>  (387) 
1

>  <scratch_subdir>  (387) 
/opt/xchem-fragalysis-2/maxwin/BulkDock/SCRATCH/511027/C92231-P97

>  <alias>  (387) 
CNCc1cncc2c(C(=O)Nc3ccc4c(c3)CN(C)C4)cc(Cl)cc12

>  <HIPPO Compound ID>  (387) 
79007

>  <fragmenstein_runtime>  (387) 
5.273627

$$$$
Nc1cncc2c(C(=O)Nc3ccc4c(c3)CNC4)cc(Cl)cc12
     RDKit          3D

 24 27  0  0  0  0  0  0  0  0999 V2000
   -5.4721    5.8978  -19.3912 N   0  0  0  0  0  0  0  0  0  0  0  0
   -5.3793    5.3029  -18.1201 C   0  0  0  0  0  0  0  0  0  0  0  0
   -4.1707    5.3488  -17.4251 C   0  0  0  0  0  0  0  0  0  0  0  0
   -3.9758    4.9557  -16.1462 N   0  0  0  0  0  0  0  0  0  0  0  0
   -5.0720    4.5423  -15.4758 C   0  0  0  0  0  0  0  0  0  0  0  0
   -6.3604    4.4968  -16.0181 C   0  0  0  0  0  0  0  0  0  0  0  0
   -7.4975    4.0743  -15.2941 C   0  0  0  0  0  0  0  0  0  0  0  0
   -7.4262    3.5134  -13.9178 C   0  0  0  0  0  0  0  0  0  0  0  0
   -7.2586    2.3669  -13.7944 O   0  0  0  0  0  0  0  0  0  0  0  0
   -7.6988    4.6036  -12.8609 N   0  0  0  0  0  0  0  0  0  0  0  0
   -7.9096    4.4998  -11.4847 C   0  0  0  0  0  0  0  0  0  0  0  0
   -7.9094    5.6692  -10.7056 C   0  0  0  0  0  0  0  0  0  0  0  0
   -8.1306    5.6078   -9.3234 C   0  0  0  0  0  0  0  0  0  0  0  0
   -8.4028    4.3754   -8.7553 C   0  0  0  0  0  0  0  0  0  0  0  0
   -8.4394    3.2214   -9.5301 C   0  0  0  0  0  0  0  0  0  0  0  0
   -8.1644    3.2590  -10.8889 C   0  0  0  0  0  0  0  0  0  0  0  0
   -8.7963    2.0553   -8.6655 C   0  0  0  0  0  0  0  0  0  0  0  0
   -9.2373    2.6458   -7.3731 N   0  0  0  0  0  0  0  0  0  0  0  0
   -8.6755    4.0108   -7.3339 C   0  0  0  0  0  0  0  0  0  0  0  0
   -8.7537    4.0378  -15.8984 C   0  0  0  0  0  0  0  0  0  0  0  0
   -8.8826    4.3643  -17.2360 C   0  0  0  0  0  0  0  0  0  0  0  0
  -10.4118    4.2642  -17.9997 Cl  0  0  0  0  0  0  0  0  0  0  0  0
   -7.7817    4.7874  -17.9703 C   0  0  0  0  0  0  0  0  0  0  0  0
   -6.5061    4.8806  -17.3832 C   0  0  0  0  0  0  0  0  0  0  0  0
  1  2  1  0
  2  3  2  0
  3  4  1  0
  4  5  2  0
  5  6  1  0
  6  7  2  0
  7  8  1  0
  8  9  2  0
  8 10  1  0
 10 11  1  0
 11 12  2  0
 12 13  1  0
 13 14  2  0
 14 15  1  0
 15 16  2  0
 15 17  1  0
 17 18  1  0
 18 19  1  0
  7 20  1  0
 20 21  2  0
 21 22  1  0
 21 23  1  0
 23 24  2  0
 24  2  1  0
 24  6  1  0
 16 11  1  0
 19 14  1  0
M  END
>  <smiles>  (388) 
C92240-P97

>  <fragmenstein_outcome>  (388) 
acceptable

>  <inchikey>  (388) 
WKXJLPDCHSNXFD-UHFFFAOYSA-N

>  <fragmenstein_mode>  (388) 
expansion

>  <HIPPO Pose ID>  (388) 
12608

>  <Energy>  (388) 
79.747759

>  <fragmenstein_error>  (388) 


>  <tags>  (388) 
{'openbind_xx01zvns2b_c1_fragmenstein', 'fragmenstein_placed'}

>  <ref_pdb>  (388) 
1

>  <scratch_subdir>  (388) 
/opt/xchem-fragalysis-2/maxwin/BulkDock/SCRATCH/511027/C92240-P97

>  <alias>  (388) 
Nc1cncc2c(C(=O)Nc3ccc4c(c3)CNC4)cc(Cl)cc12

>  <HIPPO Compound ID>  (388) 
88875

>  <fragmenstein_runtime>  (388) 
8.748649

$$$$
Cc1cc(CO)c2cc(Cl)cc(N3N[C@@H]4[C@H]5CCN[C@@H]5CC[C@@H]4[C@]3(O)OC[C@H]3CCCO3)c2n1
     RDKit          3D

 34 39  0  0  0  0  0  0  0  0999 V2000
   -2.8792    5.5370  -15.8671 C   0  0  0  0  0  0  0  0  0  0  0  0
   -4.2063    5.1941  -16.4547 C   0  0  0  0  0  0  0  0  0  0  0  0
   -4.3570    5.2062  -17.8200 C   0  0  0  0  0  0  0  0  0  0  0  0
   -5.6088    4.9339  -18.3595 C   0  0  0  0  0  0  0  0  0  0  0  0
   -5.7015    5.0075  -19.8648 C   0  0  0  0  0  0  0  0  0  0  0  0
   -6.3933    3.9257  -20.4707 O   0  0  0  0  0  0  0  0  0  0  0  0
   -6.6886    4.6700  -17.4779 C   0  0  0  0  0  0  0  0  0  0  0  0
   -7.9970    4.5023  -17.9469 C   0  0  0  0  0  0  0  0  0  0  0  0
   -9.0285    4.2075  -17.0740 C   0  0  0  0  0  0  0  0  0  0  0  0
  -10.6002    4.0541  -17.7420 Cl  0  0  0  0  0  0  0  0  0  0  0  0
   -8.7848    4.0737  -15.7091 C   0  0  0  0  0  0  0  0  0  0  0  0
   -7.4831    4.2110  -15.1815 C   0  0  0  0  0  0  0  0  0  0  0  0
   -7.2413    3.9787  -13.7787 N   0  0  0  0  0  0  0  0  0  0  0  0
   -8.3613    4.0707  -12.8230 N   0  0  0  0  0  0  0  0  0  0  0  0
   -8.0175    3.0857  -11.7367 C   0  0  2  0  0  0  0  0  0  0  0  0
   -8.3541    3.4930  -10.2898 C   0  0  1  0  0  0  0  0  0  0  0  0
   -9.5279    2.8138   -9.5990 C   0  0  0  0  0  0  0  0  0  0  0  0
   -9.0820    2.4802   -8.1806 C   0  0  0  0  0  0  0  0  0  0  0  0
   -7.8725    3.2979   -8.0248 N   0  0  0  0  0  0  0  0  0  0  0  0
   -7.2410    3.1063   -9.3295 C   0  0  2  0  0  0  0  0  0  0  0  0
   -5.9917    3.9128   -9.5961 C   0  0  0  0  0  0  0  0  0  0  0  0
   -5.7082    3.9421  -11.1003 C   0  0  0  0  0  0  0  0  0  0  0  0
   -6.5047    2.8687  -11.8708 C   0  0  2  0  0  0  0  0  0  0  0  0
   -6.2956    2.8947  -13.3771 C   0  0  1  0  0  0  0  0  0  0  0  0
   -6.7718    1.6512  -13.8664 O   0  0  0  0  0  0  0  0  0  0  0  0
   -4.9282    3.1351  -13.6802 O   0  0  0  0  0  0  0  0  0  0  0  0
   -4.0431    2.0620  -13.3595 C   0  0  0  0  0  0  0  0  0  0  0  0
   -2.5907    2.5350  -13.3661 C   0  0  1  0  0  0  0  0  0  0  0  0
   -2.1546    3.2704  -12.1081 C   0  0  0  0  0  0  0  0  0  0  0  0
   -0.6674    3.0227  -12.1055 C   0  0  0  0  0  0  0  0  0  0  0  0
   -0.6003    1.5899  -12.5819 C   0  0  0  0  0  0  0  0  0  0  0  0
   -1.6782    1.4173  -13.5147 O   0  0  0  0  0  0  0  0  0  0  0  0
   -6.4360    4.5809  -16.0768 C   0  0  0  0  0  0  0  0  0  0  0  0
   -5.2122    4.8927  -15.6117 N   0  0  0  0  0  0  0  0  0  0  0  0
  1  2  1  0
  2  3  2  0
  3  4  1  0
  4  5  1  0
  5  6  1  0
  4  7  2  0
  7  8  1  0
  8  9  2  0
  9 10  1  0
  9 11  1  0
 11 12  2  0
 12 13  1  0
 13 14  1  0
 15 14  1  6
 15 16  1  0
 16 17  1  1
 17 18  1  0
 18 19  1  0
 19 20  1  0
 20 21  1  1
 21 22  1  0
 23 22  1  1
 23 24  1  0
 24 25  1  6
 24 26  1  0
 26 27  1  0
 28 27  1  1
 28 29  1  0
 29 30  1  0
 30 31  1  0
 31 32  1  0
 12 33  1  0
 33 34  2  0
 34  2  1  0
 33  7  1  0
 24 13  1  0
 32 28  1  0
 23 15  1  0
 20 16  1  0
M  END
>  <smiles>  (389) 
C92383-P98

>  <fragmenstein_outcome>  (389) 
acceptable

>  <inchikey>  (389) 
FYKBHHUMXVXZTE-UHFFFAOYSA-N

>  <fragmenstein_mode>  (389) 
expansion

>  <HIPPO Pose ID>  (389) 
12719

>  <Energy>  (389) 
100.657601

>  <fragmenstein_error>  (389) 


>  <tags>  (389) 
{'openbind_xx01zvns2b_c1_fragmenstein', 'fragmenstein_placed'}

>  <ref_pdb>  (389) 
1

>  <scratch_subdir>  (389) 
/opt/xchem-fragalysis-2/maxwin/BulkDock/SCRATCH/511027/C92383-P98

>  <alias>  (389) 
Cc1cc(CO)c2cc(Cl)cc(N3N[C@@H]4[C@H]5CCN[C@@H]5CC[C@@H]4[C@]3(O)OC[C@H]3CCCO3)c2n1

>  <HIPPO Compound ID>  (389) 
100512

>  <fragmenstein_runtime>  (389) 
8.962317

$$$$
CCc1cc(C(=O)C(=O)[C@H]2CC[C@@H](N(C)CC)CC2)c2nc(C)ccc2c1
     RDKit          3D

 27 29  0  0  0  0  0  0  0  0999 V2000
  -10.9336    4.6882  -18.8332 C   0  0  0  0  0  0  0  0  0  0  0  0
  -10.3114    3.6548  -17.9495 C   0  0  0  0  0  0  0  0  0  0  0  0
   -8.9628    4.0386  -17.4546 C   0  0  0  0  0  0  0  0  0  0  0  0
   -8.7384    4.1159  -16.0895 C   0  0  0  0  0  0  0  0  0  0  0  0
   -7.4741    4.4718  -15.6345 C   0  0  0  0  0  0  0  0  0  0  0  0
   -7.3193    4.6311  -14.1986 C   0  0  0  0  0  0  0  0  0  0  0  0
   -7.5546    5.7243  -13.7024 O   0  0  0  0  0  0  0  0  0  0  0  0
   -6.9351    3.4000  -13.3830 C   0  0  0  0  0  0  0  0  0  0  0  0
   -6.2067    2.5615  -13.9059 O   0  0  0  0  0  0  0  0  0  0  0  0
   -7.5460    3.2035  -11.9995 C   0  0  1  0  0  0  0  0  0  0  0  0
   -6.5606    2.3923  -11.1415 C   0  0  0  0  0  0  0  0  0  0  0  0
   -6.8917    2.3549   -9.6473 C   0  0  0  0  0  0  0  0  0  0  0  0
   -8.2858    2.9089   -9.3279 C   0  0  1  0  0  0  0  0  0  0  0  0
   -8.6120    2.7448   -7.8980 N   0  0  0  0  0  0  0  0  0  0  0  0
   -8.3443    3.8805   -7.0363 C   0  0  0  0  0  0  0  0  0  0  0  0
   -9.9162    2.1020   -7.7174 C   0  0  0  0  0  0  0  0  0  0  0  0
  -10.4700    2.0908   -6.2981 C   0  0  0  0  0  0  0  0  0  0  0  0
   -8.3435    4.3523   -9.8328 C   0  0  0  0  0  0  0  0  0  0  0  0
   -7.9561    4.4977  -11.2991 C   0  0  0  0  0  0  0  0  0  0  0  0
   -6.4093    4.7715  -16.4777 C   0  0  0  0  0  0  0  0  0  0  0  0
   -5.2022    5.1493  -15.9990 N   0  0  0  0  0  0  0  0  0  0  0  0
   -4.2097    5.4247  -16.8748 C   0  0  0  0  0  0  0  0  0  0  0  0
   -2.8940    5.8519  -16.2992 C   0  0  0  0  0  0  0  0  0  0  0  0
   -4.3804    5.3578  -18.2497 C   0  0  0  0  0  0  0  0  0  0  0  0
   -5.6205    4.9838  -18.7465 C   0  0  0  0  0  0  0  0  0  0  0  0
   -6.6568    4.6842  -17.8605 C   0  0  0  0  0  0  0  0  0  0  0  0
   -7.9185    4.3117  -18.3391 C   0  0  0  0  0  0  0  0  0  0  0  0
  1  2  1  0
  2  3  1  0
  3  4  2  0
  4  5  1  0
  5  6  1  0
  6  7  2  0
  6  8  1  0
  8  9  2  0
 10  8  1  6
 10 11  1  0
 11 12  1  0
 12 13  1  0
 13 14  1  1
 14 15  1  0
 14 16  1  0
 16 17  1  0
 13 18  1  0
 18 19  1  0
  5 20  2  0
 20 21  1  0
 21 22  2  0
 22 23  1  0
 22 24  1  0
 24 25  2  0
 25 26  1  0
 26 27  2  0
 27  3  1  0
 19 10  1  0
 26 20  1  0
M  END
>  <smiles>  (390) 
C92390-P98

>  <fragmenstein_outcome>  (390) 
acceptable

>  <inchikey>  (390) 
MYEDSTOCBDAEBL-UHFFFAOYSA-N

>  <fragmenstein_mode>  (390) 
expansion

>  <HIPPO Pose ID>  (390) 
12724

>  <Energy>  (390) 
112.238194

>  <fragmenstein_error>  (390) 


>  <tags>  (390) 
{'openbind_xx01zvns2b_c1_fragmenstein', 'fragmenstein_placed'}

>  <ref_pdb>  (390) 
1

>  <scratch_subdir>  (390) 
/opt/xchem-fragalysis-2/maxwin/BulkDock/SCRATCH/511027/C92390-P98

>  <alias>  (390) 
CCc1cc(C(=O)C(=O)[C@H]2CC[C@@H](N(C)CC)CC2)c2nc(C)ccc2c1

>  <HIPPO Compound ID>  (390) 
73755

>  <fragmenstein_runtime>  (390) 
9.018784

$$$$
Cc1cc(CO)c2cc(F)cc(C(=O)C(=O)[C@@H]3CC[C@H](N(C)C)C[C@H]3C#N)c2n1
     RDKit          3D

 29 31  0  0  0  0  0  0  0  0999 V2000
   -3.4748    5.4615  -15.0899 C   0  0  0  0  0  0  0  0  0  0  0  0
   -4.6364    5.1583  -15.9885 C   0  0  0  0  0  0  0  0  0  0  0  0
   -4.4887    5.2292  -17.3626 C   0  0  0  0  0  0  0  0  0  0  0  0
   -5.5781    4.9384  -18.1885 C   0  0  0  0  0  0  0  0  0  0  0  0
   -5.4201    5.0368  -19.6842 C   0  0  0  0  0  0  0  0  0  0  0  0
   -4.0519    4.9575  -20.0868 O   0  0  0  0  0  0  0  0  0  0  0  0
   -6.8170    4.6011  -17.5886 C   0  0  0  0  0  0  0  0  0  0  0  0
   -7.9915    4.3400  -18.3341 C   0  0  0  0  0  0  0  0  0  0  0  0
   -9.1806    4.0244  -17.7012 C   0  0  0  0  0  0  0  0  0  0  0  0
  -10.2837    3.8033  -18.4221 F   0  0  0  0  0  0  0  0  0  0  0  0
   -9.2365    3.9532  -16.3293 C   0  0  0  0  0  0  0  0  0  0  0  0
   -8.0819    4.1845  -15.5811 C   0  0  0  0  0  0  0  0  0  0  0  0
   -8.2136    4.1158  -14.1181 C   0  0  0  0  0  0  0  0  0  0  0  0
   -9.1113    4.7397  -13.5631 O   0  0  0  0  0  0  0  0  0  0  0  0
   -7.2600    3.2319  -13.3222 C   0  0  0  0  0  0  0  0  0  0  0  0
   -7.0825    2.0819  -13.7177 O   0  0  0  0  0  0  0  0  0  0  0  0
   -6.4727    3.8288  -12.1554 C   0  0  2  0  0  0  0  0  0  0  0  0
   -6.1208    2.7428  -11.1200 C   0  0  0  0  0  0  0  0  0  0  0  0
   -7.2790    2.4586  -10.1653 C   0  0  0  0  0  0  0  0  0  0  0  0
   -7.7119    3.7116   -9.3921 C   0  0  2  0  0  0  0  0  0  0  0  0
   -8.8376    3.5971   -8.4413 N   0  0  0  0  0  0  0  0  0  0  0  0
   -8.5681    4.3294   -7.2047 C   0  0  0  0  0  0  0  0  0  0  0  0
   -9.2671    2.2355   -8.1348 C   0  0  0  0  0  0  0  0  0  0  0  0
   -8.1459    4.7641  -10.4299 C   0  0  0  0  0  0  0  0  0  0  0  0
   -7.0666    5.0766  -11.4759 C   0  0  1  0  0  0  0  0  0  0  0  0
   -5.9766    5.8665  -10.8516 C   0  0  0  0  0  0  0  0  0  0  0  0
   -5.1120    6.4871  -10.3877 N   0  0  0  0  0  0  0  0  0  0  0  0
   -6.8685    4.5292  -16.1719 C   0  0  0  0  0  0  0  0  0  0  0  0
   -5.8032    4.8204  -15.3982 N   0  0  0  0  0  0  0  0  0  0  0  0
  1  2  1  0
  2  3  2  0
  3  4  1  0
  4  5  1  0
  5  6  1  0
  4  7  2  0
  7  8  1  0
  8  9  2  0
  9 10  1  0
  9 11  1  0
 11 12  2  0
 12 13  1  0
 13 14  2  0
 13 15  1  0
 15 16  2  0
 17 15  1  6
 17 18  1  0
 18 19  1  0
 19 20  1  0
 20 21  1  1
 21 22  1  0
 21 23  1  0
 20 24  1  0
 24 25  1  0
 25 26  1  1
 26 27  3  0
 12 28  1  0
 28 29  2  0
 29  2  1  0
 28  7  1  0
 25 17  1  0
M  END
>  <smiles>  (391) 
C92386-P98

>  <fragmenstein_outcome>  (391) 
acceptable

>  <inchikey>  (391) 
AXBLTMDFKTXBPR-UHFFFAOYSA-N

>  <fragmenstein_mode>  (391) 
expansion

>  <HIPPO Pose ID>  (391) 
12728

>  <Energy>  (391) 
60.743201

>  <fragmenstein_error>  (391) 


>  <tags>  (391) 
{'openbind_xx01zvns2b_c1_fragmenstein', 'fragmenstein_placed'}

>  <ref_pdb>  (391) 
1

>  <scratch_subdir>  (391) 
/opt/xchem-fragalysis-2/maxwin/BulkDock/SCRATCH/511027/C92386-P98

>  <alias>  (391) 
Cc1cc(CO)c2cc(F)cc(C(=O)C(=O)[C@@H]3CC[C@H](N(C)C)C[C@H]3C#N)c2n1

>  <HIPPO Compound ID>  (391) 
84007

>  <fragmenstein_runtime>  (391) 
5.386523

$$$$
CO[C@@H]1C[C@@]2(CCN1)C[C@H](C(=O)C(=O)c1cc(F)cc3c(CO)cc(C)nc13)CC[C@H]2N(C)C
     RDKit          3D

 34 37  0  0  0  0  0  0  0  0999 V2000
   -4.5253    7.9176   -8.3841 C   0  0  0  0  0  0  0  0  0  0  0  0
   -5.6987    7.2516   -8.8192 O   0  0  0  0  0  0  0  0  0  0  0  0
   -5.9773    6.0626   -8.0886 C   0  0  2  0  0  0  0  0  0  0  0  0
   -5.2560    4.8442   -8.6828 C   0  0  0  0  0  0  0  0  0  0  0  0
   -5.7999    4.3419  -10.0562 C   0  0  1  0  0  0  0  0  0  0  0  0
   -7.3589    4.2993   -9.9361 C   0  0  0  0  0  0  0  0  0  0  0  0
   -7.9732    5.5601   -9.3278 C   0  0  0  0  0  0  0  0  0  0  0  0
   -7.4162    5.8466   -8.0051 N   0  0  0  0  0  0  0  0  0  0  0  0
   -5.4026    5.3104  -11.2066 C   0  0  0  0  0  0  0  0  0  0  0  0
   -5.5853    4.7993  -12.6504 C   0  0  2  0  0  0  0  0  0  0  0  0
   -6.8778    5.3012  -13.3001 C   0  0  0  0  0  0  0  0  0  0  0  0
   -7.2504    6.4737  -13.2781 O   0  0  0  0  0  0  0  0  0  0  0  0
   -7.7396    4.3292  -14.0729 C   0  0  0  0  0  0  0  0  0  0  0  0
   -8.4813    3.5935  -13.4384 O   0  0  0  0  0  0  0  0  0  0  0  0
   -7.7529    4.3536  -15.5533 C   0  0  0  0  0  0  0  0  0  0  0  0
   -8.9571    4.0196  -16.1831 C   0  0  0  0  0  0  0  0  0  0  0  0
   -9.0284    4.0386  -17.5593 C   0  0  0  0  0  0  0  0  0  0  0  0
  -10.1709    3.7101  -18.1723 F   0  0  0  0  0  0  0  0  0  0  0  0
   -7.9231    4.4010  -18.3144 C   0  0  0  0  0  0  0  0  0  0  0  0
   -6.6929    4.7265  -17.6951 C   0  0  0  0  0  0  0  0  0  0  0  0
   -5.5202    5.0921  -18.4052 C   0  0  0  0  0  0  0  0  0  0  0  0
   -5.4523    5.2680  -19.8883 C   0  0  0  0  0  0  0  0  0  0  0  0
   -5.7600    6.6243  -20.1704 O   0  0  0  0  0  0  0  0  0  0  0  0
   -4.3466    5.3815  -17.7081 C   0  0  0  0  0  0  0  0  0  0  0  0
   -4.3404    5.2714  -16.3404 C   0  0  0  0  0  0  0  0  0  0  0  0
   -3.1009    5.5871  -15.5646 C   0  0  0  0  0  0  0  0  0  0  0  0
   -5.4469    4.9396  -15.6472 N   0  0  0  0  0  0  0  0  0  0  0  0
   -6.6068    4.6850  -16.2837 C   0  0  0  0  0  0  0  0  0  0  0  0
   -5.2712    3.3153  -12.8604 C   0  0  0  0  0  0  0  0  0  0  0  0
   -5.7449    2.4193  -11.7332 C   0  0  0  0  0  0  0  0  0  0  0  0
   -5.2719    2.8737  -10.3376 C   0  0  1  0  0  0  0  0  0  0  0  0
   -3.8483    2.5607  -10.0097 N   0  0  0  0  0  0  0  0  0  0  0  0
   -3.5337    1.1410  -10.2336 C   0  0  0  0  0  0  0  0  0  0  0  0
   -2.7823    3.3758  -10.5659 C   0  0  0  0  0  0  0  0  0  0  0  0
  1  2  1  0
  3  2  1  6
  3  4  1  0
  5  4  1  1
  5  6  1  0
  6  7  1  0
  7  8  1  0
  5  9  1  0
  9 10  1  0
 10 11  1  1
 11 12  2  0
 11 13  1  0
 13 14  2  0
 13 15  1  0
 15 16  2  0
 16 17  1  0
 17 18  1  0
 17 19  2  0
 19 20  1  0
 20 21  2  0
 21 22  1  0
 22 23  1  0
 21 24  1  0
 24 25  2  0
 25 26  1  0
 25 27  1  0
 27 28  2  0
 10 29  1  0
 29 30  1  0
 30 31  1  0
 31 32  1  6
 32 33  1  0
 32 34  1  0
  8  3  1  0
 28 15  1  0
 31  5  1  0
 28 20  1  0
M  END
>  <smiles>  (392) 
C92394-P98

>  <fragmenstein_outcome>  (392) 
acceptable

>  <inchikey>  (392) 
JRHIAXWQOOEOBS-UHFFFAOYSA-N

>  <fragmenstein_mode>  (392) 
expansion

>  <HIPPO Pose ID>  (392) 
12729

>  <Energy>  (392) 
82.360624

>  <fragmenstein_error>  (392) 


>  <tags>  (392) 
{'openbind_xx01zvns2b_c1_fragmenstein', 'fragmenstein_placed'}

>  <ref_pdb>  (392) 
1

>  <scratch_subdir>  (392) 
/opt/xchem-fragalysis-2/maxwin/BulkDock/SCRATCH/511027/C92394-P98

>  <alias>  (392) 
CO[C@@H]1C[C@@]2(CCN1)C[C@H](C(=O)C(=O)c1cc(F)cc3c(CO)cc(C)nc13)CC[C@H]2N(C)C

>  <HIPPO Compound ID>  (392) 
75219

>  <fragmenstein_runtime>  (392) 
4.523046

$$$$
CC(C)[C@H]1NN[C@@]2(S1)[C@@H](C)Nc1c(C(=O)C(=O)[C@H]3CC[C@@H](N(C)C)CC3)cc(F)cc1[C@@H]2CO
     RDKit          3D

 34 37  0  0  0  0  0  0  0  0999 V2000
   -0.8456    6.0815  -20.4683 C   0  0  0  0  0  0  0  0  0  0  0  0
   -1.6098    7.0527  -19.5540 C   0  0  0  0  0  0  0  0  0  0  0  0
   -0.7714    8.3320  -19.4085 C   0  0  0  0  0  0  0  0  0  0  0  0
   -1.9398    6.4255  -18.1704 C   0  0  1  0  0  0  0  0  0  0  0  0
   -2.7164    7.2999  -17.2838 N   0  0  0  0  0  0  0  0  0  0  0  0
   -4.1431    7.1217  -17.5602 N   0  0  0  0  0  0  0  0  0  0  0  0
   -4.4416    5.6483  -17.5907 C   0  0  1  0  0  0  0  0  0  0  0  0
   -2.9019    4.8923  -18.3007 S   0  0  0  0  0  0  0  0  0  0  0  0
   -4.6442    5.0144  -16.1613 C   0  0  1  0  0  0  0  0  0  0  0  0
   -3.5908    5.3409  -15.0916 C   0  0  0  0  0  0  0  0  0  0  0  0
   -5.9487    5.3856  -15.5845 N   0  0  0  0  0  0  0  0  0  0  0  0
   -6.9919    4.7993  -16.3342 C   0  0  0  0  0  0  0  0  0  0  0  0
   -8.1576    4.3582  -15.6846 C   0  0  0  0  0  0  0  0  0  0  0  0
   -8.2761    4.3248  -14.2228 C   0  0  0  0  0  0  0  0  0  0  0  0
   -9.2072    4.9251  -13.7000 O   0  0  0  0  0  0  0  0  0  0  0  0
   -7.2775    3.4729  -13.4344 C   0  0  0  0  0  0  0  0  0  0  0  0
   -6.6945    2.5584  -14.0166 O   0  0  0  0  0  0  0  0  0  0  0  0
   -6.9978    3.7765  -11.9684 C   0  0  2  0  0  0  0  0  0  0  0  0
   -7.0150    2.4542  -11.2018 C   0  0  0  0  0  0  0  0  0  0  0  0
   -6.7196    2.6049   -9.7132 C   0  0  0  0  0  0  0  0  0  0  0  0
   -7.4644    3.7383   -8.9729 C   0  0  2  0  0  0  0  0  0  0  0  0
   -8.8353    3.5408   -8.4572 N   0  0  0  0  0  0  0  0  0  0  0  0
   -8.8630    3.5207   -6.9925 C   0  0  0  0  0  0  0  0  0  0  0  0
   -9.5326    2.3642   -8.9569 C   0  0  0  0  0  0  0  0  0  0  0  0
   -7.4801    5.0118   -9.8341 C   0  0  0  0  0  0  0  0  0  0  0  0
   -7.9170    4.7773  -11.2746 C   0  0  0  0  0  0  0  0  0  0  0  0
   -9.2757    3.9517  -16.4001 C   0  0  0  0  0  0  0  0  0  0  0  0
   -9.2290    3.9554  -17.7722 C   0  0  0  0  0  0  0  0  0  0  0  0
  -10.3045    3.5711  -18.4646 F   0  0  0  0  0  0  0  0  0  0  0  0
   -8.0887    4.3712  -18.4431 C   0  0  0  0  0  0  0  0  0  0  0  0
   -6.9485    4.8095  -17.7422 C   0  0  0  0  0  0  0  0  0  0  0  0
   -5.7714    5.4686  -18.4613 C   0  0  2  0  0  0  0  0  0  0  0  0
   -5.4988    4.9604  -19.8795 C   0  0  0  0  0  0  0  0  0  0  0  0
   -4.8224    5.9642  -20.6421 O   0  0  0  0  0  0  0  0  0  0  0  0
  1  2  1  0
  2  3  1  0
  4  2  1  6
  4  5  1  0
  5  6  1  0
  7  6  1  1
  7  8  1  0
  7  9  1  0
  9 10  1  1
  9 11  1  0
 11 12  1  0
 12 13  2  0
 13 14  1  0
 14 15  2  0
 14 16  1  0
 16 17  2  0
 18 16  1  6
 18 19  1  0
 19 20  1  0
 20 21  1  0
 21 22  1  6
 22 23  1  0
 22 24  1  0
 21 25  1  0
 25 26  1  0
 13 27  1  0
 27 28  2  0
 28 29  1  0
 28 30  1  0
 30 31  2  0
 31 32  1  0
 32 33  1  6
 33 34  1  0
  8  4  1  0
 31 12  1  0
 32  7  1  0
 26 18  1  0
M  END
>  <smiles>  (393) 
C92397-P98

>  <fragmenstein_outcome>  (393) 
acceptable

>  <inchikey>  (393) 
MRLOOAXAWVWSCZ-UHFFFAOYSA-N

>  <fragmenstein_mode>  (393) 
expansion

>  <HIPPO Pose ID>  (393) 
12731

>  <Energy>  (393) 
203.575527

>  <fragmenstein_error>  (393) 


>  <tags>  (393) 
{'openbind_xx01zvns2b_c1_fragmenstein', 'fragmenstein_placed'}

>  <ref_pdb>  (393) 
1

>  <scratch_subdir>  (393) 
/opt/xchem-fragalysis-2/maxwin/BulkDock/SCRATCH/511027/C92397-P98

>  <alias>  (393) 
CC(C)[C@H]1NN[C@@]2(S1)[C@@H](C)Nc1c(C(=O)C(=O)[C@H]3CC[C@@H](N(C)C)CC3)cc(F)cc1[C@@H]2CO

>  <HIPPO Compound ID>  (393) 
76090

>  <fragmenstein_runtime>  (393) 
15.157059

$$$$
CC(C)[C@H]1NN[C@@]2(S1)[C@@H](C)Nc1c(C(=O)C(=O)[C@H]3CC[C@H](N(C)C)CC3)cc(F)cc1[C@@H]2CO
     RDKit          3D

 34 37  0  0  0  0  0  0  0  0999 V2000
   -0.5782    5.4965  -20.4527 C   0  0  0  0  0  0  0  0  0  0  0  0
   -1.2481    6.5963  -19.6147 C   0  0  0  0  0  0  0  0  0  0  0  0
   -0.2584    7.7649  -19.4876 C   0  0  0  0  0  0  0  0  0  0  0  0
   -1.7055    6.0751  -18.2239 C   0  0  1  0  0  0  0  0  0  0  0  0
   -2.3660    7.0853  -17.3901 N   0  0  0  0  0  0  0  0  0  0  0  0
   -3.8037    7.0647  -17.6522 N   0  0  0  0  0  0  0  0  0  0  0  0
   -4.2781    5.6403  -17.5986 C   0  0  1  0  0  0  0  0  0  0  0  0
   -2.8730    4.6857  -18.3386 S   0  0  0  0  0  0  0  0  0  0  0  0
   -4.5030    5.0829  -16.1372 C   0  0  1  0  0  0  0  0  0  0  0  0
   -3.4271    5.4070  -15.0916 C   0  0  0  0  0  0  0  0  0  0  0  0
   -5.7922    5.5196  -15.5663 N   0  0  0  0  0  0  0  0  0  0  0  0
   -6.8516    4.9363  -16.2957 C   0  0  0  0  0  0  0  0  0  0  0  0
   -8.0112    4.4975  -15.6385 C   0  0  0  0  0  0  0  0  0  0  0  0
   -8.1530    4.4357  -14.1847 C   0  0  0  0  0  0  0  0  0  0  0  0
   -9.0469    5.0919  -13.6587 O   0  0  0  0  0  0  0  0  0  0  0  0
   -7.2707    3.4713  -13.3905 C   0  0  0  0  0  0  0  0  0  0  0  0
   -6.4304    2.7908  -13.9734 O   0  0  0  0  0  0  0  0  0  0  0  0
   -7.5417    3.3466  -11.8933 C   0  0  1  0  0  0  0  0  0  0  0  0
   -6.4538    2.4589  -11.2858 C   0  0  0  0  0  0  0  0  0  0  0  0
   -6.4882    2.3449   -9.7685 C   0  0  0  0  0  0  0  0  0  0  0  0
   -7.0413    3.5707   -9.0079 C   0  0  2  0  0  0  0  0  0  0  0  0
   -8.4371    3.5672   -8.5099 N   0  0  0  0  0  0  0  0  0  0  0  0
   -9.0310    2.2404   -8.3743 C   0  0  0  0  0  0  0  0  0  0  0  0
   -8.5137    4.2561   -7.2159 C   0  0  0  0  0  0  0  0  0  0  0  0
   -6.8599    4.8105   -9.8903 C   0  0  0  0  0  0  0  0  0  0  0  0
   -7.6113    4.7208  -11.2130 C   0  0  0  0  0  0  0  0  0  0  0  0
   -9.1344    4.1113  -16.3479 C   0  0  0  0  0  0  0  0  0  0  0  0
   -9.0992    4.1225  -17.7158 C   0  0  0  0  0  0  0  0  0  0  0  0
  -10.1936    3.7685  -18.3842 F   0  0  0  0  0  0  0  0  0  0  0  0
   -7.9576    4.5026  -18.3986 C   0  0  0  0  0  0  0  0  0  0  0  0
   -6.8168    4.9379  -17.7055 C   0  0  0  0  0  0  0  0  0  0  0  0
   -5.6408    5.5963  -18.4208 C   0  0  2  0  0  0  0  0  0  0  0  0
   -5.4697    5.2223  -19.8976 C   0  0  0  0  0  0  0  0  0  0  0  0
   -4.6400    6.1736  -20.5736 O   0  0  0  0  0  0  0  0  0  0  0  0
  1  2  1  0
  2  3  1  0
  4  2  1  6
  4  5  1  0
  5  6  1  0
  7  6  1  1
  7  8  1  0
  7  9  1  0
  9 10  1  1
  9 11  1  0
 11 12  1  0
 12 13  2  0
 13 14  1  0
 14 15  2  0
 14 16  1  0
 16 17  2  0
 18 16  1  6
 18 19  1  0
 19 20  1  0
 20 21  1  0
 21 22  1  6
 22 23  1  0
 22 24  1  0
 21 25  1  0
 25 26  1  0
 13 27  1  0
 27 28  2  0
 28 29  1  0
 28 30  1  0
 30 31  2  0
 31 32  1  0
 32 33  1  6
 33 34  1  0
  8  4  1  0
 31 12  1  0
 32  7  1  0
 26 18  1  0
M  END
>  <smiles>  (394) 
C92397-P20

>  <fragmenstein_outcome>  (394) 
acceptable

>  <inchikey>  (394) 
NHXOCVKXIXKCRA-UHFFFAOYSA-N

>  <fragmenstein_mode>  (394) 
expansion

>  <HIPPO Pose ID>  (394) 
12732

>  <Energy>  (394) 
205.536263

>  <fragmenstein_error>  (394) 


>  <tags>  (394) 
{'openbind_xx01zvns2b_c1_fragmenstein', 'fragmenstein_placed'}

>  <ref_pdb>  (394) 
1

>  <scratch_subdir>  (394) 
/opt/xchem-fragalysis-2/maxwin/BulkDock/SCRATCH/511027/C92397-P20

>  <alias>  (394) 
CC(C)[C@H]1NN[C@@]2(S1)[C@@H](C)Nc1c(C(=O)C(=O)[C@H]3CC[C@H](N(C)C)CC3)cc(F)cc1[C@@H]2CO

>  <HIPPO Compound ID>  (394) 
92397

>  <fragmenstein_runtime>  (394) 
10.680747

$$$$
CNC[C@H]1C[C@@H](C(=O)C(=O)c2cc(F)cc3c(CO)cc(C)nc23)CC[C@@H]1[NH3+]
     RDKit          3D

 28 30  0  0  0  0  0  0  0  0999 V2000
   -5.0010    5.9317   -7.8779 C   0  0  0  0  0  0  0  0  0  0  0  0
   -5.0749    4.4707   -7.7806 N   0  0  0  0  0  0  0  0  0  0  0  0
   -5.0169    3.8290   -9.1078 C   0  0  0  0  0  0  0  0  0  0  0  0
   -6.3588    3.8798   -9.8534 C   0  0  1  0  0  0  0  0  0  0  0  0
   -6.1479    3.5097  -11.3302 C   0  0  0  0  0  0  0  0  0  0  0  0
   -7.4346    3.8174  -12.0889 C   0  0  1  0  0  0  0  0  0  0  0  0
   -7.3131    3.5191  -13.5592 C   0  0  0  0  0  0  0  0  0  0  0  0
   -6.6132    2.6238  -14.0073 O   0  0  0  0  0  0  0  0  0  0  0  0
   -8.2270    4.3593  -14.4372 C   0  0  0  0  0  0  0  0  0  0  0  0
   -9.1342    5.0146  -13.9281 O   0  0  0  0  0  0  0  0  0  0  0  0
   -8.0522    4.3672  -15.8815 C   0  0  0  0  0  0  0  0  0  0  0  0
   -9.1896    4.0759  -16.6321 C   0  0  0  0  0  0  0  0  0  0  0  0
   -9.0920    4.0801  -17.9987 C   0  0  0  0  0  0  0  0  0  0  0  0
  -10.1632    3.7850  -18.7378 F   0  0  0  0  0  0  0  0  0  0  0  0
   -7.8883    4.3835  -18.6089 C   0  0  0  0  0  0  0  0  0  0  0  0
   -6.7401    4.7200  -17.8516 C   0  0  0  0  0  0  0  0  0  0  0  0
   -5.4980    5.0745  -18.4299 C   0  0  0  0  0  0  0  0  0  0  0  0
   -5.3187    5.1797  -19.9156 C   0  0  0  0  0  0  0  0  0  0  0  0
   -3.9431    5.1400  -20.2984 O   0  0  0  0  0  0  0  0  0  0  0  0
   -4.4255    5.3882  -17.5945 C   0  0  0  0  0  0  0  0  0  0  0  0
   -4.5980    5.3479  -16.2261 C   0  0  0  0  0  0  0  0  0  0  0  0
   -3.4407    5.6510  -15.3274 C   0  0  0  0  0  0  0  0  0  0  0  0
   -5.7805    5.0451  -15.6510 N   0  0  0  0  0  0  0  0  0  0  0  0
   -6.8234    4.7089  -16.4424 C   0  0  0  0  0  0  0  0  0  0  0  0
   -8.6020    3.0164  -11.5346 C   0  0  0  0  0  0  0  0  0  0  0  0
   -8.7926    3.2257  -10.0435 C   0  0  0  0  0  0  0  0  0  0  0  0
   -7.4915    2.9930   -9.2856 C   0  0  2  0  0  0  0  0  0  0  0  0
   -7.7519    3.3141   -7.8712 N   0  0  0  0  0  0  0  0  0  0  0  0
  1  2  1  0
  2  3  1  0
  4  3  1  1
  4  5  1  0
  5  6  1  0
  6  7  1  6
  7  8  2  0
  7  9  1  0
  9 10  2  0
  9 11  1  0
 11 12  2  0
 12 13  1  0
 13 14  1  0
 13 15  2  0
 15 16  1  0
 16 17  2  0
 17 18  1  0
 18 19  1  0
 17 20  1  0
 20 21  2  0
 21 22  1  0
 21 23  1  0
 23 24  2  0
  6 25  1  0
 25 26  1  0
 26 27  1  0
 27 28  1  1
 27  4  1  0
 24 11  1  0
 24 16  1  0
M  CHG  1  28   1
M  END
>  <smiles>  (395) 
C92409-P98

>  <fragmenstein_outcome>  (395) 
acceptable

>  <inchikey>  (395) 
LVNSAEPZBFXVRG-UHFFFAOYSA-N

>  <fragmenstein_mode>  (395) 
expansion

>  <HIPPO Pose ID>  (395) 
12735

>  <Energy>  (395) 
66.532179

>  <fragmenstein_error>  (395) 


>  <tags>  (395) 
{'openbind_xx01zvns2b_c1_fragmenstein', 'fragmenstein_placed'}

>  <ref_pdb>  (395) 
1

>  <scratch_subdir>  (395) 
/opt/xchem-fragalysis-2/maxwin/BulkDock/SCRATCH/511027/C92409-P98

>  <alias>  (395) 
CNC[C@H]1C[C@@H](C(=O)C(=O)c2cc(F)cc3c(CO)cc(C)nc23)CC[C@@H]1[NH3+]

>  <HIPPO Compound ID>  (395) 
97683

>  <fragmenstein_runtime>  (395) 
5.097979

$$$$
CNCc1c(C)nc2c(C(=O)C(=O)[C@H]3CCc4c(ccn4C)C3)cc(F)cc2c1CO
     RDKit          3D

 31 34  0  0  0  0  0  0  0  0999 V2000
   -1.0967    5.2216  -20.2739 C   0  0  0  0  0  0  0  0  0  0  0  0
   -2.2082    4.7601  -19.4551 N   0  0  0  0  0  0  0  0  0  0  0  0
   -2.7326    5.8581  -18.6344 C   0  0  0  0  0  0  0  0  0  0  0  0
   -3.9640    5.4360  -17.8585 C   0  0  0  0  0  0  0  0  0  0  0  0
   -3.9516    5.3683  -16.4683 C   0  0  0  0  0  0  0  0  0  0  0  0
   -2.7333    5.6641  -15.6435 C   0  0  0  0  0  0  0  0  0  0  0  0
   -5.0604    5.1019  -15.7472 N   0  0  0  0  0  0  0  0  0  0  0  0
   -6.2298    4.8393  -16.3612 C   0  0  0  0  0  0  0  0  0  0  0  0
   -7.3745    4.6025  -15.6007 C   0  0  0  0  0  0  0  0  0  0  0  0
   -7.2424    4.7245  -14.1539 C   0  0  0  0  0  0  0  0  0  0  0  0
   -7.3642    5.8167  -13.6227 O   0  0  0  0  0  0  0  0  0  0  0  0
   -6.9167    3.4386  -13.4006 C   0  0  0  0  0  0  0  0  0  0  0  0
   -6.2989    2.5632  -14.0022 O   0  0  0  0  0  0  0  0  0  0  0  0
   -7.4390    3.2360  -11.9987 C   0  0  1  0  0  0  0  0  0  0  0  0
   -6.4568    2.2817  -11.2701 C   0  0  0  0  0  0  0  0  0  0  0  0
   -6.7433    2.0329   -9.7847 C   0  0  0  0  0  0  0  0  0  0  0  0
   -7.7008    3.0235   -9.2334 C   0  0  0  0  0  0  0  0  0  0  0  0
   -8.0349    4.2191   -9.8236 C   0  0  0  0  0  0  0  0  0  0  0  0
   -8.7412    4.9745   -8.8722 C   0  0  0  0  0  0  0  0  0  0  0  0
   -8.9617    4.1540   -7.7882 C   0  0  0  0  0  0  0  0  0  0  0  0
   -8.4432    2.9186   -8.0897 N   0  0  0  0  0  0  0  0  0  0  0  0
   -8.7021    1.7292   -7.3154 C   0  0  0  0  0  0  0  0  0  0  0  0
   -7.6409    4.5411  -11.2097 C   0  0  0  0  0  0  0  0  0  0  0  0
   -8.6189    4.2722  -16.1339 C   0  0  0  0  0  0  0  0  0  0  0  0
   -8.7191    4.1852  -17.5027 C   0  0  0  0  0  0  0  0  0  0  0  0
   -9.8832    3.8360  -18.0624 F   0  0  0  0  0  0  0  0  0  0  0  0
   -7.6220    4.4717  -18.3092 C   0  0  0  0  0  0  0  0  0  0  0  0
   -6.3553    4.8153  -17.7570 C   0  0  0  0  0  0  0  0  0  0  0  0
   -5.1940    5.1651  -18.5111 C   0  0  0  0  0  0  0  0  0  0  0  0
   -5.3085    5.4074  -19.9905 C   0  0  0  0  0  0  0  0  0  0  0  0
   -5.8048    6.7328  -20.1568 O   0  0  0  0  0  0  0  0  0  0  0  0
  1  2  1  0
  2  3  1  0
  3  4  1  0
  4  5  2  0
  5  6  1  0
  5  7  1  0
  7  8  2  0
  8  9  1  0
  9 10  1  0
 10 11  2  0
 10 12  1  0
 12 13  2  0
 14 12  1  6
 14 15  1  0
 15 16  1  0
 16 17  1  0
 17 18  2  0
 18 19  1  0
 19 20  2  0
 20 21  1  0
 21 22  1  0
 18 23  1  0
  9 24  2  0
 24 25  1  0
 25 26  1  0
 25 27  2  0
 27 28  1  0
 28 29  2  0
 29 30  1  0
 30 31  1  0
 29  4  1  0
 28  8  1  0
 23 14  1  0
 21 17  1  0
M  END
>  <smiles>  (396) 
C92427-P98

>  <fragmenstein_outcome>  (396) 
acceptable

>  <inchikey>  (396) 
IRDGZQHYCVNQOS-UHFFFAOYSA-N

>  <fragmenstein_mode>  (396) 
expansion

>  <HIPPO Pose ID>  (396) 
12750

>  <Energy>  (396) 
85.210286

>  <fragmenstein_error>  (396) 


>  <tags>  (396) 
{'openbind_xx01zvns2b_c1_fragmenstein', 'fragmenstein_placed'}

>  <ref_pdb>  (396) 
1

>  <scratch_subdir>  (396) 
/opt/xchem-fragalysis-2/maxwin/BulkDock/SCRATCH/511027/C92427-P98

>  <alias>  (396) 
CNCc1c(C)nc2c(C(=O)C(=O)[C@H]3CCc4c(ccn4C)C3)cc(F)cc2c1CO

>  <HIPPO Compound ID>  (396) 
96582

>  <fragmenstein_runtime>  (396) 
6.153303

$$$$
CNC[C@@]1(C)C[C@@H](C)Nc2c(C(=O)C(=O)[C@H]3CC[C@@H]([NH3+])CC3)cccc21
     RDKit          3D

 26 28  0  0  0  0  0  0  0  0999 V2000
   -4.8312    8.6240  -20.5397 C   0  0  0  0  0  0  0  0  0  0  0  0
   -4.5152    7.6893  -19.4696 N   0  0  0  0  0  0  0  0  0  0  0  0
   -5.6990    6.9048  -19.0732 C   0  0  0  0  0  0  0  0  0  0  0  0
   -5.3914    5.7166  -18.1041 C   0  0  1  0  0  0  0  0  0  0  0  0
   -4.5392    4.6832  -18.8599 C   0  0  0  0  0  0  0  0  0  0  0  0
   -4.5460    6.2595  -16.9224 C   0  0  0  0  0  0  0  0  0  0  0  0
   -4.6805    5.3778  -15.6899 C   0  0  1  0  0  0  0  0  0  0  0  0
   -3.8219    5.8757  -14.5393 C   0  0  0  0  0  0  0  0  0  0  0  0
   -6.0640    5.4427  -15.2422 N   0  0  0  0  0  0  0  0  0  0  0  0
   -6.9462    4.9148  -16.2122 C   0  0  0  0  0  0  0  0  0  0  0  0
   -8.1705    4.3782  -15.7765 C   0  0  0  0  0  0  0  0  0  0  0  0
   -8.4150    4.1895  -14.3370 C   0  0  0  0  0  0  0  0  0  0  0  0
   -9.3944    4.6975  -13.8005 O   0  0  0  0  0  0  0  0  0  0  0  0
   -7.4395    3.3144  -13.5366 C   0  0  0  0  0  0  0  0  0  0  0  0
   -6.5121    2.7338  -14.0899 O   0  0  0  0  0  0  0  0  0  0  0  0
   -7.7552    3.0829  -12.0670 C   0  0  1  0  0  0  0  0  0  0  0  0
   -6.7087    2.1130  -11.4742 C   0  0  0  0  0  0  0  0  0  0  0  0
   -6.8095    1.9688   -9.9575 C   0  0  0  0  0  0  0  0  0  0  0  0
   -8.1283    2.5336   -9.4425 C   0  0  1  0  0  0  0  0  0  0  0  0
   -8.2605    2.2333   -8.0074 N   0  0  0  0  0  0  0  0  0  0  0  0
   -8.1760    4.0331   -9.7246 C   0  0  0  0  0  0  0  0  0  0  0  0
   -7.8198    4.3464  -11.1965 C   0  0  0  0  0  0  0  0  0  0  0  0
   -9.1616    4.0033  -16.6793 C   0  0  0  0  0  0  0  0  0  0  0  0
   -8.8989    4.0810  -18.0392 C   0  0  0  0  0  0  0  0  0  0  0  0
   -7.6689    4.5775  -18.4831 C   0  0  0  0  0  0  0  0  0  0  0  0
   -6.6944    5.0607  -17.5913 C   0  0  0  0  0  0  0  0  0  0  0  0
  1  2  1  0
  2  3  1  0
  3  4  1  0
  4  5  1  6
  4  6  1  0
  6  7  1  0
  7  8  1  1
  7  9  1  0
  9 10  1  0
 10 11  2  0
 11 12  1  0
 12 13  2  0
 12 14  1  0
 14 15  2  0
 16 14  1  6
 16 17  1  0
 17 18  1  0
 18 19  1  0
 19 20  1  1
 19 21  1  0
 21 22  1  0
 11 23  1  0
 23 24  2  0
 24 25  1  0
 25 26  2  0
 26  4  1  0
 26 10  1  0
 22 16  1  0
M  CHG  1  20   1
M  END
>  <smiles>  (397) 
C92443-P98

>  <fragmenstein_outcome>  (397) 
acceptable

>  <inchikey>  (397) 
WTRIBVMLZFDFFO-UHFFFAOYSA-O

>  <fragmenstein_mode>  (397) 
expansion

>  <HIPPO Pose ID>  (397) 
12762

>  <Energy>  (397) 
118.810031

>  <fragmenstein_error>  (397) 


>  <tags>  (397) 
{'openbind_xx01zvns2b_c1_fragmenstein', 'fragmenstein_placed'}

>  <ref_pdb>  (397) 
1

>  <scratch_subdir>  (397) 
/opt/xchem-fragalysis-2/maxwin/BulkDock/SCRATCH/511027/C92443-P98

>  <alias>  (397) 
CNC[C@@]1(C)C[C@@H](C)Nc2c(C(=O)C(=O)[C@H]3CC[C@@H]([NH3+])CC3)cccc21

>  <HIPPO Compound ID>  (397) 
92443

>  <fragmenstein_runtime>  (397) 
4.822545

$$$$
CNC[C@]1(C)C[C@H](C)Nc2c(C(=O)C(=O)[C@H]3CC[C@H]([NH3+])CC3)cc(Cl)cc21
     RDKit          3D

 27 29  0  0  0  0  0  0  0  0999 V2000
   -2.6312    5.2357  -20.2671 C   0  0  0  0  0  0  0  0  0  0  0  0
   -3.9254    5.8850  -20.2943 N   0  0  0  0  0  0  0  0  0  0  0  0
   -4.9790    5.2622  -19.4829 C   0  0  0  0  0  0  0  0  0  0  0  0
   -5.1833    5.8448  -18.0440 C   0  0  2  0  0  0  0  0  0  0  0  0
   -5.5379    7.3478  -18.1562 C   0  0  0  0  0  0  0  0  0  0  0  0
   -3.8652    5.6686  -17.2631 C   0  0  0  0  0  0  0  0  0  0  0  0
   -3.9960    6.0555  -15.8014 C   0  0  2  0  0  0  0  0  0  0  0  0
   -2.6788    5.8014  -15.0735 C   0  0  0  0  0  0  0  0  0  0  0  0
   -5.0286    5.2710  -15.1539 N   0  0  0  0  0  0  0  0  0  0  0  0
   -6.2167    5.0102  -15.8529 C   0  0  0  0  0  0  0  0  0  0  0  0
   -7.3052    4.4459  -15.1549 C   0  0  0  0  0  0  0  0  0  0  0  0
   -7.2314    4.2895  -13.7020 C   0  0  0  0  0  0  0  0  0  0  0  0
   -7.1288    5.2731  -12.9785 O   0  0  0  0  0  0  0  0  0  0  0  0
   -7.2590    2.8909  -13.1089 C   0  0  0  0  0  0  0  0  0  0  0  0
   -7.1612    1.8961  -13.8121 O   0  0  0  0  0  0  0  0  0  0  0  0
   -7.3945    2.7496  -11.6233 C   0  0  1  0  0  0  0  0  0  0  0  0
   -6.2112    3.3297  -10.8720 C   0  0  0  0  0  0  0  0  0  0  0  0
   -6.2791    2.8976   -9.4159 C   0  0  0  0  0  0  0  0  0  0  0  0
   -7.6926    2.9669   -8.8102 C   0  0  2  0  0  0  0  0  0  0  0  0
   -8.2099    1.5963   -8.5809 N   0  0  0  0  0  0  0  0  0  0  0  0
   -8.6843    3.7349   -9.6683 C   0  0  0  0  0  0  0  0  0  0  0  0
   -8.7422    3.2535  -11.1142 C   0  0  0  0  0  0  0  0  0  0  0  0
   -8.4889    4.0910  -15.7823 C   0  0  0  0  0  0  0  0  0  0  0  0
   -8.5811    4.2584  -17.1492 C   0  0  0  0  0  0  0  0  0  0  0  0
  -10.0515    3.8612  -17.9157 Cl  0  0  0  0  0  0  0  0  0  0  0  0
   -7.5201    4.7867  -17.8853 C   0  0  0  0  0  0  0  0  0  0  0  0
   -6.3183    5.1661  -17.2547 C   0  0  0  0  0  0  0  0  0  0  0  0
  1  2  1  0
  2  3  1  0
  3  4  1  0
  4  5  1  6
  4  6  1  0
  6  7  1  0
  7  8  1  1
  7  9  1  0
  9 10  1  0
 10 11  2  0
 11 12  1  0
 12 13  2  0
 12 14  1  0
 14 15  2  0
 16 14  1  6
 16 17  1  0
 17 18  1  0
 18 19  1  0
 19 20  1  6
 19 21  1  0
 21 22  1  0
 11 23  1  0
 23 24  2  0
 24 25  1  0
 24 26  1  0
 26 27  2  0
 27  4  1  0
 27 10  1  0
 22 16  1  0
M  CHG  1  20   1
M  END
>  <smiles>  (398) 
C92446-P98

>  <fragmenstein_outcome>  (398) 
acceptable

>  <inchikey>  (398) 
YMOOJLMRFICRHB-UHFFFAOYSA-N

>  <fragmenstein_mode>  (398) 
expansion

>  <HIPPO Pose ID>  (398) 
12768

>  <Energy>  (398) 
111.164234

>  <fragmenstein_error>  (398) 


>  <tags>  (398) 
{'openbind_xx01zvns2b_c1_fragmenstein', 'fragmenstein_placed'}

>  <ref_pdb>  (398) 
1

>  <scratch_subdir>  (398) 
/opt/xchem-fragalysis-2/maxwin/BulkDock/SCRATCH/511027/C92446-P98

>  <alias>  (398) 
CNC[C@]1(C)C[C@H](C)Nc2c(C(=O)C(=O)[C@H]3CC[C@H]([NH3+])CC3)cc(Cl)cc21

>  <HIPPO Compound ID>  (398) 
73328

>  <fragmenstein_runtime>  (398) 
4.744233

$$$$
Cc1cc(CO)c2cc(Cl)cc(C(=O)C(=O)[C@@H]3CCc4c(ccn4C)C3)c2n1
     RDKit          3D

 28 31  0  0  0  0  0  0  0  0999 V2000
   -3.1699    5.6183  -15.3718 C   0  0  0  0  0  0  0  0  0  0  0  0
   -4.3673    5.2881  -16.2093 C   0  0  0  0  0  0  0  0  0  0  0  0
   -4.2989    5.3510  -17.5867 C   0  0  0  0  0  0  0  0  0  0  0  0
   -5.4388    5.0594  -18.3439 C   0  0  0  0  0  0  0  0  0  0  0  0
   -5.3320    5.2226  -19.8306 C   0  0  0  0  0  0  0  0  0  0  0  0
   -5.7028    6.5573  -20.1472 O   0  0  0  0  0  0  0  0  0  0  0  0
   -6.6419    4.7097  -17.6829 C   0  0  0  0  0  0  0  0  0  0  0  0
   -7.8690    4.4536  -18.3458 C   0  0  0  0  0  0  0  0  0  0  0  0
   -9.0312    4.1909  -17.6306 C   0  0  0  0  0  0  0  0  0  0  0  0
  -10.5438    4.1099  -18.4046 Cl  0  0  0  0  0  0  0  0  0  0  0  0
   -8.9968    4.1143  -16.2612 C   0  0  0  0  0  0  0  0  0  0  0  0
   -7.7897    4.3464  -15.6128 C   0  0  0  0  0  0  0  0  0  0  0  0
   -7.8477    4.3959  -14.1595 C   0  0  0  0  0  0  0  0  0  0  0  0
   -8.6353    5.1861  -13.6582 O   0  0  0  0  0  0  0  0  0  0  0  0
   -6.9821    3.4294  -13.3565 C   0  0  0  0  0  0  0  0  0  0  0  0
   -6.4134    2.5240  -13.9656 O   0  0  0  0  0  0  0  0  0  0  0  0
   -6.8399    3.5916  -11.8502 C   0  0  2  0  0  0  0  0  0  0  0  0
   -6.8755    2.1565  -11.2762 C   0  0  0  0  0  0  0  0  0  0  0  0
   -6.8331    2.0784   -9.7509 C   0  0  0  0  0  0  0  0  0  0  0  0
   -7.7598    3.0769   -9.1681 C   0  0  0  0  0  0  0  0  0  0  0  0
   -8.0976    4.2667   -9.7657 C   0  0  0  0  0  0  0  0  0  0  0  0
   -8.6968    5.0747   -8.7804 C   0  0  0  0  0  0  0  0  0  0  0  0
   -8.9266    4.2614   -7.6916 C   0  0  0  0  0  0  0  0  0  0  0  0
   -8.4635    3.0060   -7.9988 N   0  0  0  0  0  0  0  0  0  0  0  0
   -8.7699    1.8370   -7.2125 C   0  0  0  0  0  0  0  0  0  0  0  0
   -7.8865    4.5171  -11.2059 C   0  0  0  0  0  0  0  0  0  0  0  0
   -6.6083    4.6627  -16.2726 C   0  0  0  0  0  0  0  0  0  0  0  0
   -5.5016    4.9644  -15.5617 N   0  0  0  0  0  0  0  0  0  0  0  0
  1  2  1  0
  2  3  2  0
  3  4  1  0
  4  5  1  0
  5  6  1  0
  4  7  2  0
  7  8  1  0
  8  9  2  0
  9 10  1  0
  9 11  1  0
 11 12  2  0
 12 13  1  0
 13 14  2  0
 13 15  1  0
 15 16  2  0
 17 15  1  6
 17 18  1  0
 18 19  1  0
 19 20  1  0
 20 21  2  0
 21 22  1  0
 22 23  2  0
 23 24  1  0
 24 25  1  0
 21 26  1  0
 12 27  1  0
 27 28  2  0
 28  2  1  0
 27  7  1  0
 26 17  1  0
 24 20  1  0
M  END
>  <smiles>  (399) 
C92375-P98

>  <fragmenstein_outcome>  (399) 
acceptable

>  <inchikey>  (399) 
QUHVCSUZSBXOPN-UHFFFAOYSA-O

>  <fragmenstein_mode>  (399) 
expansion

>  <HIPPO Pose ID>  (399) 
12790

>  <Energy>  (399) 
83.882774

>  <fragmenstein_error>  (399) 


>  <tags>  (399) 
{'openbind_xx01zvns2b_c1_fragmenstein', 'fragmenstein_placed'}

>  <ref_pdb>  (399) 
1

>  <scratch_subdir>  (399) 
/opt/xchem-fragalysis-2/maxwin/BulkDock/SCRATCH/511027/C92375-P98

>  <alias>  (399) 
Cc1cc(CO)c2cc(Cl)cc(C(=O)C(=O)[C@@H]3CCc4c(ccn4C)C3)c2n1

>  <HIPPO Compound ID>  (399) 
90892

>  <fragmenstein_runtime>  (399) 
2.756833

$$$$
Cc1nc2c(C(=O)C(=O)[C@@H]3CCc4c(ccn4C)C3)cccc2c(CO)c1N
     RDKit          3D

 28 31  0  0  0  0  0  0  0  0999 V2000
   -3.1794    5.9198  -15.6057 C   0  0  0  0  0  0  0  0  0  0  0  0
   -4.3498    5.4785  -16.4348 C   0  0  0  0  0  0  0  0  0  0  0  0
   -5.4360    5.0908  -15.7405 N   0  0  0  0  0  0  0  0  0  0  0  0
   -6.5617    4.7473  -16.3963 C   0  0  0  0  0  0  0  0  0  0  0  0
   -7.6955    4.4324  -15.6615 C   0  0  0  0  0  0  0  0  0  0  0  0
   -7.5698    4.5772  -14.2167 C   0  0  0  0  0  0  0  0  0  0  0  0
   -7.8695    5.6434  -13.6988 O   0  0  0  0  0  0  0  0  0  0  0  0
   -6.9738    3.4140  -13.4360 C   0  0  0  0  0  0  0  0  0  0  0  0
   -6.6260    2.4139  -14.0573 O   0  0  0  0  0  0  0  0  0  0  0  0
   -6.7653    3.5517  -11.9398 C   0  0  2  0  0  0  0  0  0  0  0  0
   -6.7048    2.1085  -11.3823 C   0  0  0  0  0  0  0  0  0  0  0  0
   -6.7004    2.0076   -9.8613 C   0  0  0  0  0  0  0  0  0  0  0  0
   -7.7293    2.9141   -9.3033 C   0  0  0  0  0  0  0  0  0  0  0  0
   -8.1328    4.0882   -9.8868 C   0  0  0  0  0  0  0  0  0  0  0  0
   -8.8313    4.8144   -8.9072 C   0  0  0  0  0  0  0  0  0  0  0  0
   -9.0356    3.9660   -7.8429 C   0  0  0  0  0  0  0  0  0  0  0  0
   -8.4638    2.7627   -8.1614 N   0  0  0  0  0  0  0  0  0  0  0  0
   -8.6705    1.5575   -7.4026 C   0  0  0  0  0  0  0  0  0  0  0  0
   -7.8353    4.4440  -11.2852 C   0  0  0  0  0  0  0  0  0  0  0  0
   -8.9234    4.0872  -16.2269 C   0  0  0  0  0  0  0  0  0  0  0  0
   -9.0247    4.0382  -17.6046 C   0  0  0  0  0  0  0  0  0  0  0  0
   -7.9054    4.3558  -18.3778 C   0  0  0  0  0  0  0  0  0  0  0  0
   -6.6564    4.7256  -17.7950 C   0  0  0  0  0  0  0  0  0  0  0  0
   -5.4815    5.0985  -18.5113 C   0  0  0  0  0  0  0  0  0  0  0  0
   -5.4332    5.0427  -20.0077 C   0  0  0  0  0  0  0  0  0  0  0  0
   -5.5365    6.3598  -20.5297 O   0  0  0  0  0  0  0  0  0  0  0  0
   -4.3156    5.5083  -17.8264 C   0  0  0  0  0  0  0  0  0  0  0  0
   -3.2353    6.0857  -18.5069 N   0  0  0  0  0  0  0  0  0  0  0  0
  1  2  1  0
  2  3  2  0
  3  4  1  0
  4  5  2  0
  5  6  1  0
  6  7  2  0
  6  8  1  0
  8  9  2  0
 10  8  1  6
 10 11  1  0
 11 12  1  0
 12 13  1  0
 13 14  2  0
 14 15  1  0
 15 16  2  0
 16 17  1  0
 17 18  1  0
 14 19  1  0
  5 20  1  0
 20 21  2  0
 21 22  1  0
 22 23  2  0
 23 24  1  0
 24 25  1  0
 25 26  1  0
 24 27  2  0
 27 28  1  0
 27  2  1  0
 23  4  1  0
 19 10  1  0
 17 13  1  0
M  END
>  <smiles>  (400) 
C92481-P98

>  <fragmenstein_outcome>  (400) 
acceptable

>  <inchikey>  (400) 
LBZLGCAQXUEBAA-UHFFFAOYSA-N

>  <fragmenstein_mode>  (400) 
expansion

>  <HIPPO Pose ID>  (400) 
12795

>  <Energy>  (400) 
122.689529

>  <fragmenstein_error>  (400) 


>  <tags>  (400) 
{'openbind_xx01zvns2b_c1_fragmenstein', 'fragmenstein_placed'}

>  <ref_pdb>  (400) 
1

>  <scratch_subdir>  (400) 
/opt/xchem-fragalysis-2/maxwin/BulkDock/SCRATCH/511027/C92481-P98

>  <alias>  (400) 
Cc1nc2c(C(=O)C(=O)[C@@H]3CCc4c(ccn4C)C3)cccc2c(CO)c1N

>  <HIPPO Compound ID>  (400) 
104397

>  <fragmenstein_runtime>  (400) 
2.923523

$$$$
CNCc1cc(C)nc2c(C(=O)C(=O)[C@H]3CCc4c(ccn4C)C3)cc(F)cc12
     RDKit          3D

 29 32  0  0  0  0  0  0  0  0999 V2000
   -4.9448    7.6592  -19.7071 C   0  0  0  0  0  0  0  0  0  0  0  0
   -5.4890    6.5029  -20.3820 N   0  0  0  0  0  0  0  0  0  0  0  0
   -5.1568    5.2022  -19.8066 C   0  0  0  0  0  0  0  0  0  0  0  0
   -5.4285    5.0699  -18.3276 C   0  0  0  0  0  0  0  0  0  0  0  0
   -4.3541    5.3501  -17.4778 C   0  0  0  0  0  0  0  0  0  0  0  0
   -4.5454    5.3271  -16.1140 C   0  0  0  0  0  0  0  0  0  0  0  0
   -3.4042    5.6332  -15.1975 C   0  0  0  0  0  0  0  0  0  0  0  0
   -5.7375    5.0417  -15.5586 N   0  0  0  0  0  0  0  0  0  0  0  0
   -6.7731    4.6916  -16.3492 C   0  0  0  0  0  0  0  0  0  0  0  0
   -7.9920    4.3220  -15.7793 C   0  0  0  0  0  0  0  0  0  0  0  0
   -8.1469    4.2744  -14.3215 C   0  0  0  0  0  0  0  0  0  0  0  0
   -9.0383    4.9350  -13.8005 O   0  0  0  0  0  0  0  0  0  0  0  0
   -7.2553    3.3451  -13.4986 C   0  0  0  0  0  0  0  0  0  0  0  0
   -6.4117    2.6550  -14.0609 O   0  0  0  0  0  0  0  0  0  0  0  0
   -7.5598    3.2250  -12.0238 C   0  0  1  0  0  0  0  0  0  0  0  0
   -6.5921    2.1996  -11.3730 C   0  0  0  0  0  0  0  0  0  0  0  0
   -6.7444    2.0414   -9.8506 C   0  0  0  0  0  0  0  0  0  0  0  0
   -7.6218    3.0958   -9.2770 C   0  0  0  0  0  0  0  0  0  0  0  0
   -7.8758    4.3165   -9.8620 C   0  0  0  0  0  0  0  0  0  0  0  0
   -8.5539    5.1022   -8.9097 C   0  0  0  0  0  0  0  0  0  0  0  0
   -8.8430    4.2781   -7.8403 C   0  0  0  0  0  0  0  0  0  0  0  0
   -8.4070    3.0158   -8.1601 N   0  0  0  0  0  0  0  0  0  0  0  0
   -8.8507    1.8123   -7.5037 C   0  0  0  0  0  0  0  0  0  0  0  0
   -7.4839    4.5736  -11.2715 C   0  0  0  0  0  0  0  0  0  0  0  0
   -9.1248    4.0274  -16.5389 C   0  0  0  0  0  0  0  0  0  0  0  0
   -9.0260    4.0530  -17.9101 C   0  0  0  0  0  0  0  0  0  0  0  0
  -10.0988    3.7681  -18.6530 F   0  0  0  0  0  0  0  0  0  0  0  0
   -7.8244    4.3772  -18.5232 C   0  0  0  0  0  0  0  0  0  0  0  0
   -6.6798    4.7132  -17.7625 C   0  0  0  0  0  0  0  0  0  0  0  0
  1  2  1  0
  2  3  1  0
  3  4  1  0
  4  5  2  0
  5  6  1  0
  6  7  1  0
  6  8  2  0
  8  9  1  0
  9 10  2  0
 10 11  1  0
 11 12  2  0
 11 13  1  0
 13 14  2  0
 15 13  1  6
 15 16  1  0
 16 17  1  0
 17 18  1  0
 18 19  2  0
 19 20  1  0
 20 21  2  0
 21 22  1  0
 22 23  1  0
 19 24  1  0
 10 25  1  0
 25 26  2  0
 26 27  1  0
 26 28  1  0
 28 29  2  0
 29  4  1  0
 29  9  1  0
 24 15  1  0
 22 18  1  0
M  END
>  <smiles>  (401) 
C92495-P98

>  <fragmenstein_outcome>  (401) 
acceptable

>  <inchikey>  (401) 
PAVIKKPKFSDSHL-UHFFFAOYSA-N

>  <fragmenstein_mode>  (401) 
expansion

>  <HIPPO Pose ID>  (401) 
12804

>  <Energy>  (401) 
78.084085

>  <fragmenstein_error>  (401) 


>  <tags>  (401) 
{'openbind_xx01zvns2b_c1_fragmenstein', 'fragmenstein_placed'}

>  <ref_pdb>  (401) 
1

>  <scratch_subdir>  (401) 
/opt/xchem-fragalysis-2/maxwin/BulkDock/SCRATCH/511027/C92495-P98

>  <alias>  (401) 
CNCc1cc(C)nc2c(C(=O)C(=O)[C@H]3CCc4c(ccn4C)C3)cc(F)cc12

>  <HIPPO Compound ID>  (401) 
89533

>  <fragmenstein_runtime>  (401) 
4.173812

$$$$
Cc1cc(COC2CNC2)c2cc(Cl)cc(C(=O)C(=O)[C@@H]3CCc4c(ccn4C)C3)c2n1
     RDKit          3D

 32 36  0  0  0  0  0  0  0  0999 V2000
   -2.9382    5.6896  -15.3383 C   0  0  0  0  0  0  0  0  0  0  0  0
   -4.1556    5.4450  -16.1753 C   0  0  0  0  0  0  0  0  0  0  0  0
   -4.1726    5.7755  -17.5118 C   0  0  0  0  0  0  0  0  0  0  0  0
   -5.3258    5.5525  -18.2783 C   0  0  0  0  0  0  0  0  0  0  0  0
   -5.3469    6.0391  -19.7111 C   0  0  0  0  0  0  0  0  0  0  0  0
   -4.2094    6.8707  -20.0054 O   0  0  0  0  0  0  0  0  0  0  0  0
   -3.2799    6.3530  -20.9831 C   0  0  0  0  0  0  0  0  0  0  0  0
   -1.9585    7.1278  -21.1941 C   0  0  0  0  0  0  0  0  0  0  0  0
   -1.2728    5.8147  -21.3733 N   0  0  0  0  0  0  0  0  0  0  0  0
   -2.3274    5.2162  -20.5243 C   0  0  0  0  0  0  0  0  0  0  0  0
   -6.4628    4.9647  -17.6537 C   0  0  0  0  0  0  0  0  0  0  0  0
   -7.6927    4.6462  -18.2912 C   0  0  0  0  0  0  0  0  0  0  0  0
   -8.8097    4.2360  -17.5565 C   0  0  0  0  0  0  0  0  0  0  0  0
  -10.3260    4.0215  -18.3093 Cl  0  0  0  0  0  0  0  0  0  0  0  0
   -8.7402    4.1247  -16.1861 C   0  0  0  0  0  0  0  0  0  0  0  0
   -7.5173    4.3833  -15.5842 C   0  0  0  0  0  0  0  0  0  0  0  0
   -7.4568    4.5041  -14.1400 C   0  0  0  0  0  0  0  0  0  0  0  0
   -7.7792    5.5710  -13.6383 O   0  0  0  0  0  0  0  0  0  0  0  0
   -6.9141    3.3379  -13.3423 C   0  0  0  0  0  0  0  0  0  0  0  0
   -6.6065    2.3177  -13.9530 O   0  0  0  0  0  0  0  0  0  0  0  0
   -6.7140    3.5014  -11.8479 C   0  0  2  0  0  0  0  0  0  0  0  0
   -6.7275    2.0703  -11.2714 C   0  0  0  0  0  0  0  0  0  0  0  0
   -6.7389    1.9953   -9.7515 C   0  0  0  0  0  0  0  0  0  0  0  0
   -7.7262    2.9572   -9.2104 C   0  0  0  0  0  0  0  0  0  0  0  0
   -8.0715    4.1418   -9.8105 C   0  0  0  0  0  0  0  0  0  0  0  0
   -8.7414    4.9175   -8.8447 C   0  0  0  0  0  0  0  0  0  0  0  0
   -8.9892    4.0893   -7.7720 C   0  0  0  0  0  0  0  0  0  0  0  0
   -8.4651    2.8566   -8.0661 N   0  0  0  0  0  0  0  0  0  0  0  0
   -8.7124    1.6768   -7.2771 C   0  0  0  0  0  0  0  0  0  0  0  0
   -7.7528    4.4514  -11.2160 C   0  0  0  0  0  0  0  0  0  0  0  0
   -6.3690    4.7542  -16.2664 C   0  0  0  0  0  0  0  0  0  0  0  0
   -5.2427    4.9665  -15.5594 N   0  0  0  0  0  0  0  0  0  0  0  0
  1  2  1  0
  2  3  2  0
  3  4  1  0
  4  5  1  0
  5  6  1  0
  6  7  1  0
  7  8  1  0
  8  9  1  0
  9 10  1  0
  4 11  2  0
 11 12  1  0
 12 13  2  0
 13 14  1  0
 13 15  1  0
 15 16  2  0
 16 17  1  0
 17 18  2  0
 17 19  1  0
 19 20  2  0
 21 19  1  6
 21 22  1  0
 22 23  1  0
 23 24  1  0
 24 25  2  0
 25 26  1  0
 26 27  2  0
 27 28  1  0
 28 29  1  0
 25 30  1  0
 16 31  1  0
 31 32  2  0
 32  2  1  0
 10  7  1  0
 31 11  1  0
 30 21  1  0
 28 24  1  0
M  END
>  <smiles>  (402) 
C92500-P98

>  <fragmenstein_outcome>  (402) 
acceptable

>  <inchikey>  (402) 
NYLOEZWUXPKNMF-UHFFFAOYSA-N

>  <fragmenstein_mode>  (402) 
expansion

>  <HIPPO Pose ID>  (402) 
12807

>  <Energy>  (402) 
117.985374

>  <fragmenstein_error>  (402) 


>  <tags>  (402) 
{'openbind_xx01zvns2b_c1_fragmenstein', 'fragmenstein_placed'}

>  <ref_pdb>  (402) 
1

>  <scratch_subdir>  (402) 
/opt/xchem-fragalysis-2/maxwin/BulkDock/SCRATCH/511027/C92500-P98

>  <alias>  (402) 
Cc1cc(COC2CNC2)c2cc(Cl)cc(C(=O)C(=O)[C@@H]3CCc4c(ccn4C)C3)c2n1

>  <HIPPO Compound ID>  (402) 
83354

>  <fragmenstein_runtime>  (402) 
8.241103

$$$$
Cc1cc(CO)c2cc(F)cc(C(=O)C(=O)[C@H]3C[C@@]4(CCNC4)C3)c2n1
     RDKit          3D

 26 29  0  0  0  0  0  0  0  0999 V2000
   -3.1726    5.6768  -15.3188 C   0  0  0  0  0  0  0  0  0  0  0  0
   -4.4114    5.4139  -16.1217 C   0  0  0  0  0  0  0  0  0  0  0  0
   -4.3639    5.4772  -17.5058 C   0  0  0  0  0  0  0  0  0  0  0  0
   -5.5157    5.1944  -18.2421 C   0  0  0  0  0  0  0  0  0  0  0  0
   -5.5204    5.2995  -19.7471 C   0  0  0  0  0  0  0  0  0  0  0  0
   -4.2213    5.4677  -20.3100 O   0  0  0  0  0  0  0  0  0  0  0  0
   -6.6986    4.8426  -17.5486 C   0  0  0  0  0  0  0  0  0  0  0  0
   -7.8968    4.5009  -18.2193 C   0  0  0  0  0  0  0  0  0  0  0  0
   -9.0401    4.1663  -17.5197 C   0  0  0  0  0  0  0  0  0  0  0  0
  -10.1624    3.8503  -18.1734 F   0  0  0  0  0  0  0  0  0  0  0  0
   -9.0306    4.1701  -16.1475 C   0  0  0  0  0  0  0  0  0  0  0  0
   -7.8521    4.4923  -15.4737 C   0  0  0  0  0  0  0  0  0  0  0  0
   -7.9490    4.5005  -14.0106 C   0  0  0  0  0  0  0  0  0  0  0  0
   -8.5508    5.4138  -13.4576 O   0  0  0  0  0  0  0  0  0  0  0  0
   -7.4671    3.2769  -13.2414 C   0  0  0  0  0  0  0  0  0  0  0  0
   -6.8082    2.4101  -13.8072 O   0  0  0  0  0  0  0  0  0  0  0  0
   -7.9227    3.1670  -11.7891 C   0  0  1  0  0  0  0  0  0  0  0  0
   -6.8923    2.4919  -10.8337 C   0  0  0  0  0  0  0  0  0  0  0  0
   -7.4615    3.3726   -9.7022 C   0  0  2  0  0  0  0  0  0  0  0  0
   -6.4456    3.9041   -8.7152 C   0  0  0  0  0  0  0  0  0  0  0  0
   -7.2870    4.2799   -7.5046 C   0  0  0  0  0  0  0  0  0  0  0  0
   -8.6838    3.9172   -7.7829 N   0  0  0  0  0  0  0  0  0  0  0  0
   -8.6012    2.8796   -8.8246 C   0  0  0  0  0  0  0  0  0  0  0  0
   -7.8776    4.3704  -10.8263 C   0  0  0  0  0  0  0  0  0  0  0  0
   -6.6659    4.8242  -16.1313 C   0  0  0  0  0  0  0  0  0  0  0  0
   -5.5422    5.1169  -15.4410 N   0  0  0  0  0  0  0  0  0  0  0  0
  1  2  1  0
  2  3  2  0
  3  4  1  0
  4  5  1  0
  5  6  1  0
  4  7  2  0
  7  8  1  0
  8  9  2  0
  9 10  1  0
  9 11  1  0
 11 12  2  0
 12 13  1  0
 13 14  2  0
 13 15  1  0
 15 16  2  0
 17 15  1  6
 17 18  1  0
 19 18  1  6
 19 20  1  0
 20 21  1  0
 21 22  1  0
 22 23  1  0
 19 24  1  0
 12 25  1  0
 25 26  2  0
 26  2  1  0
 25  7  1  0
 24 17  1  0
 23 19  1  0
M  END
>  <smiles>  (403) 
C92861-P100

>  <fragmenstein_outcome>  (403) 
acceptable

>  <inchikey>  (403) 
CKBWDRYLWQREQT-UHFFFAOYSA-N

>  <fragmenstein_mode>  (403) 
expansion

>  <HIPPO Pose ID>  (403) 
13040

>  <Energy>  (403) 
85.401951

>  <fragmenstein_error>  (403) 


>  <tags>  (403) 
{'openbind_xx01zvns2b_c1_fragmenstein', 'fragmenstein_placed'}

>  <ref_pdb>  (403) 
1

>  <scratch_subdir>  (403) 
/opt/xchem-fragalysis-2/maxwin/BulkDock/SCRATCH/511027/C92861-P100

>  <alias>  (403) 
Cc1cc(CO)c2cc(F)cc(C(=O)C(=O)[C@H]3C[C@@]4(CCNC4)C3)c2n1

>  <HIPPO Compound ID>  (403) 
92861

>  <fragmenstein_runtime>  (403) 
5.328612

$$$$
CS[C@@H]1[C@H](C(=O)C(=O)c2cc(F)cc3c(CO)cc(C)nc23)C[C@]12CCNC2
     RDKit          3D

 28 31  0  0  0  0  0  0  0  0999 V2000
   -4.5826    1.1303  -10.4406 C   0  0  0  0  0  0  0  0  0  0  0  0
   -5.1548    2.8358  -10.5963 S   0  0  0  0  0  0  0  0  0  0  0  0
   -6.9430    2.4875  -10.3224 C   0  0  2  0  0  0  0  0  0  0  0  0
   -7.8703    3.1022  -11.4240 C   0  0  2  0  0  0  0  0  0  0  0  0
   -7.4140    3.1183  -12.8992 C   0  0  0  0  0  0  0  0  0  0  0  0
   -6.9790    2.1407  -13.5088 O   0  0  0  0  0  0  0  0  0  0  0  0
   -7.6767    4.4153  -13.6704 C   0  0  0  0  0  0  0  0  0  0  0  0
   -8.0503    5.4396  -13.1108 O   0  0  0  0  0  0  0  0  0  0  0  0
   -7.6714    4.4018  -15.1420 C   0  0  0  0  0  0  0  0  0  0  0  0
   -8.9002    4.1471  -15.7495 C   0  0  0  0  0  0  0  0  0  0  0  0
   -9.0034    4.1790  -17.1201 C   0  0  0  0  0  0  0  0  0  0  0  0
  -10.1688    3.8989  -17.7114 F   0  0  0  0  0  0  0  0  0  0  0  0
   -7.9094    4.5177  -17.8927 C   0  0  0  0  0  0  0  0  0  0  0  0
   -6.6625    4.8065  -17.2960 C   0  0  0  0  0  0  0  0  0  0  0  0
   -5.5248    5.1544  -18.0670 C   0  0  0  0  0  0  0  0  0  0  0  0
   -5.6183    5.2749  -19.5724 C   0  0  0  0  0  0  0  0  0  0  0  0
   -4.3497    5.4018  -20.2131 O   0  0  0  0  0  0  0  0  0  0  0  0
   -4.3263    5.4178  -17.4020 C   0  0  0  0  0  0  0  0  0  0  0  0
   -4.2817    5.3223  -16.0186 C   0  0  0  0  0  0  0  0  0  0  0  0
   -2.9985    5.5890  -15.2908 C   0  0  0  0  0  0  0  0  0  0  0  0
   -5.3600    4.9978  -15.2686 N   0  0  0  0  0  0  0  0  0  0  0  0
   -6.5334    4.7385  -15.8798 C   0  0  0  0  0  0  0  0  0  0  0  0
   -7.9468    4.3646  -10.5358 C   0  0  0  0  0  0  0  0  0  0  0  0
   -7.5969    3.4728   -9.2994 C   0  0  2  0  0  0  0  0  0  0  0  0
   -6.7750    4.1841   -8.2249 C   0  0  0  0  0  0  0  0  0  0  0  0
   -7.6932    4.2701   -7.0091 C   0  0  0  0  0  0  0  0  0  0  0  0
   -9.0401    3.9893   -7.5031 N   0  0  0  0  0  0  0  0  0  0  0  0
   -8.8209    2.9602   -8.5365 C   0  0  0  0  0  0  0  0  0  0  0  0
  1  2  1  0
  3  2  1  6
  3  4  1  0
  4  5  1  6
  5  6  2  0
  5  7  1  0
  7  8  2  0
  7  9  1  0
  9 10  2  0
 10 11  1  0
 11 12  1  0
 11 13  2  0
 13 14  1  0
 14 15  2  0
 15 16  1  0
 16 17  1  0
 15 18  1  0
 18 19  2  0
 19 20  1  0
 19 21  1  0
 21 22  2  0
  4 23  1  0
 24 23  1  6
 24 25  1  0
 25 26  1  0
 26 27  1  0
 27 28  1  0
 24  3  1  0
 22  9  1  0
 28 24  1  0
 22 14  1  0
M  END
>  <smiles>  (404) 
C92909-P100

>  <fragmenstein_outcome>  (404) 
acceptable

>  <inchikey>  (404) 
QNUKZIBADPDBBA-UHFFFAOYSA-N

>  <fragmenstein_mode>  (404) 
expansion

>  <HIPPO Pose ID>  (404) 
13041

>  <Energy>  (404) 
88.01479

>  <fragmenstein_error>  (404) 


>  <tags>  (404) 
{'openbind_xx01zvns2b_c1_fragmenstein', 'fragmenstein_placed'}

>  <ref_pdb>  (404) 
1

>  <scratch_subdir>  (404) 
/opt/xchem-fragalysis-2/maxwin/BulkDock/SCRATCH/511027/C92909-P100

>  <alias>  (404) 
CS[C@@H]1[C@H](C(=O)C(=O)c2cc(F)cc3c(CO)cc(C)nc23)C[C@]12CCNC2

>  <HIPPO Compound ID>  (404) 
78039

>  <fragmenstein_runtime>  (404) 
4.561075

$$$$
CS[C@@H]1[C@@H](C(=O)C(=O)c2cc(F)cc3c(CO)cc(C)nc23)C[C@]12CCNC2
     RDKit          3D

 28 31  0  0  0  0  0  0  0  0999 V2000
   -4.4319    1.1379  -10.8992 C   0  0  0  0  0  0  0  0  0  0  0  0
   -5.0637    2.4715   -9.8556 S   0  0  0  0  0  0  0  0  0  0  0  0
   -6.7142    2.5904  -10.6502 C   0  0  2  0  0  0  0  0  0  0  0  0
   -6.7580    3.7716  -11.6604 C   0  0  1  0  0  0  0  0  0  0  0  0
   -7.1698    3.3841  -13.1024 C   0  0  0  0  0  0  0  0  0  0  0  0
   -7.1172    2.2626  -13.6007 O   0  0  0  0  0  0  0  0  0  0  0  0
   -7.6451    4.5608  -13.9408 C   0  0  0  0  0  0  0  0  0  0  0  0
   -8.1161    5.5665  -13.4216 O   0  0  0  0  0  0  0  0  0  0  0  0
   -7.6278    4.4710  -15.4021 C   0  0  0  0  0  0  0  0  0  0  0  0
   -8.8477    4.2151  -16.0217 C   0  0  0  0  0  0  0  0  0  0  0  0
   -8.9252    4.2252  -17.3932 C   0  0  0  0  0  0  0  0  0  0  0  0
  -10.0857    3.9531  -17.9972 F   0  0  0  0  0  0  0  0  0  0  0  0
   -7.8081    4.5243  -18.1524 C   0  0  0  0  0  0  0  0  0  0  0  0
   -6.5635    4.7909  -17.5363 C   0  0  0  0  0  0  0  0  0  0  0  0
   -5.3964    5.0954  -18.2786 C   0  0  0  0  0  0  0  0  0  0  0  0
   -5.4261    5.1655  -19.7911 C   0  0  0  0  0  0  0  0  0  0  0  0
   -4.1177    5.2092  -20.3539 O   0  0  0  0  0  0  0  0  0  0  0  0
   -4.2148    5.3624  -17.5790 C   0  0  0  0  0  0  0  0  0  0  0  0
   -4.2104    5.3057  -16.1929 C   0  0  0  0  0  0  0  0  0  0  0  0
   -2.9511    5.5927  -15.4322 C   0  0  0  0  0  0  0  0  0  0  0  0
   -5.3139    5.0134  -15.4702 N   0  0  0  0  0  0  0  0  0  0  0  0
   -6.4683    4.7566  -16.1184 C   0  0  0  0  0  0  0  0  0  0  0  0
   -7.7474    4.4992  -10.7241 C   0  0  0  0  0  0  0  0  0  0  0  0
   -7.8142    3.2809   -9.7859 C   0  0  2  0  0  0  0  0  0  0  0  0
   -7.6681    3.5200   -8.2943 C   0  0  0  0  0  0  0  0  0  0  0  0
   -8.1991    2.2132   -7.7226 C   0  0  0  0  0  0  0  0  0  0  0  0
   -9.3129    1.8138   -8.5910 N   0  0  0  0  0  0  0  0  0  0  0  0
   -9.1779    2.6022   -9.8212 C   0  0  0  0  0  0  0  0  0  0  0  0
  1  2  1  0
  3  2  1  1
  3  4  1  0
  4  5  1  6
  5  6  2  0
  5  7  1  0
  7  8  2  0
  7  9  1  0
  9 10  2  0
 10 11  1  0
 11 12  1  0
 11 13  2  0
 13 14  1  0
 14 15  2  0
 15 16  1  0
 16 17  1  0
 15 18  1  0
 18 19  2  0
 19 20  1  0
 19 21  1  0
 21 22  2  0
  4 23  1  0
 24 23  1  6
 24 25  1  0
 25 26  1  0
 26 27  1  0
 27 28  1  0
 24  3  1  0
 22  9  1  0
 28 24  1  0
 22 14  1  0
M  END
>  <smiles>  (405) 
C92909-P29

>  <fragmenstein_outcome>  (405) 
acceptable

>  <inchikey>  (405) 
UVLVOFHSKDIRMW-UHFFFAOYSA-N

>  <fragmenstein_mode>  (405) 
expansion

>  <HIPPO Pose ID>  (405) 
13042

>  <Energy>  (405) 
82.348402

>  <fragmenstein_error>  (405) 


>  <tags>  (405) 
{'openbind_xx01zvns2b_c1_fragmenstein', 'fragmenstein_placed'}

>  <ref_pdb>  (405) 
1

>  <scratch_subdir>  (405) 
/opt/xchem-fragalysis-2/maxwin/BulkDock/SCRATCH/511027/C92909-P29

>  <alias>  (405) 
CS[C@@H]1[C@@H](C(=O)C(=O)c2cc(F)cc3c(CO)cc(C)nc23)C[C@]12CCNC2

>  <HIPPO Compound ID>  (405) 
75862

>  <fragmenstein_runtime>  (405) 
5.28375

$$$$
Cc1cc(CN=N)c2cc(Cl)cc(C(=O)C(=O)[C@@H]3C[C@@H](N)[C@H]3C)c2n1
     RDKit          3D

 25 27  0  0  0  0  0  0  0  0999 V2000
   -2.9099    5.5681  -14.9552 C   0  0  0  0  0  0  0  0  0  0  0  0
   -4.1506    5.3387  -15.7627 C   0  0  0  0  0  0  0  0  0  0  0  0
   -4.1089    5.4822  -17.1395 C   0  0  0  0  0  0  0  0  0  0  0  0
   -5.2620    5.2503  -17.8958 C   0  0  0  0  0  0  0  0  0  0  0  0
   -5.2142    5.3872  -19.4117 C   0  0  0  0  0  0  0  0  0  0  0  0
   -3.8559    5.7137  -19.9076 N   0  0  0  0  0  0  0  0  0  0  0  0
   -3.7553    5.9639  -21.1214 N   0  0  0  0  0  0  0  0  0  0  0  0
   -6.4499    4.8929  -17.2081 C   0  0  0  0  0  0  0  0  0  0  0  0
   -7.6666    4.6464  -17.8772 C   0  0  0  0  0  0  0  0  0  0  0  0
   -8.8127    4.3150  -17.1660 C   0  0  0  0  0  0  0  0  0  0  0  0
  -10.2960    4.0982  -17.9760 Cl  0  0  0  0  0  0  0  0  0  0  0  0
   -8.7838    4.2183  -15.7911 C   0  0  0  0  0  0  0  0  0  0  0  0
   -7.5846    4.4360  -15.1209 C   0  0  0  0  0  0  0  0  0  0  0  0
   -7.6458    4.3464  -13.6517 C   0  0  0  0  0  0  0  0  0  0  0  0
   -8.0774    5.3011  -13.0209 O   0  0  0  0  0  0  0  0  0  0  0  0
   -7.3064    3.0142  -12.9938 C   0  0  0  0  0  0  0  0  0  0  0  0
   -6.8440    2.1135  -13.6968 O   0  0  0  0  0  0  0  0  0  0  0  0
   -7.6105    2.7948  -11.5235 C   0  0  2  0  0  0  0  0  0  0  0  0
   -8.8329    3.3880  -10.8010 C   0  0  0  0  0  0  0  0  0  0  0  0
   -7.9901    3.4927   -9.5146 C   0  0  1  0  0  0  0  0  0  0  0  0
   -8.2036    2.2854   -8.7212 N   0  0  0  0  0  0  0  0  0  0  0  0
   -6.7188    3.3880  -10.4056 C   0  0  1  0  0  0  0  0  0  0  0  0
   -5.5483    2.5404   -9.9398 C   0  0  0  0  0  0  0  0  0  0  0  0
   -6.4066    4.7779  -15.7883 C   0  0  0  0  0  0  0  0  0  0  0  0
   -5.2725    4.9957  -15.0957 N   0  0  0  0  0  0  0  0  0  0  0  0
  1  2  1  0
  2  3  2  0
  3  4  1  0
  4  5  1  0
  5  6  1  0
  6  7  2  3
  4  8  2  0
  8  9  1  0
  9 10  2  0
 10 11  1  0
 10 12  1  0
 12 13  2  0
 13 14  1  0
 14 15  2  0
 14 16  1  0
 16 17  2  0
 18 16  1  6
 18 19  1  0
 19 20  1  0
 20 21  1  1
 20 22  1  0
 22 23  1  1
 13 24  1  0
 24 25  2  0
 25  2  1  0
 24  8  1  0
 22 18  1  0
M  END
>  <smiles>  (406) 
C92933-P100

>  <fragmenstein_outcome>  (406) 
acceptable

>  <inchikey>  (406) 
MMPGZEGRUHBUBA-UHFFFAOYSA-N

>  <fragmenstein_mode>  (406) 
expansion

>  <HIPPO Pose ID>  (406) 
13059

>  <Energy>  (406) 
107.807328

>  <fragmenstein_error>  (406) 


>  <tags>  (406) 
{'openbind_xx01zvns2b_c1_fragmenstein', 'fragmenstein_placed'}

>  <ref_pdb>  (406) 
1

>  <scratch_subdir>  (406) 
/opt/xchem-fragalysis-2/maxwin/BulkDock/SCRATCH/511027/C92933-P100

>  <alias>  (406) 
Cc1cc(CN=N)c2cc(Cl)cc(C(=O)C(=O)[C@@H]3C[C@@H](N)[C@H]3C)c2n1

>  <HIPPO Compound ID>  (406) 
103448

>  <fragmenstein_runtime>  (406) 
3.331007

$$$$
CCN1CCC2(CC1)[C@@H](C)Nc1c(C(=O)C(=O)[C@H]3C[C@]4(CCNC4)C3)cccc1[C@@H]2CO
     RDKit          3D

 32 36  0  0  0  0  0  0  0  0999 V2000
    0.0428    9.1745  -16.8473 C   0  0  0  0  0  0  0  0  0  0  0  0
   -0.1490    7.9054  -17.6705 C   0  0  0  0  0  0  0  0  0  0  0  0
   -1.4894    7.3271  -17.5153 N   0  0  0  0  0  0  0  0  0  0  0  0
   -1.5076    5.9396  -17.9856 C   0  0  0  0  0  0  0  0  0  0  0  0
   -2.9002    5.4022  -18.3559 C   0  0  0  0  0  0  0  0  0  0  0  0
   -4.1276    6.0800  -17.6594 C   0  0  0  0  0  0  0  0  0  0  0  0
   -3.9139    7.6352  -17.6922 C   0  0  0  0  0  0  0  0  0  0  0  0
   -2.5354    8.1008  -18.1717 C   0  0  0  0  0  0  0  0  0  0  0  0
   -4.2204    5.5218  -16.1925 C   0  0  1  0  0  0  0  0  0  0  0  0
   -3.1098    5.8805  -15.2007 C   0  0  0  0  0  0  0  0  0  0  0  0
   -5.4851    5.9459  -15.5982 N   0  0  0  0  0  0  0  0  0  0  0  0
   -6.5829    5.2634  -16.1559 C   0  0  0  0  0  0  0  0  0  0  0  0
   -7.6538    4.7953  -15.3686 C   0  0  0  0  0  0  0  0  0  0  0  0
   -7.5776    4.8879  -13.9021 C   0  0  0  0  0  0  0  0  0  0  0  0
   -7.1472    5.8928  -13.3471 O   0  0  0  0  0  0  0  0  0  0  0  0
   -7.9582    3.6943  -13.0606 C   0  0  0  0  0  0  0  0  0  0  0  0
   -8.0215    2.5830  -13.5722 O   0  0  0  0  0  0  0  0  0  0  0  0
   -8.0809    4.0609  -11.5572 C   0  0  2  0  0  0  0  0  0  0  0  0
   -6.7430    4.2833  -10.7933 C   0  0  0  0  0  0  0  0  0  0  0  0
   -6.7580    2.7524  -10.5016 C   0  0  2  0  0  0  0  0  0  0  0  0
   -6.1908    2.3412   -9.1718 C   0  0  0  0  0  0  0  0  0  0  0  0
   -4.7082    2.2438   -9.4929 C   0  0  0  0  0  0  0  0  0  0  0  0
   -4.6137    1.7089  -10.8551 N   0  0  0  0  0  0  0  0  0  0  0  0
   -5.9356    1.9132  -11.4806 C   0  0  0  0  0  0  0  0  0  0  0  0
   -8.3111    2.8662  -10.6080 C   0  0  0  0  0  0  0  0  0  0  0  0
   -8.7865    4.2283  -15.9530 C   0  0  0  0  0  0  0  0  0  0  0  0
   -8.8612    4.1153  -17.3302 C   0  0  0  0  0  0  0  0  0  0  0  0
   -7.7973    4.5539  -18.1159 C   0  0  0  0  0  0  0  0  0  0  0  0
   -6.6403    5.1250  -17.5500 C   0  0  0  0  0  0  0  0  0  0  0  0
   -5.5461    5.7789  -18.3974 C   0  0  2  0  0  0  0  0  0  0  0  0
   -5.3836    5.1809  -19.7965 C   0  0  0  0  0  0  0  0  0  0  0  0
   -4.7611    6.1342  -20.6588 O   0  0  0  0  0  0  0  0  0  0  0  0
  1  2  1  0
  2  3  1  0
  3  4  1  0
  4  5  1  0
  5  6  1  0
  6  7  1  0
  7  8  1  0
  6  9  1  0
  9 10  1  1
  9 11  1  0
 11 12  1  0
 12 13  2  0
 13 14  1  0
 14 15  2  0
 14 16  1  0
 16 17  2  0
 18 16  1  6
 18 19  1  0
 20 19  1  6
 20 21  1  0
 21 22  1  0
 22 23  1  0
 23 24  1  0
 20 25  1  0
 13 26  1  0
 26 27  2  0
 27 28  1  0
 28 29  2  0
 29 30  1  0
 30 31  1  6
 31 32  1  0
  8  3  1  0
 29 12  1  0
 30  6  1  0
 25 18  1  0
 24 20  1  0
M  END
>  <smiles>  (407) 
C92941-P100

>  <fragmenstein_outcome>  (407) 
acceptable

>  <inchikey>  (407) 
ZFMZKBVHYODNPL-UHFFFAOYSA-N

>  <fragmenstein_mode>  (407) 
expansion

>  <HIPPO Pose ID>  (407) 
13067

>  <Energy>  (407) 
148.689127

>  <fragmenstein_error>  (407) 


>  <tags>  (407) 
{'openbind_xx01zvns2b_c1_fragmenstein', 'fragmenstein_placed'}

>  <ref_pdb>  (407) 
1

>  <scratch_subdir>  (407) 
/opt/xchem-fragalysis-2/maxwin/BulkDock/SCRATCH/511027/C92941-P100

>  <alias>  (407) 
CCN1CCC2(CC1)[C@@H](C)Nc1c(C(=O)C(=O)[C@H]3C[C@]4(CCNC4)C3)cccc1[C@@H]2CO

>  <HIPPO Compound ID>  (407) 
78084

>  <fragmenstein_runtime>  (407) 
9.291681

$$$$
CNC[C@]1(C)C[C@@H](C)Nc2c(C(=O)C(=O)[C@H]3C[C@@H](N)C3)cccc21
     RDKit          3D

 24 26  0  0  0  0  0  0  0  0999 V2000
   -4.4513    7.0502  -21.0602 C   0  0  0  0  0  0  0  0  0  0  0  0
   -4.3052    5.7577  -20.3880 N   0  0  0  0  0  0  0  0  0  0  0  0
   -5.4786    5.4574  -19.5389 C   0  0  0  0  0  0  0  0  0  0  0  0
   -5.3722    5.7866  -18.0239 C   0  0  2  0  0  0  0  0  0  0  0  0
   -5.3884    7.3215  -17.8301 C   0  0  0  0  0  0  0  0  0  0  0  0
   -4.0429    5.2114  -17.4764 C   0  0  0  0  0  0  0  0  0  0  0  0
   -3.9767    5.0327  -15.9523 C   0  0  1  0  0  0  0  0  0  0  0  0
   -2.7490    5.7283  -15.3715 C   0  0  0  0  0  0  0  0  0  0  0  0
   -5.1619    5.5297  -15.2658 N   0  0  0  0  0  0  0  0  0  0  0  0
   -6.3720    5.0745  -15.8291 C   0  0  0  0  0  0  0  0  0  0  0  0
   -7.4312    4.5784  -15.0484 C   0  0  0  0  0  0  0  0  0  0  0  0
   -7.2630    4.4482  -13.5925 C   0  0  0  0  0  0  0  0  0  0  0  0
   -6.9528    5.4255  -12.9262 O   0  0  0  0  0  0  0  0  0  0  0  0
   -7.3407    3.0694  -12.9751 C   0  0  0  0  0  0  0  0  0  0  0  0
   -6.9381    2.1046  -13.6263 O   0  0  0  0  0  0  0  0  0  0  0  0
   -7.9175    2.9345  -11.5851 C   0  0  1  0  0  0  0  0  0  0  0  0
   -6.9489    2.3303  -10.5134 C   0  0  0  0  0  0  0  0  0  0  0  0
   -7.9505    2.9175   -9.4944 C   0  0  1  0  0  0  0  0  0  0  0  0
   -7.2200    3.3898   -8.3381 N   0  0  0  0  0  0  0  0  0  0  0  0
   -8.1416    4.0519  -10.5367 C   0  0  0  0  0  0  0  0  0  0  0  0
   -8.6356    4.1898  -15.6332 C   0  0  0  0  0  0  0  0  0  0  0  0
   -8.7919    4.2764  -17.0110 C   0  0  0  0  0  0  0  0  0  0  0  0
   -7.7510    4.7666  -17.8008 C   0  0  0  0  0  0  0  0  0  0  0  0
   -6.5355    5.1786  -17.2254 C   0  0  0  0  0  0  0  0  0  0  0  0
  1  2  1  0
  2  3  1  0
  3  4  1  0
  4  5  1  6
  4  6  1  0
  6  7  1  0
  7  8  1  1
  7  9  1  0
  9 10  1  0
 10 11  2  0
 11 12  1  0
 12 13  2  0
 12 14  1  0
 14 15  2  0
 16 14  1  6
 16 17  1  0
 17 18  1  0
 18 19  1  1
 18 20  1  0
 11 21  1  0
 21 22  2  0
 22 23  1  0
 23 24  2  0
 24  4  1  0
 24 10  1  0
 20 16  1  0
M  END
>  <smiles>  (408) 
C92942-P100

>  <fragmenstein_outcome>  (408) 
acceptable

>  <inchikey>  (408) 
OWVMYDNFOISVHK-UHFFFAOYSA-N

>  <fragmenstein_mode>  (408) 
expansion

>  <HIPPO Pose ID>  (408) 
13068

>  <Energy>  (408) 
126.204856

>  <fragmenstein_error>  (408) 


>  <tags>  (408) 
{'openbind_xx01zvns2b_c1_fragmenstein', 'fragmenstein_placed'}

>  <ref_pdb>  (408) 
1

>  <scratch_subdir>  (408) 
/opt/xchem-fragalysis-2/maxwin/BulkDock/SCRATCH/511027/C92942-P100

>  <alias>  (408) 
CNC[C@]1(C)C[C@@H](C)Nc2c(C(=O)C(=O)[C@H]3C[C@@H](N)C3)cccc21

>  <HIPPO Compound ID>  (408) 
92720

>  <fragmenstein_runtime>  (408) 
4.073351

$$$$
CNCc1cc(C)nc2c(C(=O)C(=O)[C@H]3C[C@H](N)C3)cc(Cl)cc12
     RDKit          3D

 24 26  0  0  0  0  0  0  0  0999 V2000
   -4.0788    7.2389  -20.2420 C   0  0  0  0  0  0  0  0  0  0  0  0
   -4.1943    5.7810  -20.2791 N   0  0  0  0  0  0  0  0  0  0  0  0
   -5.4082    5.3294  -19.5727 C   0  0  0  0  0  0  0  0  0  0  0  0
   -5.3151    5.2106  -18.0626 C   0  0  0  0  0  0  0  0  0  0  0  0
   -4.1106    5.3971  -17.3815 C   0  0  0  0  0  0  0  0  0  0  0  0
   -4.0881    5.3073  -15.9979 C   0  0  0  0  0  0  0  0  0  0  0  0
   -2.8096    5.5412  -15.2531 C   0  0  0  0  0  0  0  0  0  0  0  0
   -5.1875    5.0318  -15.2628 N   0  0  0  0  0  0  0  0  0  0  0  0
   -6.3575    4.8117  -15.8950 C   0  0  0  0  0  0  0  0  0  0  0  0
   -7.5140    4.5166  -15.1735 C   0  0  0  0  0  0  0  0  0  0  0  0
   -7.5085    4.5830  -13.7163 C   0  0  0  0  0  0  0  0  0  0  0  0
   -7.8481    5.6252  -13.1687 O   0  0  0  0  0  0  0  0  0  0  0  0
   -7.1680    3.3354  -12.9165 C   0  0  0  0  0  0  0  0  0  0  0  0
   -7.2017    2.2348  -13.4576 O   0  0  0  0  0  0  0  0  0  0  0  0
   -6.7904    3.6746  -11.4506 C   0  0  2  0  0  0  0  0  0  0  0  0
   -6.6057    2.4859  -10.4722 C   0  0  0  0  0  0  0  0  0  0  0  0
   -8.0427    2.7493   -9.9769 C   0  0  1  0  0  0  0  0  0  0  0  0
   -8.0490    2.7567   -8.5228 N   0  0  0  0  0  0  0  0  0  0  0  0
   -7.9079    4.1827  -10.4945 C   0  0  0  0  0  0  0  0  0  0  0  0
   -8.7423    4.2578  -15.7723 C   0  0  0  0  0  0  0  0  0  0  0  0
   -8.8227    4.2863  -17.1452 C   0  0  0  0  0  0  0  0  0  0  0  0
  -10.3116    4.0033  -17.9128 Cl  0  0  0  0  0  0  0  0  0  0  0  0
   -7.7099    4.5992  -17.9097 C   0  0  0  0  0  0  0  0  0  0  0  0
   -6.4664    4.8766  -17.3058 C   0  0  0  0  0  0  0  0  0  0  0  0
  1  2  1  0
  2  3  1  0
  3  4  1  0
  4  5  2  0
  5  6  1  0
  6  7  1  0
  6  8  2  0
  8  9  1  0
  9 10  2  0
 10 11  1  0
 11 12  2  0
 11 13  1  0
 13 14  2  0
 15 13  1  6
 15 16  1  0
 16 17  1  0
 17 18  1  1
 17 19  1  0
 10 20  1  0
 20 21  2  0
 21 22  1  0
 21 23  1  0
 23 24  2  0
 24  4  1  0
 24  9  1  0
 19 15  1  0
M  END
>  <smiles>  (409) 
C92944-P100

>  <fragmenstein_outcome>  (409) 
acceptable

>  <inchikey>  (409) 
SWZPPNOHLLNZGN-UHFFFAOYSA-N

>  <fragmenstein_mode>  (409) 
expansion

>  <HIPPO Pose ID>  (409) 
13069

>  <Energy>  (409) 
74.732088

>  <fragmenstein_error>  (409) 


>  <tags>  (409) 
{'openbind_xx01zvns2b_c1_fragmenstein', 'fragmenstein_placed'}

>  <ref_pdb>  (409) 
1

>  <scratch_subdir>  (409) 
/opt/xchem-fragalysis-2/maxwin/BulkDock/SCRATCH/511027/C92944-P100

>  <alias>  (409) 
CNCc1cc(C)nc2c(C(=O)C(=O)[C@H]3C[C@H](N)C3)cc(Cl)cc12

>  <HIPPO Compound ID>  (409) 
76605

>  <fragmenstein_runtime>  (409) 
3.094885

$$$$
Cc1cc(COC(C)C)c2cccc(C(=O)C(=O)[C@H]3C[C@@]4(CCNC4)C3)c2n1
     RDKit          3D

 28 31  0  0  0  0  0  0  0  0999 V2000
   -2.8552    5.5485  -15.3074 C   0  0  0  0  0  0  0  0  0  0  0  0
   -4.1297    5.2977  -16.0527 C   0  0  0  0  0  0  0  0  0  0  0  0
   -4.1621    5.3966  -17.4317 C   0  0  0  0  0  0  0  0  0  0  0  0
   -5.3668    5.1829  -18.1124 C   0  0  0  0  0  0  0  0  0  0  0  0
   -5.4221    5.3207  -19.6214 C   0  0  0  0  0  0  0  0  0  0  0  0
   -4.1673    5.7707  -20.1548 O   0  0  0  0  0  0  0  0  0  0  0  0
   -4.2488    7.0475  -20.8013 C   0  0  0  0  0  0  0  0  0  0  0  0
   -4.4340    8.1756  -19.7877 C   0  0  0  0  0  0  0  0  0  0  0  0
   -2.9443    7.2476  -21.5655 C   0  0  0  0  0  0  0  0  0  0  0  0
   -6.5209    4.8380  -17.3633 C   0  0  0  0  0  0  0  0  0  0  0  0
   -7.7786    4.5582  -17.9549 C   0  0  0  0  0  0  0  0  0  0  0  0
   -8.8940    4.2366  -17.1850 C   0  0  0  0  0  0  0  0  0  0  0  0
   -8.7758    4.2050  -15.8066 C   0  0  0  0  0  0  0  0  0  0  0  0
   -7.5352    4.4605  -15.2182 C   0  0  0  0  0  0  0  0  0  0  0  0
   -7.4708    4.5509  -13.7599 C   0  0  0  0  0  0  0  0  0  0  0  0
   -7.6478    5.6431  -13.2298 O   0  0  0  0  0  0  0  0  0  0  0  0
   -7.2325    3.2994  -12.9174 C   0  0  0  0  0  0  0  0  0  0  0  0
   -7.0908    2.2058  -13.4516 O   0  0  0  0  0  0  0  0  0  0  0  0
   -7.2428    3.6445  -11.3987 C   0  0  2  0  0  0  0  0  0  0  0  0
   -6.8625    2.5698  -10.3531 C   0  0  0  0  0  0  0  0  0  0  0  0
   -7.9882    3.1517   -9.4234 C   0  0  1  0  0  0  0  0  0  0  0  0
   -8.8025    2.1701   -8.5875 C   0  0  0  0  0  0  0  0  0  0  0  0
   -9.0418    2.9099   -7.2799 C   0  0  0  0  0  0  0  0  0  0  0  0
   -7.8258    3.7195   -7.0976 N   0  0  0  0  0  0  0  0  0  0  0  0
   -7.5501    4.2432   -8.4433 C   0  0  0  0  0  0  0  0  0  0  0  0
   -8.6395    3.6784  -10.7290 C   0  0  0  0  0  0  0  0  0  0  0  0
   -6.3948    4.7691  -15.9551 C   0  0  0  0  0  0  0  0  0  0  0  0
   -5.2223    4.9966  -15.3246 N   0  0  0  0  0  0  0  0  0  0  0  0
  1  2  1  0
  2  3  2  0
  3  4  1  0
  4  5  1  0
  5  6  1  0
  6  7  1  0
  7  8  1  0
  7  9  1  0
  4 10  2  0
 10 11  1  0
 11 12  2  0
 12 13  1  0
 13 14  2  0
 14 15  1  0
 15 16  2  0
 15 17  1  0
 17 18  2  0
 19 17  1  6
 19 20  1  0
 21 20  1  6
 21 22  1  0
 22 23  1  0
 23 24  1  0
 24 25  1  0
 21 26  1  0
 14 27  1  0
 27 28  2  0
 28  2  1  0
 27 10  1  0
 26 19  1  0
 25 21  1  0
M  END
>  <smiles>  (410) 
C92978-P100

>  <fragmenstein_outcome>  (410) 
acceptable

>  <inchikey>  (410) 
BPVCKPXAESJDFR-UHFFFAOYSA-N

>  <fragmenstein_mode>  (410) 
expansion

>  <HIPPO Pose ID>  (410) 
13092

>  <Energy>  (410) 
108.259706

>  <fragmenstein_error>  (410) 


>  <tags>  (410) 
{'openbind_xx01zvns2b_c1_fragmenstein', 'fragmenstein_placed'}

>  <ref_pdb>  (410) 
1

>  <scratch_subdir>  (410) 
/opt/xchem-fragalysis-2/maxwin/BulkDock/SCRATCH/511027/C92978-P100

>  <alias>  (410) 
Cc1cc(COC(C)C)c2cccc(C(=O)C(=O)[C@H]3C[C@@]4(CCNC4)C3)c2n1

>  <HIPPO Compound ID>  (410) 
103889

>  <fragmenstein_runtime>  (410) 
5.866371

$$$$
CNCc1c(C)nc2c(C(=O)C(=O)[C@H]3C[C@]4(CCNC4)C3)cccc2c1CO
     RDKit          3D

 28 31  0  0  0  0  0  0  0  0999 V2000
   -3.5159    8.6350  -17.6300 C   0  0  0  0  0  0  0  0  0  0  0  0
   -3.4073    7.6258  -18.6752 N   0  0  0  0  0  0  0  0  0  0  0  0
   -3.0722    6.2977  -18.1331 C   0  0  0  0  0  0  0  0  0  0  0  0
   -4.2215    5.6445  -17.3900 C   0  0  0  0  0  0  0  0  0  0  0  0
   -4.1214    5.4128  -16.0144 C   0  0  0  0  0  0  0  0  0  0  0  0
   -2.8599    5.6534  -15.2371 C   0  0  0  0  0  0  0  0  0  0  0  0
   -5.1548    4.9755  -15.2632 N   0  0  0  0  0  0  0  0  0  0  0  0
   -6.3546    4.7645  -15.8266 C   0  0  0  0  0  0  0  0  0  0  0  0
   -7.4372    4.4091  -15.0233 C   0  0  0  0  0  0  0  0  0  0  0  0
   -7.2552    4.3139  -13.5655 C   0  0  0  0  0  0  0  0  0  0  0  0
   -7.1994    5.3318  -12.8888 O   0  0  0  0  0  0  0  0  0  0  0  0
   -7.2100    2.9260  -12.9381 C   0  0  0  0  0  0  0  0  0  0  0  0
   -6.9721    1.9506  -13.6493 O   0  0  0  0  0  0  0  0  0  0  0  0
   -7.5313    2.8048  -11.4575 C   0  0  1  0  0  0  0  0  0  0  0  0
   -6.7306    3.5156  -10.3577 C   0  0  0  0  0  0  0  0  0  0  0  0
   -8.0626    3.6254   -9.5375 C   0  0  1  0  0  0  0  0  0  0  0  0
   -8.3640    2.5373   -8.5080 C   0  0  0  0  0  0  0  0  0  0  0  0
   -8.1758    3.2745   -7.1911 C   0  0  0  0  0  0  0  0  0  0  0  0
   -8.7397    4.6095   -7.4492 N   0  0  0  0  0  0  0  0  0  0  0  0
   -8.2369    4.9455   -8.7931 C   0  0  0  0  0  0  0  0  0  0  0  0
   -8.8021    3.4593  -10.8919 C   0  0  0  0  0  0  0  0  0  0  0  0
   -8.7159    4.1892  -15.5354 C   0  0  0  0  0  0  0  0  0  0  0  0
   -8.9283    4.2865  -16.8968 C   0  0  0  0  0  0  0  0  0  0  0  0
   -7.8651    4.6401  -17.7252 C   0  0  0  0  0  0  0  0  0  0  0  0
   -6.5603    4.8965  -17.2176 C   0  0  0  0  0  0  0  0  0  0  0  0
   -5.4440    5.2963  -18.0217 C   0  0  0  0  0  0  0  0  0  0  0  0
   -5.6265    5.4166  -19.5226 C   0  0  0  0  0  0  0  0  0  0  0  0
   -4.4632    5.0677  -20.2663 O   0  0  0  0  0  0  0  0  0  0  0  0
  1  2  1  0
  2  3  1  0
  3  4  1  0
  4  5  2  0
  5  6  1  0
  5  7  1  0
  7  8  2  0
  8  9  1  0
  9 10  1  0
 10 11  2  0
 10 12  1  0
 12 13  2  0
 14 12  1  6
 14 15  1  0
 16 15  1  6
 16 17  1  0
 17 18  1  0
 18 19  1  0
 19 20  1  0
 16 21  1  0
  9 22  2  0
 22 23  1  0
 23 24  2  0
 24 25  1  0
 25 26  2  0
 26 27  1  0
 27 28  1  0
 26  4  1  0
 25  8  1  0
 21 14  1  0
 20 16  1  0
M  END
>  <smiles>  (411) 
C92979-P100

>  <fragmenstein_outcome>  (411) 
acceptable

>  <inchikey>  (411) 
LZXIXOFEXGYCJD-UHFFFAOYSA-N

>  <fragmenstein_mode>  (411) 
expansion

>  <HIPPO Pose ID>  (411) 
13093

>  <Energy>  (411) 
108.334222

>  <fragmenstein_error>  (411) 


>  <tags>  (411) 
{'openbind_xx01zvns2b_c1_fragmenstein', 'fragmenstein_placed'}

>  <ref_pdb>  (411) 
1

>  <scratch_subdir>  (411) 
/opt/xchem-fragalysis-2/maxwin/BulkDock/SCRATCH/511027/C92979-P100

>  <alias>  (411) 
CNCc1c(C)nc2c(C(=O)C(=O)[C@H]3C[C@]4(CCNC4)C3)cccc2c1CO

>  <HIPPO Compound ID>  (411) 
92979

>  <fragmenstein_runtime>  (411) 
5.001923

$$$$
Cc1nc2c(C(=O)C(=O)[C@H]3C[C@@]4(CCNC4)C3)cccc2c(CO)c1CN
     RDKit          3D

 27 30  0  0  0  0  0  0  0  0999 V2000
   -2.8579    5.5887  -15.2547 C   0  0  0  0  0  0  0  0  0  0  0  0
   -4.0966    5.3199  -16.0611 C   0  0  0  0  0  0  0  0  0  0  0  0
   -5.1812    5.0181  -15.3144 N   0  0  0  0  0  0  0  0  0  0  0  0
   -6.3637    4.7921  -15.9071 C   0  0  0  0  0  0  0  0  0  0  0  0
   -7.4787    4.4976  -15.1257 C   0  0  0  0  0  0  0  0  0  0  0  0
   -7.3552    4.5849  -13.6700 C   0  0  0  0  0  0  0  0  0  0  0  0
   -7.4340    5.6819  -13.1260 O   0  0  0  0  0  0  0  0  0  0  0  0
   -7.1695    3.3159  -12.8425 C   0  0  0  0  0  0  0  0  0  0  0  0
   -7.0708    2.2236  -13.3895 O   0  0  0  0  0  0  0  0  0  0  0  0
   -7.1590    3.6524  -11.3212 C   0  0  2  0  0  0  0  0  0  0  0  0
   -6.7811    2.5683  -10.2869 C   0  0  0  0  0  0  0  0  0  0  0  0
   -7.8937    3.1447   -9.3482 C   0  0  1  0  0  0  0  0  0  0  0  0
   -8.7673    2.1803   -8.5591 C   0  0  0  0  0  0  0  0  0  0  0  0
   -9.0402    2.8863   -7.2329 C   0  0  0  0  0  0  0  0  0  0  0  0
   -8.6158    4.2820   -7.4068 N   0  0  0  0  0  0  0  0  0  0  0  0
   -7.4871    4.2092   -8.3344 C   0  0  0  0  0  0  0  0  0  0  0  0
   -8.5489    3.7099  -10.6395 C   0  0  0  0  0  0  0  0  0  0  0  0
   -8.7392    4.2406  -15.6637 C   0  0  0  0  0  0  0  0  0  0  0  0
   -8.9039    4.2678  -17.0352 C   0  0  0  0  0  0  0  0  0  0  0  0
   -7.8118    4.5813  -17.8432 C   0  0  0  0  0  0  0  0  0  0  0  0
   -6.5206    4.8507  -17.3064 C   0  0  0  0  0  0  0  0  0  0  0  0
   -5.3675    5.1708  -18.1009 C   0  0  0  0  0  0  0  0  0  0  0  0
   -5.5956    5.2974  -19.5994 C   0  0  0  0  0  0  0  0  0  0  0  0
   -4.4531    5.5815  -20.3953 O   0  0  0  0  0  0  0  0  0  0  0  0
   -4.1179    5.3801  -17.4609 C   0  0  0  0  0  0  0  0  0  0  0  0
   -2.8356    5.6704  -18.2046 C   0  0  0  0  0  0  0  0  0  0  0  0
   -2.7777    7.0514  -18.6725 N   0  0  0  0  0  0  0  0  0  0  0  0
  1  2  1  0
  2  3  2  0
  3  4  1  0
  4  5  2  0
  5  6  1  0
  6  7  2  0
  6  8  1  0
  8  9  2  0
 10  8  1  6
 10 11  1  0
 12 11  1  6
 12 13  1  0
 13 14  1  0
 14 15  1  0
 15 16  1  0
 12 17  1  0
  5 18  1  0
 18 19  2  0
 19 20  1  0
 20 21  2  0
 21 22  1  0
 22 23  1  0
 23 24  1  0
 22 25  2  0
 25 26  1  0
 26 27  1  0
 25  2  1  0
 21  4  1  0
 17 10  1  0
 16 12  1  0
M  END
>  <smiles>  (412) 
C92982-P100

>  <fragmenstein_outcome>  (412) 
acceptable

>  <inchikey>  (412) 
SIHYHBAGFTUKLC-UHFFFAOYSA-N

>  <fragmenstein_mode>  (412) 
expansion

>  <HIPPO Pose ID>  (412) 
13097

>  <Energy>  (412) 
100.062952

>  <fragmenstein_error>  (412) 


>  <tags>  (412) 
{'openbind_xx01zvns2b_c1_fragmenstein', 'fragmenstein_placed'}

>  <ref_pdb>  (412) 
1

>  <scratch_subdir>  (412) 
/opt/xchem-fragalysis-2/maxwin/BulkDock/SCRATCH/511027/C92982-P100

>  <alias>  (412) 
Cc1nc2c(C(=O)C(=O)[C@H]3C[C@@]4(CCNC4)C3)cccc2c(CO)c1CN

>  <HIPPO Compound ID>  (412) 
92982

>  <fragmenstein_runtime>  (412) 
5.227081

$$$$
CNCc1cc(C)nc2c(C(=O)C(=O)[C@H]3C[C@](N)(CNC)C3)cc(Cl)cc12
     RDKit          3D

 27 29  0  0  0  0  0  0  0  0999 V2000
   -4.1130    7.3525  -20.3684 C   0  0  0  0  0  0  0  0  0  0  0  0
   -4.1901    5.8929  -20.4211 N   0  0  0  0  0  0  0  0  0  0  0  0
   -5.3903    5.4000  -19.7186 C   0  0  0  0  0  0  0  0  0  0  0  0
   -5.2730    5.2624  -18.2170 C   0  0  0  0  0  0  0  0  0  0  0  0
   -4.0483    5.4392  -17.5639 C   0  0  0  0  0  0  0  0  0  0  0  0
   -3.9898    5.3306  -16.1873 C   0  0  0  0  0  0  0  0  0  0  0  0
   -2.7054    5.5701  -15.4574 C   0  0  0  0  0  0  0  0  0  0  0  0
   -5.0738    5.0478  -15.4423 N   0  0  0  0  0  0  0  0  0  0  0  0
   -6.2623    4.8517  -16.0480 C   0  0  0  0  0  0  0  0  0  0  0  0
   -7.3940    4.5545  -15.2949 C   0  0  0  0  0  0  0  0  0  0  0  0
   -7.2810    4.5529  -13.8463 C   0  0  0  0  0  0  0  0  0  0  0  0
   -7.1359    5.6148  -13.2619 O   0  0  0  0  0  0  0  0  0  0  0  0
   -7.3775    3.2171  -13.1413 C   0  0  0  0  0  0  0  0  0  0  0  0
   -7.4292    2.1778  -13.7966 O   0  0  0  0  0  0  0  0  0  0  0  0
   -7.3244    3.2216  -11.6490 C   0  0  1  0  0  0  0  0  0  0  0  0
   -7.0449    4.4688  -10.7779 C   0  0  0  0  0  0  0  0  0  0  0  0
   -7.7729    3.6742   -9.6613 C   0  0  2  0  0  0  0  0  0  0  0  0
   -8.5618    4.6040   -8.8559 N   0  0  0  0  0  0  0  0  0  0  0  0
   -6.9614    2.6858   -8.8336 C   0  0  0  0  0  0  0  0  0  0  0  0
   -5.6411    3.2533   -8.4927 N   0  0  0  0  0  0  0  0  0  0  0  0
   -4.5573    2.6890   -9.2796 C   0  0  0  0  0  0  0  0  0  0  0  0
   -8.6365    3.1125  -10.8203 C   0  0  0  0  0  0  0  0  0  0  0  0
   -8.6447    4.2917  -15.8397 C   0  0  0  0  0  0  0  0  0  0  0  0
   -8.7720    4.3284  -17.2071 C   0  0  0  0  0  0  0  0  0  0  0  0
  -10.2981    4.0535  -17.9034 Cl  0  0  0  0  0  0  0  0  0  0  0  0
   -7.6821    4.6450  -18.0084 C   0  0  0  0  0  0  0  0  0  0  0  0
   -6.4141    4.9237  -17.4461 C   0  0  0  0  0  0  0  0  0  0  0  0
  1  2  1  0
  2  3  1  0
  3  4  1  0
  4  5  2  0
  5  6  1  0
  6  7  1  0
  6  8  2  0
  8  9  1  0
  9 10  2  0
 10 11  1  0
 11 12  2  0
 11 13  1  0
 13 14  2  0
 15 13  1  6
 15 16  1  0
 16 17  1  0
 17 18  1  1
 17 19  1  0
 19 20  1  0
 20 21  1  0
 17 22  1  0
 10 23  1  0
 23 24  2  0
 24 25  1  0
 24 26  1  0
 26 27  2  0
 27  4  1  0
 27  9  1  0
 22 15  1  0
M  END
>  <smiles>  (413) 
C92983-P100

>  <fragmenstein_outcome>  (413) 
acceptable

>  <inchikey>  (413) 
NFBPBRDAURIWGX-UHFFFAOYSA-N

>  <fragmenstein_mode>  (413) 
expansion

>  <HIPPO Pose ID>  (413) 
13099

>  <Energy>  (413) 
113.07524

>  <fragmenstein_error>  (413) 


>  <tags>  (413) 
{'openbind_xx01zvns2b_c1_fragmenstein', 'fragmenstein_placed'}

>  <ref_pdb>  (413) 
1

>  <scratch_subdir>  (413) 
/opt/xchem-fragalysis-2/maxwin/BulkDock/SCRATCH/511027/C92983-P100

>  <alias>  (413) 
CNCc1cc(C)nc2c(C(=O)C(=O)[C@H]3C[C@](N)(CNC)C3)cc(Cl)cc12

>  <HIPPO Compound ID>  (413) 
80799

>  <fragmenstein_runtime>  (413) 
3.964942

$$$$
CNC[C@@]1(C)C[C@@H](C)Nc2c(C(=O)C(=O)[C@H]3C[C@@H](N)[C@H]3C)cc(Cl)cc21
     RDKit          3D

 26 28  0  0  0  0  0  0  0  0999 V2000
   -4.2001    8.9105  -17.5154 C   0  0  0  0  0  0  0  0  0  0  0  0
   -5.3841    8.0726  -17.4399 N   0  0  0  0  0  0  0  0  0  0  0  0
   -5.5192    7.1656  -18.5874 C   0  0  0  0  0  0  0  0  0  0  0  0
   -5.4066    5.6257  -18.3050 C   0  0  1  0  0  0  0  0  0  0  0  0
   -5.4373    4.9548  -19.6939 C   0  0  0  0  0  0  0  0  0  0  0  0
   -4.0360    5.2656  -17.6618 C   0  0  0  0  0  0  0  0  0  0  0  0
   -4.0368    5.1010  -16.1335 C   0  0  1  0  0  0  0  0  0  0  0  0
   -2.7510    5.6430  -15.5167 C   0  0  0  0  0  0  0  0  0  0  0  0
   -5.1780    5.7665  -15.5184 N   0  0  0  0  0  0  0  0  0  0  0  0
   -6.3924    5.2218  -16.0112 C   0  0  0  0  0  0  0  0  0  0  0  0
   -7.4333    4.7924  -15.1634 C   0  0  0  0  0  0  0  0  0  0  0  0
   -7.2477    4.8068  -13.6996 C   0  0  0  0  0  0  0  0  0  0  0  0
   -6.7379    5.7628  -13.1269 O   0  0  0  0  0  0  0  0  0  0  0  0
   -7.6035    3.5781  -12.8964 C   0  0  0  0  0  0  0  0  0  0  0  0
   -7.3469    2.4749  -13.3705 O   0  0  0  0  0  0  0  0  0  0  0  0
   -8.2290    3.9298  -11.5239 C   0  0  1  0  0  0  0  0  0  0  0  0
   -9.1066    2.8273  -10.9014 C   0  0  0  0  0  0  0  0  0  0  0  0
   -8.7122    3.3805   -9.5281 C   0  0  1  0  0  0  0  0  0  0  0  0
   -8.5566    2.2895   -8.5870 N   0  0  0  0  0  0  0  0  0  0  0  0
   -7.3723    3.8170  -10.1962 C   0  0  1  0  0  0  0  0  0  0  0  0
   -6.1707    2.8749  -10.1818 C   0  0  0  0  0  0  0  0  0  0  0  0
   -8.6370    4.3367  -15.6957 C   0  0  0  0  0  0  0  0  0  0  0  0
   -8.8026    4.3275  -17.0743 C   0  0  0  0  0  0  0  0  0  0  0  0
  -10.3261    3.9504  -17.7456 Cl  0  0  0  0  0  0  0  0  0  0  0  0
   -7.7750    4.7140  -17.9282 C   0  0  0  0  0  0  0  0  0  0  0  0
   -6.5536    5.1569  -17.4112 C   0  0  0  0  0  0  0  0  0  0  0  0
  1  2  1  0
  2  3  1  0
  3  4  1  0
  4  5  1  6
  4  6  1  0
  6  7  1  0
  7  8  1  1
  7  9  1  0
  9 10  1  0
 10 11  2  0
 11 12  1  0
 12 13  2  0
 12 14  1  0
 14 15  2  0
 16 14  1  6
 16 17  1  0
 17 18  1  0
 18 19  1  1
 18 20  1  0
 20 21  1  6
 11 22  1  0
 22 23  2  0
 23 24  1  0
 23 25  1  0
 25 26  2  0
 26  4  1  0
 26 10  1  0
 20 16  1  0
M  END
>  <smiles>  (414) 
C92984-P100

>  <fragmenstein_outcome>  (414) 
acceptable

>  <inchikey>  (414) 
SQGKIRGITYLYAU-UHFFFAOYSA-N

>  <fragmenstein_mode>  (414) 
expansion

>  <HIPPO Pose ID>  (414) 
13102

>  <Energy>  (414) 
111.630618

>  <fragmenstein_error>  (414) 


>  <tags>  (414) 
{'openbind_xx01zvns2b_c1_fragmenstein', 'fragmenstein_placed'}

>  <ref_pdb>  (414) 
1

>  <scratch_subdir>  (414) 
/opt/xchem-fragalysis-2/maxwin/BulkDock/SCRATCH/511027/C92984-P100

>  <alias>  (414) 
CNC[C@@]1(C)C[C@@H](C)Nc2c(C(=O)C(=O)[C@H]3C[C@@H](N)[C@H]3C)cc(Cl)cc21

>  <HIPPO Compound ID>  (414) 
93088

>  <fragmenstein_runtime>  (414) 
3.398233

$$$$
Cc1nc2c(C(=O)C(=O)[C@H]3C[C@@]4(CCNC4)C3)cc(F)cc2c2cocc12
     RDKit          3D

 27 31  0  0  0  0  0  0  0  0999 V2000
   -2.7838    5.6418  -15.4268 C   0  0  0  0  0  0  0  0  0  0  0  0
   -4.0441    5.3605  -16.1675 C   0  0  0  0  0  0  0  0  0  0  0  0
   -5.1894    5.0468  -15.4529 N   0  0  0  0  0  0  0  0  0  0  0  0
   -6.4230    4.7808  -16.0369 C   0  0  0  0  0  0  0  0  0  0  0  0
   -7.5300    4.4694  -15.2492 C   0  0  0  0  0  0  0  0  0  0  0  0
   -7.4013    4.5774  -13.7913 C   0  0  0  0  0  0  0  0  0  0  0  0
   -7.4588    5.6889  -13.2758 O   0  0  0  0  0  0  0  0  0  0  0  0
   -7.2277    3.3230  -12.9341 C   0  0  0  0  0  0  0  0  0  0  0  0
   -7.1039    2.2267  -13.4681 O   0  0  0  0  0  0  0  0  0  0  0  0
   -7.2486    3.6692  -11.4124 C   0  0  2  0  0  0  0  0  0  0  0  0
   -6.8564    2.5989  -10.3644 C   0  0  0  0  0  0  0  0  0  0  0  0
   -7.9946    3.1537   -9.4387 C   0  0  1  0  0  0  0  0  0  0  0  0
   -8.8594    2.1826   -8.6386 C   0  0  0  0  0  0  0  0  0  0  0  0
   -9.0871    2.8667   -7.2950 C   0  0  0  0  0  0  0  0  0  0  0  0
   -8.7355    4.2798   -7.4934 N   0  0  0  0  0  0  0  0  0  0  0  0
   -7.6188    4.2431   -8.4384 C   0  0  0  0  0  0  0  0  0  0  0  0
   -8.6455    3.6901  -10.7455 C   0  0  0  0  0  0  0  0  0  0  0  0
   -8.7958    4.1790  -15.7830 C   0  0  0  0  0  0  0  0  0  0  0  0
   -8.9836    4.1768  -17.1581 C   0  0  0  0  0  0  0  0  0  0  0  0
  -10.1863    3.8897  -17.6712 F   0  0  0  0  0  0  0  0  0  0  0  0
   -7.9426    4.4928  -18.0091 C   0  0  0  0  0  0  0  0  0  0  0  0
   -6.6836    4.7937  -17.4473 C   0  0  0  0  0  0  0  0  0  0  0  0
   -5.5117    5.1289  -18.1511 C   0  0  0  0  0  0  0  0  0  0  0  0
   -5.3208    5.2550  -19.5024 C   0  0  0  0  0  0  0  0  0  0  0  0
   -4.0119    5.5787  -19.7539 O   0  0  0  0  0  0  0  0  0  0  0  0
   -3.3730    5.6707  -18.5463 C   0  0  0  0  0  0  0  0  0  0  0  0
   -4.2606    5.3956  -17.5429 C   0  0  0  0  0  0  0  0  0  0  0  0
  1  2  1  0
  2  3  2  0
  3  4  1  0
  4  5  2  0
  5  6  1  0
  6  7  2  0
  6  8  1  0
  8  9  2  0
 10  8  1  6
 10 11  1  0
 12 11  1  6
 12 13  1  0
 13 14  1  0
 14 15  1  0
 15 16  1  0
 12 17  1  0
  5 18  1  0
 18 19  2  0
 19 20  1  0
 19 21  1  0
 21 22  2  0
 22 23  1  0
 23 24  2  0
 24 25  1  0
 25 26  1  0
 26 27  2  0
 27  2  1  0
 22  4  1  0
 27 23  1  0
 17 10  1  0
 16 12  1  0
M  END
>  <smiles>  (415) 
C92990-P100

>  <fragmenstein_outcome>  (415) 
acceptable

>  <inchikey>  (415) 
JIJAEZVEXSHUNV-UHFFFAOYSA-N

>  <fragmenstein_mode>  (415) 
expansion

>  <HIPPO Pose ID>  (415) 
13107

>  <Energy>  (415) 
97.808347

>  <fragmenstein_error>  (415) 


>  <tags>  (415) 
{'openbind_xx01zvns2b_c1_fragmenstein', 'fragmenstein_placed'}

>  <ref_pdb>  (415) 
1

>  <scratch_subdir>  (415) 
/opt/xchem-fragalysis-2/maxwin/BulkDock/SCRATCH/511027/C92990-P100

>  <alias>  (415) 
Cc1nc2c(C(=O)C(=O)[C@H]3C[C@@]4(CCNC4)C3)cc(F)cc2c2cocc12

>  <HIPPO Compound ID>  (415) 
91747

>  <fragmenstein_runtime>  (415) 
5.519805

$$$$
CNC[C@@]1(C)C[C@H](C)Nc2c(C(=O)C(=O)[C@H]3C[C@H](N)C3)cc(Cl)cc21
     RDKit          3D

 25 27  0  0  0  0  0  0  0  0999 V2000
   -4.6199    8.6774  -20.3385 C   0  0  0  0  0  0  0  0  0  0  0  0
   -4.5309    7.2649  -19.9925 N   0  0  0  0  0  0  0  0  0  0  0  0
   -5.5210    6.9151  -18.9514 C   0  0  0  0  0  0  0  0  0  0  0  0
   -5.3448    5.4619  -18.4457 C   0  0  1  0  0  0  0  0  0  0  0  0
   -5.3986    4.5826  -19.7048 C   0  0  0  0  0  0  0  0  0  0  0  0
   -3.9819    5.2599  -17.7453 C   0  0  0  0  0  0  0  0  0  0  0  0
   -3.9673    5.9104  -16.3620 C   0  0  2  0  0  0  0  0  0  0  0  0
   -2.6155    5.6986  -15.6845 C   0  0  0  0  0  0  0  0  0  0  0  0
   -4.9879    5.3141  -15.5136 N   0  0  0  0  0  0  0  0  0  0  0  0
   -6.2529    5.0626  -16.0672 C   0  0  0  0  0  0  0  0  0  0  0  0
   -7.3092    4.6158  -15.2320 C   0  0  0  0  0  0  0  0  0  0  0  0
   -7.1333    4.6051  -13.7708 C   0  0  0  0  0  0  0  0  0  0  0  0
   -6.9132    5.6643  -13.1912 O   0  0  0  0  0  0  0  0  0  0  0  0
   -7.1773    3.2965  -12.9940 C   0  0  0  0  0  0  0  0  0  0  0  0
   -7.2751    2.2290  -13.5870 O   0  0  0  0  0  0  0  0  0  0  0  0
   -7.0530    3.5151  -11.4586 C   0  0  2  0  0  0  0  0  0  0  0  0
   -6.8256    2.2515  -10.5964 C   0  0  0  0  0  0  0  0  0  0  0  0
   -7.9859    2.6822   -9.6742 C   0  0  1  0  0  0  0  0  0  0  0  0
   -7.4164    3.2945   -8.4776 N   0  0  0  0  0  0  0  0  0  0  0  0
   -8.3704    3.7621  -10.6881 C   0  0  0  0  0  0  0  0  0  0  0  0
   -8.5533    4.2652  -15.7478 C   0  0  0  0  0  0  0  0  0  0  0  0
   -8.7412    4.3421  -17.1157 C   0  0  0  0  0  0  0  0  0  0  0  0
  -10.2459    3.9849  -17.8187 Cl  0  0  0  0  0  0  0  0  0  0  0  0
   -7.7236    4.7559  -17.9609 C   0  0  0  0  0  0  0  0  0  0  0  0
   -6.4599    5.0931  -17.4634 C   0  0  0  0  0  0  0  0  0  0  0  0
  1  2  1  0
  2  3  1  0
  3  4  1  0
  4  5  1  6
  4  6  1  0
  6  7  1  0
  7  8  1  1
  7  9  1  0
  9 10  1  0
 10 11  2  0
 11 12  1  0
 12 13  2  0
 12 14  1  0
 14 15  2  0
 16 14  1  6
 16 17  1  0
 17 18  1  0
 18 19  1  1
 18 20  1  0
 11 21  1  0
 21 22  2  0
 22 23  1  0
 22 24  1  0
 24 25  2  0
 25  4  1  0
 25 10  1  0
 20 16  1  0
M  END
>  <smiles>  (416) 
C92994-P100

>  <fragmenstein_outcome>  (416) 
acceptable

>  <inchikey>  (416) 
NRBRNODLAARSKR-UHFFFAOYSA-N

>  <fragmenstein_mode>  (416) 
expansion

>  <HIPPO Pose ID>  (416) 
13110

>  <Energy>  (416) 
98.221574

>  <fragmenstein_error>  (416) 


>  <tags>  (416) 
{'openbind_xx01zvns2b_c1_fragmenstein', 'fragmenstein_placed'}

>  <ref_pdb>  (416) 
1

>  <scratch_subdir>  (416) 
/opt/xchem-fragalysis-2/maxwin/BulkDock/SCRATCH/511027/C92994-P100

>  <alias>  (416) 
CNC[C@@]1(C)C[C@H](C)Nc2c(C(=O)C(=O)[C@H]3C[C@H](N)C3)cc(Cl)cc21

>  <HIPPO Compound ID>  (416) 
93254

>  <fragmenstein_runtime>  (416) 
5.041632

$$$$
C[C@@H]1Nc2c(C(=O)C(=O)[C@H]3C[C@]4(CCNC4)C3)cc(Cl)cc2[C@@H](CO)C12CCOCC2
     RDKit          3D

 31 35  0  0  0  0  0  0  0  0999 V2000
   -2.7471    6.0270  -15.2606 C   0  0  0  0  0  0  0  0  0  0  0  0
   -4.0798    6.1555  -16.0154 C   0  0  2  0  0  0  0  0  0  0  0  0
   -4.9470    5.1341  -15.4243 N   0  0  0  0  0  0  0  0  0  0  0  0
   -6.2359    5.0386  -15.9820 C   0  0  0  0  0  0  0  0  0  0  0  0
   -7.3776    4.8396  -15.1671 C   0  0  0  0  0  0  0  0  0  0  0  0
   -7.2745    5.1573  -13.7257 C   0  0  0  0  0  0  0  0  0  0  0  0
   -6.4506    5.9792  -13.3256 O   0  0  0  0  0  0  0  0  0  0  0  0
   -8.1360    4.5019  -12.6844 C   0  0  0  0  0  0  0  0  0  0  0  0
   -9.3381    4.4621  -12.8686 O   0  0  0  0  0  0  0  0  0  0  0  0
   -7.2739    4.0764  -11.4766 C   0  0  1  0  0  0  0  0  0  0  0  0
   -7.7896    3.0789  -10.4143 C   0  0  0  0  0  0  0  0  0  0  0  0
   -6.3146    2.5629  -10.3043 C   0  0  1  0  0  0  0  0  0  0  0  0
   -5.3411    3.2464   -9.3522 C   0  0  0  0  0  0  0  0  0  0  0  0
   -4.1130    2.3536   -9.4846 C   0  0  0  0  0  0  0  0  0  0  0  0
   -4.6073    0.9879   -9.7045 N   0  0  0  0  0  0  0  0  0  0  0  0
   -6.0367    1.0904  -10.0687 C   0  0  0  0  0  0  0  0  0  0  0  0
   -6.1562    3.0384  -11.7739 C   0  0  0  0  0  0  0  0  0  0  0  0
   -8.5978    4.4841  -15.7357 C   0  0  0  0  0  0  0  0  0  0  0  0
   -8.6933    4.3750  -17.1125 C   0  0  0  0  0  0  0  0  0  0  0  0
  -10.2037    4.0168  -17.8301 Cl  0  0  0  0  0  0  0  0  0  0  0  0
   -7.5936    4.6219  -17.9270 C   0  0  0  0  0  0  0  0  0  0  0  0
   -6.3472    4.9580  -17.3741 C   0  0  0  0  0  0  0  0  0  0  0  0
   -5.0801    5.1155  -18.2053 C   0  0  1  0  0  0  0  0  0  0  0  0
   -5.4165    5.3227  -19.7010 C   0  0  0  0  0  0  0  0  0  0  0  0
   -4.2744    5.5801  -20.5078 O   0  0  0  0  0  0  0  0  0  0  0  0
   -4.0432    6.1476  -17.5993 C   0  0  0  0  0  0  0  0  0  0  0  0
   -2.6131    5.8162  -18.1545 C   0  0  0  0  0  0  0  0  0  0  0  0
   -1.8197    7.0544  -18.5669 C   0  0  0  0  0  0  0  0  0  0  0  0
   -2.0294    8.1123  -17.6400 O   0  0  0  0  0  0  0  0  0  0  0  0
   -3.3534    8.6341  -17.6800 C   0  0  0  0  0  0  0  0  0  0  0  0
   -4.4086    7.5953  -18.0629 C   0  0  0  0  0  0  0  0  0  0  0  0
  2  1  1  1
  2  3  1  0
  3  4  1  0
  4  5  2  0
  5  6  1  0
  6  7  2  0
  6  8  1  0
  8  9  2  0
 10  8  1  6
 10 11  1  0
 12 11  1  1
 12 13  1  0
 13 14  1  0
 14 15  1  0
 15 16  1  0
 12 17  1  0
  5 18  1  0
 18 19  2  0
 19 20  1  0
 19 21  1  0
 21 22  2  0
 22 23  1  0
 23 24  1  6
 24 25  1  0
 23 26  1  0
 26 27  1  0
 27 28  1  0
 28 29  1  0
 29 30  1  0
 30 31  1  0
 26  2  1  0
 22  4  1  0
 31 26  1  0
 17 10  1  0
 16 12  1  0
M  END
>  <smiles>  (417) 
C92999-P100

>  <fragmenstein_outcome>  (417) 
acceptable

>  <inchikey>  (417) 
TXUIYMJFWARNCZ-UHFFFAOYSA-N

>  <fragmenstein_mode>  (417) 
expansion

>  <HIPPO Pose ID>  (417) 
13113

>  <Energy>  (417) 
135.135456

>  <fragmenstein_error>  (417) 


>  <tags>  (417) 
{'openbind_xx01zvns2b_c1_fragmenstein', 'fragmenstein_placed'}

>  <ref_pdb>  (417) 
1

>  <scratch_subdir>  (417) 
/opt/xchem-fragalysis-2/maxwin/BulkDock/SCRATCH/511027/C92999-P100

>  <alias>  (417) 
C[C@@H]1Nc2c(C(=O)C(=O)[C@H]3C[C@]4(CCNC4)C3)cc(Cl)cc2[C@@H](CO)C12CCOCC2

>  <HIPPO Compound ID>  (417) 
104765

>  <fragmenstein_runtime>  (417) 
2.619848

$$$$
Cc1cc(COC2CNC2)c2cc(Cl)cc(C(=O)C(=O)[C@H]3C[C@]4(CCNC4)C3)c2n1
     RDKit          3D

 30 34  0  0  0  0  0  0  0  0999 V2000
   -2.7105    5.5556  -15.3117 C   0  0  0  0  0  0  0  0  0  0  0  0
   -4.0024    5.3029  -16.0247 C   0  0  0  0  0  0  0  0  0  0  0  0
   -4.0785    5.4357  -17.4003 C   0  0  0  0  0  0  0  0  0  0  0  0
   -5.3024    5.2308  -18.0410 C   0  0  0  0  0  0  0  0  0  0  0  0
   -5.4209    5.3808  -19.5450 C   0  0  0  0  0  0  0  0  0  0  0  0
   -4.2022    5.8577  -20.1269 O   0  0  0  0  0  0  0  0  0  0  0  0
   -4.3361    7.0684  -20.9194 C   0  0  0  0  0  0  0  0  0  0  0  0
   -3.0309    7.6302  -21.5155 C   0  0  0  0  0  0  0  0  0  0  0  0
   -2.9239    8.5529  -20.3593 N   0  0  0  0  0  0  0  0  0  0  0  0
   -4.3827    8.4041  -20.1476 C   0  0  0  0  0  0  0  0  0  0  0  0
   -6.4255    4.8818  -17.2511 C   0  0  0  0  0  0  0  0  0  0  0  0
   -7.6892    4.6378  -17.8177 C   0  0  0  0  0  0  0  0  0  0  0  0
   -8.7792    4.3149  -17.0222 C   0  0  0  0  0  0  0  0  0  0  0  0
  -10.2961    4.1099  -17.7841 Cl  0  0  0  0  0  0  0  0  0  0  0  0
   -8.6439    4.2200  -15.6469 C   0  0  0  0  0  0  0  0  0  0  0  0
   -7.3870    4.4385  -15.0767 C   0  0  0  0  0  0  0  0  0  0  0  0
   -7.2550    4.3792  -13.6056 C   0  0  0  0  0  0  0  0  0  0  0  0
   -7.1073    5.4138  -12.9703 O   0  0  0  0  0  0  0  0  0  0  0  0
   -7.3065    3.0188  -12.9239 C   0  0  0  0  0  0  0  0  0  0  0  0
   -6.9627    2.0300  -13.5756 O   0  0  0  0  0  0  0  0  0  0  0  0
   -7.8271    2.9299  -11.4920 C   0  0  1  0  0  0  0  0  0  0  0  0
   -6.8143    2.7509  -10.3282 C   0  0  0  0  0  0  0  0  0  0  0  0
   -7.9038    3.3603   -9.3818 C   0  0  1  0  0  0  0  0  0  0  0  0
   -8.8867    2.3939   -8.7067 C   0  0  0  0  0  0  0  0  0  0  0  0
   -9.0807    2.9533   -7.3018 C   0  0  0  0  0  0  0  0  0  0  0  0
   -8.6137    4.3461   -7.3596 N   0  0  0  0  0  0  0  0  0  0  0  0
   -7.4694    4.3010   -8.2719 C   0  0  0  0  0  0  0  0  0  0  0  0
   -8.4257    4.0788  -10.6700 C   0  0  0  0  0  0  0  0  0  0  0  0
   -6.2653    4.7721  -15.8459 C   0  0  0  0  0  0  0  0  0  0  0  0
   -5.0672    4.9766  -15.2646 N   0  0  0  0  0  0  0  0  0  0  0  0
  1  2  1  0
  2  3  2  0
  3  4  1  0
  4  5  1  0
  5  6  1  0
  6  7  1  0
  7  8  1  0
  8  9  1  0
  9 10  1  0
  4 11  2  0
 11 12  1  0
 12 13  2  0
 13 14  1  0
 13 15  1  0
 15 16  2  0
 16 17  1  0
 17 18  2  0
 17 19  1  0
 19 20  2  0
 21 19  1  6
 21 22  1  0
 23 22  1  6
 23 24  1  0
 24 25  1  0
 25 26  1  0
 26 27  1  0
 23 28  1  0
 16 29  1  0
 29 30  2  0
 30  2  1  0
 10  7  1  0
 29 11  1  0
 28 21  1  0
 27 23  1  0
M  END
>  <smiles>  (418) 
C93000-P100

>  <fragmenstein_outcome>  (418) 
acceptable

>  <inchikey>  (418) 
WAWUENIISRRVAO-UHFFFAOYSA-N

>  <fragmenstein_mode>  (418) 
expansion

>  <HIPPO Pose ID>  (418) 
13114

>  <Energy>  (418) 
125.286245

>  <fragmenstein_error>  (418) 


>  <tags>  (418) 
{'openbind_xx01zvns2b_c1_fragmenstein', 'fragmenstein_placed'}

>  <ref_pdb>  (418) 
1

>  <scratch_subdir>  (418) 
/opt/xchem-fragalysis-2/maxwin/BulkDock/SCRATCH/511027/C93000-P100

>  <alias>  (418) 
Cc1cc(COC2CNC2)c2cc(Cl)cc(C(=O)C(=O)[C@H]3C[C@]4(CCNC4)C3)c2n1

>  <HIPPO Compound ID>  (418) 
96696

>  <fragmenstein_runtime>  (418) 
7.394546

$$$$
Cc1cc(O)cc2ccc([C@@H](C(=O)C3CCNCC3)[C@H]([NH3+])C(=O)[O-])nc12
     RDKit          3D

 26 28  0  0  0  0  0  0  0  0999 V2000
   -7.7878    4.7401  -13.9231 C   0  0  0  0  0  0  0  0  0  0  0  0
   -7.7533    4.6934  -15.4253 C   0  0  0  0  0  0  0  0  0  0  0  0
   -8.8911    4.2729  -16.1255 C   0  0  0  0  0  0  0  0  0  0  0  0
   -8.8861    4.2519  -17.5082 C   0  0  0  0  0  0  0  0  0  0  0  0
  -10.0410    3.9485  -18.1571 O   0  0  0  0  0  0  0  0  0  0  0  0
   -7.7432    4.5823  -18.2146 C   0  0  0  0  0  0  0  0  0  0  0  0
   -6.6014    5.0005  -17.5237 C   0  0  0  0  0  0  0  0  0  0  0  0
   -5.4387    5.3605  -18.2084 C   0  0  0  0  0  0  0  0  0  0  0  0
   -4.3264    5.8083  -17.5024 C   0  0  0  0  0  0  0  0  0  0  0  0
   -4.4021    5.8986  -16.1206 C   0  0  0  0  0  0  0  0  0  0  0  0
   -3.3103    6.4451  -15.2283 C   0  0  1  0  0  0  0  0  0  0  0  0
   -2.5717    5.3078  -14.5489 C   0  0  0  0  0  0  0  0  0  0  0  0
   -1.5958    4.8007  -15.1183 O   0  0  0  0  0  0  0  0  0  0  0  0
   -3.0631    4.8404  -13.1813 C   0  0  0  0  0  0  0  0  0  0  0  0
   -2.4326    5.7236  -12.0980 C   0  0  0  0  0  0  0  0  0  0  0  0
   -2.2296    4.9567  -10.7982 C   0  0  0  0  0  0  0  0  0  0  0  0
   -1.3610    3.7919  -10.9505 N   0  0  0  0  0  0  0  0  0  0  0  0
   -1.4231    3.1512  -12.2628 C   0  0  0  0  0  0  0  0  0  0  0  0
   -2.7654    3.3496  -12.9623 C   0  0  0  0  0  0  0  0  0  0  0  0
   -2.3277    7.4337  -15.8745 C   0  0  2  0  0  0  0  0  0  0  0  0
   -1.2377    6.7714  -16.7219 N   0  0  0  0  0  0  0  0  0  0  0  0
   -1.6139    8.2667  -14.7855 C   0  0  0  0  0  0  0  0  0  0  0  0
   -2.2583    8.6936  -13.8078 O   0  0  0  0  0  0  0  0  0  0  0  0
   -0.3720    8.3750  -15.0608 O   0  0  0  0  0  0  0  0  0  0  0  0
   -5.5168    5.5207  -15.4522 N   0  0  0  0  0  0  0  0  0  0  0  0
   -6.6007    5.0768  -16.1184 C   0  0  0  0  0  0  0  0  0  0  0  0
  1  2  1  0
  2  3  2  0
  3  4  1  0
  4  5  1  0
  4  6  2  0
  6  7  1  0
  7  8  2  0
  8  9  1  0
  9 10  2  0
 10 11  1  0
 11 12  1  6
 12 13  2  0
 12 14  1  0
 14 15  1  0
 15 16  1  0
 16 17  1  0
 17 18  1  0
 18 19  1  0
 11 20  1  0
 20 21  1  1
 20 22  1  0
 22 23  2  0
 22 24  1  0
 10 25  1  0
 25 26  2  0
 26  2  1  0
 26  7  1  0
 19 14  1  0
M  CHG  2  21   1  24  -1
M  END
>  <smiles>  (419) 
C93083-P100

>  <fragmenstein_outcome>  (419) 
acceptable

>  <inchikey>  (419) 
JABQEAYVKRDIMJ-UHFFFAOYSA-N

>  <fragmenstein_mode>  (419) 
expansion

>  <HIPPO Pose ID>  (419) 
13143

>  <Energy>  (419) 
-2.318185

>  <fragmenstein_error>  (419) 


>  <tags>  (419) 
{'openbind_xx01zvns2b_c1_fragmenstein', 'fragmenstein_placed'}

>  <ref_pdb>  (419) 
1

>  <scratch_subdir>  (419) 
/opt/xchem-fragalysis-2/maxwin/BulkDock/SCRATCH/511027/C93083-P100

>  <alias>  (419) 
Cc1cc(O)cc2ccc([C@@H](C(=O)C3CCNCC3)[C@H]([NH3+])C(=O)[O-])nc12

>  <HIPPO Compound ID>  (419) 
88071

>  <fragmenstein_runtime>  (419) 
2.819829

$$$$
Cc1cc(O)cc2ccc([C@H](C(=O)[C@H]3C[C@@H](N)C3)[C@@H]([NH3+])C(=O)[O-])nc12
     RDKit          3D

 25 27  0  0  0  0  0  0  0  0999 V2000
   -7.7460    4.5277  -13.8351 C   0  0  0  0  0  0  0  0  0  0  0  0
   -7.6899    4.6086  -15.3372 C   0  0  0  0  0  0  0  0  0  0  0  0
   -8.8225    4.2717  -16.0872 C   0  0  0  0  0  0  0  0  0  0  0  0
   -8.7721    4.2916  -17.4721 C   0  0  0  0  0  0  0  0  0  0  0  0
   -9.8978    3.9813  -18.1686 O   0  0  0  0  0  0  0  0  0  0  0  0
   -7.6061    4.6272  -18.1376 C   0  0  0  0  0  0  0  0  0  0  0  0
   -6.4625    4.9365  -17.4017 C   0  0  0  0  0  0  0  0  0  0  0  0
   -5.2494    5.1990  -18.0481 C   0  0  0  0  0  0  0  0  0  0  0  0
   -4.0951    5.3727  -17.2979 C   0  0  0  0  0  0  0  0  0  0  0  0
   -4.2077    5.3343  -15.9170 C   0  0  0  0  0  0  0  0  0  0  0  0
   -2.9888    5.3425  -15.0077 C   0  0  2  0  0  0  0  0  0  0  0  0
   -2.8608    3.9358  -14.3705 C   0  0  0  0  0  0  0  0  0  0  0  0
   -3.1388    2.9599  -15.0965 O   0  0  0  0  0  0  0  0  0  0  0  0
   -2.2812    3.7005  -12.9474 C   0  0  2  0  0  0  0  0  0  0  0  0
   -2.0760    2.2144  -12.5122 C   0  0  0  0  0  0  0  0  0  0  0  0
   -3.3074    2.3212  -11.6005 C   0  0  2  0  0  0  0  0  0  0  0  0
   -4.5029    1.9216  -12.3376 N   0  0  0  0  0  0  0  0  0  0  0  0
   -3.2001    3.8488  -11.7011 C   0  0  0  0  0  0  0  0  0  0  0  0
   -3.1012    6.5701  -14.1018 C   0  0  1  0  0  0  0  0  0  0  0  0
   -4.3501    6.5758  -13.2355 N   0  0  0  0  0  0  0  0  0  0  0  0
   -1.8409    6.7649  -13.2578 C   0  0  0  0  0  0  0  0  0  0  0  0
   -0.7291    6.6936  -13.8258 O   0  0  0  0  0  0  0  0  0  0  0  0
   -2.1221    6.9428  -12.0315 O   0  0  0  0  0  0  0  0  0  0  0  0
   -5.4003    5.2058  -15.2728 N   0  0  0  0  0  0  0  0  0  0  0  0
   -6.4996    4.9360  -15.9906 C   0  0  0  0  0  0  0  0  0  0  0  0
  1  2  1  0
  2  3  2  0
  3  4  1  0
  4  5  1  0
  4  6  2  0
  6  7  1  0
  7  8  2  0
  8  9  1  0
  9 10  2  0
 10 11  1  0
 11 12  1  1
 12 13  2  0
 14 12  1  6
 14 15  1  0
 15 16  1  0
 16 17  1  6
 16 18  1  0
 11 19  1  0
 19 20  1  1
 19 21  1  0
 21 22  2  0
 21 23  1  0
 10 24  1  0
 24 25  2  0
 25  2  1  0
 25  7  1  0
 18 14  1  0
M  CHG  2  20   1  23  -1
M  END
>  <smiles>  (420) 
C93086-P100

>  <fragmenstein_outcome>  (420) 
acceptable

>  <inchikey>  (420) 
SONSPYVLJXDZQW-UHFFFAOYSA-N

>  <fragmenstein_mode>  (420) 
expansion

>  <HIPPO Pose ID>  (420) 
13144

>  <Energy>  (420) 
14.583677

>  <fragmenstein_error>  (420) 


>  <tags>  (420) 
{'openbind_xx01zvns2b_c1_fragmenstein', 'fragmenstein_placed'}

>  <ref_pdb>  (420) 
1

>  <scratch_subdir>  (420) 
/opt/xchem-fragalysis-2/maxwin/BulkDock/SCRATCH/511027/C93086-P100

>  <alias>  (420) 
Cc1cc(O)cc2ccc([C@H](C(=O)[C@H]3C[C@@H](N)C3)[C@@H]([NH3+])C(=O)[O-])nc12

>  <HIPPO Compound ID>  (420) 
101122

>  <fragmenstein_runtime>  (420) 
2.74915

$$$$
O=C([O-])[C@H](Cc1cc(F)c2ccccc2n1)c1ccc2c(n1)CNC2
     RDKit          3D

 25 28  0  0  0  0  0  0  0  0999 V2000
   -1.1008    5.9945  -16.5964 O   0  0  0  0  0  0  0  0  0  0  0  0
   -0.9695    5.3915  -15.4872 C   0  0  0  0  0  0  0  0  0  0  0  0
    0.0979    4.9165  -14.9986 O   0  0  0  0  0  0  0  0  0  0  0  0
   -2.2742    5.1222  -14.7136 C   0  0  2  0  0  0  0  0  0  0  0  0
   -3.3294    6.1862  -15.0373 C   0  0  0  0  0  0  0  0  0  0  0  0
   -4.4331    5.6914  -15.9379 C   0  0  0  0  0  0  0  0  0  0  0  0
   -4.2975    5.6760  -17.3149 C   0  0  0  0  0  0  0  0  0  0  0  0
   -5.4031    5.3117  -18.0664 C   0  0  0  0  0  0  0  0  0  0  0  0
   -5.3052    5.3164  -19.4059 F   0  0  0  0  0  0  0  0  0  0  0  0
   -6.6116    4.9629  -17.4569 C   0  0  0  0  0  0  0  0  0  0  0  0
   -7.7641    4.6154  -18.1839 C   0  0  0  0  0  0  0  0  0  0  0  0
   -8.9382    4.2727  -17.5218 C   0  0  0  0  0  0  0  0  0  0  0  0
   -8.9533    4.2560  -16.1335 C   0  0  0  0  0  0  0  0  0  0  0  0
   -7.8106    4.6017  -15.4133 C   0  0  0  0  0  0  0  0  0  0  0  0
   -6.6395    4.9673  -16.0549 C   0  0  0  0  0  0  0  0  0  0  0  0
   -5.5827    5.3250  -15.3150 N   0  0  0  0  0  0  0  0  0  0  0  0
   -1.9967    5.0698  -13.2176 C   0  0  0  0  0  0  0  0  0  0  0  0
   -1.7682    3.8238  -12.6047 C   0  0  0  0  0  0  0  0  0  0  0  0
   -1.5061    3.7518  -11.2362 C   0  0  0  0  0  0  0  0  0  0  0  0
   -1.4723    4.9360  -10.5358 C   0  0  0  0  0  0  0  0  0  0  0  0
   -1.7196    6.1212  -11.2017 C   0  0  0  0  0  0  0  0  0  0  0  0
   -1.9915    6.2367  -12.5101 N   0  0  0  0  0  0  0  0  0  0  0  0
   -1.6384    7.2538  -10.2197 C   0  0  0  0  0  0  0  0  0  0  0  0
   -0.9949    6.6826   -8.9934 N   0  0  0  0  0  0  0  0  0  0  0  0
   -1.2202    5.2128   -9.0985 C   0  0  0  0  0  0  0  0  0  0  0  0
  1  2  2  0
  2  3  1  0
  2  4  1  0
  4  5  1  1
  5  6  1  0
  6  7  2  0
  7  8  1  0
  8  9  1  0
  8 10  2  0
 10 11  1  0
 11 12  2  0
 12 13  1  0
 13 14  2  0
 14 15  1  0
 15 16  2  0
  4 17  1  0
 17 18  2  0
 18 19  1  0
 19 20  2  0
 20 21  1  0
 21 22  2  0
 21 23  1  0
 23 24  1  0
 24 25  1  0
 16  6  1  0
 22 17  1  0
 15 10  1  0
 25 20  1  0
M  CHG  1   3  -1
M  END
>  <smiles>  (421) 
C93169-P101

>  <fragmenstein_outcome>  (421) 
acceptable

>  <inchikey>  (421) 
FHAATJAKQZGZCI-UHFFFAOYSA-M

>  <fragmenstein_mode>  (421) 
expansion

>  <HIPPO Pose ID>  (421) 
13192

>  <Energy>  (421) 
69.645802

>  <fragmenstein_error>  (421) 


>  <tags>  (421) 
{'openbind_xx01zvns2b_c1_fragmenstein', 'fragmenstein_placed'}

>  <ref_pdb>  (421) 
1

>  <scratch_subdir>  (421) 
/opt/xchem-fragalysis-2/maxwin/BulkDock/SCRATCH/511027/C93169-P101

>  <alias>  (421) 
O=C([O-])[C@H](Cc1cc(F)c2ccccc2n1)c1ccc2c(n1)CNC2

>  <HIPPO Compound ID>  (421) 
93169

>  <fragmenstein_runtime>  (421) 
2.95878

$$$$
CC(=O)[C@]1(N2CC[C@@H](NN)C2)CC(=O)[C@H](c2cccc3c([C@@H](C)O)cc(C)nc23)c2ccccc21
     RDKit          3D

 35 39  0  0  0  0  0  0  0  0999 V2000
   -3.2111    3.8989  -10.8807 C   0  0  0  0  0  0  0  0  0  0  0  0
   -4.5134    4.1452  -10.1438 C   0  0  0  0  0  0  0  0  0  0  0  0
   -4.4970    4.1033   -8.9079 O   0  0  0  0  0  0  0  0  0  0  0  0
   -5.8035    4.4086  -11.0059 C   0  0  2  0  0  0  0  0  0  0  0  0
   -7.0231    4.5074  -10.1601 N   0  0  0  0  0  0  0  0  0  0  0  0
   -7.0922    5.6279   -9.2163 C   0  0  0  0  0  0  0  0  0  0  0  0
   -8.2663    5.2636   -8.3358 C   0  0  0  0  0  0  0  0  0  0  0  0
   -8.0601    3.7755   -8.1106 C   0  0  1  0  0  0  0  0  0  0  0  0
   -9.2987    3.1133   -7.6799 N   0  0  0  0  0  0  0  0  0  0  0  0
   -9.3821    3.0500   -6.2334 N   0  0  0  0  0  0  0  0  0  0  0  0
   -7.5001    3.2970   -9.4701 C   0  0  0  0  0  0  0  0  0  0  0  0
   -5.8763    3.2404  -12.0054 C   0  0  0  0  0  0  0  0  0  0  0  0
   -7.0456    3.3415  -12.9360 C   0  0  0  0  0  0  0  0  0  0  0  0
   -7.6241    2.3052  -13.2798 O   0  0  0  0  0  0  0  0  0  0  0  0
   -7.4088    4.7139  -13.4943 C   0  0  2  0  0  0  0  0  0  0  0  0
   -7.4997    4.6494  -15.0274 C   0  0  0  0  0  0  0  0  0  0  0  0
   -8.7645    4.4294  -15.5959 C   0  0  0  0  0  0  0  0  0  0  0  0
   -8.9405    4.4375  -16.9680 C   0  0  0  0  0  0  0  0  0  0  0  0
   -7.8515    4.7016  -17.7876 C   0  0  0  0  0  0  0  0  0  0  0  0
   -6.5550    4.8960  -17.2536 C   0  0  0  0  0  0  0  0  0  0  0  0
   -5.4145    5.1987  -18.0483 C   0  0  0  0  0  0  0  0  0  0  0  0
   -5.5253    5.4726  -19.5334 C   0  0  1  0  0  0  0  0  0  0  0  0
   -5.8419    6.9458  -19.7724 C   0  0  0  0  0  0  0  0  0  0  0  0
   -4.2997    5.1820  -20.2210 O   0  0  0  0  0  0  0  0  0  0  0  0
   -4.1742    5.3539  -17.4199 C   0  0  0  0  0  0  0  0  0  0  0  0
   -4.0856    5.1899  -16.0513 C   0  0  0  0  0  0  0  0  0  0  0  0
   -2.7887    5.4145  -15.3394 C   0  0  0  0  0  0  0  0  0  0  0  0
   -5.1579    4.9108  -15.2856 N   0  0  0  0  0  0  0  0  0  0  0  0
   -6.3754    4.8033  -15.8506 C   0  0  0  0  0  0  0  0  0  0  0  0
   -6.5572    5.8771  -12.9498 C   0  0  0  0  0  0  0  0  0  0  0  0
   -6.6415    7.1503  -13.5501 C   0  0  0  0  0  0  0  0  0  0  0  0
   -5.8687    8.2189  -13.0990 C   0  0  0  0  0  0  0  0  0  0  0  0
   -5.0180    8.0473  -12.0159 C   0  0  0  0  0  0  0  0  0  0  0  0
   -4.9566    6.8133  -11.3703 C   0  0  0  0  0  0  0  0  0  0  0  0
   -5.7228    5.7156  -11.8188 C   0  0  0  0  0  0  0  0  0  0  0  0
  1  2  1  0
  2  3  2  0
  2  4  1  0
  4  5  1  1
  5  6  1  0
  6  7  1  0
  7  8  1  0
  8  9  1  6
  9 10  1  0
  8 11  1  0
  4 12  1  0
 12 13  1  0
 13 14  2  0
 13 15  1  0
 15 16  1  6
 16 17  2  0
 17 18  1  0
 18 19  2  0
 19 20  1  0
 20 21  2  0
 21 22  1  0
 22 23  1  1
 22 24  1  0
 21 25  1  0
 25 26  2  0
 26 27  1  0
 26 28  1  0
 28 29  2  0
 15 30  1  0
 30 31  2  0
 31 32  1  0
 32 33  2  0
 33 34  1  0
 34 35  2  0
 35  4  1  0
 11  5  1  0
 29 16  1  0
 35 30  1  0
 29 20  1  0
M  END
>  <smiles>  (422) 
C93280-P101

>  <fragmenstein_outcome>  (422) 
acceptable

>  <inchikey>  (422) 
VOWMQFJWJZIOPG-UHFFFAOYSA-N

>  <fragmenstein_mode>  (422) 
expansion

>  <HIPPO Pose ID>  (422) 
13247

>  <Energy>  (422) 
203.853484

>  <fragmenstein_error>  (422) 


>  <tags>  (422) 
{'openbind_xx01zvns2b_c1_fragmenstein', 'fragmenstein_placed'}

>  <ref_pdb>  (422) 
1

>  <scratch_subdir>  (422) 
/opt/xchem-fragalysis-2/maxwin/BulkDock/SCRATCH/511027/C93280-P101

>  <alias>  (422) 
CC(=O)[C@]1(N2CC[C@@H](NN)C2)CC(=O)[C@H](c2cccc3c([C@@H](C)O)cc(C)nc23)c2ccccc21

>  <HIPPO Compound ID>  (422) 
99997

>  <fragmenstein_runtime>  (422) 
4.019966

$$$$
CCc1cc([C@@H]2C=N[C@@H](N3CC[C@@H](N)C3)c3ccccc32)c2nc(C)cc(CO)c2c1
     RDKit          3D

 31 35  0  0  0  0  0  0  0  0999 V2000
  -10.6506    4.7779  -18.5105 C   0  0  0  0  0  0  0  0  0  0  0  0
   -9.9349    3.8694  -17.5563 C   0  0  0  0  0  0  0  0  0  0  0  0
   -8.6466    4.3778  -16.9970 C   0  0  0  0  0  0  0  0  0  0  0  0
   -8.4808    4.4173  -15.6149 C   0  0  0  0  0  0  0  0  0  0  0  0
   -7.2676    4.8051  -15.0317 C   0  0  0  0  0  0  0  0  0  0  0  0
   -7.2374    4.9007  -13.5074 C   0  0  2  0  0  0  0  0  0  0  0  0
   -7.6245    6.2938  -13.0731 C   0  0  0  0  0  0  0  0  0  0  0  0
   -6.8752    7.1723  -12.5050 N   0  0  0  0  0  0  0  0  0  0  0  0
   -5.4640    6.8247  -12.2696 C   0  0  1  0  0  0  0  0  0  0  0  0
   -5.0122    7.6868  -11.1931 N   0  0  0  0  0  0  0  0  0  0  0  0
   -3.6852    8.2615  -11.2327 C   0  0  0  0  0  0  0  0  0  0  0  0
   -3.5618    8.9101   -9.8613 C   0  0  0  0  0  0  0  0  0  0  0  0
   -4.2960    7.9246   -8.9585 C   0  0  1  0  0  0  0  0  0  0  0  0
   -4.6774    8.5138   -7.6771 N   0  0  0  0  0  0  0  0  0  0  0  0
   -5.4627    7.4353   -9.8359 C   0  0  0  0  0  0  0  0  0  0  0  0
   -5.1774    5.3266  -12.1125 C   0  0  0  0  0  0  0  0  0  0  0  0
   -4.0618    4.8231  -11.4208 C   0  0  0  0  0  0  0  0  0  0  0  0
   -3.8053    3.4521  -11.3557 C   0  0  0  0  0  0  0  0  0  0  0  0
   -4.6484    2.5550  -11.9988 C   0  0  0  0  0  0  0  0  0  0  0  0
   -5.7468    3.0245  -12.7119 C   0  0  0  0  0  0  0  0  0  0  0  0
   -6.0152    4.4019  -12.7741 C   0  0  0  0  0  0  0  0  0  0  0  0
   -6.1940    5.1486  -15.8574 C   0  0  0  0  0  0  0  0  0  0  0  0
   -5.0358    5.5025  -15.2889 N   0  0  0  0  0  0  0  0  0  0  0  0
   -3.9748    5.8143  -16.0498 C   0  0  0  0  0  0  0  0  0  0  0  0
   -2.6937    6.1175  -15.3400 C   0  0  0  0  0  0  0  0  0  0  0  0
   -4.0373    5.8357  -17.4278 C   0  0  0  0  0  0  0  0  0  0  0  0
   -5.2188    5.4463  -18.0712 C   0  0  0  0  0  0  0  0  0  0  0  0
   -5.2460    5.4195  -19.5864 C   0  0  0  0  0  0  0  0  0  0  0  0
   -3.9314    5.1502  -20.1032 O   0  0  0  0  0  0  0  0  0  0  0  0
   -6.3411    5.1114  -17.2720 C   0  0  0  0  0  0  0  0  0  0  0  0
   -7.5827    4.7346  -17.8179 C   0  0  0  0  0  0  0  0  0  0  0  0
  1  2  1  0
  2  3  1  0
  3  4  2  0
  4  5  1  0
  6  5  1  6
  6  7  1  0
  7  8  2  0
  8  9  1  0
  9 10  1  1
 10 11  1  0
 11 12  1  0
 12 13  1  0
 13 14  1  1
 13 15  1  0
  9 16  1  0
 16 17  2  0
 17 18  1  0
 18 19  2  0
 19 20  1  0
 20 21  2  0
  5 22  2  0
 22 23  1  0
 23 24  2  0
 24 25  1  0
 24 26  1  0
 26 27  2  0
 27 28  1  0
 28 29  1  0
 27 30  1  0
 30 31  2  0
 31  3  1  0
 21  6  1  0
 30 22  1  0
 15 10  1  0
 21 16  1  0
M  END
>  <smiles>  (423) 
C93316-P101

>  <fragmenstein_outcome>  (423) 
acceptable

>  <inchikey>  (423) 
IMHCLIRAAKSQGU-UHFFFAOYSA-N

>  <fragmenstein_mode>  (423) 
expansion

>  <HIPPO Pose ID>  (423) 
13283

>  <Energy>  (423) 
101.263888

>  <fragmenstein_error>  (423) 


>  <tags>  (423) 
{'openbind_xx01zvns2b_c1_fragmenstein', 'fragmenstein_placed'}

>  <ref_pdb>  (423) 
1

>  <scratch_subdir>  (423) 
/opt/xchem-fragalysis-2/maxwin/BulkDock/SCRATCH/511027/C93316-P101

>  <alias>  (423) 
CCc1cc([C@@H]2C=N[C@@H](N3CC[C@@H](N)C3)c3ccccc32)c2nc(C)cc(CO)c2c1

>  <HIPPO Compound ID>  (423) 
93316

>  <fragmenstein_runtime>  (423) 
2.856961

$$$$
CN[C@@H]1CCN(C(=O)c2ccccc2[C@H](C=O)c2cccc3c([C@H](O)N4CCCC4)cc(C)nc23)C1
     RDKit          3D

 36 40  0  0  0  0  0  0  0  0999 V2000
   -6.6311   10.6158   -7.5945 C   0  0  0  0  0  0  0  0  0  0  0  0
   -7.7491    9.7258   -7.8842 N   0  0  0  0  0  0  0  0  0  0  0  0
   -7.4389    8.8020   -8.9764 C   0  0  2  0  0  0  0  0  0  0  0  0
   -8.6096    7.9441   -9.3321 C   0  0  0  0  0  0  0  0  0  0  0  0
   -7.9849    6.5843   -9.0970 C   0  0  0  0  0  0  0  0  0  0  0  0
   -6.5383    6.5032   -9.5422 N   0  0  0  0  0  0  0  0  0  0  0  0
   -6.4320    6.4219  -11.0450 C   0  0  0  0  0  0  0  0  0  0  0  0
   -6.3399    7.2743  -11.8469 O   0  0  0  0  0  0  0  0  0  0  0  0
   -6.4765    4.9733  -11.4962 C   0  0  0  0  0  0  0  0  0  0  0  0
   -5.9577    4.0078  -10.6077 C   0  0  0  0  0  0  0  0  0  0  0  0
   -6.0383    2.6490  -10.8931 C   0  0  0  0  0  0  0  0  0  0  0  0
   -6.6462    2.2402  -12.0687 C   0  0  0  0  0  0  0  0  0  0  0  0
   -7.1418    3.1757  -12.9748 C   0  0  0  0  0  0  0  0  0  0  0  0
   -7.0424    4.5606  -12.7340 C   0  0  0  0  0  0  0  0  0  0  0  0
   -7.5955    5.5321  -13.7722 C   0  0  2  0  0  0  0  0  0  0  0  0
   -8.9039    6.1472  -13.2800 C   0  0  0  0  0  0  0  0  0  0  0  0
   -9.9680    6.2354  -13.8904 O   0  0  0  0  0  0  0  0  0  0  0  0
   -7.5929    5.0543  -15.2336 C   0  0  0  0  0  0  0  0  0  0  0  0
   -8.7504    4.5619  -15.8528 C   0  0  0  0  0  0  0  0  0  0  0  0
   -8.7960    4.3782  -17.2229 C   0  0  0  0  0  0  0  0  0  0  0  0
   -7.6739    4.6753  -17.9835 C   0  0  0  0  0  0  0  0  0  0  0  0
   -6.4523    5.0582  -17.3786 C   0  0  0  0  0  0  0  0  0  0  0  0
   -5.2560    5.3569  -18.0923 C   0  0  0  0  0  0  0  0  0  0  0  0
   -5.2660    5.6954  -19.5709 C   0  0  2  0  0  0  0  0  0  0  0  0
   -4.2585    4.9637  -20.2520 O   0  0  0  0  0  0  0  0  0  0  0  0
   -5.1285    7.1112  -19.9147 N   0  0  0  0  0  0  0  0  0  0  0  0
   -3.7818    7.6414  -20.0818 C   0  0  0  0  0  0  0  0  0  0  0  0
   -4.0176    9.1440  -20.2056 C   0  0  0  0  0  0  0  0  0  0  0  0
   -5.3902    9.3882  -19.5862 C   0  0  0  0  0  0  0  0  0  0  0  0
   -5.7956    8.0396  -19.0164 C   0  0  0  0  0  0  0  0  0  0  0  0
   -4.0601    5.4899  -17.3788 C   0  0  0  0  0  0  0  0  0  0  0  0
   -4.0991    5.4929  -16.0004 C   0  0  0  0  0  0  0  0  0  0  0  0
   -2.8443    5.6704  -15.2049 C   0  0  0  0  0  0  0  0  0  0  0  0
   -5.2541    5.3994  -15.3156 N   0  0  0  0  0  0  0  0  0  0  0  0
   -6.4061    5.1660  -15.9716 C   0  0  0  0  0  0  0  0  0  0  0  0
   -6.4565    7.6857   -8.6171 C   0  0  0  0  0  0  0  0  0  0  0  0
  1  2  1  0
  3  2  1  1
  3  4  1  0
  4  5  1  0
  5  6  1  0
  6  7  1  0
  7  8  2  0
  7  9  1  0
  9 10  2  0
 10 11  1  0
 11 12  2  0
 12 13  1  0
 13 14  2  0
 14 15  1  0
 15 16  1  1
 16 17  2  0
 15 18  1  0
 18 19  2  0
 19 20  1  0
 20 21  2  0
 21 22  1  0
 22 23  2  0
 23 24  1  0
 24 25  1  6
 24 26  1  0
 26 27  1  0
 27 28  1  0
 28 29  1  0
 29 30  1  0
 23 31  1  0
 31 32  2  0
 32 33  1  0
 32 34  1  0
 34 35  2  0
  6 36  1  0
 36  3  1  0
 14  9  1  0
 35 18  1  0
 35 22  1  0
 30 26  1  0
M  END
>  <smiles>  (424) 
C93357-P101

>  <fragmenstein_outcome>  (424) 
acceptable

>  <inchikey>  (424) 
MIMQNPRQYBFUJA-UHFFFAOYSA-N

>  <fragmenstein_mode>  (424) 
expansion

>  <HIPPO Pose ID>  (424) 
13315

>  <Energy>  (424) 
151.243955

>  <fragmenstein_error>  (424) 


>  <tags>  (424) 
{'openbind_xx01zvns2b_c1_fragmenstein', 'fragmenstein_placed'}

>  <ref_pdb>  (424) 
1

>  <scratch_subdir>  (424) 
/opt/xchem-fragalysis-2/maxwin/BulkDock/SCRATCH/511027/C93357-P101

>  <alias>  (424) 
CN[C@@H]1CCN(C(=O)c2ccccc2[C@H](C=O)c2cccc3c([C@H](O)N4CCCC4)cc(C)nc23)C1

>  <HIPPO Compound ID>  (424) 
80240

>  <fragmenstein_runtime>  (424) 
7.386391

$$$$
Cc1cc(CO)c2cc(Br)cc([C@]34CCC[C@@H]3NCCCN[C@H](C)CCN4)c2n1
     RDKit          3D

 29 32  0  0  0  0  0  0  0  0999 V2000
   -2.4963    5.6625  -15.6040 C   0  0  0  0  0  0  0  0  0  0  0  0
   -3.8236    5.4061  -16.2452 C   0  0  0  0  0  0  0  0  0  0  0  0
   -3.9589    5.4498  -17.6157 C   0  0  0  0  0  0  0  0  0  0  0  0
   -5.2154    5.2303  -18.1699 C   0  0  0  0  0  0  0  0  0  0  0  0
   -5.4156    5.3056  -19.6631 C   0  0  0  0  0  0  0  0  0  0  0  0
   -4.1923    5.4674  -20.3827 O   0  0  0  0  0  0  0  0  0  0  0  0
   -6.3077    4.9791  -17.3040 C   0  0  0  0  0  0  0  0  0  0  0  0
   -7.5821    4.7312  -17.8270 C   0  0  0  0  0  0  0  0  0  0  0  0
   -8.6551    4.5112  -16.9929 C   0  0  0  0  0  0  0  0  0  0  0  0
  -10.3293    4.2292  -17.7926 Br  0  0  0  0  0  0  0  0  0  0  0  0
   -8.4888    4.5761  -15.6198 C   0  0  0  0  0  0  0  0  0  0  0  0
   -7.2170    4.8340  -15.0344 C   0  0  0  0  0  0  0  0  0  0  0  0
   -7.1833    5.0419  -13.4790 C   0  0  2  0  0  0  0  0  0  0  0  0
   -7.5597    6.5298  -13.2214 C   0  0  0  0  0  0  0  0  0  0  0  0
   -6.2409    7.2964  -13.3375 C   0  0  0  0  0  0  0  0  0  0  0  0
   -5.1576    6.3601  -12.7964 C   0  0  0  0  0  0  0  0  0  0  0  0
   -5.8169    4.9683  -12.6814 C   0  0  2  0  0  0  0  0  0  0  0  0
   -4.9650    3.7869  -12.8778 N   0  0  0  0  0  0  0  0  0  0  0  0
   -4.5541    3.1790  -11.6041 C   0  0  0  0  0  0  0  0  0  0  0  0
   -5.5090    2.0416  -11.2169 C   0  0  0  0  0  0  0  0  0  0  0  0
   -5.9240    1.9608   -9.7409 C   0  0  0  0  0  0  0  0  0  0  0  0
   -6.6696    3.0866   -9.1606 N   0  0  0  0  0  0  0  0  0  0  0  0
   -8.1539    3.0341   -9.2754 C   0  0  2  0  0  0  0  0  0  0  0  0
   -8.7800    1.9971   -8.3386 C   0  0  0  0  0  0  0  0  0  0  0  0
   -8.7041    2.9543  -10.7098 C   0  0  0  0  0  0  0  0  0  0  0  0
   -8.4668    4.2712  -11.4558 C   0  0  0  0  0  0  0  0  0  0  0  0
   -8.1675    4.0974  -12.8774 N   0  0  0  0  0  0  0  0  0  0  0  0
   -6.1076    4.9962  -15.8949 C   0  0  0  0  0  0  0  0  0  0  0  0
   -4.8700    5.2069  -15.4165 N   0  0  0  0  0  0  0  0  0  0  0  0
  1  2  1  0
  2  3  2  0
  3  4  1  0
  4  5  1  0
  5  6  1  0
  4  7  2  0
  7  8  1  0
  8  9  2  0
  9 10  1  0
  9 11  1  0
 11 12  2  0
 13 12  1  6
 13 14  1  0
 14 15  1  0
 15 16  1  0
 17 16  1  6
 17 18  1  0
 18 19  1  0
 19 20  1  0
 20 21  1  0
 21 22  1  0
 22 23  1  0
 23 24  1  1
 23 25  1  0
 25 26  1  0
 26 27  1  0
 12 28  1  0
 28 29  2  0
 29  2  1  0
 28  7  1  0
 17 13  1  0
 27 13  1  0
M  END
>  <smiles>  (425) 
C93377-P101

>  <fragmenstein_outcome>  (425) 
acceptable

>  <inchikey>  (425) 
CKCCDPZQDAAEDK-UHFFFAOYSA-N

>  <fragmenstein_mode>  (425) 
expansion

>  <HIPPO Pose ID>  (425) 
13326

>  <Energy>  (425) 
119.402189

>  <fragmenstein_error>  (425) 


>  <tags>  (425) 
{'openbind_xx01zvns2b_c1_fragmenstein', 'fragmenstein_placed'}

>  <ref_pdb>  (425) 
1

>  <scratch_subdir>  (425) 
/opt/xchem-fragalysis-2/maxwin/BulkDock/SCRATCH/511027/C93377-P101

>  <alias>  (425) 
Cc1cc(CO)c2cc(Br)cc([C@]34CCC[C@@H]3NCCCN[C@H](C)CCN4)c2n1

>  <HIPPO Compound ID>  (425) 
74016

>  <fragmenstein_runtime>  (425) 
4.323719

$$$$
Cc1cc(CO)c2cc(Cl)cc([C@]34CCC[C@@H]3NCCCN[C@H](C)CCN4)c2n1
     RDKit          3D

 29 32  0  0  0  0  0  0  0  0999 V2000
   -2.3827    5.9085  -15.2214 C   0  0  0  0  0  0  0  0  0  0  0  0
   -3.6354    5.6061  -15.9794 C   0  0  0  0  0  0  0  0  0  0  0  0
   -3.6398    5.6368  -17.3536 C   0  0  0  0  0  0  0  0  0  0  0  0
   -4.8036    5.2862  -18.0409 C   0  0  0  0  0  0  0  0  0  0  0  0
   -4.7549    5.2710  -19.5558 C   0  0  0  0  0  0  0  0  0  0  0  0
   -3.4257    4.9837  -20.0374 O   0  0  0  0  0  0  0  0  0  0  0  0
   -5.9810    5.0121  -17.2917 C   0  0  0  0  0  0  0  0  0  0  0  0
   -7.2165    4.7158  -17.9055 C   0  0  0  0  0  0  0  0  0  0  0  0
   -8.3387    4.4410  -17.1410 C   0  0  0  0  0  0  0  0  0  0  0  0
   -9.8323    4.0817  -17.9054 Cl  0  0  0  0  0  0  0  0  0  0  0  0
   -8.2627    4.5080  -15.7604 C   0  0  0  0  0  0  0  0  0  0  0  0
   -7.0578    4.8633  -15.0955 C   0  0  0  0  0  0  0  0  0  0  0  0
   -7.1822    5.1219  -13.5654 C   0  0  2  0  0  0  0  0  0  0  0  0
   -7.9403    6.4862  -13.4487 C   0  0  0  0  0  0  0  0  0  0  0  0
   -6.8330    7.5426  -13.5735 C   0  0  0  0  0  0  0  0  0  0  0  0
   -5.5961    6.9360  -12.9032 C   0  0  0  0  0  0  0  0  0  0  0  0
   -5.9753    5.4775  -12.6141 C   0  0  2  0  0  0  0  0  0  0  0  0
   -4.9260    4.4600  -12.5543 N   0  0  0  0  0  0  0  0  0  0  0  0
   -4.0777    4.5085  -11.3760 C   0  0  0  0  0  0  0  0  0  0  0  0
   -4.7402    4.1904  -10.0163 C   0  0  0  0  0  0  0  0  0  0  0  0
   -5.2922    2.7636   -9.8313 C   0  0  0  0  0  0  0  0  0  0  0  0
   -6.5460    2.4669  -10.5074 N   0  0  0  0  0  0  0  0  0  0  0  0
   -7.7536    3.0145   -9.8721 C   0  0  2  0  0  0  0  0  0  0  0  0
   -8.1898    2.2705   -8.6034 C   0  0  0  0  0  0  0  0  0  0  0  0
   -8.8723    2.9824  -10.9203 C   0  0  0  0  0  0  0  0  0  0  0  0
   -8.7503    4.1201  -11.9276 C   0  0  0  0  0  0  0  0  0  0  0  0
   -7.7730    3.9026  -12.9750 N   0  0  0  0  0  0  0  0  0  0  0  0
   -5.9025    5.0597  -15.8659 C   0  0  0  0  0  0  0  0  0  0  0  0
   -4.7347    5.3217  -15.2608 N   0  0  0  0  0  0  0  0  0  0  0  0
  1  2  1  0
  2  3  2  0
  3  4  1  0
  4  5  1  0
  5  6  1  0
  4  7  2  0
  7  8  1  0
  8  9  2  0
  9 10  1  0
  9 11  1  0
 11 12  2  0
 13 12  1  6
 13 14  1  0
 14 15  1  0
 15 16  1  0
 17 16  1  6
 17 18  1  0
 18 19  1  0
 19 20  1  0
 20 21  1  0
 21 22  1  0
 22 23  1  0
 23 24  1  1
 23 25  1  0
 25 26  1  0
 26 27  1  0
 12 28  1  0
 28 29  2  0
 29  2  1  0
 28  7  1  0
 17 13  1  0
 27 13  1  0
M  END
>  <smiles>  (426) 
C93396-P101

>  <fragmenstein_outcome>  (426) 
acceptable

>  <inchikey>  (426) 
QUAVPFRIBNRBOP-UHFFFAOYSA-N

>  <fragmenstein_mode>  (426) 
expansion

>  <HIPPO Pose ID>  (426) 
13337

>  <Energy>  (426) 
105.910904

>  <fragmenstein_error>  (426) 


>  <tags>  (426) 
{'openbind_xx01zvns2b_c1_fragmenstein', 'fragmenstein_placed'}

>  <ref_pdb>  (426) 
1

>  <scratch_subdir>  (426) 
/opt/xchem-fragalysis-2/maxwin/BulkDock/SCRATCH/511027/C93396-P101

>  <alias>  (426) 
Cc1cc(CO)c2cc(Cl)cc([C@]34CCC[C@@H]3NCCCN[C@H](C)CCN4)c2n1

>  <HIPPO Compound ID>  (426) 
93396

>  <fragmenstein_runtime>  (426) 
4.266889

$$$$
C[C@H](CO)c1cccc2c(NCN)c[nH]c12
     RDKit          3D

 16 17  0  0  0  0  0  0  0  0999 V2000
   -6.9186    6.1218  -13.5344 C   0  0  0  0  0  0  0  0  0  0  0  0
   -7.7349    4.9477  -14.0797 C   0  0  2  0  0  0  0  0  0  0  0  0
   -7.4506    3.6722  -13.2780 C   0  0  0  0  0  0  0  0  0  0  0  0
   -8.0157    3.7857  -11.9722 O   0  0  0  0  0  0  0  0  0  0  0  0
   -7.6378    4.7346  -15.5896 C   0  0  0  0  0  0  0  0  0  0  0  0
   -8.7938    4.2188  -16.2237 C   0  0  0  0  0  0  0  0  0  0  0  0
   -8.9007    4.0307  -17.5954 C   0  0  0  0  0  0  0  0  0  0  0  0
   -7.8286    4.3371  -18.4179 C   0  0  0  0  0  0  0  0  0  0  0  0
   -6.6330    4.8135  -17.8483 C   0  0  0  0  0  0  0  0  0  0  0  0
   -5.3945    5.2287  -18.4101 C   0  0  0  0  0  0  0  0  0  0  0  0
   -5.1039    5.2569  -19.7343 N   0  0  0  0  0  0  0  0  0  0  0  0
   -4.5651    6.4630  -20.3144 C   0  0  0  0  0  0  0  0  0  0  0  0
   -5.2187    6.9085  -21.5291 N   0  0  0  0  0  0  0  0  0  0  0  0
   -4.5628    5.5918  -17.3855 C   0  0  0  0  0  0  0  0  0  0  0  0
   -5.2592    5.4260  -16.2148 N   0  0  0  0  0  0  0  0  0  0  0  0
   -6.5493    4.9891  -16.4571 C   0  0  0  0  0  0  0  0  0  0  0  0
  2  1  1  1
  2  3  1  0
  3  4  1  0
  2  5  1  0
  5  6  2  0
  6  7  1  0
  7  8  2  0
  8  9  1  0
  9 10  1  0
 10 11  1  0
 11 12  1  0
 12 13  1  0
 10 14  2  0
 14 15  1  0
 15 16  1  0
 16  5  1  0
 16  9  2  0
M  END
>  <smiles>  (427) 
C93537-P102

>  <fragmenstein_outcome>  (427) 
acceptable

>  <inchikey>  (427) 
HCMXJYYLWGKWLA-UHFFFAOYSA-N

>  <fragmenstein_mode>  (427) 
expansion

>  <HIPPO Pose ID>  (427) 
13419

>  <Energy>  (427) 
-28.258135

>  <fragmenstein_error>  (427) 


>  <tags>  (427) 
{'openbind_xx01zvns2b_c1_fragmenstein', 'fragmenstein_placed'}

>  <ref_pdb>  (427) 
1

>  <scratch_subdir>  (427) 
/opt/xchem-fragalysis-2/maxwin/BulkDock/SCRATCH/511027/C93537-P102

>  <alias>  (427) 
C[C@H](CO)c1cccc2c(NCN)c[nH]c12

>  <HIPPO Compound ID>  (427) 
100365

>  <fragmenstein_runtime>  (427) 
1.804186

$$$$
CNc1c[nH]c(CN(C)C(=O)C(=O)c2cccc3c(CO)cc(C)nc23)c1
     RDKit          3D

 27 29  0  0  0  0  0  0  0  0999 V2000
   -7.9710    3.9424   -4.9238 C   0  0  0  0  0  0  0  0  0  0  0  0
   -7.8560    4.5811   -6.2171 N   0  0  0  0  0  0  0  0  0  0  0  0
   -7.9558    3.8627   -7.3567 C   0  0  0  0  0  0  0  0  0  0  0  0
   -7.8977    2.4985   -7.4973 C   0  0  0  0  0  0  0  0  0  0  0  0
   -8.0864    2.1905   -8.8168 N   0  0  0  0  0  0  0  0  0  0  0  0
   -8.2380    3.3559   -9.5263 C   0  0  0  0  0  0  0  0  0  0  0  0
   -8.4677    3.3388  -10.9806 C   0  0  0  0  0  0  0  0  0  0  0  0
   -7.2614    3.5841  -11.7497 N   0  0  0  0  0  0  0  0  0  0  0  0
   -6.0284    4.0797  -11.1800 C   0  0  0  0  0  0  0  0  0  0  0  0
   -7.3261    3.3201  -13.0987 C   0  0  0  0  0  0  0  0  0  0  0  0
   -7.0582    2.2436  -13.6084 O   0  0  0  0  0  0  0  0  0  0  0  0
   -7.8827    4.5013  -13.8978 C   0  0  0  0  0  0  0  0  0  0  0  0
   -8.5078    5.4042  -13.3455 O   0  0  0  0  0  0  0  0  0  0  0  0
   -7.7957    4.4953  -15.3515 C   0  0  0  0  0  0  0  0  0  0  0  0
   -9.0011    4.2662  -16.0238 C   0  0  0  0  0  0  0  0  0  0  0  0
   -9.0490    4.3521  -17.3968 C   0  0  0  0  0  0  0  0  0  0  0  0
   -7.8885    4.6859  -18.0773 C   0  0  0  0  0  0  0  0  0  0  0  0
   -6.6630    4.9304  -17.4058 C   0  0  0  0  0  0  0  0  0  0  0  0
   -5.4825    5.2925  -18.0983 C   0  0  0  0  0  0  0  0  0  0  0  0
   -5.5166    5.4579  -19.5957 C   0  0  0  0  0  0  0  0  0  0  0  0
   -4.2308    5.6271  -20.1858 O   0  0  0  0  0  0  0  0  0  0  0  0
   -4.3145    5.5263  -17.3723 C   0  0  0  0  0  0  0  0  0  0  0  0
   -4.3430    5.3965  -15.9939 C   0  0  0  0  0  0  0  0  0  0  0  0
   -3.1015    5.6405  -15.1901 C   0  0  0  0  0  0  0  0  0  0  0  0
   -5.4630    5.0625  -15.3126 N   0  0  0  0  0  0  0  0  0  0  0  0
   -6.6059    4.8247  -15.9982 C   0  0  0  0  0  0  0  0  0  0  0  0
   -8.1520    4.4108   -8.6379 C   0  0  0  0  0  0  0  0  0  0  0  0
  1  2  1  0
  2  3  1  0
  3  4  2  0
  4  5  1  0
  5  6  1  0
  6  7  1  0
  7  8  1  0
  8  9  1  0
  8 10  1  0
 10 11  2  0
 10 12  1  0
 12 13  2  0
 12 14  1  0
 14 15  2  0
 15 16  1  0
 16 17  2  0
 17 18  1  0
 18 19  2  0
 19 20  1  0
 20 21  1  0
 19 22  1  0
 22 23  2  0
 23 24  1  0
 23 25  1  0
 25 26  2  0
  6 27  2  0
 27  3  1  0
 26 14  1  0
 26 18  1  0
M  END
>  <smiles>  (428) 
C93752-P103

>  <fragmenstein_outcome>  (428) 
acceptable

>  <inchikey>  (428) 
LYBHMLGZHDBDOX-UHFFFAOYSA-N

>  <fragmenstein_mode>  (428) 
expansion

>  <HIPPO Pose ID>  (428) 
13568

>  <Energy>  (428) 
68.350618

>  <fragmenstein_error>  (428) 


>  <tags>  (428) 
{'openbind_xx01zvns2b_c1_fragmenstein', 'fragmenstein_placed'}

>  <ref_pdb>  (428) 
1

>  <scratch_subdir>  (428) 
/opt/xchem-fragalysis-2/maxwin/BulkDock/SCRATCH/511027/C93752-P103

>  <alias>  (428) 
CNc1c[nH]c(CN(C)C(=O)C(=O)c2cccc3c(CO)cc(C)nc23)c1

>  <HIPPO Compound ID>  (428) 
96996

>  <fragmenstein_runtime>  (428) 
6.666623

$$$$
CNc1c[nH]c(CN(C)C(=O)C(=O)c2cc(Cl)cc3c(CO)cc(C)nc23)c1
     RDKit          3D

 28 30  0  0  0  0  0  0  0  0999 V2000
   -7.7526    6.0801   -6.1867 C   0  0  0  0  0  0  0  0  0  0  0  0
   -7.9424    4.6511   -6.2165 N   0  0  0  0  0  0  0  0  0  0  0  0
   -8.0082    3.9523   -7.3692 C   0  0  0  0  0  0  0  0  0  0  0  0
   -7.9208    2.5838   -7.4338 C   0  0  0  0  0  0  0  0  0  0  0  0
   -8.0673    2.2016   -8.7387 N   0  0  0  0  0  0  0  0  0  0  0  0
   -8.2370    3.3239   -9.5108 C   0  0  0  0  0  0  0  0  0  0  0  0
   -8.4490    3.2184  -10.9621 C   0  0  0  0  0  0  0  0  0  0  0  0
   -7.2382    3.4396  -11.7316 N   0  0  0  0  0  0  0  0  0  0  0  0
   -5.9903    3.8938  -11.1611 C   0  0  0  0  0  0  0  0  0  0  0  0
   -7.3173    3.1932  -13.0809 C   0  0  0  0  0  0  0  0  0  0  0  0
   -7.0834    2.1172  -13.6079 O   0  0  0  0  0  0  0  0  0  0  0  0
   -7.8441    4.3956  -13.8642 C   0  0  0  0  0  0  0  0  0  0  0  0
   -8.4449    5.3129  -13.3091 O   0  0  0  0  0  0  0  0  0  0  0  0
   -7.7785    4.4020  -15.3149 C   0  0  0  0  0  0  0  0  0  0  0  0
   -9.0044    4.2535  -15.9518 C   0  0  0  0  0  0  0  0  0  0  0  0
   -9.0756    4.4129  -17.3109 C   0  0  0  0  0  0  0  0  0  0  0  0
  -10.6007    4.3855  -18.0568 Cl  0  0  0  0  0  0  0  0  0  0  0  0
   -7.9316    4.6965  -18.0364 C   0  0  0  0  0  0  0  0  0  0  0  0
   -6.6828    4.8602  -17.3922 C   0  0  0  0  0  0  0  0  0  0  0  0
   -5.5048    5.2053  -18.0944 C   0  0  0  0  0  0  0  0  0  0  0  0
   -5.5507    5.4182  -19.5849 C   0  0  0  0  0  0  0  0  0  0  0  0
   -4.2612    5.5442  -20.1816 O   0  0  0  0  0  0  0  0  0  0  0  0
   -4.3260    5.4008  -17.3730 C   0  0  0  0  0  0  0  0  0  0  0  0
   -4.3420    5.2448  -15.9952 C   0  0  0  0  0  0  0  0  0  0  0  0
   -3.0971    5.4778  -15.1937 C   0  0  0  0  0  0  0  0  0  0  0  0
   -5.4535    4.9055  -15.3097 N   0  0  0  0  0  0  0  0  0  0  0  0
   -6.6022    4.7127  -15.9868 C   0  0  0  0  0  0  0  0  0  0  0  0
   -8.1904    4.4281   -8.6810 C   0  0  0  0  0  0  0  0  0  0  0  0
  1  2  1  0
  2  3  1  0
  3  4  2  0
  4  5  1  0
  5  6  1  0
  6  7  1  0
  7  8  1  0
  8  9  1  0
  8 10  1  0
 10 11  2  0
 10 12  1  0
 12 13  2  0
 12 14  1  0
 14 15  2  0
 15 16  1  0
 16 17  1  0
 16 18  2  0
 18 19  1  0
 19 20  2  0
 20 21  1  0
 21 22  1  0
 20 23  1  0
 23 24  2  0
 24 25  1  0
 24 26  1  0
 26 27  2  0
  6 28  2  0
 28  3  1  0
 27 14  1  0
 27 19  1  0
M  END
>  <smiles>  (429) 
C93756-P103

>  <fragmenstein_outcome>  (429) 
acceptable

>  <inchikey>  (429) 
RLHHFIWDCHBFJS-UHFFFAOYSA-N

>  <fragmenstein_mode>  (429) 
expansion

>  <HIPPO Pose ID>  (429) 
13572

>  <Energy>  (429) 
54.59221

>  <fragmenstein_error>  (429) 


>  <tags>  (429) 
{'openbind_xx01zvns2b_c1_fragmenstein', 'fragmenstein_placed'}

>  <ref_pdb>  (429) 
1

>  <scratch_subdir>  (429) 
/opt/xchem-fragalysis-2/maxwin/BulkDock/SCRATCH/511027/C93756-P103

>  <alias>  (429) 
CNc1c[nH]c(CN(C)C(=O)C(=O)c2cc(Cl)cc3c(CO)cc(C)nc23)c1

>  <HIPPO Compound ID>  (429) 
93756

>  <fragmenstein_runtime>  (429) 
6.138088

$$$$
Cc1cc(CO)c2cccc(C(=O)C(=O)N3CC[C@]4(CCNC4)C3)c2n1
     RDKit          3D

 26 29  0  0  0  0  0  0  0  0999 V2000
   -3.1167    5.8862  -14.8743 C   0  0  0  0  0  0  0  0  0  0  0  0
   -4.3483    5.6445  -15.6928 C   0  0  0  0  0  0  0  0  0  0  0  0
   -4.2945    5.7687  -17.0720 C   0  0  0  0  0  0  0  0  0  0  0  0
   -5.4303    5.4834  -17.8379 C   0  0  0  0  0  0  0  0  0  0  0  0
   -5.3455    5.5809  -19.3494 C   0  0  0  0  0  0  0  0  0  0  0  0
   -4.0160    5.2853  -19.7978 O   0  0  0  0  0  0  0  0  0  0  0  0
   -6.6239    5.1346  -17.1611 C   0  0  0  0  0  0  0  0  0  0  0  0
   -7.8294    4.8650  -17.8488 C   0  0  0  0  0  0  0  0  0  0  0  0
   -8.9812    4.4773  -17.1775 C   0  0  0  0  0  0  0  0  0  0  0  0
   -8.9505    4.3737  -15.8011 C   0  0  0  0  0  0  0  0  0  0  0  0
   -7.7720    4.6518  -15.1045 C   0  0  0  0  0  0  0  0  0  0  0  0
   -7.8477    4.5521  -13.6433 C   0  0  0  0  0  0  0  0  0  0  0  0
   -8.4800    5.3890  -13.0057 O   0  0  0  0  0  0  0  0  0  0  0  0
   -7.2715    3.3074  -12.9645 C   0  0  0  0  0  0  0  0  0  0  0  0
   -6.9887    2.3051  -13.6048 O   0  0  0  0  0  0  0  0  0  0  0  0
   -7.2004    3.3868  -11.6005 N   0  0  0  0  0  0  0  0  0  0  0  0
   -6.0385    3.8010  -10.8594 C   0  0  0  0  0  0  0  0  0  0  0  0
   -6.2629    3.1614   -9.4948 C   0  0  0  0  0  0  0  0  0  0  0  0
   -7.7974    3.2370   -9.3208 C   0  0  1  0  0  0  0  0  0  0  0  0
   -8.3277    2.2178   -8.3219 C   0  0  0  0  0  0  0  0  0  0  0  0
   -8.3644    2.9513   -6.9877 C   0  0  0  0  0  0  0  0  0  0  0  0
   -8.0117    4.3544   -7.2619 N   0  0  0  0  0  0  0  0  0  0  0  0
   -8.2386    4.5536   -8.6935 C   0  0  0  0  0  0  0  0  0  0  0  0
   -8.3180    3.0526  -10.7456 C   0  0  0  0  0  0  0  0  0  0  0  0
   -6.5949    5.0379  -15.7426 C   0  0  0  0  0  0  0  0  0  0  0  0
   -5.4765    5.3060  -15.0334 N   0  0  0  0  0  0  0  0  0  0  0  0
  1  2  1  0
  2  3  2  0
  3  4  1  0
  4  5  1  0
  5  6  1  0
  4  7  2  0
  7  8  1  0
  8  9  2  0
  9 10  1  0
 10 11  2  0
 11 12  1  0
 12 13  2  0
 12 14  1  0
 14 15  2  0
 14 16  1  0
 16 17  1  0
 17 18  1  0
 19 18  1  6
 19 20  1  0
 20 21  1  0
 21 22  1  0
 22 23  1  0
 19 24  1  0
 11 25  1  0
 25 26  2  0
 26  2  1  0
 25  7  1  0
 24 16  1  0
 23 19  1  0
M  END
>  <smiles>  (430) 
C93583-P103

>  <fragmenstein_outcome>  (430) 
acceptable

>  <inchikey>  (430) 
FRYNSRJYQSVINH-UHFFFAOYSA-N

>  <fragmenstein_mode>  (430) 
expansion

>  <HIPPO Pose ID>  (430) 
13576

>  <Energy>  (430) 
119.626

>  <fragmenstein_error>  (430) 


>  <tags>  (430) 
{'openbind_xx01zvns2b_c1_fragmenstein', 'fragmenstein_placed'}

>  <ref_pdb>  (430) 
1

>  <scratch_subdir>  (430) 
/opt/xchem-fragalysis-2/maxwin/BulkDock/SCRATCH/511027/C93583-P103

>  <alias>  (430) 
Cc1cc(CO)c2cccc(C(=O)C(=O)N3CC[C@]4(CCNC4)C3)c2n1

>  <HIPPO Compound ID>  (430) 
93583

>  <fragmenstein_runtime>  (430) 
4.635334

$$$$
Cc1cc(CO)c2cccc(CC(O)(O)N3CC[C@@H](CN)C3)c2n1
     RDKit          3D

 24 26  0  0  0  0  0  0  0  0999 V2000
   -3.1129    6.1658  -15.2486 C   0  0  0  0  0  0  0  0  0  0  0  0
   -4.3926    5.9200  -15.9910 C   0  0  0  0  0  0  0  0  0  0  0  0
   -4.3985    5.9339  -17.3749 C   0  0  0  0  0  0  0  0  0  0  0  0
   -5.5681    5.5924  -18.0542 C   0  0  0  0  0  0  0  0  0  0  0  0
   -5.6165    5.6023  -19.5612 C   0  0  0  0  0  0  0  0  0  0  0  0
   -4.3326    5.6878  -20.1783 O   0  0  0  0  0  0  0  0  0  0  0  0
   -6.7152    5.2367  -17.3037 C   0  0  0  0  0  0  0  0  0  0  0  0
   -7.9247    4.8408  -17.9199 C   0  0  0  0  0  0  0  0  0  0  0  0
   -9.0209    4.4464  -17.1728 C   0  0  0  0  0  0  0  0  0  0  0  0
   -8.9246    4.4556  -15.7945 C   0  0  0  0  0  0  0  0  0  0  0  0
   -7.7452    4.8621  -15.1435 C   0  0  0  0  0  0  0  0  0  0  0  0
   -7.7434    4.8093  -13.6171 C   0  0  0  0  0  0  0  0  0  0  0  0
   -6.6146    3.9731  -12.9431 C   0  0  0  0  0  0  0  0  0  0  0  0
   -6.1795    2.9748  -13.8303 O   0  0  0  0  0  0  0  0  0  0  0  0
   -5.5115    4.7939  -12.6398 O   0  0  0  0  0  0  0  0  0  0  0  0
   -7.0547    3.2487  -11.7694 N   0  0  0  0  0  0  0  0  0  0  0  0
   -6.0073    2.4769  -11.0847 C   0  0  0  0  0  0  0  0  0  0  0  0
   -6.6178    2.1191   -9.7357 C   0  0  0  0  0  0  0  0  0  0  0  0
   -7.9987    2.7754   -9.7737 C   0  0  1  0  0  0  0  0  0  0  0  0
   -8.6413    3.0144   -8.4182 C   0  0  0  0  0  0  0  0  0  0  0  0
   -7.7743    3.5607   -7.3826 N   0  0  0  0  0  0  0  0  0  0  0  0
   -7.7763    3.9595  -10.7114 C   0  0  0  0  0  0  0  0  0  0  0  0
   -6.6274    5.2625  -15.8880 C   0  0  0  0  0  0  0  0  0  0  0  0
   -5.4938    5.6389  -15.2563 N   0  0  0  0  0  0  0  0  0  0  0  0
  1  2  1  0
  2  3  2  0
  3  4  1  0
  4  5  1  0
  5  6  1  0
  4  7  2  0
  7  8  1  0
  8  9  2  0
  9 10  1  0
 10 11  2  0
 11 12  1  0
 12 13  1  0
 13 14  1  0
 13 15  1  0
 13 16  1  0
 16 17  1  0
 17 18  1  0
 18 19  1  0
 19 20  1  1
 20 21  1  0
 19 22  1  0
 11 23  1  0
 23 24  2  0
 24  2  1  0
 23  7  1  0
 22 16  1  0
M  END
>  <smiles>  (431) 
C93780-P103

>  <fragmenstein_outcome>  (431) 
acceptable

>  <inchikey>  (431) 
QENASRDUYDXUSZ-UHFFFAOYSA-N

>  <fragmenstein_mode>  (431) 
expansion

>  <HIPPO Pose ID>  (431) 
13594

>  <Energy>  (431) 
-29.365718

>  <fragmenstein_error>  (431) 


>  <tags>  (431) 
{'openbind_xx01zvns2b_c1_fragmenstein', 'fragmenstein_placed'}

>  <ref_pdb>  (431) 
1

>  <scratch_subdir>  (431) 
/opt/xchem-fragalysis-2/maxwin/BulkDock/SCRATCH/511027/C93780-P103

>  <alias>  (431) 
Cc1cc(CO)c2cccc(CC(O)(O)N3CC[C@@H](CN)C3)c2n1

>  <HIPPO Compound ID>  (431) 
74037

>  <fragmenstein_runtime>  (431) 
3.808409

$$$$
CNc1c[nH]c(CN(C)C(=O)C(=O)c2cc(Cl)cc3c(CN=O)cc(C)nc23)c1
     RDKit          3D

 29 31  0  0  0  0  0  0  0  0999 V2000
   -7.4281    5.7719   -5.9886 C   0  0  0  0  0  0  0  0  0  0  0  0
   -7.8745    4.4014   -6.0660 N   0  0  0  0  0  0  0  0  0  0  0  0
   -8.0104    3.7673   -7.2496 C   0  0  0  0  0  0  0  0  0  0  0  0
   -8.0215    2.4019   -7.3776 C   0  0  0  0  0  0  0  0  0  0  0  0
   -8.1965    2.0931   -8.6963 N   0  0  0  0  0  0  0  0  0  0  0  0
   -8.2805    3.2578   -9.4175 C   0  0  0  0  0  0  0  0  0  0  0  0
   -8.4595    3.2298  -10.8775 C   0  0  0  0  0  0  0  0  0  0  0  0
   -7.2059    3.3755  -11.5962 N   0  0  0  0  0  0  0  0  0  0  0  0
   -5.9406    3.6693  -10.9595 C   0  0  0  0  0  0  0  0  0  0  0  0
   -7.2534    3.2203  -12.9598 C   0  0  0  0  0  0  0  0  0  0  0  0
   -7.1030    2.1608  -13.5490 O   0  0  0  0  0  0  0  0  0  0  0  0
   -7.6304    4.5160  -13.6826 C   0  0  0  0  0  0  0  0  0  0  0  0
   -8.0665    5.4905  -13.0786 O   0  0  0  0  0  0  0  0  0  0  0  0
   -7.5844    4.5474  -15.1362 C   0  0  0  0  0  0  0  0  0  0  0  0
   -8.7912    4.3524  -15.7980 C   0  0  0  0  0  0  0  0  0  0  0  0
   -8.8163    4.4726  -17.1676 C   0  0  0  0  0  0  0  0  0  0  0  0
  -10.2935    4.3048  -17.9937 Cl  0  0  0  0  0  0  0  0  0  0  0  0
   -7.6618    4.7915  -17.8692 C   0  0  0  0  0  0  0  0  0  0  0  0
   -6.4391    5.0009  -17.1986 C   0  0  0  0  0  0  0  0  0  0  0  0
   -5.2449    5.3365  -17.8842 C   0  0  0  0  0  0  0  0  0  0  0  0
   -5.2305    5.4461  -19.4008 C   0  0  0  0  0  0  0  0  0  0  0  0
   -3.9427    5.9616  -19.9675 N   0  0  0  0  0  0  0  0  0  0  0  0
   -3.1615    5.0564  -20.2874 O   0  0  0  0  0  0  0  0  0  0  0  0
   -4.0829    5.5185  -17.1234 C   0  0  0  0  0  0  0  0  0  0  0  0
   -4.1319    5.3771  -15.7459 C   0  0  0  0  0  0  0  0  0  0  0  0
   -2.8969    5.5877  -14.9251 C   0  0  0  0  0  0  0  0  0  0  0  0
   -5.2636    5.0582  -15.0880 N   0  0  0  0  0  0  0  0  0  0  0  0
   -6.3981    4.8696  -15.7877 C   0  0  0  0  0  0  0  0  0  0  0  0
   -8.1678    4.3169   -8.5362 C   0  0  0  0  0  0  0  0  0  0  0  0
  1  2  1  0
  2  3  1  0
  3  4  2  0
  4  5  1  0
  5  6  1  0
  6  7  1  0
  7  8  1  0
  8  9  1  0
  8 10  1  0
 10 11  2  0
 10 12  1  0
 12 13  2  0
 12 14  1  0
 14 15  2  0
 15 16  1  0
 16 17  1  0
 16 18  2  0
 18 19  1  0
 19 20  2  0
 20 21  1  0
 21 22  1  0
 22 23  2  0
 20 24  1  0
 24 25  2  0
 25 26  1  0
 25 27  1  0
 27 28  2  0
  6 29  2  0
 29  3  1  0
 28 14  1  0
 28 19  1  0
M  END
>  <smiles>  (432) 
C93812-P103

>  <fragmenstein_outcome>  (432) 
acceptable

>  <inchikey>  (432) 
ONHQCNOYIJVPFT-UHFFFAOYSA-N

>  <fragmenstein_mode>  (432) 
expansion

>  <HIPPO Pose ID>  (432) 
13620

>  <Energy>  (432) 
65.001837

>  <fragmenstein_error>  (432) 


>  <tags>  (432) 
{'openbind_xx01zvns2b_c1_fragmenstein', 'fragmenstein_placed'}

>  <ref_pdb>  (432) 
1

>  <scratch_subdir>  (432) 
/opt/xchem-fragalysis-2/maxwin/BulkDock/SCRATCH/511027/C93812-P103

>  <alias>  (432) 
CNc1c[nH]c(CN(C)C(=O)C(=O)c2cc(Cl)cc3c(CN=O)cc(C)nc23)c1

>  <HIPPO Compound ID>  (432) 
93812

>  <fragmenstein_runtime>  (432) 
6.154888

$$$$
Cc1cc(CO)c2cccc(C[C@@H](N=CNCC(F)F)N3CC[C@@]4(CCN[C@H]4N)C3)c2n1
     RDKit          3D

 32 35  0  0  0  0  0  0  0  0999 V2000
   -2.9675    5.9000  -15.1523 C   0  0  0  0  0  0  0  0  0  0  0  0
   -4.2332    5.6632  -15.9165 C   0  0  0  0  0  0  0  0  0  0  0  0
   -4.2316    5.7085  -17.2963 C   0  0  0  0  0  0  0  0  0  0  0  0
   -5.3967    5.3721  -17.9900 C   0  0  0  0  0  0  0  0  0  0  0  0
   -5.4128    5.4381  -19.5024 C   0  0  0  0  0  0  0  0  0  0  0  0
   -4.0963    5.4524  -20.0620 O   0  0  0  0  0  0  0  0  0  0  0  0
   -6.5518    5.0131  -17.2447 C   0  0  0  0  0  0  0  0  0  0  0  0
   -7.7457    4.5878  -17.8673 C   0  0  0  0  0  0  0  0  0  0  0  0
   -8.8535    4.2123  -17.1275 C   0  0  0  0  0  0  0  0  0  0  0  0
   -8.7984    4.3145  -15.7509 C   0  0  0  0  0  0  0  0  0  0  0  0
   -7.6448    4.7784  -15.0824 C   0  0  0  0  0  0  0  0  0  0  0  0
   -7.7894    4.8525  -13.5687 C   0  0  0  0  0  0  0  0  0  0  0  0
   -6.9003    5.7062  -12.6190 C   0  0  1  0  0  0  0  0  0  0  0  0
   -5.6188    5.1268  -12.1924 N   0  0  0  0  0  0  0  0  0  0  0  0
   -5.2536    4.0343  -12.5239 C   0  0  0  0  0  0  0  0  0  0  0  0
   -4.0423    3.1775  -12.0338 N   0  0  0  0  0  0  0  0  0  0  0  0
   -3.0910    3.4194  -10.9889 C   0  0  0  0  0  0  0  0  0  0  0  0
   -3.5832    2.9250   -9.6264 C   0  0  0  0  0  0  0  0  0  0  0  0
   -4.8735    3.2643   -9.3864 F   0  0  0  0  0  0  0  0  0  0  0  0
   -3.5056    1.5681   -9.5693 F   0  0  0  0  0  0  0  0  0  0  0  0
   -6.8412    7.1342  -12.9816 N   0  0  0  0  0  0  0  0  0  0  0  0
   -8.0014    7.8905  -12.4962 C   0  0  0  0  0  0  0  0  0  0  0  0
   -7.5422    9.3517  -12.4918 C   0  0  0  0  0  0  0  0  0  0  0  0
   -6.0168    9.2866  -12.7402 C   0  0  2  0  0  0  0  0  0  0  0  0
   -5.2395   10.3028  -11.9140 C   0  0  0  0  0  0  0  0  0  0  0  0
   -5.3249   11.5757  -12.7434 C   0  0  0  0  0  0  0  0  0  0  0  0
   -5.6345   11.1778  -14.1199 N   0  0  0  0  0  0  0  0  0  0  0  0
   -5.6906    9.7258  -14.1774 C   0  0  1  0  0  0  0  0  0  0  0  0
   -4.3891    9.3797  -14.7066 N   0  0  0  0  0  0  0  0  0  0  0  0
   -5.6940    7.8346  -12.4087 C   0  0  0  0  0  0  0  0  0  0  0  0
   -6.4909    5.0718  -15.8232 C   0  0  0  0  0  0  0  0  0  0  0  0
   -5.3403    5.3838  -15.2026 N   0  0  0  0  0  0  0  0  0  0  0  0
  1  2  1  0
  2  3  2  0
  3  4  1  0
  4  5  1  0
  5  6  1  0
  4  7  2  0
  7  8  1  0
  8  9  2  0
  9 10  1  0
 10 11  2  0
 11 12  1  0
 13 12  1  6
 13 14  1  0
 14 15  2  3
 15 16  1  0
 16 17  1  0
 17 18  1  0
 18 19  1  0
 18 20  1  0
 13 21  1  0
 21 22  1  0
 22 23  1  0
 24 23  1  1
 24 25  1  0
 25 26  1  0
 26 27  1  0
 27 28  1  0
 28 29  1  1
 24 30  1  0
 11 31  1  0
 31 32  2  0
 32  2  1  0
 31  7  1  0
 30 21  1  0
 28 24  1  0
M  END
>  <smiles>  (433) 
C93749-P215

>  <fragmenstein_outcome>  (433) 
acceptable

>  <inchikey>  (433) 
JDXDKCRLESQNAP-UHFFFAOYSA-N

>  <fragmenstein_mode>  (433) 
expansion

>  <HIPPO Pose ID>  (433) 
13621

>  <Energy>  (433) 
36.144141

>  <fragmenstein_error>  (433) 


>  <tags>  (433) 
{'openbind_xx01zvns2b_c1_fragmenstein', 'fragmenstein_placed'}

>  <ref_pdb>  (433) 
1

>  <scratch_subdir>  (433) 
/opt/xchem-fragalysis-2/maxwin/BulkDock/SCRATCH/511027/C93749-P215

>  <alias>  (433) 
Cc1cc(CO)c2cccc(C[C@@H](N=CNCC(F)F)N3CC[C@@]4(CCN[C@H]4N)C3)c2n1

>  <HIPPO Compound ID>  (433) 
93749

>  <fragmenstein_runtime>  (433) 
3.997541

$$$$
Cc1cc(CO)c2cc(Cl)cc([C@H]3N[C@H]4[C@@H]5CN[C@@H](C)[C@H]5CN4[C@@]3(O)NCC(F)F)c2n1
     RDKit          3D

 32 36  0  0  0  0  0  0  0  0999 V2000
   -2.7735    5.8464  -15.3806 C   0  0  0  0  0  0  0  0  0  0  0  0
   -4.0739    5.5463  -16.0581 C   0  0  0  0  0  0  0  0  0  0  0  0
   -4.1826    5.6151  -17.4316 C   0  0  0  0  0  0  0  0  0  0  0  0
   -5.4130    5.3330  -18.0218 C   0  0  0  0  0  0  0  0  0  0  0  0
   -5.5875    5.4461  -19.5155 C   0  0  0  0  0  0  0  0  0  0  0  0
   -4.3539    5.6291  -20.2076 O   0  0  0  0  0  0  0  0  0  0  0  0
   -6.5045    4.9822  -17.1873 C   0  0  0  0  0  0  0  0  0  0  0  0
   -7.7723    4.6990  -17.7087 C   0  0  0  0  0  0  0  0  0  0  0  0
   -8.8226    4.3781  -16.8682 C   0  0  0  0  0  0  0  0  0  0  0  0
  -10.3424    4.0752  -17.5917 Cl  0  0  0  0  0  0  0  0  0  0  0  0
   -8.6415    4.3423  -15.4896 C   0  0  0  0  0  0  0  0  0  0  0  0
   -7.3786    4.6017  -14.9251 C   0  0  0  0  0  0  0  0  0  0  0  0
   -7.1818    4.6809  -13.4026 C   0  0  1  0  0  0  0  0  0  0  0  0
   -8.3698    4.2688  -12.5674 N   0  0  0  0  0  0  0  0  0  0  0  0
   -7.7951    4.3580  -11.2287 C   0  0  1  0  0  0  0  0  0  0  0  0
   -8.2534    3.4978  -10.0763 C   0  0  2  0  0  0  0  0  0  0  0  0
   -9.2288    3.9552   -9.0447 C   0  0  0  0  0  0  0  0  0  0  0  0
   -8.6651    3.6772   -7.7020 N   0  0  0  0  0  0  0  0  0  0  0  0
   -7.4178    2.9150   -7.9375 C   0  0  1  0  0  0  0  0  0  0  0  0
   -7.7517    1.4498   -7.9001 C   0  0  0  0  0  0  0  0  0  0  0  0
   -6.9813    3.4833   -9.2549 C   0  0  1  0  0  0  0  0  0  0  0  0
   -6.0335    2.9613  -10.2939 C   0  0  0  0  0  0  0  0  0  0  0  0
   -6.4057    3.9211  -11.3383 N   0  0  0  0  0  0  0  0  0  0  0  0
   -5.9818    3.8900  -12.6980 C   0  0  2  0  0  0  0  0  0  0  0  0
   -4.7959    4.6233  -12.6923 O   0  0  0  0  0  0  0  0  0  0  0  0
   -5.8191    2.5137  -13.1255 N   0  0  0  0  0  0  0  0  0  0  0  0
   -4.4223    2.1566  -13.4449 C   0  0  0  0  0  0  0  0  0  0  0  0
   -3.4624    1.8743  -12.2798 C   0  0  0  0  0  0  0  0  0  0  0  0
   -2.2824    1.4115  -12.7921 F   0  0  0  0  0  0  0  0  0  0  0  0
   -3.1468    3.0098  -11.6037 F   0  0  0  0  0  0  0  0  0  0  0  0
   -6.3112    4.9310  -15.7844 C   0  0  0  0  0  0  0  0  0  0  0  0
   -5.1173    5.2258  -15.2663 N   0  0  0  0  0  0  0  0  0  0  0  0
  1  2  1  0
  2  3  2  0
  3  4  1  0
  4  5  1  0
  5  6  1  0
  4  7  2  0
  7  8  1  0
  8  9  2  0
  9 10  1  0
  9 11  1  0
 11 12  2  0
 13 12  1  6
 13 14  1  0
 15 14  1  6
 15 16  1  0
 16 17  1  1
 17 18  1  0
 18 19  1  0
 19 20  1  6
 19 21  1  0
 21 22  1  6
 22 23  1  0
 23 24  1  0
 24 25  1  1
 24 26  1  0
 26 27  1  0
 27 28  1  0
 28 29  1  0
 28 30  1  0
 12 31  1  0
 31 32  2  0
 32  2  1  0
 31  7  1  0
 24 13  1  0
 23 15  1  0
 21 16  1  0
M  END
>  <smiles>  (434) 
C93837-P103

>  <fragmenstein_outcome>  (434) 
acceptable

>  <inchikey>  (434) 
KCEBTEWYCJCHCN-UHFFFAOYSA-N

>  <fragmenstein_mode>  (434) 
expansion

>  <HIPPO Pose ID>  (434) 
13650

>  <Energy>  (434) 
40.804775

>  <fragmenstein_error>  (434) 


>  <tags>  (434) 
{'openbind_xx01zvns2b_c1_fragmenstein', 'fragmenstein_placed'}

>  <ref_pdb>  (434) 
1

>  <scratch_subdir>  (434) 
/opt/xchem-fragalysis-2/maxwin/BulkDock/SCRATCH/511027/C93837-P103

>  <alias>  (434) 
Cc1cc(CO)c2cc(Cl)cc([C@H]3N[C@H]4[C@@H]5CN[C@@H](C)[C@H]5CN4[C@@]3(O)NCC(F)F)c2n1

>  <HIPPO Compound ID>  (434) 
79800

>  <fragmenstein_runtime>  (434) 
5.566814

$$$$
Cc1nc2c(C(=O)C(=O)N3CC[C@@]4(CCNC4)C3)cccc2c(CO)c1C1CCNCC1
     RDKit          3D

 32 36  0  0  0  0  0  0  0  0999 V2000
   -2.9246    5.5278  -15.1011 C   0  0  0  0  0  0  0  0  0  0  0  0
   -4.1644    5.3358  -15.9273 C   0  0  0  0  0  0  0  0  0  0  0  0
   -5.2221    4.9098  -15.2004 N   0  0  0  0  0  0  0  0  0  0  0  0
   -6.4200    4.7553  -15.7739 C   0  0  0  0  0  0  0  0  0  0  0  0
   -7.5195    4.4038  -14.9930 C   0  0  0  0  0  0  0  0  0  0  0  0
   -7.3610    4.1654  -13.5502 C   0  0  0  0  0  0  0  0  0  0  0  0
   -7.8201    4.9504  -12.7299 O   0  0  0  0  0  0  0  0  0  0  0  0
   -6.6975    2.8455  -13.1283 C   0  0  0  0  0  0  0  0  0  0  0  0
   -7.2005    1.8291  -13.4327 O   0  0  0  0  0  0  0  0  0  0  0  0
   -5.4162    3.1139  -12.3914 N   0  0  0  0  0  0  0  0  0  0  0  0
   -5.6483    3.1957  -10.9002 C   0  0  0  0  0  0  0  0  0  0  0  0
   -4.3923    3.6132  -10.1559 C   0  0  0  0  0  0  0  0  0  0  0  0
   -3.3908    2.8219  -10.9466 C   0  0  2  0  0  0  0  0  0  0  0  0
   -2.5884    1.8258  -10.1196 C   0  0  0  0  0  0  0  0  0  0  0  0
   -1.3019    2.5638   -9.7660 C   0  0  0  0  0  0  0  0  0  0  0  0
   -1.3231    3.8449  -10.4892 N   0  0  0  0  0  0  0  0  0  0  0  0
   -2.2985    3.6685  -11.5761 C   0  0  0  0  0  0  0  0  0  0  0  0
   -4.3518    2.1781  -11.9155 C   0  0  0  0  0  0  0  0  0  0  0  0
   -8.8080    4.2961  -15.5159 C   0  0  0  0  0  0  0  0  0  0  0  0
   -9.0109    4.4677  -16.8695 C   0  0  0  0  0  0  0  0  0  0  0  0
   -7.9253    4.8010  -17.6748 C   0  0  0  0  0  0  0  0  0  0  0  0
   -6.6103    4.9778  -17.1526 C   0  0  0  0  0  0  0  0  0  0  0  0
   -5.4750    5.3883  -17.9438 C   0  0  0  0  0  0  0  0  0  0  0  0
   -5.7739    5.6042  -19.4246 C   0  0  0  0  0  0  0  0  0  0  0  0
   -4.6887    5.8469  -20.2989 O   0  0  0  0  0  0  0  0  0  0  0  0
   -4.2205    5.6041  -17.3069 C   0  0  0  0  0  0  0  0  0  0  0  0
   -2.9558    6.1173  -18.0003 C   0  0  0  0  0  0  0  0  0  0  0  0
   -3.1159    7.5446  -18.5660 C   0  0  0  0  0  0  0  0  0  0  0  0
   -2.0037    7.9125  -19.5440 C   0  0  0  0  0  0  0  0  0  0  0  0
   -1.8082    6.8573  -20.5427 N   0  0  0  0  0  0  0  0  0  0  0  0
   -1.2870    5.6620  -19.8766 C   0  0  0  0  0  0  0  0  0  0  0  0
   -2.3267    5.0661  -18.9356 C   0  0  0  0  0  0  0  0  0  0  0  0
  1  2  1  0
  2  3  2  0
  3  4  1  0
  4  5  2  0
  5  6  1  0
  6  7  2  0
  6  8  1  0
  8  9  2  0
  8 10  1  0
 10 11  1  0
 11 12  1  0
 13 12  1  1
 13 14  1  0
 14 15  1  0
 15 16  1  0
 16 17  1  0
 13 18  1  0
  5 19  1  0
 19 20  2  0
 20 21  1  0
 21 22  2  0
 22 23  1  0
 23 24  1  0
 24 25  1  0
 23 26  2  0
 26 27  1  0
 27 28  1  0
 28 29  1  0
 29 30  1  0
 30 31  1  0
 31 32  1  0
 26  2  1  0
 32 27  1  0
 22  4  1  0
 18 10  1  0
 17 13  1  0
M  END
>  <smiles>  (435) 
C93858-P103

>  <fragmenstein_outcome>  (435) 
acceptable

>  <inchikey>  (435) 
WSJRJPSGXALQSX-UHFFFAOYSA-N

>  <fragmenstein_mode>  (435) 
expansion

>  <HIPPO Pose ID>  (435) 
13668

>  <Energy>  (435) 
188.617644

>  <fragmenstein_error>  (435) 


>  <tags>  (435) 
{'openbind_xx01zvns2b_c1_fragmenstein', 'fragmenstein_placed'}

>  <ref_pdb>  (435) 
1

>  <scratch_subdir>  (435) 
/opt/xchem-fragalysis-2/maxwin/BulkDock/SCRATCH/511027/C93858-P103

>  <alias>  (435) 
Cc1nc2c(C(=O)C(=O)N3CC[C@@]4(CCNC4)C3)cccc2c(CO)c1C1CCNCC1

>  <HIPPO Compound ID>  (435) 
97653

>  <fragmenstein_runtime>  (435) 
3.157529

$$$$
CNCc1cc(C)nc2c(C(=O)C(=O)N3CC[C@H]([C@H](C)N)C3)cc(Cl)cc12
     RDKit          3D

 27 29  0  0  0  0  0  0  0  0999 V2000
   -2.7466    5.3266  -19.8820 C   0  0  0  0  0  0  0  0  0  0  0  0
   -3.9476    6.1457  -19.9192 N   0  0  0  0  0  0  0  0  0  0  0  0
   -5.1151    5.5543  -19.2435 C   0  0  0  0  0  0  0  0  0  0  0  0
   -5.1031    5.4939  -17.7283 C   0  0  0  0  0  0  0  0  0  0  0  0
   -3.9928    5.8865  -16.9799 C   0  0  0  0  0  0  0  0  0  0  0  0
   -3.9719    5.6646  -15.6156 C   0  0  0  0  0  0  0  0  0  0  0  0
   -2.7443    5.9841  -14.8235 C   0  0  0  0  0  0  0  0  0  0  0  0
   -5.0245    5.1626  -14.9483 N   0  0  0  0  0  0  0  0  0  0  0  0
   -6.1603    4.9025  -15.6183 C   0  0  0  0  0  0  0  0  0  0  0  0
   -7.3005    4.5055  -14.9264 C   0  0  0  0  0  0  0  0  0  0  0  0
   -7.2411    4.4262  -13.4646 C   0  0  0  0  0  0  0  0  0  0  0  0
   -7.2790    5.4504  -12.7929 O   0  0  0  0  0  0  0  0  0  0  0  0
   -7.1770    3.0304  -12.8236 C   0  0  0  0  0  0  0  0  0  0  0  0
   -7.1836    2.0078  -13.4936 O   0  0  0  0  0  0  0  0  0  0  0  0
   -7.2121    3.0476  -11.4586 N   0  0  0  0  0  0  0  0  0  0  0  0
   -6.0288    3.0292  -10.6372 C   0  0  0  0  0  0  0  0  0  0  0  0
   -6.5493    2.6358   -9.2654 C   0  0  0  0  0  0  0  0  0  0  0  0
   -7.9489    3.2654   -9.2448 C   0  0  2  0  0  0  0  0  0  0  0  0
   -8.9020    2.7494   -8.1655 C   0  0  2  0  0  0  0  0  0  0  0  0
   -8.4268    3.1363   -6.7709 C   0  0  0  0  0  0  0  0  0  0  0  0
   -9.1650    1.3230   -8.1460 N   0  0  0  0  0  0  0  0  0  0  0  0
   -8.4355    3.0861  -10.6832 C   0  0  0  0  0  0  0  0  0  0  0  0
   -8.5164    4.2485  -15.5571 C   0  0  0  0  0  0  0  0  0  0  0  0
   -8.5819    4.3442  -16.9328 C   0  0  0  0  0  0  0  0  0  0  0  0
  -10.0510    4.0355  -17.7479 Cl  0  0  0  0  0  0  0  0  0  0  0  0
   -7.4639    4.7209  -17.6665 C   0  0  0  0  0  0  0  0  0  0  0  0
   -6.2445    5.0305  -17.0253 C   0  0  0  0  0  0  0  0  0  0  0  0
  1  2  1  0
  2  3  1  0
  3  4  1  0
  4  5  2  0
  5  6  1  0
  6  7  1  0
  6  8  2  0
  8  9  1  0
  9 10  2  0
 10 11  1  0
 11 12  2  0
 11 13  1  0
 13 14  2  0
 13 15  1  0
 15 16  1  0
 16 17  1  0
 18 17  1  6
 18 19  1  0
 19 20  1  1
 19 21  1  0
 18 22  1  0
 10 23  1  0
 23 24  2  0
 24 25  1  0
 24 26  1  0
 26 27  2  0
 27  4  1  0
 27  9  1  0
 22 15  1  0
M  END
>  <smiles>  (436) 
C93888-P103

>  <fragmenstein_outcome>  (436) 
acceptable

>  <inchikey>  (436) 
OSRXKFCVLNNXBP-UHFFFAOYSA-N

>  <fragmenstein_mode>  (436) 
expansion

>  <HIPPO Pose ID>  (436) 
13695

>  <Energy>  (436) 
102.025289

>  <fragmenstein_error>  (436) 


>  <tags>  (436) 
{'openbind_xx01zvns2b_c1_fragmenstein', 'fragmenstein_placed'}

>  <ref_pdb>  (436) 
1

>  <scratch_subdir>  (436) 
/opt/xchem-fragalysis-2/maxwin/BulkDock/SCRATCH/511027/C93888-P103

>  <alias>  (436) 
CNCc1cc(C)nc2c(C(=O)C(=O)N3CC[C@H]([C@H](C)N)C3)cc(Cl)cc12

>  <HIPPO Compound ID>  (436) 
93888

>  <fragmenstein_runtime>  (436) 
4.496035

$$$$
Cc1cc(CO)c2cccc(N(N)[C@](C)(O)CCC3CCNCC3)c2n1
     RDKit          3D

 26 28  0  0  0  0  0  0  0  0999 V2000
   -2.8154    5.8972  -15.5738 C   0  0  0  0  0  0  0  0  0  0  0  0
   -4.0672    5.5594  -16.3232 C   0  0  0  0  0  0  0  0  0  0  0  0
   -4.0861    5.5744  -17.6998 C   0  0  0  0  0  0  0  0  0  0  0  0
   -5.2741    5.2560  -18.3602 C   0  0  0  0  0  0  0  0  0  0  0  0
   -5.3533    5.3499  -19.8538 C   0  0  0  0  0  0  0  0  0  0  0  0
   -4.0882    5.6050  -20.4686 O   0  0  0  0  0  0  0  0  0  0  0  0
   -6.4252    4.8920  -17.6142 C   0  0  0  0  0  0  0  0  0  0  0  0
   -7.6593    4.5382  -18.2153 C   0  0  0  0  0  0  0  0  0  0  0  0
   -8.7803    4.2299  -17.4579 C   0  0  0  0  0  0  0  0  0  0  0  0
   -8.6930    4.2937  -16.0797 C   0  0  0  0  0  0  0  0  0  0  0  0
   -7.4855    4.6329  -15.4476 C   0  0  0  0  0  0  0  0  0  0  0  0
   -7.5547    4.9145  -14.0463 N   0  0  0  0  0  0  0  0  0  0  0  0
   -7.1144    6.2485  -13.7756 N   0  0  0  0  0  0  0  0  0  0  0  0
   -7.1510    3.8252  -13.0985 C   0  0  2  0  0  0  0  0  0  0  0  0
   -5.6628    3.4829  -13.1189 C   0  0  0  0  0  0  0  0  0  0  0  0
   -7.7995    2.6021  -13.4344 O   0  0  0  0  0  0  0  0  0  0  0  0
   -7.6196    4.1851  -11.6574 C   0  0  0  0  0  0  0  0  0  0  0  0
   -6.8658    5.3448  -10.9675 C   0  0  0  0  0  0  0  0  0  0  0  0
   -7.7106    6.6314  -10.7954 C   0  0  0  0  0  0  0  0  0  0  0  0
   -6.9360    7.9164  -11.1709 C   0  0  0  0  0  0  0  0  0  0  0  0
   -6.4032    8.6506   -9.9500 C   0  0  0  0  0  0  0  0  0  0  0  0
   -7.4508    9.0573   -9.0149 N   0  0  0  0  0  0  0  0  0  0  0  0
   -8.6072    8.1550   -8.9874 C   0  0  0  0  0  0  0  0  0  0  0  0
   -8.2410    6.7216   -9.3531 C   0  0  0  0  0  0  0  0  0  0  0  0
   -6.3250    4.9156  -16.2106 C   0  0  0  0  0  0  0  0  0  0  0  0
   -5.1634    5.2712  -15.5970 N   0  0  0  0  0  0  0  0  0  0  0  0
  1  2  1  0
  2  3  2  0
  3  4  1  0
  4  5  1  0
  5  6  1  0
  4  7  2  0
  7  8  1  0
  8  9  2  0
  9 10  1  0
 10 11  2  0
 11 12  1  0
 12 13  1  0
 12 14  1  0
 14 15  1  1
 14 16  1  0
 14 17  1  0
 17 18  1  0
 18 19  1  0
 19 20  1  0
 20 21  1  0
 21 22  1  0
 22 23  1  0
 23 24  1  0
 11 25  1  0
 25 26  2  0
 26  2  1  0
 25  7  1  0
 24 19  1  0
M  END
>  <smiles>  (437) 
C93914-P104

>  <fragmenstein_outcome>  (437) 
acceptable

>  <inchikey>  (437) 
GVRDISSGSFVHFP-UHFFFAOYSA-N

>  <fragmenstein_mode>  (437) 
expansion

>  <HIPPO Pose ID>  (437) 
13710

>  <Energy>  (437) 
126.077996

>  <fragmenstein_error>  (437) 


>  <tags>  (437) 
{'openbind_xx01zvns2b_c1_fragmenstein', 'fragmenstein_placed'}

>  <ref_pdb>  (437) 
1

>  <scratch_subdir>  (437) 
/opt/xchem-fragalysis-2/maxwin/BulkDock/SCRATCH/511027/C93914-P104

>  <alias>  (437) 
Cc1cc(CO)c2cccc(N(N)[C@](C)(O)CCC3CCNCC3)c2n1

>  <HIPPO Compound ID>  (437) 
79181

>  <fragmenstein_runtime>  (437) 
2.805145

$$$$
Cc1cc(CO)c2cccc(N3C(=O)CCCN[C@H]3[C@@H](C)N)c2n1
     RDKit          3D

 24 26  0  0  0  0  0  0  0  0999 V2000
   -2.3425    5.6399  -16.1135 C   0  0  0  0  0  0  0  0  0  0  0  0
   -3.7539    5.4167  -16.5579 C   0  0  0  0  0  0  0  0  0  0  0  0
   -4.0828    5.4480  -17.8964 C   0  0  0  0  0  0  0  0  0  0  0  0
   -5.4089    5.2274  -18.2752 C   0  0  0  0  0  0  0  0  0  0  0  0
   -5.7325    5.3430  -19.7391 C   0  0  0  0  0  0  0  0  0  0  0  0
   -6.5769    4.2981  -20.1759 O   0  0  0  0  0  0  0  0  0  0  0  0
   -6.3844    4.9821  -17.2753 C   0  0  0  0  0  0  0  0  0  0  0  0
   -7.7367    4.6995  -17.5729 C   0  0  0  0  0  0  0  0  0  0  0  0
   -8.6535    4.4018  -16.5814 C   0  0  0  0  0  0  0  0  0  0  0  0
   -8.2487    4.4442  -15.2616 C   0  0  0  0  0  0  0  0  0  0  0  0
   -6.9273    4.7787  -14.9142 C   0  0  0  0  0  0  0  0  0  0  0  0
   -6.6226    4.8864  -13.4973 N   0  0  0  0  0  0  0  0  0  0  0  0
   -7.0958    3.8734  -12.6707 C   0  0  0  0  0  0  0  0  0  0  0  0
   -7.3205    2.7302  -13.0864 O   0  0  0  0  0  0  0  0  0  0  0  0
   -7.3174    4.1412  -11.1935 C   0  0  0  0  0  0  0  0  0  0  0  0
   -7.7720    5.5236  -10.7346 C   0  0  0  0  0  0  0  0  0  0  0  0
   -8.1503    6.5064  -11.8287 C   0  0  0  0  0  0  0  0  0  0  0  0
   -7.0263    7.0841  -12.5504 N   0  0  0  0  0  0  0  0  0  0  0  0
   -5.9934    6.1327  -13.0199 C   0  0  1  0  0  0  0  0  0  0  0  0
   -4.8031    5.9855  -11.9919 C   0  0  1  0  0  0  0  0  0  0  0  0
   -3.5837    5.2882  -12.5796 C   0  0  0  0  0  0  0  0  0  0  0  0
   -4.3791    7.3057  -11.4613 N   0  0  0  0  0  0  0  0  0  0  0  0
   -5.9695    5.0129  -15.9198 C   0  0  0  0  0  0  0  0  0  0  0  0
   -4.6762    5.2344  -15.5923 N   0  0  0  0  0  0  0  0  0  0  0  0
  1  2  1  0
  2  3  2  0
  3  4  1  0
  4  5  1  0
  5  6  1  0
  4  7  2  0
  7  8  1  0
  8  9  2  0
  9 10  1  0
 10 11  2  0
 11 12  1  0
 12 13  1  0
 13 14  2  0
 13 15  1  0
 15 16  1  0
 16 17  1  0
 17 18  1  0
 19 18  1  1
 19 20  1  0
 20 21  1  6
 20 22  1  0
 11 23  1  0
 23 24  2  0
 24  2  1  0
 23  7  1  0
 19 12  1  0
M  END
>  <smiles>  (438) 
C93974-P92

>  <fragmenstein_outcome>  (438) 
acceptable

>  <inchikey>  (438) 
DOGIPEMVGAONLV-UHFFFAOYSA-N

>  <fragmenstein_mode>  (438) 
expansion

>  <HIPPO Pose ID>  (438) 
13745

>  <Energy>  (438) 
90.432375

>  <fragmenstein_error>  (438) 


>  <tags>  (438) 
{'openbind_xx01zvns2b_c1_fragmenstein', 'fragmenstein_placed'}

>  <ref_pdb>  (438) 
1

>  <scratch_subdir>  (438) 
/opt/xchem-fragalysis-2/maxwin/BulkDock/SCRATCH/511027/C93974-P92

>  <alias>  (438) 
Cc1cc(CO)c2cccc(N3C(=O)CCCN[C@H]3[C@@H](C)N)c2n1

>  <HIPPO Compound ID>  (438) 
89136

>  <fragmenstein_runtime>  (438) 
2.356076

$$$$
Cc1nc2c(C(=O)C(=O)Cc3cccc4c3CCNC4)cccc2c2c1[C@@H](C)OC2
     RDKit          3D

 30 34  0  0  0  0  0  0  0  0999 V2000
   -2.3828    5.7701  -15.9832 C   0  0  0  0  0  0  0  0  0  0  0  0
   -3.7087    5.4792  -16.5990 C   0  0  0  0  0  0  0  0  0  0  0  0
   -4.6874    5.1534  -15.7363 N   0  0  0  0  0  0  0  0  0  0  0  0
   -5.9533    4.9099  -16.1432 C   0  0  0  0  0  0  0  0  0  0  0  0
   -6.9457    4.5422  -15.2307 C   0  0  0  0  0  0  0  0  0  0  0  0
   -6.5491    4.3325  -13.8097 C   0  0  0  0  0  0  0  0  0  0  0  0
   -5.5558    4.8195  -13.2821 O   0  0  0  0  0  0  0  0  0  0  0  0
   -7.3839    3.4417  -12.9319 C   0  0  0  0  0  0  0  0  0  0  0  0
   -7.3467    2.2314  -13.1296 O   0  0  0  0  0  0  0  0  0  0  0  0
   -8.2691    4.1184  -11.9136 C   0  0  0  0  0  0  0  0  0  0  0  0
   -7.7720    5.4622  -11.4137 C   0  0  0  0  0  0  0  0  0  0  0  0
   -8.2112    6.6297  -12.0667 C   0  0  0  0  0  0  0  0  0  0  0  0
   -7.7005    7.8794  -11.7235 C   0  0  0  0  0  0  0  0  0  0  0  0
   -6.7442    7.9843  -10.7189 C   0  0  0  0  0  0  0  0  0  0  0  0
   -6.2863    6.8390  -10.0494 C   0  0  0  0  0  0  0  0  0  0  0  0
   -6.8139    5.5704  -10.3806 C   0  0  0  0  0  0  0  0  0  0  0  0
   -6.2607    4.3402   -9.6865 C   0  0  0  0  0  0  0  0  0  0  0  0
   -5.4061    4.6634   -8.4549 C   0  0  0  0  0  0  0  0  0  0  0  0
   -4.4780    5.7734   -8.7038 N   0  0  0  0  0  0  0  0  0  0  0  0
   -5.2538    6.9927   -8.9553 C   0  0  0  0  0  0  0  0  0  0  0  0
   -8.2703    4.3336  -15.6474 C   0  0  0  0  0  0  0  0  0  0  0  0
   -8.6109    4.4448  -16.9919 C   0  0  0  0  0  0  0  0  0  0  0  0
   -7.6295    4.7701  -17.9212 C   0  0  0  0  0  0  0  0  0  0  0  0
   -6.3031    5.0025  -17.5030 C   0  0  0  0  0  0  0  0  0  0  0  0
   -5.2606    5.2987  -18.3827 C   0  0  0  0  0  0  0  0  0  0  0  0
   -3.9615    5.5179  -17.9430 C   0  0  0  0  0  0  0  0  0  0  0  0
   -3.0845    5.8107  -19.1035 C   0  0  1  0  0  0  0  0  0  0  0  0
   -1.7847    5.0274  -19.1806 C   0  0  0  0  0  0  0  0  0  0  0  0
   -3.8907    5.4192  -20.2396 O   0  0  0  0  0  0  0  0  0  0  0  0
   -5.2923    5.4258  -19.8576 C   0  0  0  0  0  0  0  0  0  0  0  0
  1  2  1  0
  2  3  2  0
  3  4  1  0
  4  5  2  0
  5  6  1  0
  6  7  2  0
  6  8  1  0
  8  9  2  0
  8 10  1  0
 10 11  1  0
 11 12  2  0
 12 13  1  0
 13 14  2  0
 14 15  1  0
 15 16  2  0
 16 17  1  0
 17 18  1  0
 18 19  1  0
 19 20  1  0
  5 21  1  0
 21 22  2  0
 22 23  1  0
 23 24  2  0
 24 25  1  0
 25 26  2  0
 26 27  1  0
 27 28  1  1
 27 29  1  0
 29 30  1  0
 26  2  1  0
 24  4  1  0
 30 25  1  0
 16 11  1  0
 20 15  1  0
M  END
>  <smiles>  (439) 
C93982-P104

>  <fragmenstein_outcome>  (439) 
acceptable

>  <inchikey>  (439) 
GIQSYKPJUVBXIX-UHFFFAOYSA-N

>  <fragmenstein_mode>  (439) 
expansion

>  <HIPPO Pose ID>  (439) 
13750

>  <Energy>  (439) 
144.110178

>  <fragmenstein_error>  (439) 


>  <tags>  (439) 
{'openbind_xx01zvns2b_c1_fragmenstein', 'fragmenstein_placed'}

>  <ref_pdb>  (439) 
1

>  <scratch_subdir>  (439) 
/opt/xchem-fragalysis-2/maxwin/BulkDock/SCRATCH/511027/C93982-P104

>  <alias>  (439) 
Cc1nc2c(C(=O)C(=O)Cc3cccc4c3CCNC4)cccc2c2c1[C@@H](C)OC2

>  <HIPPO Compound ID>  (439) 
89442

>  <fragmenstein_runtime>  (439) 
4.613467

$$$$
Cc1cc(CO)c2cc(Cl)cc(N[C@@](O)(Cc3cccc4c3CCNC4)NCC3CCOCC3)c2n1
     RDKit          3D

 36 40  0  0  0  0  0  0  0  0999 V2000
   -2.6918    6.0561  -15.5800 C   0  0  0  0  0  0  0  0  0  0  0  0
   -3.9667    5.7160  -16.2902 C   0  0  0  0  0  0  0  0  0  0  0  0
   -4.0006    5.6696  -17.6717 C   0  0  0  0  0  0  0  0  0  0  0  0
   -5.2003    5.3546  -18.3113 C   0  0  0  0  0  0  0  0  0  0  0  0
   -5.3039    5.3977  -19.8077 C   0  0  0  0  0  0  0  0  0  0  0  0
   -4.0522    5.6377  -20.4545 O   0  0  0  0  0  0  0  0  0  0  0  0
   -6.3400    5.0444  -17.5306 C   0  0  0  0  0  0  0  0  0  0  0  0
   -7.5907    4.7002  -18.0886 C   0  0  0  0  0  0  0  0  0  0  0  0
   -8.6841    4.4383  -17.2768 C   0  0  0  0  0  0  0  0  0  0  0  0
  -10.2134    4.1498  -17.9780 Cl  0  0  0  0  0  0  0  0  0  0  0  0
   -8.5642    4.5074  -15.9043 C   0  0  0  0  0  0  0  0  0  0  0  0
   -7.3443    4.8654  -15.3310 C   0  0  0  0  0  0  0  0  0  0  0  0
   -7.2894    5.0451  -13.9323 N   0  0  0  0  0  0  0  0  0  0  0  0
   -7.0556    3.9050  -13.0401 C   0  0  1  0  0  0  0  0  0  0  0  0
   -7.6854    2.7553  -13.5477 O   0  0  0  0  0  0  0  0  0  0  0  0
   -5.5083    3.5848  -13.0320 C   0  0  0  0  0  0  0  0  0  0  0  0
   -4.8679    2.5818  -12.0856 C   0  0  0  0  0  0  0  0  0  0  0  0
   -5.6300    1.6761  -11.3428 C   0  0  0  0  0  0  0  0  0  0  0  0
   -5.0342    0.8024  -10.4425 C   0  0  0  0  0  0  0  0  0  0  0  0
   -3.6531    0.7555  -10.3257 C   0  0  0  0  0  0  0  0  0  0  0  0
   -2.8464    1.5669  -11.1282 C   0  0  0  0  0  0  0  0  0  0  0  0
   -3.4504    2.5142  -11.9809 C   0  0  0  0  0  0  0  0  0  0  0  0
   -2.5493    3.3716  -12.8458 C   0  0  0  0  0  0  0  0  0  0  0  0
   -1.0796    3.3504  -12.4095 C   0  0  0  0  0  0  0  0  0  0  0  0
   -0.6115    1.9856  -12.1750 N   0  0  0  0  0  0  0  0  0  0  0  0
   -1.3466    1.4134  -11.0356 C   0  0  0  0  0  0  0  0  0  0  0  0
   -7.6709    4.1264  -11.7467 N   0  0  0  0  0  0  0  0  0  0  0  0
   -7.0749    5.1873  -10.9508 C   0  0  0  0  0  0  0  0  0  0  0  0
   -7.7746    5.3107   -9.5823 C   0  0  0  0  0  0  0  0  0  0  0  0
   -7.2492    6.5464   -8.8277 C   0  0  0  0  0  0  0  0  0  0  0  0
   -7.3237    6.3857   -7.3125 C   0  0  0  0  0  0  0  0  0  0  0  0
   -8.4597    5.6121   -6.9519 O   0  0  0  0  0  0  0  0  0  0  0  0
   -8.3357    4.2452   -7.3613 C   0  0  0  0  0  0  0  0  0  0  0  0
   -7.6161    4.0671   -8.6991 C   0  0  0  0  0  0  0  0  0  0  0  0
   -6.2129    5.1165  -16.1285 C   0  0  0  0  0  0  0  0  0  0  0  0
   -5.0526    5.4681  -15.5282 N   0  0  0  0  0  0  0  0  0  0  0  0
  1  2  1  0
  2  3  2  0
  3  4  1  0
  4  5  1  0
  5  6  1  0
  4  7  2  0
  7  8  1  0
  8  9  2  0
  9 10  1  0
  9 11  1  0
 11 12  2  0
 12 13  1  0
 13 14  1  0
 14 15  1  6
 14 16  1  0
 16 17  1  0
 17 18  2  0
 18 19  1  0
 19 20  2  0
 20 21  1  0
 21 22  2  0
 22 23  1  0
 23 24  1  0
 24 25  1  0
 25 26  1  0
 14 27  1  0
 27 28  1  0
 28 29  1  0
 29 30  1  0
 30 31  1  0
 31 32  1  0
 32 33  1  0
 33 34  1  0
 12 35  1  0
 35 36  2  0
 36  2  1  0
 35  7  1  0
 22 17  1  0
 34 29  1  0
 26 21  1  0
M  END
>  <smiles>  (440) 
C94011-P104

>  <fragmenstein_outcome>  (440) 
acceptable

>  <inchikey>  (440) 
MQFLVKOVNGLFRO-UHFFFAOYSA-N

>  <fragmenstein_mode>  (440) 
expansion

>  <HIPPO Pose ID>  (440) 
13766

>  <Energy>  (440) 
19.566778

>  <fragmenstein_error>  (440) 


>  <tags>  (440) 
{'openbind_xx01zvns2b_c1_fragmenstein', 'fragmenstein_placed'}

>  <ref_pdb>  (440) 
1

>  <scratch_subdir>  (440) 
/opt/xchem-fragalysis-2/maxwin/BulkDock/SCRATCH/511027/C94011-P104

>  <alias>  (440) 
Cc1cc(CO)c2cc(Cl)cc(N[C@@](O)(Cc3cccc4c3CCNC4)NCC3CCOCC3)c2n1

>  <HIPPO Compound ID>  (440) 
91846

>  <fragmenstein_runtime>  (440) 
7.210209

$$$$
C[C@@H]1Nc2c(C(=O)C(=O)C[C@@H]3CCCC4(CCNCC4)C3)cc(F)cc2[C@@H](CO)C12CCCCC2
     RDKit          3D

 35 39  0  0  0  0  0  0  0  0999 V2000
   -2.8762    4.8287  -16.1238 C   0  0  0  0  0  0  0  0  0  0  0  0
   -3.8949    5.9725  -16.1629 C   0  0  2  0  0  0  0  0  0  0  0  0
   -5.0885    5.5128  -15.4702 N   0  0  0  0  0  0  0  0  0  0  0  0
   -6.2532    5.1445  -16.1406 C   0  0  0  0  0  0  0  0  0  0  0  0
   -7.3863    4.7445  -15.3949 C   0  0  0  0  0  0  0  0  0  0  0  0
   -7.3463    4.8759  -13.9358 C   0  0  0  0  0  0  0  0  0  0  0  0
   -7.1370    5.9825  -13.4533 O   0  0  0  0  0  0  0  0  0  0  0  0
   -7.4747    3.6430  -13.0609 C   0  0  0  0  0  0  0  0  0  0  0  0
   -7.1260    2.5568  -13.5157 O   0  0  0  0  0  0  0  0  0  0  0  0
   -8.0630    3.7885  -11.6721 C   0  0  0  0  0  0  0  0  0  0  0  0
   -7.6506    5.0011  -10.8142 C   0  0  2  0  0  0  0  0  0  0  0  0
   -6.1241    5.1478  -10.7272 C   0  0  0  0  0  0  0  0  0  0  0  0
   -5.5088    4.1070   -9.8131 C   0  0  0  0  0  0  0  0  0  0  0  0
   -6.1057    4.2392   -8.4256 C   0  0  0  0  0  0  0  0  0  0  0  0
   -7.6490    4.0449   -8.3469 C   0  0  0  0  0  0  0  0  0  0  0  0
   -8.0326    4.4279   -6.8892 C   0  0  0  0  0  0  0  0  0  0  0  0
   -9.4330    4.0436   -6.4262 C   0  0  0  0  0  0  0  0  0  0  0  0
   -9.9757    2.8498   -7.0470 N   0  0  0  0  0  0  0  0  0  0  0  0
   -8.9396    1.9391   -7.5118 C   0  0  0  0  0  0  0  0  0  0  0  0
   -8.1299    2.5902   -8.6331 C   0  0  0  0  0  0  0  0  0  0  0  0
   -8.2806    5.0106   -9.3888 C   0  0  0  0  0  0  0  0  0  0  0  0
   -8.5608    4.3149  -15.9995 C   0  0  0  0  0  0  0  0  0  0  0  0
   -8.5973    4.2382  -17.3748 C   0  0  0  0  0  0  0  0  0  0  0  0
   -9.7073    3.7932  -17.9768 F   0  0  0  0  0  0  0  0  0  0  0  0
   -7.4956    4.6065  -18.1434 C   0  0  0  0  0  0  0  0  0  0  0  0
   -6.3048    5.0689  -17.5434 C   0  0  0  0  0  0  0  0  0  0  0  0
   -5.0604    5.4650  -18.3465 C   0  0  1  0  0  0  0  0  0  0  0  0
   -5.3627    5.8181  -19.8117 C   0  0  0  0  0  0  0  0  0  0  0  0
   -4.1757    5.8643  -20.6020 O   0  0  0  0  0  0  0  0  0  0  0  0
   -4.2228    6.5635  -17.5740 C   0  0  0  0  0  0  0  0  0  0  0  0
   -5.0595    7.8874  -17.3953 C   0  0  0  0  0  0  0  0  0  0  0  0
   -4.2739    9.1897  -17.5922 C   0  0  0  0  0  0  0  0  0  0  0  0
   -2.8808    9.1218  -16.9857 C   0  0  0  0  0  0  0  0  0  0  0  0
   -2.0529    7.9755  -17.5646 C   0  0  0  0  0  0  0  0  0  0  0  0
   -2.9022    6.9373  -18.3065 C   0  0  0  0  0  0  0  0  0  0  0  0
  2  1  1  6
  2  3  1  0
  3  4  1  0
  4  5  2  0
  5  6  1  0
  6  7  2  0
  6  8  1  0
  8  9  2  0
  8 10  1  0
 11 10  1  1
 11 12  1  0
 12 13  1  0
 13 14  1  0
 14 15  1  0
 15 16  1  0
 16 17  1  0
 17 18  1  0
 18 19  1  0
 19 20  1  0
 15 21  1  0
  5 22  1  0
 22 23  2  0
 23 24  1  0
 23 25  1  0
 25 26  2  0
 26 27  1  0
 27 28  1  6
 28 29  1  0
 27 30  1  0
 30 31  1  0
 31 32  1  0
 32 33  1  0
 33 34  1  0
 34 35  1  0
 30  2  1  0
 26  4  1  0
 35 30  1  0
 21 11  1  0
 20 15  1  0
M  END
>  <smiles>  (441) 
C94015-P104

>  <fragmenstein_outcome>  (441) 
acceptable

>  <inchikey>  (441) 
YBTMLTQFJQDEFD-UHFFFAOYSA-N

>  <fragmenstein_mode>  (441) 
expansion

>  <HIPPO Pose ID>  (441) 
13769

>  <Energy>  (441) 
144.510615

>  <fragmenstein_error>  (441) 


>  <tags>  (441) 
{'openbind_xx01zvns2b_c1_fragmenstein', 'fragmenstein_placed'}

>  <ref_pdb>  (441) 
1

>  <scratch_subdir>  (441) 
/opt/xchem-fragalysis-2/maxwin/BulkDock/SCRATCH/511027/C94015-P104

>  <alias>  (441) 
C[C@@H]1Nc2c(C(=O)C(=O)C[C@@H]3CCCC4(CCNCC4)C3)cc(F)cc2[C@@H](CO)C12CCCCC2

>  <HIPPO Compound ID>  (441) 
89335

>  <fragmenstein_runtime>  (441) 
12.630027

$$$$
C[C@H]1Nc2c(C(=O)C(=O)C[C@@H]3CCCC4(CCNCC4)C3)ccc3[nH]c(O)c(c23)C12CCNCC2
     RDKit          3D

 35 40  0  0  0  0  0  0  0  0999 V2000
   -2.9690    5.9934  -16.1797 C   0  0  0  0  0  0  0  0  0  0  0  0
   -4.2591    5.3422  -16.6871 C   0  0  1  0  0  0  0  0  0  0  0  0
   -5.3265    5.6137  -15.6848 N   0  0  0  0  0  0  0  0  0  0  0  0
   -6.6110    5.1945  -16.0340 C   0  0  0  0  0  0  0  0  0  0  0  0
   -7.6728    4.9862  -15.1562 C   0  0  0  0  0  0  0  0  0  0  0  0
   -7.4716    5.1625  -13.7237 C   0  0  0  0  0  0  0  0  0  0  0  0
   -7.2593    6.2757  -13.2682 O   0  0  0  0  0  0  0  0  0  0  0  0
   -7.5404    3.9098  -12.8606 C   0  0  0  0  0  0  0  0  0  0  0  0
   -7.1598    2.8417  -13.3353 O   0  0  0  0  0  0  0  0  0  0  0  0
   -8.1264    3.9982  -11.4749 C   0  0  0  0  0  0  0  0  0  0  0  0
   -7.8010    5.2327  -10.6185 C   0  0  2  0  0  0  0  0  0  0  0  0
   -6.2914    5.5338  -10.5304 C   0  0  0  0  0  0  0  0  0  0  0  0
   -5.6918    5.2621   -9.1580 C   0  0  0  0  0  0  0  0  0  0  0  0
   -6.2484    3.9720   -8.5710 C   0  0  0  0  0  0  0  0  0  0  0  0
   -7.7817    4.0353   -8.2900 C   0  0  0  0  0  0  0  0  0  0  0  0
   -7.9872    4.4262   -6.8012 C   0  0  0  0  0  0  0  0  0  0  0  0
   -9.4132    4.2154   -6.3031 C   0  0  0  0  0  0  0  0  0  0  0  0
   -9.9663    2.8965   -6.5606 N   0  0  0  0  0  0  0  0  0  0  0  0
   -9.0815    2.0053   -7.2996 C   0  0  0  0  0  0  0  0  0  0  0  0
   -8.4747    2.6554   -8.5416 C   0  0  0  0  0  0  0  0  0  0  0  0
   -8.4137    5.1191   -9.2087 C   0  0  0  0  0  0  0  0  0  0  0  0
   -8.9264    4.5340  -15.5836 C   0  0  0  0  0  0  0  0  0  0  0  0
   -9.1830    4.2308  -16.9181 C   0  0  0  0  0  0  0  0  0  0  0  0
   -8.1075    4.3863  -17.7757 C   0  0  0  0  0  0  0  0  0  0  0  0
   -7.9574    4.0943  -19.0977 N   0  0  0  0  0  0  0  0  0  0  0  0
   -6.6817    4.3836  -19.5066 C   0  0  0  0  0  0  0  0  0  0  0  0
   -6.3797    4.0438  -20.7394 O   0  0  0  0  0  0  0  0  0  0  0  0
   -6.0081    4.9882  -18.4707 C   0  0  0  0  0  0  0  0  0  0  0  0
   -6.8830    4.8746  -17.3628 C   0  0  0  0  0  0  0  0  0  0  0  0
   -4.6509    5.6530  -18.2215 C   0  0  0  0  0  0  0  0  0  0  0  0
   -4.8229    7.1851  -18.4510 C   0  0  0  0  0  0  0  0  0  0  0  0
   -4.6504    7.5461  -19.9276 C   0  0  0  0  0  0  0  0  0  0  0  0
   -3.3327    7.1993  -20.4682 N   0  0  0  0  0  0  0  0  0  0  0  0
   -2.6091    6.2145  -19.6694 C   0  0  0  0  0  0  0  0  0  0  0  0
   -3.5358    5.1149  -19.1554 C   0  0  0  0  0  0  0  0  0  0  0  0
  2  1  1  1
  2  3  1  0
  3  4  1  0
  4  5  1  0
  5  6  1  0
  6  7  2  0
  6  8  1  0
  8  9  2  0
  8 10  1  0
 11 10  1  1
 11 12  1  0
 12 13  1  0
 13 14  1  0
 14 15  1  0
 15 16  1  0
 16 17  1  0
 17 18  1  0
 18 19  1  0
 19 20  1  0
 15 21  1  0
  5 22  2  0
 22 23  1  0
 23 24  2  0
 24 25  1  0
 25 26  1  0
 26 27  1  0
 26 28  2  0
 28 29  1  0
 28 30  1  0
 30 31  1  0
 31 32  1  0
 32 33  1  0
 33 34  1  0
 34 35  1  0
 30  2  1  0
 29  4  2  0
 35 30  1  0
 21 11  1  0
 29 24  1  0
 20 15  1  0
M  END
>  <smiles>  (442) 
C94019-P104

>  <fragmenstein_outcome>  (442) 
acceptable

>  <inchikey>  (442) 
MRPHYSDVNANQDA-UHFFFAOYSA-N

>  <fragmenstein_mode>  (442) 
expansion

>  <HIPPO Pose ID>  (442) 
13772

>  <Energy>  (442) 
155.634288

>  <fragmenstein_error>  (442) 


>  <tags>  (442) 
{'openbind_xx01zvns2b_c1_fragmenstein', 'fragmenstein_placed'}

>  <ref_pdb>  (442) 
1

>  <scratch_subdir>  (442) 
/opt/xchem-fragalysis-2/maxwin/BulkDock/SCRATCH/511027/C94019-P104

>  <alias>  (442) 
C[C@H]1Nc2c(C(=O)C(=O)C[C@@H]3CCCC4(CCNCC4)C3)ccc3[nH]c(O)c(c23)C12CCNCC2

>  <HIPPO Compound ID>  (442) 
106863

>  <fragmenstein_runtime>  (442) 
9.844986

$$$$
Cc1cc(CO)c2cc(Br)cc(NC(=O)[C@H](CC(F)F)c3cccc4c3CCNC4)c2n1
     RDKit          3D

 32 35  0  0  0  0  0  0  0  0999 V2000
   -2.3990    5.6019  -15.5924 C   0  0  0  0  0  0  0  0  0  0  0  0
   -3.6894    5.3553  -16.3144 C   0  0  0  0  0  0  0  0  0  0  0  0
   -3.7645    5.5234  -17.6884 C   0  0  0  0  0  0  0  0  0  0  0  0
   -4.9900    5.3419  -18.3310 C   0  0  0  0  0  0  0  0  0  0  0  0
   -5.1260    5.5320  -19.8159 C   0  0  0  0  0  0  0  0  0  0  0  0
   -3.8762    5.6773  -20.4914 O   0  0  0  0  0  0  0  0  0  0  0  0
   -6.1277    5.0171  -17.5573 C   0  0  0  0  0  0  0  0  0  0  0  0
   -7.4077    4.8342  -18.1242 C   0  0  0  0  0  0  0  0  0  0  0  0
   -8.5028    4.5579  -17.3266 C   0  0  0  0  0  0  0  0  0  0  0  0
  -10.2012    4.3666  -18.0800 Br  0  0  0  0  0  0  0  0  0  0  0  0
   -8.3608    4.4689  -15.9627 C   0  0  0  0  0  0  0  0  0  0  0  0
   -7.0978    4.6123  -15.3947 C   0  0  0  0  0  0  0  0  0  0  0  0
   -6.9835    4.4616  -14.0206 N   0  0  0  0  0  0  0  0  0  0  0  0
   -8.0756    4.4062  -12.9185 C   0  0  0  0  0  0  0  0  0  0  0  0
   -9.2402    4.4018  -13.0069 O   0  0  0  0  0  0  0  0  0  0  0  0
   -7.3532    4.2874  -11.5597 C   0  0  2  0  0  0  0  0  0  0  0  0
   -8.3498    3.6563  -10.5762 C   0  0  0  0  0  0  0  0  0  0  0  0
   -7.8185    3.3442   -9.2053 C   0  0  0  0  0  0  0  0  0  0  0  0
   -7.6545    4.5047   -8.5199 F   0  0  0  0  0  0  0  0  0  0  0  0
   -8.7609    2.6404   -8.5293 F   0  0  0  0  0  0  0  0  0  0  0  0
   -6.8222    5.6681  -11.1895 C   0  0  0  0  0  0  0  0  0  0  0  0
   -7.7077    6.7650  -11.2341 C   0  0  0  0  0  0  0  0  0  0  0  0
   -7.2546    8.0678  -11.0564 C   0  0  0  0  0  0  0  0  0  0  0  0
   -5.9082    8.3010  -10.8073 C   0  0  0  0  0  0  0  0  0  0  0  0
   -5.0004    7.2334  -10.7374 C   0  0  0  0  0  0  0  0  0  0  0  0
   -5.4576    5.9052  -10.9061 C   0  0  0  0  0  0  0  0  0  0  0  0
   -4.4484    4.7767  -10.8481 C   0  0  0  0  0  0  0  0  0  0  0  0
   -3.0905    5.1981  -10.2749 C   0  0  0  0  0  0  0  0  0  0  0  0
   -2.6320    6.4650  -10.8527 N   0  0  0  0  0  0  0  0  0  0  0  0
   -3.5490    7.5313  -10.4303 C   0  0  0  0  0  0  0  0  0  0  0  0
   -5.9619    4.8795  -16.1620 C   0  0  0  0  0  0  0  0  0  0  0  0
   -4.7597    5.0275  -15.5592 N   0  0  0  0  0  0  0  0  0  0  0  0
  1  2  1  0
  2  3  2  0
  3  4  1  0
  4  5  1  0
  5  6  1  0
  4  7  2  0
  7  8  1  0
  8  9  2  0
  9 10  1  0
  9 11  1  0
 11 12  2  0
 12 13  1  0
 13 14  1  0
 14 15  2  0
 14 16  1  0
 16 17  1  1
 17 18  1  0
 18 19  1  0
 18 20  1  0
 16 21  1  0
 21 22  2  0
 22 23  1  0
 23 24  2  0
 24 25  1  0
 25 26  2  0
 26 27  1  0
 27 28  1  0
 28 29  1  0
 29 30  1  0
 12 31  1  0
 31 32  2  0
 32  2  1  0
 31  7  1  0
 26 21  1  0
 30 25  1  0
M  END
>  <smiles>  (443) 
C94036-P104

>  <fragmenstein_outcome>  (443) 
acceptable

>  <inchikey>  (443) 
NZNYJUSDORDQFS-UHFFFAOYSA-N

>  <fragmenstein_mode>  (443) 
expansion

>  <HIPPO Pose ID>  (443) 
13776

>  <Energy>  (443) 
94.432318

>  <fragmenstein_error>  (443) 


>  <tags>  (443) 
{'openbind_xx01zvns2b_c1_fragmenstein', 'fragmenstein_placed'}

>  <ref_pdb>  (443) 
1

>  <scratch_subdir>  (443) 
/opt/xchem-fragalysis-2/maxwin/BulkDock/SCRATCH/511027/C94036-P104

>  <alias>  (443) 
Cc1cc(CO)c2cc(Br)cc(NC(=O)[C@H](CC(F)F)c3cccc4c3CCNC4)c2n1

>  <HIPPO Compound ID>  (443) 
85513

>  <fragmenstein_runtime>  (443) 
8.370309

$$$$
Cc1cc(CO)c2cccc(C(=O)C(=O)C[C@H]3CCC4(CCNCC4)N3)c2n1
     RDKit          3D

 28 31  0  0  0  0  0  0  0  0999 V2000
   -2.3153    5.6635  -15.9290 C   0  0  0  0  0  0  0  0  0  0  0  0
   -3.6836    5.4484  -16.4957 C   0  0  0  0  0  0  0  0  0  0  0  0
   -3.9504    5.6920  -17.8213 C   0  0  0  0  0  0  0  0  0  0  0  0
   -5.2567    5.5137  -18.2828 C   0  0  0  0  0  0  0  0  0  0  0  0
   -5.5274    5.7537  -19.7284 C   0  0  0  0  0  0  0  0  0  0  0  0
   -5.8319    4.4939  -20.2858 O   0  0  0  0  0  0  0  0  0  0  0  0
   -6.2822    5.0922  -17.3994 C   0  0  0  0  0  0  0  0  0  0  0  0
   -7.6209    4.8532  -17.8061 C   0  0  0  0  0  0  0  0  0  0  0  0
   -8.6017    4.4728  -16.8982 C   0  0  0  0  0  0  0  0  0  0  0  0
   -8.2619    4.3363  -15.5635 C   0  0  0  0  0  0  0  0  0  0  0  0
   -6.9349    4.5340  -15.1563 C   0  0  0  0  0  0  0  0  0  0  0  0
   -6.5793    4.4127  -13.7266 C   0  0  0  0  0  0  0  0  0  0  0  0
   -5.6843    5.0662  -13.2039 O   0  0  0  0  0  0  0  0  0  0  0  0
   -7.3713    3.5166  -12.8164 C   0  0  0  0  0  0  0  0  0  0  0  0
   -7.4051    2.3187  -13.0792 O   0  0  0  0  0  0  0  0  0  0  0  0
   -8.1037    4.1592  -11.6496 C   0  0  0  0  0  0  0  0  0  0  0  0
   -7.6158    5.5518  -11.2373 C   0  0  1  0  0  0  0  0  0  0  0  0
   -8.0701    6.6824  -12.1540 C   0  0  0  0  0  0  0  0  0  0  0  0
   -7.7361    7.9217  -11.3438 C   0  0  0  0  0  0  0  0  0  0  0  0
   -7.8745    7.4687   -9.8705 C   0  0  0  0  0  0  0  0  0  0  0  0
   -6.5864    7.7250   -9.0686 C   0  0  0  0  0  0  0  0  0  0  0  0
   -6.2587    9.2218   -8.9766 C   0  0  0  0  0  0  0  0  0  0  0  0
   -7.4197   10.0987   -9.1358 N   0  0  0  0  0  0  0  0  0  0  0  0
   -8.6169    9.5273   -8.5267 C   0  0  0  0  0  0  0  0  0  0  0  0
   -9.0352    8.1955   -9.1660 C   0  0  0  0  0  0  0  0  0  0  0  0
   -8.1894    6.0178   -9.9613 N   0  0  0  0  0  0  0  0  0  0  0  0
   -5.9259    4.9009  -16.0547 C   0  0  0  0  0  0  0  0  0  0  0  0
   -4.6470    5.0649  -15.6433 N   0  0  0  0  0  0  0  0  0  0  0  0
  1  2  1  0
  2  3  2  0
  3  4  1  0
  4  5  1  0
  5  6  1  0
  4  7  2  0
  7  8  1  0
  8  9  2  0
  9 10  1  0
 10 11  2  0
 11 12  1  0
 12 13  2  0
 12 14  1  0
 14 15  2  0
 14 16  1  0
 17 16  1  6
 17 18  1  0
 18 19  1  0
 19 20  1  0
 20 21  1  0
 21 22  1  0
 22 23  1  0
 23 24  1  0
 24 25  1  0
 20 26  1  0
 11 27  1  0
 27 28  2  0
 28  2  1  0
 27  7  1  0
 26 17  1  0
 25 20  1  0
M  END
>  <smiles>  (444) 
C94049-P104

>  <fragmenstein_outcome>  (444) 
acceptable

>  <inchikey>  (444) 
KMHQLNUWNATUKB-UHFFFAOYSA-N

>  <fragmenstein_mode>  (444) 
expansion

>  <HIPPO Pose ID>  (444) 
13784

>  <Energy>  (444) 
99.581037

>  <fragmenstein_error>  (444) 


>  <tags>  (444) 
{'openbind_xx01zvns2b_c1_fragmenstein', 'fragmenstein_placed'}

>  <ref_pdb>  (444) 
1

>  <scratch_subdir>  (444) 
/opt/xchem-fragalysis-2/maxwin/BulkDock/SCRATCH/511027/C94049-P104

>  <alias>  (444) 
Cc1cc(CO)c2cccc(C(=O)C(=O)C[C@H]3CCC4(CCNCC4)N3)c2n1

>  <HIPPO Compound ID>  (444) 
24270

>  <fragmenstein_runtime>  (444) 
2.912722

$$$$
Cc1cc(CO)c2cccc(C(=O)C(=O)Cc3ccc4c(c3)CNC4)c2n1
     RDKit          3D

 27 30  0  0  0  0  0  0  0  0999 V2000
   -3.1849    5.5885  -15.1618 C   0  0  0  0  0  0  0  0  0  0  0  0
   -4.3827    5.3403  -16.0284 C   0  0  0  0  0  0  0  0  0  0  0  0
   -4.2727    5.4417  -17.4065 C   0  0  0  0  0  0  0  0  0  0  0  0
   -5.3986    5.2035  -18.1917 C   0  0  0  0  0  0  0  0  0  0  0  0
   -5.3469    5.3447  -19.6908 C   0  0  0  0  0  0  0  0  0  0  0  0
   -4.0339    5.5268  -20.2223 O   0  0  0  0  0  0  0  0  0  0  0  0
   -6.6178    4.8606  -17.5556 C   0  0  0  0  0  0  0  0  0  0  0  0
   -7.7904    4.5903  -18.3013 C   0  0  0  0  0  0  0  0  0  0  0  0
   -8.9927    4.2852  -17.6928 C   0  0  0  0  0  0  0  0  0  0  0  0
   -9.0364    4.2511  -16.3183 C   0  0  0  0  0  0  0  0  0  0  0  0
   -7.8866    4.4929  -15.5529 C   0  0  0  0  0  0  0  0  0  0  0  0
   -8.1140    4.4889  -14.1009 C   0  0  0  0  0  0  0  0  0  0  0  0
   -9.0979    5.0709  -13.6418 O   0  0  0  0  0  0  0  0  0  0  0  0
   -7.2480    3.6962  -13.1537 C   0  0  0  0  0  0  0  0  0  0  0  0
   -6.7499    2.6372  -13.5199 O   0  0  0  0  0  0  0  0  0  0  0  0
   -7.1872    4.2101  -11.7336 C   0  0  0  0  0  0  0  0  0  0  0  0
   -6.7261    5.6475  -11.6328 C   0  0  0  0  0  0  0  0  0  0  0  0
   -7.6679    6.6930  -11.5060 C   0  0  0  0  0  0  0  0  0  0  0  0
   -7.2660    8.0300  -11.4617 C   0  0  0  0  0  0  0  0  0  0  0  0
   -5.9147    8.3046  -11.5382 C   0  0  0  0  0  0  0  0  0  0  0  0
   -4.9763    7.2827  -11.6588 C   0  0  0  0  0  0  0  0  0  0  0  0
   -5.3593    5.9532  -11.7069 C   0  0  0  0  0  0  0  0  0  0  0  0
   -3.6094    7.8770  -11.6901 C   0  0  0  0  0  0  0  0  0  0  0  0
   -3.8170    9.3290  -11.9398 N   0  0  0  0  0  0  0  0  0  0  0  0
   -5.2052    9.6147  -11.4872 C   0  0  0  0  0  0  0  0  0  0  0  0
   -6.6534    4.7951  -16.1386 C   0  0  0  0  0  0  0  0  0  0  0  0
   -5.5475    5.0500  -15.4006 N   0  0  0  0  0  0  0  0  0  0  0  0
  1  2  1  0
  2  3  2  0
  3  4  1  0
  4  5  1  0
  5  6  1  0
  4  7  2  0
  7  8  1  0
  8  9  2  0
  9 10  1  0
 10 11  2  0
 11 12  1  0
 12 13  2  0
 12 14  1  0
 14 15  2  0
 14 16  1  0
 16 17  1  0
 17 18  2  0
 18 19  1  0
 19 20  2  0
 20 21  1  0
 21 22  2  0
 21 23  1  0
 23 24  1  0
 24 25  1  0
 11 26  1  0
 26 27  2  0
 27  2  1  0
 26  7  1  0
 22 17  1  0
 25 20  1  0
M  END
>  <smiles>  (445) 
C94060-P104

>  <fragmenstein_outcome>  (445) 
acceptable

>  <inchikey>  (445) 
JQEVZKXFKSPXHW-UHFFFAOYSA-N

>  <fragmenstein_mode>  (445) 
expansion

>  <HIPPO Pose ID>  (445) 
13789

>  <Energy>  (445) 
106.88403

>  <fragmenstein_error>  (445) 


>  <tags>  (445) 
{'openbind_xx01zvns2b_c1_fragmenstein', 'fragmenstein_placed'}

>  <ref_pdb>  (445) 
1

>  <scratch_subdir>  (445) 
/opt/xchem-fragalysis-2/maxwin/BulkDock/SCRATCH/511027/C94060-P104

>  <alias>  (445) 
Cc1cc(CO)c2cccc(C(=O)C(=O)Cc3ccc4c(c3)CNC4)c2n1

>  <HIPPO Compound ID>  (445) 
106254

>  <fragmenstein_runtime>  (445) 
3.129267

$$$$
Cc1cc([C@H](N)O)c2cc(Cl)cc(C(=O)C(=O)C[C@H]3CCCC[C@@H]4NCC[C@@H]34)c2n1
     RDKit          3D

 30 33  0  0  0  0  0  0  0  0999 V2000
   -2.2243    5.5854  -16.0178 C   0  0  0  0  0  0  0  0  0  0  0  0
   -3.5811    5.4444  -16.6354 C   0  0  0  0  0  0  0  0  0  0  0  0
   -3.8191    5.8675  -17.9242 C   0  0  0  0  0  0  0  0  0  0  0  0
   -5.1160    5.7787  -18.4502 C   0  0  0  0  0  0  0  0  0  0  0  0
   -5.4159    6.4818  -19.7575 C   0  0  2  0  0  0  0  0  0  0  0  0
   -4.3009    6.5133  -20.6858 N   0  0  0  0  0  0  0  0  0  0  0  0
   -5.7396    7.8325  -19.4866 O   0  0  0  0  0  0  0  0  0  0  0  0
   -6.1478    5.2131  -17.6452 C   0  0  0  0  0  0  0  0  0  0  0  0
   -7.4638    4.9598  -18.0944 C   0  0  0  0  0  0  0  0  0  0  0  0
   -8.4517    4.4916  -17.2328 C   0  0  0  0  0  0  0  0  0  0  0  0
  -10.0212    4.2018  -17.8495 Cl  0  0  0  0  0  0  0  0  0  0  0  0
   -8.1852    4.3335  -15.8858 C   0  0  0  0  0  0  0  0  0  0  0  0
   -6.8839    4.5659  -15.4357 C   0  0  0  0  0  0  0  0  0  0  0  0
   -6.6073    4.6090  -13.9872 C   0  0  0  0  0  0  0  0  0  0  0  0
   -5.9451    5.5329  -13.5298 O   0  0  0  0  0  0  0  0  0  0  0  0
   -7.1729    3.5559  -13.0529 C   0  0  0  0  0  0  0  0  0  0  0  0
   -7.1939    2.3909  -13.4447 O   0  0  0  0  0  0  0  0  0  0  0  0
   -7.7168    3.9621  -11.6857 C   0  0  0  0  0  0  0  0  0  0  0  0
   -7.3062    5.3267  -11.0854 C   0  0  1  0  0  0  0  0  0  0  0  0
   -8.1241    6.4801  -11.7050 C   0  0  0  0  0  0  0  0  0  0  0  0
   -7.4867    7.8774  -11.6106 C   0  0  0  0  0  0  0  0  0  0  0  0
   -6.3951    8.0820  -10.5602 C   0  0  0  0  0  0  0  0  0  0  0  0
   -6.8026    7.8463   -9.1034 C   0  0  0  0  0  0  0  0  0  0  0  0
   -7.7419    6.6667   -8.8664 C   0  0  2  0  0  0  0  0  0  0  0  0
   -7.8448    6.3070   -7.4363 N   0  0  0  0  0  0  0  0  0  0  0  0
   -8.3599    4.9265   -7.4063 C   0  0  0  0  0  0  0  0  0  0  0  0
   -8.2623    4.3795   -8.8256 C   0  0  0  0  0  0  0  0  0  0  0  0
   -7.3245    5.3520   -9.5304 C   0  0  1  0  0  0  0  0  0  0  0  0
   -5.8375    4.9201  -16.3017 C   0  0  0  0  0  0  0  0  0  0  0  0
   -4.5706    4.9990  -15.8442 N   0  0  0  0  0  0  0  0  0  0  0  0
  1  2  1  0
  2  3  2  0
  3  4  1  0
  4  5  1  0
  5  6  1  6
  5  7  1  0
  4  8  2  0
  8  9  1  0
  9 10  2  0
 10 11  1  0
 10 12  1  0
 12 13  2  0
 13 14  1  0
 14 15  2  0
 14 16  1  0
 16 17  2  0
 16 18  1  0
 19 18  1  6
 19 20  1  0
 20 21  1  0
 21 22  1  0
 22 23  1  0
 24 23  1  1
 24 25  1  0
 25 26  1  0
 26 27  1  0
 28 27  1  6
 13 29  1  0
 29 30  2  0
 30  2  1  0
 29  8  1  0
 28 19  1  0
 28 24  1  0
M  END
>  <smiles>  (446) 
C94077-P104

>  <fragmenstein_outcome>  (446) 
acceptable

>  <inchikey>  (446) 
CWIKXNHUCFADPA-UHFFFAOYSA-N

>  <fragmenstein_mode>  (446) 
expansion

>  <HIPPO Pose ID>  (446) 
13804

>  <Energy>  (446) 
49.447108

>  <fragmenstein_error>  (446) 


>  <tags>  (446) 
{'openbind_xx01zvns2b_c1_fragmenstein', 'fragmenstein_placed'}

>  <ref_pdb>  (446) 
1

>  <scratch_subdir>  (446) 
/opt/xchem-fragalysis-2/maxwin/BulkDock/SCRATCH/511027/C94077-P104

>  <alias>  (446) 
Cc1cc([C@H](N)O)c2cc(Cl)cc(C(=O)C(=O)C[C@H]3CCCC[C@@H]4NCC[C@@H]34)c2n1

>  <HIPPO Compound ID>  (446) 
79530

>  <fragmenstein_runtime>  (446) 
4.29348

$$$$
C[C@H]1CC2(CCN(C)CC2)c2cccc(C(=O)C(=O)C[C@@H]3CCCC4(CCNCC4)C3)c2N1
     RDKit          3D

 33 37  0  0  0  0  0  0  0  0999 V2000
   -2.5243    5.3884  -15.5190 C   0  0  0  0  0  0  0  0  0  0  0  0
   -3.7340    5.9906  -16.2327 C   0  0  1  0  0  0  0  0  0  0  0  0
   -3.7118    5.6444  -17.7154 C   0  0  0  0  0  0  0  0  0  0  0  0
   -5.0251    6.0520  -18.4321 C   0  0  0  0  0  0  0  0  0  0  0  0
   -4.8752    5.7208  -19.9249 C   0  0  0  0  0  0  0  0  0  0  0  0
   -3.7590    6.5344  -20.6103 C   0  0  0  0  0  0  0  0  0  0  0  0
   -3.5245    7.8521  -20.0003 N   0  0  0  0  0  0  0  0  0  0  0  0
   -2.8492    8.7491  -20.9331 C   0  0  0  0  0  0  0  0  0  0  0  0
   -4.7732    8.4191  -19.5083 C   0  0  0  0  0  0  0  0  0  0  0  0
   -5.3320    7.5849  -18.3467 C   0  0  0  0  0  0  0  0  0  0  0  0
   -6.1604    5.3192  -17.7040 C   0  0  0  0  0  0  0  0  0  0  0  0
   -7.3069    4.8375  -18.3632 C   0  0  0  0  0  0  0  0  0  0  0  0
   -8.4105    4.3447  -17.6599 C   0  0  0  0  0  0  0  0  0  0  0  0
   -8.3973    4.3357  -16.2735 C   0  0  0  0  0  0  0  0  0  0  0  0
   -7.2516    4.7793  -15.6147 C   0  0  0  0  0  0  0  0  0  0  0  0
   -7.2652    4.9456  -14.1648 C   0  0  0  0  0  0  0  0  0  0  0  0
   -6.9604    6.0382  -13.6907 O   0  0  0  0  0  0  0  0  0  0  0  0
   -7.6258    3.8169  -13.2388 C   0  0  0  0  0  0  0  0  0  0  0  0
   -7.3080    2.6680  -13.5150 O   0  0  0  0  0  0  0  0  0  0  0  0
   -8.3227    4.2295  -11.9633 C   0  0  0  0  0  0  0  0  0  0  0  0
   -7.4862    5.1069  -11.0121 C   0  0  2  0  0  0  0  0  0  0  0  0
   -5.9975    4.7463  -10.9847 C   0  0  0  0  0  0  0  0  0  0  0  0
   -5.8082    3.3641  -10.4111 C   0  0  0  0  0  0  0  0  0  0  0  0
   -6.3387    3.2996   -8.9912 C   0  0  0  0  0  0  0  0  0  0  0  0
   -7.7617    3.8674   -8.7119 C   0  0  0  0  0  0  0  0  0  0  0  0
   -8.8319    2.7874   -9.0142 C   0  0  0  0  0  0  0  0  0  0  0  0
   -9.1078    1.8685   -7.8316 C   0  0  0  0  0  0  0  0  0  0  0  0
   -9.5919    2.5631   -6.6366 N   0  0  0  0  0  0  0  0  0  0  0  0
   -9.1736    3.9512   -6.5404 C   0  0  0  0  0  0  0  0  0  0  0  0
   -7.8353    4.2477   -7.1963 C   0  0  0  0  0  0  0  0  0  0  0  0
   -8.0210    5.1381   -9.5682 C   0  0  0  0  0  0  0  0  0  0  0  0
   -6.1111    5.2467  -16.3024 C   0  0  0  0  0  0  0  0  0  0  0  0
   -4.9327    5.4966  -15.5887 N   0  0  0  0  0  0  0  0  0  0  0  0
  2  1  1  1
  2  3  1  0
  3  4  1  0
  4  5  1  0
  5  6  1  0
  6  7  1  0
  7  8  1  0
  7  9  1  0
  9 10  1  0
  4 11  1  0
 11 12  2  0
 12 13  1  0
 13 14  2  0
 14 15  1  0
 15 16  1  0
 16 17  2  0
 16 18  1  0
 18 19  2  0
 18 20  1  0
 21 20  1  6
 21 22  1  0
 22 23  1  0
 23 24  1  0
 24 25  1  0
 25 26  1  0
 26 27  1  0
 27 28  1  0
 28 29  1  0
 29 30  1  0
 25 31  1  0
 15 32  2  0
 32 33  1  0
 33  2  1  0
 10  4  1  0
 32 11  1  0
 31 21  1  0
 30 25  1  0
M  END
>  <smiles>  (447) 
C94096-P104

>  <fragmenstein_outcome>  (447) 
acceptable

>  <inchikey>  (447) 
YGRRQMTWMSOTDN-UHFFFAOYSA-N

>  <fragmenstein_mode>  (447) 
expansion

>  <HIPPO Pose ID>  (447) 
13819

>  <Energy>  (447) 
139.496615

>  <fragmenstein_error>  (447) 


>  <tags>  (447) 
{'openbind_xx01zvns2b_c1_fragmenstein', 'fragmenstein_placed'}

>  <ref_pdb>  (447) 
1

>  <scratch_subdir>  (447) 
/opt/xchem-fragalysis-2/maxwin/BulkDock/SCRATCH/511027/C94096-P104

>  <alias>  (447) 
C[C@H]1CC2(CCN(C)CC2)c2cccc(C(=O)C(=O)C[C@@H]3CCCC4(CCNCC4)C3)c2N1

>  <HIPPO Compound ID>  (447) 
94096

>  <fragmenstein_runtime>  (447) 
12.827792

$$$$
CNCc1cc(C)nc2c(C(=O)C(=O)Cc3cccc4c3CCN(C)C4)cc(Cl)cc12
     RDKit          3D

 31 34  0  0  0  0  0  0  0  0999 V2000
   -5.2856    8.0000  -21.3737 C   0  0  0  0  0  0  0  0  0  0  0  0
   -5.3874    7.5860  -19.9785 N   0  0  0  0  0  0  0  0  0  0  0  0
   -5.2238    6.1276  -19.8836 C   0  0  0  0  0  0  0  0  0  0  0  0
   -5.0358    5.6948  -18.4469 C   0  0  0  0  0  0  0  0  0  0  0  0
   -3.7456    5.8530  -17.9235 C   0  0  0  0  0  0  0  0  0  0  0  0
   -3.5127    5.5320  -16.6085 C   0  0  0  0  0  0  0  0  0  0  0  0
   -2.1667    5.7359  -15.9861 C   0  0  0  0  0  0  0  0  0  0  0  0
   -4.4944    5.0890  -15.8108 N   0  0  0  0  0  0  0  0  0  0  0  0
   -5.7567    4.9384  -16.2552 C   0  0  0  0  0  0  0  0  0  0  0  0
   -6.7703    4.4998  -15.3826 C   0  0  0  0  0  0  0  0  0  0  0  0
   -6.4231    4.2538  -13.9491 C   0  0  0  0  0  0  0  0  0  0  0  0
   -5.4163    4.6858  -13.4006 O   0  0  0  0  0  0  0  0  0  0  0  0
   -7.3189    3.4087  -13.0845 C   0  0  0  0  0  0  0  0  0  0  0  0
   -7.3100    2.1940  -13.2597 O   0  0  0  0  0  0  0  0  0  0  0  0
   -8.2251    4.1259  -12.1136 C   0  0  0  0  0  0  0  0  0  0  0  0
   -7.7179    5.4603  -11.6017 C   0  0  0  0  0  0  0  0  0  0  0  0
   -8.1480    6.6355  -12.2460 C   0  0  0  0  0  0  0  0  0  0  0  0
   -7.6555    7.8822  -11.8674 C   0  0  0  0  0  0  0  0  0  0  0  0
   -6.7304    7.9762  -10.8329 C   0  0  0  0  0  0  0  0  0  0  0  0
   -6.2811    6.8226  -10.1706 C   0  0  0  0  0  0  0  0  0  0  0  0
   -6.7834    5.5570  -10.5452 C   0  0  0  0  0  0  0  0  0  0  0  0
   -6.2227    4.3233   -9.8668 C   0  0  0  0  0  0  0  0  0  0  0  0
   -5.4845    4.6218   -8.5555 C   0  0  0  0  0  0  0  0  0  0  0  0
   -4.5526    5.7462   -8.7131 N   0  0  0  0  0  0  0  0  0  0  0  0
   -3.7436    5.9257   -7.5124 C   0  0  0  0  0  0  0  0  0  0  0  0
   -5.3025    6.9718   -9.0226 C   0  0  0  0  0  0  0  0  0  0  0  0
   -8.0750    4.2767  -15.8431 C   0  0  0  0  0  0  0  0  0  0  0  0
   -8.3691    4.4853  -17.1820 C   0  0  0  0  0  0  0  0  0  0  0  0
   -9.9444    4.1658  -17.7821 Cl  0  0  0  0  0  0  0  0  0  0  0  0
   -7.3943    4.9649  -18.0499 C   0  0  0  0  0  0  0  0  0  0  0  0
   -6.0757    5.2057  -17.6082 C   0  0  0  0  0  0  0  0  0  0  0  0
  1  2  1  0
  2  3  1  0
  3  4  1  0
  4  5  2  0
  5  6  1  0
  6  7  1  0
  6  8  2  0
  8  9  1  0
  9 10  2  0
 10 11  1  0
 11 12  2  0
 11 13  1  0
 13 14  2  0
 13 15  1  0
 15 16  1  0
 16 17  2  0
 17 18  1  0
 18 19  2  0
 19 20  1  0
 20 21  2  0
 21 22  1  0
 22 23  1  0
 23 24  1  0
 24 25  1  0
 24 26  1  0
 10 27  1  0
 27 28  2  0
 28 29  1  0
 28 30  1  0
 30 31  2  0
 31  4  1  0
 31  9  1  0
 21 16  1  0
 26 20  1  0
M  END
>  <smiles>  (448) 
C94106-P104

>  <fragmenstein_outcome>  (448) 
acceptable

>  <inchikey>  (448) 
ABTQFWQFHWRZHB-UHFFFAOYSA-N

>  <fragmenstein_mode>  (448) 
expansion

>  <HIPPO Pose ID>  (448) 
13828

>  <Energy>  (448) 
125.817343

>  <fragmenstein_error>  (448) 


>  <tags>  (448) 
{'openbind_xx01zvns2b_c1_fragmenstein', 'fragmenstein_placed'}

>  <ref_pdb>  (448) 
1

>  <scratch_subdir>  (448) 
/opt/xchem-fragalysis-2/maxwin/BulkDock/SCRATCH/511027/C94106-P104

>  <alias>  (448) 
CNCc1cc(C)nc2c(C(=O)C(=O)Cc3cccc4c3CCN(C)C4)cc(Cl)cc12

>  <HIPPO Compound ID>  (448) 
81777

>  <fragmenstein_runtime>  (448) 
3.395098

$$$$
Cc1nc2c(C(=O)C(=O)C[C@@H]3CCCC4(CCNCC4)C3)cc(Cl)cc2c(CO)c1C1CCNCC1
     RDKit          3D

 36 40  0  0  0  0  0  0  0  0999 V2000
   -2.5642    5.5766  -15.6529 C   0  0  0  0  0  0  0  0  0  0  0  0
   -3.8359    5.4321  -16.4318 C   0  0  0  0  0  0  0  0  0  0  0  0
   -4.8906    5.1033  -15.6509 N   0  0  0  0  0  0  0  0  0  0  0  0
   -6.1145    4.9273  -16.1771 C   0  0  0  0  0  0  0  0  0  0  0  0
   -7.2136    4.6800  -15.3524 C   0  0  0  0  0  0  0  0  0  0  0  0
   -7.0346    4.8276  -13.9083 C   0  0  0  0  0  0  0  0  0  0  0  0
   -6.7564    5.9234  -13.4419 O   0  0  0  0  0  0  0  0  0  0  0  0
   -7.2518    3.6230  -13.0170 C   0  0  0  0  0  0  0  0  0  0  0  0
   -6.9872    2.5083  -13.4607 O   0  0  0  0  0  0  0  0  0  0  0  0
   -7.8748    3.8237  -11.6504 C   0  0  0  0  0  0  0  0  0  0  0  0
   -7.5177    5.0838  -10.8422 C   0  0  2  0  0  0  0  0  0  0  0  0
   -6.0136    5.1506  -10.5221 C   0  0  0  0  0  0  0  0  0  0  0  0
   -5.7043    4.9912   -9.0388 C   0  0  0  0  0  0  0  0  0  0  0  0
   -6.5674    3.9072   -8.3969 C   0  0  0  0  0  0  0  0  0  0  0  0
   -8.0889    4.2040   -8.4415 C   0  0  0  0  0  0  0  0  0  0  0  0
   -8.9353    2.9210   -8.6822 C   0  0  0  0  0  0  0  0  0  0  0  0
   -9.1159    2.0145   -7.4717 C   0  0  0  0  0  0  0  0  0  0  0  0
   -9.5779    2.7406   -6.2876 N   0  0  0  0  0  0  0  0  0  0  0  0
   -8.6493    3.8097   -5.9480 C   0  0  0  0  0  0  0  0  0  0  0  0
   -8.5361    4.8214   -7.0874 C   0  0  0  0  0  0  0  0  0  0  0  0
   -8.3578    5.2384   -9.5634 C   0  0  0  0  0  0  0  0  0  0  0  0
   -8.4982    4.4335  -15.8368 C   0  0  0  0  0  0  0  0  0  0  0  0
   -8.6943    4.4459  -17.2004 C   0  0  0  0  0  0  0  0  0  0  0  0
  -10.2566    4.2259  -17.8570 Cl  0  0  0  0  0  0  0  0  0  0  0  0
   -7.6344    4.7279  -18.0516 C   0  0  0  0  0  0  0  0  0  0  0  0
   -6.3299    4.9859  -17.5592 C   0  0  0  0  0  0  0  0  0  0  0  0
   -5.2198    5.3318  -18.3826 C   0  0  0  0  0  0  0  0  0  0  0  0
   -5.4371    5.4215  -19.8694 C   0  0  0  0  0  0  0  0  0  0  0  0
   -5.9485    6.7111  -20.1700 O   0  0  0  0  0  0  0  0  0  0  0  0
   -3.9534    5.6353  -17.8084 C   0  0  0  0  0  0  0  0  0  0  0  0
   -2.8124    6.1417  -18.6879 C   0  0  0  0  0  0  0  0  0  0  0  0
   -1.8719    5.0097  -19.1399 C   0  0  0  0  0  0  0  0  0  0  0  0
   -0.4569    5.5143  -19.4304 C   0  0  0  0  0  0  0  0  0  0  0  0
   -0.5048    6.7985  -20.1196 N   0  0  0  0  0  0  0  0  0  0  0  0
   -1.0721    7.8606  -19.2823 C   0  0  0  0  0  0  0  0  0  0  0  0
   -2.0072    7.3463  -18.1777 C   0  0  0  0  0  0  0  0  0  0  0  0
  1  2  1  0
  2  3  2  0
  3  4  1  0
  4  5  2  0
  5  6  1  0
  6  7  2  0
  6  8  1  0
  8  9  2  0
  8 10  1  0
 11 10  1  1
 11 12  1  0
 12 13  1  0
 13 14  1  0
 14 15  1  0
 15 16  1  0
 16 17  1  0
 17 18  1  0
 18 19  1  0
 19 20  1  0
 15 21  1  0
  5 22  1  0
 22 23  2  0
 23 24  1  0
 23 25  1  0
 25 26  2  0
 26 27  1  0
 27 28  1  0
 28 29  1  0
 27 30  2  0
 30 31  1  0
 31 32  1  0
 32 33  1  0
 33 34  1  0
 34 35  1  0
 35 36  1  0
 30  2  1  0
 36 31  1  0
 26  4  1  0
 21 11  1  0
 20 15  1  0
M  END
>  <smiles>  (449) 
C94114-P104

>  <fragmenstein_outcome>  (449) 
acceptable

>  <inchikey>  (449) 
DWUVLVCGLJUOQS-UHFFFAOYSA-N

>  <fragmenstein_mode>  (449) 
expansion

>  <HIPPO Pose ID>  (449) 
13835

>  <Energy>  (449) 
122.329751

>  <fragmenstein_error>  (449) 


>  <tags>  (449) 
{'openbind_xx01zvns2b_c1_fragmenstein', 'fragmenstein_placed'}

>  <ref_pdb>  (449) 
1

>  <scratch_subdir>  (449) 
/opt/xchem-fragalysis-2/maxwin/BulkDock/SCRATCH/511027/C94114-P104

>  <alias>  (449) 
Cc1nc2c(C(=O)C(=O)C[C@@H]3CCCC4(CCNCC4)C3)cc(Cl)cc2c(CO)c1C1CCNCC1

>  <HIPPO Compound ID>  (449) 
94114

>  <fragmenstein_runtime>  (449) 
6.468066

$$$$
O=Cc1cc(C(=O)C(=O)C[C@@H]2CCCC3(CCNCC3)C2)c2nc3c(c(CO)c2c1)CCCCC3
     RDKit          3D

 35 39  0  0  0  0  0  0  0  0999 V2000
   -9.9551    2.7748  -17.9677 O   0  0  0  0  0  0  0  0  0  0  0  0
   -9.8179    3.9874  -17.8992 C   0  0  0  0  0  0  0  0  0  0  0  0
   -8.6187    4.4734  -17.2390 C   0  0  0  0  0  0  0  0  0  0  0  0
   -8.5503    4.5206  -15.8605 C   0  0  0  0  0  0  0  0  0  0  0  0
   -7.3529    4.9400  -15.2867 C   0  0  0  0  0  0  0  0  0  0  0  0
   -7.3151    5.1641  -13.8366 C   0  0  0  0  0  0  0  0  0  0  0  0
   -7.1970    6.3077  -13.4092 O   0  0  0  0  0  0  0  0  0  0  0  0
   -7.5380    4.0204  -12.8670 C   0  0  0  0  0  0  0  0  0  0  0  0
   -8.2200    4.2264  -11.8707 O   0  0  0  0  0  0  0  0  0  0  0  0
   -6.8577    2.7138  -13.1680 C   0  0  0  0  0  0  0  0  0  0  0  0
   -5.6022    2.4353  -12.3329 C   0  0  2  0  0  0  0  0  0  0  0  0
   -5.9548    1.8860  -10.9413 C   0  0  0  0  0  0  0  0  0  0  0  0
   -4.8151    2.0239   -9.9323 C   0  0  0  0  0  0  0  0  0  0  0  0
   -3.4526    2.0172  -10.6140 C   0  0  0  0  0  0  0  0  0  0  0  0
   -3.2711    3.2237  -11.5859 C   0  0  0  0  0  0  0  0  0  0  0  0
   -2.2548    2.8335  -12.7058 C   0  0  0  0  0  0  0  0  0  0  0  0
   -0.8639    3.4548  -12.5297 C   0  0  0  0  0  0  0  0  0  0  0  0
   -0.4396    3.4301  -11.1405 N   0  0  0  0  0  0  0  0  0  0  0  0
   -1.2939    4.2603  -10.2918 C   0  0  0  0  0  0  0  0  0  0  0  0
   -2.7175    4.4568  -10.8280 C   0  0  0  0  0  0  0  0  0  0  0  0
   -4.6440    3.6251  -12.2124 C   0  0  0  0  0  0  0  0  0  0  0  0
   -6.2228    5.2753  -16.0417 C   0  0  0  0  0  0  0  0  0  0  0  0
   -5.0758    5.5984  -15.4287 N   0  0  0  0  0  0  0  0  0  0  0  0
   -3.9884    5.9977  -16.1303 C   0  0  0  0  0  0  0  0  0  0  0  0
   -4.0002    6.1200  -17.5213 C   0  0  0  0  0  0  0  0  0  0  0  0
   -5.1791    5.6903  -18.1905 C   0  0  0  0  0  0  0  0  0  0  0  0
   -5.2774    5.7128  -19.6971 C   0  0  0  0  0  0  0  0  0  0  0  0
   -5.5332    4.4036  -20.1579 O   0  0  0  0  0  0  0  0  0  0  0  0
   -6.3180    5.2648  -17.4412 C   0  0  0  0  0  0  0  0  0  0  0  0
   -7.5382    4.8520  -18.0252 C   0  0  0  0  0  0  0  0  0  0  0  0
   -2.8288    6.6605  -18.3207 C   0  0  0  0  0  0  0  0  0  0  0  0
   -1.8266    7.5803  -17.6260 C   0  0  0  0  0  0  0  0  0  0  0  0
   -0.8363    6.8506  -16.7301 C   0  0  0  0  0  0  0  0  0  0  0  0
   -1.4738    5.8564  -15.7707 C   0  0  0  0  0  0  0  0  0  0  0  0
   -2.8182    6.3226  -15.2332 C   0  0  0  0  0  0  0  0  0  0  0  0
  1  2  2  0
  2  3  1  0
  3  4  2  0
  4  5  1  0
  5  6  1  0
  6  7  2  0
  6  8  1  0
  8  9  2  0
  8 10  1  0
 11 10  1  1
 11 12  1  0
 12 13  1  0
 13 14  1  0
 14 15  1  0
 15 16  1  0
 16 17  1  0
 17 18  1  0
 18 19  1  0
 19 20  1  0
 15 21  1  0
  5 22  2  0
 22 23  1  0
 23 24  2  0
 24 25  1  0
 25 26  2  0
 26 27  1  0
 27 28  1  0
 26 29  1  0
 29 30  2  0
 25 31  1  0
 31 32  1  0
 32 33  1  0
 33 34  1  0
 34 35  1  0
 30  3  1  0
 21 11  1  0
 29 22  1  0
 20 15  1  0
 35 24  1  0
M  END
>  <smiles>  (450) 
C94116-P104

>  <fragmenstein_outcome>  (450) 
acceptable

>  <inchikey>  (450) 
GCGHOLVODFDZBJ-UHFFFAOYSA-N

>  <fragmenstein_mode>  (450) 
expansion

>  <HIPPO Pose ID>  (450) 
13836

>  <Energy>  (450) 
146.017454

>  <fragmenstein_error>  (450) 


>  <tags>  (450) 
{'openbind_xx01zvns2b_c1_fragmenstein', 'fragmenstein_placed'}

>  <ref_pdb>  (450) 
1

>  <scratch_subdir>  (450) 
/opt/xchem-fragalysis-2/maxwin/BulkDock/SCRATCH/511027/C94116-P104

>  <alias>  (450) 
O=Cc1cc(C(=O)C(=O)C[C@@H]2CCCC3(CCNCC3)C2)c2nc3c(c(CO)c2c1)CCCCC3

>  <HIPPO Compound ID>  (450) 
88637

>  <fragmenstein_runtime>  (450) 
8.41273

$$$$
CNC[C@H](N)NN[C@H](CN)CNC(O)(O)C[C@H](C)N
     RDKit          3D

 19 18  0  0  0  0  0  0  0  0999 V2000
   -5.9453    4.8837  -11.3852 C   0  0  0  0  0  0  0  0  0  0  0  0
   -7.3501    4.9144  -11.0437 N   0  0  0  0  0  0  0  0  0  0  0  0
   -8.1218    6.0348  -11.5920 C   0  0  0  0  0  0  0  0  0  0  0  0
   -8.1307    6.2780  -13.1279 C   0  0  2  0  0  0  0  0  0  0  0  0
   -9.2212    7.1376  -13.5581 N   0  0  0  0  0  0  0  0  0  0  0  0
   -8.2779    5.0667  -13.9267 N   0  0  0  0  0  0  0  0  0  0  0  0
   -7.9969    5.3210  -15.3466 N   0  0  0  0  0  0  0  0  0  0  0  0
   -6.5996    4.9643  -15.7310 C   0  0  2  0  0  0  0  0  0  0  0  0
   -5.5192    5.8373  -15.0220 C   0  0  0  0  0  0  0  0  0  0  0  0
   -4.1155    5.5007  -15.3222 N   0  0  0  0  0  0  0  0  0  0  0  0
   -6.4844    5.1395  -17.2768 C   0  0  0  0  0  0  0  0  0  0  0  0
   -5.1359    4.8067  -17.7600 N   0  0  0  0  0  0  0  0  0  0  0  0
   -4.8431    5.1796  -19.1079 C   0  0  0  0  0  0  0  0  0  0  0  0
   -3.4895    4.8508  -19.2951 O   0  0  0  0  0  0  0  0  0  0  0  0
   -5.5793    4.3263  -19.9262 O   0  0  0  0  0  0  0  0  0  0  0  0
   -5.1052    6.6493  -19.4704 C   0  0  0  0  0  0  0  0  0  0  0  0
   -4.3575    7.1157  -20.7295 C   0  0  2  0  0  0  0  0  0  0  0  0
   -3.0391    7.8118  -20.3868 C   0  0  0  0  0  0  0  0  0  0  0  0
   -5.1986    8.0746  -21.4771 N   0  0  0  0  0  0  0  0  0  0  0  0
  1  2  1  0
  2  3  1  0
  3  4  1  0
  4  5  1  1
  4  6  1  0
  6  7  1  0
  7  8  1  0
  8  9  1  1
  9 10  1  0
  8 11  1  0
 11 12  1  0
 12 13  1  0
 13 14  1  0
 13 15  1  0
 13 16  1  0
 16 17  1  0
 17 18  1  1
 17 19  1  0
M  END
>  <smiles>  (451) 
C94947-P107

>  <fragmenstein_outcome>  (451) 
acceptable

>  <inchikey>  (451) 
GGSKOJSPSGGAGI-UHFFFAOYSA-N

>  <fragmenstein_mode>  (451) 
expansion

>  <HIPPO Pose ID>  (451) 
14502

>  <Energy>  (451) 
-25.472613

>  <fragmenstein_error>  (451) 


>  <tags>  (451) 
{'openbind_xx01zvns2b_c1_fragmenstein', 'fragmenstein_placed'}

>  <ref_pdb>  (451) 
1

>  <scratch_subdir>  (451) 
/opt/xchem-fragalysis-2/maxwin/BulkDock/SCRATCH/511027/C94947-P107

>  <alias>  (451) 
CNC[C@H](N)NN[C@H](CN)CNC(O)(O)C[C@H](C)N

>  <HIPPO Compound ID>  (451) 
97013

>  <fragmenstein_runtime>  (451) 
2.392309

$$$$
CN(COc1n[nH]c2c(NC(=O)OCc3ccccc3)cc(Cl)cc12)Nc1cccc(CCN)c1
     RDKit          3D

 35 38  0  0  0  0  0  0  0  0999 V2000
   -3.0135    8.5828  -19.8606 C   0  0  0  0  0  0  0  0  0  0  0  0
   -2.4614    7.3295  -19.3541 N   0  0  0  0  0  0  0  0  0  0  0  0
   -3.4375    6.2225  -19.4583 C   0  0  0  0  0  0  0  0  0  0  0  0
   -4.7491    6.5264  -18.9683 O   0  0  0  0  0  0  0  0  0  0  0  0
   -5.0412    5.9420  -17.7941 C   0  0  0  0  0  0  0  0  0  0  0  0
   -4.2248    6.1432  -16.7569 N   0  0  0  0  0  0  0  0  0  0  0  0
   -4.8830    5.5562  -15.7447 N   0  0  0  0  0  0  0  0  0  0  0  0
   -6.1196    5.0761  -16.0803 C   0  0  0  0  0  0  0  0  0  0  0  0
   -7.0979    4.4403  -15.3185 C   0  0  0  0  0  0  0  0  0  0  0  0
   -6.9338    4.3080  -13.9467 N   0  0  0  0  0  0  0  0  0  0  0  0
   -7.4327    3.2353  -12.9896 C   0  0  0  0  0  0  0  0  0  0  0  0
   -7.9974    2.2457  -13.1985 O   0  0  0  0  0  0  0  0  0  0  0  0
   -7.1178    3.7068  -11.7562 O   0  0  0  0  0  0  0  0  0  0  0  0
   -7.6974    2.9759  -10.6639 C   0  0  0  0  0  0  0  0  0  0  0  0
   -7.8723    3.8814   -9.4632 C   0  0  0  0  0  0  0  0  0  0  0  0
   -8.6915    3.4513   -8.4096 C   0  0  0  0  0  0  0  0  0  0  0  0
   -8.8397    4.2262   -7.2570 C   0  0  0  0  0  0  0  0  0  0  0  0
   -8.1848    5.4501   -7.1489 C   0  0  0  0  0  0  0  0  0  0  0  0
   -7.3716    5.8930   -8.1887 C   0  0  0  0  0  0  0  0  0  0  0  0
   -7.2077    5.1093   -9.3337 C   0  0  0  0  0  0  0  0  0  0  0  0
   -8.2481    4.0048  -15.9875 C   0  0  0  0  0  0  0  0  0  0  0  0
   -8.3979    4.2173  -17.3610 C   0  0  0  0  0  0  0  0  0  0  0  0
   -9.8642    3.7710  -18.1553 Cl  0  0  0  0  0  0  0  0  0  0  0  0
   -7.3914    4.8347  -18.1098 C   0  0  0  0  0  0  0  0  0  0  0  0
   -6.2331    5.2731  -17.4512 C   0  0  0  0  0  0  0  0  0  0  0  0
   -2.0815    7.5173  -17.9982 N   0  0  0  0  0  0  0  0  0  0  0  0
   -0.7901    7.0757  -17.6104 C   0  0  0  0  0  0  0  0  0  0  0  0
   -0.5261    6.8481  -16.2539 C   0  0  0  0  0  0  0  0  0  0  0  0
    0.7507    6.4825  -15.8217 C   0  0  0  0  0  0  0  0  0  0  0  0
    1.7935    6.3702  -16.7397 C   0  0  0  0  0  0  0  0  0  0  0  0
    1.5684    6.6305  -18.0960 C   0  0  0  0  0  0  0  0  0  0  0  0
    2.6990    6.5654  -19.0947 C   0  0  0  0  0  0  0  0  0  0  0  0
    3.2023    7.9429  -19.5537 C   0  0  0  0  0  0  0  0  0  0  0  0
    3.7841    8.7418  -18.4728 N   0  0  0  0  0  0  0  0  0  0  0  0
    0.2764    6.9872  -18.5162 C   0  0  0  0  0  0  0  0  0  0  0  0
  1  2  1  0
  2  3  1  0
  3  4  1  0
  4  5  1  0
  5  6  2  0
  6  7  1  0
  7  8  1  0
  8  9  2  0
  9 10  1  0
 10 11  1  0
 11 12  2  0
 11 13  1  0
 13 14  1  0
 14 15  1  0
 15 16  2  0
 16 17  1  0
 17 18  2  0
 18 19  1  0
 19 20  2  0
  9 21  1  0
 21 22  2  0
 22 23  1  0
 22 24  1  0
 24 25  2  0
  2 26  1  0
 26 27  1  0
 27 28  2  0
 28 29  1  0
 29 30  2  0
 30 31  1  0
 31 32  1  0
 32 33  1  0
 33 34  1  0
 31 35  2  0
 25  5  1  0
 35 27  1  0
 25  8  1  0
 20 15  1  0
M  END
>  <smiles>  (452) 
C96593-P113

>  <fragmenstein_outcome>  (452) 
acceptable

>  <inchikey>  (452) 
FNUMFASFOLGLTD-UHFFFAOYSA-N

>  <fragmenstein_mode>  (452) 
expansion

>  <HIPPO Pose ID>  (452) 
15434

>  <Energy>  (452) 
49.157147

>  <fragmenstein_error>  (452) 


>  <tags>  (452) 
{'openbind_xx01zvns2b_c1_fragmenstein', 'fragmenstein_placed'}

>  <ref_pdb>  (452) 
1

>  <scratch_subdir>  (452) 
/opt/xchem-fragalysis-2/maxwin/BulkDock/SCRATCH/511027/C96593-P113

>  <alias>  (452) 
CN(COc1n[nH]c2c(NC(=O)OCc3ccccc3)cc(Cl)cc12)Nc1cccc(CCN)c1

>  <HIPPO Compound ID>  (452) 
86057

>  <fragmenstein_runtime>  (452) 
3.685362

$$$$
Nn1cc2ccc(NC(=O)c3cc(Cl)c4ncn(C(=O)OCc5ccccc5)c4c3)cc2c1
     RDKit          3D

 33 37  0  0  0  0  0  0  0  0999 V2000
   -9.6367    2.2415   -6.2874 N   0  0  0  0  0  0  0  0  0  0  0  0
   -9.0977    2.8902   -7.4131 N   0  0  0  0  0  0  0  0  0  0  0  0
   -8.7179    4.2082   -7.4218 C   0  0  0  0  0  0  0  0  0  0  0  0
   -8.3872    4.5061   -8.7194 C   0  0  0  0  0  0  0  0  0  0  0  0
   -8.0073    5.7440   -9.2055 C   0  0  0  0  0  0  0  0  0  0  0  0
   -7.7949    5.6767  -10.6044 C   0  0  0  0  0  0  0  0  0  0  0  0
   -7.9430    4.4867  -11.4064 C   0  0  0  0  0  0  0  0  0  0  0  0
   -7.6896    4.5549  -12.7818 N   0  0  0  0  0  0  0  0  0  0  0  0
   -7.1324    5.7118  -13.6447 C   0  0  0  0  0  0  0  0  0  0  0  0
   -6.8703    6.8133  -13.3565 O   0  0  0  0  0  0  0  0  0  0  0  0
   -6.9342    5.3106  -15.0616 C   0  0  0  0  0  0  0  0  0  0  0  0
   -7.9633    4.7052  -15.7809 C   0  0  0  0  0  0  0  0  0  0  0  0
   -7.7914    4.4967  -17.1480 C   0  0  0  0  0  0  0  0  0  0  0  0
   -9.0184    3.8227  -18.1126 Cl  0  0  0  0  0  0  0  0  0  0  0  0
   -6.6089    4.8722  -17.8100 C   0  0  0  0  0  0  0  0  0  0  0  0
   -6.2322    4.7688  -19.1225 N   0  0  0  0  0  0  0  0  0  0  0  0
   -5.0475    5.3195  -19.1979 C   0  0  0  0  0  0  0  0  0  0  0  0
   -4.5851    5.7511  -17.9756 N   0  0  0  0  0  0  0  0  0  0  0  0
   -3.3521    6.3637  -17.7268 C   0  0  0  0  0  0  0  0  0  0  0  0
   -3.0117    6.7096  -16.6070 O   0  0  0  0  0  0  0  0  0  0  0  0
   -2.6636    6.5076  -18.8830 O   0  0  0  0  0  0  0  0  0  0  0  0
   -1.4093    7.1747  -18.7280 C   0  0  0  0  0  0  0  0  0  0  0  0
   -0.8625    7.4047  -20.1107 C   0  0  0  0  0  0  0  0  0  0  0  0
   -1.1970    8.5607  -20.8297 C   0  0  0  0  0  0  0  0  0  0  0  0
   -0.7160    8.7509  -22.1266 C   0  0  0  0  0  0  0  0  0  0  0  0
    0.0954    7.7852  -22.7197 C   0  0  0  0  0  0  0  0  0  0  0  0
    0.4249    6.6280  -22.0176 C   0  0  0  0  0  0  0  0  0  0  0  0
   -0.0537    6.4376  -20.7207 C   0  0  0  0  0  0  0  0  0  0  0  0
   -5.5958    5.4727  -17.0612 C   0  0  0  0  0  0  0  0  0  0  0  0
   -5.7331    5.7042  -15.6828 C   0  0  0  0  0  0  0  0  0  0  0  0
   -8.3389    3.2352  -10.8731 C   0  0  0  0  0  0  0  0  0  0  0  0
   -8.5496    3.3301   -9.5002 C   0  0  0  0  0  0  0  0  0  0  0  0
   -8.9832    2.3369   -8.6595 C   0  0  0  0  0  0  0  0  0  0  0  0
  1  2  1  0
  2  3  1  0
  3  4  2  0
  4  5  1  0
  5  6  2  0
  6  7  1  0
  7  8  1  0
  8  9  1  0
  9 10  2  0
  9 11  1  0
 11 12  2  0
 12 13  1  0
 13 14  1  0
 13 15  2  0
 15 16  1  0
 16 17  2  0
 17 18  1  0
 18 19  1  0
 19 20  2  0
 19 21  1  0
 21 22  1  0
 22 23  1  0
 23 24  2  0
 24 25  1  0
 25 26  2  0
 26 27  1  0
 27 28  2  0
 18 29  1  0
 29 30  2  0
  7 31  2  0
 31 32  1  0
 32 33  2  0
 33  2  1  0
 32  4  1  0
 30 11  1  0
 29 15  1  0
 28 23  1  0
M  END
>  <smiles>  (453) 
C96986-P115

>  <fragmenstein_outcome>  (453) 
acceptable

>  <inchikey>  (453) 
UHJURJWFJLAERG-UHFFFAOYSA-N

>  <fragmenstein_mode>  (453) 
expansion

>  <HIPPO Pose ID>  (453) 
15724

>  <Energy>  (453) 
51.535549

>  <fragmenstein_error>  (453) 


>  <tags>  (453) 
{'openbind_xx01zvns2b_c1_fragmenstein', 'fragmenstein_placed'}

>  <ref_pdb>  (453) 
1

>  <scratch_subdir>  (453) 
/opt/xchem-fragalysis-2/maxwin/BulkDock/SCRATCH/511027/C96986-P115

>  <alias>  (453) 
Nn1cc2ccc(NC(=O)c3cc(Cl)c4ncn(C(=O)OCc5ccccc5)c4c3)cc2c1

>  <HIPPO Compound ID>  (453) 
96986

>  <fragmenstein_runtime>  (453) 
3.957967

$$$$
CCCC[C@H]1CO[C@](O)(C2=C3C(C(=O)Nc4ccc5cn(N)cc5c4)=CC(Cl)=C3N=N2)[C@H](CCNC)C1
     RDKit          3D

 37 41  0  0  0  0  0  0  0  0999 V2000
    1.6713    6.0735  -12.3290 C   0  0  0  0  0  0  0  0  0  0  0  0
    0.7747    6.8108  -11.3456 C   0  0  0  0  0  0  0  0  0  0  0  0
   -0.6959    6.3905  -11.4252 C   0  0  0  0  0  0  0  0  0  0  0  0
   -1.5859    7.3048  -12.2792 C   0  0  0  0  0  0  0  0  0  0  0  0
   -1.2615    7.3785  -13.7842 C   0  0  1  0  0  0  0  0  0  0  0  0
   -1.3057    6.0271  -14.5191 C   0  0  0  0  0  0  0  0  0  0  0  0
   -2.3175    5.9648  -15.5279 O   0  0  0  0  0  0  0  0  0  0  0  0
   -3.6149    6.3414  -15.0450 C   0  0  2  0  0  0  0  0  0  0  0  0
   -3.8397    5.6458  -13.8126 O   0  0  0  0  0  0  0  0  0  0  0  0
   -4.6624    5.8464  -16.0137 C   0  0  0  0  0  0  0  0  0  0  0  0
   -5.8973    5.4011  -15.7833 C   0  0  0  0  0  0  0  0  0  0  0  0
   -6.9134    5.1383  -14.8065 C   0  0  0  0  0  0  0  0  0  0  0  0
   -6.8595    5.5146  -13.3737 C   0  0  0  0  0  0  0  0  0  0  0  0
   -6.3130    6.5471  -13.0945 O   0  0  0  0  0  0  0  0  0  0  0  0
   -7.4957    4.5332  -12.5404 N   0  0  0  0  0  0  0  0  0  0  0  0
   -7.7538    4.5239  -11.1631 C   0  0  0  0  0  0  0  0  0  0  0  0
   -7.4823    5.6972  -10.3646 C   0  0  0  0  0  0  0  0  0  0  0  0
   -7.7285    5.8051   -8.9718 C   0  0  0  0  0  0  0  0  0  0  0  0
   -8.2580    4.6207   -8.4867 C   0  0  0  0  0  0  0  0  0  0  0  0
   -8.6486    4.3697   -7.1963 C   0  0  0  0  0  0  0  0  0  0  0  0
   -9.1397    3.0881   -7.1803 N   0  0  0  0  0  0  0  0  0  0  0  0
   -9.7494    2.5069   -6.0521 N   0  0  0  0  0  0  0  0  0  0  0  0
   -9.0567    2.5105   -8.4207 C   0  0  0  0  0  0  0  0  0  0  0  0
   -8.5241    3.4580   -9.2599 C   0  0  0  0  0  0  0  0  0  0  0  0
   -8.2987    3.3294  -10.6267 C   0  0  0  0  0  0  0  0  0  0  0  0
   -7.9626    4.6468  -15.5063 C   0  0  0  0  0  0  0  0  0  0  0  0
   -7.6148    4.5747  -16.9298 C   0  0  0  0  0  0  0  0  0  0  0  0
   -8.6754    4.0043  -18.1086 Cl  0  0  0  0  0  0  0  0  0  0  0  0
   -6.3771    5.0397  -17.0741 C   0  0  0  0  0  0  0  0  0  0  0  0
   -5.4138    5.2882  -17.9977 N   0  0  0  0  0  0  0  0  0  0  0  0
   -4.3933    5.7528  -17.3831 N   0  0  0  0  0  0  0  0  0  0  0  0
   -3.5941    7.8894  -14.7870 C   0  0  2  0  0  0  0  0  0  0  0  0
   -4.2810    8.7771  -15.8633 C   0  0  0  0  0  0  0  0  0  0  0  0
   -3.5163    8.9545  -17.1827 C   0  0  0  0  0  0  0  0  0  0  0  0
   -4.3337    9.6230  -18.2062 N   0  0  0  0  0  0  0  0  0  0  0  0
   -5.1512    8.6597  -18.9382 C   0  0  0  0  0  0  0  0  0  0  0  0
   -2.1577    8.3962  -14.5014 C   0  0  0  0  0  0  0  0  0  0  0  0
  1  2  1  0
  2  3  1  0
  3  4  1  0
  5  4  1  1
  5  6  1  0
  6  7  1  0
  7  8  1  0
  8  9  1  1
  8 10  1  0
 10 11  2  0
 11 12  1  0
 12 13  1  0
 13 14  2  0
 13 15  1  0
 15 16  1  0
 16 17  1  0
 17 18  2  0
 18 19  1  0
 19 20  2  0
 20 21  1  0
 21 22  1  0
 21 23  1  0
 23 24  2  0
 24 25  1  0
 12 26  2  0
 26 27  1  0
 27 28  1  0
 27 29  2  0
 29 30  1  0
 30 31  2  0
  8 32  1  0
 32 33  1  6
 33 34  1  0
 34 35  1  0
 35 36  1  0
 32 37  1  0
 37  5  1  0
 31 10  1  0
 29 11  1  0
 25 16  2  0
 24 19  1  0
M  END
>  <smiles>  (454) 
C97021-P115

>  <fragmenstein_outcome>  (454) 
acceptable

>  <inchikey>  (454) 
SMMNYTQFIITURC-UHFFFAOYSA-N

>  <fragmenstein_mode>  (454) 
expansion

>  <HIPPO Pose ID>  (454) 
15754

>  <Energy>  (454) 
47.222592

>  <fragmenstein_error>  (454) 


>  <tags>  (454) 
{'openbind_xx01zvns2b_c1_fragmenstein', 'fragmenstein_placed'}

>  <ref_pdb>  (454) 
1

>  <scratch_subdir>  (454) 
/opt/xchem-fragalysis-2/maxwin/BulkDock/SCRATCH/511027/C97021-P115

>  <alias>  (454) 
CCCC[C@H]1CO[C@](O)(C2=C3C(C(=O)Nc4ccc5cn(N)cc5c4)=CC(Cl)=C3N=N2)[C@H](CCNC)C1

>  <HIPPO Compound ID>  (454) 
105521

>  <fragmenstein_runtime>  (454) 
9.875699

$$$$
C[C@H](N)c1ccc(NC(=O)c2cc(Cl)cc(N3N[C@@](C)(CO)N(Cc4ccccc4)C3=O)c2)cc1
     RDKit          3D

 35 38  0  0  0  0  0  0  0  0999 V2000
   -7.8840    4.7214   -6.3351 C   0  0  0  0  0  0  0  0  0  0  0  0
   -8.7105    3.8405   -7.2802 C   0  0  2  0  0  0  0  0  0  0  0  0
   -8.5919    2.4701   -6.7841 N   0  0  0  0  0  0  0  0  0  0  0  0
   -8.3649    3.9745   -8.7605 C   0  0  0  0  0  0  0  0  0  0  0  0
   -7.6950    5.0948   -9.2812 C   0  0  0  0  0  0  0  0  0  0  0  0
   -7.4162    5.2179  -10.6533 C   0  0  0  0  0  0  0  0  0  0  0  0
   -7.8145    4.2290  -11.5429 C   0  0  0  0  0  0  0  0  0  0  0  0
   -7.5923    4.3214  -12.9174 N   0  0  0  0  0  0  0  0  0  0  0  0
   -6.7245    5.3157  -13.7332 C   0  0  0  0  0  0  0  0  0  0  0  0
   -6.1235    6.2575  -13.3874 O   0  0  0  0  0  0  0  0  0  0  0  0
   -6.7804    5.0306  -15.2049 C   0  0  0  0  0  0  0  0  0  0  0  0
   -7.9740    4.6076  -15.7961 C   0  0  0  0  0  0  0  0  0  0  0  0
   -8.0414    4.4973  -17.1791 C   0  0  0  0  0  0  0  0  0  0  0  0
   -9.4927    3.9672  -17.9106 Cl  0  0  0  0  0  0  0  0  0  0  0  0
   -6.9651    4.8530  -17.9822 C   0  0  0  0  0  0  0  0  0  0  0  0
   -5.7675    5.2943  -17.4157 C   0  0  0  0  0  0  0  0  0  0  0  0
   -4.7157    5.7185  -18.2661 N   0  0  0  0  0  0  0  0  0  0  0  0
   -3.3496    5.7233  -17.8882 N   0  0  0  0  0  0  0  0  0  0  0  0
   -2.6021    6.0718  -19.1396 C   0  0  1  0  0  0  0  0  0  0  0  0
   -1.4822    7.0513  -18.7993 C   0  0  0  0  0  0  0  0  0  0  0  0
   -1.9988    4.7893  -19.7989 C   0  0  0  0  0  0  0  0  0  0  0  0
   -2.8174    4.2796  -20.8576 O   0  0  0  0  0  0  0  0  0  0  0  0
   -3.6182    6.6953  -19.9608 N   0  0  0  0  0  0  0  0  0  0  0  0
   -3.3851    7.1323  -21.3292 C   0  0  0  0  0  0  0  0  0  0  0  0
   -3.8297    8.5520  -21.5861 C   0  0  0  0  0  0  0  0  0  0  0  0
   -4.9177    8.8051  -22.4347 C   0  0  0  0  0  0  0  0  0  0  0  0
   -5.3066   10.1148  -22.7192 C   0  0  0  0  0  0  0  0  0  0  0  0
   -4.6259   11.1855  -22.1443 C   0  0  0  0  0  0  0  0  0  0  0  0
   -3.5526   10.9475  -21.2882 C   0  0  0  0  0  0  0  0  0  0  0  0
   -3.1538    9.6380  -21.0125 C   0  0  0  0  0  0  0  0  0  0  0  0
   -4.8892    6.3479  -19.5100 C   0  0  0  0  0  0  0  0  0  0  0  0
   -5.9203    6.6009  -20.1019 O   0  0  0  0  0  0  0  0  0  0  0  0
   -5.6701    5.3466  -16.0149 C   0  0  0  0  0  0  0  0  0  0  0  0
   -8.5040    3.1248  -11.0515 C   0  0  0  0  0  0  0  0  0  0  0  0
   -8.7793    3.0012   -9.6838 C   0  0  0  0  0  0  0  0  0  0  0  0
  2  1  1  1
  2  3  1  0
  2  4  1  0
  4  5  2  0
  5  6  1  0
  6  7  2  0
  7  8  1  0
  8  9  1  0
  9 10  2  0
  9 11  1  0
 11 12  2  0
 12 13  1  0
 13 14  1  0
 13 15  2  0
 15 16  1  0
 16 17  1  0
 17 18  1  0
 18 19  1  0
 19 20  1  1
 19 21  1  0
 21 22  1  0
 19 23  1  0
 23 24  1  0
 24 25  1  0
 25 26  2  0
 26 27  1  0
 27 28  2  0
 28 29  1  0
 29 30  2  0
 23 31  1  0
 31 32  2  0
 16 33  2  0
  7 34  1  0
 34 35  2  0
 35  4  1  0
 33 11  1  0
 31 17  1  0
 30 25  1  0
M  END
>  <smiles>  (455) 
C97079-P115

>  <fragmenstein_outcome>  (455) 
acceptable

>  <inchikey>  (455) 
VDDJYFFDQXQXCM-UHFFFAOYSA-M

>  <fragmenstein_mode>  (455) 
expansion

>  <HIPPO Pose ID>  (455) 
15795

>  <Energy>  (455) 
66.762384

>  <fragmenstein_error>  (455) 


>  <tags>  (455) 
{'openbind_xx01zvns2b_c1_fragmenstein', 'fragmenstein_placed'}

>  <ref_pdb>  (455) 
1

>  <scratch_subdir>  (455) 
/opt/xchem-fragalysis-2/maxwin/BulkDock/SCRATCH/511027/C97079-P115

>  <alias>  (455) 
C[C@H](N)c1ccc(NC(=O)c2cc(Cl)cc(N3N[C@@](C)(CO)N(Cc4ccccc4)C3=O)c2)cc1

>  <HIPPO Compound ID>  (455) 
93148

>  <fragmenstein_runtime>  (455) 
12.817168

$$$$
C[C@H]1NC[C@@H]2C[C@H](NC(=O)c3cc(Cl)cc4nn(OCOCc5ccccc5)cc34)CC[C@H]21
     RDKit          3D

 33 37  0  0  0  0  0  0  0  0999 V2000
   -9.1098    4.8122   -6.2217 C   0  0  0  0  0  0  0  0  0  0  0  0
   -8.3232    3.7045   -6.8982 C   0  0  1  0  0  0  0  0  0  0  0  0
   -9.1540    2.4861   -6.9848 N   0  0  0  0  0  0  0  0  0  0  0  0
   -8.9268    1.8832   -8.3120 C   0  0  0  0  0  0  0  0  0  0  0  0
   -8.7922    3.1162   -9.1745 C   0  0  2  0  0  0  0  0  0  0  0  0
   -8.3000    2.9961  -10.6099 C   0  0  0  0  0  0  0  0  0  0  0  0
   -8.1923    4.4143  -11.2055 C   0  0  2  0  0  0  0  0  0  0  0  0
   -7.8204    4.4001  -12.6058 N   0  0  0  0  0  0  0  0  0  0  0  0
   -7.2679    5.5197  -13.5045 C   0  0  0  0  0  0  0  0  0  0  0  0
   -6.9514    6.6099  -13.2441 O   0  0  0  0  0  0  0  0  0  0  0  0
   -7.2432    5.1154  -14.9199 C   0  0  0  0  0  0  0  0  0  0  0  0
   -8.3743    4.5939  -15.5821 C   0  0  0  0  0  0  0  0  0  0  0  0
   -8.4225    4.4007  -16.9961 C   0  0  0  0  0  0  0  0  0  0  0  0
   -9.9167    3.9635  -17.7090 Cl  0  0  0  0  0  0  0  0  0  0  0  0
   -7.3650    4.6653  -17.8779 C   0  0  0  0  0  0  0  0  0  0  0  0
   -6.2489    5.2039  -17.2405 C   0  0  0  0  0  0  0  0  0  0  0  0
   -5.1058    5.6375  -17.7808 N   0  0  0  0  0  0  0  0  0  0  0  0
   -4.3876    6.0631  -16.7426 N   0  0  0  0  0  0  0  0  0  0  0  0
   -3.1065    6.5208  -16.9789 O   0  0  0  0  0  0  0  0  0  0  0  0
   -2.2362    5.4009  -16.9621 C   0  0  0  0  0  0  0  0  0  0  0  0
   -1.5125    5.2253  -18.1714 O   0  0  0  0  0  0  0  0  0  0  0  0
   -2.2821    4.7314  -19.2588 C   0  0  0  0  0  0  0  0  0  0  0  0
   -2.4672    5.7925  -20.3095 C   0  0  0  0  0  0  0  0  0  0  0  0
   -3.7286    6.0564  -20.8537 C   0  0  0  0  0  0  0  0  0  0  0  0
   -3.8838    7.0072  -21.8647 C   0  0  0  0  0  0  0  0  0  0  0  0
   -2.7791    7.7089  -22.3399 C   0  0  0  0  0  0  0  0  0  0  0  0
   -1.5189    7.4621  -21.8008 C   0  0  0  0  0  0  0  0  0  0  0  0
   -1.3654    6.5089  -20.7923 C   0  0  0  0  0  0  0  0  0  0  0  0
   -5.0019    5.9903  -15.5354 C   0  0  0  0  0  0  0  0  0  0  0  0
   -6.2138    5.4128  -15.8119 C   0  0  0  0  0  0  0  0  0  0  0  0
   -7.3244    5.3491  -10.3478 C   0  0  0  0  0  0  0  0  0  0  0  0
   -7.7831    5.3885   -8.8811 C   0  0  0  0  0  0  0  0  0  0  0  0
   -7.8575    3.9725   -8.3361 C   0  0  1  0  0  0  0  0  0  0  0  0
  2  1  1  6
  2  3  1  0
  3  4  1  0
  5  4  1  1
  5  6  1  0
  6  7  1  0
  7  8  1  6
  8  9  1  0
  9 10  2  0
  9 11  1  0
 11 12  2  0
 12 13  1  0
 13 14  1  0
 13 15  2  0
 15 16  1  0
 16 17  2  0
 17 18  1  0
 18 19  1  0
 19 20  1  0
 20 21  1  0
 21 22  1  0
 22 23  1  0
 23 24  2  0
 24 25  1  0
 25 26  2  0
 26 27  1  0
 27 28  2  0
 18 29  1  0
 29 30  2  0
  7 31  1  0
 31 32  1  0
 33 32  1  6
 33  2  1  0
 33  5  1  0
 30 11  1  0
 30 16  1  0
 28 23  1  0
M  END
>  <smiles>  (456) 
C97220-P115

>  <fragmenstein_outcome>  (456) 
acceptable

>  <inchikey>  (456) 
QOILALJVTBXMQM-UHFFFAOYSA-N

>  <fragmenstein_mode>  (456) 
expansion

>  <HIPPO Pose ID>  (456) 
15874

>  <Energy>  (456) 
19.079928

>  <fragmenstein_error>  (456) 


>  <tags>  (456) 
{'openbind_xx01zvns2b_c1_fragmenstein', 'fragmenstein_placed'}

>  <ref_pdb>  (456) 
1

>  <scratch_subdir>  (456) 
/opt/xchem-fragalysis-2/maxwin/BulkDock/SCRATCH/511027/C97220-P115

>  <alias>  (456) 
C[C@H]1NC[C@@H]2C[C@H](NC(=O)c3cc(Cl)cc4nn(OCOCc5ccccc5)cc34)CC[C@H]21

>  <HIPPO Compound ID>  (456) 
97220

>  <fragmenstein_runtime>  (456) 
18.204979

$$$$
CNCc1ccc(NC(=O)c2cc(Cl)c3[nH]cc([C@@]4(O)CN[C@@H]4Cc4ccccc4)c3c2)cc1
     RDKit          3D

 34 38  0  0  0  0  0  0  0  0999 V2000
   -9.3789    4.2965   -4.9450 C   0  0  0  0  0  0  0  0  0  0  0  0
   -9.0977    4.6778   -6.3240 N   0  0  0  0  0  0  0  0  0  0  0  0
   -8.9054    3.4674   -7.1422 C   0  0  0  0  0  0  0  0  0  0  0  0
   -8.6250    3.7466   -8.6053 C   0  0  0  0  0  0  0  0  0  0  0  0
   -8.8395    2.7241   -9.5418 C   0  0  0  0  0  0  0  0  0  0  0  0
   -8.5743    2.9224  -10.9020 C   0  0  0  0  0  0  0  0  0  0  0  0
   -8.0795    4.1431  -11.3533 C   0  0  0  0  0  0  0  0  0  0  0  0
   -7.8275    4.3092  -12.7153 N   0  0  0  0  0  0  0  0  0  0  0  0
   -7.1647    5.4801  -13.4792 C   0  0  0  0  0  0  0  0  0  0  0  0
   -6.7958    6.5213  -13.0975 O   0  0  0  0  0  0  0  0  0  0  0  0
   -7.0253    5.1981  -14.9373 C   0  0  0  0  0  0  0  0  0  0  0  0
   -8.0689    4.6402  -15.6757 C   0  0  0  0  0  0  0  0  0  0  0  0
   -7.9565    4.5274  -17.0627 C   0  0  0  0  0  0  0  0  0  0  0  0
   -9.2449    3.8709  -17.9826 Cl  0  0  0  0  0  0  0  0  0  0  0  0
   -6.7934    4.9918  -17.6868 C   0  0  0  0  0  0  0  0  0  0  0  0
   -6.4694    5.0652  -19.0240 N   0  0  0  0  0  0  0  0  0  0  0  0
   -5.2092    5.5788  -19.1806 C   0  0  0  0  0  0  0  0  0  0  0  0
   -4.7269    5.8750  -17.9295 C   0  0  0  0  0  0  0  0  0  0  0  0
   -3.3543    6.5655  -17.5996 C   0  0  1  0  0  0  0  0  0  0  0  0
   -3.5020    7.9906  -17.3393 O   0  0  0  0  0  0  0  0  0  0  0  0
   -2.5427    5.7860  -16.5145 C   0  0  0  0  0  0  0  0  0  0  0  0
   -1.3053    6.0206  -17.2863 N   0  0  0  0  0  0  0  0  0  0  0  0
   -2.1431    6.1611  -18.5266 C   0  0  2  0  0  0  0  0  0  0  0  0
   -1.5243    7.1915  -19.4748 C   0  0  0  0  0  0  0  0  0  0  0  0
   -2.2972    7.2810  -20.7672 C   0  0  0  0  0  0  0  0  0  0  0  0
   -1.9178    6.5102  -21.8756 C   0  0  0  0  0  0  0  0  0  0  0  0
   -2.6294    6.5953  -23.0727 C   0  0  0  0  0  0  0  0  0  0  0  0
   -3.7366    7.4364  -23.1671 C   0  0  0  0  0  0  0  0  0  0  0  0
   -4.1223    8.2067  -22.0716 C   0  0  0  0  0  0  0  0  0  0  0  0
   -3.4023    8.1348  -20.8784 C   0  0  0  0  0  0  0  0  0  0  0  0
   -5.7230    5.5285  -16.9717 C   0  0  0  0  0  0  0  0  0  0  0  0
   -5.8480    5.6381  -15.5722 C   0  0  0  0  0  0  0  0  0  0  0  0
   -7.8467    5.1614  -10.4333 C   0  0  0  0  0  0  0  0  0  0  0  0
   -8.1069    4.9613   -9.0703 C   0  0  0  0  0  0  0  0  0  0  0  0
  1  2  1  0
  2  3  1  0
  3  4  1  0
  4  5  2  0
  5  6  1  0
  6  7  2  0
  7  8  1  0
  8  9  1  0
  9 10  2  0
  9 11  1  0
 11 12  2  0
 12 13  1  0
 13 14  1  0
 13 15  2  0
 15 16  1  0
 16 17  1  0
 17 18  2  0
 18 19  1  0
 19 20  1  1
 19 21  1  0
 21 22  1  0
 22 23  1  0
 23 24  1  6
 24 25  1  0
 25 26  2  0
 26 27  1  0
 27 28  2  0
 28 29  1  0
 29 30  2  0
 18 31  1  0
 31 32  2  0
  7 33  1  0
 33 34  2  0
 34  4  1  0
 32 11  1  0
 31 15  1  0
 23 19  1  0
 30 25  1  0
M  END
>  <smiles>  (457) 
C97271-P116

>  <fragmenstein_outcome>  (457) 
acceptable

>  <inchikey>  (457) 
HRIMQSSJWBMBPH-UHFFFAOYSA-N

>  <fragmenstein_mode>  (457) 
expansion

>  <HIPPO Pose ID>  (457) 
15917

>  <Energy>  (457) 
108.989432

>  <fragmenstein_error>  (457) 


>  <tags>  (457) 
{'openbind_xx01zvns2b_c1_fragmenstein', 'fragmenstein_placed'}

>  <ref_pdb>  (457) 
1

>  <scratch_subdir>  (457) 
/opt/xchem-fragalysis-2/maxwin/BulkDock/SCRATCH/511027/C97271-P116

>  <alias>  (457) 
CNCc1ccc(NC(=O)c2cc(Cl)c3[nH]cc([C@@]4(O)CN[C@@H]4Cc4ccccc4)c3c2)cc1

>  <HIPPO Compound ID>  (457) 
97271

>  <fragmenstein_runtime>  (457) 
5.508787

$$$$
C[C@@H](N)c1ccc(NC(=O)c2cc(Cl)cc3c2cc(O)n3[C@@H]2CN[C@H]2OCc2ccccc2)cc1C#N
     RDKit          3D

 37 41  0  0  0  0  0  0  0  0999 V2000
   -9.7386    4.1472   -6.3187 C   0  0  0  0  0  0  0  0  0  0  0  0
   -8.6884    3.3260   -7.0664 C   0  0  1  0  0  0  0  0  0  0  0  0
   -8.9418    1.9287   -6.7452 N   0  0  0  0  0  0  0  0  0  0  0  0
   -8.5635    3.6048   -8.5661 C   0  0  0  0  0  0  0  0  0  0  0  0
   -8.9945    2.6860   -9.5398 C   0  0  0  0  0  0  0  0  0  0  0  0
   -8.7719    2.9041  -10.9082 C   0  0  0  0  0  0  0  0  0  0  0  0
   -8.1227    4.0494  -11.3511 C   0  0  0  0  0  0  0  0  0  0  0  0
   -7.8747    4.2132  -12.7147 N   0  0  0  0  0  0  0  0  0  0  0  0
   -7.1473    5.3516  -13.4766 C   0  0  0  0  0  0  0  0  0  0  0  0
   -6.7113    6.3650  -13.0886 O   0  0  0  0  0  0  0  0  0  0  0  0
   -7.0577    5.0906  -14.9450 C   0  0  0  0  0  0  0  0  0  0  0  0
   -8.1614    4.6158  -15.6681 C   0  0  0  0  0  0  0  0  0  0  0  0
   -8.0854    4.4960  -17.0518 C   0  0  0  0  0  0  0  0  0  0  0  0
   -9.4314    3.8899  -17.9221 Cl  0  0  0  0  0  0  0  0  0  0  0  0
   -6.9545    4.8878  -17.7652 C   0  0  0  0  0  0  0  0  0  0  0  0
   -5.8549    5.3658  -17.0405 C   0  0  0  0  0  0  0  0  0  0  0  0
   -5.8702    5.4414  -15.6422 C   0  0  0  0  0  0  0  0  0  0  0  0
   -4.5708    5.8808  -15.2495 C   0  0  0  0  0  0  0  0  0  0  0  0
   -3.8134    6.0751  -16.3831 C   0  0  0  0  0  0  0  0  0  0  0  0
   -2.5412    6.4314  -16.5108 O   0  0  0  0  0  0  0  0  0  0  0  0
   -4.6350    5.8583  -17.4653 N   0  0  0  0  0  0  0  0  0  0  0  0
   -4.3823    6.2312  -18.8747 C   0  0  2  0  0  0  0  0  0  0  0  0
   -3.1280    5.6498  -19.5336 C   0  0  0  0  0  0  0  0  0  0  0  0
   -2.9636    6.9616  -20.2203 N   0  0  0  0  0  0  0  0  0  0  0  0
   -3.6620    7.5875  -19.0672 C   0  0  1  0  0  0  0  0  0  0  0  0
   -4.4740    8.7019  -19.4707 O   0  0  0  0  0  0  0  0  0  0  0  0
   -5.0443    9.4285  -18.3831 C   0  0  0  0  0  0  0  0  0  0  0  0
   -5.8984   10.5798  -18.8540 C   0  0  0  0  0  0  0  0  0  0  0  0
   -6.7791   11.1936  -17.9491 C   0  0  0  0  0  0  0  0  0  0  0  0
   -7.5520   12.2892  -18.3377 C   0  0  0  0  0  0  0  0  0  0  0  0
   -7.4393   12.7969  -19.6300 C   0  0  0  0  0  0  0  0  0  0  0  0
   -6.5556   12.2089  -20.5332 C   0  0  0  0  0  0  0  0  0  0  0  0
   -5.7908   11.1057  -20.1482 C   0  0  0  0  0  0  0  0  0  0  0  0
   -7.7157    4.9902  -10.4132 C   0  0  0  0  0  0  0  0  0  0  0  0
   -7.9247    4.7727   -9.0362 C   0  0  0  0  0  0  0  0  0  0  0  0
   -7.4108    5.7569   -8.1275 C   0  0  0  0  0  0  0  0  0  0  0  0
   -6.9778    6.5386   -7.3852 N   0  0  0  0  0  0  0  0  0  0  0  0
  2  1  1  6
  2  3  1  0
  2  4  1  0
  4  5  2  0
  5  6  1  0
  6  7  2  0
  7  8  1  0
  8  9  1  0
  9 10  2  0
  9 11  1  0
 11 12  2  0
 12 13  1  0
 13 14  1  0
 13 15  2  0
 15 16  1  0
 16 17  2  0
 17 18  1  0
 18 19  2  0
 19 20  1  0
 19 21  1  0
 22 21  1  1
 22 23  1  0
 23 24  1  0
 24 25  1  0
 25 26  1  6
 26 27  1  0
 27 28  1  0
 28 29  2  0
 29 30  1  0
 30 31  2  0
 31 32  1  0
 32 33  2  0
  7 34  1  0
 34 35  2  0
 35 36  1  0
 36 37  3  0
 35  4  1  0
 17 11  1  0
 25 22  1  0
 33 28  1  0
 21 16  1  0
M  END
>  <smiles>  (458) 
C97285-P116

>  <fragmenstein_outcome>  (458) 
acceptable

>  <inchikey>  (458) 
RWWXTIUUVCFALL-UHFFFAOYSA-N

>  <fragmenstein_mode>  (458) 
expansion

>  <HIPPO Pose ID>  (458) 
15931

>  <Energy>  (458) 
62.098997

>  <fragmenstein_error>  (458) 


>  <tags>  (458) 
{'openbind_xx01zvns2b_c1_fragmenstein', 'fragmenstein_placed'}

>  <ref_pdb>  (458) 
1

>  <scratch_subdir>  (458) 
/opt/xchem-fragalysis-2/maxwin/BulkDock/SCRATCH/511027/C97285-P116

>  <alias>  (458) 
C[C@@H](N)c1ccc(NC(=O)c2cc(Cl)cc3c2cc(O)n3[C@@H]2CN[C@H]2OCc2ccccc2)cc1C#N

>  <HIPPO Compound ID>  (458) 
77734

>  <fragmenstein_runtime>  (458) 
11.007535

$$$$
C[C@H]1Nc2nc3c(Cl)cc(C(=O)Nc4ccc5c(c4)CNC5)cc3n2C(=O)N1Cc1ccccc1
     RDKit          3D

 35 40  0  0  0  0  0  0  0  0999 V2000
   -2.0327    4.7537  -19.5191 C   0  0  0  0  0  0  0  0  0  0  0  0
   -2.8660    6.0136  -19.7569 C   0  0  1  0  0  0  0  0  0  0  0  0
   -4.2576    5.6901  -19.9412 N   0  0  0  0  0  0  0  0  0  0  0  0
   -5.0371    5.5026  -18.8666 C   0  0  0  0  0  0  0  0  0  0  0  0
   -6.1905    4.8979  -18.8102 N   0  0  0  0  0  0  0  0  0  0  0  0
   -6.5889    4.9842  -17.4972 C   0  0  0  0  0  0  0  0  0  0  0  0
   -7.7564    4.5465  -16.8429 C   0  0  0  0  0  0  0  0  0  0  0  0
   -8.9573    3.8223  -17.8166 Cl  0  0  0  0  0  0  0  0  0  0  0  0
   -7.9353    4.7313  -15.4706 C   0  0  0  0  0  0  0  0  0  0  0  0
   -6.9357    5.3732  -14.7368 C   0  0  0  0  0  0  0  0  0  0  0  0
   -7.1182    5.6750  -13.2888 C   0  0  0  0  0  0  0  0  0  0  0  0
   -6.8660    6.7987  -12.9574 O   0  0  0  0  0  0  0  0  0  0  0  0
   -7.5362    4.5393  -12.5159 N   0  0  0  0  0  0  0  0  0  0  0  0
   -7.8630    4.4217  -11.1631 C   0  0  0  0  0  0  0  0  0  0  0  0
   -7.7794    5.5210  -10.2894 C   0  0  0  0  0  0  0  0  0  0  0  0
   -8.0922    5.3905   -8.9313 C   0  0  0  0  0  0  0  0  0  0  0  0
   -8.5070    4.1552   -8.4742 C   0  0  0  0  0  0  0  0  0  0  0  0
   -8.5988    3.0660   -9.3359 C   0  0  0  0  0  0  0  0  0  0  0  0
   -8.2705    3.1746  -10.6786 C   0  0  0  0  0  0  0  0  0  0  0  0
   -9.0643    1.8768   -8.5607 C   0  0  0  0  0  0  0  0  0  0  0  0
   -9.6013    2.4293   -7.2884 N   0  0  0  0  0  0  0  0  0  0  0  0
   -8.9077    3.7229   -7.1024 C   0  0  0  0  0  0  0  0  0  0  0  0
   -5.7641    5.8499  -15.3557 C   0  0  0  0  0  0  0  0  0  0  0  0
   -5.6173    5.6399  -16.7359 C   0  0  0  0  0  0  0  0  0  0  0  0
   -4.6379    5.9948  -17.6504 N   0  0  0  0  0  0  0  0  0  0  0  0
   -3.4729    6.7449  -17.4655 C   0  0  0  0  0  0  0  0  0  0  0  0
   -3.1959    7.1843  -16.3577 O   0  0  0  0  0  0  0  0  0  0  0  0
   -2.7561    6.9537  -18.6466 N   0  0  0  0  0  0  0  0  0  0  0  0
   -1.5163    7.7135  -18.5033 C   0  0  0  0  0  0  0  0  0  0  0  0
   -1.0701    8.4099  -19.7648 C   0  0  0  0  0  0  0  0  0  0  0  0
   -1.8380    9.4519  -20.3054 C   0  0  0  0  0  0  0  0  0  0  0  0
   -1.4378   10.0892  -21.4802 C   0  0  0  0  0  0  0  0  0  0  0  0
   -0.2674    9.6931  -22.1247 C   0  0  0  0  0  0  0  0  0  0  0  0
    0.5047    8.6606  -21.5953 C   0  0  0  0  0  0  0  0  0  0  0  0
    0.1071    8.0210  -20.4202 C   0  0  0  0  0  0  0  0  0  0  0  0
  2  1  1  1
  2  3  1  0
  3  4  1  0
  4  5  2  0
  5  6  1  0
  6  7  2  0
  7  8  1  0
  7  9  1  0
  9 10  2  0
 10 11  1  0
 11 12  2  0
 11 13  1  0
 13 14  1  0
 14 15  2  0
 15 16  1  0
 16 17  2  0
 17 18  1  0
 18 19  2  0
 18 20  1  0
 20 21  1  0
 21 22  1  0
 10 23  1  0
 23 24  2  0
 24 25  1  0
 25 26  1  0
 26 27  2  0
 26 28  1  0
 28 29  1  0
 29 30  1  0
 30 31  2  0
 31 32  1  0
 32 33  2  0
 33 34  1  0
 34 35  2  0
 28  2  1  0
 35 30  1  0
 25  4  1  0
 24  6  1  0
 19 14  1  0
 22 17  1  0
M  END
>  <smiles>  (459) 
C97408-P116

>  <fragmenstein_outcome>  (459) 
acceptable

>  <inchikey>  (459) 
FSGFWPATPNTNMX-UHFFFAOYSA-N

>  <fragmenstein_mode>  (459) 
expansion

>  <HIPPO Pose ID>  (459) 
16001

>  <Energy>  (459) 
6.27804

>  <fragmenstein_error>  (459) 


>  <tags>  (459) 
{'openbind_xx01zvns2b_c1_fragmenstein', 'fragmenstein_placed'}

>  <ref_pdb>  (459) 
1

>  <scratch_subdir>  (459) 
/opt/xchem-fragalysis-2/maxwin/BulkDock/SCRATCH/511027/C97408-P116

>  <alias>  (459) 
C[C@H]1Nc2nc3c(Cl)cc(C(=O)Nc4ccc5c(c4)CNC5)cc3n2C(=O)N1Cc1ccccc1

>  <HIPPO Compound ID>  (459) 
82636

>  <fragmenstein_runtime>  (459) 
19.557151

$$$$
NCc1cc(Cl)cc(C(=O)N[C@@H]2CCC[C@]3(CNCCN3)C2)c1
     RDKit          3D

 23 25  0  0  0  0  0  0  0  0999 V2000
   -5.7433    6.1587  -19.7119 N   0  0  0  0  0  0  0  0  0  0  0  0
   -5.6587    4.8913  -18.9939 C   0  0  0  0  0  0  0  0  0  0  0  0
   -6.7601    4.7524  -17.9860 C   0  0  0  0  0  0  0  0  0  0  0  0
   -8.0520    4.4181  -18.4083 C   0  0  0  0  0  0  0  0  0  0  0  0
   -9.1018    4.3790  -17.5017 C   0  0  0  0  0  0  0  0  0  0  0  0
  -10.6954    4.1625  -18.0979 Cl  0  0  0  0  0  0  0  0  0  0  0  0
   -8.8785    4.6201  -16.1495 C   0  0  0  0  0  0  0  0  0  0  0  0
   -7.5851    4.9267  -15.7088 C   0  0  0  0  0  0  0  0  0  0  0  0
   -7.3090    5.3729  -14.3120 C   0  0  0  0  0  0  0  0  0  0  0  0
   -6.5398    6.2382  -14.1738 O   0  0  0  0  0  0  0  0  0  0  0  0
   -8.1941    4.6503  -13.2802 N   0  0  0  0  0  0  0  0  0  0  0  0
   -8.3912    4.9034  -11.8699 C   0  0  2  0  0  0  0  0  0  0  0  0
   -8.2933    6.4010  -11.5674 C   0  0  0  0  0  0  0  0  0  0  0  0
   -8.5657    6.7291  -10.1110 C   0  0  0  0  0  0  0  0  0  0  0  0
   -7.7756    5.8556   -9.1636 C   0  0  0  0  0  0  0  0  0  0  0  0
   -7.8154    4.3371   -9.4775 C   0  0  1  0  0  0  0  0  0  0  0  0
   -6.7487    3.6764   -8.5856 C   0  0  0  0  0  0  0  0  0  0  0  0
   -7.0905    3.8254   -7.1514 N   0  0  0  0  0  0  0  0  0  0  0  0
   -8.3493    3.0861   -6.9138 C   0  0  0  0  0  0  0  0  0  0  0  0
   -9.4636    3.6233   -7.7939 C   0  0  0  0  0  0  0  0  0  0  0  0
   -9.1368    3.7061   -9.2292 N   0  0  0  0  0  0  0  0  0  0  0  0
   -7.4590    4.1044  -10.9685 C   0  0  0  0  0  0  0  0  0  0  0  0
   -6.5352    5.0089  -16.6319 C   0  0  0  0  0  0  0  0  0  0  0  0
  1  2  1  0
  2  3  1  0
  3  4  2  0
  4  5  1  0
  5  6  1  0
  5  7  2  0
  7  8  1  0
  8  9  1  0
  9 10  2  0
  9 11  1  0
 12 11  1  6
 12 13  1  0
 13 14  1  0
 14 15  1  0
 16 15  1  6
 16 17  1  0
 17 18  1  0
 18 19  1  0
 19 20  1  0
 20 21  1  0
 16 22  1  0
  8 23  2  0
 23  3  1  0
 22 12  1  0
 21 16  1  0
M  END
>  <smiles>  (460) 
C97593-P125

>  <fragmenstein_outcome>  (460) 
acceptable

>  <inchikey>  (460) 
ALQHLCFXWCGWIZ-UHFFFAOYSA-N

>  <fragmenstein_mode>  (460) 
expansion

>  <HIPPO Pose ID>  (460) 
16123

>  <Energy>  (460) 
95.577906

>  <fragmenstein_error>  (460) 


>  <tags>  (460) 
{'openbind_xx01zvns2b_c1_fragmenstein', 'fragmenstein_placed'}

>  <ref_pdb>  (460) 
1

>  <scratch_subdir>  (460) 
/opt/xchem-fragalysis-2/maxwin/BulkDock/SCRATCH/511027/C97593-P125

>  <alias>  (460) 
NCc1cc(Cl)cc(C(=O)N[C@@H]2CCC[C@]3(CNCCN3)C2)c1

>  <HIPPO Compound ID>  (460) 
79737

>  <fragmenstein_runtime>  (460) 
4.246986

$$$$
NCc1cc(NC(=O)c2cc(Cl)cc3c2cnn3C2(N)CNC2)ccc1F
     RDKit          3D

 27 30  0  0  0  0  0  0  0  0999 V2000
   -8.8651    1.2489   -8.2931 N   0  0  0  0  0  0  0  0  0  0  0  0
   -7.7301    2.1153   -8.5310 C   0  0  0  0  0  0  0  0  0  0  0  0
   -8.1033    3.3336   -9.3124 C   0  0  0  0  0  0  0  0  0  0  0  0
   -8.0923    3.3413  -10.7148 C   0  0  0  0  0  0  0  0  0  0  0  0
   -8.2330    4.5504  -11.3955 C   0  0  0  0  0  0  0  0  0  0  0  0
   -8.1213    4.5732  -12.7789 N   0  0  0  0  0  0  0  0  0  0  0  0
   -8.0212    5.7604  -13.7553 C   0  0  0  0  0  0  0  0  0  0  0  0
   -7.9394    6.9054  -13.5479 O   0  0  0  0  0  0  0  0  0  0  0  0
   -7.9632    5.3106  -15.1511 C   0  0  0  0  0  0  0  0  0  0  0  0
   -9.0867    4.7365  -15.7482 C   0  0  0  0  0  0  0  0  0  0  0  0
   -9.1176    4.5627  -17.1224 C   0  0  0  0  0  0  0  0  0  0  0  0
  -10.5442    4.0156  -17.9017 Cl  0  0  0  0  0  0  0  0  0  0  0  0
   -8.0248    4.9014  -17.9169 C   0  0  0  0  0  0  0  0  0  0  0  0
   -6.8664    5.3924  -17.2890 C   0  0  0  0  0  0  0  0  0  0  0  0
   -6.8254    5.6109  -15.9156 C   0  0  0  0  0  0  0  0  0  0  0  0
   -5.5477    6.1506  -15.6708 C   0  0  0  0  0  0  0  0  0  0  0  0
   -4.8077    6.2378  -16.7747 N   0  0  0  0  0  0  0  0  0  0  0  0
   -5.6236    5.7843  -17.7507 N   0  0  0  0  0  0  0  0  0  0  0  0
   -5.1961    5.6851  -19.1613 C   0  0  0  0  0  0  0  0  0  0  0  0
   -5.8625    4.7005  -20.0304 N   0  0  0  0  0  0  0  0  0  0  0  0
   -5.0843    7.0417  -19.8937 C   0  0  0  0  0  0  0  0  0  0  0  0
   -3.8940    6.4939  -20.6267 N   0  0  0  0  0  0  0  0  0  0  0  0
   -3.6690    5.6270  -19.4178 C   0  0  0  0  0  0  0  0  0  0  0  0
   -8.4325    5.7369  -10.6856 C   0  0  0  0  0  0  0  0  0  0  0  0
   -8.5407    5.7147   -9.2982 C   0  0  0  0  0  0  0  0  0  0  0  0
   -8.3905    4.5135   -8.6249 C   0  0  0  0  0  0  0  0  0  0  0  0
   -8.4834    4.5069   -7.2871 F   0  0  0  0  0  0  0  0  0  0  0  0
  1  2  1  0
  2  3  1  0
  3  4  2  0
  4  5  1  0
  5  6  1  0
  6  7  1  0
  7  8  2  0
  7  9  1  0
  9 10  2  0
 10 11  1  0
 11 12  1  0
 11 13  2  0
 13 14  1  0
 14 15  2  0
 15 16  1  0
 16 17  2  0
 17 18  1  0
 18 19  1  0
 19 20  1  0
 19 21  1  0
 21 22  1  0
 22 23  1  0
  5 24  2  0
 24 25  1  0
 25 26  2  0
 26 27  1  0
 26  3  1  0
 15  9  1  0
 23 19  1  0
 18 14  1  0
M  END
>  <smiles>  (461) 
C38160-P117

>  <fragmenstein_outcome>  (461) 
acceptable

>  <inchikey>  (461) 
WMNSOAYHMBBLEJ-UHFFFAOYSA-N

>  <fragmenstein_mode>  (461) 
expansion

>  <HIPPO Pose ID>  (461) 
16191

>  <Energy>  (461) 
122.299006

>  <fragmenstein_error>  (461) 


>  <tags>  (461) 
{'openbind_xx01zvns2b_c1_fragmenstein', 'fragmenstein_placed'}

>  <ref_pdb>  (461) 
1

>  <scratch_subdir>  (461) 
/opt/xchem-fragalysis-2/maxwin/BulkDock/SCRATCH/511027/C38160-P117

>  <alias>  (461) 
NCc1cc(NC(=O)c2cc(Cl)cc3c2cnn3C2(N)CNC2)ccc1F

>  <HIPPO Compound ID>  (461) 
44304

>  <fragmenstein_runtime>  (461) 
11.545106

$$$$
Cc1ccc(NC(=O)c2cc(Cl)cc([C@H](N)C(F)F)c2)cc1-c1nnn[nH]1
     RDKit          3D

 27 29  0  0  0  0  0  0  0  0999 V2000
   -7.9854    5.6243   -7.6130 C   0  0  0  0  0  0  0  0  0  0  0  0
   -8.0119    5.2510   -9.0754 C   0  0  0  0  0  0  0  0  0  0  0  0
   -7.5515    6.2034   -9.9890 C   0  0  0  0  0  0  0  0  0  0  0  0
   -7.5192    5.9222  -11.3489 C   0  0  0  0  0  0  0  0  0  0  0  0
   -7.9623    4.6943  -11.8380 C   0  0  0  0  0  0  0  0  0  0  0  0
   -7.8877    4.4652  -13.2160 N   0  0  0  0  0  0  0  0  0  0  0  0
   -7.2403    5.3126  -14.3458 C   0  0  0  0  0  0  0  0  0  0  0  0
   -6.6031    6.2935  -14.2883 O   0  0  0  0  0  0  0  0  0  0  0  0
   -7.4995    4.8094  -15.7239 C   0  0  0  0  0  0  0  0  0  0  0  0
   -8.7705    4.4142  -16.1281 C   0  0  0  0  0  0  0  0  0  0  0  0
   -9.0175    4.2607  -17.4894 C   0  0  0  0  0  0  0  0  0  0  0  0
  -10.6144    4.0049  -18.0597 Cl  0  0  0  0  0  0  0  0  0  0  0  0
   -8.0143    4.4663  -18.4357 C   0  0  0  0  0  0  0  0  0  0  0  0
   -6.7253    4.8664  -18.0575 C   0  0  0  0  0  0  0  0  0  0  0  0
   -5.7115    5.2823  -19.1155 C   0  0  2  0  0  0  0  0  0  0  0  0
   -5.8519    4.4987  -20.3747 N   0  0  0  0  0  0  0  0  0  0  0  0
   -4.2394    5.4300  -18.6455 C   0  0  0  0  0  0  0  0  0  0  0  0
   -3.7845    4.3341  -18.0008 F   0  0  0  0  0  0  0  0  0  0  0  0
   -3.4430    5.6078  -19.7363 F   0  0  0  0  0  0  0  0  0  0  0  0
   -6.4865    5.0234  -16.6840 C   0  0  0  0  0  0  0  0  0  0  0  0
   -8.4621    3.7395  -10.9431 C   0  0  0  0  0  0  0  0  0  0  0  0
   -8.4888    4.0028   -9.5485 C   0  0  0  0  0  0  0  0  0  0  0  0
   -9.0467    3.0356   -8.5971 C   0  0  0  0  0  0  0  0  0  0  0  0
   -9.6171    3.3071   -7.4365 N   0  0  0  0  0  0  0  0  0  0  0  0
  -10.0705    2.1282   -6.9180 N   0  0  0  0  0  0  0  0  0  0  0  0
   -9.7768    1.1272   -7.7249 N   0  0  0  0  0  0  0  0  0  0  0  0
   -9.0623    1.6765   -8.7190 N   0  0  0  0  0  0  0  0  0  0  0  0
  1  2  1  0
  2  3  2  0
  3  4  1  0
  4  5  2  0
  5  6  1  0
  6  7  1  0
  7  8  2  0
  7  9  1  0
  9 10  2  0
 10 11  1  0
 11 12  1  0
 11 13  2  0
 13 14  1  0
 14 15  1  0
 15 16  1  6
 15 17  1  0
 17 18  1  0
 17 19  1  0
 14 20  2  0
  5 21  1  0
 21 22  2  0
 22 23  1  0
 23 24  2  0
 24 25  1  0
 25 26  2  0
 26 27  1  0
 22  2  1  0
 27 23  1  0
 20  9  1  0
M  END
>  <smiles>  (462) 
C98272-P120

>  <fragmenstein_outcome>  (462) 
acceptable

>  <inchikey>  (462) 
YVLNKLUQGCWHCD-UHFFFAOYSA-N

>  <fragmenstein_mode>  (462) 
expansion

>  <HIPPO Pose ID>  (462) 
16478

>  <Energy>  (462) 
110.568345

>  <fragmenstein_error>  (462) 


>  <tags>  (462) 
{'openbind_xx01zvns2b_c1_fragmenstein', 'fragmenstein_placed'}

>  <ref_pdb>  (462) 
1

>  <scratch_subdir>  (462) 
/opt/xchem-fragalysis-2/maxwin/BulkDock/SCRATCH/511027/C98272-P120

>  <alias>  (462) 
Cc1ccc(NC(=O)c2cc(Cl)cc([C@H](N)C(F)F)c2)cc1-c1nnn[nH]1

>  <HIPPO Compound ID>  (462) 
98272

>  <fragmenstein_runtime>  (462) 
5.382082

$$$$
Cc1ccc(NC(=O)[C@H]2C[C@H](Cl)C[C@@H](CN)[C@]23CN[C@@H](F)[C@@H](C)C3)cc1-c1nnn[nH]1
     RDKit          3D

 31 34  0  0  0  0  0  0  0  0999 V2000
   -8.1537    5.4119   -7.5912 C   0  0  0  0  0  0  0  0  0  0  0  0
   -8.1077    5.1949   -9.0818 C   0  0  0  0  0  0  0  0  0  0  0  0
   -7.8051    6.2728   -9.9150 C   0  0  0  0  0  0  0  0  0  0  0  0
   -7.6767    6.0805  -11.2873 C   0  0  0  0  0  0  0  0  0  0  0  0
   -7.8540    4.8152  -11.8486 C   0  0  0  0  0  0  0  0  0  0  0  0
   -7.6982    4.6379  -13.2154 N   0  0  0  0  0  0  0  0  0  0  0  0
   -7.2600    5.6424  -14.3210 C   0  0  0  0  0  0  0  0  0  0  0  0
   -7.0393    6.7885  -14.2581 O   0  0  0  0  0  0  0  0  0  0  0  0
   -7.2522    4.8804  -15.6617 C   0  0  1  0  0  0  0  0  0  0  0  0
   -8.7024    5.0743  -16.1505 C   0  0  0  0  0  0  0  0  0  0  0  0
   -8.9937    4.8894  -17.6247 C   0  0  2  0  0  0  0  0  0  0  0  0
   -9.6408    3.3044  -17.9644 Cl  0  0  0  0  0  0  0  0  0  0  0  0
   -7.8281    5.1637  -18.5350 C   0  0  0  0  0  0  0  0  0  0  0  0
   -6.4519    4.6774  -18.0663 C   0  0  1  0  0  0  0  0  0  0  0  0
   -5.5155    4.9484  -19.2799 C   0  0  0  0  0  0  0  0  0  0  0  0
   -4.0743    4.8369  -19.1041 N   0  0  0  0  0  0  0  0  0  0  0  0
   -6.0671    5.2589  -16.6587 C   0  0  2  0  0  0  0  0  0  0  0  0
   -4.7922    4.5077  -16.1434 C   0  0  0  0  0  0  0  0  0  0  0  0
   -3.9511    5.2317  -15.2031 N   0  0  0  0  0  0  0  0  0  0  0  0
   -3.5227    6.4972  -15.7548 C   0  0  1  0  0  0  0  0  0  0  0  0
   -2.9048    6.2730  -16.9427 F   0  0  0  0  0  0  0  0  0  0  0  0
   -4.7110    7.4222  -15.9465 C   0  0  1  0  0  0  0  0  0  0  0  0
   -4.2636    8.7616  -16.5419 C   0  0  0  0  0  0  0  0  0  0  0  0
   -5.8023    6.7873  -16.8278 C   0  0  0  0  0  0  0  0  0  0  0  0
   -8.1892    3.7341  -11.0405 C   0  0  0  0  0  0  0  0  0  0  0  0
   -8.3096    3.9206   -9.6574 C   0  0  0  0  0  0  0  0  0  0  0  0
   -8.6153    2.7952   -8.8089 C   0  0  0  0  0  0  0  0  0  0  0  0
   -7.7886    2.0370   -8.1410 N   0  0  0  0  0  0  0  0  0  0  0  0
   -8.5504    1.3227   -7.2488 N   0  0  0  0  0  0  0  0  0  0  0  0
   -9.8356    1.5669   -7.4201 N   0  0  0  0  0  0  0  0  0  0  0  0
   -9.8618    2.4379   -8.4286 N   0  0  0  0  0  0  0  0  0  0  0  0
  1  2  1  0
  2  3  2  0
  3  4  1  0
  4  5  2  0
  5  6  1  0
  6  7  1  0
  7  8  2  0
  9  7  1  1
  9 10  1  0
 10 11  1  0
 11 12  1  1
 11 13  1  0
 13 14  1  0
 14 15  1  6
 15 16  1  0
 14 17  1  0
 17 18  1  1
 18 19  1  0
 19 20  1  0
 20 21  1  6
 20 22  1  0
 22 23  1  6
 22 24  1  0
  5 25  1  0
 25 26  2  0
 26 27  1  0
 27 28  2  0
 28 29  1  0
 29 30  2  0
 30 31  1  0
 26  2  1  0
 31 27  1  0
 17  9  1  0
 24 17  1  0
M  END
>  <smiles>  (463) 
C98279-P12

>  <fragmenstein_outcome>  (463) 
acceptable

>  <inchikey>  (463) 
GHTBINZQUHACCE-UHFFFAOYSA-N

>  <fragmenstein_mode>  (463) 
expansion

>  <HIPPO Pose ID>  (463) 
16483

>  <Energy>  (463) 
52.311732

>  <fragmenstein_error>  (463) 


>  <tags>  (463) 
{'openbind_xx01zvns2b_c1_fragmenstein', 'fragmenstein_placed'}

>  <ref_pdb>  (463) 
1

>  <scratch_subdir>  (463) 
/opt/xchem-fragalysis-2/maxwin/BulkDock/SCRATCH/511027/C98279-P12

>  <alias>  (463) 
Cc1ccc(NC(=O)[C@H]2C[C@H](Cl)C[C@@H](CN)[C@]23CN[C@@H](F)[C@@H](C)C3)cc1-c1nnn[nH]1

>  <HIPPO Compound ID>  (463) 
98279

>  <fragmenstein_runtime>  (463) 
13.166066

$$$$
N[C@@H]1[C@H](c2nnn[nH]2)[C@@H]2CNC[C@@H]2C[C@@H]1NC(=O)c1cc(Cl)cc2c1cnn2N
     RDKit          3D

 29 33  0  0  0  0  0  0  0  0999 V2000
   -7.3999    7.0608  -11.9148 N   0  0  0  0  0  0  0  0  0  0  0  0
   -7.9517    5.9445  -11.1166 C   0  0  1  0  0  0  0  0  0  0  0  0
   -8.2371    4.5744  -11.8386 C   0  0  1  0  0  0  0  0  0  0  0  0
   -8.0096    4.4169  -13.2592 N   0  0  0  0  0  0  0  0  0  0  0  0
   -6.9970    5.1075  -14.1944 C   0  0  0  0  0  0  0  0  0  0  0  0
   -6.1348    5.8556  -13.9547 O   0  0  0  0  0  0  0  0  0  0  0  0
   -7.2906    4.7944  -15.6219 C   0  0  0  0  0  0  0  0  0  0  0  0
   -8.6204    4.5902  -16.0334 C   0  0  0  0  0  0  0  0  0  0  0  0
   -8.9400    4.4164  -17.3701 C   0  0  0  0  0  0  0  0  0  0  0  0
  -10.5748    4.3350  -17.8413 Cl  0  0  0  0  0  0  0  0  0  0  0  0
   -7.9703    4.4267  -18.3530 C   0  0  0  0  0  0  0  0  0  0  0  0
   -6.6655    4.7146  -17.9474 C   0  0  0  0  0  0  0  0  0  0  0  0
   -6.3006    4.9053  -16.6179 C   0  0  0  0  0  0  0  0  0  0  0  0
   -4.9186    5.1957  -16.6888 C   0  0  0  0  0  0  0  0  0  0  0  0
   -4.4509    5.2033  -17.9427 N   0  0  0  0  0  0  0  0  0  0  0  0
   -5.5208    4.8803  -18.6764 N   0  0  0  0  0  0  0  0  0  0  0  0
   -5.4655    4.7513  -20.0495 N   0  0  0  0  0  0  0  0  0  0  0  0
   -7.8578    3.3253  -11.0443 C   0  0  0  0  0  0  0  0  0  0  0  0
   -8.4343    3.4595   -9.6425 C   0  0  1  0  0  0  0  0  0  0  0  0
   -8.1003    2.3373   -8.6815 C   0  0  0  0  0  0  0  0  0  0  0  0
   -8.1506    3.0086   -7.3748 N   0  0  0  0  0  0  0  0  0  0  0  0
   -7.4525    4.2813   -7.5868 C   0  0  0  0  0  0  0  0  0  0  0  0
   -8.0214    4.7483   -8.9175 C   0  0  1  0  0  0  0  0  0  0  0  0
   -7.2250    5.7681   -9.7517 C   0  0  1  0  0  0  0  0  0  0  0  0
   -5.7598    5.5027   -9.9209 C   0  0  0  0  0  0  0  0  0  0  0  0
   -5.0140    4.4963   -9.5160 N   0  0  0  0  0  0  0  0  0  0  0  0
   -3.7242    4.7926   -9.8863 N   0  0  0  0  0  0  0  0  0  0  0  0
   -3.6653    5.9600  -10.5099 N   0  0  0  0  0  0  0  0  0  0  0  0
   -4.9310    6.3927  -10.5493 N   0  0  0  0  0  0  0  0  0  0  0  0
  2  1  1  6
  2  3  1  0
  3  4  1  6
  4  5  1  0
  5  6  2  0
  5  7  1  0
  7  8  2  0
  8  9  1  0
  9 10  1  0
  9 11  2  0
 11 12  1  0
 12 13  2  0
 13 14  1  0
 14 15  2  0
 15 16  1  0
 16 17  1  0
  3 18  1  0
 19 18  1  6
 19 20  1  0
 20 21  1  0
 21 22  1  0
 23 22  1  1
 23 24  1  0
 24 25  1  6
 25 26  2  0
 26 27  1  0
 27 28  2  0
 28 29  1  0
 24  2  1  0
 29 25  1  0
 13  7  1  0
 23 19  1  0
 16 12  1  0
M  END
>  <smiles>  (464) 
C98340-P94

>  <fragmenstein_outcome>  (464) 
acceptable

>  <inchikey>  (464) 
GTRBRQMRKRROIO-UHFFFAOYSA-N

>  <fragmenstein_mode>  (464) 
expansion

>  <HIPPO Pose ID>  (464) 
16505

>  <Energy>  (464) 
16.032179

>  <fragmenstein_error>  (464) 


>  <tags>  (464) 
{'openbind_xx01zvns2b_c1_fragmenstein', 'fragmenstein_placed'}

>  <ref_pdb>  (464) 
1

>  <scratch_subdir>  (464) 
/opt/xchem-fragalysis-2/maxwin/BulkDock/SCRATCH/511027/C98340-P94

>  <alias>  (464) 
N[C@@H]1[C@H](c2nnn[nH]2)[C@@H]2CNC[C@@H]2C[C@@H]1NC(=O)c1cc(Cl)cc2c1cnn2N

>  <HIPPO Compound ID>  (464) 
95004

>  <fragmenstein_runtime>  (464) 
2.898046

$$$$
CNNc1c(CN)cc(Cl)cc1[C@@](O)(CC(=O)O)N[C@H]1C[C@H]2CNC[C@@H]2[C@H](c2nnn[nH]2)C1
     RDKit          3D

 33 36  0  0  0  0  0  0  0  0999 V2000
   -3.1097    4.6990  -14.3152 C   0  0  0  0  0  0  0  0  0  0  0  0
   -4.3143    4.2220  -14.9952 N   0  0  0  0  0  0  0  0  0  0  0  0
   -5.0422    5.3604  -15.4663 N   0  0  0  0  0  0  0  0  0  0  0  0
   -6.3309    5.0215  -16.0008 C   0  0  0  0  0  0  0  0  0  0  0  0
   -6.4502    4.8093  -17.3988 C   0  0  0  0  0  0  0  0  0  0  0  0
   -5.2981    4.9638  -18.3507 C   0  0  0  0  0  0  0  0  0  0  0  0
   -5.5389    5.9727  -19.3792 N   0  0  0  0  0  0  0  0  0  0  0  0
   -7.6900    4.4550  -17.9422 C   0  0  0  0  0  0  0  0  0  0  0  0
   -8.7939    4.3095  -17.1256 C   0  0  0  0  0  0  0  0  0  0  0  0
  -10.3109    4.0179  -17.8766 Cl  0  0  0  0  0  0  0  0  0  0  0  0
   -8.6809    4.4782  -15.7453 C   0  0  0  0  0  0  0  0  0  0  0  0
   -7.4570    4.8448  -15.1401 C   0  0  0  0  0  0  0  0  0  0  0  0
   -7.4176    5.1766  -13.6198 C   0  0  1  0  0  0  0  0  0  0  0  0
   -6.0588    5.1873  -13.1920 O   0  0  0  0  0  0  0  0  0  0  0  0
   -7.8090    6.6512  -13.4377 C   0  0  0  0  0  0  0  0  0  0  0  0
   -9.2306    6.9943  -13.1757 C   0  0  0  0  0  0  0  0  0  0  0  0
   -9.6032    7.6394  -12.2070 O   0  0  0  0  0  0  0  0  0  0  0  0
  -10.0832    6.6273  -14.1382 O   0  0  0  0  0  0  0  0  0  0  0  0
   -8.0126    4.1375  -12.8024 N   0  0  0  0  0  0  0  0  0  0  0  0
   -8.2281    4.3592  -11.3676 C   0  0  1  0  0  0  0  0  0  0  0  0
   -8.5839    3.0009  -10.7190 C   0  0  0  0  0  0  0  0  0  0  0  0
   -8.9191    3.2241   -9.2542 C   0  0  1  0  0  0  0  0  0  0  0  0
   -9.1901    2.0137   -8.3830 C   0  0  0  0  0  0  0  0  0  0  0  0
   -9.1103    2.5493   -7.0042 N   0  0  0  0  0  0  0  0  0  0  0  0
   -8.3263    3.8039   -7.0632 C   0  0  0  0  0  0  0  0  0  0  0  0
   -7.7805    3.8513   -8.4825 C   0  0  2  0  0  0  0  0  0  0  0  0
   -7.2661    5.1560   -9.0731 C   0  0  2  0  0  0  0  0  0  0  0  0
   -7.9933    6.3958   -8.6649 C   0  0  0  0  0  0  0  0  0  0  0  0
   -7.8758    6.9930   -7.4938 N   0  0  0  0  0  0  0  0  0  0  0  0
   -8.6138    8.1450   -7.5674 N   0  0  0  0  0  0  0  0  0  0  0  0
   -9.1658    8.2764   -8.7624 N   0  0  0  0  0  0  0  0  0  0  0  0
   -8.7924    7.1869   -9.4454 N   0  0  0  0  0  0  0  0  0  0  0  0
   -7.0494    4.9977  -10.5900 C   0  0  0  0  0  0  0  0  0  0  0  0
  1  2  1  0
  2  3  1  0
  3  4  1  0
  4  5  2  0
  5  6  1  0
  6  7  1  0
  5  8  1  0
  8  9  2  0
  9 10  1  0
  9 11  1  0
 11 12  2  0
 12 13  1  0
 13 14  1  1
 13 15  1  0
 15 16  1  0
 16 17  2  0
 16 18  1  0
 13 19  1  0
 20 19  1  6
 20 21  1  0
 22 21  1  6
 22 23  1  0
 23 24  1  0
 24 25  1  0
 26 25  1  1
 26 27  1  0
 27 28  1  6
 28 29  2  0
 29 30  1  0
 30 31  2  0
 31 32  1  0
 27 33  1  0
 12  4  1  0
 33 20  1  0
 26 22  1  0
 32 28  1  0
M  END
>  <smiles>  (465) 
C98396-P120

>  <fragmenstein_outcome>  (465) 
acceptable

>  <inchikey>  (465) 
GRBBZVCHVIDRSL-UHFFFAOYSA-N

>  <fragmenstein_mode>  (465) 
expansion

>  <HIPPO Pose ID>  (465) 
16529

>  <Energy>  (465) 
4.347478

>  <fragmenstein_error>  (465) 


>  <tags>  (465) 
{'openbind_xx01zvns2b_c1_fragmenstein', 'fragmenstein_placed'}

>  <ref_pdb>  (465) 
1

>  <scratch_subdir>  (465) 
/opt/xchem-fragalysis-2/maxwin/BulkDock/SCRATCH/511027/C98396-P120

>  <alias>  (465) 
CNNc1c(CN)cc(Cl)cc1[C@@](O)(CC(=O)O)N[C@H]1C[C@H]2CNC[C@@H]2[C@H](c2nnn[nH]2)C1

>  <HIPPO Compound ID>  (465) 
98396

>  <fragmenstein_runtime>  (465) 
4.693753

$$$$
O=C(N[C@H]1C[C@@H]2CNC[C@H]2[C@H](c2nnn[nH]2)C1)c1cc(Cl)cc2c1NNCC21CN(C2CCOCC2)C1
     RDKit          3D

 37 43  0  0  0  0  0  0  0  0999 V2000
   -6.1287    3.2691  -13.5306 O   0  0  0  0  0  0  0  0  0  0  0  0
   -7.0613    3.9082  -13.8118 C   0  0  0  0  0  0  0  0  0  0  0  0
   -8.1643    4.5047  -12.9241 N   0  0  0  0  0  0  0  0  0  0  0  0
   -8.3052    4.5229  -11.4835 C   0  0  1  0  0  0  0  0  0  0  0  0
   -8.5336    3.1193  -10.8889 C   0  0  0  0  0  0  0  0  0  0  0  0
   -8.2572    3.0889   -9.3827 C   0  0  2  0  0  0  0  0  0  0  0  0
   -9.2042    2.2825   -8.5103 C   0  0  0  0  0  0  0  0  0  0  0  0
   -9.1497    2.9225   -7.1838 N   0  0  0  0  0  0  0  0  0  0  0  0
   -8.3618    4.1525   -7.2768 C   0  0  0  0  0  0  0  0  0  0  0  0
   -8.3520    4.4722   -8.7585 C   0  0  1  0  0  0  0  0  0  0  0  0
   -7.2316    5.3644   -9.2860 C   0  0  2  0  0  0  0  0  0  0  0  0
   -7.3648    6.7927   -8.8690 C   0  0  0  0  0  0  0  0  0  0  0  0
   -6.4318    7.5545   -8.3343 N   0  0  0  0  0  0  0  0  0  0  0  0
   -6.9885    8.8012   -8.1889 N   0  0  0  0  0  0  0  0  0  0  0  0
   -8.2377    8.8167   -8.6292 N   0  0  0  0  0  0  0  0  0  0  0  0
   -8.4813    7.5641   -9.0315 N   0  0  0  0  0  0  0  0  0  0  0  0
   -7.1107    5.2406  -10.8267 C   0  0  0  0  0  0  0  0  0  0  0  0
   -7.2127    4.3301  -15.2373 C   0  0  0  0  0  0  0  0  0  0  0  0
   -8.4051    4.1338  -15.9280 C   0  0  0  0  0  0  0  0  0  0  0  0
   -8.4559    4.4371  -17.2844 C   0  0  0  0  0  0  0  0  0  0  0  0
   -9.8979    4.0989  -18.1652 Cl  0  0  0  0  0  0  0  0  0  0  0  0
   -7.3577    5.0157  -17.9379 C   0  0  0  0  0  0  0  0  0  0  0  0
   -6.1486    5.2817  -17.2615 C   0  0  0  0  0  0  0  0  0  0  0  0
   -6.0827    4.8572  -15.9037 C   0  0  0  0  0  0  0  0  0  0  0  0
   -4.8676    5.0736  -15.1796 N   0  0  0  0  0  0  0  0  0  0  0  0
   -3.6830    5.1096  -15.9281 N   0  0  0  0  0  0  0  0  0  0  0  0
   -3.7684    6.2197  -16.8682 C   0  0  0  0  0  0  0  0  0  0  0  0
   -4.8458    5.9776  -17.9510 C   0  0  0  0  0  0  0  0  0  0  0  0
   -4.3411    5.3787  -19.3050 C   0  0  0  0  0  0  0  0  0  0  0  0
   -4.1280    6.7588  -19.8436 N   0  0  0  0  0  0  0  0  0  0  0  0
   -2.6841    7.1133  -19.7848 C   0  0  0  0  0  0  0  0  0  0  0  0
   -2.1490    7.1116  -21.2319 C   0  0  0  0  0  0  0  0  0  0  0  0
   -2.5647    8.3674  -21.9879 C   0  0  0  0  0  0  0  0  0  0  0  0
   -2.1332    9.5455  -21.3026 O   0  0  0  0  0  0  0  0  0  0  0  0
   -2.7141    9.6418  -20.0044 C   0  0  0  0  0  0  0  0  0  0  0  0
   -2.2952    8.4608  -19.1492 C   0  0  0  0  0  0  0  0  0  0  0  0
   -5.0248    7.2724  -18.7845 C   0  0  0  0  0  0  0  0  0  0  0  0
  1  2  2  0
  2  3  1  0
  4  3  1  6
  4  5  1  0
  6  5  1  6
  6  7  1  0
  7  8  1  0
  8  9  1  0
 10  9  1  1
 10 11  1  0
 11 12  1  6
 12 13  2  0
 13 14  1  0
 14 15  2  0
 15 16  1  0
 11 17  1  0
  2 18  1  0
 18 19  2  0
 19 20  1  0
 20 21  1  0
 20 22  2  0
 22 23  1  0
 23 24  2  0
 24 25  1  0
 25 26  1  0
 26 27  1  0
 27 28  1  0
 28 29  1  0
 29 30  1  0
 30 31  1  0
 31 32  1  0
 32 33  1  0
 33 34  1  0
 34 35  1  0
 35 36  1  0
 30 37  1  0
 17  4  1  0
 24 18  1  0
 37 28  1  0
 10  6  1  0
 16 12  1  0
 28 23  1  0
 36 31  1  0
M  END
>  <smiles>  (466) 
C98407-P120

>  <fragmenstein_outcome>  (466) 
acceptable

>  <inchikey>  (466) 
KAAJMQIAKJTTFO-UHFFFAOYSA-N

>  <fragmenstein_mode>  (466) 
expansion

>  <HIPPO Pose ID>  (466) 
16535

>  <Energy>  (466) 
120.706994

>  <fragmenstein_error>  (466) 


>  <tags>  (466) 
{'openbind_xx01zvns2b_c1_fragmenstein', 'fragmenstein_placed'}

>  <ref_pdb>  (466) 
1

>  <scratch_subdir>  (466) 
/opt/xchem-fragalysis-2/maxwin/BulkDock/SCRATCH/511027/C98407-P120

>  <alias>  (466) 
O=C(N[C@H]1C[C@@H]2CNC[C@H]2[C@H](c2nnn[nH]2)C1)c1cc(Cl)cc2c1NNCC21CN(C2CCOCC2)C1

>  <HIPPO Compound ID>  (466) 
81615

>  <fragmenstein_runtime>  (466) 
13.422979

$$$$
NCC[C@@H](N)Nc1cc(Cl)cc(C(=O)N[C@H]2C[C@H]3CNC[C@H]3[C@H](c3nnn[nH]3)C2)c1
     RDKit          3D

 30 33  0  0  0  0  0  0  0  0999 V2000
   -1.9097    7.0939  -20.1188 N   0  0  0  0  0  0  0  0  0  0  0  0
   -2.1545    5.6575  -20.2476 C   0  0  0  0  0  0  0  0  0  0  0  0
   -3.6447    5.3332  -20.3848 C   0  0  0  0  0  0  0  0  0  0  0  0
   -4.4515    5.4805  -19.0755 C   0  0  1  0  0  0  0  0  0  0  0  0
   -4.4932    6.8873  -18.6881 N   0  0  0  0  0  0  0  0  0  0  0  0
   -5.7350    4.8315  -19.2733 N   0  0  0  0  0  0  0  0  0  0  0  0
   -6.6539    4.6935  -18.2339 C   0  0  0  0  0  0  0  0  0  0  0  0
   -7.9762    4.3761  -18.5485 C   0  0  0  0  0  0  0  0  0  0  0  0
   -8.9463    4.2572  -17.5530 C   0  0  0  0  0  0  0  0  0  0  0  0
  -10.5799    4.0588  -18.0397 Cl  0  0  0  0  0  0  0  0  0  0  0  0
   -8.6210    4.4062  -16.2068 C   0  0  0  0  0  0  0  0  0  0  0  0
   -7.2955    4.6728  -15.8745 C   0  0  0  0  0  0  0  0  0  0  0  0
   -6.8832    5.1080  -14.5138 C   0  0  0  0  0  0  0  0  0  0  0  0
   -6.1640    6.0257  -14.4796 O   0  0  0  0  0  0  0  0  0  0  0  0
   -7.5487    4.3190  -13.3723 N   0  0  0  0  0  0  0  0  0  0  0  0
   -7.3957    4.4320  -11.9383 C   0  0  1  0  0  0  0  0  0  0  0  0
   -7.8096    5.8490  -11.5240 C   0  0  0  0  0  0  0  0  0  0  0  0
   -7.3908    6.1208  -10.0900 C   0  0  1  0  0  0  0  0  0  0  0  0
   -8.1364    7.2882   -9.4641 C   0  0  0  0  0  0  0  0  0  0  0  0
   -7.9200    7.0576   -8.0342 N   0  0  0  0  0  0  0  0  0  0  0  0
   -8.1309    5.6169   -7.8494 C   0  0  0  0  0  0  0  0  0  0  0  0
   -7.6147    4.9424   -9.1303 C   0  0  1  0  0  0  0  0  0  0  0  0
   -8.5691    3.8929   -9.7272 C   0  0  2  0  0  0  0  0  0  0  0  0
   -8.9628    2.8215   -8.7699 C   0  0  0  0  0  0  0  0  0  0  0  0
  -10.1589    2.2886   -8.6656 N   0  0  0  0  0  0  0  0  0  0  0  0
  -10.1798    1.5934   -7.4886 N   0  0  0  0  0  0  0  0  0  0  0  0
   -9.0177    1.6835   -6.8755 N   0  0  0  0  0  0  0  0  0  0  0  0
   -8.2208    2.3325   -7.7338 N   0  0  0  0  0  0  0  0  0  0  0  0
   -8.1087    3.3572  -11.1000 C   0  0  0  0  0  0  0  0  0  0  0  0
   -6.3210    4.7798  -16.8827 C   0  0  0  0  0  0  0  0  0  0  0  0
  1  2  1  0
  2  3  1  0
  3  4  1  0
  4  5  1  6
  4  6  1  0
  6  7  1  0
  7  8  2  0
  8  9  1  0
  9 10  1  0
  9 11  2  0
 11 12  1  0
 12 13  1  0
 13 14  2  0
 13 15  1  0
 16 15  1  6
 16 17  1  0
 18 17  1  6
 18 19  1  0
 19 20  1  0
 20 21  1  0
 22 21  1  1
 22 23  1  0
 23 24  1  1
 24 25  2  0
 25 26  1  0
 26 27  2  0
 27 28  1  0
 23 29  1  0
 12 30  2  0
 30  7  1  0
 29 16  1  0
 22 18  1  0
 28 24  1  0
M  END
>  <smiles>  (467) 
C98439-P120

>  <fragmenstein_outcome>  (467) 
acceptable

>  <inchikey>  (467) 
OFYQHUZTXQRYAK-UHFFFAOYSA-N

>  <fragmenstein_mode>  (467) 
expansion

>  <HIPPO Pose ID>  (467) 
16547

>  <Energy>  (467) 
-24.033723

>  <fragmenstein_error>  (467) 


>  <tags>  (467) 
{'openbind_xx01zvns2b_c1_fragmenstein', 'fragmenstein_placed'}

>  <ref_pdb>  (467) 
1

>  <scratch_subdir>  (467) 
/opt/xchem-fragalysis-2/maxwin/BulkDock/SCRATCH/511027/C98439-P120

>  <alias>  (467) 
NCC[C@@H](N)Nc1cc(Cl)cc(C(=O)N[C@H]2C[C@H]3CNC[C@H]3[C@H](c3nnn[nH]3)C2)c1

>  <HIPPO Compound ID>  (467) 
72682

>  <fragmenstein_runtime>  (467) 
6.242535

$$$$
C[C@](O)(N[C@@H]1C[C@@H](c2nnn[nH]2)C[C@]2(CCNC2)C1)c1cc(Cl)cc(CN)c1
     RDKit          3D

 28 31  0  0  0  0  0  0  0  0999 V2000
   -5.3552    4.4759  -14.3442 C   0  0  0  0  0  0  0  0  0  0  0  0
   -6.8064    4.9982  -14.4484 C   0  0  2  0  0  0  0  0  0  0  0  0
   -6.8323    6.4112  -14.2850 O   0  0  0  0  0  0  0  0  0  0  0  0
   -7.6587    4.3934  -13.4202 N   0  0  0  0  0  0  0  0  0  0  0  0
   -7.1482    4.3576  -12.0331 C   0  0  2  0  0  0  0  0  0  0  0  0
   -7.8982    3.3349  -11.1352 C   0  0  0  0  0  0  0  0  0  0  0  0
   -8.7887    3.8915  -10.0226 C   0  0  1  0  0  0  0  0  0  0  0  0
   -8.9256    3.0021   -8.8233 C   0  0  0  0  0  0  0  0  0  0  0  0
   -9.8305    2.0710   -8.6070 N   0  0  0  0  0  0  0  0  0  0  0  0
   -9.7600    1.7673   -7.2690 N   0  0  0  0  0  0  0  0  0  0  0  0
   -8.8503    2.5119   -6.6633 N   0  0  0  0  0  0  0  0  0  0  0  0
   -8.2396    3.1753   -7.6511 N   0  0  0  0  0  0  0  0  0  0  0  0
   -8.5118    5.3373   -9.5877 C   0  0  0  0  0  0  0  0  0  0  0  0
   -7.1001    5.8257   -9.9281 C   0  0  1  0  0  0  0  0  0  0  0  0
   -6.8980    7.2349   -9.3540 C   0  0  0  0  0  0  0  0  0  0  0  0
   -6.3958    6.9898   -7.9289 C   0  0  0  0  0  0  0  0  0  0  0  0
   -6.0821    5.5541   -7.8403 N   0  0  0  0  0  0  0  0  0  0  0  0
   -5.9610    5.0862   -9.2221 C   0  0  0  0  0  0  0  0  0  0  0  0
   -7.0045    5.7776  -11.4474 C   0  0  0  0  0  0  0  0  0  0  0  0
   -7.3014    4.7956  -15.8878 C   0  0  0  0  0  0  0  0  0  0  0  0
   -8.5988    4.3856  -16.2238 C   0  0  0  0  0  0  0  0  0  0  0  0
   -8.9715    4.2714  -17.5675 C   0  0  0  0  0  0  0  0  0  0  0  0
  -10.6030    3.9859  -18.0122 Cl  0  0  0  0  0  0  0  0  0  0  0  0
   -8.0572    4.4829  -18.5944 C   0  0  0  0  0  0  0  0  0  0  0  0
   -6.7657    4.9076  -18.3053 C   0  0  0  0  0  0  0  0  0  0  0  0
   -5.8098    5.2247  -19.4248 C   0  0  0  0  0  0  0  0  0  0  0  0
   -4.4029    5.0437  -19.0485 N   0  0  0  0  0  0  0  0  0  0  0  0
   -6.4337    5.1137  -16.9624 C   0  0  0  0  0  0  0  0  0  0  0  0
  2  1  1  6
  2  3  1  0
  2  4  1  0
  5  4  1  6
  5  6  1  0
  6  7  1  0
  7  8  1  1
  8  9  2  0
  9 10  1  0
 10 11  2  0
 11 12  1  0
  7 13  1  0
 14 13  1  6
 14 15  1  0
 15 16  1  0
 16 17  1  0
 17 18  1  0
 14 19  1  0
  2 20  1  0
 20 21  2  0
 21 22  1  0
 22 23  1  0
 22 24  2  0
 24 25  1  0
 25 26  1  0
 26 27  1  0
 25 28  2  0
 19  5  1  0
 28 20  1  0
 12  8  1  0
 18 14  1  0
M  END
>  <smiles>  (468) 
C98456-P120

>  <fragmenstein_outcome>  (468) 
acceptable

>  <inchikey>  (468) 
HOWCFWQYBPZALT-UHFFFAOYSA-N

>  <fragmenstein_mode>  (468) 
expansion

>  <HIPPO Pose ID>  (468) 
16556

>  <Energy>  (468) 
3.814612

>  <fragmenstein_error>  (468) 


>  <tags>  (468) 
{'openbind_xx01zvns2b_c1_fragmenstein', 'fragmenstein_placed'}

>  <ref_pdb>  (468) 
1

>  <scratch_subdir>  (468) 
/opt/xchem-fragalysis-2/maxwin/BulkDock/SCRATCH/511027/C98456-P120

>  <alias>  (468) 
C[C@](O)(N[C@@H]1C[C@@H](c2nnn[nH]2)C[C@]2(CCNC2)C1)c1cc(Cl)cc(CN)c1

>  <HIPPO Compound ID>  (468) 
73173

>  <fragmenstein_runtime>  (468) 
4.379253

$$$$
COn1ncc2c([C@H](C#N)Nc3ccc4c(c3)CNC4)cc(Cl)cc21
     RDKit          3D

 25 28  0  0  0  0  0  0  0  0999 V2000
   -4.2407    5.1074  -19.5586 C   0  0  0  0  0  0  0  0  0  0  0  0
   -4.8334    6.2114  -18.8926 O   0  0  0  0  0  0  0  0  0  0  0  0
   -5.1504    5.8030  -17.6054 N   0  0  0  0  0  0  0  0  0  0  0  0
   -4.2787    6.0571  -16.6226 N   0  0  0  0  0  0  0  0  0  0  0  0
   -4.9202    5.6246  -15.5360 C   0  0  0  0  0  0  0  0  0  0  0  0
   -6.2289    5.1536  -15.8161 C   0  0  0  0  0  0  0  0  0  0  0  0
   -7.3068    4.6397  -15.0548 C   0  0  0  0  0  0  0  0  0  0  0  0
   -7.2080    4.4157  -13.5441 C   0  0  2  0  0  0  0  0  0  0  0  0
   -6.6564    3.0648  -13.2739 C   0  0  0  0  0  0  0  0  0  0  0  0
   -6.1679    2.0256  -13.0914 N   0  0  0  0  0  0  0  0  0  0  0  0
   -8.5099    4.7295  -12.9093 N   0  0  0  0  0  0  0  0  0  0  0  0
   -8.5001    4.6188  -11.4982 C   0  0  0  0  0  0  0  0  0  0  0  0
   -8.2108    5.7455  -10.7004 C   0  0  0  0  0  0  0  0  0  0  0  0
   -8.2061    5.6623   -9.3034 C   0  0  0  0  0  0  0  0  0  0  0  0
   -8.4939    4.4427   -8.7207 C   0  0  0  0  0  0  0  0  0  0  0  0
   -8.7412    3.3155   -9.4973 C   0  0  0  0  0  0  0  0  0  0  0  0
   -8.7319    3.3813  -10.8816 C   0  0  0  0  0  0  0  0  0  0  0  0
   -8.9918    2.1498   -8.5949 C   0  0  0  0  0  0  0  0  0  0  0  0
   -9.2799    2.7564   -7.2650 N   0  0  0  0  0  0  0  0  0  0  0  0
   -8.6011    4.0698   -7.2793 C   0  0  0  0  0  0  0  0  0  0  0  0
   -8.4689    4.2741  -15.7820 C   0  0  0  0  0  0  0  0  0  0  0  0
   -8.5474    4.3975  -17.1710 C   0  0  0  0  0  0  0  0  0  0  0  0
   -9.9930    3.9673  -17.9985 Cl  0  0  0  0  0  0  0  0  0  0  0  0
   -7.4836    4.8998  -17.9133 C   0  0  0  0  0  0  0  0  0  0  0  0
   -6.3440    5.2760  -17.1987 C   0  0  0  0  0  0  0  0  0  0  0  0
  1  2  1  0
  2  3  1  0
  3  4  1  0
  4  5  2  0
  5  6  1  0
  6  7  2  0
  7  8  1  0
  8  9  1  6
  9 10  3  0
  8 11  1  0
 11 12  1  0
 12 13  2  0
 13 14  1  0
 14 15  2  0
 15 16  1  0
 16 17  2  0
 16 18  1  0
 18 19  1  0
 19 20  1  0
  7 21  1  0
 21 22  2  0
 22 23  1  0
 22 24  1  0
 24 25  2  0
 25  3  1  0
 25  6  1  0
 17 12  1  0
 20 15  1  0
M  END
>  <smiles>  (469) 
C98474-P120

>  <fragmenstein_outcome>  (469) 
acceptable

>  <inchikey>  (469) 
XUSXZQZXIQKUHR-UHFFFAOYSA-N

>  <fragmenstein_mode>  (469) 
expansion

>  <HIPPO Pose ID>  (469) 
16562

>  <Energy>  (469) 
63.197176

>  <fragmenstein_error>  (469) 


>  <tags>  (469) 
{'openbind_xx01zvns2b_c1_fragmenstein', 'fragmenstein_placed'}

>  <ref_pdb>  (469) 
1

>  <scratch_subdir>  (469) 
/opt/xchem-fragalysis-2/maxwin/BulkDock/SCRATCH/511027/C98474-P120

>  <alias>  (469) 
COn1ncc2c([C@H](C#N)Nc3ccc4c(c3)CNC4)cc(Cl)cc21

>  <HIPPO Compound ID>  (469) 
98474

>  <fragmenstein_runtime>  (469) 
1.836048

$$$$
CC(C)Nc1nc2c(Cl)cc([C@H](C#N)Nc3ccc4c(c3)CNC4)c3cnn1c32
     RDKit          3D

 29 33  0  0  0  0  0  0  0  0999 V2000
   -2.6308    6.8510  -19.9165 C   0  0  0  0  0  0  0  0  0  0  0  0
   -2.8374    5.3597  -20.1603 C   0  0  0  0  0  0  0  0  0  0  0  0
   -2.0114    4.4710  -19.2397 C   0  0  0  0  0  0  0  0  0  0  0  0
   -4.2500    4.9968  -20.2370 N   0  0  0  0  0  0  0  0  0  0  0  0
   -5.1963    4.9207  -19.2609 C   0  0  0  0  0  0  0  0  0  0  0  0
   -6.4588    4.4568  -19.4432 N   0  0  0  0  0  0  0  0  0  0  0  0
   -7.1284    4.5407  -18.2085 C   0  0  0  0  0  0  0  0  0  0  0  0
   -8.3528    4.3300  -17.5660 C   0  0  0  0  0  0  0  0  0  0  0  0
   -9.6900    3.8509  -18.4893 Cl  0  0  0  0  0  0  0  0  0  0  0  0
   -8.4580    4.6050  -16.1572 C   0  0  0  0  0  0  0  0  0  0  0  0
   -7.3727    5.1123  -15.3369 C   0  0  0  0  0  0  0  0  0  0  0  0
   -7.5917    5.4833  -13.8696 C   0  0  2  0  0  0  0  0  0  0  0  0
   -6.3047    5.8211  -13.1957 C   0  0  0  0  0  0  0  0  0  0  0  0
   -5.3024    6.1359  -12.6951 N   0  0  0  0  0  0  0  0  0  0  0  0
   -8.3794    4.4553  -13.1681 N   0  0  0  0  0  0  0  0  0  0  0  0
   -8.4218    4.4801  -11.7593 C   0  0  0  0  0  0  0  0  0  0  0  0
   -8.3933    5.6775  -11.0112 C   0  0  0  0  0  0  0  0  0  0  0  0
   -8.3834    5.6732   -9.6108 C   0  0  0  0  0  0  0  0  0  0  0  0
   -8.4672    4.4602   -8.9586 C   0  0  0  0  0  0  0  0  0  0  0  0
   -8.5863    3.2807   -9.6742 C   0  0  0  0  0  0  0  0  0  0  0  0
   -8.5717    3.2730  -11.0626 C   0  0  0  0  0  0  0  0  0  0  0  0
   -8.7309    2.1372   -8.7299 C   0  0  0  0  0  0  0  0  0  0  0  0
   -8.6496    2.7059   -7.3626 N   0  0  0  0  0  0  0  0  0  0  0  0
   -8.4893    4.1663   -7.4991 C   0  0  0  0  0  0  0  0  0  0  0  0
   -6.1765    5.3394  -16.0521 C   0  0  0  0  0  0  0  0  0  0  0  0
   -4.8264    5.8278  -15.9893 C   0  0  0  0  0  0  0  0  0  0  0  0
   -4.1737    5.7973  -17.1868 N   0  0  0  0  0  0  0  0  0  0  0  0
   -5.0871    5.2536  -17.9655 N   0  0  0  0  0  0  0  0  0  0  0  0
   -6.2103    5.0214  -17.3571 C   0  0  0  0  0  0  0  0  0  0  0  0
  1  2  1  0
  2  3  1  0
  2  4  1  0
  4  5  1  0
  5  6  2  0
  6  7  1  0
  7  8  1  0
  8  9  1  0
  8 10  2  0
 10 11  1  0
 11 12  1  0
 12 13  1  1
 13 14  3  0
 12 15  1  0
 15 16  1  0
 16 17  2  0
 17 18  1  0
 18 19  2  0
 19 20  1  0
 20 21  2  0
 20 22  1  0
 22 23  1  0
 23 24  1  0
 11 25  2  0
 25 26  1  0
 26 27  2  0
 27 28  1  0
 28 29  1  0
 28  5  1  0
 29  7  2  0
 21 16  1  0
 29 25  1  0
 24 19  1  0
M  END
>  <smiles>  (470) 
C98475-P120

>  <fragmenstein_outcome>  (470) 
acceptable

>  <inchikey>  (470) 
CCGMYBUQKIHWQL-UHFFFAOYSA-N

>  <fragmenstein_mode>  (470) 
expansion

>  <HIPPO Pose ID>  (470) 
16563

>  <Energy>  (470) 
159.107704

>  <fragmenstein_error>  (470) 


>  <tags>  (470) 
{'openbind_xx01zvns2b_c1_fragmenstein', 'fragmenstein_placed'}

>  <ref_pdb>  (470) 
1

>  <scratch_subdir>  (470) 
/opt/xchem-fragalysis-2/maxwin/BulkDock/SCRATCH/511027/C98475-P120

>  <alias>  (470) 
CC(C)Nc1nc2c(Cl)cc([C@H](C#N)Nc3ccc4c(c3)CNC4)c3cnn1c32

>  <HIPPO Compound ID>  (470) 
106234

>  <fragmenstein_runtime>  (470) 
4.243078

$$$$
N#C[C@@](O)(Nc1ccc2c(c1)CNC2)c1cc(Cl)cc2c1cnn2C(=O)OCc1ccccc1
     RDKit          3D

 34 38  0  0  0  0  0  0  0  0999 V2000
   -6.7701    7.6018  -13.7704 N   0  0  0  0  0  0  0  0  0  0  0  0
   -7.0201    6.4704  -13.8920 C   0  0  0  0  0  0  0  0  0  0  0  0
   -7.3149    5.0080  -14.0652 C   0  0  1  0  0  0  0  0  0  0  0  0
   -6.2143    4.2134  -13.6242 O   0  0  0  0  0  0  0  0  0  0  0  0
   -8.5105    4.5562  -13.3325 N   0  0  0  0  0  0  0  0  0  0  0  0
   -8.4723    4.5909  -11.9191 C   0  0  0  0  0  0  0  0  0  0  0  0
   -8.5254    3.3757  -11.2030 C   0  0  0  0  0  0  0  0  0  0  0  0
   -8.4512    3.3394   -9.8074 C   0  0  0  0  0  0  0  0  0  0  0  0
   -8.3168    4.5341   -9.1310 C   0  0  0  0  0  0  0  0  0  0  0  0
   -8.2763    5.7419   -9.8143 C   0  0  0  0  0  0  0  0  0  0  0  0
   -8.3626    5.7895  -11.1986 C   0  0  0  0  0  0  0  0  0  0  0  0
   -8.1977    6.8589   -8.8289 C   0  0  0  0  0  0  0  0  0  0  0  0
   -7.8877    6.2201   -7.5205 N   0  0  0  0  0  0  0  0  0  0  0  0
   -8.2510    4.7842   -7.6646 C   0  0  0  0  0  0  0  0  0  0  0  0
   -7.4320    4.7483  -15.5746 C   0  0  0  0  0  0  0  0  0  0  0  0
   -8.6725    4.4957  -16.2059 C   0  0  0  0  0  0  0  0  0  0  0  0
   -8.7815    4.3605  -17.5900 C   0  0  0  0  0  0  0  0  0  0  0  0
  -10.3310    4.1029  -18.2887 Cl  0  0  0  0  0  0  0  0  0  0  0  0
   -7.6728    4.4857  -18.4237 C   0  0  0  0  0  0  0  0  0  0  0  0
   -6.4338    4.7427  -17.8210 C   0  0  0  0  0  0  0  0  0  0  0  0
   -6.3015    4.8575  -16.4380 C   0  0  0  0  0  0  0  0  0  0  0  0
   -4.9235    5.1025  -16.2413 C   0  0  0  0  0  0  0  0  0  0  0  0
   -4.2300    5.1815  -17.3701 N   0  0  0  0  0  0  0  0  0  0  0  0
   -5.1668    4.9763  -18.3573 N   0  0  0  0  0  0  0  0  0  0  0  0
   -4.7951    5.0993  -19.7170 C   0  0  0  0  0  0  0  0  0  0  0  0
   -5.5568    4.8463  -20.6381 O   0  0  0  0  0  0  0  0  0  0  0  0
   -3.5392    5.6043  -19.8032 O   0  0  0  0  0  0  0  0  0  0  0  0
   -3.1747    6.1972  -21.0511 C   0  0  0  0  0  0  0  0  0  0  0  0
   -2.6053    7.5790  -20.7942 C   0  0  0  0  0  0  0  0  0  0  0  0
   -2.6255    8.5478  -21.8086 C   0  0  0  0  0  0  0  0  0  0  0  0
   -2.0601    9.8090  -21.6000 C   0  0  0  0  0  0  0  0  0  0  0  0
   -1.4644   10.1166  -20.3783 C   0  0  0  0  0  0  0  0  0  0  0  0
   -1.4341    9.1650  -19.3630 C   0  0  0  0  0  0  0  0  0  0  0  0
   -1.9959    7.9041  -19.5709 C   0  0  0  0  0  0  0  0  0  0  0  0
  1  2  3  0
  2  3  1  0
  3  4  1  1
  3  5  1  0
  5  6  1  0
  6  7  2  0
  7  8  1  0
  8  9  2  0
  9 10  1  0
 10 11  2  0
 10 12  1  0
 12 13  1  0
 13 14  1  0
  3 15  1  0
 15 16  2  0
 16 17  1  0
 17 18  1  0
 17 19  2  0
 19 20  1  0
 20 21  2  0
 21 22  1  0
 22 23  2  0
 23 24  1  0
 24 25  1  0
 25 26  2  0
 25 27  1  0
 27 28  1  0
 28 29  1  0
 29 30  2  0
 30 31  1  0
 31 32  2  0
 32 33  1  0
 33 34  2  0
 11  6  1  0
 21 15  1  0
 34 29  1  0
 14  9  1  0
 24 20  1  0
M  END
>  <smiles>  (471) 
C97418-P121

>  <fragmenstein_outcome>  (471) 
acceptable

>  <inchikey>  (471) 
XGWPRJBOBOJWCQ-UHFFFAOYSA-N

>  <fragmenstein_mode>  (471) 
expansion

>  <HIPPO Pose ID>  (471) 
16587

>  <Energy>  (471) 
135.915523

>  <fragmenstein_error>  (471) 


>  <tags>  (471) 
{'openbind_xx01zvns2b_c1_fragmenstein', 'fragmenstein_placed'}

>  <ref_pdb>  (471) 
1

>  <scratch_subdir>  (471) 
/opt/xchem-fragalysis-2/maxwin/BulkDock/SCRATCH/511027/C97418-P121

>  <alias>  (471) 
N#C[C@@](O)(Nc1ccc2c(c1)CNC2)c1cc(Cl)cc2c1cnn2C(=O)OCc1ccccc1

>  <HIPPO Compound ID>  (471) 
72599

>  <fragmenstein_runtime>  (471) 
4.423868

$$$$
N#C[C@](O)(Nc1ccc2c(c1)CNC2)c1cc(Cl)c2ncn3ncc1c23
     RDKit          3D

 26 30  0  0  0  0  0  0  0  0999 V2000
   -5.5928    2.6326  -13.4226 N   0  0  0  0  0  0  0  0  0  0  0  0
   -6.3046    3.5081  -13.7031 C   0  0  0  0  0  0  0  0  0  0  0  0
   -7.1958    4.6612  -14.0592 C   0  0  2  0  0  0  0  0  0  0  0  0
   -6.5699    5.9008  -13.7119 O   0  0  0  0  0  0  0  0  0  0  0  0
   -8.5214    4.5924  -13.4104 N   0  0  0  0  0  0  0  0  0  0  0  0
   -8.4906    4.6341  -11.9908 C   0  0  0  0  0  0  0  0  0  0  0  0
   -8.5017    3.4374  -11.2449 C   0  0  0  0  0  0  0  0  0  0  0  0
   -8.4130    3.4483   -9.8505 C   0  0  0  0  0  0  0  0  0  0  0  0
   -8.2983    4.6681   -9.2137 C   0  0  0  0  0  0  0  0  0  0  0  0
   -8.2855    5.8577   -9.9334 C   0  0  0  0  0  0  0  0  0  0  0  0
   -8.3817    5.8602  -11.3167 C   0  0  0  0  0  0  0  0  0  0  0  0
   -8.2160    7.0022   -8.9798 C   0  0  0  0  0  0  0  0  0  0  0  0
   -7.8687    6.4064   -7.6612 N   0  0  0  0  0  0  0  0  0  0  0  0
   -8.2170    4.9626   -7.7561 C   0  0  0  0  0  0  0  0  0  0  0  0
   -7.2983    4.7130  -15.5758 C   0  0  0  0  0  0  0  0  0  0  0  0
   -8.5147    4.4515  -16.3248 C   0  0  0  0  0  0  0  0  0  0  0  0
   -8.5770    4.3468  -17.7577 C   0  0  0  0  0  0  0  0  0  0  0  0
  -10.0281    4.0607  -18.5814 Cl  0  0  0  0  0  0  0  0  0  0  0  0
   -7.4016    4.4927  -18.4966 C   0  0  0  0  0  0  0  0  0  0  0  0
   -6.8523    4.4347  -19.7907 N   0  0  0  0  0  0  0  0  0  0  0  0
   -5.5460    4.7523  -19.6675 C   0  0  0  0  0  0  0  0  0  0  0  0
   -5.2783    4.9377  -18.3893 N   0  0  0  0  0  0  0  0  0  0  0  0
   -4.2147    5.2321  -17.6754 N   0  0  0  0  0  0  0  0  0  0  0  0
   -4.7473    5.2068  -16.4101 C   0  0  0  0  0  0  0  0  0  0  0  0
   -6.1606    4.9294  -16.3849 C   0  0  0  0  0  0  0  0  0  0  0  0
   -6.3625    4.7895  -17.7014 C   0  0  0  0  0  0  0  0  0  0  0  0
  1  2  3  0
  2  3  1  0
  3  4  1  1
  3  5  1  0
  5  6  1  0
  6  7  2  0
  7  8  1  0
  8  9  2  0
  9 10  1  0
 10 11  2  0
 10 12  1  0
 12 13  1  0
 13 14  1  0
  3 15  1  0
 15 16  2  0
 16 17  1  0
 17 18  1  0
 17 19  2  0
 19 20  1  0
 20 21  2  0
 21 22  1  0
 22 23  1  0
 23 24  2  0
 24 25  1  0
 25 26  2  0
 11  6  1  0
 25 15  1  0
 14  9  1  0
 26 19  1  0
 26 22  1  0
M  END
>  <smiles>  (472) 
C98567-P121

>  <fragmenstein_outcome>  (472) 
acceptable

>  <inchikey>  (472) 
FOSROVCONJLWOV-UHFFFAOYSA-N

>  <fragmenstein_mode>  (472) 
expansion

>  <HIPPO Pose ID>  (472) 
16590

>  <Energy>  (472) 
111.424346

>  <fragmenstein_error>  (472) 


>  <tags>  (472) 
{'openbind_xx01zvns2b_c1_fragmenstein', 'fragmenstein_placed'}

>  <ref_pdb>  (472) 
1

>  <scratch_subdir>  (472) 
/opt/xchem-fragalysis-2/maxwin/BulkDock/SCRATCH/511027/C98567-P121

>  <alias>  (472) 
N#C[C@](O)(Nc1ccc2c(c1)CNC2)c1cc(Cl)c2ncn3ncc1c23

>  <HIPPO Compound ID>  (472) 
99546

>  <fragmenstein_runtime>  (472) 
1.999653

$$$$
N#C[C@](O)(Nc1ccc2c(c1)CNC2)c1cc(CCN)ccc1CNN
     RDKit          3D

 26 28  0  0  0  0  0  0  0  0999 V2000
   -5.0165    4.7411  -12.8594 N   0  0  0  0  0  0  0  0  0  0  0  0
   -5.9915    5.0872  -13.3974 C   0  0  0  0  0  0  0  0  0  0  0  0
   -7.2388    5.5494  -14.1063 C   0  0  2  0  0  0  0  0  0  0  0  0
   -7.4713    6.9496  -13.9107 O   0  0  0  0  0  0  0  0  0  0  0  0
   -8.4235    4.8382  -13.5526 N   0  0  0  0  0  0  0  0  0  0  0  0
   -8.4532    4.7643  -12.1270 C   0  0  0  0  0  0  0  0  0  0  0  0
   -8.5543    3.5037  -11.5002 C   0  0  0  0  0  0  0  0  0  0  0  0
   -8.5243    3.3692  -10.1066 C   0  0  0  0  0  0  0  0  0  0  0  0
   -8.3901    4.5101   -9.3419 C   0  0  0  0  0  0  0  0  0  0  0  0
   -8.3234    5.7627   -9.9358 C   0  0  0  0  0  0  0  0  0  0  0  0
   -8.3748    5.9087  -11.3151 C   0  0  0  0  0  0  0  0  0  0  0  0
   -8.2444    6.8047   -8.8732 C   0  0  0  0  0  0  0  0  0  0  0  0
   -7.9613    6.0714   -7.6082 N   0  0  0  0  0  0  0  0  0  0  0  0
   -8.3416    4.6536   -7.8609 C   0  0  0  0  0  0  0  0  0  0  0  0
   -7.0878    5.3917  -15.6485 C   0  0  0  0  0  0  0  0  0  0  0  0
   -8.1609    4.9440  -16.4430 C   0  0  0  0  0  0  0  0  0  0  0  0
   -8.0441    4.7949  -17.8464 C   0  0  0  0  0  0  0  0  0  0  0  0
   -9.1915    4.4061  -18.7435 C   0  0  0  0  0  0  0  0  0  0  0  0
  -10.0457    3.3449  -18.1210 C   0  0  0  0  0  0  0  0  0  0  0  0
  -11.3779    3.8236  -17.8256 N   0  0  0  0  0  0  0  0  0  0  0  0
   -6.8413    5.0832  -18.4747 C   0  0  0  0  0  0  0  0  0  0  0  0
   -5.7886    5.5785  -17.7383 C   0  0  0  0  0  0  0  0  0  0  0  0
   -5.9078    5.7917  -16.3521 C   0  0  0  0  0  0  0  0  0  0  0  0
   -4.7278    6.4932  -15.7185 C   0  0  0  0  0  0  0  0  0  0  0  0
   -5.1425    7.7133  -15.0010 N   0  0  0  0  0  0  0  0  0  0  0  0
   -4.0931    8.1180  -14.0965 N   0  0  0  0  0  0  0  0  0  0  0  0
  1  2  3  0
  2  3  1  0
  3  4  1  6
  3  5  1  0
  5  6  1  0
  6  7  2  0
  7  8  1  0
  8  9  2  0
  9 10  1  0
 10 11  2  0
 10 12  1  0
 12 13  1  0
 13 14  1  0
  3 15  1  0
 15 16  2  0
 16 17  1  0
 17 18  1  0
 18 19  1  0
 19 20  1  0
 17 21  2  0
 21 22  1  0
 22 23  2  0
 23 24  1  0
 24 25  1  0
 25 26  1  0
 11  6  1  0
 23 15  1  0
 14  9  1  0
M  END
>  <smiles>  (473) 
C98583-P121

>  <fragmenstein_outcome>  (473) 
acceptable

>  <inchikey>  (473) 
RMEXUDYZUCAWDJ-UHFFFAOYSA-N

>  <fragmenstein_mode>  (473) 
expansion

>  <HIPPO Pose ID>  (473) 
16601

>  <Energy>  (473) 
136.329361

>  <fragmenstein_error>  (473) 


>  <tags>  (473) 
{'openbind_xx01zvns2b_c1_fragmenstein', 'fragmenstein_placed'}

>  <ref_pdb>  (473) 
1

>  <scratch_subdir>  (473) 
/opt/xchem-fragalysis-2/maxwin/BulkDock/SCRATCH/511027/C98583-P121

>  <alias>  (473) 
N#C[C@](O)(Nc1ccc2c(c1)CNC2)c1cc(CCN)ccc1CNN

>  <HIPPO Compound ID>  (473) 
81721

>  <fragmenstein_runtime>  (473) 
4.161676

$$$$
N#C[C@@](C=O)(Nc1ccc2c(c1)[C@@H](N)NC2)c1cc(Cl)c2[nH]c(=O)n3ncc1c23
     RDKit          3D

 29 33  0  0  0  0  0  0  0  0999 V2000
   -5.5919    6.6361  -13.7167 N   0  0  0  0  0  0  0  0  0  0  0  0
   -6.2898    5.7048  -13.7412 C   0  0  0  0  0  0  0  0  0  0  0  0
   -7.1170    4.4919  -14.0265 C   0  0  1  0  0  0  0  0  0  0  0  0
   -6.3528    3.2340  -13.5652 C   0  0  0  0  0  0  0  0  0  0  0  0
   -5.1312    3.1372  -13.4535 O   0  0  0  0  0  0  0  0  0  0  0  0
   -8.4883    4.5157  -13.4080 N   0  0  0  0  0  0  0  0  0  0  0  0
   -8.4753    4.6463  -11.9937 C   0  0  0  0  0  0  0  0  0  0  0  0
   -8.5969    3.5031  -11.1744 C   0  0  0  0  0  0  0  0  0  0  0  0
   -8.5225    3.5932   -9.7813 C   0  0  0  0  0  0  0  0  0  0  0  0
   -8.3333    4.8403   -9.2197 C   0  0  0  0  0  0  0  0  0  0  0  0
   -8.2125    5.9771  -10.0119 C   0  0  0  0  0  0  0  0  0  0  0  0
   -8.2745    5.8970  -11.3956 C   0  0  0  0  0  0  0  0  0  0  0  0
   -8.0018    7.1633   -9.1310 C   0  0  1  0  0  0  0  0  0  0  0  0
   -8.9388    8.2224   -9.3653 N   0  0  0  0  0  0  0  0  0  0  0  0
   -8.2793    6.7112   -7.7682 N   0  0  0  0  0  0  0  0  0  0  0  0
   -8.2138    5.2280   -7.7866 C   0  0  0  0  0  0  0  0  0  0  0  0
   -7.2093    4.4378  -15.5586 C   0  0  0  0  0  0  0  0  0  0  0  0
   -8.4494    4.3172  -16.3066 C   0  0  0  0  0  0  0  0  0  0  0  0
   -8.5203    4.3692  -17.7307 C   0  0  0  0  0  0  0  0  0  0  0  0
  -10.0367    4.2305  -18.5129 Cl  0  0  0  0  0  0  0  0  0  0  0  0
   -7.3536    4.5603  -18.4281 C   0  0  0  0  0  0  0  0  0  0  0  0
   -6.8431    4.7990  -19.7204 N   0  0  0  0  0  0  0  0  0  0  0  0
   -5.4479    5.1049  -19.6923 C   0  0  0  0  0  0  0  0  0  0  0  0
   -4.6760    5.5295  -20.5293 O   0  0  0  0  0  0  0  0  0  0  0  0
   -5.1261    4.9017  -18.3448 N   0  0  0  0  0  0  0  0  0  0  0  0
   -4.0599    5.0245  -17.5400 N   0  0  0  0  0  0  0  0  0  0  0  0
   -4.6179    4.8041  -16.3170 C   0  0  0  0  0  0  0  0  0  0  0  0
   -6.0411    4.5982  -16.3522 C   0  0  0  0  0  0  0  0  0  0  0  0
   -6.2465    4.6348  -17.6725 C   0  0  0  0  0  0  0  0  0  0  0  0
  1  2  3  0
  3  2  1  6
  3  4  1  0
  4  5  2  0
  3  6  1  0
  6  7  1  0
  7  8  2  0
  8  9  1  0
  9 10  2  0
 10 11  1  0
 11 12  2  0
 11 13  1  0
 13 14  1  6
 13 15  1  0
 15 16  1  0
  3 17  1  0
 17 18  2  0
 18 19  1  0
 19 20  1  0
 19 21  2  0
 21 22  1  0
 22 23  1  0
 23 24  2  0
 23 25  1  0
 25 26  1  0
 26 27  2  0
 27 28  1  0
 28 29  2  0
 12  7  1  0
 28 17  1  0
 16 10  1  0
 29 21  1  0
 29 25  1  0
M  END
>  <smiles>  (474) 
C98603-P121

>  <fragmenstein_outcome>  (474) 
acceptable

>  <inchikey>  (474) 
SXFSSWHNOZYGGA-UHFFFAOYSA-N

>  <fragmenstein_mode>  (474) 
expansion

>  <HIPPO Pose ID>  (474) 
16610

>  <Energy>  (474) 
140.737071

>  <fragmenstein_error>  (474) 


>  <tags>  (474) 
{'openbind_xx01zvns2b_c1_fragmenstein', 'fragmenstein_placed'}

>  <ref_pdb>  (474) 
1

>  <scratch_subdir>  (474) 
/opt/xchem-fragalysis-2/maxwin/BulkDock/SCRATCH/511027/C98603-P121

>  <alias>  (474) 
N#C[C@@](C=O)(Nc1ccc2c(c1)[C@@H](N)NC2)c1cc(Cl)c2[nH]c(=O)n3ncc1c23

>  <HIPPO Compound ID>  (474) 
89571

>  <fragmenstein_runtime>  (474) 
2.560611

$$$$
N#C[C@](O)(Nc1ccc2c(c1)CNC2)c1cc(Cl)c2c3c1C=NC=3C(=O)N=2
     RDKit          3D

 27 31  0  0  0  0  0  0  0  0999 V2000
   -5.0262    5.4433  -12.9310 N   0  0  0  0  0  0  0  0  0  0  0  0
   -6.0908    5.4211  -13.4014 C   0  0  0  0  0  0  0  0  0  0  0  0
   -7.4424    5.3817  -14.0376 C   0  0  2  0  0  0  0  0  0  0  0  0
   -8.0082    6.6840  -14.0959 O   0  0  0  0  0  0  0  0  0  0  0  0
   -8.4189    4.5738  -13.3028 N   0  0  0  0  0  0  0  0  0  0  0  0
   -8.3826    4.5998  -11.8852 C   0  0  0  0  0  0  0  0  0  0  0  0
   -8.6487    3.4041  -11.1840 C   0  0  0  0  0  0  0  0  0  0  0  0
   -8.6280    3.3457   -9.7861 C   0  0  0  0  0  0  0  0  0  0  0  0
   -8.3741    4.5081   -9.0887 C   0  0  0  0  0  0  0  0  0  0  0  0
   -8.1581    5.7065   -9.7543 C   0  0  0  0  0  0  0  0  0  0  0  0
   -8.1697    5.7738  -11.1398 C   0  0  0  0  0  0  0  0  0  0  0  0
   -7.8956    6.7799   -8.7519 C   0  0  0  0  0  0  0  0  0  0  0  0
   -8.2943    6.2043   -7.4396 N   0  0  0  0  0  0  0  0  0  0  0  0
   -8.2535    4.7264   -7.6197 C   0  0  0  0  0  0  0  0  0  0  0  0
   -7.3474    4.9443  -15.5031 C   0  0  0  0  0  0  0  0  0  0  0  0
   -8.6076    4.5555  -16.2503 C   0  0  0  0  0  0  0  0  0  0  0  0
   -8.6858    4.3272  -17.5914 C   0  0  0  0  0  0  0  0  0  0  0  0
  -10.1712    4.0269  -18.3773 Cl  0  0  0  0  0  0  0  0  0  0  0  0
   -7.4531    4.4324  -18.4158 C   0  0  0  0  0  0  0  0  0  0  0  0
   -6.3504    4.7078  -17.5923 C   0  0  0  0  0  0  0  0  0  0  0  0
   -6.2222    5.0128  -16.2435 C   0  0  0  0  0  0  0  0  0  0  0  0
   -4.7624    5.3866  -16.2733 C   0  0  0  0  0  0  0  0  0  0  0  0
   -4.2139    5.3293  -17.4780 N   0  0  0  0  0  0  0  0  0  0  0  0
   -5.2519    4.8973  -18.2718 C   0  0  0  0  0  0  0  0  0  0  0  0
   -5.7006    4.7063  -19.6710 C   0  0  0  0  0  0  0  0  0  0  0  0
   -5.0142    4.8577  -20.6667 O   0  0  0  0  0  0  0  0  0  0  0  0
   -7.0634    4.3656  -19.6439 N   0  0  0  0  0  0  0  0  0  0  0  0
  1  2  3  0
  2  3  1  0
  3  4  1  6
  3  5  1  0
  5  6  1  0
  6  7  2  0
  7  8  1  0
  8  9  2  0
  9 10  1  0
 10 11  2  0
 10 12  1  0
 12 13  1  0
 13 14  1  0
  3 15  1  0
 15 16  1  0
 16 17  2  0
 17 18  1  0
 17 19  1  0
 19 20  1  0
 20 21  1  0
 21 22  1  0
 22 23  2  0
 23 24  1  0
 24 25  1  0
 25 26  2  0
 25 27  1  0
 11  6  1  0
 21 15  2  0
 14  9  1  0
 27 19  2  0
 24 20  2  0
M  END
>  <smiles>  (475) 
C98606-P121

>  <fragmenstein_outcome>  (475) 
acceptable

>  <inchikey>  (475) 
GYKIBNJFRQBKLE-UHFFFAOYSA-O

>  <fragmenstein_mode>  (475) 
expansion

>  <HIPPO Pose ID>  (475) 
16613

>  <Energy>  (475) 
139.511173

>  <fragmenstein_error>  (475) 


>  <tags>  (475) 
{'openbind_xx01zvns2b_c1_fragmenstein', 'fragmenstein_placed'}

>  <ref_pdb>  (475) 
1

>  <scratch_subdir>  (475) 
/opt/xchem-fragalysis-2/maxwin/BulkDock/SCRATCH/511027/C98606-P121

>  <alias>  (475) 
N#C[C@](O)(Nc1ccc2c(c1)CNC2)c1cc(Cl)c2c3c1C=NC=3C(=O)N=2

>  <HIPPO Compound ID>  (475) 
90779

>  <fragmenstein_runtime>  (475) 
1.905146

$$$$
COCCOn1c2cc(Cl)cc([C@@H](C#N)Nc3ccc4c(c3)CNC4)c2c(C)[n+]1[O-]
     RDKit          3D

 30 33  0  0  0  0  0  0  0  0999 V2000
   -2.7151    8.6303  -21.9226 C   0  0  0  0  0  0  0  0  0  0  0  0
   -3.6185    8.2752  -20.8864 O   0  0  0  0  0  0  0  0  0  0  0  0
   -3.8049    6.8609  -20.8005 C   0  0  0  0  0  0  0  0  0  0  0  0
   -4.7138    6.5641  -19.6144 C   0  0  0  0  0  0  0  0  0  0  0  0
   -4.7731    5.1562  -19.3788 O   0  0  0  0  0  0  0  0  0  0  0  0
   -5.1243    4.9608  -18.0282 N   0  0  0  0  0  0  0  0  0  0  0  0
   -6.4081    4.7464  -17.5755 C   0  0  0  0  0  0  0  0  0  0  0  0
   -7.6064    4.5460  -18.2633 C   0  0  0  0  0  0  0  0  0  0  0  0
   -8.7567    4.3957  -17.4987 C   0  0  0  0  0  0  0  0  0  0  0  0
  -10.2621    4.1366  -18.2897 Cl  0  0  0  0  0  0  0  0  0  0  0  0
   -8.7220    4.5123  -16.1095 C   0  0  0  0  0  0  0  0  0  0  0  0
   -7.5172    4.7357  -15.3988 C   0  0  0  0  0  0  0  0  0  0  0  0
   -7.5154    5.0611  -13.9033 C   0  0  1  0  0  0  0  0  0  0  0  0
   -7.2631    6.5285  -13.7726 C   0  0  0  0  0  0  0  0  0  0  0  0
   -7.0244    7.6650  -13.6927 N   0  0  0  0  0  0  0  0  0  0  0  0
   -8.7448    4.6131  -13.2117 N   0  0  0  0  0  0  0  0  0  0  0  0
   -8.5755    4.5788  -11.7957 C   0  0  0  0  0  0  0  0  0  0  0  0
   -8.5590    3.3377  -11.1292 C   0  0  0  0  0  0  0  0  0  0  0  0
   -8.4040    3.2573   -9.7419 C   0  0  0  0  0  0  0  0  0  0  0  0
   -8.2522    4.4310   -9.0305 C   0  0  0  0  0  0  0  0  0  0  0  0
   -8.2630    5.6627   -9.6698 C   0  0  0  0  0  0  0  0  0  0  0  0
   -8.4324    5.7556  -11.0422 C   0  0  0  0  0  0  0  0  0  0  0  0
   -8.1418    6.7455   -8.6523 C   0  0  0  0  0  0  0  0  0  0  0  0
   -7.7592    6.0656   -7.3844 N   0  0  0  0  0  0  0  0  0  0  0  0
   -8.1174    4.6312   -7.5610 C   0  0  0  0  0  0  0  0  0  0  0  0
   -6.3083    4.7936  -16.1580 C   0  0  0  0  0  0  0  0  0  0  0  0
   -4.8977    4.9409  -15.7599 C   0  0  0  0  0  0  0  0  0  0  0  0
   -4.2076    4.9909  -14.4586 C   0  0  0  0  0  0  0  0  0  0  0  0
   -4.1830    5.0475  -16.8961 N   0  0  0  0  0  0  0  0  0  0  0  0
   -2.9535    5.2496  -17.0661 O   0  0  0  0  0  0  0  0  0  0  0  0
  1  2  1  0
  2  3  1  0
  3  4  1  0
  4  5  1  0
  5  6  1  0
  6  7  1  0
  7  8  2  0
  8  9  1  0
  9 10  1  0
  9 11  2  0
 11 12  1  0
 12 13  1  0
 13 14  1  6
 14 15  3  0
 13 16  1  0
 16 17  1  0
 17 18  2  0
 18 19  1  0
 19 20  2  0
 20 21  1  0
 21 22  2  0
 21 23  1  0
 23 24  1  0
 24 25  1  0
 12 26  2  0
 26 27  1  0
 27 28  1  0
 27 29  2  0
 29 30  1  0
 29  6  1  0
 26  7  1  0
 22 17  1  0
 25 20  1  0
M  CHG  2  29   1  30  -1
M  END
>  <smiles>  (476) 
C98608-P121

>  <fragmenstein_outcome>  (476) 
acceptable

>  <inchikey>  (476) 
DYQWIHKGEYKMTI-UHFFFAOYSA-N

>  <fragmenstein_mode>  (476) 
expansion

>  <HIPPO Pose ID>  (476) 
16614

>  <Energy>  (476) 
126.777743

>  <fragmenstein_error>  (476) 


>  <tags>  (476) 
{'openbind_xx01zvns2b_c1_fragmenstein', 'fragmenstein_placed'}

>  <ref_pdb>  (476) 
1

>  <scratch_subdir>  (476) 
/opt/xchem-fragalysis-2/maxwin/BulkDock/SCRATCH/511027/C98608-P121

>  <alias>  (476) 
COCCOn1c2cc(Cl)cc([C@@H](C#N)Nc3ccc4c(c3)CNC4)c2c(C)[n+]1[O-]

>  <HIPPO Compound ID>  (476) 
97218

>  <fragmenstein_runtime>  (476) 
4.329224

$$$$
N#Cn1ncc2c([C@@](O)(C#N)Nc3ccc4c(c3)CNC4)cc(Cl)cc21
     RDKit          3D

 26 29  0  0  0  0  0  0  0  0999 V2000
   -5.2541    4.8572  -21.1560 N   0  0  0  0  0  0  0  0  0  0  0  0
   -5.4178    4.9360  -20.0065 C   0  0  0  0  0  0  0  0  0  0  0  0
   -5.6416    5.0263  -18.5348 N   0  0  0  0  0  0  0  0  0  0  0  0
   -4.6914    5.4299  -17.6535 N   0  0  0  0  0  0  0  0  0  0  0  0
   -5.3195    5.4147  -16.4772 C   0  0  0  0  0  0  0  0  0  0  0  0
   -6.6767    5.0213  -16.5562 C   0  0  0  0  0  0  0  0  0  0  0  0
   -7.7672    4.8844  -15.6472 C   0  0  0  0  0  0  0  0  0  0  0  0
   -7.7725    5.3057  -14.1633 C   0  0  1  0  0  0  0  0  0  0  0  0
   -6.5266    5.9254  -13.8816 O   0  0  0  0  0  0  0  0  0  0  0  0
   -8.9020    6.2618  -13.9212 C   0  0  0  0  0  0  0  0  0  0  0  0
   -9.8213    6.9403  -13.6981 N   0  0  0  0  0  0  0  0  0  0  0  0
   -7.8393    4.1496  -13.2744 N   0  0  0  0  0  0  0  0  0  0  0  0
   -8.0630    4.2986  -11.8852 C   0  0  0  0  0  0  0  0  0  0  0  0
   -8.4139    3.1432  -11.1583 C   0  0  0  0  0  0  0  0  0  0  0  0
   -8.5744    3.1497   -9.7679 C   0  0  0  0  0  0  0  0  0  0  0  0
   -8.3551    4.3293   -9.0917 C   0  0  0  0  0  0  0  0  0  0  0  0
   -7.9989    5.4814   -9.7748 C   0  0  0  0  0  0  0  0  0  0  0  0
   -7.8288    5.4790  -11.1542 C   0  0  0  0  0  0  0  0  0  0  0  0
   -7.8720    6.6025   -8.7993 C   0  0  0  0  0  0  0  0  0  0  0  0
   -7.8415    5.9636   -7.4551 N   0  0  0  0  0  0  0  0  0  0  0  0
   -8.4374    4.6115   -7.6326 C   0  0  0  0  0  0  0  0  0  0  0  0
   -8.9835    4.4335  -16.2245 C   0  0  0  0  0  0  0  0  0  0  0  0
   -9.1449    4.2552  -17.5953 C   0  0  0  0  0  0  0  0  0  0  0  0
  -10.7064    3.9748  -18.2364 Cl  0  0  0  0  0  0  0  0  0  0  0  0
   -8.0837    4.4038  -18.4701 C   0  0  0  0  0  0  0  0  0  0  0  0
   -6.8561    4.7796  -17.9203 C   0  0  0  0  0  0  0  0  0  0  0  0
  1  2  3  0
  2  3  1  0
  3  4  1  0
  4  5  2  0
  5  6  1  0
  6  7  2  0
  7  8  1  0
  8  9  1  1
  8 10  1  0
 10 11  3  0
  8 12  1  0
 12 13  1  0
 13 14  2  0
 14 15  1  0
 15 16  2  0
 16 17  1  0
 17 18  2  0
 17 19  1  0
 19 20  1  0
 20 21  1  0
  7 22  1  0
 22 23  2  0
 23 24  1  0
 23 25  1  0
 25 26  2  0
 26  3  1  0
 26  6  1  0
 18 13  1  0
 21 16  1  0
M  END
>  <smiles>  (477) 
C98615-P121

>  <fragmenstein_outcome>  (477) 
acceptable

>  <inchikey>  (477) 
RHHULKMZXXMHSH-UHFFFAOYSA-N

>  <fragmenstein_mode>  (477) 
expansion

>  <HIPPO Pose ID>  (477) 
16620

>  <Energy>  (477) 
96.909999

>  <fragmenstein_error>  (477) 


>  <tags>  (477) 
{'openbind_xx01zvns2b_c1_fragmenstein', 'fragmenstein_placed'}

>  <ref_pdb>  (477) 
1

>  <scratch_subdir>  (477) 
/opt/xchem-fragalysis-2/maxwin/BulkDock/SCRATCH/511027/C98615-P121

>  <alias>  (477) 
N#Cn1ncc2c([C@@](O)(C#N)Nc3ccc4c(c3)CNC4)cc(Cl)cc21

>  <HIPPO Compound ID>  (477) 
98615

>  <fragmenstein_runtime>  (477) 
1.592266

$$$$
CCn1ncc2c([C@@](C#N)(Nc3ccc4c(c3)CNC4)C(=O)NCC(F)F)cc(Cl)cc21
     RDKit          3D

 32 35  0  0  0  0  0  0  0  0999 V2000
   -3.8712    6.1382  -20.1665 C   0  0  0  0  0  0  0  0  0  0  0  0
   -5.2359    5.6838  -19.6823 C   0  0  0  0  0  0  0  0  0  0  0  0
   -5.3478    5.4728  -18.2510 N   0  0  0  0  0  0  0  0  0  0  0  0
   -4.3699    5.8749  -17.4225 N   0  0  0  0  0  0  0  0  0  0  0  0
   -4.8936    5.6996  -16.2097 C   0  0  0  0  0  0  0  0  0  0  0  0
   -6.2219    5.2041  -16.2372 C   0  0  0  0  0  0  0  0  0  0  0  0
   -7.2281    4.9157  -15.2692 C   0  0  0  0  0  0  0  0  0  0  0  0
   -7.0600    5.2030  -13.7356 C   0  0  1  0  0  0  0  0  0  0  0  0
   -7.0563    6.6876  -13.6033 C   0  0  0  0  0  0  0  0  0  0  0  0
   -7.0138    7.8430  -13.4671 N   0  0  0  0  0  0  0  0  0  0  0  0
   -8.2064    4.5320  -13.0262 N   0  0  0  0  0  0  0  0  0  0  0  0
   -8.3045    4.5544  -11.6280 C   0  0  0  0  0  0  0  0  0  0  0  0
   -8.3646    3.3219  -10.9395 C   0  0  0  0  0  0  0  0  0  0  0  0
   -8.3752    3.2608   -9.5455 C   0  0  0  0  0  0  0  0  0  0  0  0
   -8.3018    4.4474   -8.8487 C   0  0  0  0  0  0  0  0  0  0  0  0
   -8.2878    5.6725   -9.5065 C   0  0  0  0  0  0  0  0  0  0  0  0
   -8.3466    5.7445  -10.8880 C   0  0  0  0  0  0  0  0  0  0  0  0
   -8.1996    6.7634   -8.4905 C   0  0  0  0  0  0  0  0  0  0  0  0
   -7.7810    6.0825   -7.2311 N   0  0  0  0  0  0  0  0  0  0  0  0
   -8.2362    4.6744   -7.3794 C   0  0  0  0  0  0  0  0  0  0  0  0
   -5.6363    4.6355  -13.1650 C   0  0  0  0  0  0  0  0  0  0  0  0
   -5.0110    3.8946  -13.8181 O   0  0  0  0  0  0  0  0  0  0  0  0
   -5.3307    5.2518  -11.7656 N   0  0  0  0  0  0  0  0  0  0  0  0
   -4.2368    5.0044  -10.8474 C   0  0  0  0  0  0  0  0  0  0  0  0
   -4.6358    4.3138   -9.5456 C   0  0  0  0  0  0  0  0  0  0  0  0
   -5.2093    5.2251   -8.7112 F   0  0  0  0  0  0  0  0  0  0  0  0
   -3.5141    3.8868   -8.9035 F   0  0  0  0  0  0  0  0  0  0  0  0
   -8.4794    4.4863  -15.8044 C   0  0  0  0  0  0  0  0  0  0  0  0
   -8.6878    4.3100  -17.1718 C   0  0  0  0  0  0  0  0  0  0  0  0
  -10.2498    3.9424  -17.7712 Cl  0  0  0  0  0  0  0  0  0  0  0  0
   -7.6828    4.5496  -18.0930 C   0  0  0  0  0  0  0  0  0  0  0  0
   -6.4732    5.0307  -17.5976 C   0  0  0  0  0  0  0  0  0  0  0  0
  1  2  1  0
  2  3  1  0
  3  4  1  0
  4  5  2  0
  5  6  1  0
  6  7  2  0
  7  8  1  0
  8  9  1  6
  9 10  3  0
  8 11  1  0
 11 12  1  0
 12 13  2  0
 13 14  1  0
 14 15  2  0
 15 16  1  0
 16 17  2  0
 16 18  1  0
 18 19  1  0
 19 20  1  0
  8 21  1  0
 21 22  2  0
 21 23  1  0
 23 24  1  0
 24 25  1  0
 25 26  1  0
 25 27  1  0
  7 28  1  0
 28 29  2  0
 29 30  1  0
 29 31  1  0
 31 32  2  0
 32  3  1  0
 32  6  1  0
 17 12  1  0
 20 15  1  0
M  END
>  <smiles>  (478) 
C98563-P135

>  <fragmenstein_outcome>  (478) 
acceptable

>  <inchikey>  (478) 
TZJGKAJKVCODGJ-UHFFFAOYSA-N

>  <fragmenstein_mode>  (478) 
expansion

>  <HIPPO Pose ID>  (478) 
16628

>  <Energy>  (478) 
187.837432

>  <fragmenstein_error>  (478) 


>  <tags>  (478) 
{'openbind_xx01zvns2b_c1_fragmenstein', 'fragmenstein_placed'}

>  <ref_pdb>  (478) 
1

>  <scratch_subdir>  (478) 
/opt/xchem-fragalysis-2/maxwin/BulkDock/SCRATCH/511027/C98563-P135

>  <alias>  (478) 
CCn1ncc2c([C@@](C#N)(Nc3ccc4c(c3)CNC4)C(=O)NCC(F)F)cc(Cl)cc21

>  <HIPPO Compound ID>  (478) 
83563

>  <fragmenstein_runtime>  (478) 
4.181252

$$$$
CNCn1ncc2c([C@](O)(C#N)Nc3ccc4c(c3)CNC4)cc(Cl)cc21
     RDKit          3D

 27 30  0  0  0  0  0  0  0  0999 V2000
   -3.8182    6.9520  -21.0373 C   0  0  0  0  0  0  0  0  0  0  0  0
   -3.9079    5.8941  -20.0474 N   0  0  0  0  0  0  0  0  0  0  0  0
   -5.3111    5.5879  -19.7335 C   0  0  0  0  0  0  0  0  0  0  0  0
   -5.4376    5.3546  -18.2855 N   0  0  0  0  0  0  0  0  0  0  0  0
   -4.4726    5.7953  -17.4379 N   0  0  0  0  0  0  0  0  0  0  0  0
   -4.9986    5.5882  -16.2316 C   0  0  0  0  0  0  0  0  0  0  0  0
   -6.3203    5.0784  -16.2778 C   0  0  0  0  0  0  0  0  0  0  0  0
   -7.3224    4.7726  -15.3146 C   0  0  0  0  0  0  0  0  0  0  0  0
   -7.1237    5.0057  -13.8145 C   0  0  2  0  0  0  0  0  0  0  0  0
   -7.1792    6.4249  -13.7318 O   0  0  0  0  0  0  0  0  0  0  0  0
   -5.8049    4.4909  -13.3254 C   0  0  0  0  0  0  0  0  0  0  0  0
   -4.7577    4.1302  -12.9650 N   0  0  0  0  0  0  0  0  0  0  0  0
   -8.2716    4.4956  -13.0486 N   0  0  0  0  0  0  0  0  0  0  0  0
   -8.2205    4.5512  -11.6366 C   0  0  0  0  0  0  0  0  0  0  0  0
   -8.5689    3.3913  -10.9083 C   0  0  0  0  0  0  0  0  0  0  0  0
   -8.5753    3.3729   -9.5109 C   0  0  0  0  0  0  0  0  0  0  0  0
   -8.2691    4.5407   -8.8449 C   0  0  0  0  0  0  0  0  0  0  0  0
   -7.9481    5.6985   -9.5398 C   0  0  0  0  0  0  0  0  0  0  0  0
   -7.9187    5.7227  -10.9254 C   0  0  0  0  0  0  0  0  0  0  0  0
   -7.6308    6.7803   -8.5634 C   0  0  0  0  0  0  0  0  0  0  0  0
   -8.1180    6.2825   -7.2463 N   0  0  0  0  0  0  0  0  0  0  0  0
   -8.1820    4.8007   -7.3822 C   0  0  0  0  0  0  0  0  0  0  0  0
   -8.5897    4.4119  -15.8369 C   0  0  0  0  0  0  0  0  0  0  0  0
   -8.8203    4.3014  -17.2021 C   0  0  0  0  0  0  0  0  0  0  0  0
  -10.4251    4.0997  -17.7550 Cl  0  0  0  0  0  0  0  0  0  0  0  0
   -7.8106    4.5019  -18.1306 C   0  0  0  0  0  0  0  0  0  0  0  0
   -6.5789    4.9352  -17.6394 C   0  0  0  0  0  0  0  0  0  0  0  0
  1  2  1  0
  2  3  1  0
  3  4  1  0
  4  5  1  0
  5  6  2  0
  6  7  1  0
  7  8  2  0
  8  9  1  0
  9 10  1  6
  9 11  1  0
 11 12  3  0
  9 13  1  0
 13 14  1  0
 14 15  2  0
 15 16  1  0
 16 17  2  0
 17 18  1  0
 18 19  2  0
 18 20  1  0
 20 21  1  0
 21 22  1  0
  8 23  1  0
 23 24  2  0
 24 25  1  0
 24 26  1  0
 26 27  2  0
 27  4  1  0
 27  7  1  0
 19 14  1  0
 22 17  1  0
M  END
>  <smiles>  (479) 
C98622-P136

>  <fragmenstein_outcome>  (479) 
acceptable

>  <inchikey>  (479) 
WUSGLUSCFHWDDC-UHFFFAOYSA-N

>  <fragmenstein_mode>  (479) 
expansion

>  <HIPPO Pose ID>  (479) 
16629

>  <Energy>  (479) 
93.849329

>  <fragmenstein_error>  (479) 


>  <tags>  (479) 
{'openbind_xx01zvns2b_c1_fragmenstein', 'fragmenstein_placed'}

>  <ref_pdb>  (479) 
1

>  <scratch_subdir>  (479) 
/opt/xchem-fragalysis-2/maxwin/BulkDock/SCRATCH/511027/C98622-P136

>  <alias>  (479) 
CNCn1ncc2c([C@](O)(C#N)Nc3ccc4c(c3)CNC4)cc(Cl)cc21

>  <HIPPO Compound ID>  (479) 
98622

>  <fragmenstein_runtime>  (479) 
2.229352

$$$$
CCn1ncc2c([C@@](C#N)(Nc3ccc4c(c3)CNC4)C(=O)NCCCF)cc(Cl)cc21
     RDKit          3D

 32 35  0  0  0  0  0  0  0  0999 V2000
   -4.9489    6.6201  -20.2723 C   0  0  0  0  0  0  0  0  0  0  0  0
   -5.0695    5.1737  -19.8323 C   0  0  0  0  0  0  0  0  0  0  0  0
   -5.3584    5.0652  -18.4159 N   0  0  0  0  0  0  0  0  0  0  0  0
   -4.3650    5.2926  -17.5352 N   0  0  0  0  0  0  0  0  0  0  0  0
   -4.9717    5.1908  -16.3532 C   0  0  0  0  0  0  0  0  0  0  0  0
   -6.3584    4.9051  -16.4558 C   0  0  0  0  0  0  0  0  0  0  0  0
   -7.4365    4.7352  -15.5348 C   0  0  0  0  0  0  0  0  0  0  0  0
   -7.2570    4.9562  -14.0016 C   0  0  1  0  0  0  0  0  0  0  0  0
   -6.9549    6.4143  -13.8576 C   0  0  0  0  0  0  0  0  0  0  0  0
   -6.6898    7.5403  -13.7263 N   0  0  0  0  0  0  0  0  0  0  0  0
   -8.5174    4.5545  -13.2744 N   0  0  0  0  0  0  0  0  0  0  0  0
   -8.4890    4.6106  -11.8625 C   0  0  0  0  0  0  0  0  0  0  0  0
   -8.4809    3.4086  -11.1240 C   0  0  0  0  0  0  0  0  0  0  0  0
   -8.3975    3.4078   -9.7292 C   0  0  0  0  0  0  0  0  0  0  0  0
   -8.3106    4.6231   -9.0806 C   0  0  0  0  0  0  0  0  0  0  0  0
   -8.3293    5.8181   -9.7889 C   0  0  0  0  0  0  0  0  0  0  0  0
   -8.4337    5.8314  -11.1719 C   0  0  0  0  0  0  0  0  0  0  0  0
   -8.2867    6.9574   -8.8274 C   0  0  0  0  0  0  0  0  0  0  0  0
   -7.9403    6.3589   -7.5097 N   0  0  0  0  0  0  0  0  0  0  0  0
   -8.2452    4.9066   -7.6203 C   0  0  0  0  0  0  0  0  0  0  0  0
   -6.0119    4.0633  -13.4547 C   0  0  0  0  0  0  0  0  0  0  0  0
   -5.6564    3.1242  -14.0590 O   0  0  0  0  0  0  0  0  0  0  0  0
   -5.4651    4.6774  -12.1252 N   0  0  0  0  0  0  0  0  0  0  0  0
   -4.4397    4.2062  -11.2301 C   0  0  0  0  0  0  0  0  0  0  0  0
   -3.1089    4.8807  -11.5314 C   0  0  0  0  0  0  0  0  0  0  0  0
   -2.0430    4.4630  -10.5376 C   0  0  0  0  0  0  0  0  0  0  0  0
   -1.8128    3.1298  -10.6555 F   0  0  0  0  0  0  0  0  0  0  0  0
   -8.7054    4.4678  -16.1150 C   0  0  0  0  0  0  0  0  0  0  0  0
   -8.8853    4.3653  -17.4954 C   0  0  0  0  0  0  0  0  0  0  0  0
  -10.4529    4.0962  -18.1483 Cl  0  0  0  0  0  0  0  0  0  0  0  0
   -7.8270    4.5359  -18.3779 C   0  0  0  0  0  0  0  0  0  0  0  0
   -6.5743    4.8145  -17.8295 C   0  0  0  0  0  0  0  0  0  0  0  0
  1  2  1  0
  2  3  1  0
  3  4  1  0
  4  5  2  0
  5  6  1  0
  6  7  2  0
  7  8  1  0
  8  9  1  6
  9 10  3  0
  8 11  1  0
 11 12  1  0
 12 13  2  0
 13 14  1  0
 14 15  2  0
 15 16  1  0
 16 17  2  0
 16 18  1  0
 18 19  1  0
 19 20  1  0
  8 21  1  0
 21 22  2  0
 21 23  1  0
 23 24  1  0
 24 25  1  0
 25 26  1  0
 26 27  1  0
  7 28  1  0
 28 29  2  0
 29 30  1  0
 29 31  1  0
 31 32  2  0
 32  3  1  0
 32  6  1  0
 17 12  1  0
 20 15  1  0
M  END
>  <smiles>  (480) 
C98629-P121

>  <fragmenstein_outcome>  (480) 
acceptable

>  <inchikey>  (480) 
UHOOWWVGFAGAIE-UHFFFAOYSA-N

>  <fragmenstein_mode>  (480) 
expansion

>  <HIPPO Pose ID>  (480) 
16630

>  <Energy>  (480) 
149.885751

>  <fragmenstein_error>  (480) 


>  <tags>  (480) 
{'openbind_xx01zvns2b_c1_fragmenstein', 'fragmenstein_placed'}

>  <ref_pdb>  (480) 
1

>  <scratch_subdir>  (480) 
/opt/xchem-fragalysis-2/maxwin/BulkDock/SCRATCH/511027/C98629-P121

>  <alias>  (480) 
CCn1ncc2c([C@@](C#N)(Nc3ccc4c(c3)CNC4)C(=O)NCCCF)cc(Cl)cc21

>  <HIPPO Compound ID>  (480) 
71646

>  <fragmenstein_runtime>  (480) 
3.999068

$$$$
CNCn1ncc2c([C@@H](C#N)C(=O)c3cc(Br)c4c(c3)CNC4)cc(Cl)cc21
     RDKit          3D

 28 31  0  0  0  0  0  0  0  0999 V2000
   -4.6155    7.0078  -21.3335 C   0  0  0  0  0  0  0  0  0  0  0  0
   -5.2154    6.6748  -20.0520 N   0  0  0  0  0  0  0  0  0  0  0  0
   -4.9258    5.2792  -19.7010 C   0  0  0  0  0  0  0  0  0  0  0  0
   -5.1989    5.1229  -18.2732 N   0  0  0  0  0  0  0  0  0  0  0  0
   -4.1949    5.2778  -17.3821 N   0  0  0  0  0  0  0  0  0  0  0  0
   -4.8116    5.2000  -16.2049 C   0  0  0  0  0  0  0  0  0  0  0  0
   -6.1994    4.9259  -16.3140 C   0  0  0  0  0  0  0  0  0  0  0  0
   -7.2790    4.7406  -15.4052 C   0  0  0  0  0  0  0  0  0  0  0  0
   -7.1237    4.8498  -13.8904 C   0  0  1  0  0  0  0  0  0  0  0  0
   -6.1966    5.9278  -13.4962 C   0  0  0  0  0  0  0  0  0  0  0  0
   -5.4645    6.7605  -13.1498 N   0  0  0  0  0  0  0  0  0  0  0  0
   -8.3990    5.1163  -13.1029 C   0  0  0  0  0  0  0  0  0  0  0  0
   -9.4194    5.6430  -13.5420 O   0  0  0  0  0  0  0  0  0  0  0  0
   -8.3527    4.8136  -11.6591 C   0  0  0  0  0  0  0  0  0  0  0  0
   -8.1627    5.8838  -10.7653 C   0  0  0  0  0  0  0  0  0  0  0  0
   -8.1779    5.6471   -9.3919 C   0  0  0  0  0  0  0  0  0  0  0  0
   -7.9179    7.0792   -8.1910 Br  0  0  0  0  0  0  0  0  0  0  0  0
   -8.4184    4.3598   -8.9448 C   0  0  0  0  0  0  0  0  0  0  0  0
   -8.6045    3.3078   -9.8451 C   0  0  0  0  0  0  0  0  0  0  0  0
   -8.5553    3.5066  -11.2129 C   0  0  0  0  0  0  0  0  0  0  0  0
   -8.8772    2.0528   -9.0796 C   0  0  0  0  0  0  0  0  0  0  0  0
   -9.2171    2.5048   -7.7125 N   0  0  0  0  0  0  0  0  0  0  0  0
   -8.5518    3.8161   -7.5595 C   0  0  0  0  0  0  0  0  0  0  0  0
   -8.5134    4.3673  -15.9813 C   0  0  0  0  0  0  0  0  0  0  0  0
   -8.6933    4.2913  -17.3564 C   0  0  0  0  0  0  0  0  0  0  0  0
  -10.2676    4.0439  -17.9679 Cl  0  0  0  0  0  0  0  0  0  0  0  0
   -7.6480    4.5038  -18.2398 C   0  0  0  0  0  0  0  0  0  0  0  0
   -6.4081    4.8242  -17.6883 C   0  0  0  0  0  0  0  0  0  0  0  0
  1  2  1  0
  2  3  1  0
  3  4  1  0
  4  5  1  0
  5  6  2  0
  6  7  1  0
  7  8  2  0
  8  9  1  0
  9 10  1  6
 10 11  3  0
  9 12  1  0
 12 13  2  0
 12 14  1  0
 14 15  2  0
 15 16  1  0
 16 17  1  0
 16 18  2  0
 18 19  1  0
 19 20  2  0
 19 21  1  0
 21 22  1  0
 22 23  1  0
  8 24  1  0
 24 25  2  0
 25 26  1  0
 25 27  1  0
 27 28  2  0
 28  4  1  0
 28  7  1  0
 20 14  1  0
 23 18  1  0
M  END
>  <smiles>  (481) 
C98632-P149

>  <fragmenstein_outcome>  (481) 
acceptable

>  <inchikey>  (481) 
ZCEOKQDIURSHFF-UHFFFAOYSA-N

>  <fragmenstein_mode>  (481) 
expansion

>  <HIPPO Pose ID>  (481) 
16631

>  <Energy>  (481) 
119.849556

>  <fragmenstein_error>  (481) 


>  <tags>  (481) 
{'openbind_xx01zvns2b_c1_fragmenstein', 'fragmenstein_placed'}

>  <ref_pdb>  (481) 
1

>  <scratch_subdir>  (481) 
/opt/xchem-fragalysis-2/maxwin/BulkDock/SCRATCH/511027/C98632-P149

>  <alias>  (481) 
CNCn1ncc2c([C@@H](C#N)C(=O)c3cc(Br)c4c(c3)CNC4)cc(Cl)cc21

>  <HIPPO Compound ID>  (481) 
72377

>  <fragmenstein_runtime>  (481) 
2.394054

$$$$
CN(Cn1ncc2c([C@](O)(C#N)Nc3ccc4c(c3)CNC4)cc(Cl)cc21)C1CCOCC1
     RDKit          3D

 33 37  0  0  0  0  0  0  0  0999 V2000
   -5.7834    7.6543  -19.3958 C   0  0  0  0  0  0  0  0  0  0  0  0
   -4.8370    6.7885  -20.0727 N   0  0  0  0  0  0  0  0  0  0  0  0
   -4.8656    5.3710  -19.6696 C   0  0  0  0  0  0  0  0  0  0  0  0
   -5.2161    5.1751  -18.2566 N   0  0  0  0  0  0  0  0  0  0  0  0
   -4.2662    5.3221  -17.3038 N   0  0  0  0  0  0  0  0  0  0  0  0
   -4.9318    5.1138  -16.1662 C   0  0  0  0  0  0  0  0  0  0  0  0
   -6.3086    4.8275  -16.3600 C   0  0  0  0  0  0  0  0  0  0  0  0
   -7.4223    4.5576  -15.5050 C   0  0  0  0  0  0  0  0  0  0  0  0
   -7.2787    4.5295  -13.9750 C   0  0  2  0  0  0  0  0  0  0  0  0
   -6.7182    5.8023  -13.6761 O   0  0  0  0  0  0  0  0  0  0  0  0
   -6.3468    3.4277  -13.5719 C   0  0  0  0  0  0  0  0  0  0  0  0
   -5.6070    2.5743  -13.2893 N   0  0  0  0  0  0  0  0  0  0  0  0
   -8.5922    4.4859  -13.2909 N   0  0  0  0  0  0  0  0  0  0  0  0
   -8.5109    4.5365  -11.8665 C   0  0  0  0  0  0  0  0  0  0  0  0
   -8.5535    3.3416  -11.1177 C   0  0  0  0  0  0  0  0  0  0  0  0
   -8.4224    3.3464   -9.7258 C   0  0  0  0  0  0  0  0  0  0  0  0
   -8.2515    4.5596   -9.0903 C   0  0  0  0  0  0  0  0  0  0  0  0
   -8.2106    5.7469   -9.8103 C   0  0  0  0  0  0  0  0  0  0  0  0
   -8.3336    5.7548  -11.1911 C   0  0  0  0  0  0  0  0  0  0  0  0
   -7.9919    6.8806   -8.8667 C   0  0  0  0  0  0  0  0  0  0  0  0
   -8.2311    6.3210   -7.5089 N   0  0  0  0  0  0  0  0  0  0  0  0
   -8.0449    4.8486   -7.6434 C   0  0  0  0  0  0  0  0  0  0  0  0
   -8.6620    4.3336  -16.1537 C   0  0  0  0  0  0  0  0  0  0  0  0
   -8.7825    4.3480  -17.5424 C   0  0  0  0  0  0  0  0  0  0  0  0
  -10.3235    4.0988  -18.2636 Cl  0  0  0  0  0  0  0  0  0  0  0  0
   -7.6876    4.5953  -18.3638 C   0  0  0  0  0  0  0  0  0  0  0  0
   -6.4590    4.8492  -17.7450 C   0  0  0  0  0  0  0  0  0  0  0  0
   -3.5208    7.3561  -20.3955 C   0  0  0  0  0  0  0  0  0  0  0  0
   -3.6661    8.4430  -21.4704 C   0  0  0  0  0  0  0  0  0  0  0  0
   -2.3046    8.9403  -21.9448 C   0  0  0  0  0  0  0  0  0  0  0  0
   -1.2865    8.8599  -20.9509 O   0  0  0  0  0  0  0  0  0  0  0  0
   -1.7765    9.0605  -19.6322 C   0  0  0  0  0  0  0  0  0  0  0  0
   -2.6969    7.9106  -19.2132 C   0  0  0  0  0  0  0  0  0  0  0  0
  1  2  1  0
  2  3  1  0
  3  4  1  0
  4  5  1  0
  5  6  2  0
  6  7  1  0
  7  8  2  0
  8  9  1  0
  9 10  1  1
  9 11  1  0
 11 12  3  0
  9 13  1  0
 13 14  1  0
 14 15  2  0
 15 16  1  0
 16 17  2  0
 17 18  1  0
 18 19  2  0
 18 20  1  0
 20 21  1  0
 21 22  1  0
  8 23  1  0
 23 24  2  0
 24 25  1  0
 24 26  1  0
 26 27  2  0
  2 28  1  0
 28 29  1  0
 29 30  1  0
 30 31  1  0
 31 32  1  0
 32 33  1  0
 27  4  1  0
 33 28  1  0
 27  7  1  0
 19 14  1  0
 22 17  1  0
M  END
>  <smiles>  (482) 
C98639-P121

>  <fragmenstein_outcome>  (482) 
acceptable

>  <inchikey>  (482) 
XUHLIIGCAFLFKK-UHFFFAOYSA-N

>  <fragmenstein_mode>  (482) 
expansion

>  <HIPPO Pose ID>  (482) 
16633

>  <Energy>  (482) 
117.694793

>  <fragmenstein_error>  (482) 


>  <tags>  (482) 
{'openbind_xx01zvns2b_c1_fragmenstein', 'fragmenstein_placed'}

>  <ref_pdb>  (482) 
1

>  <scratch_subdir>  (482) 
/opt/xchem-fragalysis-2/maxwin/BulkDock/SCRATCH/511027/C98639-P121

>  <alias>  (482) 
CN(Cn1ncc2c([C@](O)(C#N)Nc3ccc4c(c3)CNC4)cc(Cl)cc21)C1CCOCC1

>  <HIPPO Compound ID>  (482) 
84262

>  <fragmenstein_runtime>  (482) 
7.908503

$$$$
CNCn1ncc2c([C@H](C#N)C(=O)c3ccc4c(c3)CN(C)C4)cc(Cl)cc21
     RDKit          3D

 28 31  0  0  0  0  0  0  0  0999 V2000
   -4.5707    6.8114  -21.6072 C   0  0  0  0  0  0  0  0  0  0  0  0
   -5.2218    6.5462  -20.3373 N   0  0  0  0  0  0  0  0  0  0  0  0
   -4.9271    5.1842  -19.8814 C   0  0  0  0  0  0  0  0  0  0  0  0
   -5.2595    5.1206  -18.4624 N   0  0  0  0  0  0  0  0  0  0  0  0
   -4.2932    5.3697  -17.5482 N   0  0  0  0  0  0  0  0  0  0  0  0
   -4.9517    5.3576  -16.3924 C   0  0  0  0  0  0  0  0  0  0  0  0
   -6.3281    5.0559  -16.5406 C   0  0  0  0  0  0  0  0  0  0  0  0
   -7.4301    4.9308  -15.6540 C   0  0  0  0  0  0  0  0  0  0  0  0
   -7.2621    5.2568  -14.1766 C   0  0  2  0  0  0  0  0  0  0  0  0
   -6.2638    4.3758  -13.5528 C   0  0  0  0  0  0  0  0  0  0  0  0
   -5.4310    3.7159  -13.0834 N   0  0  0  0  0  0  0  0  0  0  0  0
   -8.5215    5.3939  -13.3445 C   0  0  0  0  0  0  0  0  0  0  0  0
   -9.5852    5.8531  -13.7632 O   0  0  0  0  0  0  0  0  0  0  0  0
   -8.4270    5.1410  -11.8974 C   0  0  0  0  0  0  0  0  0  0  0  0
   -8.0589    6.1915  -11.0345 C   0  0  0  0  0  0  0  0  0  0  0  0
   -7.9693    5.9660   -9.6575 C   0  0  0  0  0  0  0  0  0  0  0  0
   -8.2816    4.7035   -9.1855 C   0  0  0  0  0  0  0  0  0  0  0  0
   -8.6725    3.6877  -10.0576 C   0  0  0  0  0  0  0  0  0  0  0  0
   -8.7268    3.8702  -11.4215 C   0  0  0  0  0  0  0  0  0  0  0  0
   -8.9576    2.4480   -9.2864 C   0  0  0  0  0  0  0  0  0  0  0  0
   -9.0218    2.8917   -7.8800 N   0  0  0  0  0  0  0  0  0  0  0  0
   -8.5071    1.8399   -7.0218 C   0  0  0  0  0  0  0  0  0  0  0  0
   -8.2495    4.1463   -7.7927 C   0  0  0  0  0  0  0  0  0  0  0  0
   -8.6552    4.5304  -16.2321 C   0  0  0  0  0  0  0  0  0  0  0  0
   -8.7957    4.3576  -17.6092 C   0  0  0  0  0  0  0  0  0  0  0  0
  -10.3430    4.0089  -18.2686 Cl  0  0  0  0  0  0  0  0  0  0  0  0
   -7.7216    4.5246  -18.4764 C   0  0  0  0  0  0  0  0  0  0  0  0
   -6.4924    4.8665  -17.9086 C   0  0  0  0  0  0  0  0  0  0  0  0
  1  2  1  0
  2  3  1  0
  3  4  1  0
  4  5  1  0
  5  6  2  0
  6  7  1  0
  7  8  2  0
  8  9  1  0
  9 10  1  1
 10 11  3  0
  9 12  1  0
 12 13  2  0
 12 14  1  0
 14 15  2  0
 15 16  1  0
 16 17  2  0
 17 18  1  0
 18 19  2  0
 18 20  1  0
 20 21  1  0
 21 22  1  0
 21 23  1  0
  8 24  1  0
 24 25  2  0
 25 26  1  0
 25 27  1  0
 27 28  2  0
 28  4  1  0
 28  7  1  0
 19 14  1  0
 23 17  1  0
M  END
>  <smiles>  (483) 
C98647-P121

>  <fragmenstein_outcome>  (483) 
acceptable

>  <inchikey>  (483) 
ASXFGLHJQQREAY-UHFFFAOYSA-N

>  <fragmenstein_mode>  (483) 
expansion

>  <HIPPO Pose ID>  (483) 
16638

>  <Energy>  (483) 
139.069781

>  <fragmenstein_error>  (483) 


>  <tags>  (483) 
{'openbind_xx01zvns2b_c1_fragmenstein', 'fragmenstein_placed'}

>  <ref_pdb>  (483) 
1

>  <scratch_subdir>  (483) 
/opt/xchem-fragalysis-2/maxwin/BulkDock/SCRATCH/511027/C98647-P121

>  <alias>  (483) 
CNCn1ncc2c([C@H](C#N)C(=O)c3ccc4c(c3)CN(C)C4)cc(Cl)cc21

>  <HIPPO Compound ID>  (483) 
78220

>  <fragmenstein_runtime>  (483) 
7.969855

$$$$
CNCn1ncc2c([C@@H](C#N)C(=O)c3cc4c(cc3F)CNC4)cc(Cl)cc21
     RDKit          3D

 28 31  0  0  0  0  0  0  0  0999 V2000
   -4.6432    6.9597  -21.3709 C   0  0  0  0  0  0  0  0  0  0  0  0
   -5.1555    6.7062  -20.0377 N   0  0  0  0  0  0  0  0  0  0  0  0
   -4.9343    5.3048  -19.6596 C   0  0  0  0  0  0  0  0  0  0  0  0
   -5.2353    5.1884  -18.2345 N   0  0  0  0  0  0  0  0  0  0  0  0
   -4.2625    5.4361  -17.3326 N   0  0  0  0  0  0  0  0  0  0  0  0
   -4.8914    5.3394  -16.1641 C   0  0  0  0  0  0  0  0  0  0  0  0
   -6.2623    4.9944  -16.2874 C   0  0  0  0  0  0  0  0  0  0  0  0
   -7.3447    4.7559  -15.3933 C   0  0  0  0  0  0  0  0  0  0  0  0
   -7.2094    4.8301  -13.8738 C   0  0  1  0  0  0  0  0  0  0  0  0
   -6.2407    5.8525  -13.4330 C   0  0  0  0  0  0  0  0  0  0  0  0
   -5.4582    6.6267  -13.0603 N   0  0  0  0  0  0  0  0  0  0  0  0
   -8.4894    5.1032  -13.0968 C   0  0  0  0  0  0  0  0  0  0  0  0
   -9.5276    5.5786  -13.5507 O   0  0  0  0  0  0  0  0  0  0  0  0
   -8.4382    4.8231  -11.6548 C   0  0  0  0  0  0  0  0  0  0  0  0
   -8.6042    3.5200  -11.1846 C   0  0  0  0  0  0  0  0  0  0  0  0
   -8.5935    3.3438   -9.8125 C   0  0  0  0  0  0  0  0  0  0  0  0
   -8.3784    4.4103   -8.9406 C   0  0  0  0  0  0  0  0  0  0  0  0
   -8.1947    5.7009   -9.4052 C   0  0  0  0  0  0  0  0  0  0  0  0
   -8.2469    5.9007  -10.7783 C   0  0  0  0  0  0  0  0  0  0  0  0
   -8.1023    7.1453  -11.2550 F   0  0  0  0  0  0  0  0  0  0  0  0
   -8.4038    3.9057   -7.5384 C   0  0  0  0  0  0  0  0  0  0  0  0
   -8.8614    2.5110   -7.6084 N   0  0  0  0  0  0  0  0  0  0  0  0
   -8.8120    2.0948   -9.0250 C   0  0  0  0  0  0  0  0  0  0  0  0
   -8.5594    4.3335  -15.9842 C   0  0  0  0  0  0  0  0  0  0  0  0
   -8.7155    4.2305  -17.3596 C   0  0  0  0  0  0  0  0  0  0  0  0
  -10.2673    3.9136  -18.0059 Cl  0  0  0  0  0  0  0  0  0  0  0  0
   -7.6554    4.4564  -18.2220 C   0  0  0  0  0  0  0  0  0  0  0  0
   -6.4418    4.8557  -17.6623 C   0  0  0  0  0  0  0  0  0  0  0  0
  1  2  1  0
  2  3  1  0
  3  4  1  0
  4  5  1  0
  5  6  2  0
  6  7  1  0
  7  8  2  0
  8  9  1  0
  9 10  1  6
 10 11  3  0
  9 12  1  0
 12 13  2  0
 12 14  1  0
 14 15  2  0
 15 16  1  0
 16 17  2  0
 17 18  1  0
 18 19  2  0
 19 20  1  0
 17 21  1  0
 21 22  1  0
 22 23  1  0
  8 24  1  0
 24 25  2  0
 25 26  1  0
 25 27  1  0
 27 28  2  0
 28  4  1  0
 28  7  1  0
 19 14  1  0
 23 16  1  0
M  END
>  <smiles>  (484) 
C98648-P181

>  <fragmenstein_outcome>  (484) 
acceptable

>  <inchikey>  (484) 
NATKFPRVWNEOAK-UHFFFAOYSA-N

>  <fragmenstein_mode>  (484) 
expansion

>  <HIPPO Pose ID>  (484) 
16639

>  <Energy>  (484) 
120.34482

>  <fragmenstein_error>  (484) 


>  <tags>  (484) 
{'openbind_xx01zvns2b_c1_fragmenstein', 'fragmenstein_placed'}

>  <ref_pdb>  (484) 
1

>  <scratch_subdir>  (484) 
/opt/xchem-fragalysis-2/maxwin/BulkDock/SCRATCH/511027/C98648-P181

>  <alias>  (484) 
CNCn1ncc2c([C@@H](C#N)C(=O)c3cc4c(cc3F)CNC4)cc(Cl)cc21

>  <HIPPO Compound ID>  (484) 
90747

>  <fragmenstein_runtime>  (484) 
6.780955

$$$$
CNCn1ncc2c([C@H](C#N)C(=O)c3cc(C#N)c4c(c3)CNC4)cc(Cl)cc21
     RDKit          3D

 29 32  0  0  0  0  0  0  0  0999 V2000
   -4.3013    7.0778  -21.2554 C   0  0  0  0  0  0  0  0  0  0  0  0
   -4.7193    6.8429  -19.8846 N   0  0  0  0  0  0  0  0  0  0  0  0
   -4.9636    5.4150  -19.6522 C   0  0  0  0  0  0  0  0  0  0  0  0
   -5.2515    5.2595  -18.2288 N   0  0  0  0  0  0  0  0  0  0  0  0
   -4.2833    5.5852  -17.3371 N   0  0  0  0  0  0  0  0  0  0  0  0
   -4.9031    5.4944  -16.1625 C   0  0  0  0  0  0  0  0  0  0  0  0
   -6.2516    5.0761  -16.2756 C   0  0  0  0  0  0  0  0  0  0  0  0
   -7.3222    4.8671  -15.3645 C   0  0  0  0  0  0  0  0  0  0  0  0
   -7.1941    5.2521  -13.8987 C   0  0  2  0  0  0  0  0  0  0  0  0
   -6.1052    4.5219  -13.2369 C   0  0  0  0  0  0  0  0  0  0  0  0
   -5.2206    3.9909  -12.7030 N   0  0  0  0  0  0  0  0  0  0  0  0
   -8.4776    5.2603  -13.0813 C   0  0  0  0  0  0  0  0  0  0  0  0
   -9.5581    5.6801  -13.4979 O   0  0  0  0  0  0  0  0  0  0  0  0
   -8.4119    4.9335  -11.6475 C   0  0  0  0  0  0  0  0  0  0  0  0
   -8.1322    5.9763  -10.7449 C   0  0  0  0  0  0  0  0  0  0  0  0
   -8.0753    5.7083   -9.3747 C   0  0  0  0  0  0  0  0  0  0  0  0
   -7.7392    6.7357   -8.4364 C   0  0  0  0  0  0  0  0  0  0  0  0
   -7.4284    7.5486   -7.6688 N   0  0  0  0  0  0  0  0  0  0  0  0
   -8.3279    4.4110   -8.9519 C   0  0  0  0  0  0  0  0  0  0  0  0
   -8.6073    3.3886   -9.8583 C   0  0  0  0  0  0  0  0  0  0  0  0
   -8.6479    3.6253  -11.2198 C   0  0  0  0  0  0  0  0  0  0  0  0
   -8.8075    2.1087   -9.1149 C   0  0  0  0  0  0  0  0  0  0  0  0
   -8.8900    2.4893   -7.6925 N   0  0  0  0  0  0  0  0  0  0  0  0
   -8.3406    3.8460   -7.5688 C   0  0  0  0  0  0  0  0  0  0  0  0
   -8.5257    4.3839  -15.9129 C   0  0  0  0  0  0  0  0  0  0  0  0
   -8.6855    4.2197  -17.2829 C   0  0  0  0  0  0  0  0  0  0  0  0
  -10.2567    3.9295  -17.8851 Cl  0  0  0  0  0  0  0  0  0  0  0  0
   -7.6457    4.4378  -18.1757 C   0  0  0  0  0  0  0  0  0  0  0  0
   -6.4343    4.8792  -17.6424 C   0  0  0  0  0  0  0  0  0  0  0  0
  1  2  1  0
  2  3  1  0
  3  4  1  0
  4  5  1  0
  5  6  2  0
  6  7  1  0
  7  8  2  0
  8  9  1  0
  9 10  1  1
 10 11  3  0
  9 12  1  0
 12 13  2  0
 12 14  1  0
 14 15  2  0
 15 16  1  0
 16 17  1  0
 17 18  3  0
 16 19  2  0
 19 20  1  0
 20 21  2  0
 20 22  1  0
 22 23  1  0
 23 24  1  0
  8 25  1  0
 25 26  2  0
 26 27  1  0
 26 28  1  0
 28 29  2  0
 29  4  1  0
 29  7  1  0
 21 14  1  0
 24 19  1  0
M  END
>  <smiles>  (485) 
C98650-P185

>  <fragmenstein_outcome>  (485) 
acceptable

>  <inchikey>  (485) 
ZPBSZLPPAQDIAW-UHFFFAOYSA-N

>  <fragmenstein_mode>  (485) 
expansion

>  <HIPPO Pose ID>  (485) 
16642

>  <Energy>  (485) 
125.988595

>  <fragmenstein_error>  (485) 


>  <tags>  (485) 
{'openbind_xx01zvns2b_c1_fragmenstein', 'fragmenstein_placed'}

>  <ref_pdb>  (485) 
1

>  <scratch_subdir>  (485) 
/opt/xchem-fragalysis-2/maxwin/BulkDock/SCRATCH/511027/C98650-P185

>  <alias>  (485) 
CNCn1ncc2c([C@H](C#N)C(=O)c3cc(C#N)c4c(c3)CNC4)cc(Cl)cc21

>  <HIPPO Compound ID>  (485) 
84471

>  <fragmenstein_runtime>  (485) 
1.968588

$$$$
CNCn1ncc2c([C@H](C#N)C(=O)c3ccc4c(c3)CN(F)C4)cc(Cl)cc21
     RDKit          3D

 28 31  0  0  0  0  0  0  0  0999 V2000
   -3.8604    6.9499  -21.2989 C   0  0  0  0  0  0  0  0  0  0  0  0
   -3.9467    5.9359  -20.2647 N   0  0  0  0  0  0  0  0  0  0  0  0
   -5.3452    5.5893  -19.9838 C   0  0  0  0  0  0  0  0  0  0  0  0
   -5.5031    5.3740  -18.5386 N   0  0  0  0  0  0  0  0  0  0  0  0
   -4.5448    5.7829  -17.6627 N   0  0  0  0  0  0  0  0  0  0  0  0
   -5.1105    5.5823  -16.4731 C   0  0  0  0  0  0  0  0  0  0  0  0
   -6.4502    5.1324  -16.5643 C   0  0  0  0  0  0  0  0  0  0  0  0
   -7.4858    4.8550  -15.6359 C   0  0  0  0  0  0  0  0  0  0  0  0
   -7.2529    5.0505  -14.1452 C   0  0  2  0  0  0  0  0  0  0  0  0
   -6.3425    4.0225  -13.6252 C   0  0  0  0  0  0  0  0  0  0  0  0
   -5.5870    3.2317  -13.2317 N   0  0  0  0  0  0  0  0  0  0  0  0
   -8.4842    5.2299  -13.2810 C   0  0  0  0  0  0  0  0  0  0  0  0
   -9.5438    5.7160  -13.6800 O   0  0  0  0  0  0  0  0  0  0  0  0
   -8.3566    5.0022  -11.8284 C   0  0  0  0  0  0  0  0  0  0  0  0
   -7.8468    6.0356  -11.0195 C   0  0  0  0  0  0  0  0  0  0  0  0
   -7.7744    5.8684   -9.6337 C   0  0  0  0  0  0  0  0  0  0  0  0
   -8.2387    4.6805   -9.0958 C   0  0  0  0  0  0  0  0  0  0  0  0
   -8.7752    3.6832   -9.9070 C   0  0  0  0  0  0  0  0  0  0  0  0
   -8.8151    3.8056  -11.2817 C   0  0  0  0  0  0  0  0  0  0  0  0
   -9.3298    2.6022   -9.0445 C   0  0  0  0  0  0  0  0  0  0  0  0
   -8.7244    2.8031   -7.7150 N   0  0  0  0  0  0  0  0  0  0  0  0
   -7.6069    1.9938   -7.6439 F   0  0  0  0  0  0  0  0  0  0  0  0
   -8.3181    4.2281   -7.6699 C   0  0  0  0  0  0  0  0  0  0  0  0
   -8.7155    4.4142  -16.1789 C   0  0  0  0  0  0  0  0  0  0  0  0
   -8.9167    4.3140  -17.5549 C   0  0  0  0  0  0  0  0  0  0  0  0
  -10.4756    3.9637  -18.1809 Cl  0  0  0  0  0  0  0  0  0  0  0  0
   -7.8931    4.5711  -18.4555 C   0  0  0  0  0  0  0  0  0  0  0  0
   -6.6715    4.9872  -17.9277 C   0  0  0  0  0  0  0  0  0  0  0  0
  1  2  1  0
  2  3  1  0
  3  4  1  0
  4  5  1  0
  5  6  2  0
  6  7  1  0
  7  8  2  0
  8  9  1  0
  9 10  1  1
 10 11  3  0
  9 12  1  0
 12 13  2  0
 12 14  1  0
 14 15  2  0
 15 16  1  0
 16 17  2  0
 17 18  1  0
 18 19  2  0
 18 20  1  0
 20 21  1  0
 21 22  1  0
 21 23  1  0
  8 24  1  0
 24 25  2  0
 25 26  1  0
 25 27  1  0
 27 28  2  0
 28  4  1  0
 28  7  1  0
 19 14  1  0
 23 17  1  0
M  END
>  <smiles>  (486) 
C98651-P121

>  <fragmenstein_outcome>  (486) 
acceptable

>  <inchikey>  (486) 
VUZAVSNIDXXKIW-UHFFFAOYSA-N

>  <fragmenstein_mode>  (486) 
expansion

>  <HIPPO Pose ID>  (486) 
16643

>  <Energy>  (486) 
139.170509

>  <fragmenstein_error>  (486) 


>  <tags>  (486) 
{'openbind_xx01zvns2b_c1_fragmenstein', 'fragmenstein_placed'}

>  <ref_pdb>  (486) 
1

>  <scratch_subdir>  (486) 
/opt/xchem-fragalysis-2/maxwin/BulkDock/SCRATCH/511027/C98651-P121

>  <alias>  (486) 
CNCn1ncc2c([C@H](C#N)C(=O)c3ccc4c(c3)CN(F)C4)cc(Cl)cc21

>  <HIPPO Compound ID>  (486) 
98651

>  <fragmenstein_runtime>  (486) 
4.591613

$$$$
CN1CC(c2cnc3c(Cl)cc([C@](O)(C#N)Nc4ccc5c(c4)CNC5)c4c3c2N=C4)C1
     RDKit          3D

 32 37  0  0  0  0  0  0  0  0999 V2000
   -2.9925    9.1038  -21.4139 C   0  0  0  0  0  0  0  0  0  0  0  0
   -2.7786    7.6835  -21.1768 N   0  0  0  0  0  0  0  0  0  0  0  0
   -3.9718    6.8934  -21.5659 C   0  0  0  0  0  0  0  0  0  0  0  0
   -3.7448    6.0328  -20.2888 C   0  0  0  0  0  0  0  0  0  0  0  0
   -5.0040    5.4375  -19.5651 C   0  0  0  0  0  0  0  0  0  0  0  0
   -6.0130    4.7292  -20.2296 C   0  0  0  0  0  0  0  0  0  0  0  0
   -7.1722    4.2308  -19.6856 N   0  0  0  0  0  0  0  0  0  0  0  0
   -7.4165    4.4648  -18.3723 C   0  0  0  0  0  0  0  0  0  0  0  0
   -8.5632    4.2320  -17.5859 C   0  0  0  0  0  0  0  0  0  0  0  0
  -10.0425    3.7747  -18.3394 Cl  0  0  0  0  0  0  0  0  0  0  0  0
   -8.5750    4.4486  -16.1790 C   0  0  0  0  0  0  0  0  0  0  0  0
   -7.4480    4.9636  -15.5019 C   0  0  0  0  0  0  0  0  0  0  0  0
   -7.3694    5.2080  -14.0030 C   0  0  2  0  0  0  0  0  0  0  0  0
   -7.4350    6.6278  -13.9248 O   0  0  0  0  0  0  0  0  0  0  0  0
   -6.0752    4.6700  -13.4644 C   0  0  0  0  0  0  0  0  0  0  0  0
   -5.0502    4.2477  -13.1097 N   0  0  0  0  0  0  0  0  0  0  0  0
   -8.5513    4.7015  -13.2886 N   0  0  0  0  0  0  0  0  0  0  0  0
   -8.4590    4.6930  -11.8662 C   0  0  0  0  0  0  0  0  0  0  0  0
   -8.6671    3.4764  -11.1785 C   0  0  0  0  0  0  0  0  0  0  0  0
   -8.6185    3.4022   -9.7825 C   0  0  0  0  0  0  0  0  0  0  0  0
   -8.3724    4.5615   -9.0761 C   0  0  0  0  0  0  0  0  0  0  0  0
   -8.1818    5.7704   -9.7307 C   0  0  0  0  0  0  0  0  0  0  0  0
   -8.2214    5.8560  -11.1150 C   0  0  0  0  0  0  0  0  0  0  0  0
   -8.0065    6.8516   -8.7179 C   0  0  0  0  0  0  0  0  0  0  0  0
   -7.7933    6.1574   -7.4205 N   0  0  0  0  0  0  0  0  0  0  0  0
   -8.3147    4.7766   -7.6034 C   0  0  0  0  0  0  0  0  0  0  0  0
   -6.3933    5.3278  -16.3288 C   0  0  0  0  0  0  0  0  0  0  0  0
   -6.4026    5.0650  -17.6646 C   0  0  0  0  0  0  0  0  0  0  0  0
   -5.2465    5.5451  -18.2105 C   0  0  0  0  0  0  0  0  0  0  0  0
   -4.4487    6.1782  -17.2328 N   0  0  0  0  0  0  0  0  0  0  0  0
   -5.1279    6.0455  -16.1291 C   0  0  0  0  0  0  0  0  0  0  0  0
   -3.0578    7.3310  -19.7589 C   0  0  0  0  0  0  0  0  0  0  0  0
  1  2  1  0
  2  3  1  0
  3  4  1  0
  4  5  1  0
  5  6  2  0
  6  7  1  0
  7  8  2  0
  8  9  1  0
  9 10  1  0
  9 11  2  0
 11 12  1  0
 12 13  1  0
 13 14  1  6
 13 15  1  0
 15 16  3  0
 13 17  1  0
 17 18  1  0
 18 19  2  0
 19 20  1  0
 20 21  2  0
 21 22  1  0
 22 23  2  0
 22 24  1  0
 24 25  1  0
 25 26  1  0
 12 27  2  0
 27 28  1  0
 28 29  2  0
 29 30  1  0
 30 31  2  0
  4 32  1  0
 32  2  1  0
 29  5  1  0
 28  8  1  0
 23 18  1  0
 31 27  1  0
 26 21  1  0
M  END
>  <smiles>  (487) 
C98653-P121

>  <fragmenstein_outcome>  (487) 
acceptable

>  <inchikey>  (487) 
MQKXMXKXUOFZKM-UHFFFAOYSA-N

>  <fragmenstein_mode>  (487) 
expansion

>  <HIPPO Pose ID>  (487) 
16644

>  <Energy>  (487) 
107.302373

>  <fragmenstein_error>  (487) 


>  <tags>  (487) 
{'openbind_xx01zvns2b_c1_fragmenstein', 'fragmenstein_placed'}

>  <ref_pdb>  (487) 
1

>  <scratch_subdir>  (487) 
/opt/xchem-fragalysis-2/maxwin/BulkDock/SCRATCH/511027/C98653-P121

>  <alias>  (487) 
CN1CC(c2cnc3c(Cl)cc([C@](O)(C#N)Nc4ccc5c(c4)CNC5)c4c3c2N=C4)C1

>  <HIPPO Compound ID>  (487) 
105685

>  <fragmenstein_runtime>  (487) 
3.856193

$$$$
N#C[C@@](O)(Nc1ccc2c(c1)CNC2)c1cc(Cl)c2ncc(CN)c3c2c1C=N3
     RDKit          3D

 29 33  0  0  0  0  0  0  0  0999 V2000
   -6.5814    7.4986  -13.5450 N   0  0  0  0  0  0  0  0  0  0  0  0
   -6.8998    6.3884  -13.6942 C   0  0  0  0  0  0  0  0  0  0  0  0
   -7.2919    4.9622  -13.9350 C   0  0  1  0  0  0  0  0  0  0  0  0
   -6.2505    4.0746  -13.5327 O   0  0  0  0  0  0  0  0  0  0  0  0
   -8.5216    4.5593  -13.2334 N   0  0  0  0  0  0  0  0  0  0  0  0
   -8.4861    4.5865  -11.8173 C   0  0  0  0  0  0  0  0  0  0  0  0
   -8.5126    3.3679  -11.1061 C   0  0  0  0  0  0  0  0  0  0  0  0
   -8.3993    3.3297   -9.7134 C   0  0  0  0  0  0  0  0  0  0  0  0
   -8.2669    4.5252   -9.0374 C   0  0  0  0  0  0  0  0  0  0  0  0
   -8.2607    5.7360   -9.7174 C   0  0  0  0  0  0  0  0  0  0  0  0
   -8.3741    5.7856  -11.0981 C   0  0  0  0  0  0  0  0  0  0  0  0
   -8.1009    6.8476   -8.7357 C   0  0  0  0  0  0  0  0  0  0  0  0
   -8.3201    6.2327   -7.3977 N   0  0  0  0  0  0  0  0  0  0  0  0
   -8.0907    4.7726   -7.5789 C   0  0  0  0  0  0  0  0  0  0  0  0
   -7.4127    4.7583  -15.4389 C   0  0  0  0  0  0  0  0  0  0  0  0
   -8.6039    4.4186  -16.1202 C   0  0  0  0  0  0  0  0  0  0  0  0
   -8.6334    4.2468  -17.5333 C   0  0  0  0  0  0  0  0  0  0  0  0
  -10.1569    3.9327  -18.2788 Cl  0  0  0  0  0  0  0  0  0  0  0  0
   -7.4799    4.3968  -18.3281 C   0  0  0  0  0  0  0  0  0  0  0  0
   -7.2942    4.2193  -19.6589 N   0  0  0  0  0  0  0  0  0  0  0  0
   -6.1046    4.6155  -20.2118 C   0  0  0  0  0  0  0  0  0  0  0  0
   -5.0265    5.1492  -19.5125 C   0  0  0  0  0  0  0  0  0  0  0  0
   -3.8155    5.6724  -20.2025 C   0  0  0  0  0  0  0  0  0  0  0  0
   -4.0903    6.8968  -20.9561 N   0  0  0  0  0  0  0  0  0  0  0  0
   -5.1794    5.1644  -18.1472 C   0  0  0  0  0  0  0  0  0  0  0  0
   -6.3800    4.8061  -17.6079 C   0  0  0  0  0  0  0  0  0  0  0  0
   -6.3105    4.9625  -16.2581 C   0  0  0  0  0  0  0  0  0  0  0  0
   -4.9292    5.4031  -16.0323 C   0  0  0  0  0  0  0  0  0  0  0  0
   -4.2611    5.5436  -17.1434 N   0  0  0  0  0  0  0  0  0  0  0  0
  1  2  3  0
  2  3  1  0
  3  4  1  1
  3  5  1  0
  5  6  1  0
  6  7  2  0
  7  8  1  0
  8  9  2  0
  9 10  1  0
 10 11  2  0
 10 12  1  0
 12 13  1  0
 13 14  1  0
  3 15  1  0
 15 16  2  0
 16 17  1  0
 17 18  1  0
 17 19  2  0
 19 20  1  0
 20 21  2  0
 21 22  1  0
 22 23  1  0
 23 24  1  0
 22 25  2  0
 25 26  1  0
 26 27  2  0
 27 28  1  0
 28 29  2  0
 11  6  1  0
 27 15  1  0
 14  9  1  0
 26 19  1  0
 29 25  1  0
M  END
>  <smiles>  (488) 
C98659-P121

>  <fragmenstein_outcome>  (488) 
acceptable

>  <inchikey>  (488) 
RJKOALHCWSOUKG-UHFFFAOYSA-N

>  <fragmenstein_mode>  (488) 
expansion

>  <HIPPO Pose ID>  (488) 
16648

>  <Energy>  (488) 
80.700799

>  <fragmenstein_error>  (488) 


>  <tags>  (488) 
{'openbind_xx01zvns2b_c1_fragmenstein', 'fragmenstein_placed'}

>  <ref_pdb>  (488) 
1

>  <scratch_subdir>  (488) 
/opt/xchem-fragalysis-2/maxwin/BulkDock/SCRATCH/511027/C98659-P121

>  <alias>  (488) 
N#C[C@@](O)(Nc1ccc2c(c1)CNC2)c1cc(Cl)c2ncc(CN)c3c2c1C=N3

>  <HIPPO Compound ID>  (488) 
83779

>  <fragmenstein_runtime>  (488) 
3.601592

$$$$
CCNn1ncc2c([C@](O)(C#N)Nc3ccc4c(c3)CNC4)cc(Cl)cc21
     RDKit          3D

 27 30  0  0  0  0  0  0  0  0999 V2000
   -4.3757    6.8289  -21.5429 C   0  0  0  0  0  0  0  0  0  0  0  0
   -4.4641    6.5513  -20.0522 C   0  0  0  0  0  0  0  0  0  0  0  0
   -5.2881    5.3679  -19.8092 N   0  0  0  0  0  0  0  0  0  0  0  0
   -5.4708    5.1751  -18.4051 N   0  0  0  0  0  0  0  0  0  0  0  0
   -4.4952    5.3640  -17.4977 N   0  0  0  0  0  0  0  0  0  0  0  0
   -5.1001    5.1805  -16.3262 C   0  0  0  0  0  0  0  0  0  0  0  0
   -6.4739    4.8681  -16.4515 C   0  0  0  0  0  0  0  0  0  0  0  0
   -7.5399    4.5993  -15.5447 C   0  0  0  0  0  0  0  0  0  0  0  0
   -7.3214    4.5796  -14.0263 C   0  0  2  0  0  0  0  0  0  0  0  0
   -6.7289    5.8532  -13.7426 O   0  0  0  0  0  0  0  0  0  0  0  0
   -6.3662    3.4772  -13.6660 C   0  0  0  0  0  0  0  0  0  0  0  0
   -5.5889    2.6634  -13.3707 N   0  0  0  0  0  0  0  0  0  0  0  0
   -8.6017    4.4857  -13.2929 N   0  0  0  0  0  0  0  0  0  0  0  0
   -8.5125    4.5639  -11.8811 C   0  0  0  0  0  0  0  0  0  0  0  0
   -8.5011    3.3857  -11.1074 C   0  0  0  0  0  0  0  0  0  0  0  0
   -8.3851    3.4307   -9.7161 C   0  0  0  0  0  0  0  0  0  0  0  0
   -8.2665    4.6662   -9.1111 C   0  0  0  0  0  0  0  0  0  0  0  0
   -8.2711    5.8381   -9.8591 C   0  0  0  0  0  0  0  0  0  0  0  0
   -8.3931    5.8063  -11.2395 C   0  0  0  0  0  0  0  0  0  0  0  0
   -8.1939    7.0058   -8.9347 C   0  0  0  0  0  0  0  0  0  0  0  0
   -7.8218    6.4436   -7.6083 N   0  0  0  0  0  0  0  0  0  0  0  0
   -8.1671    4.9972   -7.6624 C   0  0  0  0  0  0  0  0  0  0  0  0
   -8.8029    4.3529  -16.1393 C   0  0  0  0  0  0  0  0  0  0  0  0
   -8.9847    4.3383  -17.5216 C   0  0  0  0  0  0  0  0  0  0  0  0
  -10.5484    4.0859  -18.1847 Cl  0  0  0  0  0  0  0  0  0  0  0  0
   -7.9291    4.5668  -18.3921 C   0  0  0  0  0  0  0  0  0  0  0  0
   -6.6836    4.8539  -17.8279 C   0  0  0  0  0  0  0  0  0  0  0  0
  1  2  1  0
  2  3  1  0
  3  4  1  0
  4  5  1  0
  5  6  2  0
  6  7  1  0
  7  8  2  0
  8  9  1  0
  9 10  1  1
  9 11  1  0
 11 12  3  0
  9 13  1  0
 13 14  1  0
 14 15  2  0
 15 16  1  0
 16 17  2  0
 17 18  1  0
 18 19  2  0
 18 20  1  0
 20 21  1  0
 21 22  1  0
  8 23  1  0
 23 24  2  0
 24 25  1  0
 24 26  1  0
 26 27  2  0
 27  4  1  0
 27  7  1  0
 19 14  1  0
 22 17  1  0
M  END
>  <smiles>  (489) 
C98660-P121

>  <fragmenstein_outcome>  (489) 
acceptable

>  <inchikey>  (489) 
DSQOCTGINNSLQG-UHFFFAOYSA-N

>  <fragmenstein_mode>  (489) 
expansion

>  <HIPPO Pose ID>  (489) 
16649

>  <Energy>  (489) 
14.923727

>  <fragmenstein_error>  (489) 


>  <tags>  (489) 
{'openbind_xx01zvns2b_c1_fragmenstein', 'fragmenstein_placed'}

>  <ref_pdb>  (489) 
1

>  <scratch_subdir>  (489) 
/opt/xchem-fragalysis-2/maxwin/BulkDock/SCRATCH/511027/C98660-P121

>  <alias>  (489) 
CCNn1ncc2c([C@](O)(C#N)Nc3ccc4c(c3)CNC4)cc(Cl)cc21

>  <HIPPO Compound ID>  (489) 
84497

>  <fragmenstein_runtime>  (489) 
2.362244

$$$$
CNCn1ncc2c([C@@H](C#N)C(=O)c3ccc4c(c3)CNC4)cc(Cl)cc21
     RDKit          3D

 27 30  0  0  0  0  0  0  0  0999 V2000
   -4.1591    7.1066  -21.1768 C   0  0  0  0  0  0  0  0  0  0  0  0
   -4.5854    6.8536  -19.8138 N   0  0  0  0  0  0  0  0  0  0  0  0
   -4.9793    5.4473  -19.6511 C   0  0  0  0  0  0  0  0  0  0  0  0
   -5.2338    5.2306  -18.2284 N   0  0  0  0  0  0  0  0  0  0  0  0
   -4.2168    5.3846  -17.3441 N   0  0  0  0  0  0  0  0  0  0  0  0
   -4.8281    5.2809  -16.1617 C   0  0  0  0  0  0  0  0  0  0  0  0
   -6.2192    5.0046  -16.2651 C   0  0  0  0  0  0  0  0  0  0  0  0
   -7.3031    4.8053  -15.3612 C   0  0  0  0  0  0  0  0  0  0  0  0
   -7.1769    4.8820  -13.8409 C   0  0  1  0  0  0  0  0  0  0  0  0
   -6.1949    5.8967  -13.4128 C   0  0  0  0  0  0  0  0  0  0  0  0
   -5.4162    6.6852  -13.0627 N   0  0  0  0  0  0  0  0  0  0  0  0
   -8.4605    5.2154  -13.0827 C   0  0  0  0  0  0  0  0  0  0  0  0
   -9.4516    5.7771  -13.5459 O   0  0  0  0  0  0  0  0  0  0  0  0
   -8.4452    4.9323  -11.6370 C   0  0  0  0  0  0  0  0  0  0  0  0
   -8.2925    6.0173  -10.7539 C   0  0  0  0  0  0  0  0  0  0  0  0
   -8.2495    5.7939   -9.3794 C   0  0  0  0  0  0  0  0  0  0  0  0
   -8.4007    4.4930   -8.9292 C   0  0  0  0  0  0  0  0  0  0  0  0
   -8.5781    3.4304   -9.8118 C   0  0  0  0  0  0  0  0  0  0  0  0
   -8.5770    3.6210  -11.1804 C   0  0  0  0  0  0  0  0  0  0  0  0
   -8.7663    2.1697   -9.0375 C   0  0  0  0  0  0  0  0  0  0  0  0
   -8.8916    2.5783   -7.6225 N   0  0  0  0  0  0  0  0  0  0  0  0
   -8.4167    3.9681   -7.5329 C   0  0  0  0  0  0  0  0  0  0  0  0
   -8.5383    4.4408  -15.9413 C   0  0  0  0  0  0  0  0  0  0  0  0
   -8.7172    4.3688  -17.3121 C   0  0  0  0  0  0  0  0  0  0  0  0
  -10.2832    4.1106  -17.9297 Cl  0  0  0  0  0  0  0  0  0  0  0  0
   -7.6680    4.5758  -18.1872 C   0  0  0  0  0  0  0  0  0  0  0  0
   -6.4314    4.9108  -17.6391 C   0  0  0  0  0  0  0  0  0  0  0  0
  1  2  1  0
  2  3  1  0
  3  4  1  0
  4  5  1  0
  5  6  2  0
  6  7  1  0
  7  8  2  0
  8  9  1  0
  9 10  1  6
 10 11  3  0
  9 12  1  0
 12 13  2  0
 12 14  1  0
 14 15  2  0
 15 16  1  0
 16 17  2  0
 17 18  1  0
 18 19  2  0
 18 20  1  0
 20 21  1  0
 21 22  1  0
  8 23  1  0
 23 24  2  0
 24 25  1  0
 24 26  1  0
 26 27  2  0
 27  4  1  0
 27  7  1  0
 19 14  1  0
 22 17  1  0
M  END
>  <smiles>  (490) 
C98636-P211

>  <fragmenstein_outcome>  (490) 
acceptable

>  <inchikey>  (490) 
UPBUUBZRPRLRCA-UHFFFAOYSA-N

>  <fragmenstein_mode>  (490) 
expansion

>  <HIPPO Pose ID>  (490) 
16650

>  <Energy>  (490) 
124.391938

>  <fragmenstein_error>  (490) 


>  <tags>  (490) 
{'openbind_xx01zvns2b_c1_fragmenstein', 'fragmenstein_placed'}

>  <ref_pdb>  (490) 
1

>  <scratch_subdir>  (490) 
/opt/xchem-fragalysis-2/maxwin/BulkDock/SCRATCH/511027/C98636-P211

>  <alias>  (490) 
CNCn1ncc2c([C@@H](C#N)C(=O)c3ccc4c(c3)CNC4)cc(Cl)cc21

>  <HIPPO Compound ID>  (490) 
93884

>  <fragmenstein_runtime>  (490) 
3.384051

$$$$
Cc1cc(N[C@@H](C(=O)N[C@H](C)[C@H](C)N)c2cc(Cl)cc3c2c(C)nn3CO)cc2c1CNC2
     RDKit          3D

 33 36  0  0  0  0  0  0  0  0999 V2000
   -8.9600    2.5070   -8.8209 C   0  0  0  0  0  0  0  0  0  0  0  0
   -8.6643    3.7065   -9.6677 C   0  0  0  0  0  0  0  0  0  0  0  0
   -8.4496    3.5557  -11.0536 C   0  0  0  0  0  0  0  0  0  0  0  0
   -8.1518    4.6483  -11.8977 C   0  0  0  0  0  0  0  0  0  0  0  0
   -7.6958    4.3686  -13.2041 N   0  0  0  0  0  0  0  0  0  0  0  0
   -7.4560    5.4580  -14.1731 C   0  0  1  0  0  0  0  0  0  0  0  0
   -6.1985    6.3643  -13.8503 C   0  0  0  0  0  0  0  0  0  0  0  0
   -6.0406    7.3931  -14.3890 O   0  0  0  0  0  0  0  0  0  0  0  0
   -5.3537    5.6645  -12.7431 N   0  0  0  0  0  0  0  0  0  0  0  0
   -4.0862    6.0461  -12.1395 C   0  0  2  0  0  0  0  0  0  0  0  0
   -3.2074    4.8141  -11.9127 C   0  0  0  0  0  0  0  0  0  0  0  0
   -4.3094    6.8961  -10.8517 C   0  0  2  0  0  0  0  0  0  0  0  0
   -3.0395    7.6352  -10.4254 C   0  0  0  0  0  0  0  0  0  0  0  0
   -4.8062    6.1017   -9.7242 N   0  0  0  0  0  0  0  0  0  0  0  0
   -7.4968    4.9513  -15.6301 C   0  0  0  0  0  0  0  0  0  0  0  0
   -8.7823    4.6328  -16.1528 C   0  0  0  0  0  0  0  0  0  0  0  0
   -9.0054    4.4003  -17.5091 C   0  0  0  0  0  0  0  0  0  0  0  0
  -10.5911    4.1218  -18.1058 Cl  0  0  0  0  0  0  0  0  0  0  0  0
   -7.9734    4.4893  -18.4275 C   0  0  0  0  0  0  0  0  0  0  0  0
   -6.6978    4.7376  -17.9242 C   0  0  0  0  0  0  0  0  0  0  0  0
   -6.4176    4.8852  -16.5601 C   0  0  0  0  0  0  0  0  0  0  0  0
   -4.9893    4.8872  -16.5310 C   0  0  0  0  0  0  0  0  0  0  0  0
   -4.0547    4.7356  -15.4004 C   0  0  0  0  0  0  0  0  0  0  0  0
   -4.4457    4.9487  -17.7508 N   0  0  0  0  0  0  0  0  0  0  0  0
   -5.5014    4.9117  -18.5743 N   0  0  0  0  0  0  0  0  0  0  0  0
   -5.2881    5.0237  -20.0063 C   0  0  0  0  0  0  0  0  0  0  0  0
   -5.6483    6.3288  -20.4473 O   0  0  0  0  0  0  0  0  0  0  0  0
   -8.1072    5.9261  -11.3198 C   0  0  0  0  0  0  0  0  0  0  0  0
   -8.2780    6.0697   -9.9511 C   0  0  0  0  0  0  0  0  0  0  0  0
   -8.5232    4.9775   -9.1316 C   0  0  0  0  0  0  0  0  0  0  0  0
   -8.5196    5.4335   -7.7105 C   0  0  0  0  0  0  0  0  0  0  0  0
   -8.5514    6.9216   -7.7502 N   0  0  0  0  0  0  0  0  0  0  0  0
   -8.1436    7.3032   -9.1265 C   0  0  0  0  0  0  0  0  0  0  0  0
  1  2  1  0
  2  3  2  0
  3  4  1  0
  4  5  1  0
  6  5  1  1
  6  7  1  0
  7  8  2  0
  7  9  1  0
  9 10  1  0
 10 11  1  1
 10 12  1  0
 12 13  1  1
 12 14  1  0
  6 15  1  0
 15 16  2  0
 16 17  1  0
 17 18  1  0
 17 19  2  0
 19 20  1  0
 20 21  2  0
 21 22  1  0
 22 23  1  0
 22 24  2  0
 24 25  1  0
 25 26  1  0
 26 27  1  0
  4 28  2  0
 28 29  1  0
 29 30  2  0
 30 31  1  0
 31 32  1  0
 32 33  1  0
 30  2  1  0
 21 15  1  0
 33 29  1  0
 25 20  1  0
M  END
>  <smiles>  (491) 
C98681-P121

>  <fragmenstein_outcome>  (491) 
acceptable

>  <inchikey>  (491) 
OANCSMFQIDKDIR-UHFFFAOYSA-N

>  <fragmenstein_mode>  (491) 
expansion

>  <HIPPO Pose ID>  (491) 
16660

>  <Energy>  (491) 
161.961575

>  <fragmenstein_error>  (491) 


>  <tags>  (491) 
{'openbind_xx01zvns2b_c1_fragmenstein', 'fragmenstein_placed'}

>  <ref_pdb>  (491) 
1

>  <scratch_subdir>  (491) 
/opt/xchem-fragalysis-2/maxwin/BulkDock/SCRATCH/511027/C98681-P121

>  <alias>  (491) 
Cc1cc(N[C@@H](C(=O)N[C@H](C)[C@H](C)N)c2cc(Cl)cc3c2c(C)nn3CO)cc2c1CNC2

>  <HIPPO Compound ID>  (491) 
73774

>  <fragmenstein_runtime>  (491) 
5.80312

$$$$
COn1cc2c([C@@H](Nc3ccc4c(c3)CNC4)C(=O)NC(C)C)cc(Cl)cc2n1
     RDKit          3D

 29 32  0  0  0  0  0  0  0  0999 V2000
   -4.0538    6.7859  -20.0441 C   0  0  0  0  0  0  0  0  0  0  0  0
   -3.7747    6.0922  -18.8260 O   0  0  0  0  0  0  0  0  0  0  0  0
   -4.9478    5.5357  -18.3059 N   0  0  0  0  0  0  0  0  0  0  0  0
   -5.2966    5.5186  -16.9811 C   0  0  0  0  0  0  0  0  0  0  0  0
   -6.5753    5.0162  -16.9614 C   0  0  0  0  0  0  0  0  0  0  0  0
   -7.4264    4.8429  -15.8504 C   0  0  0  0  0  0  0  0  0  0  0  0
   -7.1296    5.0686  -14.3698 C   0  0  1  0  0  0  0  0  0  0  0  0
   -8.2435    4.5337  -13.5405 N   0  0  0  0  0  0  0  0  0  0  0  0
   -8.2464    4.7862  -12.1597 C   0  0  0  0  0  0  0  0  0  0  0  0
   -8.4185    3.7086  -11.2630 C   0  0  0  0  0  0  0  0  0  0  0  0
   -8.4163    3.8968   -9.8765 C   0  0  0  0  0  0  0  0  0  0  0  0
   -8.2638    5.1822   -9.3961 C   0  0  0  0  0  0  0  0  0  0  0  0
   -8.1313    6.2591  -10.2649 C   0  0  0  0  0  0  0  0  0  0  0  0
   -8.1349    6.0827  -11.6412 C   0  0  0  0  0  0  0  0  0  0  0  0
   -7.9690    7.5115   -9.4735 C   0  0  0  0  0  0  0  0  0  0  0  0
   -8.2937    7.1504   -8.0705 N   0  0  0  0  0  0  0  0  0  0  0  0
   -8.1864    5.6676   -7.9902 C   0  0  0  0  0  0  0  0  0  0  0  0
   -5.7572    4.4070  -13.9281 C   0  0  0  0  0  0  0  0  0  0  0  0
   -5.3467    3.4216  -14.4051 O   0  0  0  0  0  0  0  0  0  0  0  0
   -5.1609    5.3096  -12.8062 N   0  0  0  0  0  0  0  0  0  0  0  0
   -3.8967    5.2320  -12.1147 C   0  0  0  0  0  0  0  0  0  0  0  0
   -3.9986    5.8777  -10.7394 C   0  0  0  0  0  0  0  0  0  0  0  0
   -2.7982    5.8747  -12.9534 C   0  0  0  0  0  0  0  0  0  0  0  0
   -8.7298    4.4903  -16.3269 C   0  0  0  0  0  0  0  0  0  0  0  0
   -9.0799    4.2729  -17.6954 C   0  0  0  0  0  0  0  0  0  0  0  0
  -10.7288    4.0188  -18.1149 Cl  0  0  0  0  0  0  0  0  0  0  0  0
   -8.1706    4.3338  -18.7488 C   0  0  0  0  0  0  0  0  0  0  0  0
   -6.9031    4.7555  -18.3534 C   0  0  0  0  0  0  0  0  0  0  0  0
   -5.8448    5.0102  -19.1323 N   0  0  0  0  0  0  0  0  0  0  0  0
  1  2  1  0
  2  3  1  0
  3  4  1  0
  4  5  2  0
  5  6  1  0
  6  7  1  0
  7  8  1  1
  8  9  1  0
  9 10  2  0
 10 11  1  0
 11 12  2  0
 12 13  1  0
 13 14  2  0
 13 15  1  0
 15 16  1  0
 16 17  1  0
  7 18  1  0
 18 19  2  0
 18 20  1  0
 20 21  1  0
 21 22  1  0
 21 23  1  0
  6 24  2  0
 24 25  1  0
 25 26  1  0
 25 27  2  0
 27 28  1  0
 28 29  2  0
 29  3  1  0
 28  5  1  0
 14  9  1  0
 17 12  1  0
M  END
>  <smiles>  (492) 
C98683-P121

>  <fragmenstein_outcome>  (492) 
acceptable

>  <inchikey>  (492) 
WOWXMRORUGBJLA-UHFFFAOYSA-N

>  <fragmenstein_mode>  (492) 
expansion

>  <HIPPO Pose ID>  (492) 
16662

>  <Energy>  (492) 
64.416745

>  <fragmenstein_error>  (492) 


>  <tags>  (492) 
{'openbind_xx01zvns2b_c1_fragmenstein', 'fragmenstein_placed'}

>  <ref_pdb>  (492) 
1

>  <scratch_subdir>  (492) 
/opt/xchem-fragalysis-2/maxwin/BulkDock/SCRATCH/511027/C98683-P121

>  <alias>  (492) 
COn1cc2c([C@@H](Nc3ccc4c(c3)CNC4)C(=O)NC(C)C)cc(Cl)cc2n1

>  <HIPPO Compound ID>  (492) 
101860

>  <fragmenstein_runtime>  (492) 
5.495248

$$$$
CC(C)NC(=O)[C@@H](Nc1ccc2c(c1)CNC2)c1cc(Cl)cc2nn3c(c12)CCNCC3
     RDKit          3D

 32 36  0  0  0  0  0  0  0  0999 V2000
   -4.5248    6.8406  -10.3072 C   0  0  0  0  0  0  0  0  0  0  0  0
   -5.1951    7.4446  -11.5357 C   0  0  0  0  0  0  0  0  0  0  0  0
   -4.1925    8.2438  -12.3598 C   0  0  0  0  0  0  0  0  0  0  0  0
   -5.8245    6.4139  -12.3329 N   0  0  0  0  0  0  0  0  0  0  0  0
   -6.7988    6.5268  -13.5548 C   0  0  0  0  0  0  0  0  0  0  0  0
   -7.1725    7.4692  -14.1423 O   0  0  0  0  0  0  0  0  0  0  0  0
   -7.2195    5.0435  -13.9365 C   0  0  1  0  0  0  0  0  0  0  0  0
   -8.4644    4.6114  -13.2278 N   0  0  0  0  0  0  0  0  0  0  0  0
   -8.4548    4.5884  -11.8184 C   0  0  0  0  0  0  0  0  0  0  0  0
   -8.4180    5.7810  -11.0665 C   0  0  0  0  0  0  0  0  0  0  0  0
   -8.4014    5.7790   -9.6676 C   0  0  0  0  0  0  0  0  0  0  0  0
   -8.4947    4.5643   -9.0233 C   0  0  0  0  0  0  0  0  0  0  0  0
   -8.5792    3.3779   -9.7436 C   0  0  0  0  0  0  0  0  0  0  0  0
   -8.5337    3.3687  -11.1310 C   0  0  0  0  0  0  0  0  0  0  0  0
   -8.7585    2.2438   -8.7869 C   0  0  0  0  0  0  0  0  0  0  0  0
   -9.1165    2.8846   -7.4897 N   0  0  0  0  0  0  0  0  0  0  0  0
   -8.5752    4.2591   -7.5667 C   0  0  0  0  0  0  0  0  0  0  0  0
   -7.3489    4.8893  -15.4546 C   0  0  0  0  0  0  0  0  0  0  0  0
   -8.5839    4.5313  -16.0909 C   0  0  0  0  0  0  0  0  0  0  0  0
   -8.7787    4.3715  -17.4989 C   0  0  0  0  0  0  0  0  0  0  0  0
  -10.3627    4.0289  -18.0956 Cl  0  0  0  0  0  0  0  0  0  0  0  0
   -7.7687    4.5465  -18.4441 C   0  0  0  0  0  0  0  0  0  0  0  0
   -6.5533    4.9507  -17.8890 C   0  0  0  0  0  0  0  0  0  0  0  0
   -5.4314    5.2842  -18.5385 N   0  0  0  0  0  0  0  0  0  0  0  0
   -4.6013    5.7196  -17.5875 N   0  0  0  0  0  0  0  0  0  0  0  0
   -5.0412    5.5056  -16.3023 C   0  0  0  0  0  0  0  0  0  0  0  0
   -6.3573    5.0974  -16.4500 C   0  0  0  0  0  0  0  0  0  0  0  0
   -4.1518    5.7987  -15.1420 C   0  0  0  0  0  0  0  0  0  0  0  0
   -2.7349    5.2256  -15.2545 C   0  0  0  0  0  0  0  0  0  0  0  0
   -1.8233    5.9795  -16.1222 N   0  0  0  0  0  0  0  0  0  0  0  0
   -2.1210    5.7674  -17.5468 C   0  0  0  0  0  0  0  0  0  0  0  0
   -3.4107    6.4351  -18.0009 C   0  0  0  0  0  0  0  0  0  0  0  0
  1  2  1  0
  2  3  1  0
  2  4  1  0
  4  5  1  0
  5  6  2  0
  5  7  1  0
  7  8  1  1
  8  9  1  0
  9 10  2  0
 10 11  1  0
 11 12  2  0
 12 13  1  0
 13 14  2  0
 13 15  1  0
 15 16  1  0
 16 17  1  0
  7 18  1  0
 18 19  2  0
 19 20  1  0
 20 21  1  0
 20 22  2  0
 22 23  1  0
 23 24  2  0
 24 25  1  0
 25 26  1  0
 26 27  2  0
 26 28  1  0
 28 29  1  0
 29 30  1  0
 30 31  1  0
 31 32  1  0
 14  9  1  0
 27 18  1  0
 17 12  1  0
 27 23  1  0
 32 25  1  0
M  END
>  <smiles>  (493) 
C98692-P121

>  <fragmenstein_outcome>  (493) 
acceptable

>  <inchikey>  (493) 
WSTIFQIWXZPUNC-UHFFFAOYSA-N

>  <fragmenstein_mode>  (493) 
expansion

>  <HIPPO Pose ID>  (493) 
16670

>  <Energy>  (493) 
134.191624

>  <fragmenstein_error>  (493) 


>  <tags>  (493) 
{'openbind_xx01zvns2b_c1_fragmenstein', 'fragmenstein_placed'}

>  <ref_pdb>  (493) 
1

>  <scratch_subdir>  (493) 
/opt/xchem-fragalysis-2/maxwin/BulkDock/SCRATCH/511027/C98692-P121

>  <alias>  (493) 
CC(C)NC(=O)[C@@H](Nc1ccc2c(c1)CNC2)c1cc(Cl)cc2nn3c(c12)CCNCC3

>  <HIPPO Compound ID>  (493) 
75282

>  <fragmenstein_runtime>  (493) 
6.299697

$$$$
CC(C)NC(=O)[C@@H](Nc1ccc2c(c1)CNC2)c1cc(Cl)cc2nn([C@@H](C)CN)cc12
     RDKit          3D

 31 34  0  0  0  0  0  0  0  0999 V2000
   -4.8185    7.8672  -11.6962 C   0  0  0  0  0  0  0  0  0  0  0  0
   -4.2652    6.6682  -12.4562 C   0  0  0  0  0  0  0  0  0  0  0  0
   -3.3119    7.1127  -13.5599 C   0  0  0  0  0  0  0  0  0  0  0  0
   -5.3300    5.8568  -13.0013 N   0  0  0  0  0  0  0  0  0  0  0  0
   -6.4674    6.2201  -14.0143 C   0  0  0  0  0  0  0  0  0  0  0  0
   -6.7544    7.2495  -14.4956 O   0  0  0  0  0  0  0  0  0  0  0  0
   -7.2044    4.8714  -14.3656 C   0  0  1  0  0  0  0  0  0  0  0  0
   -8.4401    4.6564  -13.5511 N   0  0  0  0  0  0  0  0  0  0  0  0
   -8.3229    4.6829  -12.1480 C   0  0  0  0  0  0  0  0  0  0  0  0
   -8.3243    3.4750  -11.4194 C   0  0  0  0  0  0  0  0  0  0  0  0
   -8.2614    3.4613  -10.0223 C   0  0  0  0  0  0  0  0  0  0  0  0
   -8.1818    4.6716   -9.3636 C   0  0  0  0  0  0  0  0  0  0  0  0
   -8.1739    5.8716  -10.0662 C   0  0  0  0  0  0  0  0  0  0  0  0
   -8.2389    5.8958  -11.4524 C   0  0  0  0  0  0  0  0  0  0  0  0
   -8.1672    7.0029   -9.0945 C   0  0  0  0  0  0  0  0  0  0  0  0
   -7.8261    6.3957   -7.7776 N   0  0  0  0  0  0  0  0  0  0  0  0
   -8.1514    4.9489   -7.9007 C   0  0  0  0  0  0  0  0  0  0  0  0
   -7.5106    4.7801  -15.8594 C   0  0  0  0  0  0  0  0  0  0  0  0
   -8.8091    4.4619  -16.3647 C   0  0  0  0  0  0  0  0  0  0  0  0
   -9.1385    4.2729  -17.7405 C   0  0  0  0  0  0  0  0  0  0  0  0
  -10.7834    4.0328  -18.1782 Cl  0  0  0  0  0  0  0  0  0  0  0  0
   -8.2096    4.3257  -18.7762 C   0  0  0  0  0  0  0  0  0  0  0  0
   -6.9393    4.7091  -18.3522 C   0  0  0  0  0  0  0  0  0  0  0  0
   -5.8556    4.9360  -19.1063 N   0  0  0  0  0  0  0  0  0  0  0  0
   -4.9713    5.4893  -18.2685 N   0  0  0  0  0  0  0  0  0  0  0  0
   -3.7962    6.1642  -18.8255 C   0  0  1  0  0  0  0  0  0  0  0  0
   -2.6330    5.1793  -18.9539 C   0  0  0  0  0  0  0  0  0  0  0  0
   -4.1125    6.8839  -20.1651 C   0  0  0  0  0  0  0  0  0  0  0  0
   -3.0280    7.7629  -20.6340 N   0  0  0  0  0  0  0  0  0  0  0  0
   -5.3327    5.3927  -16.9416 C   0  0  0  0  0  0  0  0  0  0  0  0
   -6.6285    4.9335  -16.9522 C   0  0  0  0  0  0  0  0  0  0  0  0
  1  2  1  0
  2  3  1  0
  2  4  1  0
  4  5  1  0
  5  6  2  0
  5  7  1  0
  7  8  1  1
  8  9  1  0
  9 10  2  0
 10 11  1  0
 11 12  2  0
 12 13  1  0
 13 14  2  0
 13 15  1  0
 15 16  1  0
 16 17  1  0
  7 18  1  0
 18 19  2  0
 19 20  1  0
 20 21  1  0
 20 22  2  0
 22 23  1  0
 23 24  2  0
 24 25  1  0
 25 26  1  0
 26 27  1  6
 26 28  1  0
 28 29  1  0
 25 30  1  0
 30 31  2  0
 14  9  1  0
 31 18  1  0
 17 12  1  0
 31 23  1  0
M  END
>  <smiles>  (494) 
C98695-P121

>  <fragmenstein_outcome>  (494) 
acceptable

>  <inchikey>  (494) 
NQCWNHMZOLPXGH-UHFFFAOYSA-N

>  <fragmenstein_mode>  (494) 
expansion

>  <HIPPO Pose ID>  (494) 
16673

>  <Energy>  (494) 
117.826016

>  <fragmenstein_error>  (494) 


>  <tags>  (494) 
{'openbind_xx01zvns2b_c1_fragmenstein', 'fragmenstein_placed'}

>  <ref_pdb>  (494) 
1

>  <scratch_subdir>  (494) 
/opt/xchem-fragalysis-2/maxwin/BulkDock/SCRATCH/511027/C98695-P121

>  <alias>  (494) 
CC(C)NC(=O)[C@@H](Nc1ccc2c(c1)CNC2)c1cc(Cl)cc2nn([C@@H](C)CN)cc12

>  <HIPPO Compound ID>  (494) 
98695

>  <fragmenstein_runtime>  (494) 
5.481554

$$$$
CC(C)NC(=O)[C@@H](Nc1ccc2c(c1)CN[C@@H]2N(C)C)c1cc(Cl)cc2c1cnn2NC(C)(C)CO
     RDKit          3D

 36 39  0  0  0  0  0  0  0  0999 V2000
   -4.5933    3.4929  -10.0837 C   0  0  0  0  0  0  0  0  0  0  0  0
   -4.2585    3.0418  -11.5018 C   0  0  0  0  0  0  0  0  0  0  0  0
   -3.7633    1.6037  -11.5167 C   0  0  0  0  0  0  0  0  0  0  0  0
   -5.4116    3.1988  -12.3579 N   0  0  0  0  0  0  0  0  0  0  0  0
   -5.9603    4.4579  -13.0955 C   0  0  0  0  0  0  0  0  0  0  0  0
   -5.5175    5.5391  -13.1830 O   0  0  0  0  0  0  0  0  0  0  0  0
   -7.3497    4.0701  -13.7334 C   0  0  1  0  0  0  0  0  0  0  0  0
   -8.4100    4.8072  -12.9878 N   0  0  0  0  0  0  0  0  0  0  0  0
   -8.4174    4.5999  -11.5848 C   0  0  0  0  0  0  0  0  0  0  0  0
   -8.1383    5.6866  -10.7319 C   0  0  0  0  0  0  0  0  0  0  0  0
   -8.1482    5.5574   -9.3345 C   0  0  0  0  0  0  0  0  0  0  0  0
   -8.4951    4.3433   -8.7697 C   0  0  0  0  0  0  0  0  0  0  0  0
   -8.7352    3.2565   -9.6142 C   0  0  0  0  0  0  0  0  0  0  0  0
   -8.6952    3.3586  -11.0062 C   0  0  0  0  0  0  0  0  0  0  0  0
   -8.9891    2.0527   -8.7744 C   0  0  0  0  0  0  0  0  0  0  0  0
   -9.2664    2.5725   -7.4271 N   0  0  0  0  0  0  0  0  0  0  0  0
   -8.5895    3.8806   -7.3267 C   0  0  2  0  0  0  0  0  0  0  0  0
   -9.4118    4.6756   -6.3916 N   0  0  0  0  0  0  0  0  0  0  0  0
   -9.4401    4.0191   -5.0655 C   0  0  0  0  0  0  0  0  0  0  0  0
   -8.8813    6.0254   -6.1971 C   0  0  0  0  0  0  0  0  0  0  0  0
   -7.4792    4.4024  -15.2449 C   0  0  0  0  0  0  0  0  0  0  0  0
   -8.7551    4.1767  -15.8465 C   0  0  0  0  0  0  0  0  0  0  0  0
   -9.0035    4.3537  -17.2070 C   0  0  0  0  0  0  0  0  0  0  0  0
  -10.5462    4.0682  -17.8988 Cl  0  0  0  0  0  0  0  0  0  0  0  0
   -8.0160    4.8177  -18.0483 C   0  0  0  0  0  0  0  0  0  0  0  0
   -6.7800    5.1046  -17.4777 C   0  0  0  0  0  0  0  0  0  0  0  0
   -6.4715    4.8809  -16.1336 C   0  0  0  0  0  0  0  0  0  0  0  0
   -5.1008    5.2456  -16.0744 C   0  0  0  0  0  0  0  0  0  0  0  0
   -4.6261    5.7466  -17.2199 N   0  0  0  0  0  0  0  0  0  0  0  0
   -5.6750    5.6793  -18.0510 N   0  0  0  0  0  0  0  0  0  0  0  0
   -5.7084    6.3854  -19.2881 N   0  0  0  0  0  0  0  0  0  0  0  0
   -5.0312    5.6762  -20.4012 C   0  0  0  0  0  0  0  0  0  0  0  0
   -5.6908    4.3624  -20.7955 C   0  0  0  0  0  0  0  0  0  0  0  0
   -5.0590    6.6363  -21.6109 C   0  0  0  0  0  0  0  0  0  0  0  0
   -3.5572    5.4076  -20.0492 C   0  0  0  0  0  0  0  0  0  0  0  0
   -2.9990    6.5692  -19.4342 O   0  0  0  0  0  0  0  0  0  0  0  0
  1  2  1  0
  2  3  1  0
  2  4  1  0
  4  5  1  0
  5  6  2  0
  5  7  1  0
  7  8  1  1
  8  9  1  0
  9 10  2  0
 10 11  1  0
 11 12  2  0
 12 13  1  0
 13 14  2  0
 13 15  1  0
 15 16  1  0
 16 17  1  0
 17 18  1  1
 18 19  1  0
 18 20  1  0
  7 21  1  0
 21 22  2  0
 22 23  1  0
 23 24  1  0
 23 25  2  0
 25 26  1  0
 26 27  2  0
 27 28  1  0
 28 29  2  0
 29 30  1  0
 30 31  1  0
 31 32  1  0
 32 33  1  0
 32 34  1  0
 32 35  1  0
 35 36  1  0
 14  9  1  0
 27 21  1  0
 17 12  1  0
 30 26  1  0
M  END
>  <smiles>  (495) 
C98728-P121

>  <fragmenstein_outcome>  (495) 
acceptable

>  <inchikey>  (495) 
SQCNZRIVLDZCRY-UHFFFAOYSA-N

>  <fragmenstein_mode>  (495) 
expansion

>  <HIPPO Pose ID>  (495) 
16684

>  <Energy>  (495) 
37.330897

>  <fragmenstein_error>  (495) 


>  <tags>  (495) 
{'openbind_xx01zvns2b_c1_fragmenstein', 'fragmenstein_placed'}

>  <ref_pdb>  (495) 
1

>  <scratch_subdir>  (495) 
/opt/xchem-fragalysis-2/maxwin/BulkDock/SCRATCH/511027/C98728-P121

>  <alias>  (495) 
CC(C)NC(=O)[C@@H](Nc1ccc2c(c1)CN[C@@H]2N(C)C)c1cc(Cl)cc2c1cnn2NC(C)(C)CO

>  <HIPPO Compound ID>  (495) 
106834

>  <fragmenstein_runtime>  (495) 
12.88684

$$$$
CC(C)NC(=O)[C@H](N[C@@H]1CCC2=C(CNC2)C1)c1cc(Cl)cc2c(NC(C)(C)CO)n(O)cc12
     RDKit          3D

 34 37  0  0  0  0  0  0  0  0999 V2000
   -3.0997    2.2161  -13.1835 C   0  0  0  0  0  0  0  0  0  0  0  0
   -4.1648    2.5204  -12.1414 C   0  0  0  0  0  0  0  0  0  0  0  0
   -3.5602    3.1449  -10.8913 C   0  0  0  0  0  0  0  0  0  0  0  0
   -5.1763    3.3835  -12.7015 N   0  0  0  0  0  0  0  0  0  0  0  0
   -6.4941    3.0395  -13.4496 C   0  0  0  0  0  0  0  0  0  0  0  0
   -6.9979    2.0071  -13.6576 O   0  0  0  0  0  0  0  0  0  0  0  0
   -7.1891    4.3920  -13.8412 C   0  0  2  0  0  0  0  0  0  0  0  0
   -8.4920    4.4846  -13.1487 N   0  0  0  0  0  0  0  0  0  0  0  0
   -8.4633    4.6284  -11.6843 C   0  0  2  0  0  0  0  0  0  0  0  0
   -7.4724    5.6463  -11.0882 C   0  0  0  0  0  0  0  0  0  0  0  0
   -7.7869    5.9342   -9.6055 C   0  0  0  0  0  0  0  0  0  0  0  0
   -8.1827    4.7031   -8.8681 C   0  0  0  0  0  0  0  0  0  0  0  0
   -8.4790    3.5373   -9.4429 C   0  0  0  0  0  0  0  0  0  0  0  0
   -8.8319    2.5115   -8.4337 C   0  0  0  0  0  0  0  0  0  0  0  0
   -8.7825    3.2238   -7.1323 N   0  0  0  0  0  0  0  0  0  0  0  0
   -8.2977    4.5922   -7.3943 C   0  0  0  0  0  0  0  0  0  0  0  0
   -8.4700    3.2859  -10.9093 C   0  0  0  0  0  0  0  0  0  0  0  0
   -7.3544    4.5091  -15.3457 C   0  0  0  0  0  0  0  0  0  0  0  0
   -8.5855    4.2952  -16.0502 C   0  0  0  0  0  0  0  0  0  0  0  0
   -8.7524    4.3578  -17.4778 C   0  0  0  0  0  0  0  0  0  0  0  0
  -10.3266    4.0969  -18.1446 Cl  0  0  0  0  0  0  0  0  0  0  0  0
   -7.7176    4.6476  -18.3793 C   0  0  0  0  0  0  0  0  0  0  0  0
   -6.5315    4.8783  -17.6997 C   0  0  0  0  0  0  0  0  0  0  0  0
   -5.3283    5.2188  -18.2761 C   0  0  0  0  0  0  0  0  0  0  0  0
   -4.9562    5.4054  -19.5863 N   0  0  0  0  0  0  0  0  0  0  0  0
   -4.7681    6.7975  -20.0989 C   0  0  0  0  0  0  0  0  0  0  0  0
   -4.7989    6.7035  -21.6408 C   0  0  0  0  0  0  0  0  0  0  0  0
   -3.3830    7.3360  -19.7054 C   0  0  0  0  0  0  0  0  0  0  0  0
   -5.8685    7.7592  -19.5795 C   0  0  0  0  0  0  0  0  0  0  0  0
   -5.7945    9.0882  -20.1019 O   0  0  0  0  0  0  0  0  0  0  0  0
   -4.4228    5.2381  -17.2359 N   0  0  0  0  0  0  0  0  0  0  0  0
   -3.0454    5.2975  -17.4061 O   0  0  0  0  0  0  0  0  0  0  0  0
   -5.0290    5.0625  -16.0216 C   0  0  0  0  0  0  0  0  0  0  0  0
   -6.3557    4.8147  -16.2796 C   0  0  0  0  0  0  0  0  0  0  0  0
  1  2  1  0
  2  3  1  0
  2  4  1  0
  4  5  1  0
  5  6  2  0
  5  7  1  0
  7  8  1  1
  9  8  1  6
  9 10  1  0
 10 11  1  0
 11 12  1  0
 12 13  2  0
 13 14  1  0
 14 15  1  0
 15 16  1  0
 13 17  1  0
  7 18  1  0
 18 19  2  0
 19 20  1  0
 20 21  1  0
 20 22  2  0
 22 23  1  0
 23 24  2  0
 24 25  1  0
 25 26  1  0
 26 27  1  0
 26 28  1  0
 26 29  1  0
 29 30  1  0
 24 31  1  0
 31 32  1  0
 31 33  1  0
 33 34  2  0
 17  9  1  0
 34 18  1  0
 16 12  1  0
 34 23  1  0
M  END
>  <smiles>  (496) 
C98731-P121

>  <fragmenstein_outcome>  (496) 
acceptable

>  <inchikey>  (496) 
HBNISAUWJLSKCU-UHFFFAOYSA-O

>  <fragmenstein_mode>  (496) 
expansion

>  <HIPPO Pose ID>  (496) 
16685

>  <Energy>  (496) 
123.939686

>  <fragmenstein_error>  (496) 


>  <tags>  (496) 
{'openbind_xx01zvns2b_c1_fragmenstein', 'fragmenstein_placed'}

>  <ref_pdb>  (496) 
1

>  <scratch_subdir>  (496) 
/opt/xchem-fragalysis-2/maxwin/BulkDock/SCRATCH/511027/C98731-P121

>  <alias>  (496) 
CC(C)NC(=O)[C@H](N[C@@H]1CCC2=C(CNC2)C1)c1cc(Cl)cc2c(NC(C)(C)CO)n(O)cc12

>  <HIPPO Compound ID>  (496) 
92311

>  <fragmenstein_runtime>  (496) 
8.003041

$$$$
CC(C)NC(=O)[C@@H](Nc1ccc2c(c1)CNC2)c1cc(Cl)cc2c(CO)n(C)cc12
     RDKit          3D

 30 33  0  0  0  0  0  0  0  0999 V2000
   -9.6990    9.8565  -13.1433 C   0  0  0  0  0  0  0  0  0  0  0  0
   -8.9941    8.9298  -12.1632 C   0  0  0  0  0  0  0  0  0  0  0  0
   -7.9819    9.6962  -11.3194 C   0  0  0  0  0  0  0  0  0  0  0  0
   -8.3560    7.8065  -12.8191 N   0  0  0  0  0  0  0  0  0  0  0  0
   -8.9772    6.5441  -13.5044 C   0  0  0  0  0  0  0  0  0  0  0  0
  -10.0970    6.2652  -13.7077 O   0  0  0  0  0  0  0  0  0  0  0  0
   -7.7928    5.5359  -13.8304 C   0  0  1  0  0  0  0  0  0  0  0  0
   -7.9391    4.2945  -13.0403 N   0  0  0  0  0  0  0  0  0  0  0  0
   -8.0528    4.3586  -11.6417 C   0  0  0  0  0  0  0  0  0  0  0  0
   -7.5658    5.4298  -10.8644 C   0  0  0  0  0  0  0  0  0  0  0  0
   -7.7152    5.4808   -9.4744 C   0  0  0  0  0  0  0  0  0  0  0  0
   -8.2728    4.3902   -8.8484 C   0  0  0  0  0  0  0  0  0  0  0  0
   -8.6433    3.2691   -9.5766 C   0  0  0  0  0  0  0  0  0  0  0  0
   -8.5488    3.2405  -10.9601 C   0  0  0  0  0  0  0  0  0  0  0  0
   -9.0474    2.1887   -8.6305 C   0  0  0  0  0  0  0  0  0  0  0  0
   -9.2725    2.8700   -7.3283 N   0  0  0  0  0  0  0  0  0  0  0  0
   -8.4987    4.1294   -7.3979 C   0  0  0  0  0  0  0  0  0  0  0  0
   -7.7211    5.2001  -15.3046 C   0  0  0  0  0  0  0  0  0  0  0  0
   -8.8220    4.6576  -16.0371 C   0  0  0  0  0  0  0  0  0  0  0  0
   -8.8386    4.4184  -17.4549 C   0  0  0  0  0  0  0  0  0  0  0  0
  -10.3240    3.9435  -18.1911 Cl  0  0  0  0  0  0  0  0  0  0  0  0
   -7.7454    4.6344  -18.3074 C   0  0  0  0  0  0  0  0  0  0  0  0
   -6.6677    5.1313  -17.5922 C   0  0  0  0  0  0  0  0  0  0  0  0
   -5.4515    5.4847  -18.1349 C   0  0  0  0  0  0  0  0  0  0  0  0
   -4.9661    5.4207  -19.5380 C   0  0  0  0  0  0  0  0  0  0  0  0
   -5.3656    6.6334  -20.1586 O   0  0  0  0  0  0  0  0  0  0  0  0
   -4.6892    5.9505  -17.0763 N   0  0  0  0  0  0  0  0  0  0  0  0
   -3.3354    6.4523  -17.1788 C   0  0  0  0  0  0  0  0  0  0  0  0
   -5.4056    5.8959  -15.8947 C   0  0  0  0  0  0  0  0  0  0  0  0
   -6.6499    5.3972  -16.1887 C   0  0  0  0  0  0  0  0  0  0  0  0
  1  2  1  0
  2  3  1  0
  2  4  1  0
  4  5  1  0
  5  6  2  0
  5  7  1  0
  7  8  1  1
  8  9  1  0
  9 10  2  0
 10 11  1  0
 11 12  2  0
 12 13  1  0
 13 14  2  0
 13 15  1  0
 15 16  1  0
 16 17  1  0
  7 18  1  0
 18 19  2  0
 19 20  1  0
 20 21  1  0
 20 22  2  0
 22 23  1  0
 23 24  2  0
 24 25  1  0
 25 26  1  0
 24 27  1  0
 27 28  1  0
 27 29  1  0
 29 30  2  0
 14  9  1  0
 30 18  1  0
 17 12  1  0
 30 23  1  0
M  END
>  <smiles>  (497) 
C98750-P326

>  <fragmenstein_outcome>  (497) 
acceptable

>  <inchikey>  (497) 
JPXSFCNXFFJWQY-UHFFFAOYSA-N

>  <fragmenstein_mode>  (497) 
expansion

>  <HIPPO Pose ID>  (497) 
16696

>  <Energy>  (497) 
93.039783

>  <fragmenstein_error>  (497) 


>  <tags>  (497) 
{'openbind_xx01zvns2b_c1_fragmenstein', 'fragmenstein_placed'}

>  <ref_pdb>  (497) 
1

>  <scratch_subdir>  (497) 
/opt/xchem-fragalysis-2/maxwin/BulkDock/SCRATCH/511027/C98750-P326

>  <alias>  (497) 
CC(C)NC(=O)[C@@H](Nc1ccc2c(c1)CNC2)c1cc(Cl)cc2c(CO)n(C)cc12

>  <HIPPO Compound ID>  (497) 
97926

>  <fragmenstein_runtime>  (497) 
4.532956

$$$$
CC(C)NC(=O)[C@](O)(Nc1ccc2c(c1)CNC2)c1cc(Cl)cc2c1cnn2NC(C)C
     RDKit          3D

 32 35  0  0  0  0  0  0  0  0999 V2000
   -3.7940    3.8994  -11.5001 C   0  0  0  0  0  0  0  0  0  0  0  0
   -4.1040    5.1534  -12.3099 C   0  0  0  0  0  0  0  0  0  0  0  0
   -2.9616    5.4811  -13.2626 C   0  0  0  0  0  0  0  0  0  0  0  0
   -5.3591    5.0013  -13.0115 N   0  0  0  0  0  0  0  0  0  0  0  0
   -6.2922    6.0691  -13.6599 C   0  0  0  0  0  0  0  0  0  0  0  0
   -6.1470    7.2254  -13.7915 O   0  0  0  0  0  0  0  0  0  0  0  0
   -7.6419    5.3234  -14.1243 C   0  0  2  0  0  0  0  0  0  0  0  0
   -8.7597    6.2085  -14.0283 O   0  0  0  0  0  0  0  0  0  0  0  0
   -7.9095    4.1611  -13.2653 N   0  0  0  0  0  0  0  0  0  0  0  0
   -8.1274    4.2736  -11.8783 C   0  0  0  0  0  0  0  0  0  0  0  0
   -8.0497    5.4844  -11.1561 C   0  0  0  0  0  0  0  0  0  0  0  0
   -8.1136    5.5289   -9.7577 C   0  0  0  0  0  0  0  0  0  0  0  0
   -8.2448    4.3423   -9.0703 C   0  0  0  0  0  0  0  0  0  0  0  0
   -8.3341    3.1387   -9.7494 C   0  0  0  0  0  0  0  0  0  0  0  0
   -8.2772    3.0887  -11.1388 C   0  0  0  0  0  0  0  0  0  0  0  0
   -8.4798    2.0285   -8.7615 C   0  0  0  0  0  0  0  0  0  0  0  0
   -8.3373    2.6430   -7.4150 N   0  0  0  0  0  0  0  0  0  0  0  0
   -8.3266    4.1055   -7.6031 C   0  0  0  0  0  0  0  0  0  0  0  0
   -7.5880    4.9259  -15.6138 C   0  0  0  0  0  0  0  0  0  0  0  0
   -8.8075    4.5063  -16.2124 C   0  0  0  0  0  0  0  0  0  0  0  0
   -8.9563    4.3092  -17.5798 C   0  0  0  0  0  0  0  0  0  0  0  0
  -10.5034    3.9849  -18.2327 Cl  0  0  0  0  0  0  0  0  0  0  0  0
   -7.8866    4.4608  -18.4400 C   0  0  0  0  0  0  0  0  0  0  0  0
   -6.6639    4.8309  -17.8765 C   0  0  0  0  0  0  0  0  0  0  0  0
   -6.4829    5.0416  -16.5072 C   0  0  0  0  0  0  0  0  0  0  0  0
   -5.1054    5.3599  -16.4295 C   0  0  0  0  0  0  0  0  0  0  0  0
   -4.4751    5.3385  -17.6047 N   0  0  0  0  0  0  0  0  0  0  0  0
   -5.4547    5.0916  -18.4833 N   0  0  0  0  0  0  0  0  0  0  0  0
   -5.2708    5.0359  -19.8887 N   0  0  0  0  0  0  0  0  0  0  0  0
   -4.3470    6.0512  -20.3980 C   0  0  0  0  0  0  0  0  0  0  0  0
   -4.0831    5.7467  -21.8766 C   0  0  0  0  0  0  0  0  0  0  0  0
   -4.9204    7.4620  -20.2627 C   0  0  0  0  0  0  0  0  0  0  0  0
  1  2  1  0
  2  3  1  0
  2  4  1  0
  4  5  1  0
  5  6  2  0
  5  7  1  0
  7  8  1  6
  7  9  1  0
  9 10  1  0
 10 11  2  0
 11 12  1  0
 12 13  2  0
 13 14  1  0
 14 15  2  0
 14 16  1  0
 16 17  1  0
 17 18  1  0
  7 19  1  0
 19 20  2  0
 20 21  1  0
 21 22  1  0
 21 23  2  0
 23 24  1  0
 24 25  2  0
 25 26  1  0
 26 27  2  0
 27 28  1  0
 28 29  1  0
 29 30  1  0
 30 31  1  0
 30 32  1  0
 15 10  1  0
 25 19  1  0
 18 13  1  0
 28 24  1  0
M  END
>  <smiles>  (498) 
C98760-P122

>  <fragmenstein_outcome>  (498) 
acceptable

>  <inchikey>  (498) 
JACZSKFZRYRXRZ-UHFFFAOYSA-N

>  <fragmenstein_mode>  (498) 
expansion

>  <HIPPO Pose ID>  (498) 
16702

>  <Energy>  (498) 
46.387001

>  <fragmenstein_error>  (498) 


>  <tags>  (498) 
{'openbind_xx01zvns2b_c1_fragmenstein', 'fragmenstein_placed'}

>  <ref_pdb>  (498) 
1

>  <scratch_subdir>  (498) 
/opt/xchem-fragalysis-2/maxwin/BulkDock/SCRATCH/511027/C98760-P122

>  <alias>  (498) 
CC(C)NC(=O)[C@](O)(Nc1ccc2c(c1)CNC2)c1cc(Cl)cc2c1cnn2NC(C)C

>  <HIPPO Compound ID>  (498) 
81726

>  <fragmenstein_runtime>  (498) 
6.852468

$$$$
CC(C)NC(=O)[C@@](O)(Nc1ccc2c(c1)CNC2)[C@@H]1C[C@H](Cl)[C@H]2NC(=O)C[C@@H]3NC[C@H]1[C@@H]23
     RDKit          3D

 32 36  0  0  0  0  0  0  0  0999 V2000
   -3.9856    4.9030  -10.2843 C   0  0  0  0  0  0  0  0  0  0  0  0
   -4.4275    5.9825  -11.2641 C   0  0  0  0  0  0  0  0  0  0  0  0
   -3.2279    6.6621  -11.9147 C   0  0  0  0  0  0  0  0  0  0  0  0
   -5.2958    5.4314  -12.2765 N   0  0  0  0  0  0  0  0  0  0  0  0
   -6.3251    6.1301  -13.2170 C   0  0  0  0  0  0  0  0  0  0  0  0
   -6.5674    7.2667  -13.3655 O   0  0  0  0  0  0  0  0  0  0  0  0
   -7.0744    4.9536  -14.0282 C   0  0  1  0  0  0  0  0  0  0  0  0
   -6.2613    3.8112  -14.1924 O   0  0  0  0  0  0  0  0  0  0  0  0
   -8.3042    4.5020  -13.3334 N   0  0  0  0  0  0  0  0  0  0  0  0
   -8.3340    4.4605  -11.9287 C   0  0  0  0  0  0  0  0  0  0  0  0
   -8.3326    5.6539  -11.1761 C   0  0  0  0  0  0  0  0  0  0  0  0
   -8.2664    5.6514   -9.7806 C   0  0  0  0  0  0  0  0  0  0  0  0
   -8.2437    4.4339   -9.1336 C   0  0  0  0  0  0  0  0  0  0  0  0
   -8.2895    3.2458   -9.8486 C   0  0  0  0  0  0  0  0  0  0  0  0
   -8.3202    3.2391  -11.2402 C   0  0  0  0  0  0  0  0  0  0  0  0
   -8.3213    2.1003   -8.8904 C   0  0  0  0  0  0  0  0  0  0  0  0
   -8.2617    2.6864   -7.5279 N   0  0  0  0  0  0  0  0  0  0  0  0
   -8.2056    4.1510   -7.6726 C   0  0  0  0  0  0  0  0  0  0  0  0
   -7.4522    5.5026  -15.4443 C   0  0  2  0  0  0  0  0  0  0  0  0
   -8.3886    4.5613  -16.2662 C   0  0  0  0  0  0  0  0  0  0  0  0
   -8.2785    4.6857  -17.8013 C   0  0  2  0  0  0  0  0  0  0  0  0
   -9.4907    3.6235  -18.5673 Cl  0  0  0  0  0  0  0  0  0  0  0  0
   -6.8630    4.4169  -18.3063 C   0  0  1  0  0  0  0  0  0  0  0  0
   -6.5759    4.7950  -19.6797 N   0  0  0  0  0  0  0  0  0  0  0  0
   -5.3077    4.8257  -20.2140 C   0  0  0  0  0  0  0  0  0  0  0  0
   -5.1126    4.6859  -21.4181 O   0  0  0  0  0  0  0  0  0  0  0  0
   -4.1788    5.0481  -19.2185 C   0  0  0  0  0  0  0  0  0  0  0  0
   -4.7867    5.8303  -18.0755 C   0  0  2  0  0  0  0  0  0  0  0  0
   -3.9601    6.2752  -16.9472 N   0  0  0  0  0  0  0  0  0  0  0  0
   -4.9136    6.4295  -15.8036 C   0  0  0  0  0  0  0  0  0  0  0  0
   -6.2840    5.9753  -16.3346 C   0  0  1  0  0  0  0  0  0  0  0  0
   -5.8268    4.9829  -17.3699 C   0  0  1  0  0  0  0  0  0  0  0  0
  1  2  1  0
  2  3  1  0
  2  4  1  0
  4  5  1  0
  5  6  2  0
  5  7  1  0
  7  8  1  6
  7  9  1  0
  9 10  1  0
 10 11  2  0
 11 12  1  0
 12 13  2  0
 13 14  1  0
 14 15  2  0
 14 16  1  0
 16 17  1  0
 17 18  1  0
  7 19  1  0
 19 20  1  6
 20 21  1  0
 21 22  1  6
 21 23  1  0
 23 24  1  6
 24 25  1  0
 25 26  2  0
 25 27  1  0
 28 27  1  6
 28 29  1  0
 29 30  1  0
 31 30  1  1
 31 32  1  0
 15 10  1  0
 31 19  1  0
 18 13  1  0
 32 23  1  0
 32 28  1  6
M  END
>  <smiles>  (499) 
C98770-P122

>  <fragmenstein_outcome>  (499) 
acceptable

>  <inchikey>  (499) 
CQIYQEYBGAUYRD-UHFFFAOYSA-N

>  <fragmenstein_mode>  (499) 
expansion

>  <HIPPO Pose ID>  (499) 
16711

>  <Energy>  (499) 
97.135701

>  <fragmenstein_error>  (499) 


>  <tags>  (499) 
{'openbind_xx01zvns2b_c1_fragmenstein', 'fragmenstein_placed'}

>  <ref_pdb>  (499) 
1

>  <scratch_subdir>  (499) 
/opt/xchem-fragalysis-2/maxwin/BulkDock/SCRATCH/511027/C98770-P122

>  <alias>  (499) 
CC(C)NC(=O)[C@@](O)(Nc1ccc2c(c1)CNC2)[C@@H]1C[C@H](Cl)[C@H]2NC(=O)C[C@@H]3NC[C@H]1[C@@H]23

>  <HIPPO Compound ID>  (499) 
78598

>  <fragmenstein_runtime>  (499) 
8.032759

$$$$
CC[C@H](C)NC(=O)[C@@H](Nc1ccc2c(c1)CNC2)c1cc(Cl)cc2[nH]ncc12
     RDKit          3D

 28 31  0  0  0  0  0  0  0  0999 V2000
   -2.5008    7.9973  -12.0751 C   0  0  0  0  0  0  0  0  0  0  0  0
   -3.4345    6.9972  -12.7402 C   0  0  0  0  0  0  0  0  0  0  0  0
   -4.5452    6.4823  -11.8131 C   0  0  2  0  0  0  0  0  0  0  0  0
   -4.0079    5.7081  -10.6136 C   0  0  0  0  0  0  0  0  0  0  0  0
   -5.4609    5.6533  -12.5683 N   0  0  0  0  0  0  0  0  0  0  0  0
   -6.5686    6.0447  -13.5999 C   0  0  0  0  0  0  0  0  0  0  0  0
   -6.8520    7.0894  -14.0491 O   0  0  0  0  0  0  0  0  0  0  0  0
   -7.2648    4.6969  -14.0373 C   0  0  1  0  0  0  0  0  0  0  0  0
   -8.4816    4.3768  -13.2328 N   0  0  0  0  0  0  0  0  0  0  0  0
   -8.3783    4.4177  -11.8252 C   0  0  0  0  0  0  0  0  0  0  0  0
   -8.2840    5.6549  -11.1547 C   0  0  0  0  0  0  0  0  0  0  0  0
   -8.2114    5.7362   -9.7608 C   0  0  0  0  0  0  0  0  0  0  0  0
   -8.2797    4.5638   -9.0359 C   0  0  0  0  0  0  0  0  0  0  0  0
   -8.3824    3.3295   -9.6688 C   0  0  0  0  0  0  0  0  0  0  0  0
   -8.4096    3.2381  -11.0584 C   0  0  0  0  0  0  0  0  0  0  0  0
   -8.4670    2.2641   -8.6124 C   0  0  0  0  0  0  0  0  0  0  0  0
   -8.7939    2.9895   -7.3543 N   0  0  0  0  0  0  0  0  0  0  0  0
   -8.2874    4.3630   -7.5581 C   0  0  0  0  0  0  0  0  0  0  0  0
   -7.5487    4.7183  -15.5499 C   0  0  0  0  0  0  0  0  0  0  0  0
   -8.8168    4.3945  -16.0935 C   0  0  0  0  0  0  0  0  0  0  0  0
   -9.0477    4.3347  -17.4705 C   0  0  0  0  0  0  0  0  0  0  0  0
  -10.6121    4.0223  -18.0974 Cl  0  0  0  0  0  0  0  0  0  0  0  0
   -8.0343    4.5668  -18.3853 C   0  0  0  0  0  0  0  0  0  0  0  0
   -6.8004    4.9312  -17.8651 C   0  0  0  0  0  0  0  0  0  0  0  0
   -5.6387    5.2637  -18.5050 N   0  0  0  0  0  0  0  0  0  0  0  0
   -4.6297    5.5749  -17.6737 N   0  0  0  0  0  0  0  0  0  0  0  0
   -5.1735    5.4180  -16.4632 C   0  0  0  0  0  0  0  0  0  0  0  0
   -6.5346    5.0183  -16.5035 C   0  0  0  0  0  0  0  0  0  0  0  0
  1  2  1  0
  2  3  1  0
  3  4  1  1
  3  5  1  0
  5  6  1  0
  6  7  2  0
  6  8  1  0
  8  9  1  1
  9 10  1  0
 10 11  2  0
 11 12  1  0
 12 13  2  0
 13 14  1  0
 14 15  2  0
 14 16  1  0
 16 17  1  0
 17 18  1  0
  8 19  1  0
 19 20  2  0
 20 21  1  0
 21 22  1  0
 21 23  2  0
 23 24  1  0
 24 25  1  0
 25 26  1  0
 26 27  2  0
 27 28  1  0
 15 10  1  0
 28 19  1  0
 18 13  1  0
 28 24  2  0
M  END
>  <smiles>  (500) 
C98782-P122

>  <fragmenstein_outcome>  (500) 
acceptable

>  <inchikey>  (500) 
FJMOUQGSRCYPFD-UHFFFAOYSA-N

>  <fragmenstein_mode>  (500) 
expansion

>  <HIPPO Pose ID>  (500) 
16714

>  <Energy>  (500) 
110.572946

>  <fragmenstein_error>  (500) 


>  <tags>  (500) 
{'openbind_xx01zvns2b_c1_fragmenstein', 'fragmenstein_placed'}

>  <ref_pdb>  (500) 
1

>  <scratch_subdir>  (500) 
/opt/xchem-fragalysis-2/maxwin/BulkDock/SCRATCH/511027/C98782-P122

>  <alias>  (500) 
CC[C@H](C)NC(=O)[C@@H](Nc1ccc2c(c1)CNC2)c1cc(Cl)cc2[nH]ncc12

>  <HIPPO Compound ID>  (500) 
98782

>  <fragmenstein_runtime>  (500) 
4.907531

$$$$
CC(C)NC(=O)[C@](O)(Nc1ccc2c(c1)CNC2)c1cc(Cl)cc2nn(C(C)(C)S(C)(=O)=O)cc12
     RDKit          3D

 35 38  0  0  0  0  0  0  0  0999 V2000
   -3.6505    8.1477  -12.6159 C   0  0  0  0  0  0  0  0  0  0  0  0
   -4.0759    6.7339  -12.2446 C   0  0  0  0  0  0  0  0  0  0  0  0
   -4.2613    6.5852  -10.7392 C   0  0  0  0  0  0  0  0  0  0  0  0
   -5.2894    6.3704  -12.9332 N   0  0  0  0  0  0  0  0  0  0  0  0
   -5.7929    4.9790  -13.4342 C   0  0  0  0  0  0  0  0  0  0  0  0
   -5.2627    3.9344  -13.4310 O   0  0  0  0  0  0  0  0  0  0  0  0
   -7.2590    5.2507  -14.0471 C   0  0  2  0  0  0  0  0  0  0  0  0
   -7.6985    6.5973  -13.9685 O   0  0  0  0  0  0  0  0  0  0  0  0
   -8.2576    4.4606  -13.2985 N   0  0  0  0  0  0  0  0  0  0  0  0
   -8.2097    4.4549  -11.8800 C   0  0  0  0  0  0  0  0  0  0  0  0
   -8.0285    5.6237  -11.1079 C   0  0  0  0  0  0  0  0  0  0  0  0
   -8.0515    5.6028   -9.7071 C   0  0  0  0  0  0  0  0  0  0  0  0
   -8.2953    4.4029   -9.0759 C   0  0  0  0  0  0  0  0  0  0  0  0
   -8.5064    3.2436   -9.8098 C   0  0  0  0  0  0  0  0  0  0  0  0
   -8.4763    3.2539  -11.1984 C   0  0  0  0  0  0  0  0  0  0  0  0
   -8.7374    2.1123   -8.8603 C   0  0  0  0  0  0  0  0  0  0  0  0
   -9.0362    2.7605   -7.5524 N   0  0  0  0  0  0  0  0  0  0  0  0
   -8.3820    4.0859   -7.6212 C   0  0  0  0  0  0  0  0  0  0  0  0
   -7.3105    4.9496  -15.5382 C   0  0  0  0  0  0  0  0  0  0  0  0
   -8.5206    4.5655  -16.1963 C   0  0  0  0  0  0  0  0  0  0  0  0
   -8.6597    4.3397  -17.6021 C   0  0  0  0  0  0  0  0  0  0  0  0
  -10.2282    3.9745  -18.2177 Cl  0  0  0  0  0  0  0  0  0  0  0  0
   -7.6062    4.4428  -18.5180 C   0  0  0  0  0  0  0  0  0  0  0  0
   -6.4028    4.8412  -17.9292 C   0  0  0  0  0  0  0  0  0  0  0  0
   -5.2113    5.0488  -18.5117 N   0  0  0  0  0  0  0  0  0  0  0  0
   -4.3877    5.4428  -17.5220 N   0  0  0  0  0  0  0  0  0  0  0  0
   -2.9538    5.6476  -17.7994 C   0  0  0  0  0  0  0  0  0  0  0  0
   -2.4420    4.6134  -18.8244 C   0  0  0  0  0  0  0  0  0  0  0  0
   -2.1266    5.4889  -16.5026 C   0  0  0  0  0  0  0  0  0  0  0  0
   -2.6778    7.3401  -18.4542 S   0  0  0  0  0  0  0  0  0  0  0  0
   -0.9187    7.4653  -18.6953 C   0  0  0  0  0  0  0  0  0  0  0  0
   -3.2648    7.4822  -19.7740 O   0  0  0  0  0  0  0  0  0  0  0  0
   -3.0070    8.3028  -17.4136 O   0  0  0  0  0  0  0  0  0  0  0  0
   -5.0261    5.5564  -16.3125 C   0  0  0  0  0  0  0  0  0  0  0  0
   -6.3018    5.0978  -16.5088 C   0  0  0  0  0  0  0  0  0  0  0  0
  1  2  1  0
  2  3  1  0
  2  4  1  0
  4  5  1  0
  5  6  2  0
  5  7  1  0
  7  8  1  6
  7  9  1  0
  9 10  1  0
 10 11  2  0
 11 12  1  0
 12 13  2  0
 13 14  1  0
 14 15  2  0
 14 16  1  0
 16 17  1  0
 17 18  1  0
  7 19  1  0
 19 20  2  0
 20 21  1  0
 21 22  1  0
 21 23  2  0
 23 24  1  0
 24 25  2  0
 25 26  1  0
 26 27  1  0
 27 28  1  0
 27 29  1  0
 27 30  1  0
 30 31  1  0
 30 32  2  0
 30 33  2  0
 26 34  1  0
 34 35  2  0
 15 10  1  0
 35 19  1  0
 18 13  1  0
 35 24  1  0
M  END
>  <smiles>  (501) 
C98795-P122

>  <fragmenstein_outcome>  (501) 
acceptable

>  <inchikey>  (501) 
AJMLTBABWFXMMJ-UHFFFAOYSA-N

>  <fragmenstein_mode>  (501) 
expansion

>  <HIPPO Pose ID>  (501) 
16720

>  <Energy>  (501) 
96.356117

>  <fragmenstein_error>  (501) 


>  <tags>  (501) 
{'openbind_xx01zvns2b_c1_fragmenstein', 'fragmenstein_placed'}

>  <ref_pdb>  (501) 
1

>  <scratch_subdir>  (501) 
/opt/xchem-fragalysis-2/maxwin/BulkDock/SCRATCH/511027/C98795-P122

>  <alias>  (501) 
CC(C)NC(=O)[C@](O)(Nc1ccc2c(c1)CNC2)c1cc(Cl)cc2nn(C(C)(C)S(C)(=O)=O)cc12

>  <HIPPO Compound ID>  (501) 
73179

>  <fragmenstein_runtime>  (501) 
5.726753

$$$$
CC(C)NC(=O)[C@@](O)(Nc1ccc2c(c1)CNC2)c1cc(Cl)cc2[nH][n+]([O-])cc12
     RDKit          3D

 29 32  0  0  0  0  0  0  0  0999 V2000
   -9.0950    8.6713  -11.3820 C   0  0  0  0  0  0  0  0  0  0  0  0
   -9.2709    8.4932  -12.8875 C   0  0  0  0  0  0  0  0  0  0  0  0
  -10.7216    8.7047  -13.3140 C   0  0  0  0  0  0  0  0  0  0  0  0
   -8.7336    7.2112  -13.3253 N   0  0  0  0  0  0  0  0  0  0  0  0
   -7.3274    6.8443  -13.9046 C   0  0  0  0  0  0  0  0  0  0  0  0
   -6.4196    7.5316  -14.1879 O   0  0  0  0  0  0  0  0  0  0  0  0
   -7.2421    5.2160  -14.0592 C   0  0  1  0  0  0  0  0  0  0  0  0
   -5.9667    4.6983  -13.7391 O   0  0  0  0  0  0  0  0  0  0  0  0
   -8.2210    4.4965  -13.1953 N   0  0  0  0  0  0  0  0  0  0  0  0
   -8.0654    4.4248  -11.7853 C   0  0  0  0  0  0  0  0  0  0  0  0
   -7.5955    5.5045  -11.0081 C   0  0  0  0  0  0  0  0  0  0  0  0
   -7.6025    5.4905   -9.6078 C   0  0  0  0  0  0  0  0  0  0  0  0
   -8.0639    4.3647   -8.9676 C   0  0  0  0  0  0  0  0  0  0  0  0
   -8.4870    3.2600   -9.6924 C   0  0  0  0  0  0  0  0  0  0  0  0
   -8.5203    3.2849  -11.0888 C   0  0  0  0  0  0  0  0  0  0  0  0
   -8.8241    2.1720   -8.7139 C   0  0  0  0  0  0  0  0  0  0  0  0
   -8.9942    2.8563   -7.4052 N   0  0  0  0  0  0  0  0  0  0  0  0
   -8.1737    4.0821   -7.5072 C   0  0  0  0  0  0  0  0  0  0  0  0
   -7.4504    4.9033  -15.5697 C   0  0  0  0  0  0  0  0  0  0  0  0
   -8.7362    4.5648  -16.0773 C   0  0  0  0  0  0  0  0  0  0  0  0
   -8.9828    4.3513  -17.4399 C   0  0  0  0  0  0  0  0  0  0  0  0
  -10.5682    4.0552  -18.0268 Cl  0  0  0  0  0  0  0  0  0  0  0  0
   -7.9757    4.4388  -18.3838 C   0  0  0  0  0  0  0  0  0  0  0  0
   -6.7182    4.7689  -17.9122 C   0  0  0  0  0  0  0  0  0  0  0  0
   -5.5431    4.9298  -18.5934 N   0  0  0  0  0  0  0  0  0  0  0  0
   -4.4742    5.2386  -17.7090 N   0  0  0  0  0  0  0  0  0  0  0  0
   -3.3254    5.3718  -18.1899 O   0  0  0  0  0  0  0  0  0  0  0  0
   -4.9695    5.3251  -16.4622 C   0  0  0  0  0  0  0  0  0  0  0  0
   -6.4037    5.0086  -16.5491 C   0  0  0  0  0  0  0  0  0  0  0  0
  1  2  1  0
  2  3  1  0
  2  4  1  0
  4  5  1  0
  5  6  2  0
  5  7  1  0
  7  8  1  1
  7  9  1  0
  9 10  1  0
 10 11  2  0
 11 12  1  0
 12 13  2  0
 13 14  1  0
 14 15  2  0
 14 16  1  0
 16 17  1  0
 17 18  1  0
  7 19  1  0
 19 20  2  0
 20 21  1  0
 21 22  1  0
 21 23  2  0
 23 24  1  0
 24 25  1  0
 25 26  1  0
 26 27  1  0
 26 28  2  0
 28 29  1  0
 15 10  1  0
 29 19  1  0
 18 13  1  0
 29 24  2  0
M  CHG  2  26   1  27  -1
M  END
>  <smiles>  (502) 
C98776-P122

>  <fragmenstein_outcome>  (502) 
acceptable

>  <inchikey>  (502) 
ZWHDYSXRGMXBRQ-UHFFFAOYSA-N

>  <fragmenstein_mode>  (502) 
expansion

>  <HIPPO Pose ID>  (502) 
16734

>  <Energy>  (502) 
73.973766

>  <fragmenstein_error>  (502) 


>  <tags>  (502) 
{'openbind_xx01zvns2b_c1_fragmenstein', 'fragmenstein_placed'}

>  <ref_pdb>  (502) 
1

>  <scratch_subdir>  (502) 
/opt/xchem-fragalysis-2/maxwin/BulkDock/SCRATCH/511027/C98776-P122

>  <alias>  (502) 
CC(C)NC(=O)[C@@](O)(Nc1ccc2c(c1)CNC2)c1cc(Cl)cc2[nH][n+]([O-])cc12

>  <HIPPO Compound ID>  (502) 
98776

>  <fragmenstein_runtime>  (502) 
4.162296

$$$$
CC(C)NC(=O)[C@@](O)(Nc1ccc2c(c1)C(=O)NC2)c1cc(Cl)cc2c1C=N[N@H+]2[O-]
     RDKit          3D

 30 33  0  0  0  0  0  0  0  0999 V2000
   -3.5089    6.4842  -11.2712 C   0  0  0  0  0  0  0  0  0  0  0  0
   -4.2081    6.9784  -12.5302 C   0  0  0  0  0  0  0  0  0  0  0  0
   -3.2056    7.3112  -13.6288 C   0  0  0  0  0  0  0  0  0  0  0  0
   -5.1607    6.0002  -12.9985 N   0  0  0  0  0  0  0  0  0  0  0  0
   -6.4611    6.1763  -13.8455 C   0  0  0  0  0  0  0  0  0  0  0  0
   -6.9945    7.1489  -14.2238 O   0  0  0  0  0  0  0  0  0  0  0  0
   -7.0037    4.6836  -14.1382 C   0  0  1  0  0  0  0  0  0  0  0  0
   -6.0102    3.7097  -13.8674 O   0  0  0  0  0  0  0  0  0  0  0  0
   -8.1839    4.3295  -13.3157 N   0  0  0  0  0  0  0  0  0  0  0  0
   -8.1805    4.4275  -11.9104 C   0  0  0  0  0  0  0  0  0  0  0  0
   -7.8400    5.6160  -11.2276 C   0  0  0  0  0  0  0  0  0  0  0  0
   -7.7862    5.7010   -9.8264 C   0  0  0  0  0  0  0  0  0  0  0  0
   -8.1483    4.5957   -9.0916 C   0  0  0  0  0  0  0  0  0  0  0  0
   -8.5949    3.4553   -9.7473 C   0  0  0  0  0  0  0  0  0  0  0  0
   -8.6011    3.3342  -11.1327 C   0  0  0  0  0  0  0  0  0  0  0  0
   -9.0735    2.5236   -8.7117 C   0  0  0  0  0  0  0  0  0  0  0  0
   -9.6435    1.4683   -8.8808 O   0  0  0  0  0  0  0  0  0  0  0  0
   -8.8176    3.1117   -7.4916 N   0  0  0  0  0  0  0  0  0  0  0  0
   -8.1869    4.3942   -7.6147 C   0  0  0  0  0  0  0  0  0  0  0  0
   -7.3017    4.6070  -15.6384 C   0  0  0  0  0  0  0  0  0  0  0  0
   -8.5866    4.3435  -16.1615 C   0  0  0  0  0  0  0  0  0  0  0  0
   -8.8272    4.3242  -17.5492 C   0  0  0  0  0  0  0  0  0  0  0  0
  -10.4081    4.0363  -18.1500 Cl  0  0  0  0  0  0  0  0  0  0  0  0
   -7.8182    4.6075  -18.4586 C   0  0  0  0  0  0  0  0  0  0  0  0
   -6.5768    4.9273  -17.9574 C   0  0  0  0  0  0  0  0  0  0  0  0
   -6.3191    4.8762  -16.5966 C   0  0  0  0  0  0  0  0  0  0  0  0
   -4.9020    5.2015  -16.5039 C   0  0  0  0  0  0  0  0  0  0  0  0
   -4.3475    5.5537  -17.6259 N   0  0  0  0  0  0  0  0  0  0  0  0
   -5.4253    5.4592  -18.6880 N   0  0  1  0  0  0  0  0  0  0  0  0
   -5.0008    4.6264  -19.6410 O   0  0  0  0  0  0  0  0  0  0  0  0
  1  2  1  0
  2  3  1  0
  2  4  1  0
  4  5  1  0
  5  6  2  0
  5  7  1  0
  7  8  1  6
  7  9  1  0
  9 10  1  0
 10 11  2  0
 11 12  1  0
 12 13  2  0
 13 14  1  0
 14 15  2  0
 14 16  1  0
 16 17  2  0
 16 18  1  0
 18 19  1  0
  7 20  1  0
 20 21  2  0
 21 22  1  0
 22 23  1  0
 22 24  2  0
 24 25  1  0
 25 26  2  0
 26 27  1  0
 27 28  2  0
 28 29  1  0
 29 30  1  6
 15 10  1  0
 26 20  1  0
 19 13  1  0
 29 25  1  0
M  CHG  2  29   1  30  -1
M  END
>  <smiles>  (503) 
C98823-P122

>  <fragmenstein_outcome>  (503) 
acceptable

>  <inchikey>  (503) 
XHFVCEQSTDIVKM-UHFFFAOYSA-N

>  <fragmenstein_mode>  (503) 
expansion

>  <HIPPO Pose ID>  (503) 
16737

>  <Energy>  (503) 
73.072183

>  <fragmenstein_error>  (503) 


>  <tags>  (503) 
{'openbind_xx01zvns2b_c1_fragmenstein', 'fragmenstein_placed'}

>  <ref_pdb>  (503) 
1

>  <scratch_subdir>  (503) 
/opt/xchem-fragalysis-2/maxwin/BulkDock/SCRATCH/511027/C98823-P122

>  <alias>  (503) 
CC(C)NC(=O)[C@@](O)(Nc1ccc2c(c1)C(=O)NC2)c1cc(Cl)cc2c1C=N[N@H+]2[O-]

>  <HIPPO Compound ID>  (503) 
105271

>  <fragmenstein_runtime>  (503) 
6.498054

$$$$
CC(C)NC(=O)[C@](O)(Nc1ccc2c(c1)CNC2)c1cc(Cl)cc2nn(CC3CCNCC3)cc12
     RDKit          3D

 35 39  0  0  0  0  0  0  0  0999 V2000
   -3.4756    2.1294  -13.0609 C   0  0  0  0  0  0  0  0  0  0  0  0
   -4.0471    3.3338  -12.3302 C   0  0  0  0  0  0  0  0  0  0  0  0
   -4.4346    2.9793  -10.8981 C   0  0  0  0  0  0  0  0  0  0  0  0
   -5.1910    3.8727  -13.0323 N   0  0  0  0  0  0  0  0  0  0  0  0
   -5.5683    5.2316  -13.3196 C   0  0  0  0  0  0  0  0  0  0  0  0
   -4.9882    6.2677  -13.1191 O   0  0  0  0  0  0  0  0  0  0  0  0
   -7.0314    5.3173  -13.9826 C   0  0  2  0  0  0  0  0  0  0  0  0
   -7.5005    6.6651  -13.9607 O   0  0  0  0  0  0  0  0  0  0  0  0
   -7.9895    4.4708  -13.2402 N   0  0  0  0  0  0  0  0  0  0  0  0
   -8.0668    4.4869  -11.8406 C   0  0  0  0  0  0  0  0  0  0  0  0
   -7.9027    5.6591  -11.0745 C   0  0  0  0  0  0  0  0  0  0  0  0
   -7.9788    5.6514   -9.6747 C   0  0  0  0  0  0  0  0  0  0  0  0
   -8.2501    4.4569   -9.0414 C   0  0  0  0  0  0  0  0  0  0  0  0
   -8.4447    3.2934   -9.7731 C   0  0  0  0  0  0  0  0  0  0  0  0
   -8.3664    3.2934  -11.1599 C   0  0  0  0  0  0  0  0  0  0  0  0
   -8.7056    2.1653   -8.8274 C   0  0  0  0  0  0  0  0  0  0  0  0
   -9.0092    2.8137   -7.5225 N   0  0  0  0  0  0  0  0  0  0  0  0
   -8.3791    4.1498   -7.5880 C   0  0  0  0  0  0  0  0  0  0  0  0
   -7.0560    4.9728  -15.4689 C   0  0  0  0  0  0  0  0  0  0  0  0
   -8.2994    4.6542  -16.1141 C   0  0  0  0  0  0  0  0  0  0  0  0
   -8.4772    4.4160  -17.5114 C   0  0  0  0  0  0  0  0  0  0  0  0
  -10.0637    4.0671  -18.0957 Cl  0  0  0  0  0  0  0  0  0  0  0  0
   -7.4411    4.4831  -18.4457 C   0  0  0  0  0  0  0  0  0  0  0  0
   -6.2054    4.8098  -17.8799 C   0  0  0  0  0  0  0  0  0  0  0  0
   -5.0279    4.9622  -18.5040 N   0  0  0  0  0  0  0  0  0  0  0  0
   -4.1553    5.2609  -17.5319 N   0  0  0  0  0  0  0  0  0  0  0  0
   -2.7485    5.3889  -17.8720 C   0  0  0  0  0  0  0  0  0  0  0  0
   -2.3249    6.8080  -18.2811 C   0  0  0  0  0  0  0  0  0  0  0  0
   -0.7969    6.8593  -18.5032 C   0  0  0  0  0  0  0  0  0  0  0  0
   -0.3790    7.8237  -19.6169 C   0  0  0  0  0  0  0  0  0  0  0  0
   -1.1857    9.0406  -19.5949 N   0  0  0  0  0  0  0  0  0  0  0  0
   -2.5944    8.7506  -19.8836 C   0  0  0  0  0  0  0  0  0  0  0  0
   -3.0482    7.3288  -19.5295 C   0  0  0  0  0  0  0  0  0  0  0  0
   -4.7184    5.3589  -16.2875 C   0  0  0  0  0  0  0  0  0  0  0  0
   -6.0451    5.0437  -16.4515 C   0  0  0  0  0  0  0  0  0  0  0  0
  1  2  1  0
  2  3  1  0
  2  4  1  0
  4  5  1  0
  5  6  2  0
  5  7  1  0
  7  8  1  6
  7  9  1  0
  9 10  1  0
 10 11  2  0
 11 12  1  0
 12 13  2  0
 13 14  1  0
 14 15  2  0
 14 16  1  0
 16 17  1  0
 17 18  1  0
  7 19  1  0
 19 20  2  0
 20 21  1  0
 21 22  1  0
 21 23  2  0
 23 24  1  0
 24 25  2  0
 25 26  1  0
 26 27  1  0
 27 28  1  0
 28 29  1  0
 29 30  1  0
 30 31  1  0
 31 32  1  0
 32 33  1  0
 26 34  1  0
 34 35  2  0
 15 10  1  0
 35 19  1  0
 18 13  1  0
 35 24  1  0
 33 28  1  0
M  END
>  <smiles>  (504) 
C98843-P122

>  <fragmenstein_outcome>  (504) 
acceptable

>  <inchikey>  (504) 
VLHJFFXOKKXHIW-UHFFFAOYSA-N

>  <fragmenstein_mode>  (504) 
expansion

>  <HIPPO Pose ID>  (504) 
16751

>  <Energy>  (504) 
81.438017

>  <fragmenstein_error>  (504) 


>  <tags>  (504) 
{'openbind_xx01zvns2b_c1_fragmenstein', 'fragmenstein_placed'}

>  <ref_pdb>  (504) 
1

>  <scratch_subdir>  (504) 
/opt/xchem-fragalysis-2/maxwin/BulkDock/SCRATCH/511027/C98843-P122

>  <alias>  (504) 
CC(C)NC(=O)[C@](O)(Nc1ccc2c(c1)CNC2)c1cc(Cl)cc2nn(CC3CCNCC3)cc12

>  <HIPPO Compound ID>  (504) 
98843

>  <fragmenstein_runtime>  (504) 
10.049881

$$$$
CNCn1ncc2c([C@@](O)(Nc3ccc4c(c3F)C(=O)NC4)C(=O)NC(C)C)cc(Cl)cc21
     RDKit          3D

 33 36  0  0  0  0  0  0  0  0999 V2000
   -1.9769    5.5378  -19.0349 C   0  0  0  0  0  0  0  0  0  0  0  0
   -3.3665    5.7983  -19.4145 N   0  0  0  0  0  0  0  0  0  0  0  0
   -4.2662    4.7850  -18.8490 C   0  0  0  0  0  0  0  0  0  0  0  0
   -4.7963    5.1677  -17.5381 N   0  0  0  0  0  0  0  0  0  0  0  0
   -3.9536    5.5313  -16.5473 N   0  0  0  0  0  0  0  0  0  0  0  0
   -4.7154    5.5202  -15.4583 C   0  0  0  0  0  0  0  0  0  0  0  0
   -6.0489    5.1055  -15.7014 C   0  0  0  0  0  0  0  0  0  0  0  0
   -7.2111    4.8701  -14.9052 C   0  0  0  0  0  0  0  0  0  0  0  0
   -7.2648    5.1257  -13.3906 C   0  0  1  0  0  0  0  0  0  0  0  0
   -7.5649    6.5220  -13.3287 O   0  0  0  0  0  0  0  0  0  0  0  0
   -8.3565    4.4031  -12.7033 N   0  0  0  0  0  0  0  0  0  0  0  0
   -8.3680    4.3508  -11.2830 C   0  0  0  0  0  0  0  0  0  0  0  0
   -7.9837    5.4497  -10.4803 C   0  0  0  0  0  0  0  0  0  0  0  0
   -7.9400    5.3754   -9.0810 C   0  0  0  0  0  0  0  0  0  0  0  0
   -8.3409    4.2026   -8.4736 C   0  0  0  0  0  0  0  0  0  0  0  0
   -8.8062    3.1341   -9.2411 C   0  0  0  0  0  0  0  0  0  0  0  0
   -8.8253    3.1889  -10.6234 C   0  0  0  0  0  0  0  0  0  0  0  0
   -9.2645    2.1599  -11.3597 F   0  0  0  0  0  0  0  0  0  0  0  0
   -9.2515    2.0959   -8.3015 C   0  0  0  0  0  0  0  0  0  0  0  0
   -9.8070    1.0490   -8.5494 O   0  0  0  0  0  0  0  0  0  0  0  0
   -8.9857    2.5605   -7.0302 N   0  0  0  0  0  0  0  0  0  0  0  0
   -8.3927    3.8638   -7.0226 C   0  0  0  0  0  0  0  0  0  0  0  0
   -5.8578    4.8368  -12.6507 C   0  0  0  0  0  0  0  0  0  0  0  0
   -5.1791    5.7310  -12.3088 O   0  0  0  0  0  0  0  0  0  0  0  0
   -5.6956    3.3041  -12.4270 N   0  0  0  0  0  0  0  0  0  0  0  0
   -4.6190    2.5524  -11.8208 C   0  0  0  0  0  0  0  0  0  0  0  0
   -5.1780    1.4441  -10.9371 C   0  0  0  0  0  0  0  0  0  0  0  0
   -3.6656    2.0100  -12.8737 C   0  0  0  0  0  0  0  0  0  0  0  0
   -8.3906    4.5348  -15.6302 C   0  0  0  0  0  0  0  0  0  0  0  0
   -8.4077    4.4051  -17.0223 C   0  0  0  0  0  0  0  0  0  0  0  0
   -9.8690    4.0169  -17.8575 Cl  0  0  0  0  0  0  0  0  0  0  0  0
   -7.2586    4.6070  -17.7785 C   0  0  0  0  0  0  0  0  0  0  0  0
   -6.0890    4.9519  -17.0912 C   0  0  0  0  0  0  0  0  0  0  0  0
  1  2  1  0
  2  3  1  0
  3  4  1  0
  4  5  1  0
  5  6  2  0
  6  7  1  0
  7  8  2  0
  8  9  1  0
  9 10  1  6
  9 11  1  0
 11 12  1  0
 12 13  2  0
 13 14  1  0
 14 15  2  0
 15 16  1  0
 16 17  2  0
 17 18  1  0
 16 19  1  0
 19 20  2  0
 19 21  1  0
 21 22  1  0
  9 23  1  0
 23 24  2  0
 23 25  1  0
 25 26  1  0
 26 27  1  0
 26 28  1  0
  8 29  1  0
 29 30  2  0
 30 31  1  0
 30 32  1  0
 32 33  2  0
 33  4  1  0
 33  7  1  0
 17 12  1  0
 22 15  1  0
M  END
>  <smiles>  (505) 
C98847-P122

>  <fragmenstein_outcome>  (505) 
acceptable

>  <inchikey>  (505) 
TUGYGULYFAAXNY-UHFFFAOYSA-N

>  <fragmenstein_mode>  (505) 
expansion

>  <HIPPO Pose ID>  (505) 
16755

>  <Energy>  (505) 
136.894798

>  <fragmenstein_error>  (505) 


>  <tags>  (505) 
{'openbind_xx01zvns2b_c1_fragmenstein', 'fragmenstein_placed'}

>  <ref_pdb>  (505) 
1

>  <scratch_subdir>  (505) 
/opt/xchem-fragalysis-2/maxwin/BulkDock/SCRATCH/511027/C98847-P122

>  <alias>  (505) 
CNCn1ncc2c([C@@](O)(Nc3ccc4c(c3F)C(=O)NC4)C(=O)NC(C)C)cc(Cl)cc21

>  <HIPPO Compound ID>  (505) 
86720

>  <fragmenstein_runtime>  (505) 
7.598049

$$$$
CC(C)NC(=O)[C@](O)(Nc1ccc2c(c1)CNC2)c1cc(Cl)cc2nn(CN)cc12
     RDKit          3D

 30 33  0  0  0  0  0  0  0  0999 V2000
   -3.2031    7.6152  -12.3609 C   0  0  0  0  0  0  0  0  0  0  0  0
   -3.7033    6.1946  -12.1379 C   0  0  0  0  0  0  0  0  0  0  0  0
   -3.8528    5.8864  -10.6524 C   0  0  0  0  0  0  0  0  0  0  0  0
   -4.9571    5.9820  -12.8169 N   0  0  0  0  0  0  0  0  0  0  0  0
   -5.6012    4.6707  -13.3680 C   0  0  0  0  0  0  0  0  0  0  0  0
   -5.1756    3.5814  -13.4215 O   0  0  0  0  0  0  0  0  0  0  0  0
   -7.0480    5.1047  -13.9129 C   0  0  2  0  0  0  0  0  0  0  0  0
   -7.3362    6.4902  -13.7856 O   0  0  0  0  0  0  0  0  0  0  0  0
   -8.0982    4.4075  -13.1376 N   0  0  0  0  0  0  0  0  0  0  0  0
   -8.0725    4.3941  -11.7215 C   0  0  0  0  0  0  0  0  0  0  0  0
   -7.7964    5.5310  -10.9329 C   0  0  0  0  0  0  0  0  0  0  0  0
   -7.8553    5.4986   -9.5307 C   0  0  0  0  0  0  0  0  0  0  0  0
   -8.2143    4.3190   -8.9128 C   0  0  0  0  0  0  0  0  0  0  0  0
   -8.5148    3.1941   -9.6631 C   0  0  0  0  0  0  0  0  0  0  0  0
   -8.4673    3.2204  -11.0527 C   0  0  0  0  0  0  0  0  0  0  0  0
   -8.8283    2.0611   -8.7429 C   0  0  0  0  0  0  0  0  0  0  0  0
   -8.9538    2.6608   -7.3888 N   0  0  0  0  0  0  0  0  0  0  0  0
   -8.3326    3.9979   -7.4618 C   0  0  0  0  0  0  0  0  0  0  0  0
   -7.1922    4.8521  -15.4112 C   0  0  0  0  0  0  0  0  0  0  0  0
   -8.4603    4.5253  -15.9972 C   0  0  0  0  0  0  0  0  0  0  0  0
   -8.7079    4.3598  -17.3954 C   0  0  0  0  0  0  0  0  0  0  0  0
  -10.3086    4.0222  -17.9310 Cl  0  0  0  0  0  0  0  0  0  0  0  0
   -7.7321    4.5080  -18.3823 C   0  0  0  0  0  0  0  0  0  0  0  0
   -6.4793    4.8542  -17.8746 C   0  0  0  0  0  0  0  0  0  0  0  0
   -5.3561    5.1093  -18.5631 N   0  0  0  0  0  0  0  0  0  0  0  0
   -4.4191    5.3346  -17.6236 N   0  0  0  0  0  0  0  0  0  0  0  0
   -3.0530    5.6351  -18.0591 C   0  0  0  0  0  0  0  0  0  0  0  0
   -2.4854    4.4511  -18.6896 N   0  0  0  0  0  0  0  0  0  0  0  0
   -4.9160    5.3552  -16.3428 C   0  0  0  0  0  0  0  0  0  0  0  0
   -6.2431    5.0135  -16.4481 C   0  0  0  0  0  0  0  0  0  0  0  0
  1  2  1  0
  2  3  1  0
  2  4  1  0
  4  5  1  0
  5  6  2  0
  5  7  1  0
  7  8  1  6
  7  9  1  0
  9 10  1  0
 10 11  2  0
 11 12  1  0
 12 13  2  0
 13 14  1  0
 14 15  2  0
 14 16  1  0
 16 17  1  0
 17 18  1  0
  7 19  1  0
 19 20  2  0
 20 21  1  0
 21 22  1  0
 21 23  2  0
 23 24  1  0
 24 25  2  0
 25 26  1  0
 26 27  1  0
 27 28  1  0
 26 29  1  0
 29 30  2  0
 15 10  1  0
 30 19  1  0
 18 13  1  0
 30 24  1  0
M  END
>  <smiles>  (506) 
C98863-P122

>  <fragmenstein_outcome>  (506) 
acceptable

>  <inchikey>  (506) 
CIWQPXHSRCIHOL-UHFFFAOYSA-N

>  <fragmenstein_mode>  (506) 
expansion

>  <HIPPO Pose ID>  (506) 
16768

>  <Energy>  (506) 
106.841277

>  <fragmenstein_error>  (506) 


>  <tags>  (506) 
{'openbind_xx01zvns2b_c1_fragmenstein', 'fragmenstein_placed'}

>  <ref_pdb>  (506) 
1

>  <scratch_subdir>  (506) 
/opt/xchem-fragalysis-2/maxwin/BulkDock/SCRATCH/511027/C98863-P122

>  <alias>  (506) 
CC(C)NC(=O)[C@](O)(Nc1ccc2c(c1)CNC2)c1cc(Cl)cc2nn(CN)cc12

>  <HIPPO Compound ID>  (506) 
91631

>  <fragmenstein_runtime>  (506) 
5.258976

$$$$
CC(C)NC(=O)[C@@](O)(Nc1ccc2c(c1)CNC2)c1cc(Cl)cc2c1cnn2NC1CNC1
     RDKit          3D

 33 37  0  0  0  0  0  0  0  0999 V2000
   -4.2348    8.3034  -13.1929 C   0  0  0  0  0  0  0  0  0  0  0  0
   -4.8267    7.4132  -12.1056 C   0  0  0  0  0  0  0  0  0  0  0  0
   -3.7421    6.8932  -11.1712 C   0  0  0  0  0  0  0  0  0  0  0  0
   -5.5591    6.3205  -12.6996 N   0  0  0  0  0  0  0  0  0  0  0  0
   -6.9415    6.3034  -13.4270 C   0  0  0  0  0  0  0  0  0  0  0  0
   -7.6553    7.1851  -13.7205 O   0  0  0  0  0  0  0  0  0  0  0  0
   -7.2495    4.7481  -13.7451 C   0  0  1  0  0  0  0  0  0  0  0  0
   -6.1590    3.9021  -13.3977 O   0  0  0  0  0  0  0  0  0  0  0  0
   -8.4196    4.2507  -12.9973 N   0  0  0  0  0  0  0  0  0  0  0  0
   -8.4085    4.2528  -11.5865 C   0  0  0  0  0  0  0  0  0  0  0  0
   -8.2565    5.4333  -10.8339 C   0  0  0  0  0  0  0  0  0  0  0  0
   -8.2142    5.4231   -9.4336 C   0  0  0  0  0  0  0  0  0  0  0  0
   -8.3512    4.2155   -8.7808 C   0  0  0  0  0  0  0  0  0  0  0  0
   -8.5231    3.0413   -9.4949 C   0  0  0  0  0  0  0  0  0  0  0  0
   -8.5533    3.0434  -10.8860 C   0  0  0  0  0  0  0  0  0  0  0  0
   -8.6804    1.9028   -8.5418 C   0  0  0  0  0  0  0  0  0  0  0  0
   -8.4967    2.4672   -7.1781 N   0  0  0  0  0  0  0  0  0  0  0  0
   -8.4102    3.9335   -7.3202 C   0  0  0  0  0  0  0  0  0  0  0  0
   -7.4122    4.6424  -15.2678 C   0  0  0  0  0  0  0  0  0  0  0  0
   -8.6568    4.3942  -15.9022 C   0  0  0  0  0  0  0  0  0  0  0  0
   -8.7879    4.3416  -17.2949 C   0  0  0  0  0  0  0  0  0  0  0  0
  -10.3157    4.0624  -18.0348 Cl  0  0  0  0  0  0  0  0  0  0  0  0
   -7.7004    4.5474  -18.1333 C   0  0  0  0  0  0  0  0  0  0  0  0
   -6.4746    4.8171  -17.5234 C   0  0  0  0  0  0  0  0  0  0  0  0
   -6.3122    4.8666  -16.1425 C   0  0  0  0  0  0  0  0  0  0  0  0
   -4.9355    5.1564  -15.9810 C   0  0  0  0  0  0  0  0  0  0  0  0
   -4.2883    5.2985  -17.1379 N   0  0  0  0  0  0  0  0  0  0  0  0
   -5.2317    5.0663  -18.0579 N   0  0  0  0  0  0  0  0  0  0  0  0
   -4.9283    5.0440  -19.4378 N   0  0  0  0  0  0  0  0  0  0  0  0
   -5.1362    6.3780  -20.0115 C   0  0  0  0  0  0  0  0  0  0  0  0
   -4.7662    6.3548  -21.5096 C   0  0  0  0  0  0  0  0  0  0  0  0
   -4.0059    7.6149  -21.3035 N   0  0  0  0  0  0  0  0  0  0  0  0
   -3.8741    7.2575  -19.8659 C   0  0  0  0  0  0  0  0  0  0  0  0
  1  2  1  0
  2  3  1  0
  2  4  1  0
  4  5  1  0
  5  6  2  0
  5  7  1  0
  7  8  1  1
  7  9  1  0
  9 10  1  0
 10 11  2  0
 11 12  1  0
 12 13  2  0
 13 14  1  0
 14 15  2  0
 14 16  1  0
 16 17  1  0
 17 18  1  0
  7 19  1  0
 19 20  2  0
 20 21  1  0
 21 22  1  0
 21 23  2  0
 23 24  1  0
 24 25  2  0
 25 26  1  0
 26 27  2  0
 27 28  1  0
 28 29  1  0
 29 30  1  0
 30 31  1  0
 31 32  1  0
 32 33  1  0
 15 10  1  0
 25 19  1  0
 33 30  1  0
 18 13  1  0
 28 24  1  0
M  END
>  <smiles>  (507) 
C98879-P122

>  <fragmenstein_outcome>  (507) 
acceptable

>  <inchikey>  (507) 
MLFKKZLQTRQAQM-UHFFFAOYSA-N

>  <fragmenstein_mode>  (507) 
expansion

>  <HIPPO Pose ID>  (507) 
16771

>  <Energy>  (507) 
87.935898

>  <fragmenstein_error>  (507) 


>  <tags>  (507) 
{'openbind_xx01zvns2b_c1_fragmenstein', 'fragmenstein_placed'}

>  <ref_pdb>  (507) 
1

>  <scratch_subdir>  (507) 
/opt/xchem-fragalysis-2/maxwin/BulkDock/SCRATCH/511027/C98879-P122

>  <alias>  (507) 
CC(C)NC(=O)[C@@](O)(Nc1ccc2c(c1)CNC2)c1cc(Cl)cc2c1cnn2NC1CNC1

>  <HIPPO Compound ID>  (507) 
93862

>  <fragmenstein_runtime>  (507) 
5.111863

$$$$
O=C(Nc1ccc2c(c1)CNC2)c1cc(Br)cc2[nH]c(OCOCc3ccccc3)cc12
     RDKit          3D

 32 36  0  0  0  0  0  0  0  0999 V2000
   -6.5977    6.4684  -13.9643 O   0  0  0  0  0  0  0  0  0  0  0  0
   -6.9990    5.3993  -14.2178 C   0  0  0  0  0  0  0  0  0  0  0  0
   -7.5280    4.2747  -13.2844 N   0  0  0  0  0  0  0  0  0  0  0  0
   -7.7533    4.2711  -11.9018 C   0  0  0  0  0  0  0  0  0  0  0  0
   -7.6374    5.4396  -11.1343 C   0  0  0  0  0  0  0  0  0  0  0  0
   -7.8992    5.4286   -9.7561 C   0  0  0  0  0  0  0  0  0  0  0  0
   -8.2811    4.2393   -9.1648 C   0  0  0  0  0  0  0  0  0  0  0  0
   -8.4019    3.0770   -9.9162 C   0  0  0  0  0  0  0  0  0  0  0  0
   -8.1395    3.0738  -11.2812 C   0  0  0  0  0  0  0  0  0  0  0  0
   -8.8094    1.9632   -9.0049 C   0  0  0  0  0  0  0  0  0  0  0  0
   -9.2738    2.6237   -7.7532 N   0  0  0  0  0  0  0  0  0  0  0  0
   -8.5864    3.9335   -7.7357 C   0  0  0  0  0  0  0  0  0  0  0  0
   -7.1460    5.0173  -15.6498 C   0  0  0  0  0  0  0  0  0  0  0  0
   -8.4258    4.6475  -16.1059 C   0  0  0  0  0  0  0  0  0  0  0  0
   -8.6431    4.4163  -17.4589 C   0  0  0  0  0  0  0  0  0  0  0  0
  -10.3803    4.1169  -18.1044 Br  0  0  0  0  0  0  0  0  0  0  0  0
   -7.6164    4.5003  -18.3903 C   0  0  0  0  0  0  0  0  0  0  0  0
   -6.3548    4.8637  -17.9225 C   0  0  0  0  0  0  0  0  0  0  0  0
   -5.1868    5.0025  -18.6308 N   0  0  0  0  0  0  0  0  0  0  0  0
   -4.1513    5.3002  -17.7897 C   0  0  0  0  0  0  0  0  0  0  0  0
   -2.8972    5.2696  -18.2418 O   0  0  0  0  0  0  0  0  0  0  0  0
   -2.3562    6.5323  -18.6199 C   0  0  0  0  0  0  0  0  0  0  0  0
   -0.9965    6.4701  -19.0529 O   0  0  0  0  0  0  0  0  0  0  0  0
   -0.6984    5.4532  -20.0002 C   0  0  0  0  0  0  0  0  0  0  0  0
   -1.1942    5.7850  -21.3817 C   0  0  0  0  0  0  0  0  0  0  0  0
   -0.3357    6.3103  -22.3494 C   0  0  0  0  0  0  0  0  0  0  0  0
   -0.8277    6.6346  -23.6091 C   0  0  0  0  0  0  0  0  0  0  0  0
   -2.1803    6.4709  -23.8979 C   0  0  0  0  0  0  0  0  0  0  0  0
   -3.0439    5.9532  -22.9455 C   0  0  0  0  0  0  0  0  0  0  0  0
   -2.5426    5.5759  -21.7070 C   0  0  0  0  0  0  0  0  0  0  0  0
   -4.6822    5.4508  -16.5222 C   0  0  0  0  0  0  0  0  0  0  0  0
   -6.0808    5.1388  -16.5793 C   0  0  0  0  0  0  0  0  0  0  0  0
  1  2  2  0
  2  3  1  0
  3  4  1  0
  4  5  2  0
  5  6  1  0
  6  7  2  0
  7  8  1  0
  8  9  2  0
  8 10  1  0
 10 11  1  0
 11 12  1  0
  2 13  1  0
 13 14  2  0
 14 15  1  0
 15 16  1  0
 15 17  2  0
 17 18  1  0
 18 19  1  0
 19 20  1  0
 20 21  1  0
 21 22  1  0
 22 23  1  0
 23 24  1  0
 24 25  1  0
 25 26  2  0
 26 27  1  0
 27 28  2  0
 28 29  1  0
 29 30  2  0
 20 31  2  0
 31 32  1  0
  9  4  1  0
 32 13  1  0
 12  7  1  0
 32 18  2  0
 30 25  1  0
M  END
>  <smiles>  (508) 
C98970-P123

>  <fragmenstein_outcome>  (508) 
acceptable

>  <inchikey>  (508) 
JSJKJGGOLMFRRC-UHFFFAOYSA-N

>  <fragmenstein_mode>  (508) 
expansion

>  <HIPPO Pose ID>  (508) 
16787

>  <Energy>  (508) 
76.088071

>  <fragmenstein_error>  (508) 


>  <tags>  (508) 
{'openbind_xx01zvns2b_c1_fragmenstein', 'fragmenstein_placed'}

>  <ref_pdb>  (508) 
1

>  <scratch_subdir>  (508) 
/opt/xchem-fragalysis-2/maxwin/BulkDock/SCRATCH/511027/C98970-P123

>  <alias>  (508) 
O=C(Nc1ccc2c(c1)CNC2)c1cc(Br)cc2[nH]c(OCOCc3ccccc3)cc12

>  <HIPPO Compound ID>  (508) 
76702

>  <fragmenstein_runtime>  (508) 
11.532805

$$$$
O=C(Nc1ccc2c(c1)CNC2)c1cc(Br)cc2[nH]ccc12
     RDKit          3D

 22 25  0  0  0  0  0  0  0  0999 V2000
   -7.5611    6.6207  -14.0912 O   0  0  0  0  0  0  0  0  0  0  0  0
   -7.4877    5.4716  -14.2947 C   0  0  0  0  0  0  0  0  0  0  0  0
   -7.6922    4.2692  -13.3422 N   0  0  0  0  0  0  0  0  0  0  0  0
   -7.9293    4.2318  -11.9597 C   0  0  0  0  0  0  0  0  0  0  0  0
   -8.0119    5.4244  -11.2196 C   0  0  0  0  0  0  0  0  0  0  0  0
   -8.2103    5.4107   -9.8332 C   0  0  0  0  0  0  0  0  0  0  0  0
   -8.3342    4.1910   -9.1980 C   0  0  0  0  0  0  0  0  0  0  0  0
   -8.2825    3.0072   -9.9196 C   0  0  0  0  0  0  0  0  0  0  0  0
   -8.0717    3.0063  -11.2978 C   0  0  0  0  0  0  0  0  0  0  0  0
   -8.5013    1.8654   -8.9821 C   0  0  0  0  0  0  0  0  0  0  0  0
   -8.5243    2.4331   -7.6069 N   0  0  0  0  0  0  0  0  0  0  0  0
   -8.5407    3.9004   -7.7515 C   0  0  0  0  0  0  0  0  0  0  0  0
   -7.1547    5.0728  -15.6846 C   0  0  0  0  0  0  0  0  0  0  0  0
   -5.9122    5.4661  -16.1938 C   0  0  0  0  0  0  0  0  0  0  0  0
   -5.6650    5.3759  -17.5598 C   0  0  0  0  0  0  0  0  0  0  0  0
   -4.0020    5.9329  -18.2444 Br  0  0  0  0  0  0  0  0  0  0  0  0
   -6.6313    4.9413  -18.4651 C   0  0  0  0  0  0  0  0  0  0  0  0
   -7.8662    4.5713  -17.9425 C   0  0  0  0  0  0  0  0  0  0  0  0
   -9.0214    4.2282  -18.6106 N   0  0  0  0  0  0  0  0  0  0  0  0
  -10.0062    3.9688  -17.7057 C   0  0  0  0  0  0  0  0  0  0  0  0
   -9.4591    4.1171  -16.4499 C   0  0  0  0  0  0  0  0  0  0  0  0
   -8.1360    4.5822  -16.5725 C   0  0  0  0  0  0  0  0  0  0  0  0
  1  2  2  0
  2  3  1  0
  3  4  1  0
  4  5  2  0
  5  6  1  0
  6  7  2  0
  7  8  1  0
  8  9  2  0
  8 10  1  0
 10 11  1  0
 11 12  1  0
  2 13  1  0
 13 14  2  0
 14 15  1  0
 15 16  1  0
 15 17  2  0
 17 18  1  0
 18 19  1  0
 19 20  1  0
 20 21  2  0
 21 22  1  0
  9  4  1  0
 22 13  1  0
 12  7  1  0
 22 18  2  0
M  END
>  <smiles>  (509) 
C114-P123

>  <fragmenstein_outcome>  (509) 
acceptable

>  <inchikey>  (509) 
WSYPXEGRRJVEAK-UHFFFAOYSA-N

>  <fragmenstein_mode>  (509) 
expansion

>  <HIPPO Pose ID>  (509) 
16790

>  <Energy>  (509) 
52.975486

>  <fragmenstein_error>  (509) 


>  <tags>  (509) 
{'openbind_xx01zvns2b_c1_fragmenstein', 'fragmenstein_placed'}

>  <ref_pdb>  (509) 
1

>  <scratch_subdir>  (509) 
/opt/xchem-fragalysis-2/maxwin/BulkDock/SCRATCH/511027/C114-P123

>  <alias>  (509) 
O=C(Nc1ccc2c(c1)CNC2)c1cc(Br)cc2[nH]ccc12

>  <HIPPO Compound ID>  (509) 
81562

>  <fragmenstein_runtime>  (509) 
3.240633

$$$$
N#Cc1cc2c(cc1NC(=O)c1cc(Br)cc3[nH]ccc13)CNC2
     RDKit          3D

 24 27  0  0  0  0  0  0  0  0999 V2000
   -8.2957    8.0544  -12.1696 N   0  0  0  0  0  0  0  0  0  0  0  0
   -8.1138    6.9594  -11.8241 C   0  0  0  0  0  0  0  0  0  0  0  0
   -8.0039    5.6396  -11.2695 C   0  0  0  0  0  0  0  0  0  0  0  0
   -8.1458    5.5632   -9.8661 C   0  0  0  0  0  0  0  0  0  0  0  0
   -8.2572    4.3265   -9.2630 C   0  0  0  0  0  0  0  0  0  0  0  0
   -8.2545    3.1728  -10.0262 C   0  0  0  0  0  0  0  0  0  0  0  0
   -8.0876    3.2186  -11.4090 C   0  0  0  0  0  0  0  0  0  0  0  0
   -7.9214    4.4608  -12.0509 C   0  0  0  0  0  0  0  0  0  0  0  0
   -7.6852    4.4341  -13.4438 N   0  0  0  0  0  0  0  0  0  0  0  0
   -6.9798    5.4622  -14.3652 C   0  0  0  0  0  0  0  0  0  0  0  0
   -6.5535    6.5246  -14.1280 O   0  0  0  0  0  0  0  0  0  0  0  0
   -6.8805    5.0268  -15.7896 C   0  0  0  0  0  0  0  0  0  0  0  0
   -5.6809    5.2884  -16.4700 C   0  0  0  0  0  0  0  0  0  0  0  0
   -5.5958    5.1007  -17.8460 C   0  0  0  0  0  0  0  0  0  0  0  0
   -3.9800    5.4516  -18.7465 Br  0  0  0  0  0  0  0  0  0  0  0  0
   -6.6850    4.6897  -18.6050 C   0  0  0  0  0  0  0  0  0  0  0  0
   -7.8728    4.4543  -17.9249 C   0  0  0  0  0  0  0  0  0  0  0  0
   -9.1077    4.1534  -18.4480 N   0  0  0  0  0  0  0  0  0  0  0  0
  -10.0049    4.0469  -17.4324 C   0  0  0  0  0  0  0  0  0  0  0  0
   -9.3309    4.2472  -16.2485 C   0  0  0  0  0  0  0  0  0  0  0  0
   -7.9909    4.5739  -16.5364 C   0  0  0  0  0  0  0  0  0  0  0  0
   -8.4657    1.9979   -9.1281 C   0  0  0  0  0  0  0  0  0  0  0  0
   -8.5208    2.5226   -7.7418 N   0  0  0  0  0  0  0  0  0  0  0  0
   -8.4396    3.9902   -7.8222 C   0  0  0  0  0  0  0  0  0  0  0  0
  1  2  3  0
  2  3  1  0
  3  4  2  0
  4  5  1  0
  5  6  2  0
  6  7  1  0
  7  8  2  0
  8  9  1  0
  9 10  1  0
 10 11  2  0
 10 12  1  0
 12 13  2  0
 13 14  1  0
 14 15  1  0
 14 16  2  0
 16 17  1  0
 17 18  1  0
 18 19  1  0
 19 20  2  0
 20 21  1  0
  6 22  1  0
 22 23  1  0
 23 24  1  0
  8  3  1  0
 21 12  1  0
 24  5  1  0
 21 17  2  0
M  END
>  <smiles>  (510) 
C99003-P123

>  <fragmenstein_outcome>  (510) 
acceptable

>  <inchikey>  (510) 
CMHAMSBQUGUWRW-UHFFFAOYSA-N

>  <fragmenstein_mode>  (510) 
expansion

>  <HIPPO Pose ID>  (510) 
16800

>  <Energy>  (510) 
78.104536

>  <fragmenstein_error>  (510) 


>  <tags>  (510) 
{'openbind_xx01zvns2b_c1_fragmenstein', 'fragmenstein_placed'}

>  <ref_pdb>  (510) 
1

>  <scratch_subdir>  (510) 
/opt/xchem-fragalysis-2/maxwin/BulkDock/SCRATCH/511027/C99003-P123

>  <alias>  (510) 
N#Cc1cc2c(cc1NC(=O)c1cc(Br)cc3[nH]ccc13)CNC2

>  <HIPPO Compound ID>  (510) 
99455

>  <fragmenstein_runtime>  (510) 
3.982742

$$$$
COCCOC1=c2cc(Br)cc(C(=O)Nc3ccc4c(c3)CNC4)c2=C(C)C1=O
     RDKit          3D

 29 32  0  0  0  0  0  0  0  0999 V2000
    0.2163    6.0620  -20.5661 C   0  0  0  0  0  0  0  0  0  0  0  0
   -1.0808    6.5470  -20.2632 O   0  0  0  0  0  0  0  0  0  0  0  0
   -1.9552    5.4975  -19.8469 C   0  0  0  0  0  0  0  0  0  0  0  0
   -3.3409    6.1046  -19.6665 C   0  0  0  0  0  0  0  0  0  0  0  0
   -4.2974    5.1401  -19.2408 O   0  0  0  0  0  0  0  0  0  0  0  0
   -4.6815    5.2865  -17.9491 C   0  0  0  0  0  0  0  0  0  0  0  0
   -5.8933    5.0887  -17.4241 C   0  0  0  0  0  0  0  0  0  0  0  0
   -7.1051    4.6891  -18.1001 C   0  0  0  0  0  0  0  0  0  0  0  0
   -8.2171    4.4911  -17.3638 C   0  0  0  0  0  0  0  0  0  0  0  0
   -9.8253    3.9965  -18.1616 Br  0  0  0  0  0  0  0  0  0  0  0  0
   -8.2296    4.7369  -15.9152 C   0  0  0  0  0  0  0  0  0  0  0  0
   -7.1179    5.1201  -15.2441 C   0  0  0  0  0  0  0  0  0  0  0  0
   -7.2891    5.5852  -13.8387 C   0  0  0  0  0  0  0  0  0  0  0  0
   -7.2275    6.7214  -13.5717 O   0  0  0  0  0  0  0  0  0  0  0  0
   -7.5475    4.3522  -12.9333 N   0  0  0  0  0  0  0  0  0  0  0  0
   -7.8666    4.2748  -11.5753 C   0  0  0  0  0  0  0  0  0  0  0  0
   -7.8717    5.4292  -10.7753 C   0  0  0  0  0  0  0  0  0  0  0  0
   -8.1343    5.3547   -9.4038 C   0  0  0  0  0  0  0  0  0  0  0  0
   -8.4073    4.1174   -8.8550 C   0  0  0  0  0  0  0  0  0  0  0  0
   -8.4369    2.9746   -9.6451 C   0  0  0  0  0  0  0  0  0  0  0  0
   -8.1576    3.0304  -11.0053 C   0  0  0  0  0  0  0  0  0  0  0  0
   -8.7728    1.8026   -8.7815 C   0  0  0  0  0  0  0  0  0  0  0  0
   -9.1472    2.3606   -7.4614 N   0  0  0  0  0  0  0  0  0  0  0  0
   -8.6679    3.7503   -7.4329 C   0  0  0  0  0  0  0  0  0  0  0  0
   -5.8717    5.2808  -15.9797 C   0  0  0  0  0  0  0  0  0  0  0  0
   -4.6233    5.5555  -15.5782 C   0  0  0  0  0  0  0  0  0  0  0  0
   -3.9469    5.7688  -14.2903 C   0  0  0  0  0  0  0  0  0  0  0  0
   -3.8052    5.5789  -16.8011 C   0  0  0  0  0  0  0  0  0  0  0  0
   -2.6071    5.7923  -16.8238 O   0  0  0  0  0  0  0  0  0  0  0  0
  1  2  1  0
  2  3  1  0
  3  4  1  0
  4  5  1  0
  5  6  1  0
  6  7  2  0
  7  8  1  0
  8  9  2  0
  9 10  1  0
  9 11  1  0
 11 12  2  0
 12 13  1  0
 13 14  2  0
 13 15  1  0
 15 16  1  0
 16 17  2  0
 17 18  1  0
 18 19  2  0
 19 20  1  0
 20 21  2  0
 20 22  1  0
 22 23  1  0
 23 24  1  0
 12 25  1  0
 25 26  2  0
 26 27  1  0
 26 28  1  0
 28 29  2  0
 28  6  1  0
 25  7  1  0
 21 16  1  0
 24 19  1  0
M  END
>  <smiles>  (511) 
C99022-P123

>  <fragmenstein_outcome>  (511) 
acceptable

>  <inchikey>  (511) 
RAYLMPNSKQVODA-UHFFFAOYSA-N

>  <fragmenstein_mode>  (511) 
expansion

>  <HIPPO Pose ID>  (511) 
16805

>  <Energy>  (511) 
92.142584

>  <fragmenstein_error>  (511) 


>  <tags>  (511) 
{'openbind_xx01zvns2b_c1_fragmenstein', 'fragmenstein_placed'}

>  <ref_pdb>  (511) 
1

>  <scratch_subdir>  (511) 
/opt/xchem-fragalysis-2/maxwin/BulkDock/SCRATCH/511027/C99022-P123

>  <alias>  (511) 
COCCOC1=c2cc(Br)cc(C(=O)Nc3ccc4c(c3)CNC4)c2=C(C)C1=O

>  <HIPPO Compound ID>  (511) 
84141

>  <fragmenstein_runtime>  (511) 
6.167097

$$$$
O=C(Nc1ccc2c(c1)CNC2)c1cc(Br)cc2c1C=C[N@@H+]2[O-]
     RDKit          3D

 23 26  0  0  0  0  0  0  0  0999 V2000
   -6.9479    6.4363  -13.6051 O   0  0  0  0  0  0  0  0  0  0  0  0
   -7.3335    5.3677  -13.8769 C   0  0  0  0  0  0  0  0  0  0  0  0
   -7.9255    4.2558  -12.9772 N   0  0  0  0  0  0  0  0  0  0  0  0
   -8.0729    4.1943  -11.5902 C   0  0  0  0  0  0  0  0  0  0  0  0
   -7.9057    5.3431  -10.8000 C   0  0  0  0  0  0  0  0  0  0  0  0
   -8.0861    5.2961   -9.4135 C   0  0  0  0  0  0  0  0  0  0  0  0
   -8.4386    4.0902   -8.8407 C   0  0  0  0  0  0  0  0  0  0  0  0
   -8.5964    2.9461   -9.6159 C   0  0  0  0  0  0  0  0  0  0  0  0
   -8.4159    2.9782  -10.9909 C   0  0  0  0  0  0  0  0  0  0  0  0
   -8.9527    1.8092   -8.7131 C   0  0  0  0  0  0  0  0  0  0  0  0
   -9.3969    2.4466   -7.4427 N   0  0  0  0  0  0  0  0  0  0  0  0
   -8.6956    3.7502   -7.4103 C   0  0  0  0  0  0  0  0  0  0  0  0
   -7.3706    4.9879  -15.3125 C   0  0  0  0  0  0  0  0  0  0  0  0
   -8.5813    4.5829  -15.8946 C   0  0  0  0  0  0  0  0  0  0  0  0
   -8.6754    4.4283  -17.2867 C   0  0  0  0  0  0  0  0  0  0  0  0
  -10.3338    4.0899  -18.0988 Br  0  0  0  0  0  0  0  0  0  0  0  0
   -7.5834    4.6373  -18.1167 C   0  0  0  0  0  0  0  0  0  0  0  0
   -6.3989    5.0204  -17.5218 C   0  0  0  0  0  0  0  0  0  0  0  0
   -6.2741    5.1919  -16.1390 C   0  0  0  0  0  0  0  0  0  0  0  0
   -4.9024    5.5990  -15.8761 C   0  0  0  0  0  0  0  0  0  0  0  0
   -4.2710    5.6559  -17.0605 C   0  0  0  0  0  0  0  0  0  0  0  0
   -5.1397    5.3045  -18.2178 N   0  0  2  0  0  0  0  0  0  0  0  0
   -5.2631    6.3895  -19.0060 O   0  0  0  0  0  0  0  0  0  0  0  0
  1  2  2  0
  2  3  1  0
  3  4  1  0
  4  5  2  0
  5  6  1  0
  6  7  2  0
  7  8  1  0
  8  9  2  0
  8 10  1  0
 10 11  1  0
 11 12  1  0
  2 13  1  0
 13 14  2  0
 14 15  1  0
 15 16  1  0
 15 17  2  0
 17 18  1  0
 18 19  2  0
 19 20  1  0
 20 21  2  0
 21 22  1  0
 22 23  1  6
  9  4  1  0
 19 13  1  0
 12  7  1  0
 22 18  1  0
M  CHG  2  22   1  23  -1
M  END
>  <smiles>  (512) 
C99015-P123

>  <fragmenstein_outcome>  (512) 
acceptable

>  <inchikey>  (512) 
OJMRPPDRLZQYFH-UHFFFAOYSA-N

>  <fragmenstein_mode>  (512) 
expansion

>  <HIPPO Pose ID>  (512) 
16808

>  <Energy>  (512) 
59.503401

>  <fragmenstein_error>  (512) 


>  <tags>  (512) 
{'openbind_xx01zvns2b_c1_fragmenstein', 'fragmenstein_placed'}

>  <ref_pdb>  (512) 
1

>  <scratch_subdir>  (512) 
/opt/xchem-fragalysis-2/maxwin/BulkDock/SCRATCH/511027/C99015-P123

>  <alias>  (512) 
O=C(Nc1ccc2c(c1)CNC2)c1cc(Br)cc2c1C=C[N@@H+]2[O-]

>  <HIPPO Compound ID>  (512) 
87212

>  <fragmenstein_runtime>  (512) 
2.890191

$$$$
O=C(NCC(F)F)[C@](NCc1ccccn1)(Nc1ccc2c(c1)CNC2)c1cc(Br)cc2[nH]ccc12
     RDKit          3D

 36 40  0  0  0  0  0  0  0  0999 V2000
   -5.1048    5.9373  -12.4634 O   0  0  0  0  0  0  0  0  0  0  0  0
   -5.7880    5.0718  -12.8641 C   0  0  0  0  0  0  0  0  0  0  0  0
   -5.6182    3.5240  -12.7681 N   0  0  0  0  0  0  0  0  0  0  0  0
   -4.5282    2.7291  -12.2444 C   0  0  0  0  0  0  0  0  0  0  0  0
   -4.8208    2.1209  -10.8748 C   0  0  0  0  0  0  0  0  0  0  0  0
   -3.6754    1.5776  -10.3755 F   0  0  0  0  0  0  0  0  0  0  0  0
   -5.7076    1.1052  -11.0136 F   0  0  0  0  0  0  0  0  0  0  0  0
   -7.2539    5.3830  -13.5879 C   0  0  2  0  0  0  0  0  0  0  0  0
   -7.4018    6.8522  -13.7513 N   0  0  0  0  0  0  0  0  0  0  0  0
   -7.5500    7.6697  -12.5647 C   0  0  0  0  0  0  0  0  0  0  0  0
   -7.0495    9.0927  -12.7581 C   0  0  0  0  0  0  0  0  0  0  0  0
   -5.7174    9.3950  -12.4788 C   0  0  0  0  0  0  0  0  0  0  0  0
   -5.2675   10.6986  -12.6682 C   0  0  0  0  0  0  0  0  0  0  0  0
   -6.1533   11.6636  -13.1303 C   0  0  0  0  0  0  0  0  0  0  0  0
   -7.4581   11.2813  -13.3897 C   0  0  0  0  0  0  0  0  0  0  0  0
   -7.9219   10.0245  -13.2216 N   0  0  0  0  0  0  0  0  0  0  0  0
   -8.3082    4.5349  -12.9146 N   0  0  0  0  0  0  0  0  0  0  0  0
   -8.3724    4.3387  -11.5196 C   0  0  0  0  0  0  0  0  0  0  0  0
   -8.4486    5.3984  -10.6027 C   0  0  0  0  0  0  0  0  0  0  0  0
   -8.4763    5.2406   -9.2142 C   0  0  0  0  0  0  0  0  0  0  0  0
   -8.5592    3.9671   -8.7245 C   0  0  0  0  0  0  0  0  0  0  0  0
   -8.5835    2.8828   -9.5898 C   0  0  0  0  0  0  0  0  0  0  0  0
   -8.4587    3.0450  -10.9732 C   0  0  0  0  0  0  0  0  0  0  0  0
   -8.8181    1.6568   -8.7645 C   0  0  0  0  0  0  0  0  0  0  0  0
   -9.3045    2.1526   -7.4414 N   0  0  0  0  0  0  0  0  0  0  0  0
   -8.7327    3.5060   -7.3195 C   0  0  0  0  0  0  0  0  0  0  0  0
   -7.1805    4.9632  -15.1222 C   0  0  0  0  0  0  0  0  0  0  0  0
   -8.3891    4.6049  -15.7963 C   0  0  0  0  0  0  0  0  0  0  0  0
   -8.4573    4.4381  -17.1804 C   0  0  0  0  0  0  0  0  0  0  0  0
  -10.0933    4.0467  -18.0336 Br  0  0  0  0  0  0  0  0  0  0  0  0
   -7.3507    4.6406  -17.9882 C   0  0  0  0  0  0  0  0  0  0  0  0
   -6.1696    5.0208  -17.3586 C   0  0  0  0  0  0  0  0  0  0  0  0
   -4.9633    5.3212  -17.9469 N   0  0  0  0  0  0  0  0  0  0  0  0
   -4.0518    5.6735  -16.9983 C   0  0  0  0  0  0  0  0  0  0  0  0
   -4.6840    5.6048  -15.7768 C   0  0  0  0  0  0  0  0  0  0  0  0
   -6.0403    5.1782  -15.9732 C   0  0  0  0  0  0  0  0  0  0  0  0
  1  2  2  0
  2  3  1  0
  3  4  1  0
  4  5  1  0
  5  6  1  0
  5  7  1  0
  2  8  1  0
  8  9  1  6
  9 10  1  0
 10 11  1  0
 11 12  2  0
 12 13  1  0
 13 14  2  0
 14 15  1  0
 15 16  2  0
  8 17  1  0
 17 18  1  0
 18 19  2  0
 19 20  1  0
 20 21  2  0
 21 22  1  0
 22 23  2  0
 22 24  1  0
 24 25  1  0
 25 26  1  0
  8 27  1  0
 27 28  2  0
 28 29  1  0
 29 30  1  0
 29 31  2  0
 31 32  1  0
 32 33  1  0
 33 34  1  0
 34 35  2  0
 35 36  1  0
 16 11  1  0
 23 18  1  0
 36 27  1  0
 26 21  1  0
 36 32  2  0
M  END
>  <smiles>  (513) 
C99032-P123

>  <fragmenstein_outcome>  (513) 
acceptable

>  <inchikey>  (513) 
DFIGQKFSJLBREB-UHFFFAOYSA-N

>  <fragmenstein_mode>  (513) 
expansion

>  <HIPPO Pose ID>  (513) 
16809

>  <Energy>  (513) 
160.961427

>  <fragmenstein_error>  (513) 


>  <tags>  (513) 
{'openbind_xx01zvns2b_c1_fragmenstein', 'fragmenstein_placed'}

>  <ref_pdb>  (513) 
1

>  <scratch_subdir>  (513) 
/opt/xchem-fragalysis-2/maxwin/BulkDock/SCRATCH/511027/C99032-P123

>  <alias>  (513) 
O=C(NCC(F)F)[C@](NCc1ccccn1)(Nc1ccc2c(c1)CNC2)c1cc(Br)cc2[nH]ccc12

>  <HIPPO Compound ID>  (513) 
86448

>  <fragmenstein_runtime>  (513) 
7.191248

$$$$
O=C1C=c2c(C(=O)Nc3ccc4c(c3)CNC4)cc(Br)cc2=N1
     RDKit          3D

 23 26  0  0  0  0  0  0  0  0999 V2000
  -11.1235    3.7230  -17.9280 O   0  0  0  0  0  0  0  0  0  0  0  0
   -9.9537    3.9606  -17.7015 C   0  0  0  0  0  0  0  0  0  0  0  0
   -9.3823    4.1602  -16.3541 C   0  0  0  0  0  0  0  0  0  0  0  0
   -8.1359    4.5833  -16.4923 C   0  0  0  0  0  0  0  0  0  0  0  0
   -7.1195    5.0734  -15.6148 C   0  0  0  0  0  0  0  0  0  0  0  0
   -7.3815    5.5455  -14.2155 C   0  0  0  0  0  0  0  0  0  0  0  0
   -7.3283    6.6890  -13.9760 O   0  0  0  0  0  0  0  0  0  0  0  0
   -7.7150    4.3398  -13.2965 N   0  0  0  0  0  0  0  0  0  0  0  0
   -7.9514    4.2856  -11.9134 C   0  0  0  0  0  0  0  0  0  0  0  0
   -7.9597    5.4634  -11.1450 C   0  0  0  0  0  0  0  0  0  0  0  0
   -8.1719    5.4304   -9.7608 C   0  0  0  0  0  0  0  0  0  0  0  0
   -8.4115    4.2101   -9.1636 C   0  0  0  0  0  0  0  0  0  0  0  0
   -8.4385    3.0401   -9.9149 C   0  0  0  0  0  0  0  0  0  0  0  0
   -8.1861    3.0551  -11.2848 C   0  0  0  0  0  0  0  0  0  0  0  0
   -8.7688    1.9039   -8.9963 C   0  0  0  0  0  0  0  0  0  0  0  0
   -9.2709    2.5372   -7.7433 N   0  0  0  0  0  0  0  0  0  0  0  0
   -8.6583    3.8822   -7.7286 C   0  0  0  0  0  0  0  0  0  0  0  0
   -5.9439    5.4346  -16.1641 C   0  0  0  0  0  0  0  0  0  0  0  0
   -5.6911    5.2878  -17.5941 C   0  0  0  0  0  0  0  0  0  0  0  0
   -4.0194    5.8161  -18.2173 Br  0  0  0  0  0  0  0  0  0  0  0  0
   -6.6188    4.8520  -18.4602 C   0  0  0  0  0  0  0  0  0  0  0  0
   -7.9346    4.4909  -17.9388 C   0  0  0  0  0  0  0  0  0  0  0  0
   -8.9527    4.0932  -18.6165 N   0  0  0  0  0  0  0  0  0  0  0  0
  1  2  2  0
  2  3  1  0
  3  4  2  0
  4  5  1  0
  5  6  1  0
  6  7  2  0
  6  8  1  0
  8  9  1  0
  9 10  2  0
 10 11  1  0
 11 12  2  0
 12 13  1  0
 13 14  2  0
 13 15  1  0
 15 16  1  0
 16 17  1  0
  5 18  2  0
 18 19  1  0
 19 20  1  0
 19 21  2  0
 21 22  1  0
 22 23  2  0
 23  2  1  0
 22  4  1  0
 14  9  1  0
 17 12  1  0
M  END
>  <smiles>  (514) 
C98985-P123

>  <fragmenstein_outcome>  (514) 
acceptable

>  <inchikey>  (514) 
HQLMBUZXKMVHRF-UHFFFAOYSA-N

>  <fragmenstein_mode>  (514) 
expansion

>  <HIPPO Pose ID>  (514) 
16811

>  <Energy>  (514) 
7.192262

>  <fragmenstein_error>  (514) 


>  <tags>  (514) 
{'openbind_xx01zvns2b_c1_fragmenstein', 'fragmenstein_placed'}

>  <ref_pdb>  (514) 
1

>  <scratch_subdir>  (514) 
/opt/xchem-fragalysis-2/maxwin/BulkDock/SCRATCH/511027/C98985-P123

>  <alias>  (514) 
O=C1C=c2c(C(=O)Nc3ccc4c(c3)CNC4)cc(Br)cc2=N1

>  <HIPPO Compound ID>  (514) 
86379

>  <fragmenstein_runtime>  (514) 
3.567402

$$$$
NCn1ccc2c(C(=O)Nc3ccc4c(c3)CNC4)cc(Br)cc21
     RDKit          3D

 24 27  0  0  0  0  0  0  0  0999 V2000
   -2.8900    4.9194  -17.9998 N   0  0  0  0  0  0  0  0  0  0  0  0
   -4.0522    5.7084  -18.3906 C   0  0  0  0  0  0  0  0  0  0  0  0
   -4.8407    5.9342  -17.1922 N   0  0  0  0  0  0  0  0  0  0  0  0
   -4.3885    6.6671  -16.1181 C   0  0  0  0  0  0  0  0  0  0  0  0
   -5.2995    6.5312  -15.1028 C   0  0  0  0  0  0  0  0  0  0  0  0
   -6.3919    5.7696  -15.6040 C   0  0  0  0  0  0  0  0  0  0  0  0
   -7.6103    5.3316  -15.0460 C   0  0  0  0  0  0  0  0  0  0  0  0
   -7.9177    5.6963  -13.6481 C   0  0  0  0  0  0  0  0  0  0  0  0
   -7.9246    6.8269  -13.3565 O   0  0  0  0  0  0  0  0  0  0  0  0
   -8.1132    4.4359  -12.7763 N   0  0  0  0  0  0  0  0  0  0  0  0
   -8.2586    4.3033  -11.3965 C   0  0  0  0  0  0  0  0  0  0  0  0
   -8.2286    5.4367  -10.5679 C   0  0  0  0  0  0  0  0  0  0  0  0
   -8.3406    5.3158   -9.1815 C   0  0  0  0  0  0  0  0  0  0  0  0
   -8.5173    4.0544   -8.6489 C   0  0  0  0  0  0  0  0  0  0  0  0
   -8.5677    2.9302   -9.4648 C   0  0  0  0  0  0  0  0  0  0  0  0
   -8.4162    3.0306  -10.8407 C   0  0  0  0  0  0  0  0  0  0  0  0
   -8.7995    1.7273   -8.6116 C   0  0  0  0  0  0  0  0  0  0  0  0
   -9.1064    2.2405   -7.2571 N   0  0  0  0  0  0  0  0  0  0  0  0
   -8.6773    3.6467   -7.2239 C   0  0  0  0  0  0  0  0  0  0  0  0
   -8.5446    4.6585  -15.8333 C   0  0  0  0  0  0  0  0  0  0  0  0
   -8.2730    4.4509  -17.1800 C   0  0  0  0  0  0  0  0  0  0  0  0
   -9.6219    3.7374  -18.2819 Br  0  0  0  0  0  0  0  0  0  0  0  0
   -7.0559    4.8223  -17.7610 C   0  0  0  0  0  0  0  0  0  0  0  0
   -6.1168    5.4719  -16.9440 C   0  0  0  0  0  0  0  0  0  0  0  0
  1  2  1  0
  2  3  1  0
  3  4  1  0
  4  5  2  0
  5  6  1  0
  6  7  2  0
  7  8  1  0
  8  9  2  0
  8 10  1  0
 10 11  1  0
 11 12  2  0
 12 13  1  0
 13 14  2  0
 14 15  1  0
 15 16  2  0
 15 17  1  0
 17 18  1  0
 18 19  1  0
  7 20  1  0
 20 21  2  0
 21 22  1  0
 21 23  1  0
 23 24  2  0
 24  3  1  0
 24  6  1  0
 16 11  1  0
 19 14  1  0
M  END
>  <smiles>  (515) 
C98892-P123

>  <fragmenstein_outcome>  (515) 
acceptable

>  <inchikey>  (515) 
BNURVSYJLCQUKV-UHFFFAOYSA-N

>  <fragmenstein_mode>  (515) 
expansion

>  <HIPPO Pose ID>  (515) 
16812

>  <Energy>  (515) 
63.41406

>  <fragmenstein_error>  (515) 


>  <tags>  (515) 
{'openbind_xx01zvns2b_c1_fragmenstein', 'fragmenstein_placed'}

>  <ref_pdb>  (515) 
1

>  <scratch_subdir>  (515) 
/opt/xchem-fragalysis-2/maxwin/BulkDock/SCRATCH/511027/C98892-P123

>  <alias>  (515) 
NCn1ccc2c(C(=O)Nc3ccc4c(c3)CNC4)cc(Br)cc21

>  <HIPPO Compound ID>  (515) 
76486

>  <fragmenstein_runtime>  (515) 
4.093441

$$$$
CNCn1ccc2c(C(=O)Nc3cc(Br)c4c(c3)CNC4)cc(Br)cc21
     RDKit          3D

 26 29  0  0  0  0  0  0  0  0999 V2000
   -4.9579    6.8353  -20.7746 C   0  0  0  0  0  0  0  0  0  0  0  0
   -5.1945    6.6633  -19.3496 N   0  0  0  0  0  0  0  0  0  0  0  0
   -4.6399    5.3924  -18.9054 C   0  0  0  0  0  0  0  0  0  0  0  0
   -5.0079    5.2999  -17.5079 N   0  0  0  0  0  0  0  0  0  0  0  0
   -4.1985    5.6200  -16.4500 C   0  0  0  0  0  0  0  0  0  0  0  0
   -4.9827    5.6014  -15.3196 C   0  0  0  0  0  0  0  0  0  0  0  0
   -6.3004    5.2139  -15.7006 C   0  0  0  0  0  0  0  0  0  0  0  0
   -7.5217    5.0419  -15.0235 C   0  0  0  0  0  0  0  0  0  0  0  0
   -7.6292    5.4722  -13.6168 C   0  0  0  0  0  0  0  0  0  0  0  0
   -7.3722    6.5798  -13.3536 O   0  0  0  0  0  0  0  0  0  0  0  0
   -8.0899    4.3103  -12.7124 N   0  0  0  0  0  0  0  0  0  0  0  0
   -8.2350    4.2437  -11.3298 C   0  0  0  0  0  0  0  0  0  0  0  0
   -8.0973    5.3997  -10.5454 C   0  0  0  0  0  0  0  0  0  0  0  0
   -8.2200    5.3328   -9.1570 C   0  0  0  0  0  0  0  0  0  0  0  0
   -8.0356    6.9041   -8.1238 Br  0  0  0  0  0  0  0  0  0  0  0  0
   -8.4732    4.1086   -8.5698 C   0  0  0  0  0  0  0  0  0  0  0  0
   -8.6140    2.9651   -9.3499 C   0  0  0  0  0  0  0  0  0  0  0  0
   -8.5044    3.0123  -10.7311 C   0  0  0  0  0  0  0  0  0  0  0  0
   -8.8834    1.7927   -8.4698 C   0  0  0  0  0  0  0  0  0  0  0  0
   -8.6959    2.2736   -7.0771 N   0  0  0  0  0  0  0  0  0  0  0  0
   -8.6655    3.7510   -7.1377 C   0  0  0  0  0  0  0  0  0  0  0  0
   -8.6567    4.6016  -15.7143 C   0  0  0  0  0  0  0  0  0  0  0  0
   -8.5979    4.4103  -17.0884 C   0  0  0  0  0  0  0  0  0  0  0  0
  -10.1597    4.0155  -18.0591 Br  0  0  0  0  0  0  0  0  0  0  0  0
   -7.4200    4.6100  -17.7996 C   0  0  0  0  0  0  0  0  0  0  0  0
   -6.2813    4.9962  -17.0757 C   0  0  0  0  0  0  0  0  0  0  0  0
  1  2  1  0
  2  3  1  0
  3  4  1  0
  4  5  1  0
  5  6  2  0
  6  7  1  0
  7  8  2  0
  8  9  1  0
  9 10  2  0
  9 11  1  0
 11 12  1  0
 12 13  2  0
 13 14  1  0
 14 15  1  0
 14 16  2  0
 16 17  1  0
 17 18  2  0
 17 19  1  0
 19 20  1  0
 20 21  1  0
  8 22  1  0
 22 23  2  0
 23 24  1  0
 23 25  1  0
 25 26  2  0
 26  4  1  0
 26  7  1  0
 18 12  1  0
 21 16  1  0
M  END
>  <smiles>  (516) 
C99048-P123

>  <fragmenstein_outcome>  (516) 
acceptable

>  <inchikey>  (516) 
CRVJWVNPWBJZEV-UHFFFAOYSA-N

>  <fragmenstein_mode>  (516) 
expansion

>  <HIPPO Pose ID>  (516) 
16819

>  <Energy>  (516) 
59.52093

>  <fragmenstein_error>  (516) 


>  <tags>  (516) 
{'openbind_xx01zvns2b_c1_fragmenstein', 'fragmenstein_placed'}

>  <ref_pdb>  (516) 
1

>  <scratch_subdir>  (516) 
/opt/xchem-fragalysis-2/maxwin/BulkDock/SCRATCH/511027/C99048-P123

>  <alias>  (516) 
CNCn1ccc2c(C(=O)Nc3cc(Br)c4c(c3)CNC4)cc(Br)cc21

>  <HIPPO Compound ID>  (516) 
100000

>  <fragmenstein_runtime>  (516) 
6.283548

$$$$
CNCn1ccc2c(C(=O)Nc3ccc4c(c3)CN(C)[C@@H]4C)cc(Br)cc21
     RDKit          3D

 27 30  0  0  0  0  0  0  0  0999 V2000
   -2.0239    5.2642  -18.6344 C   0  0  0  0  0  0  0  0  0  0  0  0
   -3.4054    5.0956  -19.0476 N   0  0  0  0  0  0  0  0  0  0  0  0
   -4.2976    6.1451  -18.5905 C   0  0  0  0  0  0  0  0  0  0  0  0
   -4.7965    5.8444  -17.2514 N   0  0  0  0  0  0  0  0  0  0  0  0
   -4.1650    6.2483  -16.0990 C   0  0  0  0  0  0  0  0  0  0  0  0
   -5.0185    6.0321  -15.0472 C   0  0  0  0  0  0  0  0  0  0  0  0
   -6.2244    5.4881  -15.5683 C   0  0  0  0  0  0  0  0  0  0  0  0
   -7.4687    5.1471  -14.9946 C   0  0  0  0  0  0  0  0  0  0  0  0
   -7.7437    5.5601  -13.6017 C   0  0  0  0  0  0  0  0  0  0  0  0
   -7.6575    6.6968  -13.3471 O   0  0  0  0  0  0  0  0  0  0  0  0
   -8.0720    4.3529  -12.6952 N   0  0  0  0  0  0  0  0  0  0  0  0
   -8.2631    4.2816  -11.3145 C   0  0  0  0  0  0  0  0  0  0  0  0
   -8.1900    5.4459  -10.5326 C   0  0  0  0  0  0  0  0  0  0  0  0
   -8.2691    5.3843   -9.1392 C   0  0  0  0  0  0  0  0  0  0  0  0
   -8.4505    4.1491   -8.5435 C   0  0  0  0  0  0  0  0  0  0  0  0
   -8.5713    2.9981   -9.3173 C   0  0  0  0  0  0  0  0  0  0  0  0
   -8.4694    3.0422  -10.7033 C   0  0  0  0  0  0  0  0  0  0  0  0
   -8.7343    1.8099   -8.4199 C   0  0  0  0  0  0  0  0  0  0  0  0
   -8.8452    2.3466   -7.0337 N   0  0  0  0  0  0  0  0  0  0  0  0
  -10.1547    2.0874   -6.4631 C   0  0  0  0  0  0  0  0  0  0  0  0
   -8.4283    3.7698   -7.0898 C   0  0  2  0  0  0  0  0  0  0  0  0
   -9.1500    4.7510   -6.1704 C   0  0  0  0  0  0  0  0  0  0  0  0
   -8.4845    4.6042  -15.7824 C   0  0  0  0  0  0  0  0  0  0  0  0
   -8.2765    4.4514  -17.1485 C   0  0  0  0  0  0  0  0  0  0  0  0
   -9.7072    3.8551  -18.2228 Br  0  0  0  0  0  0  0  0  0  0  0  0
   -7.0711    4.8126  -17.7642 C   0  0  0  0  0  0  0  0  0  0  0  0
   -6.0504    5.3354  -16.9496 C   0  0  0  0  0  0  0  0  0  0  0  0
  1  2  1  0
  2  3  1  0
  3  4  1  0
  4  5  1  0
  5  6  2  0
  6  7  1  0
  7  8  2  0
  8  9  1  0
  9 10  2  0
  9 11  1  0
 11 12  1  0
 12 13  2  0
 13 14  1  0
 14 15  2  0
 15 16  1  0
 16 17  2  0
 16 18  1  0
 18 19  1  0
 19 20  1  0
 19 21  1  0
 21 22  1  1
  8 23  1  0
 23 24  2  0
 24 25  1  0
 24 26  1  0
 26 27  2  0
 27  4  1  0
 27  7  1  0
 17 12  1  0
 21 15  1  0
M  END
>  <smiles>  (517) 
C99067-P123

>  <fragmenstein_outcome>  (517) 
acceptable

>  <inchikey>  (517) 
YHWGXSDVDJVIGL-UHFFFAOYSA-N

>  <fragmenstein_mode>  (517) 
expansion

>  <HIPPO Pose ID>  (517) 
16825

>  <Energy>  (517) 
80.959732

>  <fragmenstein_error>  (517) 


>  <tags>  (517) 
{'openbind_xx01zvns2b_c1_fragmenstein', 'fragmenstein_placed'}

>  <ref_pdb>  (517) 
1

>  <scratch_subdir>  (517) 
/opt/xchem-fragalysis-2/maxwin/BulkDock/SCRATCH/511027/C99067-P123

>  <alias>  (517) 
CNCn1ccc2c(C(=O)Nc3ccc4c(c3)CN(C)[C@@H]4C)cc(Br)cc21

>  <HIPPO Compound ID>  (517) 
99067

>  <fragmenstein_runtime>  (517) 
6.341829

$$$$
CCNn1ccc2c(C(=O)Nc3ccc4c(c3)CNC4)cc(Br)cc21
     RDKit          3D

 25 28  0  0  0  0  0  0  0  0999 V2000
   -2.4320    5.0284  -18.3538 C   0  0  0  0  0  0  0  0  0  0  0  0
   -3.0127    6.4240  -18.2344 C   0  0  0  0  0  0  0  0  0  0  0  0
   -4.4618    6.4662  -18.0486 N   0  0  0  0  0  0  0  0  0  0  0  0
   -4.9656    6.1029  -16.7513 N   0  0  0  0  0  0  0  0  0  0  0  0
   -4.3906    6.3415  -15.5342 C   0  0  0  0  0  0  0  0  0  0  0  0
   -5.2133    5.8220  -14.5546 C   0  0  0  0  0  0  0  0  0  0  0  0
   -6.3972    5.3416  -15.1806 C   0  0  0  0  0  0  0  0  0  0  0  0
   -7.5849    4.7062  -14.7486 C   0  0  0  0  0  0  0  0  0  0  0  0
   -7.7915    4.1356  -13.3884 C   0  0  0  0  0  0  0  0  0  0  0  0
   -8.0785    3.0096  -13.3812 O   0  0  0  0  0  0  0  0  0  0  0  0
   -7.6444    5.1300  -12.2329 N   0  0  0  0  0  0  0  0  0  0  0  0
   -7.9031    4.9804  -10.8703 C   0  0  0  0  0  0  0  0  0  0  0  0
   -7.8398    6.0649   -9.9923 C   0  0  0  0  0  0  0  0  0  0  0  0
   -8.1144    5.8807   -8.6278 C   0  0  0  0  0  0  0  0  0  0  0  0
   -8.4604    4.6146   -8.1762 C   0  0  0  0  0  0  0  0  0  0  0  0
   -8.5263    3.5386   -9.0477 C   0  0  0  0  0  0  0  0  0  0  0  0
   -8.2456    3.7031  -10.3896 C   0  0  0  0  0  0  0  0  0  0  0  0
   -8.8936    2.2990   -8.3007 C   0  0  0  0  0  0  0  0  0  0  0  0
   -9.3659    2.7816   -6.9729 N   0  0  0  0  0  0  0  0  0  0  0  0
   -8.7813    4.1313   -6.8014 C   0  0  0  0  0  0  0  0  0  0  0  0
   -8.5610    4.3659  -15.7045 C   0  0  0  0  0  0  0  0  0  0  0  0
   -8.3567    4.5857  -17.0546 C   0  0  0  0  0  0  0  0  0  0  0  0
   -9.6766    4.0520  -18.2915 Br  0  0  0  0  0  0  0  0  0  0  0  0
   -7.1895    5.1815  -17.5132 C   0  0  0  0  0  0  0  0  0  0  0  0
   -6.2201    5.5504  -16.5622 C   0  0  0  0  0  0  0  0  0  0  0  0
  1  2  1  0
  2  3  1  0
  3  4  1  0
  4  5  1  0
  5  6  2  0
  6  7  1  0
  7  8  2  0
  8  9  1  0
  9 10  2  0
  9 11  1  0
 11 12  1  0
 12 13  2  0
 13 14  1  0
 14 15  2  0
 15 16  1  0
 16 17  2  0
 16 18  1  0
 18 19  1  0
 19 20  1  0
  8 21  1  0
 21 22  2  0
 22 23  1  0
 22 24  1  0
 24 25  2  0
 25  4  1  0
 25  7  1  0
 17 12  1  0
 20 15  1  0
M  END
>  <smiles>  (518) 
C99082-P123

>  <fragmenstein_outcome>  (518) 
acceptable

>  <inchikey>  (518) 
GUCUVLGHQMTYBF-UHFFFAOYSA-N

>  <fragmenstein_mode>  (518) 
expansion

>  <HIPPO Pose ID>  (518) 
16829

>  <Energy>  (518) 
29.498113

>  <fragmenstein_error>  (518) 


>  <tags>  (518) 
{'openbind_xx01zvns2b_c1_fragmenstein', 'fragmenstein_placed'}

>  <ref_pdb>  (518) 
1

>  <scratch_subdir>  (518) 
/opt/xchem-fragalysis-2/maxwin/BulkDock/SCRATCH/511027/C99082-P123

>  <alias>  (518) 
CCNn1ccc2c(C(=O)Nc3ccc4c(c3)CNC4)cc(Br)cc21

>  <HIPPO Compound ID>  (518) 
99082

>  <fragmenstein_runtime>  (518) 
4.496934

$$$$
O=C(Nc1ccc2c(c1)CNC2)c1cc(Br)cc2cc(OCc3ccccc3)ccc12
     RDKit          3D

 31 35  0  0  0  0  0  0  0  0999 V2000
   -7.1156    6.5347  -13.5354 O   0  0  0  0  0  0  0  0  0  0  0  0
   -7.3954    5.4297  -13.7902 C   0  0  0  0  0  0  0  0  0  0  0  0
   -7.9054    4.2891  -12.8788 N   0  0  0  0  0  0  0  0  0  0  0  0
   -8.0811    4.2444  -11.4949 C   0  0  0  0  0  0  0  0  0  0  0  0
   -7.9089    5.3932  -10.7060 C   0  0  0  0  0  0  0  0  0  0  0  0
   -8.0727    5.3427   -9.3173 C   0  0  0  0  0  0  0  0  0  0  0  0
   -8.4167    4.1341   -8.7402 C   0  0  0  0  0  0  0  0  0  0  0  0
   -8.5990    2.9984   -9.5170 C   0  0  0  0  0  0  0  0  0  0  0  0
   -8.4332    3.0320  -10.8945 C   0  0  0  0  0  0  0  0  0  0  0  0
   -8.9536    1.8469   -8.6394 C   0  0  0  0  0  0  0  0  0  0  0  0
   -9.0957    2.3943   -7.2632 N   0  0  0  0  0  0  0  0  0  0  0  0
   -8.6392    3.8001   -7.3061 C   0  0  0  0  0  0  0  0  0  0  0  0
   -7.3052    4.9893  -15.2088 C   0  0  0  0  0  0  0  0  0  0  0  0
   -8.4860    4.5750  -15.8338 C   0  0  0  0  0  0  0  0  0  0  0  0
   -8.4827    4.3449  -17.2035 C   0  0  0  0  0  0  0  0  0  0  0  0
  -10.0845    3.9408  -18.1007 Br  0  0  0  0  0  0  0  0  0  0  0  0
   -7.3241    4.5038  -17.9518 C   0  0  0  0  0  0  0  0  0  0  0  0
   -6.1301    4.8744  -17.3302 C   0  0  0  0  0  0  0  0  0  0  0  0
   -4.9638    4.9884  -18.0952 C   0  0  0  0  0  0  0  0  0  0  0  0
   -3.7371    5.3008  -17.5129 C   0  0  0  0  0  0  0  0  0  0  0  0
   -2.7004    5.3033  -18.3949 O   0  0  0  0  0  0  0  0  0  0  0  0
   -1.4383    5.8454  -18.0210 C   0  0  0  0  0  0  0  0  0  0  0  0
   -1.2943    7.2375  -18.5862 C   0  0  0  0  0  0  0  0  0  0  0  0
   -0.4588    7.4698  -19.6874 C   0  0  0  0  0  0  0  0  0  0  0  0
   -0.3328    8.7528  -20.2221 C   0  0  0  0  0  0  0  0  0  0  0  0
   -1.0460    9.8141  -19.6676 C   0  0  0  0  0  0  0  0  0  0  0  0
   -1.8851    9.5944  -18.5774 C   0  0  0  0  0  0  0  0  0  0  0  0
   -2.0075    8.3134  -18.0377 C   0  0  0  0  0  0  0  0  0  0  0  0
   -3.6881    5.5465  -16.1481 C   0  0  0  0  0  0  0  0  0  0  0  0
   -4.8526    5.4733  -15.3727 C   0  0  0  0  0  0  0  0  0  0  0  0
   -6.0969    5.1233  -15.9394 C   0  0  0  0  0  0  0  0  0  0  0  0
  1  2  2  0
  2  3  1  0
  3  4  1  0
  4  5  2  0
  5  6  1  0
  6  7  2  0
  7  8  1  0
  8  9  2  0
  8 10  1  0
 10 11  1  0
 11 12  1  0
  2 13  1  0
 13 14  2  0
 14 15  1  0
 15 16  1  0
 15 17  2  0
 17 18  1  0
 18 19  2  0
 19 20  1  0
 20 21  1  0
 21 22  1  0
 22 23  1  0
 23 24  2  0
 24 25  1  0
 25 26  2  0
 26 27  1  0
 27 28  2  0
 20 29  2  0
 29 30  1  0
 30 31  2  0
  9  4  1  0
 31 13  1  0
 12  7  1  0
 31 18  1  0
 28 23  1  0
M  END
>  <smiles>  (519) 
C99195-P124

>  <fragmenstein_outcome>  (519) 
acceptable

>  <inchikey>  (519) 
WQKGAGULEJWOSZ-UHFFFAOYSA-N

>  <fragmenstein_mode>  (519) 
expansion

>  <HIPPO Pose ID>  (519) 
16852

>  <Energy>  (519) 
91.955891

>  <fragmenstein_error>  (519) 


>  <tags>  (519) 
{'openbind_xx01zvns2b_c1_fragmenstein', 'fragmenstein_placed'}

>  <ref_pdb>  (519) 
1

>  <scratch_subdir>  (519) 
/opt/xchem-fragalysis-2/maxwin/BulkDock/SCRATCH/511027/C99195-P124

>  <alias>  (519) 
O=C(Nc1ccc2c(c1)CNC2)c1cc(Br)cc2cc(OCc3ccccc3)ccc12

>  <HIPPO Compound ID>  (519) 
93734

>  <fragmenstein_runtime>  (519) 
8.086232

$$$$
CSc1cc2c(cc1NC(=O)c1cc(Br)cc3ccccc13)CNC2
     RDKit          3D

 25 28  0  0  0  0  0  0  0  0999 V2000
   -6.7284    8.0907  -11.1755 C   0  0  0  0  0  0  0  0  0  0  0  0
   -8.3068    7.3678  -11.6915 S   0  0  0  0  0  0  0  0  0  0  0  0
   -8.0883    5.7176  -11.0139 C   0  0  0  0  0  0  0  0  0  0  0  0
   -8.2326    5.6183   -9.6144 C   0  0  0  0  0  0  0  0  0  0  0  0
   -8.3633    4.3700   -9.0331 C   0  0  0  0  0  0  0  0  0  0  0  0
   -8.3914    3.2293   -9.8142 C   0  0  0  0  0  0  0  0  0  0  0  0
   -8.2081    3.2930  -11.1869 C   0  0  0  0  0  0  0  0  0  0  0  0
   -8.0094    4.5415  -11.8013 C   0  0  0  0  0  0  0  0  0  0  0  0
   -7.7793    4.4998  -13.1874 N   0  0  0  0  0  0  0  0  0  0  0  0
   -7.0022    5.4774  -14.1106 C   0  0  0  0  0  0  0  0  0  0  0  0
   -6.5002    6.5064  -13.8731 O   0  0  0  0  0  0  0  0  0  0  0  0
   -7.0154    5.0211  -15.5339 C   0  0  0  0  0  0  0  0  0  0  0  0
   -8.2478    4.6105  -16.0630 C   0  0  0  0  0  0  0  0  0  0  0  0
   -8.3547    4.3551  -17.4213 C   0  0  0  0  0  0  0  0  0  0  0  0
  -10.0263    3.9184  -18.1584 Br  0  0  0  0  0  0  0  0  0  0  0  0
   -7.2628    4.5126  -18.2628 C   0  0  0  0  0  0  0  0  0  0  0  0
   -6.0268    4.9241  -17.7568 C   0  0  0  0  0  0  0  0  0  0  0  0
   -4.9445    5.0894  -18.6350 C   0  0  0  0  0  0  0  0  0  0  0  0
   -3.6834    5.4441  -18.1642 C   0  0  0  0  0  0  0  0  0  0  0  0
   -3.4966    5.6645  -16.8102 C   0  0  0  0  0  0  0  0  0  0  0  0
   -4.5759    5.5395  -15.9269 C   0  0  0  0  0  0  0  0  0  0  0  0
   -5.8711    5.1696  -16.3712 C   0  0  0  0  0  0  0  0  0  0  0  0
   -8.6623    2.0404   -8.9566 C   0  0  0  0  0  0  0  0  0  0  0  0
   -8.7966    2.5483   -7.5655 N   0  0  0  0  0  0  0  0  0  0  0  0
   -8.5448    4.0026   -7.6007 C   0  0  0  0  0  0  0  0  0  0  0  0
  1  2  1  0
  2  3  1  0
  3  4  2  0
  4  5  1  0
  5  6  2  0
  6  7  1  0
  7  8  2  0
  8  9  1  0
  9 10  1  0
 10 11  2  0
 10 12  1  0
 12 13  2  0
 13 14  1  0
 14 15  1  0
 14 16  2  0
 16 17  1  0
 17 18  2  0
 18 19  1  0
 19 20  2  0
 20 21  1  0
 21 22  2  0
  6 23  1  0
 23 24  1  0
 24 25  1  0
  8  3  1  0
 22 12  1  0
 25  5  1  0
 22 17  1  0
M  END
>  <smiles>  (520) 
C99240-P124

>  <fragmenstein_outcome>  (520) 
acceptable

>  <inchikey>  (520) 
NISLHEWGQUHYLC-UHFFFAOYSA-N

>  <fragmenstein_mode>  (520) 
expansion

>  <HIPPO Pose ID>  (520) 
16877

>  <Energy>  (520) 
83.949701

>  <fragmenstein_error>  (520) 


>  <tags>  (520) 
{'openbind_xx01zvns2b_c1_fragmenstein', 'fragmenstein_placed'}

>  <ref_pdb>  (520) 
1

>  <scratch_subdir>  (520) 
/opt/xchem-fragalysis-2/maxwin/BulkDock/SCRATCH/511027/C99240-P124

>  <alias>  (520) 
CSc1cc2c(cc1NC(=O)c1cc(Br)cc3ccccc13)CNC2

>  <HIPPO Compound ID>  (520) 
104879

>  <fragmenstein_runtime>  (520) 
5.074065

$$$$
CCN1CC[C@@]2(CCc3c(C(=O)Nc4ccc5c(c4)CNC5)cc(Br)c4[nH]cc2c34)C1
     RDKit          3D

 31 36  0  0  0  0  0  0  0  0999 V2000
   -0.9068    8.8673  -19.8335 C   0  0  0  0  0  0  0  0  0  0  0  0
   -0.7485    7.4103  -19.4255 C   0  0  0  0  0  0  0  0  0  0  0  0
   -1.7007    7.0053  -18.3863 N   0  0  0  0  0  0  0  0  0  0  0  0
   -1.3788    5.6613  -17.8861 C   0  0  0  0  0  0  0  0  0  0  0  0
   -2.7076    4.9773  -17.5787 C   0  0  0  0  0  0  0  0  0  0  0  0
   -3.7840    6.0443  -17.7723 C   0  0  2  0  0  0  0  0  0  0  0  0
   -4.0297    6.8419  -16.4304 C   0  0  0  0  0  0  0  0  0  0  0  0
   -4.8096    6.0669  -15.3195 C   0  0  0  0  0  0  0  0  0  0  0  0
   -6.0720    5.4452  -15.8593 C   0  0  0  0  0  0  0  0  0  0  0  0
   -7.2339    5.1126  -15.1340 C   0  0  0  0  0  0  0  0  0  0  0  0
   -7.3777    5.5111  -13.7058 C   0  0  0  0  0  0  0  0  0  0  0  0
   -7.2372    6.6383  -13.4326 O   0  0  0  0  0  0  0  0  0  0  0  0
   -7.7920    4.3089  -12.8229 N   0  0  0  0  0  0  0  0  0  0  0  0
   -8.0194    4.2296  -11.4477 C   0  0  0  0  0  0  0  0  0  0  0  0
   -7.8735    5.3592  -10.6246 C   0  0  0  0  0  0  0  0  0  0  0  0
   -8.1016    5.2821   -9.2458 C   0  0  0  0  0  0  0  0  0  0  0  0
   -8.4888    4.0670   -8.7149 C   0  0  0  0  0  0  0  0  0  0  0  0
   -8.6356    2.9448   -9.5246 C   0  0  0  0  0  0  0  0  0  0  0  0
   -8.4007    3.0043  -10.8906 C   0  0  0  0  0  0  0  0  0  0  0  0
   -9.0315    1.7844   -8.6710 C   0  0  0  0  0  0  0  0  0  0  0  0
   -9.4727    2.3802   -7.3824 N   0  0  0  0  0  0  0  0  0  0  0  0
   -8.7941    3.6926   -7.3029 C   0  0  0  0  0  0  0  0  0  0  0  0
   -8.3584    4.5615  -15.7779 C   0  0  0  0  0  0  0  0  0  0  0  0
   -8.3550    4.3381  -17.1592 C   0  0  0  0  0  0  0  0  0  0  0  0
   -9.9023    3.7966  -18.0705 Br  0  0  0  0  0  0  0  0  0  0  0  0
   -7.1950    4.6430  -17.8618 C   0  0  0  0  0  0  0  0  0  0  0  0
   -6.8829    4.5936  -19.1987 N   0  0  0  0  0  0  0  0  0  0  0  0
   -5.6039    5.0553  -19.4188 C   0  0  0  0  0  0  0  0  0  0  0  0
   -5.0868    5.4351  -18.2029 C   0  0  0  0  0  0  0  0  0  0  0  0
   -6.0870    5.1656  -17.2334 C   0  0  0  0  0  0  0  0  0  0  0  0
   -3.1039    6.9387  -18.8306 C   0  0  0  0  0  0  0  0  0  0  0  0
  1  2  1  0
  2  3  1  0
  3  4  1  0
  4  5  1  0
  6  5  1  1
  6  7  1  0
  7  8  1  0
  8  9  1  0
  9 10  2  0
 10 11  1  0
 11 12  2  0
 11 13  1  0
 13 14  1  0
 14 15  2  0
 15 16  1  0
 16 17  2  0
 17 18  1  0
 18 19  2  0
 18 20  1  0
 20 21  1  0
 21 22  1  0
 10 23  1  0
 23 24  2  0
 24 25  1  0
 24 26  1  0
 26 27  1  0
 27 28  1  0
 28 29  2  0
 29 30  1  0
  6 31  1  0
 31  3  1  0
 29  6  1  0
 30  9  1  0
 19 14  1  0
 30 26  2  0
 22 17  1  0
M  END
>  <smiles>  (521) 
C99266-P124

>  <fragmenstein_outcome>  (521) 
acceptable

>  <inchikey>  (521) 
DWGIMOPJGILSDS-UHFFFAOYSA-N

>  <fragmenstein_mode>  (521) 
expansion

>  <HIPPO Pose ID>  (521) 
16891

>  <Energy>  (521) 
76.753257

>  <fragmenstein_error>  (521) 


>  <tags>  (521) 
{'openbind_xx01zvns2b_c1_fragmenstein', 'fragmenstein_placed'}

>  <ref_pdb>  (521) 
1

>  <scratch_subdir>  (521) 
/opt/xchem-fragalysis-2/maxwin/BulkDock/SCRATCH/511027/C99266-P124

>  <alias>  (521) 
CCN1CC[C@@]2(CCc3c(C(=O)Nc4ccc5c(c4)CNC5)cc(Br)c4[nH]cc2c34)C1

>  <HIPPO Compound ID>  (521) 
77253

>  <fragmenstein_runtime>  (521) 
18.605768

$$$$
CCNCc1ccc([C@H](C[C@@H](Br)NC=O)C(=O)Nc2ccc3c(c2)CNC3)cc1
     RDKit          3D

 29 31  0  0  0  0  0  0  0  0999 V2000
   -0.6029    7.6005  -19.6078 C   0  0  0  0  0  0  0  0  0  0  0  0
   -1.2417    7.5704  -18.2270 C   0  0  0  0  0  0  0  0  0  0  0  0
   -1.2547    6.2216  -17.6774 N   0  0  0  0  0  0  0  0  0  0  0  0
   -2.3658    5.4119  -18.1680 C   0  0  0  0  0  0  0  0  0  0  0  0
   -3.5837    5.4877  -17.2806 C   0  0  0  0  0  0  0  0  0  0  0  0
   -4.7579    6.0805  -17.7295 C   0  0  0  0  0  0  0  0  0  0  0  0
   -5.9289    5.9627  -16.9804 C   0  0  0  0  0  0  0  0  0  0  0  0
   -5.9857    5.1750  -15.8368 C   0  0  0  0  0  0  0  0  0  0  0  0
   -7.2695    4.6482  -15.2174 C   0  0  2  0  0  0  0  0  0  0  0  0
   -8.6013    4.6635  -15.9966 C   0  0  0  0  0  0  0  0  0  0  0  0
   -8.7229    3.9442  -17.3571 C   0  0  1  0  0  0  0  0  0  0  0  0
  -10.5514    4.1613  -18.0151 Br  0  0  0  0  0  0  0  0  0  0  0  0
   -7.9397    4.4098  -18.4531 N   0  0  0  0  0  0  0  0  0  0  0  0
   -7.3674    3.6583  -19.6549 C   0  0  0  0  0  0  0  0  0  0  0  0
   -7.5043    2.5572  -19.9867 O   0  0  0  0  0  0  0  0  0  0  0  0
   -7.5149    5.3098  -13.8341 C   0  0  0  0  0  0  0  0  0  0  0  0
   -7.4930    6.4706  -13.6698 O   0  0  0  0  0  0  0  0  0  0  0  0
   -7.7189    4.1442  -12.8088 N   0  0  0  0  0  0  0  0  0  0  0  0
   -8.0190    4.1786  -11.4490 C   0  0  0  0  0  0  0  0  0  0  0  0
   -7.9413    5.3644  -10.7042 C   0  0  0  0  0  0  0  0  0  0  0  0
   -8.1734    5.3542   -9.3227 C   0  0  0  0  0  0  0  0  0  0  0  0
   -8.5119    4.1547   -8.7209 C   0  0  0  0  0  0  0  0  0  0  0  0
   -8.6159    2.9842   -9.4638 C   0  0  0  0  0  0  0  0  0  0  0  0
   -8.3554    2.9732  -10.8227 C   0  0  0  0  0  0  0  0  0  0  0  0
   -8.9987    1.8582   -8.5604 C   0  0  0  0  0  0  0  0  0  0  0  0
   -9.4377    2.5079   -7.2962 N   0  0  0  0  0  0  0  0  0  0  0  0
   -8.7930    3.8401   -7.2894 C   0  0  0  0  0  0  0  0  0  0  0  0
   -4.7654    4.7779  -15.2814 C   0  0  0  0  0  0  0  0  0  0  0  0
   -3.5807    4.9241  -16.0009 C   0  0  0  0  0  0  0  0  0  0  0  0
  1  2  1  0
  2  3  1  0
  3  4  1  0
  4  5  1  0
  5  6  2  0
  6  7  1  0
  7  8  2  0
  8  9  1  0
  9 10  1  6
 10 11  1  0
 11 12  1  6
 11 13  1  0
 13 14  1  0
 14 15  2  0
  9 16  1  0
 16 17  2  0
 16 18  1  0
 18 19  1  0
 19 20  2  0
 20 21  1  0
 21 22  2  0
 22 23  1  0
 23 24  2  0
 23 25  1  0
 25 26  1  0
 26 27  1  0
  8 28  1  0
 28 29  2  0
 29  5  1  0
 24 19  1  0
 27 22  1  0
M  END
>  <smiles>  (522) 
C99270-P124

>  <fragmenstein_outcome>  (522) 
acceptable

>  <inchikey>  (522) 
BCJJINWWHTYPCM-UHFFFAOYSA-N

>  <fragmenstein_mode>  (522) 
expansion

>  <HIPPO Pose ID>  (522) 
16893

>  <Energy>  (522) 
47.160141

>  <fragmenstein_error>  (522) 


>  <tags>  (522) 
{'openbind_xx01zvns2b_c1_fragmenstein', 'fragmenstein_placed'}

>  <ref_pdb>  (522) 
1

>  <scratch_subdir>  (522) 
/opt/xchem-fragalysis-2/maxwin/BulkDock/SCRATCH/511027/C99270-P124

>  <alias>  (522) 
CCNCc1ccc([C@H](C[C@@H](Br)NC=O)C(=O)Nc2ccc3c(c2)CNC3)cc1

>  <HIPPO Compound ID>  (522) 
87175

>  <fragmenstein_runtime>  (522) 
7.486578

$$$$
CC(C)NC(=O)[C@@](O)(Nc1ccc2c(c1)CNC2)c1cc(Br)cc2c(F)c(F)ccc12
     RDKit          3D

 31 34  0  0  0  0  0  0  0  0999 V2000
   -8.9771    8.8803  -11.2153 C   0  0  0  0  0  0  0  0  0  0  0  0
   -9.0899    8.6163  -12.7151 C   0  0  0  0  0  0  0  0  0  0  0  0
  -10.5185    8.8521  -13.2009 C   0  0  0  0  0  0  0  0  0  0  0  0
   -8.5700    7.2960  -13.0406 N   0  0  0  0  0  0  0  0  0  0  0  0
   -7.0967    6.8001  -13.2166 C   0  0  0  0  0  0  0  0  0  0  0  0
   -6.0874    7.3979  -13.2019 O   0  0  0  0  0  0  0  0  0  0  0  0
   -7.1245    5.1741  -13.4771 C   0  0  1  0  0  0  0  0  0  0  0  0
   -5.9932    4.4674  -13.0142 O   0  0  0  0  0  0  0  0  0  0  0  0
   -8.2917    4.5287  -12.8195 N   0  0  0  0  0  0  0  0  0  0  0  0
   -8.2769    4.3535  -11.4076 C   0  0  0  0  0  0  0  0  0  0  0  0
   -7.9854    5.3992  -10.5060 C   0  0  0  0  0  0  0  0  0  0  0  0
   -8.0938    5.2485   -9.1178 C   0  0  0  0  0  0  0  0  0  0  0  0
   -8.4999    4.0293   -8.6275 C   0  0  0  0  0  0  0  0  0  0  0  0
   -8.7510    2.9680   -9.4872 C   0  0  0  0  0  0  0  0  0  0  0  0
   -8.6618    3.1142  -10.8663 C   0  0  0  0  0  0  0  0  0  0  0  0
   -9.1012    1.7698   -8.6670 C   0  0  0  0  0  0  0  0  0  0  0  0
   -9.4858    2.3146   -7.3375 N   0  0  0  0  0  0  0  0  0  0  0  0
   -8.7624    3.6002   -7.2229 C   0  0  0  0  0  0  0  0  0  0  0  0
   -7.1426    4.9651  -15.0256 C   0  0  0  0  0  0  0  0  0  0  0  0
   -8.3336    4.5842  -15.6862 C   0  0  0  0  0  0  0  0  0  0  0  0
   -8.3595    4.4018  -17.0694 C   0  0  0  0  0  0  0  0  0  0  0  0
   -9.9535    3.9323  -17.9608 Br  0  0  0  0  0  0  0  0  0  0  0  0
   -7.2261    4.6090  -17.8384 C   0  0  0  0  0  0  0  0  0  0  0  0
   -6.0262    4.9853  -17.2380 C   0  0  0  0  0  0  0  0  0  0  0  0
   -4.8885    5.1639  -18.0419 C   0  0  0  0  0  0  0  0  0  0  0  0
   -4.9629    4.9827  -19.3715 F   0  0  0  0  0  0  0  0  0  0  0  0
   -3.6702    5.5174  -17.4888 C   0  0  0  0  0  0  0  0  0  0  0  0
   -2.5878    5.6828  -18.2518 F   0  0  0  0  0  0  0  0  0  0  0  0
   -3.5549    5.7158  -16.1351 C   0  0  0  0  0  0  0  0  0  0  0  0
   -4.6814    5.5537  -15.3243 C   0  0  0  0  0  0  0  0  0  0  0  0
   -5.9563    5.1742  -15.8284 C   0  0  0  0  0  0  0  0  0  0  0  0
  1  2  1  0
  2  3  1  0
  2  4  1  0
  4  5  1  0
  5  6  2  0
  5  7  1  0
  7  8  1  1
  7  9  1  0
  9 10  1  0
 10 11  2  0
 11 12  1  0
 12 13  2  0
 13 14  1  0
 14 15  2  0
 14 16  1  0
 16 17  1  0
 17 18  1  0
  7 19  1  0
 19 20  2  0
 20 21  1  0
 21 22  1  0
 21 23  2  0
 23 24  1  0
 24 25  2  0
 25 26  1  0
 25 27  1  0
 27 28  1  0
 27 29  2  0
 29 30  1  0
 30 31  2  0
 15 10  1  0
 31 19  1  0
 18 13  1  0
 31 24  1  0
M  END
>  <smiles>  (523) 
C99272-P124

>  <fragmenstein_outcome>  (523) 
acceptable

>  <inchikey>  (523) 
KZQZJQQWDVQLLD-UHFFFAOYSA-N

>  <fragmenstein_mode>  (523) 
expansion

>  <HIPPO Pose ID>  (523) 
16895

>  <Energy>  (523) 
113.496586

>  <fragmenstein_error>  (523) 


>  <tags>  (523) 
{'openbind_xx01zvns2b_c1_fragmenstein', 'fragmenstein_placed'}

>  <ref_pdb>  (523) 
1

>  <scratch_subdir>  (523) 
/opt/xchem-fragalysis-2/maxwin/BulkDock/SCRATCH/511027/C99272-P124

>  <alias>  (523) 
CC(C)NC(=O)[C@@](O)(Nc1ccc2c(c1)CNC2)c1cc(Br)cc2c(F)c(F)ccc12

>  <HIPPO Compound ID>  (523) 
78629

>  <fragmenstein_runtime>  (523) 
6.673952

$$$$
O=C(Nc1ccc2c(c1)CNC2)c1cc(Br)cc2cc(C3CNC3)ccc12
     RDKit          3D

 27 31  0  0  0  0  0  0  0  0999 V2000
   -7.0883    6.5992  -13.5012 O   0  0  0  0  0  0  0  0  0  0  0  0
   -7.2980    5.4818  -13.7695 C   0  0  0  0  0  0  0  0  0  0  0  0
   -7.6763    4.2866  -12.8627 N   0  0  0  0  0  0  0  0  0  0  0  0
   -7.9586    4.2389  -11.4958 C   0  0  0  0  0  0  0  0  0  0  0  0
   -7.8717    5.3917  -10.6970 C   0  0  0  0  0  0  0  0  0  0  0  0
   -8.1199    5.3360   -9.3203 C   0  0  0  0  0  0  0  0  0  0  0  0
   -8.4788    4.1207   -8.7694 C   0  0  0  0  0  0  0  0  0  0  0  0
   -8.5847    2.9793   -9.5580 C   0  0  0  0  0  0  0  0  0  0  0  0
   -8.3167    3.0155  -10.9188 C   0  0  0  0  0  0  0  0  0  0  0  0
   -8.9795    1.8274   -8.6913 C   0  0  0  0  0  0  0  0  0  0  0  0
   -9.4423    2.4394   -7.4159 N   0  0  0  0  0  0  0  0  0  0  0  0
   -8.7829    3.7619   -7.3532 C   0  0  0  0  0  0  0  0  0  0  0  0
   -7.1880    5.0642  -15.1941 C   0  0  0  0  0  0  0  0  0  0  0  0
   -8.3477    4.5959  -15.8218 C   0  0  0  0  0  0  0  0  0  0  0  0
   -8.3221    4.3572  -17.1898 C   0  0  0  0  0  0  0  0  0  0  0  0
   -9.8935    3.8572  -18.0950 Br  0  0  0  0  0  0  0  0  0  0  0  0
   -7.1619    4.5574  -17.9300 C   0  0  0  0  0  0  0  0  0  0  0  0
   -5.9860    4.9864  -17.3059 C   0  0  0  0  0  0  0  0  0  0  0  0
   -4.8091    5.1424  -18.0611 C   0  0  0  0  0  0  0  0  0  0  0  0
   -3.5764    5.5276  -17.4997 C   0  0  0  0  0  0  0  0  0  0  0  0
   -2.2618    5.6072  -18.4163 C   0  0  0  0  0  0  0  0  0  0  0  0
   -0.8773    5.9178  -17.7972 C   0  0  0  0  0  0  0  0  0  0  0  0
   -1.0737    7.3480  -18.1412 N   0  0  0  0  0  0  0  0  0  0  0  0
   -1.9986    6.9148  -19.2129 C   0  0  0  0  0  0  0  0  0  0  0  0
   -3.5983    5.8016  -16.1231 C   0  0  0  0  0  0  0  0  0  0  0  0
   -4.7665    5.6865  -15.3539 C   0  0  0  0  0  0  0  0  0  0  0  0
   -5.9820    5.2551  -15.9205 C   0  0  0  0  0  0  0  0  0  0  0  0
  1  2  2  0
  2  3  1  0
  3  4  1  0
  4  5  2  0
  5  6  1  0
  6  7  2  0
  7  8  1  0
  8  9  2  0
  8 10  1  0
 10 11  1  0
 11 12  1  0
  2 13  1  0
 13 14  2  0
 14 15  1  0
 15 16  1  0
 15 17  2  0
 17 18  1  0
 18 19  2  0
 19 20  1  0
 20 21  1  0
 21 22  1  0
 22 23  1  0
 23 24  1  0
 20 25  2  0
 25 26  1  0
 26 27  2  0
  9  4  1  0
 27 13  1  0
 12  7  1  0
 27 18  1  0
 24 21  1  0
M  END
>  <smiles>  (524) 
C99274-P124

>  <fragmenstein_outcome>  (524) 
acceptable

>  <inchikey>  (524) 
SABIQDUJGCLEOM-UHFFFAOYSA-N

>  <fragmenstein_mode>  (524) 
expansion

>  <HIPPO Pose ID>  (524) 
16897

>  <Energy>  (524) 
83.856647

>  <fragmenstein_error>  (524) 


>  <tags>  (524) 
{'openbind_xx01zvns2b_c1_fragmenstein', 'fragmenstein_placed'}

>  <ref_pdb>  (524) 
1

>  <scratch_subdir>  (524) 
/opt/xchem-fragalysis-2/maxwin/BulkDock/SCRATCH/511027/C99274-P124

>  <alias>  (524) 
O=C(Nc1ccc2c(c1)CNC2)c1cc(Br)cc2cc(C3CNC3)ccc12

>  <HIPPO Compound ID>  (524) 
88849

>  <fragmenstein_runtime>  (524) 
6.71069

$$$$
CCCCc1cc(-c2cc(Br)cc(C(=O)Nc3ccc4c(c3)CNC4)c2CC)c[nH]1
     RDKit          3D

 30 33  0  0  0  0  0  0  0  0999 V2000
   -0.6566   10.0159  -20.2961 C   0  0  0  0  0  0  0  0  0  0  0  0
    0.0153    8.6598  -20.1365 C   0  0  0  0  0  0  0  0  0  0  0  0
   -0.9660    7.5213  -19.8551 C   0  0  0  0  0  0  0  0  0  0  0  0
   -1.8093    7.7838  -18.6152 C   0  0  0  0  0  0  0  0  0  0  0  0
   -2.7848    6.7037  -18.3140 C   0  0  0  0  0  0  0  0  0  0  0  0
   -4.1705    6.7195  -18.2690 C   0  0  0  0  0  0  0  0  0  0  0  0
   -4.5878    5.5465  -17.5844 C   0  0  0  0  0  0  0  0  0  0  0  0
   -5.8717    5.2238  -16.9778 C   0  0  0  0  0  0  0  0  0  0  0  0
   -6.8938    4.6975  -17.7776 C   0  0  0  0  0  0  0  0  0  0  0  0
   -8.1259    4.3691  -17.2084 C   0  0  0  0  0  0  0  0  0  0  0  0
   -9.5171    3.7139  -18.2952 Br  0  0  0  0  0  0  0  0  0  0  0  0
   -8.3746    4.5764  -15.8558 C   0  0  0  0  0  0  0  0  0  0  0  0
   -7.3742    5.1404  -15.0672 C   0  0  0  0  0  0  0  0  0  0  0  0
   -7.7249    5.5393  -13.6813 C   0  0  0  0  0  0  0  0  0  0  0  0
   -7.8449    6.6759  -13.4471 O   0  0  0  0  0  0  0  0  0  0  0  0
   -7.7717    4.3150  -12.7446 N   0  0  0  0  0  0  0  0  0  0  0  0
   -8.0604    4.2267  -11.3835 C   0  0  0  0  0  0  0  0  0  0  0  0
   -8.0301    5.3784  -10.5783 C   0  0  0  0  0  0  0  0  0  0  0  0
   -8.2382    5.2967   -9.1982 C   0  0  0  0  0  0  0  0  0  0  0  0
   -8.5120    4.0575   -8.6508 C   0  0  0  0  0  0  0  0  0  0  0  0
   -8.5775    2.9227   -9.4487 C   0  0  0  0  0  0  0  0  0  0  0  0
   -8.3316    2.9816  -10.8136 C   0  0  0  0  0  0  0  0  0  0  0  0
   -8.9171    1.7420   -8.6044 C   0  0  0  0  0  0  0  0  0  0  0  0
   -9.1550    2.2603   -7.2301 N   0  0  0  0  0  0  0  0  0  0  0  0
   -8.7621    3.6848   -7.2306 C   0  0  0  0  0  0  0  0  0  0  0  0
   -6.1036    5.4540  -15.6007 C   0  0  0  0  0  0  0  0  0  0  0  0
   -5.0364    6.0535  -14.7104 C   0  0  0  0  0  0  0  0  0  0  0  0
   -4.9747    7.5748  -14.7688 C   0  0  0  0  0  0  0  0  0  0  0  0
   -3.4373    4.8425  -17.3071 C   0  0  0  0  0  0  0  0  0  0  0  0
   -2.3745    5.4695  -17.8905 N   0  0  0  0  0  0  0  0  0  0  0  0
  1  2  1  0
  2  3  1  0
  3  4  1  0
  4  5  1  0
  5  6  2  0
  6  7  1  0
  7  8  1  0
  8  9  2  0
  9 10  1  0
 10 11  1  0
 10 12  2  0
 12 13  1  0
 13 14  1  0
 14 15  2  0
 14 16  1  0
 16 17  1  0
 17 18  2  0
 18 19  1  0
 19 20  2  0
 20 21  1  0
 21 22  2  0
 21 23  1  0
 23 24  1  0
 24 25  1  0
 13 26  2  0
 26 27  1  0
 27 28  1  0
  7 29  2  0
 29 30  1  0
 30  5  1  0
 26  8  1  0
 22 17  1  0
 25 20  1  0
M  END
>  <smiles>  (525) 
C99308-P124

>  <fragmenstein_outcome>  (525) 
acceptable

>  <inchikey>  (525) 
GHYUKIBLLWCEPD-UHFFFAOYSA-N

>  <fragmenstein_mode>  (525) 
expansion

>  <HIPPO Pose ID>  (525) 
16907

>  <Energy>  (525) 
57.258379

>  <fragmenstein_error>  (525) 


>  <tags>  (525) 
{'openbind_xx01zvns2b_c1_fragmenstein', 'fragmenstein_placed'}

>  <ref_pdb>  (525) 
1

>  <scratch_subdir>  (525) 
/opt/xchem-fragalysis-2/maxwin/BulkDock/SCRATCH/511027/C99308-P124

>  <alias>  (525) 
CCCCc1cc(-c2cc(Br)cc(C(=O)Nc3ccc4c(c3)CNC4)c2CC)c[nH]1

>  <HIPPO Compound ID>  (525) 
78932

>  <fragmenstein_runtime>  (525) 
7.572188

$$$$
Nn1ncc2c(C(=O)Nc3ccc4c(c3)CNCCO4)cc(Cl)cc21
     RDKit          3D

 25 28  0  0  0  0  0  0  0  0999 V2000
   -4.0682    5.1005  -18.4418 N   0  0  0  0  0  0  0  0  0  0  0  0
   -4.6839    5.2184  -17.2093 N   0  0  0  0  0  0  0  0  0  0  0  0
   -3.9937    5.6839  -16.1695 N   0  0  0  0  0  0  0  0  0  0  0  0
   -4.8782    5.6613  -15.1723 C   0  0  0  0  0  0  0  0  0  0  0  0
   -6.1504    5.2059  -15.5829 C   0  0  0  0  0  0  0  0  0  0  0  0
   -7.4053    5.0089  -14.9753 C   0  0  0  0  0  0  0  0  0  0  0  0
   -7.5833    5.4807  -13.5868 C   0  0  0  0  0  0  0  0  0  0  0  0
   -7.2789    6.5858  -13.3619 O   0  0  0  0  0  0  0  0  0  0  0  0
   -8.0650    4.3610  -12.6366 N   0  0  0  0  0  0  0  0  0  0  0  0
   -8.1785    4.3389  -11.2456 C   0  0  0  0  0  0  0  0  0  0  0  0
   -7.8731    5.4746  -10.5010 C   0  0  0  0  0  0  0  0  0  0  0  0
   -7.8570    5.4172   -9.1094 C   0  0  0  0  0  0  0  0  0  0  0  0
   -8.1811    4.2342   -8.4472 C   0  0  0  0  0  0  0  0  0  0  0  0
   -8.5465    3.0908   -9.1671 C   0  0  0  0  0  0  0  0  0  0  0  0
   -8.5298    3.1601  -10.5822 C   0  0  0  0  0  0  0  0  0  0  0  0
   -8.8991    1.7585   -8.5450 C   0  0  0  0  0  0  0  0  0  0  0  0
   -9.0114    1.6863   -7.0885 N   0  0  0  0  0  0  0  0  0  0  0  0
   -9.8612    2.7181   -6.5290 C   0  0  0  0  0  0  0  0  0  0  0  0
   -9.1771    4.0725   -6.3401 C   0  0  0  0  0  0  0  0  0  0  0  0
   -7.9776    4.2478   -7.0946 O   0  0  0  0  0  0  0  0  0  0  0  0
   -8.4693    4.5101  -15.7335 C   0  0  0  0  0  0  0  0  0  0  0  0
   -8.2912    4.2670  -17.0968 C   0  0  0  0  0  0  0  0  0  0  0  0
   -9.6304    3.7350  -18.0387 Cl  0  0  0  0  0  0  0  0  0  0  0  0
   -7.0652    4.4883  -17.7358 C   0  0  0  0  0  0  0  0  0  0  0  0
   -6.0010    4.9412  -16.9403 C   0  0  0  0  0  0  0  0  0  0  0  0
  1  2  1  0
  2  3  1  0
  3  4  2  0
  4  5  1  0
  5  6  2  0
  6  7  1  0
  7  8  2  0
  7  9  1  0
  9 10  1  0
 10 11  2  0
 11 12  1  0
 12 13  2  0
 13 14  1  0
 14 15  2  0
 14 16  1  0
 16 17  1  0
 17 18  1  0
 18 19  1  0
 19 20  1  0
  6 21  1  0
 21 22  2  0
 22 23  1  0
 22 24  1  0
 24 25  2  0
 25  2  1  0
 25  5  1  0
 15 10  1  0
 20 13  1  0
M  END
>  <smiles>  (526) 
C99324-P124

>  <fragmenstein_outcome>  (526) 
acceptable

>  <inchikey>  (526) 
BSPPXCOFPNKJKU-UHFFFAOYSA-N

>  <fragmenstein_mode>  (526) 
expansion

>  <HIPPO Pose ID>  (526) 
16912

>  <Energy>  (526) 
18.573384

>  <fragmenstein_error>  (526) 


>  <tags>  (526) 
{'openbind_xx01zvns2b_c1_fragmenstein', 'fragmenstein_placed'}

>  <ref_pdb>  (526) 
1

>  <scratch_subdir>  (526) 
/opt/xchem-fragalysis-2/maxwin/BulkDock/SCRATCH/511027/C99324-P124

>  <alias>  (526) 
Nn1ncc2c(C(=O)Nc3ccc4c(c3)CNCCO4)cc(Cl)cc21

>  <HIPPO Compound ID>  (526) 
99324

>  <fragmenstein_runtime>  (526) 
4.90748

$$$$
O=C(Nc1ccc2c(c1)CNCCO2)c1cc(Cl)cc2c1cnn2CNO
     RDKit          3D

 27 30  0  0  0  0  0  0  0  0999 V2000
   -7.2719    6.7558  -13.4930 O   0  0  0  0  0  0  0  0  0  0  0  0
   -7.5643    5.6415  -13.6880 C   0  0  0  0  0  0  0  0  0  0  0  0
   -8.0201    4.5379  -12.7050 N   0  0  0  0  0  0  0  0  0  0  0  0
   -8.1165    4.5477  -11.3136 C   0  0  0  0  0  0  0  0  0  0  0  0
   -7.6925    5.6671  -10.6070 C   0  0  0  0  0  0  0  0  0  0  0  0
   -7.7034    5.6642   -9.2169 C   0  0  0  0  0  0  0  0  0  0  0  0
   -8.1971    4.5707   -8.5065 C   0  0  0  0  0  0  0  0  0  0  0  0
   -8.6846    3.4491   -9.1945 C   0  0  0  0  0  0  0  0  0  0  0  0
   -8.6034    3.4424  -10.6125 C   0  0  0  0  0  0  0  0  0  0  0  0
   -9.3853    2.2890   -8.5303 C   0  0  0  0  0  0  0  0  0  0  0  0
   -8.8226    1.8389   -7.2786 N   0  0  0  0  0  0  0  0  0  0  0  0
   -9.0284    2.7173   -6.1371 C   0  0  0  0  0  0  0  0  0  0  0  0
   -9.1600    4.2079   -6.3884 C   0  0  0  0  0  0  0  0  0  0  0  0
   -8.0837    4.7285   -7.1518 O   0  0  0  0  0  0  0  0  0  0  0  0
   -7.3911    5.1432  -15.0702 C   0  0  0  0  0  0  0  0  0  0  0  0
   -8.4225    4.5180  -15.7789 C   0  0  0  0  0  0  0  0  0  0  0  0
   -8.2532    4.2458  -17.1376 C   0  0  0  0  0  0  0  0  0  0  0  0
   -9.5723    3.6082  -18.0406 Cl  0  0  0  0  0  0  0  0  0  0  0  0
   -7.0577    4.5291  -17.8127 C   0  0  0  0  0  0  0  0  0  0  0  0
   -6.0277    5.1245  -17.0712 C   0  0  0  0  0  0  0  0  0  0  0  0
   -6.1835    5.4564  -15.7285 C   0  0  0  0  0  0  0  0  0  0  0  0
   -4.9840    6.1199  -15.3814 C   0  0  0  0  0  0  0  0  0  0  0  0
   -4.1277    6.2061  -16.3989 N   0  0  0  0  0  0  0  0  0  0  0  0
   -4.7447    5.5148  -17.3897 N   0  0  0  0  0  0  0  0  0  0  0  0
   -4.0562    5.2772  -18.6584 C   0  0  0  0  0  0  0  0  0  0  0  0
   -2.7356    5.9363  -18.6692 N   0  0  0  0  0  0  0  0  0  0  0  0
   -1.7501    4.8911  -18.4186 O   0  0  0  0  0  0  0  0  0  0  0  0
  1  2  2  0
  2  3  1  0
  3  4  1  0
  4  5  2  0
  5  6  1  0
  6  7  2  0
  7  8  1  0
  8  9  2  0
  8 10  1  0
 10 11  1  0
 11 12  1  0
 12 13  1  0
 13 14  1  0
  2 15  1  0
 15 16  2  0
 16 17  1  0
 17 18  1  0
 17 19  2  0
 19 20  1  0
 20 21  2  0
 21 22  1  0
 22 23  2  0
 23 24  1  0
 24 25  1  0
 25 26  1  0
 26 27  1  0
  9  4  1  0
 21 15  1  0
 14  7  1  0
 24 20  1  0
M  END
>  <smiles>  (527) 
C99334-P124

>  <fragmenstein_outcome>  (527) 
acceptable

>  <inchikey>  (527) 
QVVILAJUPDPEEZ-UHFFFAOYSA-N

>  <fragmenstein_mode>  (527) 
expansion

>  <HIPPO Pose ID>  (527) 
16913

>  <Energy>  (527) 
137.186793

>  <fragmenstein_error>  (527) 


>  <tags>  (527) 
{'openbind_xx01zvns2b_c1_fragmenstein', 'fragmenstein_placed'}

>  <ref_pdb>  (527) 
1

>  <scratch_subdir>  (527) 
/opt/xchem-fragalysis-2/maxwin/BulkDock/SCRATCH/511027/C99334-P124

>  <alias>  (527) 
O=C(Nc1ccc2c(c1)CNCCO2)c1cc(Cl)cc2c1cnn2CNO

>  <HIPPO Compound ID>  (527) 
74475

>  <fragmenstein_runtime>  (527) 
4.216772

$$$$
O=C(Nc1cc2c(cc1Nc1ccc(O)c(CNc3nc4ccccc4[nH]3)c1)OCCNC2)c1cc(Cl)cc2n[nH]cc12
     RDKit          3D

 43 49  0  0  0  0  0  0  0  0999 V2000
   -6.8575    6.6195  -13.8834 O   0  0  0  0  0  0  0  0  0  0  0  0
   -7.3351    5.5635  -14.0316 C   0  0  0  0  0  0  0  0  0  0  0  0
   -7.9264    4.5772  -12.9980 N   0  0  0  0  0  0  0  0  0  0  0  0
   -7.9664    4.6407  -11.5929 C   0  0  0  0  0  0  0  0  0  0  0  0
   -8.4685    3.5153  -10.9120 C   0  0  0  0  0  0  0  0  0  0  0  0
   -8.4346    3.4148   -9.4991 C   0  0  0  0  0  0  0  0  0  0  0  0
   -7.7668    4.4174   -8.7974 C   0  0  0  0  0  0  0  0  0  0  0  0
   -7.2686    5.5316   -9.4633 C   0  0  0  0  0  0  0  0  0  0  0  0
   -7.4701    5.7201  -10.8364 C   0  0  0  0  0  0  0  0  0  0  0  0
   -7.3924    7.0661  -11.3200 N   0  0  0  0  0  0  0  0  0  0  0  0
   -8.4560    7.9886  -11.0676 C   0  0  0  0  0  0  0  0  0  0  0  0
   -9.0172    8.1270   -9.7926 C   0  0  0  0  0  0  0  0  0  0  0  0
  -10.1650    8.8833   -9.5881 C   0  0  0  0  0  0  0  0  0  0  0  0
  -10.7493    9.5519  -10.6524 C   0  0  0  0  0  0  0  0  0  0  0  0
  -11.9570   10.1626  -10.4631 O   0  0  0  0  0  0  0  0  0  0  0  0
  -10.1528    9.5516  -11.9167 C   0  0  0  0  0  0  0  0  0  0  0  0
  -10.8201   10.2787  -13.0597 C   0  0  0  0  0  0  0  0  0  0  0  0
   -9.8434   10.8196  -13.9977 N   0  0  0  0  0  0  0  0  0  0  0  0
  -10.2285   11.5503  -15.0626 C   0  0  0  0  0  0  0  0  0  0  0  0
   -9.5056   12.4446  -15.6923 N   0  0  0  0  0  0  0  0  0  0  0  0
  -10.2965   12.9088  -16.7121 C   0  0  0  0  0  0  0  0  0  0  0  0
  -10.0231   13.8768  -17.6892 C   0  0  0  0  0  0  0  0  0  0  0  0
  -11.0097   14.1721  -18.6387 C   0  0  0  0  0  0  0  0  0  0  0  0
  -12.2433   13.5168  -18.6160 C   0  0  0  0  0  0  0  0  0  0  0  0
  -12.5338   12.5475  -17.6491 C   0  0  0  0  0  0  0  0  0  0  0  0
  -11.5322   12.2724  -16.7142 C   0  0  0  0  0  0  0  0  0  0  0  0
  -11.4550   11.3995  -15.6566 N   0  0  0  0  0  0  0  0  0  0  0  0
   -9.0051    8.7494  -12.1120 C   0  0  0  0  0  0  0  0  0  0  0  0
   -7.5647    4.4245   -7.4408 O   0  0  0  0  0  0  0  0  0  0  0  0
   -8.8097    4.3902   -6.7475 C   0  0  0  0  0  0  0  0  0  0  0  0
   -9.2817    2.9626   -6.4946 C   0  0  0  0  0  0  0  0  0  0  0  0
   -8.8768    1.9575   -7.4654 N   0  0  0  0  0  0  0  0  0  0  0  0
   -9.1900    2.2795   -8.8475 C   0  0  0  0  0  0  0  0  0  0  0  0
   -7.3637    5.0329  -15.4088 C   0  0  0  0  0  0  0  0  0  0  0  0
   -8.5186    4.5424  -16.0462 C   0  0  0  0  0  0  0  0  0  0  0  0
   -8.5558    4.2341  -17.4431 C   0  0  0  0  0  0  0  0  0  0  0  0
  -10.0755    3.7999  -18.1276 Cl  0  0  0  0  0  0  0  0  0  0  0  0
   -7.4580    4.3457  -18.3189 C   0  0  0  0  0  0  0  0  0  0  0  0
   -6.2953    4.8208  -17.6999 C   0  0  0  0  0  0  0  0  0  0  0  0
   -5.0829    5.0748  -18.2235 N   0  0  0  0  0  0  0  0  0  0  0  0
   -4.3469    5.5171  -17.1922 N   0  0  0  0  0  0  0  0  0  0  0  0
   -5.0172    5.5809  -16.0091 C   0  0  0  0  0  0  0  0  0  0  0  0
   -6.2833    5.1429  -16.2929 C   0  0  0  0  0  0  0  0  0  0  0  0
  1  2  2  0
  2  3  1  0
  3  4  1  0
  4  5  2  0
  5  6  1  0
  6  7  2  0
  7  8  1  0
  8  9  2  0
  9 10  1  0
 10 11  1  0
 11 12  2  0
 12 13  1  0
 13 14  2  0
 14 15  1  0
 14 16  1  0
 16 17  1  0
 17 18  1  0
 18 19  1  0
 19 20  2  0
 20 21  1  0
 21 22  2  0
 22 23  1  0
 23 24  2  0
 24 25  1  0
 25 26  2  0
 26 27  1  0
 16 28  2  0
  7 29  1  0
 29 30  1  0
 30 31  1  0
 31 32  1  0
 32 33  1  0
  2 34  1  0
 34 35  2  0
 35 36  1  0
 36 37  1  0
 36 38  2  0
 38 39  1  0
 39 40  2  0
 40 41  1  0
 41 42  1  0
 42 43  2  0
  9  4  1  0
 28 11  1  0
 43 34  1  0
 33  6  1  0
 43 39  1  0
 27 19  1  0
 26 21  1  0
M  END
>  <smiles>  (528) 
C80204-P124

>  <fragmenstein_outcome>  (528) 
acceptable

>  <inchikey>  (528) 
FNMOGCSAOZOXJA-UHFFFAOYSA-N

>  <fragmenstein_mode>  (528) 
expansion

>  <HIPPO Pose ID>  (528) 
16915

>  <Energy>  (528) 
70.975538

>  <fragmenstein_error>  (528) 


>  <tags>  (528) 
{'openbind_xx01zvns2b_c1_fragmenstein', 'fragmenstein_placed'}

>  <ref_pdb>  (528) 
1

>  <scratch_subdir>  (528) 
/opt/xchem-fragalysis-2/maxwin/BulkDock/SCRATCH/511027/C80204-P124

>  <alias>  (528) 
O=C(Nc1cc2c(cc1Nc1ccc(O)c(CNc3nc4ccccc4[nH]3)c1)OCCNC2)c1cc(Cl)cc2n[nH]cc12

>  <HIPPO Compound ID>  (528) 
71849

>  <fragmenstein_runtime>  (528) 
17.293975

$$$$
O=C(Nc1ccc2c(c1)CNCCO2)c1cc(Cl)cc2[nH]ncc12
     RDKit          3D

 24 27  0  0  0  0  0  0  0  0999 V2000
   -7.0742    6.6771  -14.6612 O   0  0  0  0  0  0  0  0  0  0  0  0
   -7.6262    5.6519  -14.7433 C   0  0  0  0  0  0  0  0  0  0  0  0
   -8.3157    4.7958  -13.6572 N   0  0  0  0  0  0  0  0  0  0  0  0
   -8.3848    4.9689  -12.2853 C   0  0  0  0  0  0  0  0  0  0  0  0
   -8.1463    6.2211  -11.7128 C   0  0  0  0  0  0  0  0  0  0  0  0
   -8.1440    6.3712  -10.3294 C   0  0  0  0  0  0  0  0  0  0  0  0
   -8.3143    5.2468   -9.5364 C   0  0  0  0  0  0  0  0  0  0  0  0
   -8.6095    3.9941  -10.0982 C   0  0  0  0  0  0  0  0  0  0  0  0
   -8.6697    3.8650  -11.4868 C   0  0  0  0  0  0  0  0  0  0  0  0
   -8.5187    2.7742   -9.2278 C   0  0  0  0  0  0  0  0  0  0  0  0
   -7.1011    2.4260   -9.0516 N   0  0  0  0  0  0  0  0  0  0  0  0
   -6.2464    3.6135   -8.8222 C   0  0  0  0  0  0  0  0  0  0  0  0
   -6.8193    4.6657   -7.8358 C   0  0  0  0  0  0  0  0  0  0  0  0
   -8.0322    5.3619   -8.2030 O   0  0  0  0  0  0  0  0  0  0  0  0
   -7.8189    5.0622  -16.0860 C   0  0  0  0  0  0  0  0  0  0  0  0
   -9.0974    4.6226  -16.4499 C   0  0  0  0  0  0  0  0  0  0  0  0
   -9.3724    4.2924  -17.7685 C   0  0  0  0  0  0  0  0  0  0  0  0
  -11.0042    4.0770  -18.2202 Cl  0  0  0  0  0  0  0  0  0  0  0  0
   -8.3823    4.2757  -18.7447 C   0  0  0  0  0  0  0  0  0  0  0  0
   -7.1215    4.7486  -18.3692 C   0  0  0  0  0  0  0  0  0  0  0  0
   -5.9911    4.9924  -19.1077 N   0  0  0  0  0  0  0  0  0  0  0  0
   -4.9796    5.5270  -18.3892 N   0  0  0  0  0  0  0  0  0  0  0  0
   -5.4933    5.6276  -17.1587 C   0  0  0  0  0  0  0  0  0  0  0  0
   -6.8219    5.1577  -17.0738 C   0  0  0  0  0  0  0  0  0  0  0  0
  1  2  2  0
  2  3  1  0
  3  4  1  0
  4  5  2  0
  5  6  1  0
  6  7  2  0
  7  8  1  0
  8  9  2  0
  8 10  1  0
 10 11  1  0
 11 12  1  0
 12 13  1  0
 13 14  1  0
  2 15  1  0
 15 16  2  0
 16 17  1  0
 17 18  1  0
 17 19  2  0
 19 20  1  0
 20 21  1  0
 21 22  1  0
 22 23  2  0
 23 24  1  0
  9  4  1  0
 24 15  1  0
 14  7  1  0
 24 20  2  0
M  END
>  <smiles>  (529) 
C117-P125

>  <fragmenstein_outcome>  (529) 
acceptable

>  <inchikey>  (529) 
NDKXPXSHGRTVLE-UHFFFAOYSA-N

>  <fragmenstein_mode>  (529) 
expansion

>  <HIPPO Pose ID>  (529) 
16938

>  <Energy>  (529) 
83.321818

>  <fragmenstein_error>  (529) 


>  <tags>  (529) 
{'openbind_xx01zvns2b_c1_fragmenstein', 'fragmenstein_placed'}

>  <ref_pdb>  (529) 
1

>  <scratch_subdir>  (529) 
/opt/xchem-fragalysis-2/maxwin/BulkDock/SCRATCH/511027/C117-P125

>  <alias>  (529) 
O=C(Nc1ccc2c(c1)CNCCO2)c1cc(Cl)cc2[nH]ncc12

>  <HIPPO Compound ID>  (529) 
117

>  <fragmenstein_runtime>  (529) 
3.393208

$$$$
CNC(=O)[C@](O)(Nc1ccc2c(c1)CNCCO2)c1cc(Cl)cc2[nH]ncc12
     RDKit          3D

 28 31  0  0  0  0  0  0  0  0999 V2000
   -3.7673    5.6249  -12.5839 C   0  0  0  0  0  0  0  0  0  0  0  0
   -5.0620    5.6193  -13.1938 N   0  0  0  0  0  0  0  0  0  0  0  0
   -5.9676    4.4276  -13.6379 C   0  0  0  0  0  0  0  0  0  0  0  0
   -5.7570    3.2756  -13.6419 O   0  0  0  0  0  0  0  0  0  0  0  0
   -7.3570    5.0979  -14.1206 C   0  0  2  0  0  0  0  0  0  0  0  0
   -7.3985    6.5148  -14.0426 O   0  0  0  0  0  0  0  0  0  0  0  0
   -8.4540    4.6169  -13.2544 N   0  0  0  0  0  0  0  0  0  0  0  0
   -8.3048    4.6773  -11.8465 C   0  0  0  0  0  0  0  0  0  0  0  0
   -7.7830    5.7744  -11.1590 C   0  0  0  0  0  0  0  0  0  0  0  0
   -7.7098    5.7893   -9.7601 C   0  0  0  0  0  0  0  0  0  0  0  0
   -8.2013    4.7316   -8.9946 C   0  0  0  0  0  0  0  0  0  0  0  0
   -8.7800    3.6380   -9.6451 C   0  0  0  0  0  0  0  0  0  0  0  0
   -8.8275    3.6371  -11.0632 C   0  0  0  0  0  0  0  0  0  0  0  0
   -9.3826    2.4574   -8.9287 C   0  0  0  0  0  0  0  0  0  0  0  0
   -8.5671    2.0114   -7.8275 N   0  0  0  0  0  0  0  0  0  0  0  0
   -8.7893    2.7560   -6.5990 C   0  0  0  0  0  0  0  0  0  0  0  0
   -8.9474    4.2700   -6.7808 C   0  0  0  0  0  0  0  0  0  0  0  0
   -7.9897    4.8778   -7.6471 O   0  0  0  0  0  0  0  0  0  0  0  0
   -7.6049    4.8253  -15.6098 C   0  0  0  0  0  0  0  0  0  0  0  0
   -8.9042    4.5198  -16.1011 C   0  0  0  0  0  0  0  0  0  0  0  0
   -9.1676    4.3582  -17.4636 C   0  0  0  0  0  0  0  0  0  0  0  0
  -10.7748    4.1557  -18.0316 Cl  0  0  0  0  0  0  0  0  0  0  0  0
   -8.1617    4.4512  -18.4119 C   0  0  0  0  0  0  0  0  0  0  0  0
   -6.9025    4.8167  -17.9524 C   0  0  0  0  0  0  0  0  0  0  0  0
   -5.7526    5.0787  -18.6497 N   0  0  0  0  0  0  0  0  0  0  0  0
   -4.7316    5.4857  -17.8728 N   0  0  0  0  0  0  0  0  0  0  0  0
   -5.2457    5.4274  -16.6401 C   0  0  0  0  0  0  0  0  0  0  0  0
   -6.6038    5.0162  -16.6080 C   0  0  0  0  0  0  0  0  0  0  0  0
  1  2  1  0
  2  3  1  0
  3  4  2  0
  3  5  1  0
  5  6  1  6
  5  7  1  0
  7  8  1  0
  8  9  2  0
  9 10  1  0
 10 11  2  0
 11 12  1  0
 12 13  2  0
 12 14  1  0
 14 15  1  0
 15 16  1  0
 16 17  1  0
 17 18  1  0
  5 19  1  0
 19 20  2  0
 20 21  1  0
 21 22  1  0
 21 23  2  0
 23 24  1  0
 24 25  1  0
 25 26  1  0
 26 27  2  0
 27 28  1  0
 13  8  1  0
 28 19  1  0
 18 11  1  0
 28 24  2  0
M  END
>  <smiles>  (530) 
C99409-P125

>  <fragmenstein_outcome>  (530) 
acceptable

>  <inchikey>  (530) 
JASPDSLTCZRELL-UHFFFAOYSA-N

>  <fragmenstein_mode>  (530) 
expansion

>  <HIPPO Pose ID>  (530) 
16940

>  <Energy>  (530) 
114.492818

>  <fragmenstein_error>  (530) 


>  <tags>  (530) 
{'openbind_xx01zvns2b_c1_fragmenstein', 'fragmenstein_placed'}

>  <ref_pdb>  (530) 
1

>  <scratch_subdir>  (530) 
/opt/xchem-fragalysis-2/maxwin/BulkDock/SCRATCH/511027/C99409-P125

>  <alias>  (530) 
CNC(=O)[C@](O)(Nc1ccc2c(c1)CNCCO2)c1cc(Cl)cc2[nH]ncc12

>  <HIPPO Compound ID>  (530) 
70875

>  <fragmenstein_runtime>  (530) 
4.834107

$$$$
Cn1c2cc(Cl)cc(C(=O)Nc3ccc4c(c3)CNCCO4)c2c[n+]1[O-]
     RDKit          3D

 26 29  0  0  0  0  0  0  0  0999 V2000
   -5.3959    5.4125  -19.5655 C   0  0  0  0  0  0  0  0  0  0  0  0
   -5.6508    5.2525  -18.1625 N   0  0  0  0  0  0  0  0  0  0  0  0
   -6.8581    4.9229  -17.5925 C   0  0  0  0  0  0  0  0  0  0  0  0
   -8.0784    4.5431  -18.1494 C   0  0  0  0  0  0  0  0  0  0  0  0
   -9.1605    4.3990  -17.2875 C   0  0  0  0  0  0  0  0  0  0  0  0
  -10.7038    4.1435  -18.0010 Cl  0  0  0  0  0  0  0  0  0  0  0  0
   -9.0325    4.5892  -15.9122 C   0  0  0  0  0  0  0  0  0  0  0  0
   -7.8004    4.9795  -15.3649 C   0  0  0  0  0  0  0  0  0  0  0  0
   -7.7051    5.4757  -13.9684 C   0  0  0  0  0  0  0  0  0  0  0  0
   -7.1942    6.5171  -13.8230 O   0  0  0  0  0  0  0  0  0  0  0  0
   -8.2903    4.4916  -12.9274 N   0  0  0  0  0  0  0  0  0  0  0  0
   -8.2840    4.5382  -11.5322 C   0  0  0  0  0  0  0  0  0  0  0  0
   -7.7489    5.6414  -10.8743 C   0  0  0  0  0  0  0  0  0  0  0  0
   -7.6871    5.6674   -9.4818 C   0  0  0  0  0  0  0  0  0  0  0  0
   -8.1907    4.6103   -8.7204 C   0  0  0  0  0  0  0  0  0  0  0  0
   -8.7660    3.5033   -9.3601 C   0  0  0  0  0  0  0  0  0  0  0  0
   -8.7931    3.4796  -10.7790 C   0  0  0  0  0  0  0  0  0  0  0  0
   -9.4164    2.3564   -8.6264 C   0  0  0  0  0  0  0  0  0  0  0  0
   -8.7168    1.8965   -7.4456 N   0  0  0  0  0  0  0  0  0  0  0  0
   -8.8719    2.7376   -6.2713 C   0  0  0  0  0  0  0  0  0  0  0  0
   -9.0096    4.2336   -6.5316 C   0  0  0  0  0  0  0  0  0  0  0  0
   -7.9864    4.7572   -7.3727 O   0  0  0  0  0  0  0  0  0  0  0  0
   -6.6677    5.1330  -16.2054 C   0  0  0  0  0  0  0  0  0  0  0  0
   -5.2819    5.5308  -15.9540 C   0  0  0  0  0  0  0  0  0  0  0  0
   -4.6737    5.5871  -17.1480 N   0  0  0  0  0  0  0  0  0  0  0  0
   -3.4991    5.8989  -17.4631 O   0  0  0  0  0  0  0  0  0  0  0  0
  1  2  1  0
  2  3  1  0
  3  4  2  0
  4  5  1  0
  5  6  1  0
  5  7  2  0
  7  8  1  0
  8  9  1  0
  9 10  2  0
  9 11  1  0
 11 12  1  0
 12 13  2  0
 13 14  1  0
 14 15  2  0
 15 16  1  0
 16 17  2  0
 16 18  1  0
 18 19  1  0
 19 20  1  0
 20 21  1  0
 21 22  1  0
  8 23  2  0
 23 24  1  0
 24 25  2  0
 25 26  1  0
 25  2  1  0
 23  3  1  0
 17 12  1  0
 22 15  1  0
M  CHG  2  25   1  26  -1
M  END
>  <smiles>  (531) 
C99414-P125

>  <fragmenstein_outcome>  (531) 
acceptable

>  <inchikey>  (531) 
OCAKVAWAMPDJNS-UHFFFAOYSA-N

>  <fragmenstein_mode>  (531) 
expansion

>  <HIPPO Pose ID>  (531) 
16944

>  <Energy>  (531) 
60.946146

>  <fragmenstein_error>  (531) 


>  <tags>  (531) 
{'openbind_xx01zvns2b_c1_fragmenstein', 'fragmenstein_placed'}

>  <ref_pdb>  (531) 
1

>  <scratch_subdir>  (531) 
/opt/xchem-fragalysis-2/maxwin/BulkDock/SCRATCH/511027/C99414-P125

>  <alias>  (531) 
Cn1c2cc(Cl)cc(C(=O)Nc3ccc4c(c3)CNCCO4)c2c[n+]1[O-]

>  <HIPPO Compound ID>  (531) 
99414

>  <fragmenstein_runtime>  (531) 
3.783128

$$$$
Nc1[nH]nc2cc(Cl)cc(C(=O)Nc3ccc4c(c3)CNCCO4)c12
     RDKit          3D

 25 28  0  0  0  0  0  0  0  0999 V2000
   -4.4342    5.4490  -16.2554 N   0  0  0  0  0  0  0  0  0  0  0  0
   -5.3833    5.0979  -17.1423 C   0  0  0  0  0  0  0  0  0  0  0  0
   -5.0745    4.9488  -18.4660 N   0  0  0  0  0  0  0  0  0  0  0  0
   -6.0994    4.6030  -19.2398 N   0  0  0  0  0  0  0  0  0  0  0  0
   -7.1422    4.5306  -18.4028 C   0  0  0  0  0  0  0  0  0  0  0  0
   -8.4679    4.2375  -18.7168 C   0  0  0  0  0  0  0  0  0  0  0  0
   -9.3294    4.3010  -17.6197 C   0  0  0  0  0  0  0  0  0  0  0  0
  -11.0010    4.1828  -17.9896 Cl  0  0  0  0  0  0  0  0  0  0  0  0
   -8.9164    4.5478  -16.2746 C   0  0  0  0  0  0  0  0  0  0  0  0
   -7.5733    4.8137  -15.9149 C   0  0  0  0  0  0  0  0  0  0  0  0
   -7.1854    5.2236  -14.5380 C   0  0  0  0  0  0  0  0  0  0  0  0
   -6.4257    6.1103  -14.4378 O   0  0  0  0  0  0  0  0  0  0  0  0
   -7.9081    4.3842  -13.4407 N   0  0  0  0  0  0  0  0  0  0  0  0
   -7.9154    4.5234  -12.0466 C   0  0  0  0  0  0  0  0  0  0  0  0
   -7.2598    5.5836  -11.4325 C   0  0  0  0  0  0  0  0  0  0  0  0
   -7.2195    5.6756  -10.0387 C   0  0  0  0  0  0  0  0  0  0  0  0
   -7.8433    4.7206   -9.2309 C   0  0  0  0  0  0  0  0  0  0  0  0
   -8.5351    3.6547   -9.8208 C   0  0  0  0  0  0  0  0  0  0  0  0
   -8.5680    3.5807  -11.2411 C   0  0  0  0  0  0  0  0  0  0  0  0
   -9.2820    2.5967   -9.0399 C   0  0  0  0  0  0  0  0  0  0  0  0
   -8.6652    2.1678   -7.7982 N   0  0  0  0  0  0  0  0  0  0  0  0
   -8.8194    3.1050   -6.6944 C   0  0  0  0  0  0  0  0  0  0  0  0
   -8.7353    4.5867   -7.0570 C   0  0  0  0  0  0  0  0  0  0  0  0
   -7.6232    4.9022   -7.8893 O   0  0  0  0  0  0  0  0  0  0  0  0
   -6.7250    4.8190  -17.0433 C   0  0  0  0  0  0  0  0  0  0  0  0
  1  2  1  0
  2  3  1  0
  3  4  1  0
  4  5  2  0
  5  6  1  0
  6  7  2  0
  7  8  1  0
  7  9  1  0
  9 10  2  0
 10 11  1  0
 11 12  2  0
 11 13  1  0
 13 14  1  0
 14 15  2  0
 15 16  1  0
 16 17  2  0
 17 18  1  0
 18 19  2  0
 18 20  1  0
 20 21  1  0
 21 22  1  0
 22 23  1  0
 23 24  1  0
 10 25  1  0
 25  2  2  0
 25  5  1  0
 19 14  1  0
 24 17  1  0
M  END
>  <smiles>  (532) 
C99379-P125

>  <fragmenstein_outcome>  (532) 
acceptable

>  <inchikey>  (532) 
HXKTVFUGZOPENA-UHFFFAOYSA-N

>  <fragmenstein_mode>  (532) 
expansion

>  <HIPPO Pose ID>  (532) 
16947

>  <Energy>  (532) 
83.404447

>  <fragmenstein_error>  (532) 


>  <tags>  (532) 
{'openbind_xx01zvns2b_c1_fragmenstein', 'fragmenstein_placed'}

>  <ref_pdb>  (532) 
1

>  <scratch_subdir>  (532) 
/opt/xchem-fragalysis-2/maxwin/BulkDock/SCRATCH/511027/C99379-P125

>  <alias>  (532) 
Nc1[nH]nc2cc(Cl)cc(C(=O)Nc3ccc4c(c3)CNCCO4)c12

>  <HIPPO Compound ID>  (532) 
94310

>  <fragmenstein_runtime>  (532) 
3.531481

$$$$
O=C(NC1CCOCC1)[C@](O)(Nc1ccc2c(c1)CNCCO2)c1cc(Cl)cc2[nH]ncc12
     RDKit          3D

 33 37  0  0  0  0  0  0  0  0999 V2000
   -5.0876    5.3239  -13.5741 O   0  0  0  0  0  0  0  0  0  0  0  0
   -5.9686    4.5700  -13.7567 C   0  0  0  0  0  0  0  0  0  0  0  0
   -6.0736    3.0435  -13.4476 N   0  0  0  0  0  0  0  0  0  0  0  0
   -5.1521    2.1550  -12.7635 C   0  0  0  0  0  0  0  0  0  0  0  0
   -5.4563    2.1246  -11.2656 C   0  0  0  0  0  0  0  0  0  0  0  0
   -4.4910    1.2006  -10.5409 C   0  0  0  0  0  0  0  0  0  0  0  0
   -3.1300    1.5581  -10.7933 O   0  0  0  0  0  0  0  0  0  0  0  0
   -2.8089    1.5273  -12.1850 C   0  0  0  0  0  0  0  0  0  0  0  0
   -3.6795    2.4908  -12.9822 C   0  0  0  0  0  0  0  0  0  0  0  0
   -7.3901    5.0898  -14.3175 C   0  0  2  0  0  0  0  0  0  0  0  0
   -7.4258    6.5143  -14.3134 O   0  0  0  0  0  0  0  0  0  0  0  0
   -8.4806    4.5868  -13.4525 N   0  0  0  0  0  0  0  0  0  0  0  0
   -8.4191    4.7136  -12.0586 C   0  0  0  0  0  0  0  0  0  0  0  0
   -8.0812    5.8992  -11.4058 C   0  0  0  0  0  0  0  0  0  0  0  0
   -8.1295    5.9944  -10.0101 C   0  0  0  0  0  0  0  0  0  0  0  0
   -8.5102    4.8993   -9.2370 C   0  0  0  0  0  0  0  0  0  0  0  0
   -8.8571    3.6957   -9.8532 C   0  0  0  0  0  0  0  0  0  0  0  0
   -8.8014    3.6247  -11.2605 C   0  0  0  0  0  0  0  0  0  0  0  0
   -9.4250    2.5241   -9.0983 C   0  0  0  0  0  0  0  0  0  0  0  0
   -8.5582    2.0345   -8.0467 N   0  0  0  0  0  0  0  0  0  0  0  0
   -8.6154    2.8898   -6.8645 C   0  0  0  0  0  0  0  0  0  0  0  0
   -7.8775    4.2085   -7.1059 C   0  0  0  0  0  0  0  0  0  0  0  0
   -8.6441    5.1286   -7.8925 O   0  0  0  0  0  0  0  0  0  0  0  0
   -7.6372    4.7540  -15.7963 C   0  0  0  0  0  0  0  0  0  0  0  0
   -8.9609    4.4757  -16.2483 C   0  0  0  0  0  0  0  0  0  0  0  0
   -9.2781    4.2988  -17.5932 C   0  0  0  0  0  0  0  0  0  0  0  0
  -10.9073    4.1393  -18.0943 Cl  0  0  0  0  0  0  0  0  0  0  0  0
   -8.3048    4.3559  -18.5721 C   0  0  0  0  0  0  0  0  0  0  0  0
   -7.0265    4.7153  -18.1619 C   0  0  0  0  0  0  0  0  0  0  0  0
   -5.9178    4.9968  -18.9152 N   0  0  0  0  0  0  0  0  0  0  0  0
   -4.8562    5.3742  -18.1881 N   0  0  0  0  0  0  0  0  0  0  0  0
   -5.3077    5.3162  -16.9287 C   0  0  0  0  0  0  0  0  0  0  0  0
   -6.6679    4.9166  -16.8304 C   0  0  0  0  0  0  0  0  0  0  0  0
  1  2  2  0
  2  3  1  0
  3  4  1  0
  4  5  1  0
  5  6  1  0
  6  7  1  0
  7  8  1  0
  8  9  1  0
  2 10  1  0
 10 11  1  6
 10 12  1  0
 12 13  1  0
 13 14  2  0
 14 15  1  0
 15 16  2  0
 16 17  1  0
 17 18  2  0
 17 19  1  0
 19 20  1  0
 20 21  1  0
 21 22  1  0
 22 23  1  0
 10 24  1  0
 24 25  2  0
 25 26  1  0
 26 27  1  0
 26 28  2  0
 28 29  1  0
 29 30  1  0
 30 31  1  0
 31 32  2  0
 32 33  1  0
  9  4  1  0
 18 13  1  0
 33 24  1  0
 23 16  1  0
 33 29  2  0
M  END
>  <smiles>  (533) 
C99417-P125

>  <fragmenstein_outcome>  (533) 
acceptable

>  <inchikey>  (533) 
GANXKBQDLJWWNY-UHFFFAOYSA-N

>  <fragmenstein_mode>  (533) 
expansion

>  <HIPPO Pose ID>  (533) 
16948

>  <Energy>  (533) 
121.021195

>  <fragmenstein_error>  (533) 


>  <tags>  (533) 
{'openbind_xx01zvns2b_c1_fragmenstein', 'fragmenstein_placed'}

>  <ref_pdb>  (533) 
1

>  <scratch_subdir>  (533) 
/opt/xchem-fragalysis-2/maxwin/BulkDock/SCRATCH/511027/C99417-P125

>  <alias>  (533) 
O=C(NC1CCOCC1)[C@](O)(Nc1ccc2c(c1)CNCCO2)c1cc(Cl)cc2[nH]ncc12

>  <HIPPO Compound ID>  (533) 
99417

>  <fragmenstein_runtime>  (533) 
14.776653

$$$$
Cn1cc2c(C(=O)Nc3ccc4c(c3)CNCCO4)cc(Cl)cc2n1
     RDKit          3D

 25 28  0  0  0  0  0  0  0  0999 V2000
   -3.1920    5.4599  -17.8180 C   0  0  0  0  0  0  0  0  0  0  0  0
   -4.6019    5.2734  -17.5743 N   0  0  0  0  0  0  0  0  0  0  0  0
   -5.2611    5.4897  -16.4012 C   0  0  0  0  0  0  0  0  0  0  0  0
   -6.5612    5.1523  -16.6678 C   0  0  0  0  0  0  0  0  0  0  0  0
   -7.6453    5.1967  -15.7961 C   0  0  0  0  0  0  0  0  0  0  0  0
   -7.6189    5.8090  -14.4703 C   0  0  0  0  0  0  0  0  0  0  0  0
   -7.2101    6.8943  -14.3573 O   0  0  0  0  0  0  0  0  0  0  0  0
   -8.2598    4.8717  -13.4329 N   0  0  0  0  0  0  0  0  0  0  0  0
   -8.4399    5.0280  -12.0735 C   0  0  0  0  0  0  0  0  0  0  0  0
   -8.2445    6.2711  -11.4645 C   0  0  0  0  0  0  0  0  0  0  0  0
   -8.2726    6.3832  -10.0799 C   0  0  0  0  0  0  0  0  0  0  0  0
   -8.4245    5.2297   -9.3273 C   0  0  0  0  0  0  0  0  0  0  0  0
   -8.6884    3.9879   -9.9301 C   0  0  0  0  0  0  0  0  0  0  0  0
   -8.7281    3.8969  -11.3201 C   0  0  0  0  0  0  0  0  0  0  0  0
   -8.5399    2.7425   -9.1074 C   0  0  0  0  0  0  0  0  0  0  0  0
   -7.1055    2.4416   -8.9879 N   0  0  0  0  0  0  0  0  0  0  0  0
   -6.2878    3.6512   -8.7284 C   0  0  0  0  0  0  0  0  0  0  0  0
   -6.8734    4.6459   -7.6879 C   0  0  0  0  0  0  0  0  0  0  0  0
   -8.1280    5.2985   -7.9933 O   0  0  0  0  0  0  0  0  0  0  0  0
   -8.8476    4.7656  -16.3830 C   0  0  0  0  0  0  0  0  0  0  0  0
   -8.9298    4.3812  -17.7466 C   0  0  0  0  0  0  0  0  0  0  0  0
  -10.5023    4.0708  -18.3693 Cl  0  0  0  0  0  0  0  0  0  0  0  0
   -7.8289    4.3336  -18.6238 C   0  0  0  0  0  0  0  0  0  0  0  0
   -6.6147    4.7385  -18.0450 C   0  0  0  0  0  0  0  0  0  0  0  0
   -5.3852    4.8394  -18.5791 N   0  0  0  0  0  0  0  0  0  0  0  0
  1  2  1  0
  2  3  1  0
  3  4  2  0
  4  5  1  0
  5  6  1  0
  6  7  2  0
  6  8  1  0
  8  9  1  0
  9 10  2  0
 10 11  1  0
 11 12  2  0
 12 13  1  0
 13 14  2  0
 13 15  1  0
 15 16  1  0
 16 17  1  0
 17 18  1  0
 18 19  1  0
  5 20  2  0
 20 21  1  0
 21 22  1  0
 21 23  2  0
 23 24  1  0
 24 25  2  0
 25  2  1  0
 24  4  1  0
 14  9  1  0
 19 12  1  0
M  END
>  <smiles>  (534) 
C99315-P125

>  <fragmenstein_outcome>  (534) 
acceptable

>  <inchikey>  (534) 
UIGRZOAKEABNJS-UHFFFAOYSA-N

>  <fragmenstein_mode>  (534) 
expansion

>  <HIPPO Pose ID>  (534) 
16949

>  <Energy>  (534) 
76.386757

>  <fragmenstein_error>  (534) 


>  <tags>  (534) 
{'openbind_xx01zvns2b_c1_fragmenstein', 'fragmenstein_placed'}

>  <ref_pdb>  (534) 
1

>  <scratch_subdir>  (534) 
/opt/xchem-fragalysis-2/maxwin/BulkDock/SCRATCH/511027/C99315-P125

>  <alias>  (534) 
Cn1cc2c(C(=O)Nc3ccc4c(c3)CNCCO4)cc(Cl)cc2n1

>  <HIPPO Compound ID>  (534) 
76667

>  <fragmenstein_runtime>  (534) 
3.186164

$$$$
CCCNC(=O)[C@](O)(Nc1ccc2c(c1)CNCCO2)c1cc(Cl)cc2[nH]ncc12
     RDKit          3D

 30 33  0  0  0  0  0  0  0  0999 V2000
   -5.8160    1.4151  -10.7954 C   0  0  0  0  0  0  0  0  0  0  0  0
   -4.7413    2.2984  -11.4062 C   0  0  0  0  0  0  0  0  0  0  0  0
   -4.8018    2.3070  -12.9295 C   0  0  0  0  0  0  0  0  0  0  0  0
   -5.8415    3.1666  -13.4389 N   0  0  0  0  0  0  0  0  0  0  0  0
   -5.8966    4.7178  -13.5723 C   0  0  0  0  0  0  0  0  0  0  0  0
   -5.0751    5.5286  -13.3604 O   0  0  0  0  0  0  0  0  0  0  0  0
   -7.3482    5.1640  -14.1066 C   0  0  2  0  0  0  0  0  0  0  0  0
   -7.4575    6.5869  -14.0945 O   0  0  0  0  0  0  0  0  0  0  0  0
   -8.4129    4.6011  -13.2502 N   0  0  0  0  0  0  0  0  0  0  0  0
   -8.3243    4.6930  -11.8511 C   0  0  0  0  0  0  0  0  0  0  0  0
   -7.8213    5.8003  -11.1712 C   0  0  0  0  0  0  0  0  0  0  0  0
   -7.7493    5.8250   -9.7723 C   0  0  0  0  0  0  0  0  0  0  0  0
   -8.2264    4.7645   -9.0006 C   0  0  0  0  0  0  0  0  0  0  0  0
   -8.7969    3.6631   -9.6450 C   0  0  0  0  0  0  0  0  0  0  0  0
   -8.8441    3.6563  -11.0629 C   0  0  0  0  0  0  0  0  0  0  0  0
   -9.3833    2.4760   -8.9266 C   0  0  0  0  0  0  0  0  0  0  0  0
   -8.5604    2.0368   -7.8288 N   0  0  0  0  0  0  0  0  0  0  0  0
   -8.7697    2.7832   -6.6005 C   0  0  0  0  0  0  0  0  0  0  0  0
   -8.9513    4.2945   -6.7812 C   0  0  0  0  0  0  0  0  0  0  0  0
   -8.0122    4.9176   -7.6546 O   0  0  0  0  0  0  0  0  0  0  0  0
   -7.5504    4.8282  -15.5942 C   0  0  0  0  0  0  0  0  0  0  0  0
   -8.8576    4.5651  -16.0979 C   0  0  0  0  0  0  0  0  0  0  0  0
   -9.1148    4.3758  -17.4570 C   0  0  0  0  0  0  0  0  0  0  0  0
  -10.7224    4.1873  -18.0310 Cl  0  0  0  0  0  0  0  0  0  0  0  0
   -8.0968    4.4218  -18.3952 C   0  0  0  0  0  0  0  0  0  0  0  0
   -6.8250    4.7358  -17.9282 C   0  0  0  0  0  0  0  0  0  0  0  0
   -5.6614    4.9345  -18.6241 N   0  0  0  0  0  0  0  0  0  0  0  0
   -4.6151    5.2638  -17.8468 N   0  0  0  0  0  0  0  0  0  0  0  0
   -5.1395    5.2690  -16.6164 C   0  0  0  0  0  0  0  0  0  0  0  0
   -6.5245    4.9406  -16.5834 C   0  0  0  0  0  0  0  0  0  0  0  0
  1  2  1  0
  2  3  1  0
  3  4  1  0
  4  5  1  0
  5  6  2  0
  5  7  1  0
  7  8  1  6
  7  9  1  0
  9 10  1  0
 10 11  2  0
 11 12  1  0
 12 13  2  0
 13 14  1  0
 14 15  2  0
 14 16  1  0
 16 17  1  0
 17 18  1  0
 18 19  1  0
 19 20  1  0
  7 21  1  0
 21 22  2  0
 22 23  1  0
 23 24  1  0
 23 25  2  0
 25 26  1  0
 26 27  1  0
 27 28  1  0
 28 29  2  0
 29 30  1  0
 15 10  1  0
 30 21  1  0
 20 13  1  0
 30 26  2  0
M  END
>  <smiles>  (535) 
C99421-P125

>  <fragmenstein_outcome>  (535) 
acceptable

>  <inchikey>  (535) 
YOPAOPDJXQMXKB-UHFFFAOYSA-N

>  <fragmenstein_mode>  (535) 
expansion

>  <HIPPO Pose ID>  (535) 
16950

>  <Energy>  (535) 
117.471491

>  <fragmenstein_error>  (535) 


>  <tags>  (535) 
{'openbind_xx01zvns2b_c1_fragmenstein', 'fragmenstein_placed'}

>  <ref_pdb>  (535) 
1

>  <scratch_subdir>  (535) 
/opt/xchem-fragalysis-2/maxwin/BulkDock/SCRATCH/511027/C99421-P125

>  <alias>  (535) 
CCCNC(=O)[C@](O)(Nc1ccc2c(c1)CNCCO2)c1cc(Cl)cc2[nH]ncc12

>  <HIPPO Compound ID>  (535) 
75194

>  <fragmenstein_runtime>  (535) 
9.437584

$$$$
Nc1cc2c(cc1NC(=O)c1cc(Cl)cc3n[nH]cc13)CNCCO2
     RDKit          3D

 25 28  0  0  0  0  0  0  0  0999 V2000
   -7.8336    7.2349  -11.4729 N   0  0  0  0  0  0  0  0  0  0  0  0
   -7.9433    5.9502  -10.9059 C   0  0  0  0  0  0  0  0  0  0  0  0
   -7.8920    5.8705   -9.5057 C   0  0  0  0  0  0  0  0  0  0  0  0
   -8.1535    4.6808   -8.8229 C   0  0  0  0  0  0  0  0  0  0  0  0
   -8.5715    3.5494   -9.5186 C   0  0  0  0  0  0  0  0  0  0  0  0
   -8.6489    3.6310  -10.9305 C   0  0  0  0  0  0  0  0  0  0  0  0
   -8.3161    4.8032  -11.6330 C   0  0  0  0  0  0  0  0  0  0  0  0
   -8.2932    4.7177  -13.0407 N   0  0  0  0  0  0  0  0  0  0  0  0
   -7.6583    5.6574  -14.0953 C   0  0  0  0  0  0  0  0  0  0  0  0
   -7.1221    6.6889  -13.9664 O   0  0  0  0  0  0  0  0  0  0  0  0
   -7.7319    5.1142  -15.4660 C   0  0  0  0  0  0  0  0  0  0  0  0
   -8.9245    4.6832  -16.0787 C   0  0  0  0  0  0  0  0  0  0  0  0
   -9.0119    4.3882  -17.4760 C   0  0  0  0  0  0  0  0  0  0  0  0
  -10.5733    4.0922  -18.1470 Cl  0  0  0  0  0  0  0  0  0  0  0  0
   -7.9253    4.4325  -18.3706 C   0  0  0  0  0  0  0  0  0  0  0  0
   -6.7284    4.8569  -17.7805 C   0  0  0  0  0  0  0  0  0  0  0  0
   -5.5215    5.0637  -18.3344 N   0  0  0  0  0  0  0  0  0  0  0  0
   -4.7531    5.5144  -17.3330 N   0  0  0  0  0  0  0  0  0  0  0  0
   -5.3890    5.6026  -16.1323 C   0  0  0  0  0  0  0  0  0  0  0  0
   -6.6698    5.1826  -16.3759 C   0  0  0  0  0  0  0  0  0  0  0  0
   -8.7898    2.2120   -8.8604 C   0  0  0  0  0  0  0  0  0  0  0  0
   -9.6903    2.1801   -7.7065 N   0  0  0  0  0  0  0  0  0  0  0  0
   -9.1047    2.8061   -6.5214 C   0  0  0  0  0  0  0  0  0  0  0  0
   -8.9359    4.3165   -6.6528 C   0  0  0  0  0  0  0  0  0  0  0  0
   -7.8427    4.6896   -7.4893 O   0  0  0  0  0  0  0  0  0  0  0  0
  1  2  1  0
  2  3  2  0
  3  4  1  0
  4  5  2  0
  5  6  1  0
  6  7  2  0
  7  8  1  0
  8  9  1  0
  9 10  2  0
  9 11  1  0
 11 12  2  0
 12 13  1  0
 13 14  1  0
 13 15  2  0
 15 16  1  0
 16 17  2  0
 17 18  1  0
 18 19  1  0
 19 20  2  0
  5 21  1  0
 21 22  1  0
 22 23  1  0
 23 24  1  0
 24 25  1  0
  7  2  1  0
 20 11  1  0
 25  4  1  0
 20 16  1  0
M  END
>  <smiles>  (536) 
C99433-P125

>  <fragmenstein_outcome>  (536) 
acceptable

>  <inchikey>  (536) 
OSZPIUHADBRUET-UHFFFAOYSA-N

>  <fragmenstein_mode>  (536) 
expansion

>  <HIPPO Pose ID>  (536) 
16953

>  <Energy>  (536) 
71.886692

>  <fragmenstein_error>  (536) 


>  <tags>  (536) 
{'openbind_xx01zvns2b_c1_fragmenstein', 'fragmenstein_placed'}

>  <ref_pdb>  (536) 
1

>  <scratch_subdir>  (536) 
/opt/xchem-fragalysis-2/maxwin/BulkDock/SCRATCH/511027/C99433-P125

>  <alias>  (536) 
Nc1cc2c(cc1NC(=O)c1cc(Cl)cc3n[nH]cc13)CNCCO2

>  <HIPPO Compound ID>  (536) 
78964

>  <fragmenstein_runtime>  (536) 
3.784558

$$$$
C[C@H]1CC2=C3[C@H](CN1)C[C@H](NC(=O)[C@@H]1C[C@@H](Cl)C[C@@H]4NNC[C@H]41)C[C@@H]3SC2
     RDKit          3D

 27 31  0  0  0  0  0  0  0  0999 V2000
   -7.2246    6.7806   -5.0025 C   0  0  0  0  0  0  0  0  0  0  0  0
   -7.4062    6.1725   -6.3996 C   0  0  1  0  0  0  0  0  0  0  0  0
   -8.6516    5.2617   -6.4131 C   0  0  0  0  0  0  0  0  0  0  0  0
   -8.6560    4.2543   -7.5281 C   0  0  0  0  0  0  0  0  0  0  0  0
   -8.1238    4.3955   -8.7601 C   0  0  0  0  0  0  0  0  0  0  0  0
   -7.4938    5.6356   -9.3483 C   0  0  2  0  0  0  0  0  0  0  0  0
   -7.9530    6.9613   -8.6905 C   0  0  0  0  0  0  0  0  0  0  0  0
   -7.4275    7.2805   -7.3597 N   0  0  0  0  0  0  0  0  0  0  0  0
   -7.7848    5.7416  -10.8593 C   0  0  0  0  0  0  0  0  0  0  0  0
   -7.5248    4.4421  -11.6336 C   0  0  2  0  0  0  0  0  0  0  0  0
   -7.7331    4.6282  -13.0640 N   0  0  0  0  0  0  0  0  0  0  0  0
   -7.5651    5.8846  -13.9475 C   0  0  0  0  0  0  0  0  0  0  0  0
   -7.3081    6.9861  -13.6560 O   0  0  0  0  0  0  0  0  0  0  0  0
   -7.7762    5.5408  -15.4220 C   0  0  2  0  0  0  0  0  0  0  0  0
   -9.0972    4.8803  -15.8331 C   0  0  0  0  0  0  0  0  0  0  0  0
   -9.0540    4.1684  -17.2033 C   0  0  1  0  0  0  0  0  0  0  0  0
  -10.6576    4.2103  -17.9976 Cl  0  0  0  0  0  0  0  0  0  0  0  0
   -7.9980    4.6171  -18.2170 C   0  0  0  0  0  0  0  0  0  0  0  0
   -6.7406    5.1965  -17.5971 C   0  0  2  0  0  0  0  0  0  0  0  0
   -5.4514    4.7590  -18.1099 N   0  0  0  0  0  0  0  0  0  0  0  0
   -4.4666    5.2097  -17.1191 N   0  0  0  0  0  0  0  0  0  0  0  0
   -5.2100    5.4656  -15.8639 C   0  0  0  0  0  0  0  0  0  0  0  0
   -6.5941    4.9027  -16.1172 C   0  0  1  0  0  0  0  0  0  0  0  0
   -8.4066    3.3283  -11.0718 C   0  0  0  0  0  0  0  0  0  0  0  0
   -8.1103    3.1332   -9.5886 C   0  0  2  0  0  0  0  0  0  0  0  0
   -9.3394    2.0654   -8.7999 S   0  0  0  0  0  0  0  0  0  0  0  0
   -9.2344    2.9011   -7.2157 C   0  0  0  0  0  0  0  0  0  0  0  0
  2  1  1  1
  2  3  1  0
  3  4  1  0
  4  5  2  0
  5  6  1  0
  6  7  1  1
  7  8  1  0
  6  9  1  0
  9 10  1  0
 10 11  1  6
 11 12  1  0
 12 13  2  0
 14 12  1  1
 14 15  1  0
 15 16  1  0
 16 17  1  6
 16 18  1  0
 19 18  1  6
 19 20  1  0
 20 21  1  0
 21 22  1  0
 23 22  1  1
 10 24  1  0
 25 24  1  6
 25 26  1  0
 26 27  1  0
  8  2  1  0
 23 14  1  0
 27  4  1  0
 25  5  1  0
 23 19  1  0
M  END
>  <smiles>  (537) 
C99441-P125

>  <fragmenstein_outcome>  (537) 
acceptable

>  <inchikey>  (537) 
LRUYAYLJUVUYPA-UHFFFAOYSA-N

>  <fragmenstein_mode>  (537) 
expansion

>  <HIPPO Pose ID>  (537) 
16959

>  <Energy>  (537) 
82.631116

>  <fragmenstein_error>  (537) 


>  <tags>  (537) 
{'openbind_xx01zvns2b_c1_fragmenstein', 'fragmenstein_placed'}

>  <ref_pdb>  (537) 
1

>  <scratch_subdir>  (537) 
/opt/xchem-fragalysis-2/maxwin/BulkDock/SCRATCH/511027/C99441-P125

>  <alias>  (537) 
C[C@H]1CC2=C3[C@H](CN1)C[C@H](NC(=O)[C@@H]1C[C@@H](Cl)C[C@@H]4NNC[C@H]41)C[C@@H]3SC2

>  <HIPPO Compound ID>  (537) 
90038

>  <fragmenstein_runtime>  (537) 
6.564809

$$$$
C[C@H]1CC2=C3[C@H](CN1)C[C@H](NC(=O)[C@@H]1C[C@@H](Cl)C[C@@H]4NNC[C@@H]41)C[C@@H]3SC2
     RDKit          3D

 27 31  0  0  0  0  0  0  0  0999 V2000
   -6.9860    7.0078   -5.1964 C   0  0  0  0  0  0  0  0  0  0  0  0
   -7.2072    6.3581   -6.5686 C   0  0  1  0  0  0  0  0  0  0  0  0
   -8.4386    5.4287   -6.5149 C   0  0  0  0  0  0  0  0  0  0  0  0
   -8.4601    4.3882   -7.5996 C   0  0  0  0  0  0  0  0  0  0  0  0
   -7.9673    4.5050   -8.8508 C   0  0  0  0  0  0  0  0  0  0  0  0
   -7.4011    5.7461   -9.5021 C   0  0  2  0  0  0  0  0  0  0  0  0
   -7.8584    7.0772   -8.8549 C   0  0  0  0  0  0  0  0  0  0  0  0
   -7.2756    7.4360   -7.5598 N   0  0  0  0  0  0  0  0  0  0  0  0
   -7.7843    5.8016  -10.9956 C   0  0  0  0  0  0  0  0  0  0  0  0
   -7.4824    4.5018  -11.7493 C   0  0  2  0  0  0  0  0  0  0  0  0
   -7.7746    4.6583  -13.1702 N   0  0  0  0  0  0  0  0  0  0  0  0
   -7.3314    5.7521  -14.1739 C   0  0  0  0  0  0  0  0  0  0  0  0
   -6.7275    6.7384  -14.0016 O   0  0  0  0  0  0  0  0  0  0  0  0
   -7.8250    5.4468  -15.6251 C   0  0  2  0  0  0  0  0  0  0  0  0
   -8.4830    4.1200  -15.9658 C   0  0  0  0  0  0  0  0  0  0  0  0
   -8.7752    3.8789  -17.4561 C   0  0  1  0  0  0  0  0  0  0  0  0
  -10.2668    4.6097  -18.0652 Cl  0  0  0  0  0  0  0  0  0  0  0  0
   -7.6035    4.2135  -18.3557 C   0  0  0  0  0  0  0  0  0  0  0  0
   -6.8920    5.5186  -18.0645 C   0  0  2  0  0  0  0  0  0  0  0  0
   -5.5285    5.3928  -18.6229 N   0  0  0  0  0  0  0  0  0  0  0  0
   -4.5858    5.4917  -17.5318 N   0  0  0  0  0  0  0  0  0  0  0  0
   -5.3287    5.1519  -16.3148 C   0  0  0  0  0  0  0  0  0  0  0  0
   -6.6696    5.8049  -16.5874 C   0  0  2  0  0  0  0  0  0  0  0  0
   -8.2387    3.3336  -11.1221 C   0  0  0  0  0  0  0  0  0  0  0  0
   -7.9248    3.2131   -9.6335 C   0  0  2  0  0  0  0  0  0  0  0  0
   -9.1081    2.1351   -8.7789 S   0  0  0  0  0  0  0  0  0  0  0  0
   -9.0078    3.0348   -7.2303 C   0  0  0  0  0  0  0  0  0  0  0  0
  2  1  1  1
  2  3  1  0
  3  4  1  0
  4  5  2  0
  5  6  1  0
  6  7  1  1
  7  8  1  0
  6  9  1  0
  9 10  1  0
 10 11  1  6
 11 12  1  0
 12 13  2  0
 14 12  1  1
 14 15  1  0
 15 16  1  0
 16 17  1  6
 16 18  1  0
 19 18  1  1
 19 20  1  0
 20 21  1  0
 21 22  1  0
 23 22  1  1
 10 24  1  0
 25 24  1  6
 25 26  1  0
 26 27  1  0
  8  2  1  0
 23 14  1  0
 27  4  1  0
 25  5  1  0
 23 19  1  0
M  END
>  <smiles>  (538) 
C99441-P58

>  <fragmenstein_outcome>  (538) 
acceptable

>  <inchikey>  (538) 
NQPDXBJRPHYSLP-UHFFFAOYSA-N

>  <fragmenstein_mode>  (538) 
expansion

>  <HIPPO Pose ID>  (538) 
16960

>  <Energy>  (538) 
75.7078

>  <fragmenstein_error>  (538) 


>  <tags>  (538) 
{'openbind_xx01zvns2b_c1_fragmenstein', 'fragmenstein_placed'}

>  <ref_pdb>  (538) 
1

>  <scratch_subdir>  (538) 
/opt/xchem-fragalysis-2/maxwin/BulkDock/SCRATCH/511027/C99441-P58

>  <alias>  (538) 
C[C@H]1CC2=C3[C@H](CN1)C[C@H](NC(=O)[C@@H]1C[C@@H](Cl)C[C@@H]4NNC[C@@H]41)C[C@@H]3SC2

>  <HIPPO Compound ID>  (538) 
99441

>  <fragmenstein_runtime>  (538) 
4.158658

$$$$
CSc1cc2c(cc1NC(=O)c1cc(Cl)cc3n[nH]cc13)CNCCO2
     RDKit          3D

 26 29  0  0  0  0  0  0  0  0999 V2000
   -6.0667    7.9503  -11.3219 C   0  0  0  0  0  0  0  0  0  0  0  0
   -7.8331    7.6554  -11.5964 S   0  0  0  0  0  0  0  0  0  0  0  0
   -7.9542    6.0038  -10.8994 C   0  0  0  0  0  0  0  0  0  0  0  0
   -7.8882    5.9513   -9.4963 C   0  0  0  0  0  0  0  0  0  0  0  0
   -8.2399    4.8068   -8.7793 C   0  0  0  0  0  0  0  0  0  0  0  0
   -8.7076    3.6831   -9.4614 C   0  0  0  0  0  0  0  0  0  0  0  0
   -8.7106    3.7148  -10.8820 C   0  0  0  0  0  0  0  0  0  0  0  0
   -8.2947    4.8429  -11.6150 C   0  0  0  0  0  0  0  0  0  0  0  0
   -8.2465    4.7090  -13.0203 N   0  0  0  0  0  0  0  0  0  0  0  0
   -7.3946    5.4651  -14.0772 C   0  0  0  0  0  0  0  0  0  0  0  0
   -6.6594    6.3668  -13.9540 O   0  0  0  0  0  0  0  0  0  0  0  0
   -7.5933    4.9786  -15.4646 C   0  0  0  0  0  0  0  0  0  0  0  0
   -8.8420    4.6421  -16.0338 C   0  0  0  0  0  0  0  0  0  0  0  0
   -9.0164    4.3911  -17.4347 C   0  0  0  0  0  0  0  0  0  0  0  0
  -10.6167    4.1628  -18.0429 Cl  0  0  0  0  0  0  0  0  0  0  0  0
   -7.9788    4.4165  -18.3843 C   0  0  0  0  0  0  0  0  0  0  0  0
   -6.7342    4.7618  -17.8469 C   0  0  0  0  0  0  0  0  0  0  0  0
   -5.5531    4.9330  -18.4652 N   0  0  0  0  0  0  0  0  0  0  0  0
   -4.7020    5.2835  -17.4927 N   0  0  0  0  0  0  0  0  0  0  0  0
   -5.2612    5.3470  -16.2545 C   0  0  0  0  0  0  0  0  0  0  0  0
   -6.5806    5.0236  -16.4358 C   0  0  0  0  0  0  0  0  0  0  0  0
   -9.2919    2.4724   -8.7742 C   0  0  0  0  0  0  0  0  0  0  0  0
   -8.6092    2.0380   -7.5746 N   0  0  0  0  0  0  0  0  0  0  0  0
   -8.8688    2.8379   -6.3876 C   0  0  0  0  0  0  0  0  0  0  0  0
   -9.0470    4.3367   -6.6084 C   0  0  0  0  0  0  0  0  0  0  0  0
   -8.0356    4.9151   -7.4283 O   0  0  0  0  0  0  0  0  0  0  0  0
  1  2  1  0
  2  3  1  0
  3  4  2  0
  4  5  1  0
  5  6  2  0
  6  7  1  0
  7  8  2  0
  8  9  1  0
  9 10  1  0
 10 11  2  0
 10 12  1  0
 12 13  2  0
 13 14  1  0
 14 15  1  0
 14 16  2  0
 16 17  1  0
 17 18  2  0
 18 19  1  0
 19 20  1  0
 20 21  2  0
  6 22  1  0
 22 23  1  0
 23 24  1  0
 24 25  1  0
 25 26  1  0
  8  3  1  0
 21 12  1  0
 26  5  1  0
 21 17  1  0
M  END
>  <smiles>  (539) 
C99453-P125

>  <fragmenstein_outcome>  (539) 
acceptable

>  <inchikey>  (539) 
KNLLMIIPFQNDAO-UHFFFAOYSA-N

>  <fragmenstein_mode>  (539) 
expansion

>  <HIPPO Pose ID>  (539) 
16967

>  <Energy>  (539) 
86.982976

>  <fragmenstein_error>  (539) 


>  <tags>  (539) 
{'openbind_xx01zvns2b_c1_fragmenstein', 'fragmenstein_placed'}

>  <ref_pdb>  (539) 
1

>  <scratch_subdir>  (539) 
/opt/xchem-fragalysis-2/maxwin/BulkDock/SCRATCH/511027/C99453-P125

>  <alias>  (539) 
CSc1cc2c(cc1NC(=O)c1cc(Cl)cc3n[nH]cc13)CNCCO2

>  <HIPPO Compound ID>  (539) 
106466

>  <fragmenstein_runtime>  (539) 
2.524559

$$$$
O=C(Nc1ccc2c(c1)CNCCO2)c1cc(Cl)cc2c1=C[N@@H+]([O-])N=2
     RDKit          3D

 25 28  0  0  0  0  0  0  0  0999 V2000
   -6.9099    6.5956  -13.8728 O   0  0  0  0  0  0  0  0  0  0  0  0
   -7.4292    5.5587  -14.0270 C   0  0  0  0  0  0  0  0  0  0  0  0
   -8.0722    4.5922  -12.9960 N   0  0  0  0  0  0  0  0  0  0  0  0
   -8.1223    4.6562  -11.6004 C   0  0  0  0  0  0  0  0  0  0  0  0
   -7.6374    5.7702  -10.9242 C   0  0  0  0  0  0  0  0  0  0  0  0
   -7.6424    5.8031   -9.5272 C   0  0  0  0  0  0  0  0  0  0  0  0
   -8.1549    4.7406   -8.7765 C   0  0  0  0  0  0  0  0  0  0  0  0
   -8.6892    3.6300   -9.4418 C   0  0  0  0  0  0  0  0  0  0  0  0
   -8.6523    3.5969  -10.8613 C   0  0  0  0  0  0  0  0  0  0  0  0
   -9.3171    2.4709   -8.7174 C   0  0  0  0  0  0  0  0  0  0  0  0
   -8.4637    1.9395   -7.6759 N   0  0  0  0  0  0  0  0  0  0  0  0
   -8.6016    2.6834   -6.4249 C   0  0  0  0  0  0  0  0  0  0  0  0
   -8.8789    4.1894   -6.5564 C   0  0  0  0  0  0  0  0  0  0  0  0
   -8.0014    4.9015   -7.4243 O   0  0  0  0  0  0  0  0  0  0  0  0
   -7.5084    4.9811  -15.4073 C   0  0  0  0  0  0  0  0  0  0  0  0
   -8.6883    4.6258  -15.9444 C   0  0  0  0  0  0  0  0  0  0  0  0
   -8.8160    4.3276  -17.3647 C   0  0  0  0  0  0  0  0  0  0  0  0
  -10.4163    4.1485  -17.9679 Cl  0  0  0  0  0  0  0  0  0  0  0  0
   -7.7866    4.3445  -18.2257 C   0  0  0  0  0  0  0  0  0  0  0  0
   -6.4583    4.7069  -17.7065 C   0  0  0  0  0  0  0  0  0  0  0  0
   -6.3715    5.0373  -16.2763 C   0  0  0  0  0  0  0  0  0  0  0  0
   -5.0923    5.3801  -16.1324 C   0  0  0  0  0  0  0  0  0  0  0  0
   -4.3412    5.2557  -17.3903 N   0  0  1  0  0  0  0  0  0  0  0  0
   -3.4357    4.2768  -17.2363 O   0  0  0  0  0  0  0  0  0  0  0  0
   -5.3578    4.8155  -18.3797 N   0  0  0  0  0  0  0  0  0  0  0  0
  1  2  2  0
  2  3  1  0
  3  4  1  0
  4  5  2  0
  5  6  1  0
  6  7  2  0
  7  8  1  0
  8  9  2  0
  8 10  1  0
 10 11  1  0
 11 12  1  0
 12 13  1  0
 13 14  1  0
  2 15  1  0
 15 16  2  0
 16 17  1  0
 17 18  1  0
 17 19  2  0
 19 20  1  0
 20 21  1  0
 21 22  2  0
 22 23  1  0
 23 24  1  1
 23 25  1  0
  9  4  1  0
 21 15  1  0
 14  7  1  0
 25 20  2  0
M  CHG  2  23   1  24  -1
M  END
>  <smiles>  (540) 
C99416-P87

>  <fragmenstein_outcome>  (540) 
acceptable

>  <inchikey>  (540) 
XTNRYBAVPUOFHV-UHFFFAOYSA-N

>  <fragmenstein_mode>  (540) 
expansion

>  <HIPPO Pose ID>  (540) 
16970

>  <Energy>  (540) 
34.36908

>  <fragmenstein_error>  (540) 


>  <tags>  (540) 
{'openbind_xx01zvns2b_c1_fragmenstein', 'fragmenstein_placed'}

>  <ref_pdb>  (540) 
1

>  <scratch_subdir>  (540) 
/opt/xchem-fragalysis-2/maxwin/BulkDock/SCRATCH/511027/C99416-P87

>  <alias>  (540) 
O=C(Nc1ccc2c(c1)CNCCO2)c1cc(Cl)cc2c1=C[N@@H+]([O-])N=2

>  <HIPPO Compound ID>  (540) 
74899

>  <fragmenstein_runtime>  (540) 
2.259881

$$$$
N#Cn1ncc2c(C(=O)Nc3ccc4c(c3)CNCCO4)cc(Cl)cc21
     RDKit          3D

 26 29  0  0  0  0  0  0  0  0999 V2000
   -5.1990    6.7163  -20.4869 N   0  0  0  0  0  0  0  0  0  0  0  0
   -5.4070    6.0648  -19.5445 C   0  0  0  0  0  0  0  0  0  0  0  0
   -5.5718    5.3959  -18.2177 N   0  0  0  0  0  0  0  0  0  0  0  0
   -4.5981    5.4736  -17.2653 N   0  0  0  0  0  0  0  0  0  0  0  0
   -5.2601    5.3554  -16.1171 C   0  0  0  0  0  0  0  0  0  0  0  0
   -6.6237    5.0514  -16.3079 C   0  0  0  0  0  0  0  0  0  0  0  0
   -7.7497    4.9008  -15.4715 C   0  0  0  0  0  0  0  0  0  0  0  0
   -7.6378    5.3963  -14.0778 C   0  0  0  0  0  0  0  0  0  0  0  0
   -7.0704    6.4081  -13.9402 O   0  0  0  0  0  0  0  0  0  0  0  0
   -8.3037    4.4727  -13.0355 N   0  0  0  0  0  0  0  0  0  0  0  0
   -8.3288    4.5482  -11.6431 C   0  0  0  0  0  0  0  0  0  0  0  0
   -7.8227    5.6660  -10.9865 C   0  0  0  0  0  0  0  0  0  0  0  0
   -7.8133    5.7180   -9.5915 C   0  0  0  0  0  0  0  0  0  0  0  0
   -8.3256    4.6665   -8.8262 C   0  0  0  0  0  0  0  0  0  0  0  0
   -8.8604    3.5431   -9.4758 C   0  0  0  0  0  0  0  0  0  0  0  0
   -8.8484    3.4980  -10.8919 C   0  0  0  0  0  0  0  0  0  0  0  0
   -9.4563    2.3679   -8.7483 C   0  0  0  0  0  0  0  0  0  0  0  0
   -8.6183    1.9354   -7.6623 N   0  0  0  0  0  0  0  0  0  0  0  0
   -8.8210    2.6771   -6.4291 C   0  0  0  0  0  0  0  0  0  0  0  0
   -9.0769    4.1777   -6.6067 C   0  0  0  0  0  0  0  0  0  0  0  0
   -8.1659    4.8483   -7.4756 O   0  0  0  0  0  0  0  0  0  0  0  0
   -8.9775    4.5434  -16.0386 C   0  0  0  0  0  0  0  0  0  0  0  0
   -9.0829    4.3941  -17.4222 C   0  0  0  0  0  0  0  0  0  0  0  0
  -10.6237    4.1292  -18.1354 Cl  0  0  0  0  0  0  0  0  0  0  0  0
   -7.9919    4.5911  -18.2745 C   0  0  0  0  0  0  0  0  0  0  0  0
   -6.7730    4.9503  -17.6895 C   0  0  0  0  0  0  0  0  0  0  0  0
  1  2  3  0
  2  3  1  0
  3  4  1  0
  4  5  2  0
  5  6  1  0
  6  7  2  0
  7  8  1  0
  8  9  2  0
  8 10  1  0
 10 11  1  0
 11 12  2  0
 12 13  1  0
 13 14  2  0
 14 15  1  0
 15 16  2  0
 15 17  1  0
 17 18  1  0
 18 19  1  0
 19 20  1  0
 20 21  1  0
  7 22  1  0
 22 23  2  0
 23 24  1  0
 23 25  1  0
 25 26  2  0
 26  3  1  0
 26  6  1  0
 16 11  1  0
 21 14  1  0
M  END
>  <smiles>  (541) 
C99460-P125

>  <fragmenstein_outcome>  (541) 
acceptable

>  <inchikey>  (541) 
IVRVPFSSOPTQQO-UHFFFAOYSA-N

>  <fragmenstein_mode>  (541) 
expansion

>  <HIPPO Pose ID>  (541) 
16971

>  <Energy>  (541) 
116.689782

>  <fragmenstein_error>  (541) 


>  <tags>  (541) 
{'openbind_xx01zvns2b_c1_fragmenstein', 'fragmenstein_placed'}

>  <ref_pdb>  (541) 
1

>  <scratch_subdir>  (541) 
/opt/xchem-fragalysis-2/maxwin/BulkDock/SCRATCH/511027/C99460-P125

>  <alias>  (541) 
N#Cn1ncc2c(C(=O)Nc3ccc4c(c3)CNCCO4)cc(Cl)cc21

>  <HIPPO Compound ID>  (541) 
81697

>  <fragmenstein_runtime>  (541) 
3.413664

$$$$
O=C(NCC(F)F)[C@@](NCc1ccccn1)(Nc1ccc2c(c1)CNCCO2)c1cc(Cl)cc2[nH]ncc12
     RDKit          3D

 38 42  0  0  0  0  0  0  0  0999 V2000
   -6.5037    7.6378  -14.4793 O   0  0  0  0  0  0  0  0  0  0  0  0
   -7.3141    6.8998  -14.0641 C   0  0  0  0  0  0  0  0  0  0  0  0
   -8.6606    7.1881  -13.3219 N   0  0  0  0  0  0  0  0  0  0  0  0
   -9.2329    8.4430  -12.8568 C   0  0  0  0  0  0  0  0  0  0  0  0
   -8.9725    8.7779  -11.3901 C   0  0  0  0  0  0  0  0  0  0  0  0
   -9.5319    9.9815  -11.0995 F   0  0  0  0  0  0  0  0  0  0  0  0
   -7.6387    8.9176  -11.1705 F   0  0  0  0  0  0  0  0  0  0  0  0
   -7.1733    5.2370  -14.1977 C   0  0  1  0  0  0  0  0  0  0  0  0
   -5.8076    4.7327  -13.9993 N   0  0  0  0  0  0  0  0  0  0  0  0
   -4.8012    5.6584  -13.5075 C   0  0  0  0  0  0  0  0  0  0  0  0
   -3.5308    4.9426  -13.0696 C   0  0  0  0  0  0  0  0  0  0  0  0
   -3.5328    4.1537  -11.9176 C   0  0  0  0  0  0  0  0  0  0  0  0
   -2.3544    3.5210  -11.5327 C   0  0  0  0  0  0  0  0  0  0  0  0
   -1.2085    3.6931  -12.2988 C   0  0  0  0  0  0  0  0  0  0  0  0
   -1.2901    4.4931  -13.4257 C   0  0  0  0  0  0  0  0  0  0  0  0
   -2.4190    5.1149  -13.8270 N   0  0  0  0  0  0  0  0  0  0  0  0
   -8.1662    4.5679  -13.2852 N   0  0  0  0  0  0  0  0  0  0  0  0
   -8.0255    4.5607  -11.8786 C   0  0  0  0  0  0  0  0  0  0  0  0
   -7.5361    5.6434  -11.1441 C   0  0  0  0  0  0  0  0  0  0  0  0
   -7.7084    5.7453   -9.7644 C   0  0  0  0  0  0  0  0  0  0  0  0
   -8.2814    4.7063   -9.0503 C   0  0  0  0  0  0  0  0  0  0  0  0
   -8.6598    3.5340   -9.7115 C   0  0  0  0  0  0  0  0  0  0  0  0
   -8.5705    3.5057  -11.1304 C   0  0  0  0  0  0  0  0  0  0  0  0
   -9.0743    2.2622   -9.0053 C   0  0  0  0  0  0  0  0  0  0  0  0
   -9.8258    2.4330   -7.7675 N   0  0  0  0  0  0  0  0  0  0  0  0
   -8.9884    2.8291   -6.6342 C   0  0  0  0  0  0  0  0  0  0  0  0
   -7.9319    3.8958   -6.9209 C   0  0  0  0  0  0  0  0  0  0  0  0
   -8.4436    4.9618   -7.7135 O   0  0  0  0  0  0  0  0  0  0  0  0
   -7.5378    4.9271  -15.6971 C   0  0  0  0  0  0  0  0  0  0  0  0
   -8.8792    4.6436  -16.0874 C   0  0  0  0  0  0  0  0  0  0  0  0
   -9.2369    4.4223  -17.4239 C   0  0  0  0  0  0  0  0  0  0  0  0
  -10.8731    4.2273  -17.9010 Cl  0  0  0  0  0  0  0  0  0  0  0  0
   -8.3031    4.4503  -18.4449 C   0  0  0  0  0  0  0  0  0  0  0  0
   -7.0030    4.7747  -18.0914 C   0  0  0  0  0  0  0  0  0  0  0  0
   -5.9053    4.9591  -18.8902 N   0  0  0  0  0  0  0  0  0  0  0  0
   -4.7901    5.2599  -18.2144 N   0  0  0  0  0  0  0  0  0  0  0  0
   -5.2032    5.2671  -16.9416 C   0  0  0  0  0  0  0  0  0  0  0  0
   -6.5939    5.0029  -16.7800 C   0  0  0  0  0  0  0  0  0  0  0  0
  1  2  2  0
  2  3  1  0
  3  4  1  0
  4  5  1  0
  5  6  1  0
  5  7  1  0
  2  8  1  0
  8  9  1  1
  9 10  1  0
 10 11  1  0
 11 12  2  0
 12 13  1  0
 13 14  2  0
 14 15  1  0
 15 16  2  0
  8 17  1  0
 17 18  1  0
 18 19  2  0
 19 20  1  0
 20 21  2  0
 21 22  1  0
 22 23  2  0
 22 24  1  0
 24 25  1  0
 25 26  1  0
 26 27  1  0
 27 28  1  0
  8 29  1  0
 29 30  2  0
 30 31  1  0
 31 32  1  0
 31 33  2  0
 33 34  1  0
 34 35  1  0
 35 36  1  0
 36 37  2  0
 37 38  1  0
 16 11  1  0
 23 18  1  0
 38 29  1  0
 28 21  1  0
 38 34  2  0
M  END
>  <smiles>  (542) 
C99461-P125

>  <fragmenstein_outcome>  (542) 
acceptable

>  <inchikey>  (542) 
XKLMMXQHJRJHNY-UHFFFAOYSA-N

>  <fragmenstein_mode>  (542) 
expansion

>  <HIPPO Pose ID>  (542) 
16972

>  <Energy>  (542) 
187.698943

>  <fragmenstein_error>  (542) 


>  <tags>  (542) 
{'openbind_xx01zvns2b_c1_fragmenstein', 'fragmenstein_placed'}

>  <ref_pdb>  (542) 
1

>  <scratch_subdir>  (542) 
/opt/xchem-fragalysis-2/maxwin/BulkDock/SCRATCH/511027/C99461-P125

>  <alias>  (542) 
O=C(NCC(F)F)[C@@](NCc1ccccn1)(Nc1ccc2c(c1)CNCCO2)c1cc(Cl)cc2[nH]ncc12

>  <HIPPO Compound ID>  (542) 
99461

>  <fragmenstein_runtime>  (542) 
13.985688

$$$$
CNCn1ncc2c(C(=O)Nc3ccc4c(c3)CNCCO4)cc(Cl)cc21
     RDKit          3D

 27 30  0  0  0  0  0  0  0  0999 V2000
   -3.7800    7.0562  -19.7489 C   0  0  0  0  0  0  0  0  0  0  0  0
   -5.0221    6.3373  -19.9734 N   0  0  0  0  0  0  0  0  0  0  0  0
   -5.0252    5.0223  -19.3261 C   0  0  0  0  0  0  0  0  0  0  0  0
   -5.4365    5.1399  -17.9333 N   0  0  0  0  0  0  0  0  0  0  0  0
   -4.5189    5.3876  -16.9628 N   0  0  0  0  0  0  0  0  0  0  0  0
   -5.2583    5.4460  -15.8530 C   0  0  0  0  0  0  0  0  0  0  0  0
   -6.6164    5.1377  -16.0856 C   0  0  0  0  0  0  0  0  0  0  0  0
   -7.7860    5.0584  -15.3137 C   0  0  0  0  0  0  0  0  0  0  0  0
   -7.7373    5.5850  -13.9393 C   0  0  0  0  0  0  0  0  0  0  0  0
   -7.3476    6.6753  -13.7957 O   0  0  0  0  0  0  0  0  0  0  0  0
   -8.2208    4.5529  -12.9036 N   0  0  0  0  0  0  0  0  0  0  0  0
   -8.2376    4.6070  -11.5159 C   0  0  0  0  0  0  0  0  0  0  0  0
   -7.7306    5.7086  -10.8380 C   0  0  0  0  0  0  0  0  0  0  0  0
   -7.7432    5.7372   -9.4433 C   0  0  0  0  0  0  0  0  0  0  0  0
   -8.2712    4.6742   -8.7050 C   0  0  0  0  0  0  0  0  0  0  0  0
   -8.7859    3.5578   -9.3813 C   0  0  0  0  0  0  0  0  0  0  0  0
   -8.7554    3.5393  -10.7937 C   0  0  0  0  0  0  0  0  0  0  0  0
   -9.4025    2.3719   -8.6922 C   0  0  0  0  0  0  0  0  0  0  0  0
   -8.6110    1.9260   -7.5805 N   0  0  0  0  0  0  0  0  0  0  0  0
   -8.8330    2.6611   -6.3481 C   0  0  0  0  0  0  0  0  0  0  0  0
   -9.0957    4.1607   -6.5220 C   0  0  0  0  0  0  0  0  0  0  0  0
   -8.1528    4.8407   -7.3484 O   0  0  0  0  0  0  0  0  0  0  0  0
   -8.9908    4.6642  -15.9080 C   0  0  0  0  0  0  0  0  0  0  0  0
   -9.0400    4.4336  -17.2809 C   0  0  0  0  0  0  0  0  0  0  0  0
  -10.5494    4.1455  -18.0554 Cl  0  0  0  0  0  0  0  0  0  0  0  0
   -7.9030    4.5502  -18.0805 C   0  0  0  0  0  0  0  0  0  0  0  0
   -6.7015    4.9020  -17.4508 C   0  0  0  0  0  0  0  0  0  0  0  0
  1  2  1  0
  2  3  1  0
  3  4  1  0
  4  5  1  0
  5  6  2  0
  6  7  1  0
  7  8  2  0
  8  9  1  0
  9 10  2  0
  9 11  1  0
 11 12  1  0
 12 13  2  0
 13 14  1  0
 14 15  2  0
 15 16  1  0
 16 17  2  0
 16 18  1  0
 18 19  1  0
 19 20  1  0
 20 21  1  0
 21 22  1  0
  8 23  1  0
 23 24  2  0
 24 25  1  0
 24 26  1  0
 26 27  2  0
 27  4  1  0
 27  7  1  0
 17 12  1  0
 22 15  1  0
M  END
>  <smiles>  (543) 
C99465-P125

>  <fragmenstein_outcome>  (543) 
acceptable

>  <inchikey>  (543) 
WMQDBIJPEVUXBH-UHFFFAOYSA-N

>  <fragmenstein_mode>  (543) 
expansion

>  <HIPPO Pose ID>  (543) 
16976

>  <Energy>  (543) 
109.484189

>  <fragmenstein_error>  (543) 


>  <tags>  (543) 
{'openbind_xx01zvns2b_c1_fragmenstein', 'fragmenstein_placed'}

>  <ref_pdb>  (543) 
1

>  <scratch_subdir>  (543) 
/opt/xchem-fragalysis-2/maxwin/BulkDock/SCRATCH/511027/C99465-P125

>  <alias>  (543) 
CNCn1ncc2c(C(=O)Nc3ccc4c(c3)CNCCO4)cc(Cl)cc21

>  <HIPPO Compound ID>  (543) 
93789

>  <fragmenstein_runtime>  (543) 
4.078143

$$$$
CNCn1ncc2c(C(=O)Nc3cc(F)c4c(c3)CNCCO4)cc(Cl)cc21
     RDKit          3D

 28 31  0  0  0  0  0  0  0  0999 V2000
   -4.9879    7.8370  -19.9034 C   0  0  0  0  0  0  0  0  0  0  0  0
   -4.2063    6.6150  -19.7761 N   0  0  0  0  0  0  0  0  0  0  0  0
   -5.0982    5.4467  -19.5913 C   0  0  0  0  0  0  0  0  0  0  0  0
   -5.4587    5.3254  -18.1792 N   0  0  0  0  0  0  0  0  0  0  0  0
   -4.5306    5.6349  -17.2337 N   0  0  0  0  0  0  0  0  0  0  0  0
   -5.2221    5.5694  -16.0965 C   0  0  0  0  0  0  0  0  0  0  0  0
   -6.5648    5.1787  -16.2919 C   0  0  0  0  0  0  0  0  0  0  0  0
   -7.6966    5.0134  -15.4725 C   0  0  0  0  0  0  0  0  0  0  0  0
   -7.6118    5.4970  -14.0800 C   0  0  0  0  0  0  0  0  0  0  0  0
   -7.1634    6.5622  -13.9160 O   0  0  0  0  0  0  0  0  0  0  0  0
   -8.1017    4.4503  -13.0587 N   0  0  0  0  0  0  0  0  0  0  0  0
   -8.2269    4.5272  -11.6755 C   0  0  0  0  0  0  0  0  0  0  0  0
   -7.9317    5.7149  -11.0101 C   0  0  0  0  0  0  0  0  0  0  0  0
   -8.1212    5.7995   -9.6385 C   0  0  0  0  0  0  0  0  0  0  0  0
   -7.8579    6.9604   -9.0184 F   0  0  0  0  0  0  0  0  0  0  0  0
   -8.5918    4.7084   -8.9126 C   0  0  0  0  0  0  0  0  0  0  0  0
   -8.8846    3.5036   -9.5621 C   0  0  0  0  0  0  0  0  0  0  0  0
   -8.6829    3.4221  -10.9553 C   0  0  0  0  0  0  0  0  0  0  0  0
   -9.5666    2.3682   -8.8495 C   0  0  0  0  0  0  0  0  0  0  0  0
   -8.8712    1.8268   -7.7030 N   0  0  0  0  0  0  0  0  0  0  0  0
   -8.8806    2.7010   -6.5418 C   0  0  0  0  0  0  0  0  0  0  0  0
   -8.1370    4.0160   -6.7504 C   0  0  0  0  0  0  0  0  0  0  0  0
   -8.8681    4.9123   -7.5878 O   0  0  0  0  0  0  0  0  0  0  0  0
   -8.9103    4.6040  -16.0372 C   0  0  0  0  0  0  0  0  0  0  0  0
   -8.9918    4.4008  -17.4139 C   0  0  0  0  0  0  0  0  0  0  0  0
  -10.5190    4.0924  -18.1411 Cl  0  0  0  0  0  0  0  0  0  0  0  0
   -7.8831    4.5608  -18.2508 C   0  0  0  0  0  0  0  0  0  0  0  0
   -6.6818    4.9738  -17.6619 C   0  0  0  0  0  0  0  0  0  0  0  0
  1  2  1  0
  2  3  1  0
  3  4  1  0
  4  5  1  0
  5  6  2  0
  6  7  1  0
  7  8  2  0
  8  9  1  0
  9 10  2  0
  9 11  1  0
 11 12  1  0
 12 13  2  0
 13 14  1  0
 14 15  1  0
 14 16  2  0
 16 17  1  0
 17 18  2  0
 17 19  1  0
 19 20  1  0
 20 21  1  0
 21 22  1  0
 22 23  1  0
  8 24  1  0
 24 25  2  0
 25 26  1  0
 25 27  1  0
 27 28  2  0
 28  4  1  0
 28  7  1  0
 18 12  1  0
 23 16  1  0
M  END
>  <smiles>  (544) 
C99492-P125

>  <fragmenstein_outcome>  (544) 
acceptable

>  <inchikey>  (544) 
IIONFAUQSRCQAI-UHFFFAOYSA-N

>  <fragmenstein_mode>  (544) 
expansion

>  <HIPPO Pose ID>  (544) 
16985

>  <Energy>  (544) 
107.761655

>  <fragmenstein_error>  (544) 


>  <tags>  (544) 
{'openbind_xx01zvns2b_c1_fragmenstein', 'fragmenstein_placed'}

>  <ref_pdb>  (544) 
1

>  <scratch_subdir>  (544) 
/opt/xchem-fragalysis-2/maxwin/BulkDock/SCRATCH/511027/C99492-P125

>  <alias>  (544) 
CNCn1ncc2c(C(=O)Nc3cc(F)c4c(c3)CNCCO4)cc(Cl)cc21

>  <HIPPO Compound ID>  (544) 
88887

>  <fragmenstein_runtime>  (544) 
4.163366

$$$$
CCNn1ncc2c(C(=O)Nc3ccc4c(c3)CNCCO4)cc(Cl)cc21
     RDKit          3D

 27 30  0  0  0  0  0  0  0  0999 V2000
   -3.3463    6.9026  -19.7533 C   0  0  0  0  0  0  0  0  0  0  0  0
   -4.8219    7.1133  -19.4386 C   0  0  0  0  0  0  0  0  0  0  0  0
   -5.5868    5.8774  -19.4780 N   0  0  0  0  0  0  0  0  0  0  0  0
   -5.6832    5.2593  -18.2239 N   0  0  0  0  0  0  0  0  0  0  0  0
   -4.6751    5.2384  -17.3342 N   0  0  0  0  0  0  0  0  0  0  0  0
   -5.3070    5.1659  -16.1644 C   0  0  0  0  0  0  0  0  0  0  0  0
   -6.6937    4.9274  -16.3080 C   0  0  0  0  0  0  0  0  0  0  0  0
   -7.8075    4.8091  -15.4538 C   0  0  0  0  0  0  0  0  0  0  0  0
   -7.6590    5.2996  -14.0659 C   0  0  0  0  0  0  0  0  0  0  0  0
   -7.1349    6.3384  -13.9533 O   0  0  0  0  0  0  0  0  0  0  0  0
   -8.2534    4.3557  -12.9954 N   0  0  0  0  0  0  0  0  0  0  0  0
   -8.2434    4.4444  -11.6032 C   0  0  0  0  0  0  0  0  0  0  0  0
   -7.6631    5.5498  -10.9869 C   0  0  0  0  0  0  0  0  0  0  0  0
   -7.6072    5.6333   -9.5980 C   0  0  0  0  0  0  0  0  0  0  0  0
   -8.1454    4.6244   -8.7980 C   0  0  0  0  0  0  0  0  0  0  0  0
   -8.7489    3.5069   -9.3944 C   0  0  0  0  0  0  0  0  0  0  0  0
   -8.7899    3.4347  -10.8115 C   0  0  0  0  0  0  0  0  0  0  0  0
   -9.4038    2.3912   -8.6162 C   0  0  0  0  0  0  0  0  0  0  0  0
   -8.6975    1.9716   -7.4229 N   0  0  0  0  0  0  0  0  0  0  0  0
   -8.8441    2.8623   -6.2824 C   0  0  0  0  0  0  0  0  0  0  0  0
   -8.9721    4.3490   -6.6004 C   0  0  0  0  0  0  0  0  0  0  0  0
   -7.9432    4.8298   -7.4585 O   0  0  0  0  0  0  0  0  0  0  0  0
   -9.0600    4.5061  -16.0035 C   0  0  0  0  0  0  0  0  0  0  0  0
   -9.2046    4.3859  -17.3875 C   0  0  0  0  0  0  0  0  0  0  0  0
  -10.7607    4.1762  -18.0819 Cl  0  0  0  0  0  0  0  0  0  0  0  0
   -8.1269    4.5625  -18.2538 C   0  0  0  0  0  0  0  0  0  0  0  0
   -6.8842    4.8549  -17.6818 C   0  0  0  0  0  0  0  0  0  0  0  0
  1  2  1  0
  2  3  1  0
  3  4  1  0
  4  5  1  0
  5  6  2  0
  6  7  1  0
  7  8  2  0
  8  9  1  0
  9 10  2  0
  9 11  1  0
 11 12  1  0
 12 13  2  0
 13 14  1  0
 14 15  2  0
 15 16  1  0
 16 17  2  0
 16 18  1  0
 18 19  1  0
 19 20  1  0
 20 21  1  0
 21 22  1  0
  8 23  1  0
 23 24  2  0
 24 25  1  0
 24 26  1  0
 26 27  2  0
 27  4  1  0
 27  7  1  0
 17 12  1  0
 22 15  1  0
M  END
>  <smiles>  (545) 
C99502-P125

>  <fragmenstein_outcome>  (545) 
acceptable

>  <inchikey>  (545) 
PHPFVEXUGMJKMC-UHFFFAOYSA-N

>  <fragmenstein_mode>  (545) 
expansion

>  <HIPPO Pose ID>  (545) 
16988

>  <Energy>  (545) 
29.147925

>  <fragmenstein_error>  (545) 


>  <tags>  (545) 
{'openbind_xx01zvns2b_c1_fragmenstein', 'fragmenstein_placed'}

>  <ref_pdb>  (545) 
1

>  <scratch_subdir>  (545) 
/opt/xchem-fragalysis-2/maxwin/BulkDock/SCRATCH/511027/C99502-P125

>  <alias>  (545) 
CCNn1ncc2c(C(=O)Nc3ccc4c(c3)CNCCO4)cc(Cl)cc21

>  <HIPPO Compound ID>  (545) 
81303

>  <fragmenstein_runtime>  (545) 
4.552877

$$$$
NCn1cc2c(C(=O)Nc3ccc4c(c3)CNC4)cc(F)cc2n1
     RDKit          3D

 24 27  0  0  0  0  0  0  0  0999 V2000
   -3.5495    5.2478  -19.6527 N   0  0  0  0  0  0  0  0  0  0  0  0
   -3.9270    6.0044  -18.4443 C   0  0  0  0  0  0  0  0  0  0  0  0
   -5.2234    5.5244  -17.9570 N   0  0  0  0  0  0  0  0  0  0  0  0
   -5.6637    5.5381  -16.6599 C   0  0  0  0  0  0  0  0  0  0  0  0
   -6.9447    5.0493  -16.7087 C   0  0  0  0  0  0  0  0  0  0  0  0
   -7.8573    4.8901  -15.6560 C   0  0  0  0  0  0  0  0  0  0  0  0
   -7.6408    5.3384  -14.2631 C   0  0  0  0  0  0  0  0  0  0  0  0
   -7.2086    6.4144  -14.1055 O   0  0  0  0  0  0  0  0  0  0  0  0
   -8.0891    4.2712  -13.2255 N   0  0  0  0  0  0  0  0  0  0  0  0
   -8.1833    4.3430  -11.8292 C   0  0  0  0  0  0  0  0  0  0  0  0
   -7.9132    5.5388  -11.1429 C   0  0  0  0  0  0  0  0  0  0  0  0
   -8.0172    5.6087   -9.7462 C   0  0  0  0  0  0  0  0  0  0  0  0
   -8.3751    4.4656   -9.0529 C   0  0  0  0  0  0  0  0  0  0  0  0
   -8.6238    3.2718   -9.7222 C   0  0  0  0  0  0  0  0  0  0  0  0
   -8.5473    3.1972  -11.1077 C   0  0  0  0  0  0  0  0  0  0  0  0
   -8.9024    2.1993   -8.7156 C   0  0  0  0  0  0  0  0  0  0  0  0
   -9.1833    2.9231   -7.4463 N   0  0  0  0  0  0  0  0  0  0  0  0
   -8.5195    4.2382   -7.5830 C   0  0  0  0  0  0  0  0  0  0  0  0
   -9.1084    4.4299  -16.1182 C   0  0  0  0  0  0  0  0  0  0  0  0
   -9.3868    4.1648  -17.4903 C   0  0  0  0  0  0  0  0  0  0  0  0
  -10.6363    3.8106  -17.8257 F   0  0  0  0  0  0  0  0  0  0  0  0
   -8.4542    4.2846  -18.5262 C   0  0  0  0  0  0  0  0  0  0  0  0
   -7.2059    4.7525  -18.1013 C   0  0  0  0  0  0  0  0  0  0  0  0
   -6.1119    5.0149  -18.8293 N   0  0  0  0  0  0  0  0  0  0  0  0
  1  2  1  0
  2  3  1  0
  3  4  1  0
  4  5  2  0
  5  6  1  0
  6  7  1  0
  7  8  2  0
  7  9  1  0
  9 10  1  0
 10 11  2  0
 11 12  1  0
 12 13  2  0
 13 14  1  0
 14 15  2  0
 14 16  1  0
 16 17  1  0
 17 18  1  0
  6 19  2  0
 19 20  1  0
 20 21  1  0
 20 22  2  0
 22 23  1  0
 23 24  2  0
 24  3  1  0
 23  5  1  0
 15 10  1  0
 18 13  1  0
M  END
>  <smiles>  (546) 
C99526-P125

>  <fragmenstein_outcome>  (546) 
acceptable

>  <inchikey>  (546) 
HGZFXHWFZIIAAN-UHFFFAOYSA-N

>  <fragmenstein_mode>  (546) 
expansion

>  <HIPPO Pose ID>  (546) 
16991

>  <Energy>  (546) 
64.38274

>  <fragmenstein_error>  (546) 


>  <tags>  (546) 
{'openbind_xx01zvns2b_c1_fragmenstein', 'fragmenstein_placed'}

>  <ref_pdb>  (546) 
1

>  <scratch_subdir>  (546) 
/opt/xchem-fragalysis-2/maxwin/BulkDock/SCRATCH/511027/C99526-P125

>  <alias>  (546) 
NCn1cc2c(C(=O)Nc3ccc4c(c3)CNC4)cc(F)cc2n1

>  <HIPPO Compound ID>  (546) 
99526

>  <fragmenstein_runtime>  (546) 
6.275022

$$$$
O=C(O)Cc1[nH]nc2cc(F)cc(C(=O)Nc3ccc4c(c3)CNC4)c12
     RDKit          3D

 26 29  0  0  0  0  0  0  0  0999 V2000
   -3.6017    8.2079  -14.9792 O   0  0  0  0  0  0  0  0  0  0  0  0
   -4.5874    7.6201  -14.5506 C   0  0  0  0  0  0  0  0  0  0  0  0
   -5.6612    8.2744  -14.0594 O   0  0  0  0  0  0  0  0  0  0  0  0
   -4.7208    6.1128  -14.5776 C   0  0  0  0  0  0  0  0  0  0  0  0
   -5.4618    5.6882  -15.7968 C   0  0  0  0  0  0  0  0  0  0  0  0
   -4.8396    5.7264  -17.0193 N   0  0  0  0  0  0  0  0  0  0  0  0
   -5.5866    5.2914  -18.0358 N   0  0  0  0  0  0  0  0  0  0  0  0
   -6.7686    4.9634  -17.4984 C   0  0  0  0  0  0  0  0  0  0  0  0
   -7.9206    4.4607  -18.1208 C   0  0  0  0  0  0  0  0  0  0  0  0
   -8.9862    4.2308  -17.2366 C   0  0  0  0  0  0  0  0  0  0  0  0
  -10.1343    3.7581  -17.7437 F   0  0  0  0  0  0  0  0  0  0  0  0
   -8.9435    4.4892  -15.8390 C   0  0  0  0  0  0  0  0  0  0  0  0
   -7.8083    5.0147  -15.1946 C   0  0  0  0  0  0  0  0  0  0  0  0
   -7.8280    5.4540  -13.7925 C   0  0  0  0  0  0  0  0  0  0  0  0
   -7.4889    6.5512  -13.5719 O   0  0  0  0  0  0  0  0  0  0  0  0
   -8.2137    4.3114  -12.8264 N   0  0  0  0  0  0  0  0  0  0  0  0
   -8.3504    4.3058  -11.4381 C   0  0  0  0  0  0  0  0  0  0  0  0
   -8.1686    5.4829  -10.6924 C   0  0  0  0  0  0  0  0  0  0  0  0
   -8.2570    5.4719   -9.2968 C   0  0  0  0  0  0  0  0  0  0  0  0
   -8.5162    4.2698   -8.6666 C   0  0  0  0  0  0  0  0  0  0  0  0
   -8.7017    3.1050   -9.3986 C   0  0  0  0  0  0  0  0  0  0  0  0
   -8.6322    3.1035  -10.7852 C   0  0  0  0  0  0  0  0  0  0  0  0
   -8.9479    1.9683   -8.4659 C   0  0  0  0  0  0  0  0  0  0  0  0
   -8.8337    2.5184   -7.0892 N   0  0  0  0  0  0  0  0  0  0  0  0
   -8.6598    3.9798   -7.2132 C   0  0  0  0  0  0  0  0  0  0  0  0
   -6.7309    5.2234  -16.0715 C   0  0  0  0  0  0  0  0  0  0  0  0
  1  2  2  0
  2  3  1  0
  2  4  1  0
  4  5  1  0
  5  6  1  0
  6  7  1  0
  7  8  2  0
  8  9  1  0
  9 10  2  0
 10 11  1  0
 10 12  1  0
 12 13  2  0
 13 14  1  0
 14 15  2  0
 14 16  1  0
 16 17  1  0
 17 18  2  0
 18 19  1  0
 19 20  2  0
 20 21  1  0
 21 22  2  0
 21 23  1  0
 23 24  1  0
 24 25  1  0
 13 26  1  0
 26  5  2  0
 26  8  1  0
 22 17  1  0
 25 20  1  0
M  END
>  <smiles>  (547) 
C99536-P125

>  <fragmenstein_outcome>  (547) 
acceptable

>  <inchikey>  (547) 
TWZDKYGYEZFQMH-UHFFFAOYSA-N

>  <fragmenstein_mode>  (547) 
expansion

>  <HIPPO Pose ID>  (547) 
16994

>  <Energy>  (547) 
29.645235

>  <fragmenstein_error>  (547) 


>  <tags>  (547) 
{'openbind_xx01zvns2b_c1_fragmenstein', 'fragmenstein_placed'}

>  <ref_pdb>  (547) 
1

>  <scratch_subdir>  (547) 
/opt/xchem-fragalysis-2/maxwin/BulkDock/SCRATCH/511027/C99536-P125

>  <alias>  (547) 
O=C(O)Cc1[nH]nc2cc(F)cc(C(=O)Nc3ccc4c(c3)CNC4)c12

>  <HIPPO Compound ID>  (547) 
80188

>  <fragmenstein_runtime>  (547) 
6.305804

$$$$
O=C(C(=O)c1cc(F)cc2[nH]ncc12)c1ccc2c(c1)CNC2
     RDKit          3D

 23 26  0  0  0  0  0  0  0  0999 V2000
   -9.6044    5.7509  -13.6958 O   0  0  0  0  0  0  0  0  0  0  0  0
   -8.5744    5.1806  -13.3488 C   0  0  0  0  0  0  0  0  0  0  0  0
   -7.4717    4.9503  -14.3599 C   0  0  0  0  0  0  0  0  0  0  0  0
   -6.3133    5.0555  -13.9740 O   0  0  0  0  0  0  0  0  0  0  0  0
   -7.8031    4.7243  -15.7936 C   0  0  0  0  0  0  0  0  0  0  0  0
   -9.0883    4.3226  -16.2014 C   0  0  0  0  0  0  0  0  0  0  0  0
   -9.3963    4.1645  -17.5474 C   0  0  0  0  0  0  0  0  0  0  0  0
  -10.6400    3.8231  -17.9077 F   0  0  0  0  0  0  0  0  0  0  0  0
   -8.4521    4.3615  -18.5412 C   0  0  0  0  0  0  0  0  0  0  0  0
   -7.1830    4.7731  -18.1361 C   0  0  0  0  0  0  0  0  0  0  0  0
   -6.0716    5.0908  -18.8735 N   0  0  0  0  0  0  0  0  0  0  0  0
   -5.0224    5.4825  -18.1262 N   0  0  0  0  0  0  0  0  0  0  0  0
   -5.4815    5.3835  -16.8710 C   0  0  0  0  0  0  0  0  0  0  0  0
   -6.8317    4.9569  -16.7993 C   0  0  0  0  0  0  0  0  0  0  0  0
   -8.3563    4.8992  -11.9196 C   0  0  0  0  0  0  0  0  0  0  0  0
   -8.1114    6.0065  -11.0814 C   0  0  0  0  0  0  0  0  0  0  0  0
   -8.0744    5.8521   -9.6949 C   0  0  0  0  0  0  0  0  0  0  0  0
   -8.3137    4.5921   -9.1780 C   0  0  0  0  0  0  0  0  0  0  0  0
   -8.5429    3.4932  -10.0088 C   0  0  0  0  0  0  0  0  0  0  0  0
   -8.5578    3.6203  -11.3907 C   0  0  0  0  0  0  0  0  0  0  0  0
   -8.7658    2.2868   -9.1512 C   0  0  0  0  0  0  0  0  0  0  0  0
   -9.0533    2.8267   -7.7977 N   0  0  0  0  0  0  0  0  0  0  0  0
   -8.3888    4.1474   -7.7542 C   0  0  0  0  0  0  0  0  0  0  0  0
  1  2  2  0
  2  3  1  0
  3  4  2  0
  3  5  1  0
  5  6  2  0
  6  7  1  0
  7  8  1  0
  7  9  2  0
  9 10  1  0
 10 11  1  0
 11 12  1  0
 12 13  2  0
 13 14  1  0
  2 15  1  0
 15 16  2  0
 16 17  1  0
 17 18  2  0
 18 19  1  0
 19 20  2  0
 19 21  1  0
 21 22  1  0
 22 23  1  0
 14  5  1  0
 20 15  1  0
 14 10  2  0
 23 18  1  0
M  END
>  <smiles>  (548) 
C99576-P125

>  <fragmenstein_outcome>  (548) 
acceptable

>  <inchikey>  (548) 
LRJORBXSNDMEGJ-UHFFFAOYSA-N

>  <fragmenstein_mode>  (548) 
expansion

>  <HIPPO Pose ID>  (548) 
17004

>  <Energy>  (548) 
101.503508

>  <fragmenstein_error>  (548) 


>  <tags>  (548) 
{'openbind_xx01zvns2b_c1_fragmenstein', 'fragmenstein_placed'}

>  <ref_pdb>  (548) 
1

>  <scratch_subdir>  (548) 
/opt/xchem-fragalysis-2/maxwin/BulkDock/SCRATCH/511027/C99576-P125

>  <alias>  (548) 
O=C(C(=O)c1cc(F)cc2[nH]ncc12)c1ccc2c(c1)CNC2

>  <HIPPO Compound ID>  (548) 
87873

>  <fragmenstein_runtime>  (548) 
2.328513

$$$$
Cc1cc2c(cc1NC(O)(O)c1cc(F)cc3[nH]ncc13)CNC2
     RDKit          3D

 24 27  0  0  0  0  0  0  0  0999 V2000
   -7.6292    6.9590  -11.1114 C   0  0  0  0  0  0  0  0  0  0  0  0
   -8.0254    5.6691  -10.4461 C   0  0  0  0  0  0  0  0  0  0  0  0
   -7.9833    5.5965   -9.0396 C   0  0  0  0  0  0  0  0  0  0  0  0
   -8.3533    4.4183   -8.4153 C   0  0  0  0  0  0  0  0  0  0  0  0
   -8.7517    3.3154   -9.1526 C   0  0  0  0  0  0  0  0  0  0  0  0
   -8.7989    3.3573  -10.5339 C   0  0  0  0  0  0  0  0  0  0  0  0
   -8.4339    4.5413  -11.2021 C   0  0  0  0  0  0  0  0  0  0  0  0
   -8.4699    4.5779  -12.6148 N   0  0  0  0  0  0  0  0  0  0  0  0
   -7.2804    4.1988  -13.3356 C   0  0  0  0  0  0  0  0  0  0  0  0
   -7.1252    2.8087  -13.2614 O   0  0  0  0  0  0  0  0  0  0  0  0
   -6.1128    4.7153  -12.7586 O   0  0  0  0  0  0  0  0  0  0  0  0
   -7.3805    4.6238  -14.7966 C   0  0  0  0  0  0  0  0  0  0  0  0
   -8.4470    4.1736  -15.6147 C   0  0  0  0  0  0  0  0  0  0  0  0
   -8.4929    4.3895  -16.9891 C   0  0  0  0  0  0  0  0  0  0  0  0
   -9.5251    3.9042  -17.6944 F   0  0  0  0  0  0  0  0  0  0  0  0
   -7.4868    5.0775  -17.6475 C   0  0  0  0  0  0  0  0  0  0  0  0
   -6.4838    5.6116  -16.8403 C   0  0  0  0  0  0  0  0  0  0  0  0
   -5.3831    6.3578  -17.1632 N   0  0  0  0  0  0  0  0  0  0  0  0
   -4.6792    6.7807  -16.0984 N   0  0  0  0  0  0  0  0  0  0  0  0
   -5.3045    6.2050  -15.0684 C   0  0  0  0  0  0  0  0  0  0  0  0
   -6.4274    5.4363  -15.4586 C   0  0  0  0  0  0  0  0  0  0  0  0
   -9.1291    2.2062   -8.2318 C   0  0  0  0  0  0  0  0  0  0  0  0
   -8.7109    2.6457   -6.8749 N   0  0  0  0  0  0  0  0  0  0  0  0
   -8.4571    4.1006   -6.9635 C   0  0  0  0  0  0  0  0  0  0  0  0
  1  2  1  0
  2  3  2  0
  3  4  1  0
  4  5  2  0
  5  6  1  0
  6  7  2  0
  7  8  1  0
  8  9  1  0
  9 10  1  0
  9 11  1  0
  9 12  1  0
 12 13  2  0
 13 14  1  0
 14 15  1  0
 14 16  2  0
 16 17  1  0
 17 18  1  0
 18 19  1  0
 19 20  2  0
 20 21  1  0
  5 22  1  0
 22 23  1  0
 23 24  1  0
  7  2  1  0
 21 12  1  0
 24  4  1  0
 21 17  2  0
M  END
>  <smiles>  (549) 
C99587-P125

>  <fragmenstein_outcome>  (549) 
acceptable

>  <inchikey>  (549) 
XADBFEJLWLKDCY-UHFFFAOYSA-N

>  <fragmenstein_mode>  (549) 
expansion

>  <HIPPO Pose ID>  (549) 
17010

>  <Energy>  (549) 
-68.060581

>  <fragmenstein_error>  (549) 


>  <tags>  (549) 
{'openbind_xx01zvns2b_c1_fragmenstein', 'fragmenstein_placed'}

>  <ref_pdb>  (549) 
1

>  <scratch_subdir>  (549) 
/opt/xchem-fragalysis-2/maxwin/BulkDock/SCRATCH/511027/C99587-P125

>  <alias>  (549) 
Cc1cc2c(cc1NC(O)(O)c1cc(F)cc3[nH]ncc13)CNC2

>  <HIPPO Compound ID>  (549) 
71588

>  <fragmenstein_runtime>  (549) 
4.347249

$$$$
N[C@@H]1NCc2ccc(NC(=O)c3cc(F)cc4c3cnn4N)cc21
     RDKit          3D

 24 27  0  0  0  0  0  0  0  0999 V2000
   -9.3828    1.5773   -8.4950 N   0  0  0  0  0  0  0  0  0  0  0  0
   -8.4311    2.6377   -8.4313 C   0  0  2  0  0  0  0  0  0  0  0  0
   -8.7977    3.3628   -7.2166 N   0  0  0  0  0  0  0  0  0  0  0  0
   -8.4312    4.7689   -7.4711 C   0  0  0  0  0  0  0  0  0  0  0  0
   -8.4066    4.9093   -8.9554 C   0  0  0  0  0  0  0  0  0  0  0  0
   -8.2714    6.0462   -9.7224 C   0  0  0  0  0  0  0  0  0  0  0  0
   -8.2215    5.8906  -11.1070 C   0  0  0  0  0  0  0  0  0  0  0  0
   -8.3316    4.6195  -11.7041 C   0  0  0  0  0  0  0  0  0  0  0  0
   -8.2461    4.5024  -13.0889 N   0  0  0  0  0  0  0  0  0  0  0  0
   -7.9048    5.5552  -14.1650 C   0  0  0  0  0  0  0  0  0  0  0  0
   -7.5663    6.6674  -14.0553 O   0  0  0  0  0  0  0  0  0  0  0  0
   -7.9633    5.0110  -15.5359 C   0  0  0  0  0  0  0  0  0  0  0  0
   -9.1321    4.4402  -16.0491 C   0  0  0  0  0  0  0  0  0  0  0  0
   -9.2307    4.1706  -17.4100 C   0  0  0  0  0  0  0  0  0  0  0  0
  -10.3876    3.7137  -17.9084 F   0  0  0  0  0  0  0  0  0  0  0  0
   -8.1805    4.4159  -18.2892 C   0  0  0  0  0  0  0  0  0  0  0  0
   -7.0147    4.9801  -17.7530 C   0  0  0  0  0  0  0  0  0  0  0  0
   -6.8833    5.2711  -16.4000 C   0  0  0  0  0  0  0  0  0  0  0  0
   -5.5995    5.8472  -16.2861 C   0  0  0  0  0  0  0  0  0  0  0  0
   -4.9748    5.9430  -17.4600 N   0  0  0  0  0  0  0  0  0  0  0  0
   -5.8522    5.4266  -18.3297 N   0  0  0  0  0  0  0  0  0  0  0  0
   -5.6260    5.4900  -19.6902 N   0  0  0  0  0  0  0  0  0  0  0  0
   -8.4784    3.4773  -10.9145 C   0  0  0  0  0  0  0  0  0  0  0  0
   -8.4889    3.6417   -9.5360 C   0  0  0  0  0  0  0  0  0  0  0  0
  2  1  1  6
  2  3  1  0
  3  4  1  0
  4  5  1  0
  5  6  2  0
  6  7  1  0
  7  8  2  0
  8  9  1  0
  9 10  1  0
 10 11  2  0
 10 12  1  0
 12 13  2  0
 13 14  1  0
 14 15  1  0
 14 16  2  0
 16 17  1  0
 17 18  2  0
 18 19  1  0
 19 20  2  0
 20 21  1  0
 21 22  1  0
  8 23  1  0
 23 24  2  0
 24  2  1  0
 24  5  1  0
 18 12  1  0
 21 17  1  0
M  END
>  <smiles>  (550) 
C99593-P125

>  <fragmenstein_outcome>  (550) 
acceptable

>  <inchikey>  (550) 
IPCALBOFARXPRL-UHFFFAOYSA-N

>  <fragmenstein_mode>  (550) 
expansion

>  <HIPPO Pose ID>  (550) 
17011

>  <Energy>  (550) 
-81.831597

>  <fragmenstein_error>  (550) 


>  <tags>  (550) 
{'openbind_xx01zvns2b_c1_fragmenstein', 'fragmenstein_placed'}

>  <ref_pdb>  (550) 
1

>  <scratch_subdir>  (550) 
/opt/xchem-fragalysis-2/maxwin/BulkDock/SCRATCH/511027/C99593-P125

>  <alias>  (550) 
N[C@@H]1NCc2ccc(NC(=O)c3cc(F)cc4c3cnn4N)cc21

>  <HIPPO Compound ID>  (550) 
87080

>  <fragmenstein_runtime>  (550) 
8.436633

$$$$
Cc1cc(NC(=O)c2cc(F)cc3[nH][n+]([O-])cc23)cc2c1CNC2
     RDKit          3D

 24 27  0  0  0  0  0  0  0  0999 V2000
   -9.1125    2.3724   -8.9425 C   0  0  0  0  0  0  0  0  0  0  0  0
   -8.6293    3.5363   -9.7532 C   0  0  0  0  0  0  0  0  0  0  0  0
   -8.5734    3.4577  -11.1569 C   0  0  0  0  0  0  0  0  0  0  0  0
   -8.0973    4.5309  -11.9319 C   0  0  0  0  0  0  0  0  0  0  0  0
   -8.1051    4.4174  -13.3224 N   0  0  0  0  0  0  0  0  0  0  0  0
   -7.4967    5.3387  -14.4114 C   0  0  0  0  0  0  0  0  0  0  0  0
   -6.9620    6.3742  -14.3157 O   0  0  0  0  0  0  0  0  0  0  0  0
   -7.7449    4.8212  -15.7876 C   0  0  0  0  0  0  0  0  0  0  0  0
   -9.0055    4.3091  -16.1255 C   0  0  0  0  0  0  0  0  0  0  0  0
   -9.3210    4.0132  -17.4449 C   0  0  0  0  0  0  0  0  0  0  0  0
  -10.5674    3.6291  -17.7423 F   0  0  0  0  0  0  0  0  0  0  0  0
   -8.4053    4.1578  -18.4762 C   0  0  0  0  0  0  0  0  0  0  0  0
   -7.1510    4.6536  -18.1338 C   0  0  0  0  0  0  0  0  0  0  0  0
   -6.0503    4.9431  -18.9024 N   0  0  0  0  0  0  0  0  0  0  0  0
   -4.9802    5.4421  -18.0877 N   0  0  0  0  0  0  0  0  0  0  0  0
   -3.8787    5.7319  -18.6094 O   0  0  0  0  0  0  0  0  0  0  0  0
   -5.4063    5.5059  -16.8165 C   0  0  0  0  0  0  0  0  0  0  0  0
   -6.7768    5.0041  -16.8087 C   0  0  0  0  0  0  0  0  0  0  0  0
   -7.6571    5.6999  -11.3108 C   0  0  0  0  0  0  0  0  0  0  0  0
   -7.7100    5.7711   -9.9284 C   0  0  0  0  0  0  0  0  0  0  0  0
   -8.1810    4.7086   -9.1607 C   0  0  0  0  0  0  0  0  0  0  0  0
   -8.0638    5.0712   -7.7175 C   0  0  0  0  0  0  0  0  0  0  0  0
   -7.8315    6.5413   -7.6900 N   0  0  0  0  0  0  0  0  0  0  0  0
   -7.2748    6.8769   -9.0283 C   0  0  0  0  0  0  0  0  0  0  0  0
  1  2  1  0
  2  3  2  0
  3  4  1  0
  4  5  1  0
  5  6  1  0
  6  7  2  0
  6  8  1  0
  8  9  2  0
  9 10  1  0
 10 11  1  0
 10 12  2  0
 12 13  1  0
 13 14  1  0
 14 15  1  0
 15 16  1  0
 15 17  2  0
 17 18  1  0
  4 19  2  0
 19 20  1  0
 20 21  2  0
 21 22  1  0
 22 23  1  0
 23 24  1  0
 21  2  1  0
 18  8  1  0
 24 20  1  0
 18 13  2  0
M  CHG  2  15   1  16  -1
M  END
>  <smiles>  (551) 
C25596-P126

>  <fragmenstein_outcome>  (551) 
acceptable

>  <inchikey>  (551) 
UABCHMGRAJQZOT-UHFFFAOYSA-N

>  <fragmenstein_mode>  (551) 
expansion

>  <HIPPO Pose ID>  (551) 
17019

>  <Energy>  (551) 
30.268136

>  <fragmenstein_error>  (551) 


>  <tags>  (551) 
{'openbind_xx01zvns2b_c1_fragmenstein', 'fragmenstein_placed'}

>  <ref_pdb>  (551) 
1

>  <scratch_subdir>  (551) 
/opt/xchem-fragalysis-2/maxwin/BulkDock/SCRATCH/511027/C25596-P126

>  <alias>  (551) 
Cc1cc(NC(=O)c2cc(F)cc3[nH][n+]([O-])cc23)cc2c1CNC2

>  <HIPPO Compound ID>  (551) 
105785

>  <fragmenstein_runtime>  (551) 
3.521987

$$$$
CNCn1cc2c(C(=O)Nc3ccc4c(c3)CNC4)cc(F)cc2n1
     RDKit          3D

 25 28  0  0  0  0  0  0  0  0999 V2000
   -4.1718    8.2218  -18.1652 C   0  0  0  0  0  0  0  0  0  0  0  0
   -3.3351    7.1744  -17.5969 N   0  0  0  0  0  0  0  0  0  0  0  0
   -3.6695    5.8456  -18.1356 C   0  0  0  0  0  0  0  0  0  0  0  0
   -5.0178    5.4431  -17.7376 N   0  0  0  0  0  0  0  0  0  0  0  0
   -5.5366    5.4525  -16.4738 C   0  0  0  0  0  0  0  0  0  0  0  0
   -6.8208    5.0037  -16.6157 C   0  0  0  0  0  0  0  0  0  0  0  0
   -7.7690    4.8432  -15.6059 C   0  0  0  0  0  0  0  0  0  0  0  0
   -7.5997    5.3477  -14.2310 C   0  0  0  0  0  0  0  0  0  0  0  0
   -7.1361    6.4116  -14.0963 O   0  0  0  0  0  0  0  0  0  0  0  0
   -8.0755    4.3212  -13.1774 N   0  0  0  0  0  0  0  0  0  0  0  0
   -8.1652    4.4230  -11.7907 C   0  0  0  0  0  0  0  0  0  0  0  0
   -7.8544    5.6302  -11.1401 C   0  0  0  0  0  0  0  0  0  0  0  0
   -7.9188    5.7345   -9.7479 C   0  0  0  0  0  0  0  0  0  0  0  0
   -8.2972    4.6172   -9.0293 C   0  0  0  0  0  0  0  0  0  0  0  0
   -8.6078    3.4201   -9.6680 C   0  0  0  0  0  0  0  0  0  0  0  0
   -8.5496    3.3036  -11.0483 C   0  0  0  0  0  0  0  0  0  0  0  0
   -8.9394    2.3881   -8.6398 C   0  0  0  0  0  0  0  0  0  0  0  0
   -9.1241    3.1469   -7.3697 N   0  0  0  0  0  0  0  0  0  0  0  0
   -8.4106    4.4303   -7.5556 C   0  0  0  0  0  0  0  0  0  0  0  0
   -8.9708    4.3092  -16.1033 C   0  0  0  0  0  0  0  0  0  0  0  0
   -9.1778    4.0167  -17.4825 C   0  0  0  0  0  0  0  0  0  0  0  0
  -10.3962    3.6016  -17.8531 F   0  0  0  0  0  0  0  0  0  0  0  0
   -8.2134    4.1795  -18.4873 C   0  0  0  0  0  0  0  0  0  0  0  0
   -7.0013    4.6955  -18.0129 C   0  0  0  0  0  0  0  0  0  0  0  0
   -5.8740    4.9966  -18.6755 N   0  0  0  0  0  0  0  0  0  0  0  0
  1  2  1  0
  2  3  1  0
  3  4  1  0
  4  5  1  0
  5  6  2  0
  6  7  1  0
  7  8  1  0
  8  9  2  0
  8 10  1  0
 10 11  1  0
 11 12  2  0
 12 13  1  0
 13 14  2  0
 14 15  1  0
 15 16  2  0
 15 17  1  0
 17 18  1  0
 18 19  1  0
  7 20  2  0
 20 21  1  0
 21 22  1  0
 21 23  2  0
 23 24  1  0
 24 25  2  0
 25  4  1  0
 24  6  1  0
 16 11  1  0
 19 14  1  0
M  END
>  <smiles>  (552) 
C99648-P126

>  <fragmenstein_outcome>  (552) 
acceptable

>  <inchikey>  (552) 
LHUVJMYRUBAKRR-UHFFFAOYSA-N

>  <fragmenstein_mode>  (552) 
expansion

>  <HIPPO Pose ID>  (552) 
17028

>  <Energy>  (552) 
68.609691

>  <fragmenstein_error>  (552) 


>  <tags>  (552) 
{'openbind_xx01zvns2b_c1_fragmenstein', 'fragmenstein_placed'}

>  <ref_pdb>  (552) 
1

>  <scratch_subdir>  (552) 
/opt/xchem-fragalysis-2/maxwin/BulkDock/SCRATCH/511027/C99648-P126

>  <alias>  (552) 
CNCn1cc2c(C(=O)Nc3ccc4c(c3)CNC4)cc(F)cc2n1

>  <HIPPO Compound ID>  (552) 
99648

>  <fragmenstein_runtime>  (552) 
5.824329

$$$$
CCCNCn1cc2c(C(=O)Nc3ccc4c(c3)CNC4)cc(F)c(NC=O)c2n1
     RDKit          3D

 30 33  0  0  0  0  0  0  0  0999 V2000
   -1.9032    9.7377  -17.3740 C   0  0  0  0  0  0  0  0  0  0  0  0
   -3.3648    9.3922  -17.1337 C   0  0  0  0  0  0  0  0  0  0  0  0
   -3.8311    8.1610  -17.9104 C   0  0  0  0  0  0  0  0  0  0  0  0
   -3.0188    6.9983  -17.5495 N   0  0  0  0  0  0  0  0  0  0  0  0
   -3.5316    5.7576  -18.1302 C   0  0  0  0  0  0  0  0  0  0  0  0
   -4.7983    5.4178  -17.4932 N   0  0  0  0  0  0  0  0  0  0  0  0
   -5.0616    5.3941  -16.1482 C   0  0  0  0  0  0  0  0  0  0  0  0
   -6.3687    5.0175  -16.0479 C   0  0  0  0  0  0  0  0  0  0  0  0
   -7.1394    4.8617  -14.8961 C   0  0  0  0  0  0  0  0  0  0  0  0
   -6.8078    5.2391  -13.5136 C   0  0  0  0  0  0  0  0  0  0  0  0
   -6.1784    6.1964  -13.2933 O   0  0  0  0  0  0  0  0  0  0  0  0
   -7.5026    4.2520  -12.5471 N   0  0  0  0  0  0  0  0  0  0  0  0
   -7.6411    4.2891  -11.1738 C   0  0  0  0  0  0  0  0  0  0  0  0
   -7.2624    5.4027  -10.4149 C   0  0  0  0  0  0  0  0  0  0  0  0
   -7.5252    5.4359   -9.0427 C   0  0  0  0  0  0  0  0  0  0  0  0
   -8.1433    4.3385   -8.4673 C   0  0  0  0  0  0  0  0  0  0  0  0
   -8.5251    3.2432   -9.2326 C   0  0  0  0  0  0  0  0  0  0  0  0
   -8.2959    3.2044  -10.5889 C   0  0  0  0  0  0  0  0  0  0  0  0
   -9.1888    2.2298   -8.3688 C   0  0  0  0  0  0  0  0  0  0  0  0
   -8.8749    2.6400   -6.9792 N   0  0  0  0  0  0  0  0  0  0  0  0
   -8.5251    4.0795   -7.0487 C   0  0  0  0  0  0  0  0  0  0  0  0
   -8.4561    4.4514  -15.1885 C   0  0  0  0  0  0  0  0  0  0  0  0
   -8.9249    4.2362  -16.4866 C   0  0  0  0  0  0  0  0  0  0  0  0
  -10.1875    3.8281  -16.5904 F   0  0  0  0  0  0  0  0  0  0  0  0
   -8.1699    4.4803  -17.6346 C   0  0  0  0  0  0  0  0  0  0  0  0
   -8.7570    4.6189  -18.8618 N   0  0  0  0  0  0  0  0  0  0  0  0
  -10.2236    4.8088  -19.2447 C   0  0  0  0  0  0  0  0  0  0  0  0
  -11.1799    4.8020  -18.5879 O   0  0  0  0  0  0  0  0  0  0  0  0
   -6.8371    4.8306  -17.4019 C   0  0  0  0  0  0  0  0  0  0  0  0
   -5.8601    5.1314  -18.2726 N   0  0  0  0  0  0  0  0  0  0  0  0
  1  2  1  0
  2  3  1  0
  3  4  1  0
  4  5  1  0
  5  6  1  0
  6  7  1  0
  7  8  2  0
  8  9  1  0
  9 10  1  0
 10 11  2  0
 10 12  1  0
 12 13  1  0
 13 14  2  0
 14 15  1  0
 15 16  2  0
 16 17  1  0
 17 18  2  0
 17 19  1  0
 19 20  1  0
 20 21  1  0
  9 22  2  0
 22 23  1  0
 23 24  1  0
 23 25  2  0
 25 26  1  0
 26 27  1  0
 27 28  2  0
 25 29  1  0
 29 30  2  0
 30  6  1  0
 29  8  1  0
 18 13  1  0
 21 16  1  0
M  END
>  <smiles>  (553) 
C99658-P126

>  <fragmenstein_outcome>  (553) 
acceptable

>  <inchikey>  (553) 
BFATYDKJFXMZIO-UHFFFAOYSA-N

>  <fragmenstein_mode>  (553) 
expansion

>  <HIPPO Pose ID>  (553) 
17029

>  <Energy>  (553) 
101.91704

>  <fragmenstein_error>  (553) 


>  <tags>  (553) 
{'openbind_xx01zvns2b_c1_fragmenstein', 'fragmenstein_placed'}

>  <ref_pdb>  (553) 
1

>  <scratch_subdir>  (553) 
/opt/xchem-fragalysis-2/maxwin/BulkDock/SCRATCH/511027/C99658-P126

>  <alias>  (553) 
CCCNCn1cc2c(C(=O)Nc3ccc4c(c3)CNC4)cc(F)c(NC=O)c2n1

>  <HIPPO Compound ID>  (553) 
85309

>  <fragmenstein_runtime>  (553) 
6.071624

$$$$
CN(C)Cn1cc2c(C(=O)Nc3ccc4c(c3)CNC4)cc(F)cc2n1
     RDKit          3D

 26 29  0  0  0  0  0  0  0  0999 V2000
   -4.1790    8.1972  -18.1333 C   0  0  0  0  0  0  0  0  0  0  0  0
   -3.3057    7.2091  -17.4958 N   0  0  0  0  0  0  0  0  0  0  0  0
   -1.9078    7.5081  -17.8032 C   0  0  0  0  0  0  0  0  0  0  0  0
   -3.6143    5.8398  -17.9522 C   0  0  0  0  0  0  0  0  0  0  0  0
   -4.9700    5.4682  -17.5500 N   0  0  0  0  0  0  0  0  0  0  0  0
   -5.4925    5.4838  -16.2853 C   0  0  0  0  0  0  0  0  0  0  0  0
   -6.7729    5.0215  -16.4269 C   0  0  0  0  0  0  0  0  0  0  0  0
   -7.7304    4.8410  -15.4270 C   0  0  0  0  0  0  0  0  0  0  0  0
   -7.5980    5.3130  -14.0346 C   0  0  0  0  0  0  0  0  0  0  0  0
   -7.1641    6.3841  -13.8608 O   0  0  0  0  0  0  0  0  0  0  0  0
   -8.1560    4.2799  -13.0246 N   0  0  0  0  0  0  0  0  0  0  0  0
   -8.2066    4.3117  -11.6301 C   0  0  0  0  0  0  0  0  0  0  0  0
   -7.8933    5.4852  -10.9252 C   0  0  0  0  0  0  0  0  0  0  0  0
   -7.9598    5.5253   -9.5290 C   0  0  0  0  0  0  0  0  0  0  0  0
   -8.3315    4.3743   -8.8580 C   0  0  0  0  0  0  0  0  0  0  0  0
   -8.6412    3.2097   -9.5490 C   0  0  0  0  0  0  0  0  0  0  0  0
   -8.5911    3.1608  -10.9351 C   0  0  0  0  0  0  0  0  0  0  0  0
   -9.0203    2.1409   -8.5802 C   0  0  0  0  0  0  0  0  0  0  0  0
   -8.7842    2.7023   -7.2223 N   0  0  0  0  0  0  0  0  0  0  0  0
   -8.4980    4.1421   -7.3955 C   0  0  0  0  0  0  0  0  0  0  0  0
   -8.9254    4.3090  -15.9483 C   0  0  0  0  0  0  0  0  0  0  0  0
   -9.1188    4.0303  -17.3317 C   0  0  0  0  0  0  0  0  0  0  0  0
  -10.3257    3.5978  -17.7178 F   0  0  0  0  0  0  0  0  0  0  0  0
   -8.1522    4.2171  -18.3264 C   0  0  0  0  0  0  0  0  0  0  0  0
   -6.9484    4.7282  -17.8322 C   0  0  0  0  0  0  0  0  0  0  0  0
   -5.8249    5.0333  -18.4949 N   0  0  0  0  0  0  0  0  0  0  0  0
  1  2  1  0
  2  3  1  0
  2  4  1  0
  4  5  1  0
  5  6  1  0
  6  7  2  0
  7  8  1  0
  8  9  1  0
  9 10  2  0
  9 11  1  0
 11 12  1  0
 12 13  2  0
 13 14  1  0
 14 15  2  0
 15 16  1  0
 16 17  2  0
 16 18  1  0
 18 19  1  0
 19 20  1  0
  8 21  2  0
 21 22  1  0
 22 23  1  0
 22 24  2  0
 24 25  1  0
 25 26  2  0
 26  5  1  0
 25  7  1  0
 17 12  1  0
 20 15  1  0
M  END
>  <smiles>  (554) 
C99662-P126

>  <fragmenstein_outcome>  (554) 
acceptable

>  <inchikey>  (554) 
XSKNSUHHTWFTQW-UHFFFAOYSA-N

>  <fragmenstein_mode>  (554) 
expansion

>  <HIPPO Pose ID>  (554) 
17031

>  <Energy>  (554) 
75.389309

>  <fragmenstein_error>  (554) 


>  <tags>  (554) 
{'openbind_xx01zvns2b_c1_fragmenstein', 'fragmenstein_placed'}

>  <ref_pdb>  (554) 
1

>  <scratch_subdir>  (554) 
/opt/xchem-fragalysis-2/maxwin/BulkDock/SCRATCH/511027/C99662-P126

>  <alias>  (554) 
CN(C)Cn1cc2c(C(=O)Nc3ccc4c(c3)CNC4)cc(F)cc2n1

>  <HIPPO Compound ID>  (554) 
76951

>  <fragmenstein_runtime>  (554) 
4.44792

$$$$
O=C(Nc1ccc2c(c1)CNC2)c1cc(F)cc2c1cnn2NC1CCC1
     RDKit          3D

 27 31  0  0  0  0  0  0  0  0999 V2000
   -7.2962    6.6171  -13.4288 O   0  0  0  0  0  0  0  0  0  0  0  0
   -7.5691    5.5099  -13.6783 C   0  0  0  0  0  0  0  0  0  0  0  0
   -8.0613    4.3709  -12.7630 N   0  0  0  0  0  0  0  0  0  0  0  0
   -8.2257    4.3280  -11.3791 C   0  0  0  0  0  0  0  0  0  0  0  0
   -8.0490    5.4877  -10.6044 C   0  0  0  0  0  0  0  0  0  0  0  0
   -8.1728    5.4501   -9.2129 C   0  0  0  0  0  0  0  0  0  0  0  0
   -8.4726    4.2404   -8.6174 C   0  0  0  0  0  0  0  0  0  0  0  0
   -8.6582    3.0947   -9.3797 C   0  0  0  0  0  0  0  0  0  0  0  0
   -8.5418    3.1170  -10.7624 C   0  0  0  0  0  0  0  0  0  0  0  0
   -8.9819    1.9503   -8.4817 C   0  0  0  0  0  0  0  0  0  0  0  0
   -8.8758    2.4627   -7.0885 N   0  0  0  0  0  0  0  0  0  0  0  0
   -8.6769    3.9235   -7.1773 C   0  0  0  0  0  0  0  0  0  0  0  0
   -7.3718    5.0705  -15.0723 C   0  0  0  0  0  0  0  0  0  0  0  0
   -8.4202    4.5886  -15.8589 C   0  0  0  0  0  0  0  0  0  0  0  0
   -8.2138    4.3927  -17.2226 C   0  0  0  0  0  0  0  0  0  0  0  0
   -9.2318    3.9344  -17.9645 F   0  0  0  0  0  0  0  0  0  0  0  0
   -7.0013    4.7009  -17.8507 C   0  0  0  0  0  0  0  0  0  0  0  0
   -5.9468    5.1231  -17.0251 C   0  0  0  0  0  0  0  0  0  0  0  0
   -6.1041    5.2706  -15.6491 C   0  0  0  0  0  0  0  0  0  0  0  0
   -4.8179    5.6009  -15.1772 C   0  0  0  0  0  0  0  0  0  0  0  0
   -3.9078    5.6082  -16.1505 N   0  0  0  0  0  0  0  0  0  0  0  0
   -4.6395    5.4905  -17.2726 N   0  0  0  0  0  0  0  0  0  0  0  0
   -4.0757    5.6274  -18.5573 N   0  0  0  0  0  0  0  0  0  0  0  0
   -3.5682    6.9608  -18.9068 C   0  0  0  0  0  0  0  0  0  0  0  0
   -2.1618    7.1990  -18.3083 C   0  0  0  0  0  0  0  0  0  0  0  0
   -2.5968    8.6616  -18.0641 C   0  0  0  0  0  0  0  0  0  0  0  0
   -4.0630    8.1646  -18.0658 C   0  0  0  0  0  0  0  0  0  0  0  0
  1  2  2  0
  2  3  1  0
  3  4  1  0
  4  5  2  0
  5  6  1  0
  6  7  2  0
  7  8  1  0
  8  9  2  0
  8 10  1  0
 10 11  1  0
 11 12  1  0
  2 13  1  0
 13 14  2  0
 14 15  1  0
 15 16  1  0
 15 17  2  0
 17 18  1  0
 18 19  2  0
 19 20  1  0
 20 21  2  0
 21 22  1  0
 22 23  1  0
 23 24  1  0
 24 25  1  0
 25 26  1  0
 26 27  1  0
  9  4  1  0
 19 13  1  0
 27 24  1  0
 12  7  1  0
 22 18  1  0
M  END
>  <smiles>  (555) 
C99670-P126

>  <fragmenstein_outcome>  (555) 
acceptable

>  <inchikey>  (555) 
WTOQGEWQBMWFAV-UHFFFAOYSA-N

>  <fragmenstein_mode>  (555) 
expansion

>  <HIPPO Pose ID>  (555) 
17038

>  <Energy>  (555) 
29.578265

>  <fragmenstein_error>  (555) 


>  <tags>  (555) 
{'openbind_xx01zvns2b_c1_fragmenstein', 'fragmenstein_placed'}

>  <ref_pdb>  (555) 
1

>  <scratch_subdir>  (555) 
/opt/xchem-fragalysis-2/maxwin/BulkDock/SCRATCH/511027/C99670-P126

>  <alias>  (555) 
O=C(Nc1ccc2c(c1)CNC2)c1cc(F)cc2c1cnn2NC1CCC1

>  <HIPPO Compound ID>  (555) 
99670

>  <fragmenstein_runtime>  (555) 
4.479316

$$$$
COn1nc2cc(F)cc(C(=O)Nc3ccc4c(c3)CNC4)c2n1
     RDKit          3D

 24 27  0  0  0  0  0  0  0  0999 V2000
   -3.4449    6.9661  -17.9726 C   0  0  0  0  0  0  0  0  0  0  0  0
   -3.6759    5.5669  -18.0158 O   0  0  0  0  0  0  0  0  0  0  0  0
   -5.0123    5.3511  -17.7230 N   0  0  0  0  0  0  0  0  0  0  0  0
   -5.8260    4.9442  -18.6801 N   0  0  0  0  0  0  0  0  0  0  0  0
   -6.9482    4.6771  -17.9967 C   0  0  0  0  0  0  0  0  0  0  0  0
   -8.1696    4.1702  -18.4623 C   0  0  0  0  0  0  0  0  0  0  0  0
   -9.1357    4.0094  -17.4654 C   0  0  0  0  0  0  0  0  0  0  0  0
  -10.3466    3.5746  -17.8315 F   0  0  0  0  0  0  0  0  0  0  0  0
   -8.9332    4.3127  -16.0986 C   0  0  0  0  0  0  0  0  0  0  0  0
   -7.7268    4.8470  -15.6112 C   0  0  0  0  0  0  0  0  0  0  0  0
   -7.5870    5.3332  -14.2265 C   0  0  0  0  0  0  0  0  0  0  0  0
   -7.2093    6.4259  -14.0610 O   0  0  0  0  0  0  0  0  0  0  0  0
   -7.9995    4.2482  -13.2023 N   0  0  0  0  0  0  0  0  0  0  0  0
   -8.1192    4.3118  -11.8138 C   0  0  0  0  0  0  0  0  0  0  0  0
   -7.8666    5.4967  -11.1059 C   0  0  0  0  0  0  0  0  0  0  0  0
   -7.9469    5.5266   -9.7066 C   0  0  0  0  0  0  0  0  0  0  0  0
   -8.2743    4.3593   -9.0374 C   0  0  0  0  0  0  0  0  0  0  0  0
   -8.5428    3.1929   -9.7373 C   0  0  0  0  0  0  0  0  0  0  0  0
   -8.4756    3.1509  -11.1222 C   0  0  0  0  0  0  0  0  0  0  0  0
   -8.8642    2.0960   -8.7807 C   0  0  0  0  0  0  0  0  0  0  0  0
   -8.7284    2.6678   -7.4186 N   0  0  0  0  0  0  0  0  0  0  0  0
   -8.3977    4.0977   -7.5734 C   0  0  0  0  0  0  0  0  0  0  0  0
   -6.7130    5.0155  -16.5774 C   0  0  0  0  0  0  0  0  0  0  0  0
   -5.4436    5.4499  -16.4696 N   0  0  0  0  0  0  0  0  0  0  0  0
  1  2  1  0
  2  3  1  0
  3  4  1  0
  4  5  2  0
  5  6  1  0
  6  7  2  0
  7  8  1  0
  7  9  1  0
  9 10  2  0
 10 11  1  0
 11 12  2  0
 11 13  1  0
 13 14  1  0
 14 15  2  0
 15 16  1  0
 16 17  2  0
 17 18  1  0
 18 19  2  0
 18 20  1  0
 20 21  1  0
 21 22  1  0
 10 23  1  0
 23 24  2  0
 24  3  1  0
 23  5  1  0
 19 14  1  0
 22 17  1  0
M  END
>  <smiles>  (556) 
C99691-P126

>  <fragmenstein_outcome>  (556) 
acceptable

>  <inchikey>  (556) 
FQEZKIPDBMOIAT-UHFFFAOYSA-N

>  <fragmenstein_mode>  (556) 
expansion

>  <HIPPO Pose ID>  (556) 
17046

>  <Energy>  (556) 
3.512771

>  <fragmenstein_error>  (556) 


>  <tags>  (556) 
{'openbind_xx01zvns2b_c1_fragmenstein', 'fragmenstein_placed'}

>  <ref_pdb>  (556) 
1

>  <scratch_subdir>  (556) 
/opt/xchem-fragalysis-2/maxwin/BulkDock/SCRATCH/511027/C99691-P126

>  <alias>  (556) 
COn1nc2cc(F)cc(C(=O)Nc3ccc4c(c3)CNC4)c2n1

>  <HIPPO Compound ID>  (556) 
99691

>  <fragmenstein_runtime>  (556) 
6.338261

$$$$
N#Cc1cc(C(=O)Nc2ccc3c(c2)CNC3)c2nn[nH]c2c1
     RDKit          3D

 23 26  0  0  0  0  0  0  0  0999 V2000
  -11.4584    3.9071  -17.9633 N   0  0  0  0  0  0  0  0  0  0  0  0
  -10.3492    4.0792  -17.6940 C   0  0  0  0  0  0  0  0  0  0  0  0
   -8.9887    4.2707  -17.3478 C   0  0  0  0  0  0  0  0  0  0  0  0
   -8.6567    4.5293  -16.0178 C   0  0  0  0  0  0  0  0  0  0  0  0
   -7.3615    4.9507  -15.6780 C   0  0  0  0  0  0  0  0  0  0  0  0
   -7.1112    5.4032  -14.2909 C   0  0  0  0  0  0  0  0  0  0  0  0
   -6.6293    6.4530  -14.1171 O   0  0  0  0  0  0  0  0  0  0  0  0
   -7.6608    4.3687  -13.2741 N   0  0  0  0  0  0  0  0  0  0  0  0
   -7.8116    4.4511  -11.8915 C   0  0  0  0  0  0  0  0  0  0  0  0
   -8.3111    3.3232  -11.2136 C   0  0  0  0  0  0  0  0  0  0  0  0
   -8.4931    3.3367   -9.8282 C   0  0  0  0  0  0  0  0  0  0  0  0
   -8.1900    4.4984   -9.1463 C   0  0  0  0  0  0  0  0  0  0  0  0
   -7.7140    5.6229   -9.8145 C   0  0  0  0  0  0  0  0  0  0  0  0
   -7.5112    5.6173  -11.1866 C   0  0  0  0  0  0  0  0  0  0  0  0
   -7.4428    6.6996   -8.8204 C   0  0  0  0  0  0  0  0  0  0  0  0
   -8.0868    6.2513   -7.5553 N   0  0  0  0  0  0  0  0  0  0  0  0
   -8.2412    4.7730   -7.6830 C   0  0  0  0  0  0  0  0  0  0  0  0
   -6.4144    5.1048  -16.7043 C   0  0  0  0  0  0  0  0  0  0  0  0
   -5.1139    5.5370  -16.7145 N   0  0  0  0  0  0  0  0  0  0  0  0
   -4.6671    5.5028  -17.9666 N   0  0  0  0  0  0  0  0  0  0  0  0
   -5.6663    5.0566  -18.7448 N   0  0  0  0  0  0  0  0  0  0  0  0
   -6.7835    4.7842  -18.0085 C   0  0  0  0  0  0  0  0  0  0  0  0
   -8.0471    4.3366  -18.3723 C   0  0  0  0  0  0  0  0  0  0  0  0
  1  2  3  0
  2  3  1  0
  3  4  2  0
  4  5  1  0
  5  6  1  0
  6  7  2  0
  6  8  1  0
  8  9  1  0
  9 10  2  0
 10 11  1  0
 11 12  2  0
 12 13  1  0
 13 14  2  0
 13 15  1  0
 15 16  1  0
 16 17  1  0
  5 18  2  0
 18 19  1  0
 19 20  2  0
 20 21  1  0
 21 22  1  0
 22 23  2  0
 23  3  1  0
 14  9  1  0
 22 18  1  0
 17 12  1  0
M  END
>  <smiles>  (557) 
C99702-P126

>  <fragmenstein_outcome>  (557) 
acceptable

>  <inchikey>  (557) 
UJEKQJKWSZGYNY-UHFFFAOYSA-N

>  <fragmenstein_mode>  (557) 
expansion

>  <HIPPO Pose ID>  (557) 
17052

>  <Energy>  (557) 
63.931112

>  <fragmenstein_error>  (557) 


>  <tags>  (557) 
{'openbind_xx01zvns2b_c1_fragmenstein', 'fragmenstein_placed'}

>  <ref_pdb>  (557) 
1

>  <scratch_subdir>  (557) 
/opt/xchem-fragalysis-2/maxwin/BulkDock/SCRATCH/511027/C99702-P126

>  <alias>  (557) 
N#Cc1cc(C(=O)Nc2ccc3c(c2)CNC3)c2nn[nH]c2c1

>  <HIPPO Compound ID>  (557) 
78703

>  <fragmenstein_runtime>  (557) 
3.163007

$$$$
NCc1ccc(NNN)c(C(O)(O)Nc2ccc3c(c2)CNC3)c1
     RDKit          3D

 24 26  0  0  0  0  0  0  0  0999 V2000
  -11.4638    3.6764  -17.7890 N   0  0  0  0  0  0  0  0  0  0  0  0
  -10.5288    4.6671  -18.1902 C   0  0  0  0  0  0  0  0  0  0  0  0
   -9.1593    4.4108  -17.6349 C   0  0  0  0  0  0  0  0  0  0  0  0
   -8.1425    4.2837  -18.5613 C   0  0  0  0  0  0  0  0  0  0  0  0
   -6.8527    4.5742  -18.1827 C   0  0  0  0  0  0  0  0  0  0  0  0
   -6.5220    4.8413  -16.8418 C   0  0  0  0  0  0  0  0  0  0  0  0
   -5.2295    5.3604  -16.5323 N   0  0  0  0  0  0  0  0  0  0  0  0
   -4.3179    5.4164  -17.5749 N   0  0  0  0  0  0  0  0  0  0  0  0
   -3.2334    6.2250  -17.2191 N   0  0  0  0  0  0  0  0  0  0  0  0
   -7.5169    4.7331  -15.8363 C   0  0  0  0  0  0  0  0  0  0  0  0
   -7.2021    4.9877  -14.3582 C   0  0  0  0  0  0  0  0  0  0  0  0
   -7.0803    6.3770  -14.1766 O   0  0  0  0  0  0  0  0  0  0  0  0
   -5.9528    4.4188  -14.0407 O   0  0  0  0  0  0  0  0  0  0  0  0
   -8.1943    4.4205  -13.4637 N   0  0  0  0  0  0  0  0  0  0  0  0
   -8.1562    4.5341  -12.0655 C   0  0  0  0  0  0  0  0  0  0  0  0
   -7.7794    5.7124  -11.3923 C   0  0  0  0  0  0  0  0  0  0  0  0
   -7.7797    5.8055   -9.9912 C   0  0  0  0  0  0  0  0  0  0  0  0
   -8.1724    4.7053   -9.2558 C   0  0  0  0  0  0  0  0  0  0  0  0
   -8.5802    3.5447   -9.8917 C   0  0  0  0  0  0  0  0  0  0  0  0
   -8.5905    3.4497  -11.2796 C   0  0  0  0  0  0  0  0  0  0  0  0
   -9.0059    2.5418   -8.8712 C   0  0  0  0  0  0  0  0  0  0  0  0
   -8.6549    3.1239   -7.5461 N   0  0  0  0  0  0  0  0  0  0  0  0
   -8.2871    4.5357   -7.7798 C   0  0  0  0  0  0  0  0  0  0  0  0
   -8.8449    4.5378  -16.2692 C   0  0  0  0  0  0  0  0  0  0  0  0
  1  2  1  0
  2  3  1  0
  3  4  2  0
  4  5  1  0
  5  6  2  0
  6  7  1  0
  7  8  1  0
  8  9  1  0
  6 10  1  0
 10 11  1  0
 11 12  1  0
 11 13  1  0
 11 14  1  0
 14 15  1  0
 15 16  2  0
 16 17  1  0
 17 18  2  0
 18 19  1  0
 19 20  2  0
 19 21  1  0
 21 22  1  0
 22 23  1  0
 10 24  2  0
 24  3  1  0
 20 15  1  0
 23 18  1  0
M  END
>  <smiles>  (558) 
C99711-P126

>  <fragmenstein_outcome>  (558) 
acceptable

>  <inchikey>  (558) 
NPOCZCRWVRDMGE-UHFFFAOYSA-N

>  <fragmenstein_mode>  (558) 
expansion

>  <HIPPO Pose ID>  (558) 
17056

>  <Energy>  (558) 
-57.048661

>  <fragmenstein_error>  (558) 


>  <tags>  (558) 
{'openbind_xx01zvns2b_c1_fragmenstein', 'fragmenstein_placed'}

>  <ref_pdb>  (558) 
1

>  <scratch_subdir>  (558) 
/opt/xchem-fragalysis-2/maxwin/BulkDock/SCRATCH/511027/C99711-P126

>  <alias>  (558) 
NCc1ccc(NNN)c(C(O)(O)Nc2ccc3c(c2)CNC3)c1

>  <HIPPO Compound ID>  (558) 
99711

>  <fragmenstein_runtime>  (558) 
4.627057

$$$$
CN[C@@](N)(O)n1nc2c(C(=O)Nc3ccc4c(c3)CNC4)cc(F)c(C#N)c2n1
     RDKit          3D

 29 32  0  0  0  0  0  0  0  0999 V2000
   -4.0254    8.0985  -17.7243 C   0  0  0  0  0  0  0  0  0  0  0  0
   -3.0436    7.0259  -17.7273 N   0  0  0  0  0  0  0  0  0  0  0  0
   -3.5234    5.7317  -18.1389 C   0  0  1  0  0  0  0  0  0  0  0  0
   -3.6199    5.7808  -19.5830 N   0  0  0  0  0  0  0  0  0  0  0  0
   -2.5739    4.7421  -17.8573 O   0  0  0  0  0  0  0  0  0  0  0  0
   -4.8424    5.3458  -17.5180 N   0  0  0  0  0  0  0  0  0  0  0  0
   -5.0994    5.3966  -16.1826 N   0  0  0  0  0  0  0  0  0  0  0  0
   -6.3686    4.9667  -16.0908 C   0  0  0  0  0  0  0  0  0  0  0  0
   -7.2473    4.7862  -14.9974 C   0  0  0  0  0  0  0  0  0  0  0  0
   -7.0194    5.2161  -13.6078 C   0  0  0  0  0  0  0  0  0  0  0  0
   -6.5747    6.2678  -13.3710 O   0  0  0  0  0  0  0  0  0  0  0  0
   -7.5533    4.1167  -12.6595 N   0  0  0  0  0  0  0  0  0  0  0  0
   -7.7311    4.1220  -11.2856 C   0  0  0  0  0  0  0  0  0  0  0  0
   -7.5418    5.2627  -10.4965 C   0  0  0  0  0  0  0  0  0  0  0  0
   -7.8419    5.2261   -9.1274 C   0  0  0  0  0  0  0  0  0  0  0  0
   -8.3260    4.0437   -8.5863 C   0  0  0  0  0  0  0  0  0  0  0  0
   -8.5071    2.9188   -9.3790 C   0  0  0  0  0  0  0  0  0  0  0  0
   -8.2199    2.9391  -10.7260 C   0  0  0  0  0  0  0  0  0  0  0  0
   -8.9875    1.7838   -8.5419 C   0  0  0  0  0  0  0  0  0  0  0  0
   -9.4304    2.4033   -7.2731 N   0  0  0  0  0  0  0  0  0  0  0  0
   -8.7021    3.6896   -7.1831 C   0  0  0  0  0  0  0  0  0  0  0  0
   -8.5492    4.3208  -15.3149 C   0  0  0  0  0  0  0  0  0  0  0  0
   -8.9575    4.0497  -16.6179 C   0  0  0  0  0  0  0  0  0  0  0  0
  -10.2285    3.7046  -16.8307 F   0  0  0  0  0  0  0  0  0  0  0  0
   -8.1264    4.2313  -17.7049 C   0  0  0  0  0  0  0  0  0  0  0  0
   -8.6386    4.2058  -18.9977 C   0  0  0  0  0  0  0  0  0  0  0  0
   -9.2216    4.2767  -19.9864 N   0  0  0  0  0  0  0  0  0  0  0  0
   -6.8349    4.6894  -17.4586 C   0  0  0  0  0  0  0  0  0  0  0  0
   -5.8720    5.0097  -18.3295 N   0  0  0  0  0  0  0  0  0  0  0  0
  1  2  1  0
  2  3  1  0
  3  4  1  6
  3  5  1  0
  3  6  1  0
  6  7  1  0
  7  8  2  0
  8  9  1  0
  9 10  1  0
 10 11  2  0
 10 12  1  0
 12 13  1  0
 13 14  2  0
 14 15  1  0
 15 16  2  0
 16 17  1  0
 17 18  2  0
 17 19  1  0
 19 20  1  0
 20 21  1  0
  9 22  2  0
 22 23  1  0
 23 24  1  0
 23 25  2  0
 25 26  1  0
 26 27  3  0
 25 28  1  0
 28 29  2  0
 29  6  1  0
 28  8  1  0
 18 13  1  0
 21 16  1  0
M  END
>  <smiles>  (559) 
C99719-P254

>  <fragmenstein_outcome>  (559) 
acceptable

>  <inchikey>  (559) 
CWXNSSZHRWVNDU-UHFFFAOYSA-N

>  <fragmenstein_mode>  (559) 
expansion

>  <HIPPO Pose ID>  (559) 
17058

>  <Energy>  (559) 
37.794336

>  <fragmenstein_error>  (559) 


>  <tags>  (559) 
{'openbind_xx01zvns2b_c1_fragmenstein', 'fragmenstein_placed'}

>  <ref_pdb>  (559) 
1

>  <scratch_subdir>  (559) 
/opt/xchem-fragalysis-2/maxwin/BulkDock/SCRATCH/511027/C99719-P254

>  <alias>  (559) 
CN[C@@](N)(O)n1nc2c(C(=O)Nc3ccc4c(c3)CNC4)cc(F)c(C#N)c2n1

>  <HIPPO Compound ID>  (559) 
97998

>  <fragmenstein_runtime>  (559) 
9.879797

$$$$
COn1nnc2cc(F)cc(C(=O)Nc3ccc4c(c3)CNC4)c21
     RDKit          3D

 24 27  0  0  0  0  0  0  0  0999 V2000
   -3.7208    6.4481  -16.8403 C   0  0  0  0  0  0  0  0  0  0  0  0
   -4.5727    5.4222  -16.3444 O   0  0  0  0  0  0  0  0  0  0  0  0
   -5.5706    5.1759  -17.2697 N   0  0  0  0  0  0  0  0  0  0  0  0
   -5.2353    5.0869  -18.5649 N   0  0  0  0  0  0  0  0  0  0  0  0
   -6.3117    4.7071  -19.2207 N   0  0  0  0  0  0  0  0  0  0  0  0
   -7.3140    4.5328  -18.3128 C   0  0  0  0  0  0  0  0  0  0  0  0
   -8.6301    4.1352  -18.5335 C   0  0  0  0  0  0  0  0  0  0  0  0
   -9.4628    4.0375  -17.4342 C   0  0  0  0  0  0  0  0  0  0  0  0
  -10.7537    3.7527  -17.6350 F   0  0  0  0  0  0  0  0  0  0  0  0
   -9.0119    4.2828  -16.1403 C   0  0  0  0  0  0  0  0  0  0  0  0
   -7.6927    4.6931  -15.8909 C   0  0  0  0  0  0  0  0  0  0  0  0
   -7.3115    5.1290  -14.5152 C   0  0  0  0  0  0  0  0  0  0  0  0
   -6.7144    6.1307  -14.4074 O   0  0  0  0  0  0  0  0  0  0  0  0
   -7.8912    4.1761  -13.4251 N   0  0  0  0  0  0  0  0  0  0  0  0
   -7.9342    4.3085  -12.0294 C   0  0  0  0  0  0  0  0  0  0  0  0
   -7.5212    5.4809  -11.3814 C   0  0  0  0  0  0  0  0  0  0  0  0
   -7.6055    5.6024   -9.9855 C   0  0  0  0  0  0  0  0  0  0  0  0
   -8.0873    4.5307   -9.2513 C   0  0  0  0  0  0  0  0  0  0  0  0
   -8.4991    3.3650   -9.8811 C   0  0  0  0  0  0  0  0  0  0  0  0
   -8.4405    3.2428  -11.2657 C   0  0  0  0  0  0  0  0  0  0  0  0
   -8.9883    2.3926   -8.8572 C   0  0  0  0  0  0  0  0  0  0  0  0
   -8.6757    2.9905   -7.5300 N   0  0  0  0  0  0  0  0  0  0  0  0
   -8.2763    4.3923   -7.7778 C   0  0  0  0  0  0  0  0  0  0  0  0
   -6.8668    4.8230  -17.0220 C   0  0  0  0  0  0  0  0  0  0  0  0
  1  2  1  0
  2  3  1  0
  3  4  1  0
  4  5  2  0
  5  6  1  0
  6  7  2  0
  7  8  1  0
  8  9  1  0
  8 10  2  0
 10 11  1  0
 11 12  1  0
 12 13  2  0
 12 14  1  0
 14 15  1  0
 15 16  2  0
 16 17  1  0
 17 18  2  0
 18 19  1  0
 19 20  2  0
 19 21  1  0
 21 22  1  0
 22 23  1  0
 11 24  2  0
 24  3  1  0
 24  6  1  0
 20 15  1  0
 23 18  1  0
M  END
>  <smiles>  (560) 
C99730-P126

>  <fragmenstein_outcome>  (560) 
acceptable

>  <inchikey>  (560) 
GGEXALUDOFRHQK-UHFFFAOYSA-N

>  <fragmenstein_mode>  (560) 
expansion

>  <HIPPO Pose ID>  (560) 
17062

>  <Energy>  (560) 
12.887672

>  <fragmenstein_error>  (560) 


>  <tags>  (560) 
{'openbind_xx01zvns2b_c1_fragmenstein', 'fragmenstein_placed'}

>  <ref_pdb>  (560) 
1

>  <scratch_subdir>  (560) 
/opt/xchem-fragalysis-2/maxwin/BulkDock/SCRATCH/511027/C99730-P126

>  <alias>  (560) 
COn1nnc2cc(F)cc(C(=O)Nc3ccc4c(c3)CNC4)c21

>  <HIPPO Compound ID>  (560) 
99730

>  <fragmenstein_runtime>  (560) 
3.71782

$$$$
Nn1nc2cc(F)cc(C(=O)Nc3ccc4c(c3)CNC4)c2n1
     RDKit          3D

 23 26  0  0  0  0  0  0  0  0999 V2000
   -3.8135    5.8723  -18.2562 N   0  0  0  0  0  0  0  0  0  0  0  0
   -5.0917    5.4876  -17.8893 N   0  0  0  0  0  0  0  0  0  0  0  0
   -5.9030    4.9421  -18.7838 N   0  0  0  0  0  0  0  0  0  0  0  0
   -7.0047    4.6730  -18.0737 C   0  0  0  0  0  0  0  0  0  0  0  0
   -8.2262    4.1288  -18.5003 C   0  0  0  0  0  0  0  0  0  0  0  0
   -9.1721    3.9814  -17.4819 C   0  0  0  0  0  0  0  0  0  0  0  0
  -10.3945    3.5450  -17.8106 F   0  0  0  0  0  0  0  0  0  0  0  0
   -8.9380    4.3090  -16.1287 C   0  0  0  0  0  0  0  0  0  0  0  0
   -7.7268    4.8714  -15.6881 C   0  0  0  0  0  0  0  0  0  0  0  0
   -7.6013    5.4262  -14.3363 C   0  0  0  0  0  0  0  0  0  0  0  0
   -7.4063    6.5725  -14.2348 O   0  0  0  0  0  0  0  0  0  0  0  0
   -7.8596    4.3539  -13.2530 N   0  0  0  0  0  0  0  0  0  0  0  0
   -8.0202    4.4805  -11.8752 C   0  0  0  0  0  0  0  0  0  0  0  0
   -8.2443    3.3303  -11.1003 C   0  0  0  0  0  0  0  0  0  0  0  0
   -8.3712    3.4205   -9.7088 C   0  0  0  0  0  0  0  0  0  0  0  0
   -8.2933    4.6719   -9.1236 C   0  0  0  0  0  0  0  0  0  0  0  0
   -8.1180    5.8130   -9.8961 C   0  0  0  0  0  0  0  0  0  0  0  0
   -7.9636    5.7368  -11.2687 C   0  0  0  0  0  0  0  0  0  0  0  0
   -8.1745    7.0187   -9.0265 C   0  0  0  0  0  0  0  0  0  0  0  0
   -8.0759    6.5169   -7.6338 N   0  0  0  0  0  0  0  0  0  0  0  0
   -8.3901    5.0587   -7.6878 C   0  0  0  0  0  0  0  0  0  0  0  0
   -6.7461    5.0545  -16.6815 C   0  0  0  0  0  0  0  0  0  0  0  0
   -5.4982    5.5488  -16.6234 N   0  0  0  0  0  0  0  0  0  0  0  0
  1  2  1  0
  2  3  1  0
  3  4  2  0
  4  5  1  0
  5  6  2  0
  6  7  1  0
  6  8  1  0
  8  9  2  0
  9 10  1  0
 10 11  2  0
 10 12  1  0
 12 13  1  0
 13 14  2  0
 14 15  1  0
 15 16  2  0
 16 17  1  0
 17 18  2  0
 17 19  1  0
 19 20  1  0
 20 21  1  0
  9 22  1  0
 22 23  2  0
 23  2  1  0
 22  4  1  0
 18 13  1  0
 21 16  1  0
M  END
>  <smiles>  (561) 
C99707-P126

>  <fragmenstein_outcome>  (561) 
acceptable

>  <inchikey>  (561) 
CLLQBUNRAJDRJL-UHFFFAOYSA-N

>  <fragmenstein_mode>  (561) 
expansion

>  <HIPPO Pose ID>  (561) 
17067

>  <Energy>  (561) 
-51.683607

>  <fragmenstein_error>  (561) 


>  <tags>  (561) 
{'openbind_xx01zvns2b_c1_fragmenstein', 'fragmenstein_placed'}

>  <ref_pdb>  (561) 
1

>  <scratch_subdir>  (561) 
/opt/xchem-fragalysis-2/maxwin/BulkDock/SCRATCH/511027/C99707-P126

>  <alias>  (561) 
Nn1nc2cc(F)cc(C(=O)Nc3ccc4c(c3)CNC4)c2n1

>  <HIPPO Compound ID>  (561) 
99707

>  <fragmenstein_runtime>  (561) 
3.481092

$$$$
O=C(Nc1ccc2c(c1)CNC2)c1cc(F)cc2[nH]nnc12
     RDKit          3D

 22 25  0  0  0  0  0  0  0  0999 V2000
   -7.2267    6.4897  -13.9568 O   0  0  0  0  0  0  0  0  0  0  0  0
   -7.5918    5.4019  -14.1759 C   0  0  0  0  0  0  0  0  0  0  0  0
   -8.0970    4.2997  -13.2125 N   0  0  0  0  0  0  0  0  0  0  0  0
   -8.1655    4.2757  -11.8188 C   0  0  0  0  0  0  0  0  0  0  0  0
   -8.5316    3.0536  -11.2288 C   0  0  0  0  0  0  0  0  0  0  0  0
   -8.6485    2.9153   -9.8485 C   0  0  0  0  0  0  0  0  0  0  0  0
   -8.4061    4.0232   -9.0722 C   0  0  0  0  0  0  0  0  0  0  0  0
   -8.0520    5.2437   -9.6404 C   0  0  0  0  0  0  0  0  0  0  0  0
   -7.9180    5.3913  -11.0150 C   0  0  0  0  0  0  0  0  0  0  0  0
   -7.8429    6.2264   -8.5414 C   0  0  0  0  0  0  0  0  0  0  0  0
   -8.4135    5.5848   -7.3180 N   0  0  0  0  0  0  0  0  0  0  0  0
   -8.4191    4.1296   -7.5923 C   0  0  0  0  0  0  0  0  0  0  0  0
   -7.7128    4.9537  -15.5885 C   0  0  0  0  0  0  0  0  0  0  0  0
   -8.9175    4.3837  -16.0414 C   0  0  0  0  0  0  0  0  0  0  0  0
   -9.1096    4.1011  -17.3901 C   0  0  0  0  0  0  0  0  0  0  0  0
  -10.3038    3.6607  -17.8044 F   0  0  0  0  0  0  0  0  0  0  0  0
   -8.1157    4.3165  -18.3348 C   0  0  0  0  0  0  0  0  0  0  0  0
   -6.9314    4.8790  -17.8635 C   0  0  0  0  0  0  0  0  0  0  0  0
   -5.7815    5.2509  -18.4979 N   0  0  0  0  0  0  0  0  0  0  0  0
   -4.8962    5.7889  -17.6393 N   0  0  0  0  0  0  0  0  0  0  0  0
   -5.4487    5.7694  -16.4291 N   0  0  0  0  0  0  0  0  0  0  0  0
   -6.7009    5.2132  -16.5308 C   0  0  0  0  0  0  0  0  0  0  0  0
  1  2  2  0
  2  3  1  0
  3  4  1  0
  4  5  2  0
  5  6  1  0
  6  7  2  0
  7  8  1  0
  8  9  2  0
  8 10  1  0
 10 11  1  0
 11 12  1  0
  2 13  1  0
 13 14  2  0
 14 15  1  0
 15 16  1  0
 15 17  2  0
 17 18  1  0
 18 19  1  0
 19 20  1  0
 20 21  2  0
 21 22  1  0
  9  4  1  0
 22 13  1  0
 12  7  1  0
 22 18  2  0
M  END
>  <smiles>  (562) 
C119-P126

>  <fragmenstein_outcome>  (562) 
acceptable

>  <inchikey>  (562) 
DHEAQALHKCHLOS-UHFFFAOYSA-N

>  <fragmenstein_mode>  (562) 
expansion

>  <HIPPO Pose ID>  (562) 
17076

>  <Energy>  (562) 
42.663319

>  <fragmenstein_error>  (562) 


>  <tags>  (562) 
{'openbind_xx01zvns2b_c1_fragmenstein', 'fragmenstein_placed'}

>  <ref_pdb>  (562) 
1

>  <scratch_subdir>  (562) 
/opt/xchem-fragalysis-2/maxwin/BulkDock/SCRATCH/511027/C119-P126

>  <alias>  (562) 
O=C(Nc1ccc2c(c1)CNC2)c1cc(F)cc2[nH]nnc12

>  <HIPPO Compound ID>  (562) 
119

>  <fragmenstein_runtime>  (562) 
4.392677

$$$$
COCCOCN=C(Nc1ccc2c(c1)CNC2)c1cc(F)cc2n[n+]([O-])n(C)c12
     RDKit          3D

 30 33  0  0  0  0  0  0  0  0999 V2000
   -5.0198    9.3570  -18.3843 C   0  0  0  0  0  0  0  0  0  0  0  0
   -5.3104    9.4260  -16.9920 O   0  0  0  0  0  0  0  0  0  0  0  0
   -4.1053    9.3969  -16.2134 C   0  0  0  0  0  0  0  0  0  0  0  0
   -4.4389    9.3423  -14.7187 C   0  0  0  0  0  0  0  0  0  0  0  0
   -4.7703    8.0248  -14.2614 O   0  0  0  0  0  0  0  0  0  0  0  0
   -6.0460    7.5736  -14.7228 C   0  0  0  0  0  0  0  0  0  0  0  0
   -6.5723    6.4487  -14.0157 N   0  0  0  0  0  0  0  0  0  0  0  0
   -7.0753    5.3807  -14.2505 C   0  0  0  0  0  0  0  0  0  0  0  0
   -7.6851    4.3007  -13.2750 N   0  0  0  0  0  0  0  0  0  0  0  0
   -7.8867    4.3357  -11.8959 C   0  0  0  0  0  0  0  0  0  0  0  0
   -7.5531    5.4878  -11.1512 C   0  0  0  0  0  0  0  0  0  0  0  0
   -7.6661    5.5336   -9.7594 C   0  0  0  0  0  0  0  0  0  0  0  0
   -8.1035    4.3999   -9.1105 C   0  0  0  0  0  0  0  0  0  0  0  0
   -8.4427    3.2583   -9.8207 C   0  0  0  0  0  0  0  0  0  0  0  0
   -8.3422    3.2086  -11.2059 C   0  0  0  0  0  0  0  0  0  0  0  0
   -8.8393    2.1861   -8.8641 C   0  0  0  0  0  0  0  0  0  0  0  0
   -8.8427    2.8014   -7.5151 N   0  0  0  0  0  0  0  0  0  0  0  0
   -8.2555    4.1481   -7.6532 C   0  0  0  0  0  0  0  0  0  0  0  0
   -7.2430    4.9250  -15.7049 C   0  0  0  0  0  0  0  0  0  0  0  0
   -8.4811    4.4080  -16.1414 C   0  0  0  0  0  0  0  0  0  0  0  0
   -8.6979    4.0460  -17.4710 C   0  0  0  0  0  0  0  0  0  0  0  0
   -9.8535    3.4820  -17.8378 F   0  0  0  0  0  0  0  0  0  0  0  0
   -7.7448    4.2528  -18.4512 C   0  0  0  0  0  0  0  0  0  0  0  0
   -6.4905    4.7306  -18.0656 C   0  0  0  0  0  0  0  0  0  0  0  0
   -5.4116    4.9711  -18.9245 N   0  0  0  0  0  0  0  0  0  0  0  0
   -4.3654    5.2921  -18.0112 N   0  0  0  0  0  0  0  0  0  0  0  0
   -3.3447    5.9242  -18.3534 O   0  0  0  0  0  0  0  0  0  0  0  0
   -4.8708    5.2724  -16.6693 N   0  0  0  0  0  0  0  0  0  0  0  0
   -3.9563    5.3388  -15.5656 C   0  0  0  0  0  0  0  0  0  0  0  0
   -6.2284    4.9973  -16.6812 C   0  0  0  0  0  0  0  0  0  0  0  0
  1  2  1  0
  2  3  1  0
  3  4  1  0
  4  5  1  0
  5  6  1  0
  6  7  1  0
  7  8  2  3
  8  9  1  0
  9 10  1  0
 10 11  2  0
 11 12  1  0
 12 13  2  0
 13 14  1  0
 14 15  2  0
 14 16  1  0
 16 17  1  0
 17 18  1  0
  8 19  1  0
 19 20  2  0
 20 21  1  0
 21 22  1  0
 21 23  2  0
 23 24  1  0
 24 25  1  0
 25 26  2  0
 26 27  1  0
 26 28  1  0
 28 29  1  0
 28 30  1  0
 15 10  1  0
 30 19  1  0
 18 13  1  0
 30 24  2  0
M  CHG  2  26   1  27  -1
M  END
>  <smiles>  (563) 
C99812-P70

>  <fragmenstein_outcome>  (563) 
acceptable

>  <inchikey>  (563) 
MIOUKGKWHVDOJI-UHFFFAOYSA-N

>  <fragmenstein_mode>  (563) 
expansion

>  <HIPPO Pose ID>  (563) 
17081

>  <Energy>  (563) 
47.207447

>  <fragmenstein_error>  (563) 


>  <tags>  (563) 
{'openbind_xx01zvns2b_c1_fragmenstein', 'fragmenstein_placed'}

>  <ref_pdb>  (563) 
1

>  <scratch_subdir>  (563) 
/opt/xchem-fragalysis-2/maxwin/BulkDock/SCRATCH/511027/C99812-P70

>  <alias>  (563) 
COCCOCN=C(Nc1ccc2c(c1)CNC2)c1cc(F)cc2n[n+]([O-])n(C)c12

>  <HIPPO Compound ID>  (563) 
90073

>  <fragmenstein_runtime>  (563) 
5.287563

$$$$
Cc1cc(NC(=O)c2cc(F)cc3[nH][n+]([O-])nc23)cc2c1CNC2
     RDKit          3D

 24 27  0  0  0  0  0  0  0  0999 V2000
   -9.0833    2.2269   -9.0805 C   0  0  0  0  0  0  0  0  0  0  0  0
   -8.5654    3.3882   -9.8730 C   0  0  0  0  0  0  0  0  0  0  0  0
   -8.4670    3.3177  -11.2752 C   0  0  0  0  0  0  0  0  0  0  0  0
   -7.9621    4.3922  -12.0308 C   0  0  0  0  0  0  0  0  0  0  0  0
   -7.8830    4.2683  -13.4190 N   0  0  0  0  0  0  0  0  0  0  0  0
   -7.3836    5.2701  -14.4929 C   0  0  0  0  0  0  0  0  0  0  0  0
   -6.8903    6.3230  -14.3750 O   0  0  0  0  0  0  0  0  0  0  0  0
   -7.6123    4.7655  -15.8737 C   0  0  0  0  0  0  0  0  0  0  0  0
   -8.8614    4.2383  -16.2414 C   0  0  0  0  0  0  0  0  0  0  0  0
   -9.1415    3.9298  -17.5694 C   0  0  0  0  0  0  0  0  0  0  0  0
  -10.3606    3.4966  -17.9078 F   0  0  0  0  0  0  0  0  0  0  0  0
   -8.2095    4.0986  -18.5814 C   0  0  0  0  0  0  0  0  0  0  0  0
   -6.9728    4.6133  -18.2119 C   0  0  0  0  0  0  0  0  0  0  0  0
   -5.8682    4.9354  -18.9608 N   0  0  0  0  0  0  0  0  0  0  0  0
   -4.8324    5.3798  -18.1065 N   0  0  0  0  0  0  0  0  0  0  0  0
   -3.7798    5.9081  -18.5140 O   0  0  0  0  0  0  0  0  0  0  0  0
   -5.3113    5.4575  -16.7577 N   0  0  0  0  0  0  0  0  0  0  0  0
   -6.6266    4.9548  -16.8709 C   0  0  0  0  0  0  0  0  0  0  0  0
   -7.5409    5.5569  -11.3887 C   0  0  0  0  0  0  0  0  0  0  0  0
   -7.6258    5.6162  -10.0068 C   0  0  0  0  0  0  0  0  0  0  0  0
   -8.1194    4.5498   -9.2590 C   0  0  0  0  0  0  0  0  0  0  0  0
   -8.0210    4.8928   -7.8084 C   0  0  0  0  0  0  0  0  0  0  0  0
   -7.7751    6.3620   -7.7624 N   0  0  0  0  0  0  0  0  0  0  0  0
   -7.1962    6.7080   -9.0873 C   0  0  0  0  0  0  0  0  0  0  0  0
  1  2  1  0
  2  3  2  0
  3  4  1  0
  4  5  1  0
  5  6  1  0
  6  7  2  0
  6  8  1  0
  8  9  2  0
  9 10  1  0
 10 11  1  0
 10 12  2  0
 12 13  1  0
 13 14  1  0
 14 15  1  0
 15 16  1  0
 15 17  2  0
 17 18  1  0
  4 19  2  0
 19 20  1  0
 20 21  2  0
 21 22  1  0
 22 23  1  0
 23 24  1  0
 21  2  1  0
 18  8  1  0
 24 20  1  0
 18 13  2  0
M  CHG  2  15   1  16  -1
M  END
>  <smiles>  (564) 
C99813-P127

>  <fragmenstein_outcome>  (564) 
acceptable

>  <inchikey>  (564) 
SJPWWXHIDHEJAX-UHFFFAOYSA-N

>  <fragmenstein_mode>  (564) 
expansion

>  <HIPPO Pose ID>  (564) 
17082

>  <Energy>  (564) 
32.783376

>  <fragmenstein_error>  (564) 


>  <tags>  (564) 
{'openbind_xx01zvns2b_c1_fragmenstein', 'fragmenstein_placed'}

>  <ref_pdb>  (564) 
1

>  <scratch_subdir>  (564) 
/opt/xchem-fragalysis-2/maxwin/BulkDock/SCRATCH/511027/C99813-P127

>  <alias>  (564) 
Cc1cc(NC(=O)c2cc(F)cc3[nH][n+]([O-])nc23)cc2c1CNC2

>  <HIPPO Compound ID>  (564) 
33955

>  <fragmenstein_runtime>  (564) 
2.020805

$$$$
N#Cn1nnc2c(C(=O)Nc3ccc4c(c3)CNC4)cc(F)cc21
     RDKit          3D

 24 27  0  0  0  0  0  0  0  0999 V2000
   -3.5720    5.3623  -19.8841 N   0  0  0  0  0  0  0  0  0  0  0  0
   -4.3252    5.3137  -19.0017 C   0  0  0  0  0  0  0  0  0  0  0  0
   -5.1180    5.3226  -17.7665 N   0  0  0  0  0  0  0  0  0  0  0  0
   -4.5654    5.7851  -16.6188 N   0  0  0  0  0  0  0  0  0  0  0  0
   -5.4713    5.7147  -15.6647 N   0  0  0  0  0  0  0  0  0  0  0  0
   -6.6062    5.1762  -16.1970 C   0  0  0  0  0  0  0  0  0  0  0  0
   -7.8423    4.9076  -15.5873 C   0  0  0  0  0  0  0  0  0  0  0  0
   -8.0260    5.4290  -14.2205 C   0  0  0  0  0  0  0  0  0  0  0  0
   -7.9042    6.5809  -14.0798 O   0  0  0  0  0  0  0  0  0  0  0  0
   -8.2545    4.3140  -13.1810 N   0  0  0  0  0  0  0  0  0  0  0  0
   -8.2856    4.3669  -11.7879 C   0  0  0  0  0  0  0  0  0  0  0  0
   -7.9880    5.5652  -11.1128 C   0  0  0  0  0  0  0  0  0  0  0  0
   -7.9657    5.6214   -9.7153 C   0  0  0  0  0  0  0  0  0  0  0  0
   -8.2534    4.4673   -9.0139 C   0  0  0  0  0  0  0  0  0  0  0  0
   -8.5459    3.2799   -9.6768 C   0  0  0  0  0  0  0  0  0  0  0  0
   -8.5621    3.2098  -11.0621 C   0  0  0  0  0  0  0  0  0  0  0  0
   -8.7721    2.2045   -8.6663 C   0  0  0  0  0  0  0  0  0  0  0  0
   -8.9473    2.9093   -7.3706 N   0  0  0  0  0  0  0  0  0  0  0  0
   -8.2875    4.2263   -7.5426 C   0  0  0  0  0  0  0  0  0  0  0  0
   -8.8485    4.2992  -16.3334 C   0  0  0  0  0  0  0  0  0  0  0  0
   -8.6263    4.0167  -17.6796 C   0  0  0  0  0  0  0  0  0  0  0  0
   -9.6112    3.4421  -18.3780 F   0  0  0  0  0  0  0  0  0  0  0  0
   -7.4250    4.3263  -18.3354 C   0  0  0  0  0  0  0  0  0  0  0  0
   -6.4136    4.8960  -17.5489 C   0  0  0  0  0  0  0  0  0  0  0  0
  1  2  3  0
  2  3  1  0
  3  4  1  0
  4  5  2  0
  5  6  1  0
  6  7  2  0
  7  8  1  0
  8  9  2  0
  8 10  1  0
 10 11  1  0
 11 12  2  0
 12 13  1  0
 13 14  2  0
 14 15  1  0
 15 16  2  0
 15 17  1  0
 17 18  1  0
 18 19  1  0
  7 20  1  0
 20 21  2  0
 21 22  1  0
 21 23  1  0
 23 24  2  0
 24  3  1  0
 24  6  1  0
 16 11  1  0
 19 14  1  0
M  END
>  <smiles>  (565) 
C99819-P87

>  <fragmenstein_outcome>  (565) 
acceptable

>  <inchikey>  (565) 
LRRXLZQVPVVSBU-UHFFFAOYSA-N

>  <fragmenstein_mode>  (565) 
expansion

>  <HIPPO Pose ID>  (565) 
17084

>  <Energy>  (565) 
72.690383

>  <fragmenstein_error>  (565) 


>  <tags>  (565) 
{'openbind_xx01zvns2b_c1_fragmenstein', 'fragmenstein_placed'}

>  <ref_pdb>  (565) 
1

>  <scratch_subdir>  (565) 
/opt/xchem-fragalysis-2/maxwin/BulkDock/SCRATCH/511027/C99819-P87

>  <alias>  (565) 
N#Cn1nnc2c(C(=O)Nc3ccc4c(c3)CNC4)cc(F)cc21

>  <HIPPO Compound ID>  (565) 
99819

>  <fragmenstein_runtime>  (565) 
3.460097

$$$$
CNCn1nnc2c(C(=O)Nc3cc(Br)c4c(c3)CNC4)cc(F)cc21
     RDKit          3D

 26 29  0  0  0  0  0  0  0  0999 V2000
   -3.0203    6.0869  -20.3796 C   0  0  0  0  0  0  0  0  0  0  0  0
   -3.6205    5.4848  -19.2063 N   0  0  0  0  0  0  0  0  0  0  0  0
   -5.0826    5.4671  -19.3207 C   0  0  0  0  0  0  0  0  0  0  0  0
   -5.6350    5.4004  -17.9816 N   0  0  0  0  0  0  0  0  0  0  0  0
   -4.9729    5.9988  -16.9635 N   0  0  0  0  0  0  0  0  0  0  0  0
   -5.7039    5.8528  -15.8766 N   0  0  0  0  0  0  0  0  0  0  0  0
   -6.8704    5.2333  -16.2299 C   0  0  0  0  0  0  0  0  0  0  0  0
   -8.0001    4.9226  -15.4642 C   0  0  0  0  0  0  0  0  0  0  0  0
   -8.0371    5.4203  -14.0761 C   0  0  0  0  0  0  0  0  0  0  0  0
   -7.8266    6.5552  -13.9063 O   0  0  0  0  0  0  0  0  0  0  0  0
   -8.2598    4.2823  -13.0601 N   0  0  0  0  0  0  0  0  0  0  0  0
   -8.3611    4.3161  -11.6721 C   0  0  0  0  0  0  0  0  0  0  0  0
   -8.1589    5.5141  -10.9653 C   0  0  0  0  0  0  0  0  0  0  0  0
   -8.2176    5.5336   -9.5687 C   0  0  0  0  0  0  0  0  0  0  0  0
   -7.9361    7.1542   -8.6402 Br  0  0  0  0  0  0  0  0  0  0  0  0
   -8.4942    4.3580   -8.8981 C   0  0  0  0  0  0  0  0  0  0  0  0
   -8.6916    3.1733   -9.6031 C   0  0  0  0  0  0  0  0  0  0  0  0
   -8.6196    3.1320  -10.9855 C   0  0  0  0  0  0  0  0  0  0  0  0
   -8.9466    2.0618   -8.6392 C   0  0  0  0  0  0  0  0  0  0  0  0
   -9.2538    2.7318   -7.3527 N   0  0  0  0  0  0  0  0  0  0  0  0
   -8.6203    4.0683   -7.4399 C   0  0  0  0  0  0  0  0  0  0  0  0
   -9.0803    4.2929  -16.0838 C   0  0  0  0  0  0  0  0  0  0  0  0
   -9.0533    4.0474  -17.4562 C   0  0  0  0  0  0  0  0  0  0  0  0
  -10.1366    3.5217  -18.0440 F   0  0  0  0  0  0  0  0  0  0  0  0
   -7.9491    4.3618  -18.2508 C   0  0  0  0  0  0  0  0  0  0  0  0
   -6.8617    4.9409  -17.5904 C   0  0  0  0  0  0  0  0  0  0  0  0
  1  2  1  0
  2  3  1  0
  3  4  1  0
  4  5  1  0
  5  6  2  0
  6  7  1  0
  7  8  2  0
  8  9  1  0
  9 10  2  0
  9 11  1  0
 11 12  1  0
 12 13  2  0
 13 14  1  0
 14 15  1  0
 14 16  2  0
 16 17  1  0
 17 18  2  0
 17 19  1  0
 19 20  1  0
 20 21  1  0
  8 22  1  0
 22 23  2  0
 23 24  1  0
 23 25  1  0
 25 26  2  0
 26  4  1  0
 26  7  1  0
 18 12  1  0
 21 16  1  0
M  END
>  <smiles>  (566) 
C99835-P120

>  <fragmenstein_outcome>  (566) 
acceptable

>  <inchikey>  (566) 
KAZWMXJVGSQEOF-UHFFFAOYSA-N

>  <fragmenstein_mode>  (566) 
expansion

>  <HIPPO Pose ID>  (566) 
17089

>  <Energy>  (566) 
68.976673

>  <fragmenstein_error>  (566) 


>  <tags>  (566) 
{'openbind_xx01zvns2b_c1_fragmenstein', 'fragmenstein_placed'}

>  <ref_pdb>  (566) 
1

>  <scratch_subdir>  (566) 
/opt/xchem-fragalysis-2/maxwin/BulkDock/SCRATCH/511027/C99835-P120

>  <alias>  (566) 
CNCn1nnc2c(C(=O)Nc3cc(Br)c4c(c3)CNC4)cc(F)cc21

>  <HIPPO Compound ID>  (566) 
99835

>  <fragmenstein_runtime>  (566) 
5.079677

$$$$
CN(C)Cn1nc2cc(F)cc(C(=O)Nc3ccc4c(c3)CNC4)c2n1
     RDKit          3D

 26 29  0  0  0  0  0  0  0  0999 V2000
   -3.7054    8.0240  -18.4504 C   0  0  0  0  0  0  0  0  0  0  0  0
   -3.4257    6.8168  -19.2298 N   0  0  0  0  0  0  0  0  0  0  0  0
   -2.0885    6.8933  -19.8186 C   0  0  0  0  0  0  0  0  0  0  0  0
   -3.5086    5.6079  -18.3769 C   0  0  0  0  0  0  0  0  0  0  0  0
   -4.9026    5.3303  -18.0003 N   0  0  0  0  0  0  0  0  0  0  0  0
   -5.7657    4.8316  -18.8991 N   0  0  0  0  0  0  0  0  0  0  0  0
   -6.8602    4.6056  -18.1619 C   0  0  0  0  0  0  0  0  0  0  0  0
   -8.0940    4.0845  -18.5748 C   0  0  0  0  0  0  0  0  0  0  0  0
   -9.0299    3.9541  -17.5493 C   0  0  0  0  0  0  0  0  0  0  0  0
  -10.2493    3.5033  -17.8665 F   0  0  0  0  0  0  0  0  0  0  0  0
   -8.7816    4.2940  -16.2008 C   0  0  0  0  0  0  0  0  0  0  0  0
   -7.5549    4.8303  -15.7577 C   0  0  0  0  0  0  0  0  0  0  0  0
   -7.3757    5.3146  -14.3715 C   0  0  0  0  0  0  0  0  0  0  0  0
   -6.9219    6.3792  -14.2099 O   0  0  0  0  0  0  0  0  0  0  0  0
   -7.9456    4.2982  -13.3465 N   0  0  0  0  0  0  0  0  0  0  0  0
   -7.9853    4.3430  -11.9517 C   0  0  0  0  0  0  0  0  0  0  0  0
   -7.6072    5.4933  -11.2431 C   0  0  0  0  0  0  0  0  0  0  0  0
   -7.6781    5.5282   -9.8440 C   0  0  0  0  0  0  0  0  0  0  0  0
   -8.1227    4.3998   -9.1760 C   0  0  0  0  0  0  0  0  0  0  0  0
   -8.4969    3.2610   -9.8738 C   0  0  0  0  0  0  0  0  0  0  0  0
   -8.4386    3.2155  -11.2588 C   0  0  0  0  0  0  0  0  0  0  0  0
   -8.9411    2.2082   -8.9158 C   0  0  0  0  0  0  0  0  0  0  0  0
   -8.7513    2.7681   -7.5572 N   0  0  0  0  0  0  0  0  0  0  0  0
   -8.3020    4.1673   -7.7141 C   0  0  0  0  0  0  0  0  0  0  0  0
   -6.5761    4.9899  -16.7653 C   0  0  0  0  0  0  0  0  0  0  0  0
   -5.3121    5.4535  -16.7213 N   0  0  0  0  0  0  0  0  0  0  0  0
  1  2  1  0
  2  3  1  0
  2  4  1  0
  4  5  1  0
  5  6  1  0
  6  7  2  0
  7  8  1  0
  8  9  2  0
  9 10  1  0
  9 11  1  0
 11 12  2  0
 12 13  1  0
 13 14  2  0
 13 15  1  0
 15 16  1  0
 16 17  2  0
 17 18  1  0
 18 19  2  0
 19 20  1  0
 20 21  2  0
 20 22  1  0
 22 23  1  0
 23 24  1  0
 12 25  1  0
 25 26  2  0
 26  5  1  0
 25  7  1  0
 21 16  1  0
 24 19  1  0
M  END
>  <smiles>  (567) 
C99844-P127

>  <fragmenstein_outcome>  (567) 
acceptable

>  <inchikey>  (567) 
YNAQLDOGXLETQZ-UHFFFAOYSA-N

>  <fragmenstein_mode>  (567) 
expansion

>  <HIPPO Pose ID>  (567) 
17091

>  <Energy>  (567) 
100.961968

>  <fragmenstein_error>  (567) 


>  <tags>  (567) 
{'openbind_xx01zvns2b_c1_fragmenstein', 'fragmenstein_placed'}

>  <ref_pdb>  (567) 
1

>  <scratch_subdir>  (567) 
/opt/xchem-fragalysis-2/maxwin/BulkDock/SCRATCH/511027/C99844-P127

>  <alias>  (567) 
CN(C)Cn1nc2cc(F)cc(C(=O)Nc3ccc4c(c3)CNC4)c2n1

>  <HIPPO Compound ID>  (567) 
99844

>  <fragmenstein_runtime>  (567) 
4.202415

$$$$
CNCn1nnc2c(C(=O)Nc3cc4c(cc3F)CNC4)cc(F)cc21
     RDKit          3D

 26 29  0  0  0  0  0  0  0  0999 V2000
   -3.1595    6.7910  -19.7063 C   0  0  0  0  0  0  0  0  0  0  0  0
   -3.6468    5.4476  -19.4333 N   0  0  0  0  0  0  0  0  0  0  0  0
   -5.1137    5.4124  -19.3863 C   0  0  0  0  0  0  0  0  0  0  0  0
   -5.5767    5.4091  -18.0119 N   0  0  0  0  0  0  0  0  0  0  0  0
   -4.8439    5.9733  -17.0301 N   0  0  0  0  0  0  0  0  0  0  0  0
   -5.5199    5.8386  -15.9027 N   0  0  0  0  0  0  0  0  0  0  0  0
   -6.6953    5.1956  -16.1813 C   0  0  0  0  0  0  0  0  0  0  0  0
   -7.7740    4.8469  -15.3583 C   0  0  0  0  0  0  0  0  0  0  0  0
   -7.8033    5.3454  -13.9691 C   0  0  0  0  0  0  0  0  0  0  0  0
   -7.6950    6.4972  -13.8127 O   0  0  0  0  0  0  0  0  0  0  0  0
   -7.9542    4.2029  -12.9366 N   0  0  0  0  0  0  0  0  0  0  0  0
   -8.0946    4.2484  -11.5395 C   0  0  0  0  0  0  0  0  0  0  0  0
   -8.4474    3.0641  -10.8770 C   0  0  0  0  0  0  0  0  0  0  0  0
   -8.6068    3.0858   -9.4965 C   0  0  0  0  0  0  0  0  0  0  0  0
   -8.4014    4.2475   -8.7595 C   0  0  0  0  0  0  0  0  0  0  0  0
   -8.0246    5.4199   -9.3844 C   0  0  0  0  0  0  0  0  0  0  0  0
   -7.8791    5.4133  -10.7750 C   0  0  0  0  0  0  0  0  0  0  0  0
   -7.5016    6.5658  -11.3415 F   0  0  0  0  0  0  0  0  0  0  0  0
   -8.6360    3.9579   -7.3141 C   0  0  0  0  0  0  0  0  0  0  0  0
   -9.3298    2.6526   -7.2855 N   0  0  0  0  0  0  0  0  0  0  0  0
   -8.9693    1.9774   -8.5596 C   0  0  0  0  0  0  0  0  0  0  0  0
   -8.8646    4.1882  -15.9324 C   0  0  0  0  0  0  0  0  0  0  0  0
   -8.8866    3.9174  -17.2990 C   0  0  0  0  0  0  0  0  0  0  0  0
   -9.9566    3.3210  -17.8328 F   0  0  0  0  0  0  0  0  0  0  0  0
   -7.8418    4.2695  -18.1458 C   0  0  0  0  0  0  0  0  0  0  0  0
   -6.7555    4.9036  -17.5415 C   0  0  0  0  0  0  0  0  0  0  0  0
  1  2  1  0
  2  3  1  0
  3  4  1  0
  4  5  1  0
  5  6  2  0
  6  7  1  0
  7  8  2  0
  8  9  1  0
  9 10  2  0
  9 11  1  0
 11 12  1  0
 12 13  2  0
 13 14  1  0
 14 15  2  0
 15 16  1  0
 16 17  2  0
 17 18  1  0
 15 19  1  0
 19 20  1  0
 20 21  1  0
  8 22  1  0
 22 23  2  0
 23 24  1  0
 23 25  1  0
 25 26  2  0
 26  4  1  0
 26  7  1  0
 17 12  1  0
 21 14  1  0
M  END
>  <smiles>  (568) 
C99854-P127

>  <fragmenstein_outcome>  (568) 
acceptable

>  <inchikey>  (568) 
LZXFDOITTATCKE-UHFFFAOYSA-N

>  <fragmenstein_mode>  (568) 
expansion

>  <HIPPO Pose ID>  (568) 
17093

>  <Energy>  (568) 
91.235528

>  <fragmenstein_error>  (568) 


>  <tags>  (568) 
{'openbind_xx01zvns2b_c1_fragmenstein', 'fragmenstein_placed'}

>  <ref_pdb>  (568) 
1

>  <scratch_subdir>  (568) 
/opt/xchem-fragalysis-2/maxwin/BulkDock/SCRATCH/511027/C99854-P127

>  <alias>  (568) 
CNCn1nnc2c(C(=O)Nc3cc4c(cc3F)CNC4)cc(F)cc21

>  <HIPPO Compound ID>  (568) 
82855

>  <fragmenstein_runtime>  (568) 
5.462719

$$$$
O=C(Nc1ccc2c(c1)CNC2)c1cc(F)cc2c1NC1(CCOCC1)N2
     RDKit          3D

 27 31  0  0  0  0  0  0  0  0999 V2000
   -6.8293    6.3702  -14.0574 O   0  0  0  0  0  0  0  0  0  0  0  0
   -7.2930    5.3130  -14.2556 C   0  0  0  0  0  0  0  0  0  0  0  0
   -7.9043    4.2779  -13.2660 N   0  0  0  0  0  0  0  0  0  0  0  0
   -7.9805    4.2920  -11.8690 C   0  0  0  0  0  0  0  0  0  0  0  0
   -7.7379    5.4585  -11.1285 C   0  0  0  0  0  0  0  0  0  0  0  0
   -7.8989    5.4716   -9.7348 C   0  0  0  0  0  0  0  0  0  0  0  0
   -8.2963    4.3060   -9.1035 C   0  0  0  0  0  0  0  0  0  0  0  0
   -8.5198    3.1419   -9.8289 C   0  0  0  0  0  0  0  0  0  0  0  0
   -8.3740    3.1193  -11.2085 C   0  0  0  0  0  0  0  0  0  0  0  0
   -8.8761    2.0400   -8.8824 C   0  0  0  0  0  0  0  0  0  0  0  0
   -9.2097    2.7194   -7.6042 N   0  0  0  0  0  0  0  0  0  0  0  0
   -8.5223    4.0267   -7.6543 C   0  0  0  0  0  0  0  0  0  0  0  0
   -7.4399    4.8651  -15.6729 C   0  0  0  0  0  0  0  0  0  0  0  0
   -8.6746    4.3410  -16.0878 C   0  0  0  0  0  0  0  0  0  0  0  0
   -8.9033    4.0413  -17.4333 C   0  0  0  0  0  0  0  0  0  0  0  0
  -10.1104    3.6012  -17.8054 F   0  0  0  0  0  0  0  0  0  0  0  0
   -7.9246    4.2336  -18.3957 C   0  0  0  0  0  0  0  0  0  0  0  0
   -6.7344    4.7967  -17.9853 C   0  0  0  0  0  0  0  0  0  0  0  0
   -6.4785    5.1127  -16.6502 C   0  0  0  0  0  0  0  0  0  0  0  0
   -5.1472    5.5848  -16.5268 N   0  0  0  0  0  0  0  0  0  0  0  0
   -4.7444    5.8796  -17.9188 C   0  0  0  0  0  0  0  0  0  0  0  0
   -3.2676    5.5252  -18.1202 C   0  0  0  0  0  0  0  0  0  0  0  0
   -2.7510    6.0093  -19.4657 C   0  0  0  0  0  0  0  0  0  0  0  0
   -2.9780    7.4101  -19.6170 O   0  0  0  0  0  0  0  0  0  0  0  0
   -4.3669    7.7241  -19.5899 C   0  0  0  0  0  0  0  0  0  0  0  0
   -4.9653    7.3684  -18.2395 C   0  0  0  0  0  0  0  0  0  0  0  0
   -5.6008    5.0557  -18.8134 N   0  0  0  0  0  0  0  0  0  0  0  0
  1  2  2  0
  2  3  1  0
  3  4  1  0
  4  5  2  0
  5  6  1  0
  6  7  2  0
  7  8  1  0
  8  9  2  0
  8 10  1  0
 10 11  1  0
 11 12  1  0
  2 13  1  0
 13 14  2  0
 14 15  1  0
 15 16  1  0
 15 17  2  0
 17 18  1  0
 18 19  2  0
 19 20  1  0
 20 21  1  0
 21 22  1  0
 22 23  1  0
 23 24  1  0
 24 25  1  0
 25 26  1  0
 21 27  1  0
  9  4  1  0
 19 13  1  0
 26 21  1  0
 12  7  1  0
 27 18  1  0
M  END
>  <smiles>  (569) 
C99873-P127

>  <fragmenstein_outcome>  (569) 
acceptable

>  <inchikey>  (569) 
WQZLXTMOATUVDM-UHFFFAOYSA-N

>  <fragmenstein_mode>  (569) 
expansion

>  <HIPPO Pose ID>  (569) 
17099

>  <Energy>  (569) 
20.448454

>  <fragmenstein_error>  (569) 


>  <tags>  (569) 
{'openbind_xx01zvns2b_c1_fragmenstein', 'fragmenstein_placed'}

>  <ref_pdb>  (569) 
1

>  <scratch_subdir>  (569) 
/opt/xchem-fragalysis-2/maxwin/BulkDock/SCRATCH/511027/C99873-P127

>  <alias>  (569) 
O=C(Nc1ccc2c(c1)CNC2)c1cc(F)cc2c1NC1(CCOCC1)N2

>  <HIPPO Compound ID>  (569) 
84025

>  <fragmenstein_runtime>  (569) 
4.931718

$$$$
CNC(=O)[C@@H](Nc1ccc2c(c1)C(=O)OC2)c1cc(Cl)cc2c1cnn2CCCc1cc(NC(C)=O)cc(NC(=O)COC)c1
     RDKit          3D

 45 49  0  0  0  0  0  0  0  0999 V2000
   -4.7254    7.2595  -11.4669 C   0  0  0  0  0  0  0  0  0  0  0  0
   -5.4051    6.2610  -12.2405 N   0  0  0  0  0  0  0  0  0  0  0  0
   -6.4180    6.3832  -13.2671 C   0  0  0  0  0  0  0  0  0  0  0  0
   -6.8899    7.3551  -13.7881 O   0  0  0  0  0  0  0  0  0  0  0  0
   -6.8677    4.9380  -13.7367 C   0  0  1  0  0  0  0  0  0  0  0  0
   -8.1351    4.5012  -13.0829 N   0  0  0  0  0  0  0  0  0  0  0  0
   -8.1036    4.3664  -11.6804 C   0  0  0  0  0  0  0  0  0  0  0  0
   -8.0640    3.0839  -11.0918 C   0  0  0  0  0  0  0  0  0  0  0  0
   -8.0644    2.9125   -9.7003 C   0  0  0  0  0  0  0  0  0  0  0  0
   -8.0945    4.0406   -8.9047 C   0  0  0  0  0  0  0  0  0  0  0  0
   -8.1042    5.2916   -9.4777 C   0  0  0  0  0  0  0  0  0  0  0  0
   -8.1124    5.4891  -10.8477 C   0  0  0  0  0  0  0  0  0  0  0  0
   -8.1313    6.2911   -8.4205 C   0  0  0  0  0  0  0  0  0  0  0  0
   -8.0969    7.4975   -8.5558 O   0  0  0  0  0  0  0  0  0  0  0  0
   -8.1858    5.6084   -7.2376 O   0  0  0  0  0  0  0  0  0  0  0  0
   -8.1423    4.1745   -7.4371 C   0  0  0  0  0  0  0  0  0  0  0  0
   -6.9585    4.8909  -15.2683 C   0  0  0  0  0  0  0  0  0  0  0  0
   -8.1317    4.4815  -15.9423 C   0  0  0  0  0  0  0  0  0  0  0  0
   -8.1823    4.3727  -17.3304 C   0  0  0  0  0  0  0  0  0  0  0  0
   -9.6357    3.8542  -18.0752 Cl  0  0  0  0  0  0  0  0  0  0  0  0
   -7.0923    4.6912  -18.1334 C   0  0  0  0  0  0  0  0  0  0  0  0
   -5.9358    5.1260  -17.4822 C   0  0  0  0  0  0  0  0  0  0  0  0
   -5.8485    5.2279  -16.0939 C   0  0  0  0  0  0  0  0  0  0  0  0
   -4.5273    5.6913  -15.8726 C   0  0  0  0  0  0  0  0  0  0  0  0
   -3.8338    5.8617  -16.9985 N   0  0  0  0  0  0  0  0  0  0  0  0
   -4.7034    5.5032  -17.9599 N   0  0  0  0  0  0  0  0  0  0  0  0
   -4.2389    5.4273  -19.3302 C   0  0  0  0  0  0  0  0  0  0  0  0
   -4.7023    6.5822  -20.2135 C   0  0  0  0  0  0  0  0  0  0  0  0
   -4.1510    6.3948  -21.6308 C   0  0  0  0  0  0  0  0  0  0  0  0
   -4.7826    7.2992  -22.6594 C   0  0  0  0  0  0  0  0  0  0  0  0
   -5.4995    6.7536  -23.7342 C   0  0  0  0  0  0  0  0  0  0  0  0
   -6.0418    7.5660  -24.7326 C   0  0  0  0  0  0  0  0  0  0  0  0
   -6.7289    6.9492  -25.7835 N   0  0  0  0  0  0  0  0  0  0  0  0
   -7.3730    7.5061  -26.9494 C   0  0  0  0  0  0  0  0  0  0  0  0
   -8.0631    6.3961  -27.7143 C   0  0  0  0  0  0  0  0  0  0  0  0
   -7.4167    8.6316  -27.3567 O   0  0  0  0  0  0  0  0  0  0  0  0
   -5.8854    8.9509  -24.6454 C   0  0  0  0  0  0  0  0  0  0  0  0
   -5.1920    9.5146  -23.5695 C   0  0  0  0  0  0  0  0  0  0  0  0
   -5.0241   10.8913  -23.4217 N   0  0  0  0  0  0  0  0  0  0  0  0
   -5.5152   11.9956  -24.2120 C   0  0  0  0  0  0  0  0  0  0  0  0
   -6.1275   12.0102  -25.2418 O   0  0  0  0  0  0  0  0  0  0  0  0
   -5.1366   13.3110  -23.5046 C   0  0  0  0  0  0  0  0  0  0  0  0
   -3.9947   13.1900  -22.6545 O   0  0  0  0  0  0  0  0  0  0  0  0
   -2.7794   13.4037  -23.3689 C   0  0  0  0  0  0  0  0  0  0  0  0
   -4.6329    8.6879  -22.5889 C   0  0  0  0  0  0  0  0  0  0  0  0
  1  2  1  0
  2  3  1  0
  3  4  2  0
  3  5  1  0
  5  6  1  1
  6  7  1  0
  7  8  2  0
  8  9  1  0
  9 10  2  0
 10 11  1  0
 11 12  2  0
 11 13  1  0
 13 14  2  0
 13 15  1  0
 15 16  1  0
  5 17  1  0
 17 18  2  0
 18 19  1  0
 19 20  1  0
 19 21  2  0
 21 22  1  0
 22 23  2  0
 23 24  1  0
 24 25  2  0
 25 26  1  0
 26 27  1  0
 27 28  1  0
 28 29  1  0
 29 30  1  0
 30 31  2  0
 31 32  1  0
 32 33  1  0
 33 34  1  0
 34 35  1  0
 34 36  2  0
 32 37  2  0
 37 38  1  0
 38 39  1  0
 39 40  1  0
 40 41  2  0
 40 42  1  0
 42 43  1  0
 43 44  1  0
 38 45  2  0
 12  7  1  0
 23 17  1  0
 45 30  1  0
 16 10  1  0
 26 22  1  0
M  END
>  <smiles>  (570) 
C99915-P127

>  <fragmenstein_outcome>  (570) 
acceptable

>  <inchikey>  (570) 
VRPWPVCBHHWDMU-UHFFFAOYSA-N

>  <fragmenstein_mode>  (570) 
expansion

>  <HIPPO Pose ID>  (570) 
17115

>  <Energy>  (570) 
133.669402

>  <fragmenstein_error>  (570) 


>  <tags>  (570) 
{'openbind_xx01zvns2b_c1_fragmenstein', 'fragmenstein_placed'}

>  <ref_pdb>  (570) 
1

>  <scratch_subdir>  (570) 
/opt/xchem-fragalysis-2/maxwin/BulkDock/SCRATCH/511027/C99915-P127

>  <alias>  (570) 
CNC(=O)[C@@H](Nc1ccc2c(c1)C(=O)OC2)c1cc(Cl)cc2c1cnn2CCCc1cc(NC(C)=O)cc(NC(=O)COC)c1

>  <HIPPO Compound ID>  (570) 
94938

>  <fragmenstein_runtime>  (570) 
37.358851

$$$$
CNC(=O)[C@](O)(Nc1cc2c(cc1S(C)(=O)=O)COC2=O)c1cc(Cl)cc2[nH]ncc12
     RDKit          3D

 31 34  0  0  0  0  0  0  0  0999 V2000
   -4.4589    6.9972  -12.5083 C   0  0  0  0  0  0  0  0  0  0  0  0
   -5.5658    6.2835  -13.0720 N   0  0  0  0  0  0  0  0  0  0  0  0
   -6.8795    6.8047  -13.7129 C   0  0  0  0  0  0  0  0  0  0  0  0
   -7.2259    7.8964  -13.9493 O   0  0  0  0  0  0  0  0  0  0  0  0
   -7.8139    5.5301  -14.0422 C   0  0  2  0  0  0  0  0  0  0  0  0
   -9.1679    5.8912  -13.7620 O   0  0  0  0  0  0  0  0  0  0  0  0
   -7.4590    4.3609  -13.2146 N   0  0  0  0  0  0  0  0  0  0  0  0
   -7.6703    4.3040  -11.8228 C   0  0  0  0  0  0  0  0  0  0  0  0
   -8.1430    5.3984  -11.0766 C   0  0  0  0  0  0  0  0  0  0  0  0
   -8.3176    5.2649   -9.7071 C   0  0  0  0  0  0  0  0  0  0  0  0
   -8.1010    4.0862   -9.0411 C   0  0  0  0  0  0  0  0  0  0  0  0
   -7.5951    2.9989   -9.7161 C   0  0  0  0  0  0  0  0  0  0  0  0
   -7.3067    3.1408  -11.0871 C   0  0  0  0  0  0  0  0  0  0  0  0
   -6.2234    1.8931  -11.7869 S   0  0  0  0  0  0  0  0  0  0  0  0
   -4.8321    2.7725  -12.4337 C   0  0  0  0  0  0  0  0  0  0  0  0
   -6.9092    1.2931  -12.9147 O   0  0  0  0  0  0  0  0  0  0  0  0
   -5.6780    1.1067  -10.6930 O   0  0  0  0  0  0  0  0  0  0  0  0
   -8.4110    4.2551   -7.6122 C   0  0  0  0  0  0  0  0  0  0  0  0
   -8.7246    5.6642   -7.5138 O   0  0  0  0  0  0  0  0  0  0  0  0
   -8.6759    6.2848   -8.7330 C   0  0  0  0  0  0  0  0  0  0  0  0
   -8.8627    7.4646   -8.9525 O   0  0  0  0  0  0  0  0  0  0  0  0
   -7.7316    5.1393  -15.5337 C   0  0  0  0  0  0  0  0  0  0  0  0
   -8.9136    4.6445  -16.1525 C   0  0  0  0  0  0  0  0  0  0  0  0
   -9.0173    4.4150  -17.5212 C   0  0  0  0  0  0  0  0  0  0  0  0
  -10.5470    4.0736  -18.2090 Cl  0  0  0  0  0  0  0  0  0  0  0  0
   -7.9240    4.5587  -18.3550 C   0  0  0  0  0  0  0  0  0  0  0  0
   -6.7326    4.9493  -17.7525 C   0  0  0  0  0  0  0  0  0  0  0  0
   -5.5033    5.1502  -18.3184 N   0  0  0  0  0  0  0  0  0  0  0  0
   -4.5678    5.5494  -17.4422 N   0  0  0  0  0  0  0  0  0  0  0  0
   -5.2332    5.6026  -16.2846 C   0  0  0  0  0  0  0  0  0  0  0  0
   -6.6001    5.2386  -16.3926 C   0  0  0  0  0  0  0  0  0  0  0  0
  1  2  1  0
  2  3  1  0
  3  4  2  0
  3  5  1  0
  5  6  1  1
  5  7  1  0
  7  8  1  0
  8  9  2  0
  9 10  1  0
 10 11  2  0
 11 12  1  0
 12 13  2  0
 13 14  1  0
 14 15  1  0
 14 16  2  0
 14 17  2  0
 11 18  1  0
 18 19  1  0
 19 20  1  0
 20 21  2  0
  5 22  1  0
 22 23  2  0
 23 24  1  0
 24 25  1  0
 24 26  2  0
 26 27  1  0
 27 28  1  0
 28 29  1  0
 29 30  2  0
 30 31  1  0
 13  8  1  0
 31 22  1  0
 20 10  1  0
 31 27  2  0
M  END
>  <smiles>  (571) 
C99926-P276

>  <fragmenstein_outcome>  (571) 
acceptable

>  <inchikey>  (571) 
XAMQMZVCFANKAR-UHFFFAOYSA-N

>  <fragmenstein_mode>  (571) 
expansion

>  <HIPPO Pose ID>  (571) 
17120

>  <Energy>  (571) 
141.07222

>  <fragmenstein_error>  (571) 


>  <tags>  (571) 
{'openbind_xx01zvns2b_c1_fragmenstein', 'fragmenstein_placed'}

>  <ref_pdb>  (571) 
1

>  <scratch_subdir>  (571) 
/opt/xchem-fragalysis-2/maxwin/BulkDock/SCRATCH/511027/C99926-P276

>  <alias>  (571) 
CNC(=O)[C@](O)(Nc1cc2c(cc1S(C)(=O)=O)COC2=O)c1cc(Cl)cc2[nH]ncc12

>  <HIPPO Compound ID>  (571) 
83823

>  <fragmenstein_runtime>  (571) 
8.021678

$$$$
CNC(=O)[C@@](O)(Nc1ccc2c(c1)C(=O)OC2)c1cc(Cl)cc2[nH]ncc12
     RDKit          3D

 27 30  0  0  0  0  0  0  0  0999 V2000
   -9.0486    8.1970  -12.8263 C   0  0  0  0  0  0  0  0  0  0  0  0
   -8.4847    6.9617  -13.2859 N   0  0  0  0  0  0  0  0  0  0  0  0
   -7.0614    6.6420  -13.8383 C   0  0  0  0  0  0  0  0  0  0  0  0
   -6.1614    7.3539  -14.0732 O   0  0  0  0  0  0  0  0  0  0  0  0
   -6.9943    5.0316  -14.0554 C   0  0  1  0  0  0  0  0  0  0  0  0
   -5.7165    4.4817  -13.8194 O   0  0  0  0  0  0  0  0  0  0  0  0
   -7.9442    4.3157  -13.1629 N   0  0  0  0  0  0  0  0  0  0  0  0
   -7.8417    4.2959  -11.7575 C   0  0  0  0  0  0  0  0  0  0  0  0
   -7.2111    5.3154  -11.0068 C   0  0  0  0  0  0  0  0  0  0  0  0
   -7.2706    5.3717   -9.6079 C   0  0  0  0  0  0  0  0  0  0  0  0
   -7.9582    4.3815   -8.9453 C   0  0  0  0  0  0  0  0  0  0  0  0
   -8.5529    3.3624   -9.6515 C   0  0  0  0  0  0  0  0  0  0  0  0
   -8.5336    3.3043  -11.0418 C   0  0  0  0  0  0  0  0  0  0  0  0
   -9.2050    2.4732   -8.6960 C   0  0  0  0  0  0  0  0  0  0  0  0
   -9.8218    1.4621   -8.9490 O   0  0  0  0  0  0  0  0  0  0  0  0
   -9.0486    3.0346   -7.4591 O   0  0  0  0  0  0  0  0  0  0  0  0
   -8.2059    4.1963   -7.5038 C   0  0  0  0  0  0  0  0  0  0  0  0
   -7.3099    4.7776  -15.5416 C   0  0  0  0  0  0  0  0  0  0  0  0
   -8.6057    4.4196  -15.9913 C   0  0  0  0  0  0  0  0  0  0  0  0
   -8.8983    4.2489  -17.3493 C   0  0  0  0  0  0  0  0  0  0  0  0
  -10.5121    4.0586  -17.8786 Cl  0  0  0  0  0  0  0  0  0  0  0  0
   -7.9305    4.3719  -18.3335 C   0  0  0  0  0  0  0  0  0  0  0  0
   -6.6783    4.7843  -17.9063 C   0  0  0  0  0  0  0  0  0  0  0  0
   -5.5588    5.0901  -18.6283 N   0  0  0  0  0  0  0  0  0  0  0  0
   -4.5229    5.5025  -17.8801 N   0  0  0  0  0  0  0  0  0  0  0  0
   -5.0010    5.4307  -16.6329 C   0  0  0  0  0  0  0  0  0  0  0  0
   -6.3504    4.9958  -16.5719 C   0  0  0  0  0  0  0  0  0  0  0  0
  1  2  1  0
  2  3  1  0
  3  4  2  0
  3  5  1  0
  5  6  1  1
  5  7  1  0
  7  8  1  0
  8  9  2  0
  9 10  1  0
 10 11  2  0
 11 12  1  0
 12 13  2  0
 12 14  1  0
 14 15  2  0
 14 16  1  0
 16 17  1  0
  5 18  1  0
 18 19  2  0
 19 20  1  0
 20 21  1  0
 20 22  2  0
 22 23  1  0
 23 24  1  0
 24 25  1  0
 25 26  2  0
 26 27  1  0
 13  8  1  0
 27 18  1  0
 17 11  1  0
 27 23  2  0
M  END
>  <smiles>  (572) 
C99929-P127

>  <fragmenstein_outcome>  (572) 
acceptable

>  <inchikey>  (572) 
KCGDHQWNFQVNMW-UHFFFAOYSA-N

>  <fragmenstein_mode>  (572) 
expansion

>  <HIPPO Pose ID>  (572) 
17137

>  <Energy>  (572) 
97.055668

>  <fragmenstein_error>  (572) 


>  <tags>  (572) 
{'openbind_xx01zvns2b_c1_fragmenstein', 'fragmenstein_placed'}

>  <ref_pdb>  (572) 
1

>  <scratch_subdir>  (572) 
/opt/xchem-fragalysis-2/maxwin/BulkDock/SCRATCH/511027/C99929-P127

>  <alias>  (572) 
CNC(=O)[C@@](O)(Nc1ccc2c(c1)C(=O)OC2)c1cc(Cl)cc2[nH]ncc12

>  <HIPPO Compound ID>  (572) 
101347

>  <fragmenstein_runtime>  (572) 
4.573678

$$$$
CNC(=O)[C@@](O)(Nc1ccc2c(c1)C(=O)OC2)c1cc(Cl)cc2c1CN(C)[N@+]2(C)[O-]
     RDKit          3D

 30 33  0  0  0  0  0  0  0  0999 V2000
   -9.7232    8.2047  -12.8395 C   0  0  0  0  0  0  0  0  0  0  0  0
   -9.0589    7.0123  -13.2776 N   0  0  0  0  0  0  0  0  0  0  0  0
   -7.5912    6.7866  -13.7445 C   0  0  0  0  0  0  0  0  0  0  0  0
   -6.7240    7.5536  -13.9159 O   0  0  0  0  0  0  0  0  0  0  0  0
   -7.4231    5.1734  -14.0008 C   0  0  1  0  0  0  0  0  0  0  0  0
   -6.1213    4.6639  -13.7849 O   0  0  0  0  0  0  0  0  0  0  0  0
   -8.3295    4.4015  -13.1174 N   0  0  0  0  0  0  0  0  0  0  0  0
   -8.1750    4.3895  -11.7104 C   0  0  0  0  0  0  0  0  0  0  0  0
   -7.6162    5.4700  -10.9852 C   0  0  0  0  0  0  0  0  0  0  0  0
   -7.5887    5.5179   -9.5877 C   0  0  0  0  0  0  0  0  0  0  0  0
   -8.1255    4.4622   -8.8919 C   0  0  0  0  0  0  0  0  0  0  0  0
   -8.6722    3.3918   -9.5621 C   0  0  0  0  0  0  0  0  0  0  0  0
   -8.7216    3.3342  -10.9565 C   0  0  0  0  0  0  0  0  0  0  0  0
   -9.2026    2.4692   -8.5534 C   0  0  0  0  0  0  0  0  0  0  0  0
   -9.7917    1.4266   -8.7325 O   0  0  0  0  0  0  0  0  0  0  0  0
   -8.9713    3.0358   -7.3283 O   0  0  0  0  0  0  0  0  0  0  0  0
   -8.2439    4.2638   -7.4373 C   0  0  0  0  0  0  0  0  0  0  0  0
   -7.7093    4.9579  -15.4984 C   0  0  0  0  0  0  0  0  0  0  0  0
   -8.9484    4.5204  -16.0097 C   0  0  0  0  0  0  0  0  0  0  0  0
   -9.1934    4.4545  -17.3988 C   0  0  0  0  0  0  0  0  0  0  0  0
  -10.7452    4.0562  -18.0090 Cl  0  0  0  0  0  0  0  0  0  0  0  0
   -8.2198    4.8098  -18.3174 C   0  0  0  0  0  0  0  0  0  0  0  0
   -7.0165    5.2797  -17.8311 C   0  0  0  0  0  0  0  0  0  0  0  0
   -6.7566    5.3293  -16.4600 C   0  0  0  0  0  0  0  0  0  0  0  0
   -5.3443    5.8052  -16.2810 C   0  0  0  0  0  0  0  0  0  0  0  0
   -4.9888    6.4273  -17.5582 N   0  0  0  0  0  0  0  0  0  0  0  0
   -3.5757    6.4347  -17.8604 C   0  0  0  0  0  0  0  0  0  0  0  0
   -5.8625    5.7889  -18.6141 N   0  0  1  0  0  0  0  0  0  0  0  0
   -5.2272    4.6634  -19.3493 C   0  0  0  0  0  0  0  0  0  0  0  0
   -6.2280    6.8070  -19.4155 O   0  0  0  0  0  0  0  0  0  0  0  0
  1  2  1  0
  2  3  1  0
  3  4  2  0
  3  5  1  0
  5  6  1  6
  5  7  1  0
  7  8  1  0
  8  9  2  0
  9 10  1  0
 10 11  2  0
 11 12  1  0
 12 13  2  0
 12 14  1  0
 14 15  2  0
 14 16  1  0
 16 17  1  0
  5 18  1  0
 18 19  2  0
 19 20  1  0
 20 21  1  0
 20 22  2  0
 22 23  1  0
 23 24  2  0
 24 25  1  0
 25 26  1  0
 26 27  1  0
 26 28  1  0
 28 29  1  6
 28 30  1  0
 13  8  1  0
 24 18  1  0
 17 11  1  0
 28 23  1  0
M  CHG  2  28   1  30  -1
M  END
>  <smiles>  (573) 
C99974-P128

>  <fragmenstein_outcome>  (573) 
acceptable

>  <inchikey>  (573) 
SMJIHHOLZXVCHZ-UHFFFAOYSA-N

>  <fragmenstein_mode>  (573) 
expansion

>  <HIPPO Pose ID>  (573) 
17139

>  <Energy>  (573) 
99.915436

>  <fragmenstein_error>  (573) 


>  <tags>  (573) 
{'openbind_xx01zvns2b_c1_fragmenstein', 'fragmenstein_placed'}

>  <ref_pdb>  (573) 
1

>  <scratch_subdir>  (573) 
/opt/xchem-fragalysis-2/maxwin/BulkDock/SCRATCH/511027/C99974-P128

>  <alias>  (573) 
CNC(=O)[C@@](O)(Nc1ccc2c(c1)C(=O)OC2)c1cc(Cl)cc2c1CN(C)[N@+]2(C)[O-]

>  <HIPPO Compound ID>  (573) 
99974

>  <fragmenstein_runtime>  (573) 
4.42101

$$$$
CNC(=O)[C@](O)(Nc1ccc2c(c1)C(=O)OC2)c1cc(Cl)cc2[nH]nc(N)c12
     RDKit          3D

 28 31  0  0  0  0  0  0  0  0999 V2000
   -4.7741    2.3992  -13.0658 C   0  0  0  0  0  0  0  0  0  0  0  0
   -5.8390    3.2287  -13.5493 N   0  0  0  0  0  0  0  0  0  0  0  0
   -5.9085    4.7762  -13.7473 C   0  0  0  0  0  0  0  0  0  0  0  0
   -5.1330    5.6133  -13.4724 O   0  0  0  0  0  0  0  0  0  0  0  0
   -7.3645    5.1425  -14.3372 C   0  0  2  0  0  0  0  0  0  0  0  0
   -7.6584    6.5285  -14.3415 O   0  0  0  0  0  0  0  0  0  0  0  0
   -8.4042    4.5334  -13.4516 N   0  0  0  0  0  0  0  0  0  0  0  0
   -8.2586    4.6105  -12.0422 C   0  0  0  0  0  0  0  0  0  0  0  0
   -7.7569    5.7619  -11.3916 C   0  0  0  0  0  0  0  0  0  0  0  0
   -7.6742    5.8601   -9.9969 C   0  0  0  0  0  0  0  0  0  0  0  0
   -8.1174    4.7994   -9.2394 C   0  0  0  0  0  0  0  0  0  0  0  0
   -8.6333    3.6782   -9.8474 C   0  0  0  0  0  0  0  0  0  0  0  0
   -8.7195    3.5560  -11.2324 C   0  0  0  0  0  0  0  0  0  0  0  0
   -9.1078    2.7788   -8.7956 C   0  0  0  0  0  0  0  0  0  0  0  0
   -9.6930    1.7273   -8.9333 O   0  0  0  0  0  0  0  0  0  0  0  0
   -8.8415    3.3893   -7.5991 O   0  0  0  0  0  0  0  0  0  0  0  0
   -8.1575    4.6371   -7.7759 C   0  0  0  0  0  0  0  0  0  0  0  0
   -7.5494    4.7895  -15.8265 C   0  0  0  0  0  0  0  0  0  0  0  0
   -8.8695    4.4704  -16.2736 C   0  0  0  0  0  0  0  0  0  0  0  0
   -9.1979    4.2923  -17.6143 C   0  0  0  0  0  0  0  0  0  0  0  0
  -10.8277    4.0851  -18.0962 Cl  0  0  0  0  0  0  0  0  0  0  0  0
   -8.2366    4.3668  -18.5998 C   0  0  0  0  0  0  0  0  0  0  0  0
   -6.9563    4.7289  -18.1990 C   0  0  0  0  0  0  0  0  0  0  0  0
   -5.8575    4.9674  -18.9785 N   0  0  0  0  0  0  0  0  0  0  0  0
   -4.7908    5.3780  -18.2885 N   0  0  0  0  0  0  0  0  0  0  0  0
   -5.2162    5.4021  -17.0267 C   0  0  0  0  0  0  0  0  0  0  0  0
   -4.3792    5.8170  -16.0745 N   0  0  0  0  0  0  0  0  0  0  0  0
   -6.5774    4.9687  -16.8725 C   0  0  0  0  0  0  0  0  0  0  0  0
  1  2  1  0
  2  3  1  0
  3  4  2  0
  3  5  1  0
  5  6  1  6
  5  7  1  0
  7  8  1  0
  8  9  2  0
  9 10  1  0
 10 11  2  0
 11 12  1  0
 12 13  2  0
 12 14  1  0
 14 15  2  0
 14 16  1  0
 16 17  1  0
  5 18  1  0
 18 19  2  0
 19 20  1  0
 20 21  1  0
 20 22  2  0
 22 23  1  0
 23 24  1  0
 24 25  1  0
 25 26  2  0
 26 27  1  0
 26 28  1  0
 13  8  1  0
 28 18  1  0
 17 11  1  0
 28 23  2  0
M  END
>  <smiles>  (574) 
C99977-P128

>  <fragmenstein_outcome>  (574) 
acceptable

>  <inchikey>  (574) 
QAEKRTGNCHWXKH-UHFFFAOYSA-N

>  <fragmenstein_mode>  (574) 
expansion

>  <HIPPO Pose ID>  (574) 
17143

>  <Energy>  (574) 
52.121679

>  <fragmenstein_error>  (574) 


>  <tags>  (574) 
{'openbind_xx01zvns2b_c1_fragmenstein', 'fragmenstein_placed'}

>  <ref_pdb>  (574) 
1

>  <scratch_subdir>  (574) 
/opt/xchem-fragalysis-2/maxwin/BulkDock/SCRATCH/511027/C99977-P128

>  <alias>  (574) 
CNC(=O)[C@](O)(Nc1ccc2c(c1)C(=O)OC2)c1cc(Cl)cc2[nH]nc(N)c12

>  <HIPPO Compound ID>  (574) 
106545

>  <fragmenstein_runtime>  (574) 
5.176947

$$$$
CNC(=O)[C@@](O)(Nc1ccc2c(c1)C(=O)OC2)c1cc(Cl)cc2nn(C(F)(F)F)cc12
     RDKit          3D

 31 34  0  0  0  0  0  0  0  0999 V2000
   -4.1019    5.5413  -12.1908 C   0  0  0  0  0  0  0  0  0  0  0  0
   -5.1929    4.9901  -12.9331 N   0  0  0  0  0  0  0  0  0  0  0  0
   -6.3018    5.6938  -13.7793 C   0  0  0  0  0  0  0  0  0  0  0  0
   -6.4417    6.8243  -14.0579 O   0  0  0  0  0  0  0  0  0  0  0  0
   -7.2993    4.5155  -14.2376 C   0  0  1  0  0  0  0  0  0  0  0  0
   -6.6980    3.2306  -14.0711 O   0  0  0  0  0  0  0  0  0  0  0  0
   -8.5366    4.4607  -13.4181 N   0  0  0  0  0  0  0  0  0  0  0  0
   -8.4241    4.5958  -12.0159 C   0  0  0  0  0  0  0  0  0  0  0  0
   -8.1309    5.8483  -11.4370 C   0  0  0  0  0  0  0  0  0  0  0  0
   -8.0219    6.0170  -10.0524 C   0  0  0  0  0  0  0  0  0  0  0  0
   -8.2675    4.9277   -9.2420 C   0  0  0  0  0  0  0  0  0  0  0  0
   -8.6151    3.7117   -9.7888 C   0  0  0  0  0  0  0  0  0  0  0  0
   -8.6728    3.5067  -11.1625 C   0  0  0  0  0  0  0  0  0  0  0  0
   -9.0052    2.8208   -8.6944 C   0  0  0  0  0  0  0  0  0  0  0  0
   -9.5158    1.7249   -8.7795 O   0  0  0  0  0  0  0  0  0  0  0  0
   -8.7868    3.5095   -7.5297 O   0  0  0  0  0  0  0  0  0  0  0  0
   -8.2768    4.8286   -7.7721 C   0  0  0  0  0  0  0  0  0  0  0  0
   -7.6237    4.6542  -15.7307 C   0  0  0  0  0  0  0  0  0  0  0  0
   -8.9176    4.3559  -16.2568 C   0  0  0  0  0  0  0  0  0  0  0  0
   -9.2556    4.2999  -17.6410 C   0  0  0  0  0  0  0  0  0  0  0  0
  -10.8924    4.0611  -18.0889 Cl  0  0  0  0  0  0  0  0  0  0  0  0
   -8.3439    4.4853  -18.6748 C   0  0  0  0  0  0  0  0  0  0  0  0
   -7.0939    4.8988  -18.2244 C   0  0  0  0  0  0  0  0  0  0  0  0
   -6.0445    5.2941  -18.9539 N   0  0  0  0  0  0  0  0  0  0  0  0
   -5.1863    5.8219  -18.0618 N   0  0  0  0  0  0  0  0  0  0  0  0
   -4.1692    6.7847  -18.4975 C   0  0  0  0  0  0  0  0  0  0  0  0
   -3.3220    7.1218  -17.4852 F   0  0  0  0  0  0  0  0  0  0  0  0
   -4.7436    7.9470  -18.9290 F   0  0  0  0  0  0  0  0  0  0  0  0
   -3.3916    6.3108  -19.5089 F   0  0  0  0  0  0  0  0  0  0  0  0
   -5.4945    5.4836  -16.7608 C   0  0  0  0  0  0  0  0  0  0  0  0
   -6.7700    4.9755  -16.8110 C   0  0  0  0  0  0  0  0  0  0  0  0
  1  2  1  0
  2  3  1  0
  3  4  2  0
  3  5  1  0
  5  6  1  6
  5  7  1  0
  7  8  1  0
  8  9  2  0
  9 10  1  0
 10 11  2  0
 11 12  1  0
 12 13  2  0
 12 14  1  0
 14 15  2  0
 14 16  1  0
 16 17  1  0
  5 18  1  0
 18 19  2  0
 19 20  1  0
 20 21  1  0
 20 22  2  0
 22 23  1  0
 23 24  2  0
 24 25  1  0
 25 26  1  0
 26 27  1  0
 26 28  1  0
 26 29  1  0
 25 30  1  0
 30 31  2  0
 13  8  1  0
 31 18  1  0
 17 11  1  0
 31 23  1  0
M  END
>  <smiles>  (575) 
C99980-P128

>  <fragmenstein_outcome>  (575) 
acceptable

>  <inchikey>  (575) 
QVZUFERFYIYMCZ-UHFFFAOYSA-N

>  <fragmenstein_mode>  (575) 
expansion

>  <HIPPO Pose ID>  (575) 
17146

>  <Energy>  (575) 
175.951826

>  <fragmenstein_error>  (575) 


>  <tags>  (575) 
{'openbind_xx01zvns2b_c1_fragmenstein', 'fragmenstein_placed'}

>  <ref_pdb>  (575) 
1

>  <scratch_subdir>  (575) 
/opt/xchem-fragalysis-2/maxwin/BulkDock/SCRATCH/511027/C99980-P128

>  <alias>  (575) 
CNC(=O)[C@@](O)(Nc1ccc2c(c1)C(=O)OC2)c1cc(Cl)cc2nn(C(F)(F)F)cc12

>  <HIPPO Compound ID>  (575) 
95863

>  <fragmenstein_runtime>  (575) 
4.107456

$$$$
CNC(=O)[C@](O)(Nc1ccc2c(c1)C(=O)OC2)c1cc(Cl)cc2[nH]ncc12
     RDKit          3D

 27 30  0  0  0  0  0  0  0  0999 V2000
   -4.5668    2.5572  -13.0226 C   0  0  0  0  0  0  0  0  0  0  0  0
   -5.6452    3.3509  -13.5361 N   0  0  0  0  0  0  0  0  0  0  0  0
   -5.7427    4.8897  -13.7838 C   0  0  0  0  0  0  0  0  0  0  0  0
   -4.9305    5.7286  -13.6782 O   0  0  0  0  0  0  0  0  0  0  0  0
   -7.2618    5.2150  -14.2358 C   0  0  2  0  0  0  0  0  0  0  0  0
   -7.6121    6.5854  -14.1822 O   0  0  0  0  0  0  0  0  0  0  0  0
   -8.2236    4.5243  -13.3352 N   0  0  0  0  0  0  0  0  0  0  0  0
   -8.1236    4.5846  -11.9351 C   0  0  0  0  0  0  0  0  0  0  0  0
   -7.5599    5.6883  -11.2558 C   0  0  0  0  0  0  0  0  0  0  0  0
   -7.5318    5.7745   -9.8579 C   0  0  0  0  0  0  0  0  0  0  0  0
   -8.0746    4.7410   -9.1280 C   0  0  0  0  0  0  0  0  0  0  0  0
   -8.6377    3.6618   -9.7679 C   0  0  0  0  0  0  0  0  0  0  0  0
   -8.6893    3.5612  -11.1548 C   0  0  0  0  0  0  0  0  0  0  0  0
   -9.1654    2.7601   -8.7471 C   0  0  0  0  0  0  0  0  0  0  0  0
   -9.7554    1.7175   -8.9241 O   0  0  0  0  0  0  0  0  0  0  0  0
   -8.9141    3.3400   -7.5335 O   0  0  0  0  0  0  0  0  0  0  0  0
   -8.1724    4.5615   -7.6684 C   0  0  0  0  0  0  0  0  0  0  0  0
   -7.5147    4.8777  -15.7140 C   0  0  0  0  0  0  0  0  0  0  0  0
   -8.8518    4.6215  -16.1144 C   0  0  0  0  0  0  0  0  0  0  0  0
   -9.2173    4.4588  -17.4442 C   0  0  0  0  0  0  0  0  0  0  0  0
  -10.8680    4.3475  -17.8426 Cl  0  0  0  0  0  0  0  0  0  0  0  0
   -8.2881    4.4956  -18.4673 C   0  0  0  0  0  0  0  0  0  0  0  0
   -6.9801    4.7887  -18.1000 C   0  0  0  0  0  0  0  0  0  0  0  0
   -5.8731    4.9646  -18.8889 N   0  0  0  0  0  0  0  0  0  0  0  0
   -4.7771    5.3335  -18.2033 N   0  0  0  0  0  0  0  0  0  0  0  0
   -5.1990    5.3432  -16.9331 C   0  0  0  0  0  0  0  0  0  0  0  0
   -6.5713    4.9967  -16.7814 C   0  0  0  0  0  0  0  0  0  0  0  0
  1  2  1  0
  2  3  1  0
  3  4  2  0
  3  5  1  0
  5  6  1  6
  5  7  1  0
  7  8  1  0
  8  9  2  0
  9 10  1  0
 10 11  2  0
 11 12  1  0
 12 13  2  0
 12 14  1  0
 14 15  2  0
 14 16  1  0
 16 17  1  0
  5 18  1  0
 18 19  2  0
 19 20  1  0
 20 21  1  0
 20 22  2  0
 22 23  1  0
 23 24  1  0
 24 25  1  0
 25 26  2  0
 26 27  1  0
 13  8  1  0
 27 18  1  0
 17 11  1  0
 27 23  2  0
M  END
>  <smiles>  (576) 
C99929-P13

>  <fragmenstein_outcome>  (576) 
acceptable

>  <inchikey>  (576) 
CRLUWHTWMYEGBJ-UHFFFAOYSA-N

>  <fragmenstein_mode>  (576) 
expansion

>  <HIPPO Pose ID>  (576) 
17147

>  <Energy>  (576) 
101.217566

>  <fragmenstein_error>  (576) 


>  <tags>  (576) 
{'openbind_xx01zvns2b_c1_fragmenstein', 'fragmenstein_placed'}

>  <ref_pdb>  (576) 
1

>  <scratch_subdir>  (576) 
/opt/xchem-fragalysis-2/maxwin/BulkDock/SCRATCH/511027/C99929-P13

>  <alias>  (576) 
CNC(=O)[C@](O)(Nc1ccc2c(c1)C(=O)OC2)c1cc(Cl)cc2[nH]ncc12

>  <HIPPO Compound ID>  (576) 
106627

>  <fragmenstein_runtime>  (576) 
5.953369

$$$$
CNC(=O)[C@@](O)(Nc1ccc2c(c1)[C@H](C)N(NC)C2)c1cc(Cl)cc2n[nH]cc12
     RDKit          3D

 29 32  0  0  0  0  0  0  0  0999 V2000
   -9.8059    7.8813  -13.2160 C   0  0  0  0  0  0  0  0  0  0  0  0
   -9.0525    6.7464  -13.6758 N   0  0  0  0  0  0  0  0  0  0  0  0
   -7.5809    6.6500  -14.2063 C   0  0  0  0  0  0  0  0  0  0  0  0
   -6.7934    7.4934  -14.4191 O   0  0  0  0  0  0  0  0  0  0  0  0
   -7.2375    5.0556  -14.3278 C   0  0  1  0  0  0  0  0  0  0  0  0
   -5.8983    4.7168  -14.0417 O   0  0  0  0  0  0  0  0  0  0  0  0
   -8.0665    4.2414  -13.4019 N   0  0  0  0  0  0  0  0  0  0  0  0
   -7.9802    4.3956  -12.0021 C   0  0  0  0  0  0  0  0  0  0  0  0
   -8.3944    3.3769  -11.1256 C   0  0  0  0  0  0  0  0  0  0  0  0
   -8.4854    3.5835   -9.7280 C   0  0  0  0  0  0  0  0  0  0  0  0
   -8.2734    4.8567   -9.2266 C   0  0  0  0  0  0  0  0  0  0  0  0
   -7.9385    5.8690  -10.0951 C   0  0  0  0  0  0  0  0  0  0  0  0
   -7.6844    5.6267  -11.4232 C   0  0  0  0  0  0  0  0  0  0  0  0
   -8.0380    7.2019   -9.4378 C   0  0  2  0  0  0  0  0  0  0  0  0
   -6.9481    8.1701   -9.8686 C   0  0  0  0  0  0  0  0  0  0  0  0
   -8.0184    6.9058   -7.9818 N   0  0  0  0  0  0  0  0  0  0  0  0
   -9.0024    7.7231   -7.2748 N   0  0  0  0  0  0  0  0  0  0  0  0
   -8.6237    9.1331   -7.2897 C   0  0  0  0  0  0  0  0  0  0  0  0
   -8.3575    5.4342   -7.8455 C   0  0  0  0  0  0  0  0  0  0  0  0
   -7.5113    4.7160  -15.7838 C   0  0  0  0  0  0  0  0  0  0  0  0
   -8.8203    4.4283  -16.2712 C   0  0  0  0  0  0  0  0  0  0  0  0
   -9.1602    4.2714  -17.6511 C   0  0  0  0  0  0  0  0  0  0  0  0
  -10.8174    4.1061  -18.0871 Cl  0  0  0  0  0  0  0  0  0  0  0  0
   -8.2375    4.3296  -18.6994 C   0  0  0  0  0  0  0  0  0  0  0  0
   -6.9456    4.6454  -18.2775 C   0  0  0  0  0  0  0  0  0  0  0  0
   -5.8452    4.8458  -19.0179 N   0  0  0  0  0  0  0  0  0  0  0  0
   -4.8983    5.1791  -18.1418 N   0  0  0  0  0  0  0  0  0  0  0  0
   -5.3131    5.1993  -16.8439 C   0  0  0  0  0  0  0  0  0  0  0  0
   -6.6329    4.8330  -16.8779 C   0  0  0  0  0  0  0  0  0  0  0  0
  1  2  1  0
  2  3  1  0
  3  4  2  0
  3  5  1  0
  5  6  1  1
  5  7  1  0
  7  8  1  0
  8  9  2  0
  9 10  1  0
 10 11  2  0
 11 12  1  0
 12 13  2  0
 12 14  1  0
 14 15  1  1
 14 16  1  0
 16 17  1  0
 17 18  1  0
 16 19  1  0
  5 20  1  0
 20 21  2  0
 21 22  1  0
 22 23  1  0
 22 24  2  0
 24 25  1  0
 25 26  2  0
 26 27  1  0
 27 28  1  0
 28 29  2  0
 13  8  1  0
 29 20  1  0
 19 11  1  0
 29 25  1  0
M  END
>  <smiles>  (577) 
C99985-P128

>  <fragmenstein_outcome>  (577) 
acceptable

>  <inchikey>  (577) 
YJXFUTJLMFHVBZ-UHFFFAOYSA-N

>  <fragmenstein_mode>  (577) 
expansion

>  <HIPPO Pose ID>  (577) 
17150

>  <Energy>  (577) 
155.306724

>  <fragmenstein_error>  (577) 


>  <tags>  (577) 
{'openbind_xx01zvns2b_c1_fragmenstein', 'fragmenstein_placed'}

>  <ref_pdb>  (577) 
1

>  <scratch_subdir>  (577) 
/opt/xchem-fragalysis-2/maxwin/BulkDock/SCRATCH/511027/C99985-P128

>  <alias>  (577) 
CNC(=O)[C@@](O)(Nc1ccc2c(c1)[C@H](C)N(NC)C2)c1cc(Cl)cc2n[nH]cc12

>  <HIPPO Compound ID>  (577) 
71529

>  <fragmenstein_runtime>  (577) 
3.838992

$$$$
Cc1ccc(S(=O)(=O)CNC(=O)[C@@H](Nc2ccc3c(c2)C(=O)OC3)c2cc(Cl)cc3[nH]ncc23)cc1
     RDKit          3D

 36 40  0  0  0  0  0  0  0  0999 V2000
    0.2281    6.1786  -18.2106 C   0  0  0  0  0  0  0  0  0  0  0  0
   -0.7774    6.6861  -17.2181 C   0  0  0  0  0  0  0  0  0  0  0  0
   -0.4779    6.7180  -15.8504 C   0  0  0  0  0  0  0  0  0  0  0  0
   -1.4183    7.1891  -14.9322 C   0  0  0  0  0  0  0  0  0  0  0  0
   -2.6655    7.6301  -15.3856 C   0  0  0  0  0  0  0  0  0  0  0  0
   -3.8710    8.1776  -14.2017 S   0  0  0  0  0  0  0  0  0  0  0  0
   -5.0184    8.7039  -14.9237 O   0  0  0  0  0  0  0  0  0  0  0  0
   -3.1617    9.0190  -13.2533 O   0  0  0  0  0  0  0  0  0  0  0  0
   -4.3704    6.6667  -13.3620 C   0  0  0  0  0  0  0  0  0  0  0  0
   -5.5426    5.9609  -13.8337 N   0  0  0  0  0  0  0  0  0  0  0  0
   -5.7608    4.4536  -14.1252 C   0  0  0  0  0  0  0  0  0  0  0  0
   -5.0067    3.5619  -14.1034 O   0  0  0  0  0  0  0  0  0  0  0  0
   -7.2860    4.2720  -14.4582 C   0  0  1  0  0  0  0  0  0  0  0  0
   -8.1321    5.2140  -13.6444 N   0  0  0  0  0  0  0  0  0  0  0  0
   -8.1118    5.0581  -12.2370 C   0  0  0  0  0  0  0  0  0  0  0  0
   -7.8159    6.2123  -11.4762 C   0  0  0  0  0  0  0  0  0  0  0  0
   -7.7995    6.2000  -10.0789 C   0  0  0  0  0  0  0  0  0  0  0  0
   -8.1495    5.0310   -9.4411 C   0  0  0  0  0  0  0  0  0  0  0  0
   -8.5148    3.9208  -10.1728 C   0  0  0  0  0  0  0  0  0  0  0  0
   -8.4825    3.8875  -11.5663 C   0  0  0  0  0  0  0  0  0  0  0  0
   -9.0474    2.9392   -9.2345 C   0  0  0  0  0  0  0  0  0  0  0  0
   -9.6436    1.9250   -9.5173 O   0  0  0  0  0  0  0  0  0  0  0  0
   -8.8668    3.4398   -7.9747 O   0  0  0  0  0  0  0  0  0  0  0  0
   -8.2577    4.7368   -8.0008 C   0  0  0  0  0  0  0  0  0  0  0  0
   -7.6192    4.4702  -15.9548 C   0  0  0  0  0  0  0  0  0  0  0  0
   -8.9660    4.2282  -16.3509 C   0  0  0  0  0  0  0  0  0  0  0  0
   -9.3808    4.2725  -17.6770 C   0  0  0  0  0  0  0  0  0  0  0  0
  -11.0210    4.0740  -18.1005 Cl  0  0  0  0  0  0  0  0  0  0  0  0
   -8.4872    4.5075  -18.6976 C   0  0  0  0  0  0  0  0  0  0  0  0
   -7.1859    4.8162  -18.3341 C   0  0  0  0  0  0  0  0  0  0  0  0
   -6.1264    5.1585  -19.1319 N   0  0  0  0  0  0  0  0  0  0  0  0
   -5.0119    5.4345  -18.4424 N   0  0  0  0  0  0  0  0  0  0  0  0
   -5.3683    5.1790  -17.1773 C   0  0  0  0  0  0  0  0  0  0  0  0
   -6.7305    4.8213  -17.0156 C   0  0  0  0  0  0  0  0  0  0  0  0
   -2.9562    7.6564  -16.7476 C   0  0  0  0  0  0  0  0  0  0  0  0
   -2.0133    7.1773  -17.6592 C   0  0  0  0  0  0  0  0  0  0  0  0
  1  2  1  0
  2  3  2  0
  3  4  1  0
  4  5  2  0
  5  6  1  0
  6  7  2  0
  6  8  2  0
  6  9  1  0
  9 10  1  0
 10 11  1  0
 11 12  2  0
 11 13  1  0
 13 14  1  1
 14 15  1  0
 15 16  2  0
 16 17  1  0
 17 18  2  0
 18 19  1  0
 19 20  2  0
 19 21  1  0
 21 22  2  0
 21 23  1  0
 23 24  1  0
 13 25  1  0
 25 26  2  0
 26 27  1  0
 27 28  1  0
 27 29  2  0
 29 30  1  0
 30 31  1  0
 31 32  1  0
 32 33  2  0
 33 34  1  0
  5 35  1  0
 35 36  2  0
 36  2  1  0
 20 15  1  0
 34 25  1  0
 24 18  1  0
 34 30  2  0
M  END
>  <smiles>  (578) 
C99986-P128

>  <fragmenstein_outcome>  (578) 
acceptable

>  <inchikey>  (578) 
LQUBJHVXTYJOSP-UHFFFAOYSA-N

>  <fragmenstein_mode>  (578) 
expansion

>  <HIPPO Pose ID>  (578) 
17151

>  <Energy>  (578) 
197.901687

>  <fragmenstein_error>  (578) 


>  <tags>  (578) 
{'openbind_xx01zvns2b_c1_fragmenstein', 'fragmenstein_placed'}

>  <ref_pdb>  (578) 
1

>  <scratch_subdir>  (578) 
/opt/xchem-fragalysis-2/maxwin/BulkDock/SCRATCH/511027/C99986-P128

>  <alias>  (578) 
Cc1ccc(S(=O)(=O)CNC(=O)[C@@H](Nc2ccc3c(c2)C(=O)OC3)c2cc(Cl)cc3[nH]ncc23)cc1

>  <HIPPO Compound ID>  (578) 
79587

>  <fragmenstein_runtime>  (578) 
6.457747

$$$$
O=C1OCc2ccc(N[C@@H](C(=O)NC[C@H]3CCCOC3)c3cc(Cl)cc4n[nH]cc34)cc21
     RDKit          3D

 32 36  0  0  0  0  0  0  0  0999 V2000
   -9.6158    1.5830   -8.4022 O   0  0  0  0  0  0  0  0  0  0  0  0
   -9.1083    2.6826   -8.3431 C   0  0  0  0  0  0  0  0  0  0  0  0
   -8.8560    3.3854   -7.1932 O   0  0  0  0  0  0  0  0  0  0  0  0
   -8.3221    4.6907   -7.4624 C   0  0  0  0  0  0  0  0  0  0  0  0
   -8.3230    4.7701   -8.9346 C   0  0  0  0  0  0  0  0  0  0  0  0
   -8.0209    5.8343   -9.7650 C   0  0  0  0  0  0  0  0  0  0  0  0
   -8.1422    5.6478  -11.1442 C   0  0  0  0  0  0  0  0  0  0  0  0
   -8.5425    4.4066  -11.6819 C   0  0  0  0  0  0  0  0  0  0  0  0
   -8.5936    4.2357  -13.0846 N   0  0  0  0  0  0  0  0  0  0  0  0
   -7.2429    4.2008  -13.7031 C   0  0  1  0  0  0  0  0  0  0  0  0
   -6.4873    2.8863  -13.2111 C   0  0  0  0  0  0  0  0  0  0  0  0
   -6.6370    1.8445  -13.7183 O   0  0  0  0  0  0  0  0  0  0  0  0
   -5.6559    3.2866  -11.9541 N   0  0  0  0  0  0  0  0  0  0  0  0
   -4.9233    2.4714  -11.0197 C   0  0  0  0  0  0  0  0  0  0  0  0
   -3.4145    2.5093  -11.2557 C   0  0  1  0  0  0  0  0  0  0  0  0
   -2.6785    1.7855  -10.1144 C   0  0  0  0  0  0  0  0  0  0  0  0
   -1.3459    1.1940  -10.5708 C   0  0  0  0  0  0  0  0  0  0  0  0
   -0.7566    2.0020  -11.7151 C   0  0  0  0  0  0  0  0  0  0  0  0
   -1.6071    2.0697  -12.8600 O   0  0  0  0  0  0  0  0  0  0  0  0
   -3.0054    1.8938  -12.5943 C   0  0  0  0  0  0  0  0  0  0  0  0
   -7.3329    4.3617  -15.2120 C   0  0  0  0  0  0  0  0  0  0  0  0
   -8.5358    4.2493  -15.9757 C   0  0  0  0  0  0  0  0  0  0  0  0
   -8.6340    4.3975  -17.3993 C   0  0  0  0  0  0  0  0  0  0  0  0
  -10.1844    4.1839  -18.1437 Cl  0  0  0  0  0  0  0  0  0  0  0  0
   -7.5459    4.7176  -18.2251 C   0  0  0  0  0  0  0  0  0  0  0  0
   -6.3482    4.8829  -17.5192 C   0  0  0  0  0  0  0  0  0  0  0  0
   -5.1274    5.2175  -17.9749 N   0  0  0  0  0  0  0  0  0  0  0  0
   -4.3363    5.1933  -16.8913 N   0  0  0  0  0  0  0  0  0  0  0  0
   -4.9817    4.9147  -15.7222 C   0  0  0  0  0  0  0  0  0  0  0  0
   -6.2858    4.7011  -16.0810 C   0  0  0  0  0  0  0  0  0  0  0  0
   -8.8381    3.3425  -10.8176 C   0  0  0  0  0  0  0  0  0  0  0  0
   -8.7367    3.5606   -9.4537 C   0  0  0  0  0  0  0  0  0  0  0  0
  1  2  2  0
  2  3  1  0
  3  4  1  0
  4  5  1  0
  5  6  2  0
  6  7  1  0
  7  8  2  0
  8  9  1  0
 10  9  1  6
 10 11  1  0
 11 12  2  0
 11 13  1  0
 13 14  1  0
 15 14  1  1
 15 16  1  0
 16 17  1  0
 17 18  1  0
 18 19  1  0
 19 20  1  0
 10 21  1  0
 21 22  2  0
 22 23  1  0
 23 24  1  0
 23 25  2  0
 25 26  1  0
 26 27  2  0
 27 28  1  0
 28 29  1  0
 29 30  2  0
  8 31  1  0
 31 32  2  0
 32  2  1  0
 32  5  1  0
 20 15  1  0
 30 21  1  0
 30 26  1  0
M  END
>  <smiles>  (579) 
C99989-P128

>  <fragmenstein_outcome>  (579) 
acceptable

>  <inchikey>  (579) 
PHSPMPDNSVTTQJ-UHFFFAOYSA-N

>  <fragmenstein_mode>  (579) 
expansion

>  <HIPPO Pose ID>  (579) 
17152

>  <Energy>  (579) 
111.544327

>  <fragmenstein_error>  (579) 


>  <tags>  (579) 
{'openbind_xx01zvns2b_c1_fragmenstein', 'fragmenstein_placed'}

>  <ref_pdb>  (579) 
1

>  <scratch_subdir>  (579) 
/opt/xchem-fragalysis-2/maxwin/BulkDock/SCRATCH/511027/C99989-P128

>  <alias>  (579) 
O=C1OCc2ccc(N[C@@H](C(=O)NC[C@H]3CCCOC3)c3cc(Cl)cc4n[nH]cc34)cc21

>  <HIPPO Compound ID>  (579) 
92136

>  <fragmenstein_runtime>  (579) 
6.703818

$$$$
O=C1OCc2ccc(N[C@H](C(=O)C(=O)[C@H]3CCCO3)c3cc(Cl)cc4n[nH]cc34)cc21
     RDKit          3D

 31 35  0  0  0  0  0  0  0  0999 V2000
   -9.5623    1.5316   -8.7333 O   0  0  0  0  0  0  0  0  0  0  0  0
   -9.0522    2.6234   -8.6069 C   0  0  0  0  0  0  0  0  0  0  0  0
   -8.8517    3.2644   -7.4123 O   0  0  0  0  0  0  0  0  0  0  0  0
   -8.3633    4.5985   -7.5945 C   0  0  0  0  0  0  0  0  0  0  0  0
   -8.3494    4.7612   -9.0590 C   0  0  0  0  0  0  0  0  0  0  0  0
   -8.1506    5.8964   -9.8141 C   0  0  0  0  0  0  0  0  0  0  0  0
   -8.2596    5.7875  -11.2035 C   0  0  0  0  0  0  0  0  0  0  0  0
   -8.4830    4.5516  -11.8497 C   0  0  0  0  0  0  0  0  0  0  0  0
   -8.5747    4.4824  -13.2628 N   0  0  0  0  0  0  0  0  0  0  0  0
   -7.3133    4.7727  -14.0179 C   0  0  2  0  0  0  0  0  0  0  0  0
   -6.7696    6.1810  -13.7463 C   0  0  0  0  0  0  0  0  0  0  0  0
   -7.3468    7.2370  -14.0010 O   0  0  0  0  0  0  0  0  0  0  0  0
   -5.3803    6.2667  -13.1424 C   0  0  0  0  0  0  0  0  0  0  0  0
   -4.7687    5.2429  -12.8643 O   0  0  0  0  0  0  0  0  0  0  0  0
   -4.8358    7.6785  -12.9576 C   0  0  1  0  0  0  0  0  0  0  0  0
   -5.3931    8.3262  -11.6975 C   0  0  0  0  0  0  0  0  0  0  0  0
   -4.2254    9.1298  -11.1835 C   0  0  0  0  0  0  0  0  0  0  0  0
   -3.0594    8.2476  -11.5575 C   0  0  0  0  0  0  0  0  0  0  0  0
   -3.4011    7.6756  -12.8246 O   0  0  0  0  0  0  0  0  0  0  0  0
   -7.5085    4.6523  -15.5203 C   0  0  0  0  0  0  0  0  0  0  0  0
   -8.7645    4.4680  -16.1644 C   0  0  0  0  0  0  0  0  0  0  0  0
   -8.9526    4.3919  -17.5816 C   0  0  0  0  0  0  0  0  0  0  0  0
  -10.5563    4.1896  -18.1864 Cl  0  0  0  0  0  0  0  0  0  0  0  0
   -7.9148    4.5095  -18.5166 C   0  0  0  0  0  0  0  0  0  0  0  0
   -6.6626    4.7277  -17.9346 C   0  0  0  0  0  0  0  0  0  0  0  0
   -5.4698    4.9227  -18.5226 N   0  0  0  0  0  0  0  0  0  0  0  0
   -4.5962    5.0142  -17.5144 N   0  0  0  0  0  0  0  0  0  0  0  0
   -5.1577    4.9319  -16.2738 C   0  0  0  0  0  0  0  0  0  0  0  0
   -6.5016    4.7751  -16.4966 C   0  0  0  0  0  0  0  0  0  0  0  0
   -8.7038    3.4184  -11.0488 C   0  0  0  0  0  0  0  0  0  0  0  0
   -8.6614    3.5621   -9.6637 C   0  0  0  0  0  0  0  0  0  0  0  0
  1  2  2  0
  2  3  1  0
  3  4  1  0
  4  5  1  0
  5  6  2  0
  6  7  1  0
  7  8  2  0
  8  9  1  0
 10  9  1  1
 10 11  1  0
 11 12  2  0
 11 13  1  0
 13 14  2  0
 15 13  1  1
 15 16  1  0
 16 17  1  0
 17 18  1  0
 18 19  1  0
 10 20  1  0
 20 21  2  0
 21 22  1  0
 22 23  1  0
 22 24  2  0
 24 25  1  0
 25 26  2  0
 26 27  1  0
 27 28  1  0
 28 29  2  0
  8 30  1  0
 30 31  2  0
 31  2  1  0
 31  5  1  0
 19 15  1  0
 29 20  1  0
 29 25  1  0
M  END
>  <smiles>  (580) 
C99992-P128

>  <fragmenstein_outcome>  (580) 
acceptable

>  <inchikey>  (580) 
CFWYVTAHQSEIRO-UHFFFAOYSA-N

>  <fragmenstein_mode>  (580) 
expansion

>  <HIPPO Pose ID>  (580) 
17153

>  <Energy>  (580) 
119.724714

>  <fragmenstein_error>  (580) 


>  <tags>  (580) 
{'openbind_xx01zvns2b_c1_fragmenstein', 'fragmenstein_placed'}

>  <ref_pdb>  (580) 
1

>  <scratch_subdir>  (580) 
/opt/xchem-fragalysis-2/maxwin/BulkDock/SCRATCH/511027/C99992-P128

>  <alias>  (580) 
O=C1OCc2ccc(N[C@H](C(=O)C(=O)[C@H]3CCCO3)c3cc(Cl)cc4n[nH]cc34)cc21

>  <HIPPO Compound ID>  (580) 
99992

>  <fragmenstein_runtime>  (580) 
3.603199

$$$$
CNC(=O)[C@](O)(Nc1ccc2c(c1)C(=O)OC2)c1cc(Cl)cc2c1C=N[N@H+]2[O-]
     RDKit          3D

 28 31  0  0  0  0  0  0  0  0999 V2000
   -5.1112    2.1260  -12.8442 C   0  0  0  0  0  0  0  0  0  0  0  0
   -6.0373    3.0188  -13.4801 N   0  0  0  0  0  0  0  0  0  0  0  0
   -5.9421    4.5476  -13.7515 C   0  0  0  0  0  0  0  0  0  0  0  0
   -5.0608    5.2982  -13.5671 O   0  0  0  0  0  0  0  0  0  0  0  0
   -7.3634    5.0844  -14.2866 C   0  0  2  0  0  0  0  0  0  0  0  0
   -7.3829    6.5112  -14.2663 O   0  0  0  0  0  0  0  0  0  0  0  0
   -8.4610    4.5716  -13.4250 N   0  0  0  0  0  0  0  0  0  0  0  0
   -8.3598    4.6756  -12.0226 C   0  0  0  0  0  0  0  0  0  0  0  0
   -7.9846    5.8774  -11.3872 C   0  0  0  0  0  0  0  0  0  0  0  0
   -7.8877    5.9888   -9.9945 C   0  0  0  0  0  0  0  0  0  0  0  0
   -8.2140    4.8920   -9.2268 C   0  0  0  0  0  0  0  0  0  0  0  0
   -8.6365    3.7259   -9.8230 C   0  0  0  0  0  0  0  0  0  0  0  0
   -8.7084    3.5835  -11.2056 C   0  0  0  0  0  0  0  0  0  0  0  0
   -9.0646    2.8107   -8.7648 C   0  0  0  0  0  0  0  0  0  0  0  0
   -9.6068    1.7353   -8.8960 O   0  0  0  0  0  0  0  0  0  0  0  0
   -8.8254    3.4428   -7.5735 O   0  0  0  0  0  0  0  0  0  0  0  0
   -8.2393    4.7384   -7.7617 C   0  0  0  0  0  0  0  0  0  0  0  0
   -7.5860    4.7782  -15.7635 C   0  0  0  0  0  0  0  0  0  0  0  0
   -8.8455    4.3858  -16.2604 C   0  0  0  0  0  0  0  0  0  0  0  0
   -9.0859    4.2297  -17.6389 C   0  0  0  0  0  0  0  0  0  0  0  0
  -10.6925    4.0093  -18.1908 Cl  0  0  0  0  0  0  0  0  0  0  0  0
   -8.0725    4.3794  -18.5756 C   0  0  0  0  0  0  0  0  0  0  0  0
   -6.8500    4.8144  -18.1121 C   0  0  0  0  0  0  0  0  0  0  0  0
   -6.6413    5.0542  -16.7576 C   0  0  0  0  0  0  0  0  0  0  0  0
   -5.4277    5.8601  -16.7462 C   0  0  0  0  0  0  0  0  0  0  0  0
   -4.9360    6.1261  -17.9224 N   0  0  0  0  0  0  0  0  0  0  0  0
   -5.7154    5.2863  -18.9138 N   0  0  1  0  0  0  0  0  0  0  0  0
   -4.8866    4.2728  -19.2039 O   0  0  0  0  0  0  0  0  0  0  0  0
  1  2  1  0
  2  3  1  0
  3  4  2  0
  3  5  1  0
  5  6  1  6
  5  7  1  0
  7  8  1  0
  8  9  2  0
  9 10  1  0
 10 11  2  0
 11 12  1  0
 12 13  2  0
 12 14  1  0
 14 15  2  0
 14 16  1  0
 16 17  1  0
  5 18  1  0
 18 19  2  0
 19 20  1  0
 20 21  1  0
 20 22  2  0
 22 23  1  0
 23 24  2  0
 24 25  1  0
 25 26  2  0
 26 27  1  0
 27 28  1  1
 13  8  1  0
 24 18  1  0
 17 11  1  0
 27 23  1  0
M  CHG  2  27   1  28  -1
M  END
>  <smiles>  (581) 
C99970-P128

>  <fragmenstein_outcome>  (581) 
acceptable

>  <inchikey>  (581) 
PCEILEQLZFEJQW-UHFFFAOYSA-N

>  <fragmenstein_mode>  (581) 
expansion

>  <HIPPO Pose ID>  (581) 
17157

>  <Energy>  (581) 
97.759848

>  <fragmenstein_error>  (581) 


>  <tags>  (581) 
{'openbind_xx01zvns2b_c1_fragmenstein', 'fragmenstein_placed'}

>  <ref_pdb>  (581) 
1

>  <scratch_subdir>  (581) 
/opt/xchem-fragalysis-2/maxwin/BulkDock/SCRATCH/511027/C99970-P128

>  <alias>  (581) 
CNC(=O)[C@](O)(Nc1ccc2c(c1)C(=O)OC2)c1cc(Cl)cc2c1C=N[N@H+]2[O-]

>  <HIPPO Compound ID>  (581) 
99970

>  <fragmenstein_runtime>  (581) 
5.456381

$$$$
CN=C1OCc2ccc(N[C@@](O)(C(=O)NC)c3cc(Cl)cc4[nH]ncc34)cc21
     RDKit          3D

 28 31  0  0  0  0  0  0  0  0999 V2000
   -9.6215    1.5831   -7.2368 C   0  0  0  0  0  0  0  0  0  0  0  0
   -9.3691    2.1058   -8.5761 N   0  0  0  0  0  0  0  0  0  0  0  0
   -8.8786    3.2876   -8.5828 C   0  0  0  0  0  0  0  0  0  0  0  0
   -8.6291    4.0413   -7.4657 O   0  0  0  0  0  0  0  0  0  0  0  0
   -8.1742    5.3558   -7.8121 C   0  0  0  0  0  0  0  0  0  0  0  0
   -8.2039    5.3449   -9.2846 C   0  0  0  0  0  0  0  0  0  0  0  0
   -7.9861    6.3791  -10.1656 C   0  0  0  0  0  0  0  0  0  0  0  0
   -8.1132    6.1152  -11.5309 C   0  0  0  0  0  0  0  0  0  0  0  0
   -8.4066    4.8267  -12.0272 C   0  0  0  0  0  0  0  0  0  0  0  0
   -8.5008    4.5869  -13.4149 N   0  0  0  0  0  0  0  0  0  0  0  0
   -7.3387    4.9582  -14.2651 C   0  0  1  0  0  0  0  0  0  0  0  0
   -7.1861    6.3798  -14.2603 O   0  0  0  0  0  0  0  0  0  0  0  0
   -5.9865    4.3076  -13.6852 C   0  0  0  0  0  0  0  0  0  0  0  0
   -5.0366    4.9757  -13.5231 O   0  0  0  0  0  0  0  0  0  0  0  0
   -6.2407    2.8152  -13.3311 N   0  0  0  0  0  0  0  0  0  0  0  0
   -5.3569    1.8225  -12.7976 C   0  0  0  0  0  0  0  0  0  0  0  0
   -7.5729    4.6734  -15.7513 C   0  0  0  0  0  0  0  0  0  0  0  0
   -8.8825    4.4265  -16.2442 C   0  0  0  0  0  0  0  0  0  0  0  0
   -9.1637    4.3026  -17.6047 C   0  0  0  0  0  0  0  0  0  0  0  0
  -10.7823    4.1250  -18.1401 Cl  0  0  0  0  0  0  0  0  0  0  0  0
   -8.1658    4.3924  -18.5608 C   0  0  0  0  0  0  0  0  0  0  0  0
   -6.8879    4.6883  -18.1008 C   0  0  0  0  0  0  0  0  0  0  0  0
   -5.7335    4.9197  -18.8019 N   0  0  0  0  0  0  0  0  0  0  0  0
   -4.6840    5.2379  -18.0222 N   0  0  0  0  0  0  0  0  0  0  0  0
   -5.1949    5.1894  -16.7870 C   0  0  0  0  0  0  0  0  0  0  0  0
   -6.5696    4.8371  -16.7528 C   0  0  0  0  0  0  0  0  0  0  0  0
   -8.6508    3.7985  -11.1003 C   0  0  0  0  0  0  0  0  0  0  0  0
   -8.5548    4.0939   -9.7449 C   0  0  0  0  0  0  0  0  0  0  0  0
  1  2  1  0
  2  3  2  3
  3  4  1  0
  4  5  1  0
  5  6  1  0
  6  7  2  0
  7  8  1  0
  8  9  2  0
  9 10  1  0
 10 11  1  0
 11 12  1  6
 11 13  1  0
 13 14  2  0
 13 15  1  0
 15 16  1  0
 11 17  1  0
 17 18  2  0
 18 19  1  0
 19 20  1  0
 19 21  2  0
 21 22  1  0
 22 23  1  0
 23 24  1  0
 24 25  2  0
 25 26  1  0
  9 27  1  0
 27 28  2  0
 28  3  1  0
 28  6  1  0
 26 17  1  0
 26 22  2  0
M  END
>  <smiles>  (582) 
C100002-P128

>  <fragmenstein_outcome>  (582) 
acceptable

>  <inchikey>  (582) 
PXMVLXZAJQOCCQ-UHFFFAOYSA-N

>  <fragmenstein_mode>  (582) 
expansion

>  <HIPPO Pose ID>  (582) 
17161

>  <Energy>  (582) 
102.248405

>  <fragmenstein_error>  (582) 


>  <tags>  (582) 
{'openbind_xx01zvns2b_c1_fragmenstein', 'fragmenstein_placed'}

>  <ref_pdb>  (582) 
1

>  <scratch_subdir>  (582) 
/opt/xchem-fragalysis-2/maxwin/BulkDock/SCRATCH/511027/C100002-P128

>  <alias>  (582) 
CN=C1OCc2ccc(N[C@@](O)(C(=O)NC)c3cc(Cl)cc4[nH]ncc34)cc21

>  <HIPPO Compound ID>  (582) 
83685

>  <fragmenstein_runtime>  (582) 
5.997474

$$$$
CNC(=O)[C@@](O)(Nc1cc(C)c2c(c1)C(=O)OC2)c1cc(Cl)cc2[nH][n+]([O-])cc12
     RDKit          3D

 29 32  0  0  0  0  0  0  0  0999 V2000
   -4.2515    6.8275  -13.0553 C   0  0  0  0  0  0  0  0  0  0  0  0
   -5.2433    5.9027  -13.5114 N   0  0  0  0  0  0  0  0  0  0  0  0
   -6.6196    6.1532  -14.2058 C   0  0  0  0  0  0  0  0  0  0  0  0
   -7.1808    7.1547  -14.4378 O   0  0  0  0  0  0  0  0  0  0  0  0
   -7.2295    4.6926  -14.5207 C   0  0  1  0  0  0  0  0  0  0  0  0
   -6.2655    3.6702  -14.2935 O   0  0  0  0  0  0  0  0  0  0  0  0
   -8.3658    4.3473  -13.6382 N   0  0  0  0  0  0  0  0  0  0  0  0
   -8.3257    4.5457  -12.2551 C   0  0  0  0  0  0  0  0  0  0  0  0
   -8.2987    3.4409  -11.3741 C   0  0  0  0  0  0  0  0  0  0  0  0
   -8.2578    3.5966   -9.9712 C   0  0  0  0  0  0  0  0  0  0  0  0
   -8.2806    2.3980   -9.0731 C   0  0  0  0  0  0  0  0  0  0  0  0
   -8.2437    4.8846   -9.4647 C   0  0  0  0  0  0  0  0  0  0  0  0
   -8.2966    5.9576  -10.3209 C   0  0  0  0  0  0  0  0  0  0  0  0
   -8.3266    5.8267  -11.7006 C   0  0  0  0  0  0  0  0  0  0  0  0
   -8.3841    7.1796   -9.5325 C   0  0  0  0  0  0  0  0  0  0  0  0
   -8.4999    8.3127   -9.9532 O   0  0  0  0  0  0  0  0  0  0  0  0
   -8.3217    6.8069   -8.2174 O   0  0  0  0  0  0  0  0  0  0  0  0
   -8.2212    5.3739   -8.0732 C   0  0  0  0  0  0  0  0  0  0  0  0
   -7.6177    4.6345  -16.0100 C   0  0  0  0  0  0  0  0  0  0  0  0
   -8.9636    4.3972  -16.3986 C   0  0  0  0  0  0  0  0  0  0  0  0
   -9.3536    4.2855  -17.7308 C   0  0  0  0  0  0  0  0  0  0  0  0
  -11.0023    4.1085  -18.1395 Cl  0  0  0  0  0  0  0  0  0  0  0  0
   -8.4406    4.3692  -18.7631 C   0  0  0  0  0  0  0  0  0  0  0  0
   -7.1375    4.6830  -18.4145 C   0  0  0  0  0  0  0  0  0  0  0  0
   -6.0408    4.9095  -19.2080 N   0  0  0  0  0  0  0  0  0  0  0  0
   -4.9039    5.2272  -18.4136 N   0  0  0  0  0  0  0  0  0  0  0  0
   -3.7990    5.4606  -18.9613 O   0  0  0  0  0  0  0  0  0  0  0  0
   -5.2640    5.1855  -17.1162 C   0  0  0  0  0  0  0  0  0  0  0  0
   -6.6852    4.8386  -17.0785 C   0  0  0  0  0  0  0  0  0  0  0  0
  1  2  1  0
  2  3  1  0
  3  4  2  0
  3  5  1  0
  5  6  1  6
  5  7  1  0
  7  8  1  0
  8  9  2  0
  9 10  1  0
 10 11  1  0
 10 12  2  0
 12 13  1  0
 13 14  2  0
 13 15  1  0
 15 16  2  0
 15 17  1  0
 17 18  1  0
  5 19  1  0
 19 20  2  0
 20 21  1  0
 21 22  1  0
 21 23  2  0
 23 24  1  0
 24 25  1  0
 25 26  1  0
 26 27  1  0
 26 28  2  0
 28 29  1  0
 14  8  1  0
 29 19  1  0
 18 12  1  0
 29 24  2  0
M  CHG  2  26   1  27  -1
M  END
>  <smiles>  (583) 
C100015-P128

>  <fragmenstein_outcome>  (583) 
acceptable

>  <inchikey>  (583) 
XJEHNODAMMFNLJ-UHFFFAOYSA-N

>  <fragmenstein_mode>  (583) 
expansion

>  <HIPPO Pose ID>  (583) 
17170

>  <Energy>  (583) 
82.289579

>  <fragmenstein_error>  (583) 


>  <tags>  (583) 
{'openbind_xx01zvns2b_c1_fragmenstein', 'fragmenstein_placed'}

>  <ref_pdb>  (583) 
1

>  <scratch_subdir>  (583) 
/opt/xchem-fragalysis-2/maxwin/BulkDock/SCRATCH/511027/C100015-P128

>  <alias>  (583) 
CNC(=O)[C@@](O)(Nc1cc(C)c2c(c1)C(=O)OC2)c1cc(Cl)cc2[nH][n+]([O-])cc12

>  <HIPPO Compound ID>  (583) 
100015

>  <fragmenstein_runtime>  (583) 
5.006783

$$$$
CNC(=O)[C@](O)(Nc1cc2c(cc1SC)COC2=O)c1cc(Cl)cc2[nH]ncc12
     RDKit          3D

 29 32  0  0  0  0  0  0  0  0999 V2000
   -5.4825    1.9763  -12.7484 C   0  0  0  0  0  0  0  0  0  0  0  0
   -6.2906    2.9540  -13.4174 N   0  0  0  0  0  0  0  0  0  0  0  0
   -6.0756    4.4896  -13.6056 C   0  0  0  0  0  0  0  0  0  0  0  0
   -5.1688    5.1711  -13.3094 O   0  0  0  0  0  0  0  0  0  0  0  0
   -7.4316    5.1022  -14.2349 C   0  0  2  0  0  0  0  0  0  0  0  0
   -7.4074    6.5035  -14.3869 O   0  0  0  0  0  0  0  0  0  0  0  0
   -8.5971    4.7602  -13.3610 N   0  0  0  0  0  0  0  0  0  0  0  0
   -8.4500    4.8252  -11.9380 C   0  0  0  0  0  0  0  0  0  0  0  0
   -8.7115    3.6463  -11.1929 C   0  0  0  0  0  0  0  0  0  0  0  0
   -8.6333    3.6770   -9.8024 C   0  0  0  0  0  0  0  0  0  0  0  0
   -8.2514    4.8027   -9.1182 C   0  0  0  0  0  0  0  0  0  0  0  0
   -8.0094    5.9781   -9.7942 C   0  0  0  0  0  0  0  0  0  0  0  0
   -8.1422    6.0112  -11.1981 C   0  0  0  0  0  0  0  0  0  0  0  0
   -8.1510    7.6782  -11.8823 S   0  0  0  0  0  0  0  0  0  0  0  0
   -6.4197    8.1408  -11.5832 C   0  0  0  0  0  0  0  0  0  0  0  0
   -8.2615    4.5399   -7.6687 C   0  0  0  0  0  0  0  0  0  0  0  0
   -8.8171    3.2240   -7.5765 O   0  0  0  0  0  0  0  0  0  0  0  0
   -9.0586    2.6867   -8.8113 C   0  0  0  0  0  0  0  0  0  0  0  0
   -9.6234    1.6364   -9.0185 O   0  0  0  0  0  0  0  0  0  0  0  0
   -7.6283    4.7075  -15.7045 C   0  0  0  0  0  0  0  0  0  0  0  0
   -8.9219    4.4391  -16.2225 C   0  0  0  0  0  0  0  0  0  0  0  0
   -9.1681    4.2915  -17.5883 C   0  0  0  0  0  0  0  0  0  0  0  0
  -10.7765    4.1163  -18.1555 Cl  0  0  0  0  0  0  0  0  0  0  0  0
   -8.1480    4.3683  -18.5232 C   0  0  0  0  0  0  0  0  0  0  0  0
   -6.8809    4.6673  -18.0353 C   0  0  0  0  0  0  0  0  0  0  0  0
   -5.7081    4.8894  -18.7078 N   0  0  0  0  0  0  0  0  0  0  0  0
   -4.6788    5.2183  -17.9055 N   0  0  0  0  0  0  0  0  0  0  0  0
   -5.2273    5.2094  -16.6844 C   0  0  0  0  0  0  0  0  0  0  0  0
   -6.5986    4.8432  -16.6832 C   0  0  0  0  0  0  0  0  0  0  0  0
  1  2  1  0
  2  3  1  0
  3  4  2  0
  3  5  1  0
  5  6  1  6
  5  7  1  0
  7  8  1  0
  8  9  2  0
  9 10  1  0
 10 11  2  0
 11 12  1  0
 12 13  2  0
 13 14  1  0
 14 15  1  0
 11 16  1  0
 16 17  1  0
 17 18  1  0
 18 19  2  0
  5 20  1  0
 20 21  2  0
 21 22  1  0
 22 23  1  0
 22 24  2  0
 24 25  1  0
 25 26  1  0
 26 27  1  0
 27 28  2  0
 28 29  1  0
 13  8  1  0
 29 20  1  0
 18 10  1  0
 29 25  2  0
M  END
>  <smiles>  (584) 
C100016-P128

>  <fragmenstein_outcome>  (584) 
acceptable

>  <inchikey>  (584) 
RPXHHYAWLTUYLT-UHFFFAOYSA-N

>  <fragmenstein_mode>  (584) 
expansion

>  <HIPPO Pose ID>  (584) 
17171

>  <Energy>  (584) 
124.051415

>  <fragmenstein_error>  (584) 


>  <tags>  (584) 
{'openbind_xx01zvns2b_c1_fragmenstein', 'fragmenstein_placed'}

>  <ref_pdb>  (584) 
1

>  <scratch_subdir>  (584) 
/opt/xchem-fragalysis-2/maxwin/BulkDock/SCRATCH/511027/C100016-P128

>  <alias>  (584) 
CNC(=O)[C@](O)(Nc1cc2c(cc1SC)COC2=O)c1cc(Cl)cc2[nH]ncc12

>  <HIPPO Compound ID>  (584) 
76719

>  <fragmenstein_runtime>  (584) 
6.678921

$$$$
CNC(=O)[C@@](O)(N[C@@H]1CCC2=C(C1)C(=O)OC2)c1cc(Cl)cc2[nH][n+]([O-])cc12
     RDKit          3D

 28 31  0  0  0  0  0  0  0  0999 V2000
   -6.1201    8.2160  -14.0924 C   0  0  0  0  0  0  0  0  0  0  0  0
   -6.6839    6.9111  -14.2623 N   0  0  0  0  0  0  0  0  0  0  0  0
   -6.0495    5.4997  -14.0605 C   0  0  0  0  0  0  0  0  0  0  0  0
   -4.9496    5.1929  -13.8001 O   0  0  0  0  0  0  0  0  0  0  0  0
   -7.2249    4.4269  -14.3363 C   0  0  1  0  0  0  0  0  0  0  0  0
   -6.8708    3.0967  -14.0422 O   0  0  0  0  0  0  0  0  0  0  0  0
   -8.4161    4.7380  -13.5043 N   0  0  0  0  0  0  0  0  0  0  0  0
   -8.3168    4.7589  -12.0177 C   0  0  2  0  0  0  0  0  0  0  0  0
   -7.2336    5.6395  -11.3635 C   0  0  0  0  0  0  0  0  0  0  0  0
   -7.4735    5.8687   -9.8621 C   0  0  0  0  0  0  0  0  0  0  0  0
   -8.0192    4.6692   -9.1863 C   0  0  0  0  0  0  0  0  0  0  0  0
   -8.4244    3.5713   -9.8208 C   0  0  0  0  0  0  0  0  0  0  0  0
   -8.4011    3.3717  -11.2994 C   0  0  0  0  0  0  0  0  0  0  0  0
   -9.0540    2.7314   -8.7970 C   0  0  0  0  0  0  0  0  0  0  0  0
   -9.6801    1.7088   -8.9853 O   0  0  0  0  0  0  0  0  0  0  0  0
   -8.9308    3.3418   -7.5797 O   0  0  0  0  0  0  0  0  0  0  0  0
   -8.2377    4.5724   -7.7366 C   0  0  0  0  0  0  0  0  0  0  0  0
   -7.5688    4.5100  -15.8773 C   0  0  0  0  0  0  0  0  0  0  0  0
   -8.9222    4.3435  -16.3017 C   0  0  0  0  0  0  0  0  0  0  0  0
   -9.3056    4.3215  -17.6411 C   0  0  0  0  0  0  0  0  0  0  0  0
  -10.9481    4.1648  -18.0889 Cl  0  0  0  0  0  0  0  0  0  0  0  0
   -8.3828    4.4456  -18.6559 C   0  0  0  0  0  0  0  0  0  0  0  0
   -7.0667    4.6479  -18.2840 C   0  0  0  0  0  0  0  0  0  0  0  0
   -5.9612    4.8246  -19.0764 N   0  0  0  0  0  0  0  0  0  0  0  0
   -4.7916    4.9457  -18.2837 N   0  0  0  0  0  0  0  0  0  0  0  0
   -3.6782    5.0972  -18.8414 O   0  0  0  0  0  0  0  0  0  0  0  0
   -5.1465    4.8661  -16.9857 C   0  0  0  0  0  0  0  0  0  0  0  0
   -6.6050    4.6825  -16.9389 C   0  0  0  0  0  0  0  0  0  0  0  0
  1  2  1  0
  2  3  1  0
  3  4  2  0
  3  5  1  0
  5  6  1  1
  5  7  1  0
  8  7  1  6
  8  9  1  0
  9 10  1  0
 10 11  1  0
 11 12  2  0
 12 13  1  0
 12 14  1  0
 14 15  2  0
 14 16  1  0
 16 17  1  0
  5 18  1  0
 18 19  2  0
 19 20  1  0
 20 21  1  0
 20 22  2  0
 22 23  1  0
 23 24  1  0
 24 25  1  0
 25 26  1  0
 25 27  2  0
 27 28  1  0
 13  8  1  0
 28 18  1  0
 17 11  1  0
 28 23  2  0
M  CHG  2  25   1  26  -1
M  END
>  <smiles>  (585) 
C100030-P128

>  <fragmenstein_outcome>  (585) 
acceptable

>  <inchikey>  (585) 
QRPIRCIBUDNCMF-UHFFFAOYSA-N

>  <fragmenstein_mode>  (585) 
expansion

>  <HIPPO Pose ID>  (585) 
17179

>  <Energy>  (585) 
52.312426

>  <fragmenstein_error>  (585) 


>  <tags>  (585) 
{'openbind_xx01zvns2b_c1_fragmenstein', 'fragmenstein_placed'}

>  <ref_pdb>  (585) 
1

>  <scratch_subdir>  (585) 
/opt/xchem-fragalysis-2/maxwin/BulkDock/SCRATCH/511027/C100030-P128

>  <alias>  (585) 
CNC(=O)[C@@](O)(N[C@@H]1CCC2=C(C1)C(=O)OC2)c1cc(Cl)cc2[nH][n+]([O-])cc12

>  <HIPPO Compound ID>  (585) 
100030

>  <fragmenstein_runtime>  (585) 
7.954286

$$$$
CNC(=O)[C@@H](Nc1ccc2c(c1)C(=O)OC2)c1cc(Cl)cc2[nH]ncc12
     RDKit          3D

 26 29  0  0  0  0  0  0  0  0999 V2000
   -6.5345    8.2891  -13.7386 C   0  0  0  0  0  0  0  0  0  0  0  0
   -6.9817    6.9518  -13.9809 N   0  0  0  0  0  0  0  0  0  0  0  0
   -6.1764    5.6355  -14.1556 C   0  0  0  0  0  0  0  0  0  0  0  0
   -5.0299    5.4294  -14.0518 O   0  0  0  0  0  0  0  0  0  0  0  0
   -7.2001    4.5095  -14.5538 C   0  0  1  0  0  0  0  0  0  0  0  0
   -8.4316    4.5228  -13.6780 N   0  0  0  0  0  0  0  0  0  0  0  0
   -8.1490    4.5626  -12.2901 C   0  0  0  0  0  0  0  0  0  0  0  0
   -8.6266    5.6645  -11.5491 C   0  0  0  0  0  0  0  0  0  0  0  0
   -8.3285    5.8305  -10.1951 C   0  0  0  0  0  0  0  0  0  0  0  0
   -7.4905    4.9060   -9.6133 C   0  0  0  0  0  0  0  0  0  0  0  0
   -7.0186    3.8320  -10.3405 C   0  0  0  0  0  0  0  0  0  0  0  0
   -7.3595    3.6025  -11.6609 C   0  0  0  0  0  0  0  0  0  0  0  0
   -5.9472    3.1974   -9.5846 C   0  0  0  0  0  0  0  0  0  0  0  0
   -5.2091    2.3097   -9.9647 O   0  0  0  0  0  0  0  0  0  0  0  0
   -5.8182    3.9241   -8.4287 O   0  0  0  0  0  0  0  0  0  0  0  0
   -6.8646    4.8979   -8.2817 C   0  0  0  0  0  0  0  0  0  0  0  0
   -7.5875    4.6058  -16.0385 C   0  0  0  0  0  0  0  0  0  0  0  0
   -8.9331    4.3807  -16.4330 C   0  0  0  0  0  0  0  0  0  0  0  0
   -9.3211    4.3191  -17.7651 C   0  0  0  0  0  0  0  0  0  0  0  0
  -10.9677    4.1311  -18.1771 Cl  0  0  0  0  0  0  0  0  0  0  0  0
   -8.4006    4.4418  -18.7854 C   0  0  0  0  0  0  0  0  0  0  0  0
   -7.0936    4.7447  -18.4240 C   0  0  0  0  0  0  0  0  0  0  0  0
   -6.0049    5.0035  -19.2150 N   0  0  0  0  0  0  0  0  0  0  0  0
   -4.8908    5.2819  -18.5189 N   0  0  0  0  0  0  0  0  0  0  0  0
   -5.2791    5.1297  -17.2460 C   0  0  0  0  0  0  0  0  0  0  0  0
   -6.6626    4.8331  -17.1025 C   0  0  0  0  0  0  0  0  0  0  0  0
  1  2  1  0
  2  3  1  0
  3  4  2  0
  3  5  1  0
  5  6  1  1
  6  7  1  0
  7  8  2  0
  8  9  1  0
  9 10  2  0
 10 11  1  0
 11 12  2  0
 11 13  1  0
 13 14  2  0
 13 15  1  0
 15 16  1  0
  5 17  1  0
 17 18  2  0
 18 19  1  0
 19 20  1  0
 19 21  2  0
 21 22  1  0
 22 23  1  0
 23 24  1  0
 24 25  2  0
 25 26  1  0
 12  7  1  0
 26 17  1  0
 16 10  1  0
 26 22  2  0
M  END
>  <smiles>  (586) 
C120-P128

>  <fragmenstein_outcome>  (586) 
acceptable

>  <inchikey>  (586) 
HNZZZCIGBNYXEQ-UHFFFAOYSA-N

>  <fragmenstein_mode>  (586) 
expansion

>  <HIPPO Pose ID>  (586) 
17187

>  <Energy>  (586) 
111.399655

>  <fragmenstein_error>  (586) 


>  <tags>  (586) 
{'openbind_xx01zvns2b_c1_fragmenstein', 'fragmenstein_placed'}

>  <ref_pdb>  (586) 
1

>  <scratch_subdir>  (586) 
/opt/xchem-fragalysis-2/maxwin/BulkDock/SCRATCH/511027/C120-P128

>  <alias>  (586) 
CNC(=O)[C@@H](Nc1ccc2c(c1)C(=O)OC2)c1cc(Cl)cc2[nH]ncc12

>  <HIPPO Compound ID>  (586) 
120

>  <fragmenstein_runtime>  (586) 
4.345604

$$$$
CNC(=O)[C@@](O)(Nc1ccc2c(c1)C(=O)OC2)c1cc(Cl)cc2c1cnn2CN(C)C1CCOCC1
     RDKit          3D

 36 40  0  0  0  0  0  0  0  0999 V2000
   -4.1189    6.1169  -12.3378 C   0  0  0  0  0  0  0  0  0  0  0  0
   -5.2210    5.3684  -12.8582 N   0  0  0  0  0  0  0  0  0  0  0  0
   -6.4845    5.8400  -13.6501 C   0  0  0  0  0  0  0  0  0  0  0  0
   -6.8482    6.9203  -13.9260 O   0  0  0  0  0  0  0  0  0  0  0  0
   -7.3068    4.4842  -14.0175 C   0  0  1  0  0  0  0  0  0  0  0  0
   -6.5229    3.3213  -13.7767 O   0  0  0  0  0  0  0  0  0  0  0  0
   -8.5220    4.3202  -13.1871 N   0  0  0  0  0  0  0  0  0  0  0  0
   -8.4625    4.5013  -11.7921 C   0  0  0  0  0  0  0  0  0  0  0  0
   -8.1799    5.7675  -11.2350 C   0  0  0  0  0  0  0  0  0  0  0  0
   -8.0704    5.9743   -9.8563 C   0  0  0  0  0  0  0  0  0  0  0  0
   -8.3083    4.9049   -9.0209 C   0  0  0  0  0  0  0  0  0  0  0  0
   -8.6503    3.6732   -9.5376 C   0  0  0  0  0  0  0  0  0  0  0  0
   -8.7124    3.4357  -10.9091 C   0  0  0  0  0  0  0  0  0  0  0  0
   -9.0045    2.8000   -8.4142 C   0  0  0  0  0  0  0  0  0  0  0  0
   -9.4648    1.6803   -8.4530 O   0  0  0  0  0  0  0  0  0  0  0  0
   -8.8094    3.5314   -7.2704 O   0  0  0  0  0  0  0  0  0  0  0  0
   -8.3168    4.8491   -7.5494 C   0  0  0  0  0  0  0  0  0  0  0  0
   -7.5992    4.5239  -15.5242 C   0  0  0  0  0  0  0  0  0  0  0  0
   -8.8949    4.3368  -16.0659 C   0  0  0  0  0  0  0  0  0  0  0  0
   -9.1410    4.3859  -17.4398 C   0  0  0  0  0  0  0  0  0  0  0  0
  -10.7289    4.1729  -18.0583 Cl  0  0  0  0  0  0  0  0  0  0  0  0
   -8.1310    4.6756  -18.3470 C   0  0  0  0  0  0  0  0  0  0  0  0
   -6.8591    4.9177  -17.8324 C   0  0  0  0  0  0  0  0  0  0  0  0
   -6.5707    4.7910  -16.4746 C   0  0  0  0  0  0  0  0  0  0  0  0
   -5.1679    4.9805  -16.4119 C   0  0  0  0  0  0  0  0  0  0  0  0
   -4.6161    5.2722  -17.5891 N   0  0  0  0  0  0  0  0  0  0  0  0
   -5.6892    5.3430  -18.4203 N   0  0  0  0  0  0  0  0  0  0  0  0
   -5.4823    5.8563  -19.7847 C   0  0  0  0  0  0  0  0  0  0  0  0
   -5.6182    7.3366  -19.8960 N   0  0  0  0  0  0  0  0  0  0  0  0
   -5.2252    8.0577  -18.6797 C   0  0  0  0  0  0  0  0  0  0  0  0
   -4.9174    7.9116  -21.0763 C   0  0  0  0  0  0  0  0  0  0  0  0
   -5.5461    7.5219  -22.4271 C   0  0  0  0  0  0  0  0  0  0  0  0
   -4.5694    7.6702  -23.5884 C   0  0  0  0  0  0  0  0  0  0  0  0
   -3.6901    8.7630  -23.3522 O   0  0  0  0  0  0  0  0  0  0  0  0
   -2.7852    8.5200  -22.2766 C   0  0  0  0  0  0  0  0  0  0  0  0
   -3.3950    7.7051  -21.1336 C   0  0  0  0  0  0  0  0  0  0  0  0
  1  2  1  0
  2  3  1  0
  3  4  2  0
  3  5  1  0
  5  6  1  6
  5  7  1  0
  7  8  1  0
  8  9  2  0
  9 10  1  0
 10 11  2  0
 11 12  1  0
 12 13  2  0
 12 14  1  0
 14 15  2  0
 14 16  1  0
 16 17  1  0
  5 18  1  0
 18 19  2  0
 19 20  1  0
 20 21  1  0
 20 22  2  0
 22 23  1  0
 23 24  2  0
 24 25  1  0
 25 26  2  0
 26 27  1  0
 27 28  1  0
 28 29  1  0
 29 30  1  0
 29 31  1  0
 31 32  1  0
 32 33  1  0
 33 34  1  0
 34 35  1  0
 35 36  1  0
 13  8  1  0
 24 18  1  0
 36 31  1  0
 17 11  1  0
 27 23  1  0
M  END
>  <smiles>  (587) 
C100045-P128

>  <fragmenstein_outcome>  (587) 
acceptable

>  <inchikey>  (587) 
DOCORKKVSBBOFU-UHFFFAOYSA-N

>  <fragmenstein_mode>  (587) 
expansion

>  <HIPPO Pose ID>  (587) 
17190

>  <Energy>  (587) 
159.225782

>  <fragmenstein_error>  (587) 


>  <tags>  (587) 
{'openbind_xx01zvns2b_c1_fragmenstein', 'fragmenstein_placed'}

>  <ref_pdb>  (587) 
1

>  <scratch_subdir>  (587) 
/opt/xchem-fragalysis-2/maxwin/BulkDock/SCRATCH/511027/C100045-P128

>  <alias>  (587) 
CNC(=O)[C@@](O)(Nc1ccc2c(c1)C(=O)OC2)c1cc(Cl)cc2c1cnn2CN(C)C1CCOCC1

>  <HIPPO Compound ID>  (587) 
100045

>  <fragmenstein_runtime>  (587) 
6.337766

$$$$
CNCn1ncc2c([C@@](O)(Nc3cc4c(cc3F)COC4=O)C(=O)NC)cc(Cl)cc21
     RDKit          3D

 31 34  0  0  0  0  0  0  0  0999 V2000
   -5.2675    7.4680  -21.0170 C   0  0  0  0  0  0  0  0  0  0  0  0
   -5.8160    7.0013  -19.7505 N   0  0  0  0  0  0  0  0  0  0  0  0
   -5.3010    5.6504  -19.4614 C   0  0  0  0  0  0  0  0  0  0  0  0
   -5.5124    5.3589  -18.0435 N   0  0  0  0  0  0  0  0  0  0  0  0
   -4.4997    5.5081  -17.1631 N   0  0  0  0  0  0  0  0  0  0  0  0
   -5.0917    5.3022  -15.9853 C   0  0  0  0  0  0  0  0  0  0  0  0
   -6.4572    4.9238  -16.0939 C   0  0  0  0  0  0  0  0  0  0  0  0
   -7.5203    4.6395  -15.1844 C   0  0  0  0  0  0  0  0  0  0  0  0
   -7.3749    4.8573  -13.6709 C   0  0  1  0  0  0  0  0  0  0  0  0
   -7.4529    6.2686  -13.6162 O   0  0  0  0  0  0  0  0  0  0  0  0
   -8.4746    4.2765  -12.8608 N   0  0  0  0  0  0  0  0  0  0  0  0
   -8.3861    4.2808  -11.4436 C   0  0  0  0  0  0  0  0  0  0  0  0
   -8.8424    3.1623  -10.7127 C   0  0  0  0  0  0  0  0  0  0  0  0
   -8.7932    3.1853   -9.3163 C   0  0  0  0  0  0  0  0  0  0  0  0
   -8.3216    4.2774   -8.6214 C   0  0  0  0  0  0  0  0  0  0  0  0
   -7.8883    5.3987   -9.2899 C   0  0  0  0  0  0  0  0  0  0  0  0
   -7.9326    5.3912  -10.6829 C   0  0  0  0  0  0  0  0  0  0  0  0
   -7.5268    6.5222  -11.2742 F   0  0  0  0  0  0  0  0  0  0  0  0
   -8.4041    4.0270   -7.1723 C   0  0  0  0  0  0  0  0  0  0  0  0
   -9.0362    2.7451   -7.0897 O   0  0  0  0  0  0  0  0  0  0  0  0
   -9.2643    2.2067   -8.3281 C   0  0  0  0  0  0  0  0  0  0  0  0
   -9.8396    1.1592   -8.5217 O   0  0  0  0  0  0  0  0  0  0  0  0
   -5.9657    4.3188  -13.1078 C   0  0  0  0  0  0  0  0  0  0  0  0
   -5.1536    5.0496  -12.6844 O   0  0  0  0  0  0  0  0  0  0  0  0
   -5.9857    2.7639  -13.1758 N   0  0  0  0  0  0  0  0  0  0  0  0
   -5.0643    1.7990  -12.6568 C   0  0  0  0  0  0  0  0  0  0  0  0
   -8.7853    4.3882  -15.7882 C   0  0  0  0  0  0  0  0  0  0  0  0
   -8.9676    4.3652  -17.1752 C   0  0  0  0  0  0  0  0  0  0  0  0
  -10.5209    4.1323  -17.8813 Cl  0  0  0  0  0  0  0  0  0  0  0  0
   -7.9172    4.6198  -18.0421 C   0  0  0  0  0  0  0  0  0  0  0  0
   -6.6854    4.9304  -17.4685 C   0  0  0  0  0  0  0  0  0  0  0  0
  1  2  1  0
  2  3  1  0
  3  4  1  0
  4  5  1  0
  5  6  2  0
  6  7  1  0
  7  8  2  0
  8  9  1  0
  9 10  1  6
  9 11  1  0
 11 12  1  0
 12 13  2  0
 13 14  1  0
 14 15  2  0
 15 16  1  0
 16 17  2  0
 17 18  1  0
 15 19  1  0
 19 20  1  0
 20 21  1  0
 21 22  2  0
  9 23  1  0
 23 24  2  0
 23 25  1  0
 25 26  1  0
  8 27  1  0
 27 28  2  0
 28 29  1  0
 28 30  1  0
 30 31  2  0
 31  4  1  0
 31  7  1  0
 17 12  1  0
 21 14  1  0
M  END
>  <smiles>  (588) 
C100061-P128

>  <fragmenstein_outcome>  (588) 
acceptable

>  <inchikey>  (588) 
YBXBTXDPCGLLDX-UHFFFAOYSA-N

>  <fragmenstein_mode>  (588) 
expansion

>  <HIPPO Pose ID>  (588) 
17196

>  <Energy>  (588) 
156.22475

>  <fragmenstein_error>  (588) 


>  <tags>  (588) 
{'openbind_xx01zvns2b_c1_fragmenstein', 'fragmenstein_placed'}

>  <ref_pdb>  (588) 
1

>  <scratch_subdir>  (588) 
/opt/xchem-fragalysis-2/maxwin/BulkDock/SCRATCH/511027/C100061-P128

>  <alias>  (588) 
CNCn1ncc2c([C@@](O)(Nc3cc4c(cc3F)COC4=O)C(=O)NC)cc(Cl)cc21

>  <HIPPO Compound ID>  (588) 
100061

>  <fragmenstein_runtime>  (588) 
5.425618

$$$$
CNCn1ncc2c([C@@](O)(Nc3ccc4c(c3)C(=O)N(CC(F)F)C4)C(=O)NC)cc(Cl)cc21
     RDKit          3D

 34 37  0  0  0  0  0  0  0  0999 V2000
   -1.9824    5.8347  -18.4416 C   0  0  0  0  0  0  0  0  0  0  0  0
   -2.9513    4.7530  -18.3361 N   0  0  0  0  0  0  0  0  0  0  0  0
   -4.3148    5.2024  -18.6983 C   0  0  0  0  0  0  0  0  0  0  0  0
   -5.0430    5.6149  -17.5101 N   0  0  0  0  0  0  0  0  0  0  0  0
   -4.4619    6.4498  -16.6274 N   0  0  0  0  0  0  0  0  0  0  0  0
   -5.2971    6.4169  -15.5976 C   0  0  0  0  0  0  0  0  0  0  0  0
   -6.4914    5.6902  -15.8483 C   0  0  0  0  0  0  0  0  0  0  0  0
   -7.6889    5.3895  -15.1364 C   0  0  0  0  0  0  0  0  0  0  0  0
   -7.9873    5.7689  -13.6718 C   0  0  1  0  0  0  0  0  0  0  0  0
   -9.2630    6.3906  -13.6607 O   0  0  0  0  0  0  0  0  0  0  0  0
   -8.0875    4.5520  -12.8503 N   0  0  0  0  0  0  0  0  0  0  0  0
   -8.3433    4.5717  -11.4692 C   0  0  0  0  0  0  0  0  0  0  0  0
   -8.1211    5.7033  -10.6391 C   0  0  0  0  0  0  0  0  0  0  0  0
   -8.1837    5.6603   -9.2449 C   0  0  0  0  0  0  0  0  0  0  0  0
   -8.5246    4.4683   -8.6672 C   0  0  0  0  0  0  0  0  0  0  0  0
   -8.8123    3.3631   -9.4662 C   0  0  0  0  0  0  0  0  0  0  0  0
   -8.6901    3.3692  -10.8438 C   0  0  0  0  0  0  0  0  0  0  0  0
   -9.2984    2.3096   -8.5802 C   0  0  0  0  0  0  0  0  0  0  0  0
   -9.7479    1.2340   -8.8991 O   0  0  0  0  0  0  0  0  0  0  0  0
   -9.2190    2.8041   -7.3037 N   0  0  0  0  0  0  0  0  0  0  0  0
   -9.4692    1.9785   -6.1527 C   0  0  0  0  0  0  0  0  0  0  0  0
  -10.4435    2.5757   -5.1606 C   0  0  0  0  0  0  0  0  0  0  0  0
   -9.8553    3.5981   -4.4769 F   0  0  0  0  0  0  0  0  0  0  0  0
  -11.5110    3.1198   -5.7959 F   0  0  0  0  0  0  0  0  0  0  0  0
   -8.6893    4.1378   -7.2275 C   0  0  0  0  0  0  0  0  0  0  0  0
   -6.8338    6.7453  -13.1094 C   0  0  0  0  0  0  0  0  0  0  0  0
   -6.9155    7.9149  -13.1431 O   0  0  0  0  0  0  0  0  0  0  0  0
   -5.6889    5.8249  -12.5710 N   0  0  0  0  0  0  0  0  0  0  0  0
   -4.4746    6.1553  -11.8892 C   0  0  0  0  0  0  0  0  0  0  0  0
   -8.7082    4.7509  -15.8944 C   0  0  0  0  0  0  0  0  0  0  0  0
   -8.5661    4.4587  -17.2497 C   0  0  0  0  0  0  0  0  0  0  0  0
   -9.9205    3.8827  -18.1389 Cl  0  0  0  0  0  0  0  0  0  0  0  0
   -7.3666    4.6851  -17.9139 C   0  0  0  0  0  0  0  0  0  0  0  0
   -6.3394    5.2870  -17.1774 C   0  0  0  0  0  0  0  0  0  0  0  0
  1  2  1  0
  2  3  1  0
  3  4  1  0
  4  5  1  0
  5  6  2  0
  6  7  1  0
  7  8  2  0
  8  9  1  0
  9 10  1  6
  9 11  1  0
 11 12  1  0
 12 13  2  0
 13 14  1  0
 14 15  2  0
 15 16  1  0
 16 17  2  0
 16 18  1  0
 18 19  2  0
 18 20  1  0
 20 21  1  0
 21 22  1  0
 22 23  1  0
 22 24  1  0
 20 25  1  0
  9 26  1  0
 26 27  2  0
 26 28  1  0
 28 29  1  0
  8 30  1  0
 30 31  2  0
 31 32  1  0
 31 33  1  0
 33 34  2  0
 34  4  1  0
 34  7  1  0
 17 12  1  0
 25 15  1  0
M  END
>  <smiles>  (589) 
C100065-P128

>  <fragmenstein_outcome>  (589) 
acceptable

>  <inchikey>  (589) 
XEJBEYFJZOMETI-UHFFFAOYSA-N

>  <fragmenstein_mode>  (589) 
expansion

>  <HIPPO Pose ID>  (589) 
17199

>  <Energy>  (589) 
153.233976

>  <fragmenstein_error>  (589) 


>  <tags>  (589) 
{'openbind_xx01zvns2b_c1_fragmenstein', 'fragmenstein_placed'}

>  <ref_pdb>  (589) 
1

>  <scratch_subdir>  (589) 
/opt/xchem-fragalysis-2/maxwin/BulkDock/SCRATCH/511027/C100065-P128

>  <alias>  (589) 
CNCn1ncc2c([C@@](O)(Nc3ccc4c(c3)C(=O)N(CC(F)F)C4)C(=O)NC)cc(Cl)cc21

>  <HIPPO Compound ID>  (589) 
100612

>  <fragmenstein_runtime>  (589) 
7.963023

$$$$
CC(C)NC(=O)[C@H](Nc1ccc2c(c1)C(=O)OC2)c1cc(Cl)cc2c1CC1(CCCCC1)N2
     RDKit          3D

 33 37  0  0  0  0  0  0  0  0999 V2000
   -3.6480    2.0154  -13.3726 C   0  0  0  0  0  0  0  0  0  0  0  0
   -4.5758    2.6984  -12.3790 C   0  0  0  0  0  0  0  0  0  0  0  0
   -5.0967    1.7294  -11.3250 C   0  0  0  0  0  0  0  0  0  0  0  0
   -5.6749    3.3513  -13.0534 N   0  0  0  0  0  0  0  0  0  0  0  0
   -5.8871    4.8461  -13.4232 C   0  0  0  0  0  0  0  0  0  0  0  0
   -5.1708    5.7653  -13.3076 O   0  0  0  0  0  0  0  0  0  0  0  0
   -7.3567    5.0125  -13.9718 C   0  0  2  0  0  0  0  0  0  0  0  0
   -8.3334    4.2396  -13.1451 N   0  0  0  0  0  0  0  0  0  0  0  0
   -8.3135    4.3282  -11.7442 C   0  0  0  0  0  0  0  0  0  0  0  0
   -7.8855    5.4945  -11.0725 C   0  0  0  0  0  0  0  0  0  0  0  0
   -7.8418    5.5765   -9.6752 C   0  0  0  0  0  0  0  0  0  0  0  0
   -8.2645    4.4873   -8.9422 C   0  0  0  0  0  0  0  0  0  0  0  0
   -8.7323    3.3568   -9.5739 C   0  0  0  0  0  0  0  0  0  0  0  0
   -8.7706    3.2521  -10.9617 C   0  0  0  0  0  0  0  0  0  0  0  0
   -9.2016    2.4284   -8.5402 C   0  0  0  0  0  0  0  0  0  0  0  0
   -9.7643    1.3659   -8.6828 O   0  0  0  0  0  0  0  0  0  0  0  0
   -8.9771    3.0326   -7.3316 O   0  0  0  0  0  0  0  0  0  0  0  0
   -8.3339    4.3037   -7.4823 C   0  0  0  0  0  0  0  0  0  0  0  0
   -7.5311    4.7675  -15.4767 C   0  0  0  0  0  0  0  0  0  0  0  0
   -8.8143    4.4802  -15.9986 C   0  0  0  0  0  0  0  0  0  0  0  0
   -9.0452    4.3259  -17.3787 C   0  0  0  0  0  0  0  0  0  0  0  0
  -10.6351    4.0747  -17.9774 Cl  0  0  0  0  0  0  0  0  0  0  0  0
   -8.0124    4.4360  -18.2926 C   0  0  0  0  0  0  0  0  0  0  0  0
   -6.7692    4.7759  -17.8115 C   0  0  0  0  0  0  0  0  0  0  0  0
   -6.5264    4.9506  -16.4384 C   0  0  0  0  0  0  0  0  0  0  0  0
   -5.0805    5.3291  -16.2962 C   0  0  0  0  0  0  0  0  0  0  0  0
   -4.6405    5.5998  -17.7744 C   0  0  0  0  0  0  0  0  0  0  0  0
   -3.2398    5.0134  -18.0728 C   0  0  0  0  0  0  0  0  0  0  0  0
   -2.1394    6.0583  -17.9368 C   0  0  0  0  0  0  0  0  0  0  0  0
   -2.3267    7.2030  -18.9338 C   0  0  0  0  0  0  0  0  0  0  0  0
   -3.7932    7.4889  -19.2625 C   0  0  0  0  0  0  0  0  0  0  0  0
   -4.7103    7.1191  -18.1000 C   0  0  0  0  0  0  0  0  0  0  0  0
   -5.6152    4.8849  -18.6129 N   0  0  0  0  0  0  0  0  0  0  0  0
  1  2  1  0
  2  3  1  0
  2  4  1  0
  4  5  1  0
  5  6  2  0
  5  7  1  0
  7  8  1  1
  8  9  1  0
  9 10  2  0
 10 11  1  0
 11 12  2  0
 12 13  1  0
 13 14  2  0
 13 15  1  0
 15 16  2  0
 15 17  1  0
 17 18  1  0
  7 19  1  0
 19 20  2  0
 20 21  1  0
 21 22  1  0
 21 23  2  0
 23 24  1  0
 24 25  2  0
 25 26  1  0
 26 27  1  0
 27 28  1  0
 28 29  1  0
 29 30  1  0
 30 31  1  0
 31 32  1  0
 27 33  1  0
 14  9  1  0
 25 19  1  0
 32 27  1  0
 18 12  1  0
 33 24  1  0
M  END
>  <smiles>  (590) 
C100074-P128

>  <fragmenstein_outcome>  (590) 
acceptable

>  <inchikey>  (590) 
RCBBKKJFANGGPE-UHFFFAOYSA-N

>  <fragmenstein_mode>  (590) 
expansion

>  <HIPPO Pose ID>  (590) 
17206

>  <Energy>  (590) 
121.887733

>  <fragmenstein_error>  (590) 


>  <tags>  (590) 
{'openbind_xx01zvns2b_c1_fragmenstein', 'fragmenstein_placed'}

>  <ref_pdb>  (590) 
1

>  <scratch_subdir>  (590) 
/opt/xchem-fragalysis-2/maxwin/BulkDock/SCRATCH/511027/C100074-P128

>  <alias>  (590) 
CC(C)NC(=O)[C@H](Nc1ccc2c(c1)C(=O)OC2)c1cc(Cl)cc2c1CC1(CCCCC1)N2

>  <HIPPO Compound ID>  (590) 
87287

>  <fragmenstein_runtime>  (590) 
13.92567

$$$$
O=C(Nc1ccc2c(c1)CNC2)[C@@H]1C[C@H](O)[C@@H]2N[C@@H](O)CCCC[C@@H]21
     RDKit          3D

 25 28  0  0  0  0  0  0  0  0999 V2000
   -7.0940    6.7448  -13.2215 O   0  0  0  0  0  0  0  0  0  0  0  0
   -7.6202    5.7466  -13.5387 C   0  0  0  0  0  0  0  0  0  0  0  0
   -8.1504    4.5662  -12.6725 N   0  0  0  0  0  0  0  0  0  0  0  0
   -8.2245    4.4216  -11.2883 C   0  0  0  0  0  0  0  0  0  0  0  0
   -7.9674    5.5177  -10.4490 C   0  0  0  0  0  0  0  0  0  0  0  0
   -8.0909    5.4075   -9.0616 C   0  0  0  0  0  0  0  0  0  0  0  0
   -8.4610    4.1864   -8.5355 C   0  0  0  0  0  0  0  0  0  0  0  0
   -8.6858    3.0873   -9.3588 C   0  0  0  0  0  0  0  0  0  0  0  0
   -8.5825    3.1874  -10.7393 C   0  0  0  0  0  0  0  0  0  0  0  0
   -8.9937    1.9062   -8.4976 C   0  0  0  0  0  0  0  0  0  0  0  0
   -9.3467    2.4745   -7.1692 N   0  0  0  0  0  0  0  0  0  0  0  0
   -8.6668    3.7861   -7.1134 C   0  0  0  0  0  0  0  0  0  0  0  0
   -7.9701    5.5303  -15.0161 C   0  0  2  0  0  0  0  0  0  0  0  0
   -8.5969    4.2659  -15.5513 C   0  0  0  0  0  0  0  0  0  0  0  0
   -8.6555    4.5529  -17.0406 C   0  0  2  0  0  0  0  0  0  0  0  0
   -8.7970    3.3869  -17.8210 O   0  0  0  0  0  0  0  0  0  0  0  0
   -7.3564    5.3588  -17.3634 C   0  0  2  0  0  0  0  0  0  0  0  0
   -6.5400    4.6354  -18.3195 N   0  0  0  0  0  0  0  0  0  0  0  0
   -5.5713    5.3592  -19.0951 C   0  0  1  0  0  0  0  0  0  0  0  0
   -6.0995    6.5761  -19.5809 O   0  0  0  0  0  0  0  0  0  0  0  0
   -4.1943    5.5596  -18.4602 C   0  0  0  0  0  0  0  0  0  0  0  0
   -4.1368    6.5028  -17.2662 C   0  0  0  0  0  0  0  0  0  0  0  0
   -4.2171    5.8018  -15.9120 C   0  0  0  0  0  0  0  0  0  0  0  0
   -5.4931    5.0230  -15.5841 C   0  0  0  0  0  0  0  0  0  0  0  0
   -6.7782    5.7684  -15.9789 C   0  0  2  0  0  0  0  0  0  0  0  0
  1  2  2  0
  2  3  1  0
  3  4  1  0
  4  5  2  0
  5  6  1  0
  6  7  2  0
  7  8  1  0
  8  9  2  0
  8 10  1  0
 10 11  1  0
 11 12  1  0
 13  2  1  1
 13 14  1  0
 14 15  1  0
 15 16  1  6
 15 17  1  0
 17 18  1  1
 18 19  1  0
 19 20  1  1
 19 21  1  0
 21 22  1  0
 22 23  1  0
 23 24  1  0
 25 24  1  1
  9  4  1  0
 25 13  1  0
 12  7  1  0
 25 17  1  0
M  END
>  <smiles>  (591) 
C100099-P128

>  <fragmenstein_outcome>  (591) 
acceptable

>  <inchikey>  (591) 
MYZHWQGTIHOSJF-UHFFFAOYSA-N

>  <fragmenstein_mode>  (591) 
expansion

>  <HIPPO Pose ID>  (591) 
17219

>  <Energy>  (591) 
32.616682

>  <fragmenstein_error>  (591) 


>  <tags>  (591) 
{'openbind_xx01zvns2b_c1_fragmenstein', 'fragmenstein_placed'}

>  <ref_pdb>  (591) 
1

>  <scratch_subdir>  (591) 
/opt/xchem-fragalysis-2/maxwin/BulkDock/SCRATCH/511027/C100099-P128

>  <alias>  (591) 
O=C(Nc1ccc2c(c1)CNC2)[C@@H]1C[C@H](O)[C@@H]2N[C@@H](O)CCCC[C@@H]21

>  <HIPPO Compound ID>  (591) 
93394

>  <fragmenstein_runtime>  (591) 
4.17291

$$$$
O=C1COC2=C(N1)[C@H](Cl)C[C@H](C(=O)Nc1ccc3c(c1)CNC3)[C@]21CNCN1
     RDKit          3D

 28 32  0  0  0  0  0  0  0  0999 V2000
   -5.0728    5.8371  -20.1153 O   0  0  0  0  0  0  0  0  0  0  0  0
   -5.3985    5.3342  -19.0490 C   0  0  0  0  0  0  0  0  0  0  0  0
   -4.3695    5.0419  -17.9914 C   0  0  0  0  0  0  0  0  0  0  0  0
   -4.8275    5.2234  -16.6719 O   0  0  0  0  0  0  0  0  0  0  0  0
   -6.1304    4.8057  -16.4235 C   0  0  0  0  0  0  0  0  0  0  0  0
   -7.0367    4.6426  -17.4148 C   0  0  0  0  0  0  0  0  0  0  0  0
   -6.6800    4.9692  -18.7094 N   0  0  0  0  0  0  0  0  0  0  0  0
   -8.4368    4.1748  -17.1019 C   0  0  2  0  0  0  0  0  0  0  0  0
   -9.6378    4.4324  -18.3779 Cl  0  0  0  0  0  0  0  0  0  0  0  0
   -8.9113    4.7140  -15.7622 C   0  0  0  0  0  0  0  0  0  0  0  0
   -7.9446    4.3069  -14.6481 C   0  0  2  0  0  0  0  0  0  0  0  0
   -8.4211    4.9580  -13.3502 C   0  0  0  0  0  0  0  0  0  0  0  0
   -8.7060    6.0893  -13.2779 O   0  0  0  0  0  0  0  0  0  0  0  0
   -8.3303    3.8721  -12.2469 N   0  0  0  0  0  0  0  0  0  0  0  0
   -8.4723    3.9716  -10.8755 C   0  0  0  0  0  0  0  0  0  0  0  0
   -8.3414    5.1956  -10.2028 C   0  0  0  0  0  0  0  0  0  0  0  0
   -8.4405    5.2454   -8.8081 C   0  0  0  0  0  0  0  0  0  0  0  0
   -8.7331    4.0730   -8.1317 C   0  0  0  0  0  0  0  0  0  0  0  0
   -8.8912    2.8739   -8.8142 C   0  0  0  0  0  0  0  0  0  0  0  0
   -8.7219    2.7960  -10.1791 C   0  0  0  0  0  0  0  0  0  0  0  0
   -9.2445    1.7892   -7.8607 C   0  0  0  0  0  0  0  0  0  0  0  0
   -9.5140    2.4665   -6.5690 N   0  0  0  0  0  0  0  0  0  0  0  0
   -8.9445    3.8279   -6.6759 C   0  0  0  0  0  0  0  0  0  0  0  0
   -6.4418    4.6630  -14.9125 C   0  0  2  0  0  0  0  0  0  0  0  0
   -5.9082    5.9078  -14.1591 C   0  0  0  0  0  0  0  0  0  0  0  0
   -4.4530    5.6869  -14.0786 N   0  0  0  0  0  0  0  0  0  0  0  0
   -4.3260    4.2533  -13.8793 C   0  0  0  0  0  0  0  0  0  0  0  0
   -5.5703    3.6142  -14.3007 N   0  0  0  0  0  0  0  0  0  0  0  0
  1  2  2  0
  2  3  1  0
  3  4  1  0
  4  5  1  0
  5  6  2  0
  6  7  1  0
  6  8  1  0
  8  9  1  6
  8 10  1  0
 10 11  1  0
 11 12  1  1
 12 13  2  0
 12 14  1  0
 14 15  1  0
 15 16  2  0
 16 17  1  0
 17 18  2  0
 18 19  1  0
 19 20  2  0
 19 21  1  0
 21 22  1  0
 22 23  1  0
 11 24  1  0
 24 25  1  1
 25 26  1  0
 26 27  1  0
 27 28  1  0
  7  2  1  0
 20 15  1  0
 28 24  1  0
 24  5  1  0
 23 18  1  0
M  END
>  <smiles>  (592) 
C100193-P129

>  <fragmenstein_outcome>  (592) 
acceptable

>  <inchikey>  (592) 
LYXRSBGMVPCMBM-UHFFFAOYSA-N

>  <fragmenstein_mode>  (592) 
expansion

>  <HIPPO Pose ID>  (592) 
17243

>  <Energy>  (592) 
70.278156

>  <fragmenstein_error>  (592) 


>  <tags>  (592) 
{'openbind_xx01zvns2b_c1_fragmenstein', 'fragmenstein_placed'}

>  <ref_pdb>  (592) 
1

>  <scratch_subdir>  (592) 
/opt/xchem-fragalysis-2/maxwin/BulkDock/SCRATCH/511027/C100193-P129

>  <alias>  (592) 
O=C1COC2=C(N1)[C@H](Cl)C[C@H](C(=O)Nc1ccc3c(c1)CNC3)[C@]21CNCN1

>  <HIPPO Compound ID>  (592) 
88600

>  <fragmenstein_runtime>  (592) 
5.820538

$$$$
CCc1cc(C(=O)Nc2ccc3c(c2)CNC3)c2c[nH]c3c2c1NC(=O)C3
     RDKit          3D

 27 31  0  0  0  0  0  0  0  0999 V2000
   -9.8981    3.1774  -18.1435 C   0  0  0  0  0  0  0  0  0  0  0  0
   -9.7755    4.5802  -17.6704 C   0  0  0  0  0  0  0  0  0  0  0  0
   -8.4926    4.7446  -16.8942 C   0  0  0  0  0  0  0  0  0  0  0  0
   -8.5747    4.9123  -15.4445 C   0  0  0  0  0  0  0  0  0  0  0  0
   -7.4573    5.1867  -14.6051 C   0  0  0  0  0  0  0  0  0  0  0  0
   -7.5469    5.5520  -13.1918 C   0  0  0  0  0  0  0  0  0  0  0  0
   -7.2168    6.6219  -12.8653 O   0  0  0  0  0  0  0  0  0  0  0  0
   -8.0107    4.3492  -12.3488 N   0  0  0  0  0  0  0  0  0  0  0  0
   -8.2484    4.2413  -10.9839 C   0  0  0  0  0  0  0  0  0  0  0  0
   -8.0861    5.3451  -10.1283 C   0  0  0  0  0  0  0  0  0  0  0  0
   -8.3155    5.2270   -8.7543 C   0  0  0  0  0  0  0  0  0  0  0  0
   -8.7188    3.9988   -8.2676 C   0  0  0  0  0  0  0  0  0  0  0  0
   -8.8657    2.9038   -9.1149 C   0  0  0  0  0  0  0  0  0  0  0  0
   -8.6312    3.0017  -10.4740 C   0  0  0  0  0  0  0  0  0  0  0  0
   -9.2524    1.7136   -8.3062 C   0  0  0  0  0  0  0  0  0  0  0  0
   -9.7249    2.2653   -7.0114 N   0  0  0  0  0  0  0  0  0  0  0  0
   -9.0559    3.5800   -6.8748 C   0  0  0  0  0  0  0  0  0  0  0  0
   -6.2743    5.2141  -15.3326 C   0  0  0  0  0  0  0  0  0  0  0  0
   -4.9817    5.4565  -14.9328 C   0  0  0  0  0  0  0  0  0  0  0  0
   -4.1764    5.4102  -16.0659 N   0  0  0  0  0  0  0  0  0  0  0  0
   -4.9565    5.1620  -17.1713 C   0  0  0  0  0  0  0  0  0  0  0  0
   -6.2276    5.0159  -16.7152 C   0  0  0  0  0  0  0  0  0  0  0  0
   -7.2660    4.7951  -17.5825 C   0  0  0  0  0  0  0  0  0  0  0  0
   -7.0356    4.7000  -18.9478 N   0  0  0  0  0  0  0  0  0  0  0  0
   -5.7738    4.7784  -19.5000 C   0  0  0  0  0  0  0  0  0  0  0  0
   -5.6141    4.6096  -20.7106 O   0  0  0  0  0  0  0  0  0  0  0  0
   -4.5563    5.0823  -18.5953 C   0  0  0  0  0  0  0  0  0  0  0  0
  1  2  1  0
  2  3  1  0
  3  4  1  0
  4  5  2  0
  5  6  1  0
  6  7  2  0
  6  8  1  0
  8  9  1  0
  9 10  2  0
 10 11  1  0
 11 12  2  0
 12 13  1  0
 13 14  2  0
 13 15  1  0
 15 16  1  0
 16 17  1  0
  5 18  1  0
 18 19  2  0
 19 20  1  0
 20 21  1  0
 21 22  2  0
 22 23  1  0
 23 24  1  0
 24 25  1  0
 25 26  2  0
 25 27  1  0
 23  3  2  0
 14  9  1  0
 22 18  1  0
 17 12  1  0
 27 21  1  0
M  END
>  <smiles>  (593) 
C30691-P129

>  <fragmenstein_outcome>  (593) 
acceptable

>  <inchikey>  (593) 
IWIPQMMZGNVQLV-UHFFFAOYSA-N

>  <fragmenstein_mode>  (593) 
expansion

>  <HIPPO Pose ID>  (593) 
17249

>  <Energy>  (593) 
90.220491

>  <fragmenstein_error>  (593) 


>  <tags>  (593) 
{'openbind_xx01zvns2b_c1_fragmenstein', 'fragmenstein_placed'}

>  <ref_pdb>  (593) 
1

>  <scratch_subdir>  (593) 
/opt/xchem-fragalysis-2/maxwin/BulkDock/SCRATCH/511027/C30691-P129

>  <alias>  (593) 
CCc1cc(C(=O)Nc2ccc3c(c2)CNC3)c2c[nH]c3c2c1NC(=O)C3

>  <HIPPO Compound ID>  (593) 
103221

>  <fragmenstein_runtime>  (593) 
8.279082

$$$$
CC(C)(N1CC(=O)Nc2c(F)cc(C(=O)Nc3ccc4c(c3)CNC4)cc21)S(C)(=O)=O
     RDKit          3D

 31 34  0  0  0  0  0  0  0  0999 V2000
   -4.6085    6.6457  -14.6071 C   0  0  0  0  0  0  0  0  0  0  0  0
   -4.2415    5.4484  -15.5114 C   0  0  0  0  0  0  0  0  0  0  0  0
   -2.7857    5.7250  -15.9872 C   0  0  0  0  0  0  0  0  0  0  0  0
   -5.1813    5.3935  -16.7198 N   0  0  0  0  0  0  0  0  0  0  0  0
   -4.5898    5.0223  -18.0325 C   0  0  0  0  0  0  0  0  0  0  0  0
   -5.5261    5.1091  -19.2307 C   0  0  0  0  0  0  0  0  0  0  0  0
   -5.1077    5.3975  -20.3505 O   0  0  0  0  0  0  0  0  0  0  0  0
   -6.8269    4.7910  -18.9918 N   0  0  0  0  0  0  0  0  0  0  0  0
   -7.3423    4.6786  -17.6954 C   0  0  0  0  0  0  0  0  0  0  0  0
   -8.6986    4.3315  -17.5329 C   0  0  0  0  0  0  0  0  0  0  0  0
   -9.4532    4.0111  -18.5957 F   0  0  0  0  0  0  0  0  0  0  0  0
   -9.3068    4.3676  -16.2870 C   0  0  0  0  0  0  0  0  0  0  0  0
   -8.5428    4.7579  -15.2085 C   0  0  0  0  0  0  0  0  0  0  0  0
   -9.0631    5.0548  -13.8601 C   0  0  0  0  0  0  0  0  0  0  0  0
   -9.7781    5.9664  -13.7167 O   0  0  0  0  0  0  0  0  0  0  0  0
   -8.4433    4.0956  -12.8212 N   0  0  0  0  0  0  0  0  0  0  0  0
   -8.4946    4.1135  -11.4345 C   0  0  0  0  0  0  0  0  0  0  0  0
   -8.4916    5.3281  -10.7289 C   0  0  0  0  0  0  0  0  0  0  0  0
   -8.5337    5.3382   -9.3299 C   0  0  0  0  0  0  0  0  0  0  0  0
   -8.6805    4.1274   -8.6764 C   0  0  0  0  0  0  0  0  0  0  0  0
   -8.7103    2.9295   -9.3837 C   0  0  0  0  0  0  0  0  0  0  0  0
   -8.5428    2.8983  -10.7561 C   0  0  0  0  0  0  0  0  0  0  0  0
   -8.9922    1.8054   -8.4433 C   0  0  0  0  0  0  0  0  0  0  0  0
   -9.4166    2.4580   -7.1739 N   0  0  0  0  0  0  0  0  0  0  0  0
   -8.8734    3.8325   -7.2268 C   0  0  0  0  0  0  0  0  0  0  0  0
   -7.1978    5.0869  -15.3742 C   0  0  0  0  0  0  0  0  0  0  0  0
   -6.5307    5.0193  -16.5907 C   0  0  0  0  0  0  0  0  0  0  0  0
   -4.1345    3.8664  -14.4174 S   0  0  0  0  0  0  0  0  0  0  0  0
   -3.0723    4.2994  -13.0578 C   0  0  0  0  0  0  0  0  0  0  0  0
   -3.4333    2.8392  -15.1624 O   0  0  0  0  0  0  0  0  0  0  0  0
   -5.4170    3.5488  -13.8174 O   0  0  0  0  0  0  0  0  0  0  0  0
  1  2  1  0
  2  3  1  0
  2  4  1  0
  4  5  1  0
  5  6  1  0
  6  7  2  0
  6  8  1  0
  8  9  1  0
  9 10  2  0
 10 11  1  0
 10 12  1  0
 12 13  2  0
 13 14  1  0
 14 15  2  0
 14 16  1  0
 16 17  1  0
 17 18  2  0
 18 19  1  0
 19 20  2  0
 20 21  1  0
 21 22  2  0
 21 23  1  0
 23 24  1  0
 24 25  1  0
 13 26  1  0
 26 27  2  0
  2 28  1  0
 28 29  1  0
 28 30  2  0
 28 31  2  0
 27  4  1  0
 27  9  1  0
 22 17  1  0
 25 20  1  0
M  END
>  <smiles>  (594) 
C100208-P129

>  <fragmenstein_outcome>  (594) 
acceptable

>  <inchikey>  (594) 
NYKGXRUKHLEFCU-UHFFFAOYSA-N

>  <fragmenstein_mode>  (594) 
expansion

>  <HIPPO Pose ID>  (594) 
17252

>  <Energy>  (594) 
193.11884

>  <fragmenstein_error>  (594) 


>  <tags>  (594) 
{'openbind_xx01zvns2b_c1_fragmenstein', 'fragmenstein_placed'}

>  <ref_pdb>  (594) 
1

>  <scratch_subdir>  (594) 
/opt/xchem-fragalysis-2/maxwin/BulkDock/SCRATCH/511027/C100208-P129

>  <alias>  (594) 
CC(C)(N1CC(=O)Nc2c(F)cc(C(=O)Nc3ccc4c(c3)CNC4)cc21)S(C)(=O)=O

>  <HIPPO Compound ID>  (594) 
89195

>  <fragmenstein_runtime>  (594) 
6.588702

$$$$
CCc1c([C@@](O)(Nc2ccc3c(c2)CNC3)C(=O)NCC(F)F)cc(Br)c2c1OCC(=O)N2
     RDKit          3D

 33 36  0  0  0  0  0  0  0  0999 V2000
   -4.1757    4.5191  -14.4722 C   0  0  0  0  0  0  0  0  0  0  0  0
   -5.2398    5.6082  -14.4765 C   0  0  0  0  0  0  0  0  0  0  0  0
   -6.4479    5.2241  -15.3022 C   0  0  0  0  0  0  0  0  0  0  0  0
   -7.7401    4.9521  -14.7826 C   0  0  0  0  0  0  0  0  0  0  0  0
   -8.2114    5.1067  -13.3080 C   0  0  1  0  0  0  0  0  0  0  0  0
   -9.2888    4.2135  -13.1485 O   0  0  0  0  0  0  0  0  0  0  0  0
   -7.1805    4.6929  -12.3385 N   0  0  0  0  0  0  0  0  0  0  0  0
   -7.5887    4.4868  -10.9949 C   0  0  0  0  0  0  0  0  0  0  0  0
   -7.5989    5.5540  -10.0790 C   0  0  0  0  0  0  0  0  0  0  0  0
   -8.0398    5.3881   -8.7614 C   0  0  0  0  0  0  0  0  0  0  0  0
   -8.4850    4.1411   -8.3706 C   0  0  0  0  0  0  0  0  0  0  0  0
   -8.5087    3.0827   -9.2653 C   0  0  0  0  0  0  0  0  0  0  0  0
   -8.0611    3.2313  -10.5709 C   0  0  0  0  0  0  0  0  0  0  0  0
   -9.0405    1.8672   -8.5847 C   0  0  0  0  0  0  0  0  0  0  0  0
   -9.3958    2.2791   -7.1989 N   0  0  0  0  0  0  0  0  0  0  0  0
   -8.9615    3.6827   -7.0356 C   0  0  0  0  0  0  0  0  0  0  0  0
   -8.7784    6.5978  -13.1068 C   0  0  0  0  0  0  0  0  0  0  0  0
   -9.8903    6.8618  -13.3618 O   0  0  0  0  0  0  0  0  0  0  0  0
   -7.6081    7.5092  -12.6490 N   0  0  0  0  0  0  0  0  0  0  0  0
   -7.5880    8.9176  -12.3186 C   0  0  0  0  0  0  0  0  0  0  0  0
   -6.4142    9.6721  -12.9301 C   0  0  0  0  0  0  0  0  0  0  0  0
   -6.4693    9.6264  -14.2850 F   0  0  0  0  0  0  0  0  0  0  0  0
   -5.2461    9.0802  -12.5677 F   0  0  0  0  0  0  0  0  0  0  0  0
   -8.7394    4.5819  -15.7226 C   0  0  0  0  0  0  0  0  0  0  0  0
   -8.4960    4.4835  -17.0917 C   0  0  0  0  0  0  0  0  0  0  0  0
   -9.9485    4.0806  -18.2230 Br  0  0  0  0  0  0  0  0  0  0  0  0
   -7.2352    4.7593  -17.5927 C   0  0  0  0  0  0  0  0  0  0  0  0
   -6.2279    5.1346  -16.7053 C   0  0  0  0  0  0  0  0  0  0  0  0
   -4.9942    5.5504  -17.1536 O   0  0  0  0  0  0  0  0  0  0  0  0
   -4.6269    5.0688  -18.4318 C   0  0  0  0  0  0  0  0  0  0  0  0
   -5.7160    4.8887  -19.4693 C   0  0  0  0  0  0  0  0  0  0  0  0
   -5.4714    4.8415  -20.6709 O   0  0  0  0  0  0  0  0  0  0  0  0
   -6.9714    4.7239  -18.9626 N   0  0  0  0  0  0  0  0  0  0  0  0
  1  2  1  0
  2  3  1  0
  3  4  2  0
  4  5  1  0
  5  6  1  6
  5  7  1  0
  7  8  1  0
  8  9  2  0
  9 10  1  0
 10 11  2  0
 11 12  1  0
 12 13  2  0
 12 14  1  0
 14 15  1  0
 15 16  1  0
  5 17  1  0
 17 18  2  0
 17 19  1  0
 19 20  1  0
 20 21  1  0
 21 22  1  0
 21 23  1  0
  4 24  1  0
 24 25  2  0
 25 26  1  0
 25 27  1  0
 27 28  2  0
 28 29  1  0
 29 30  1  0
 30 31  1  0
 31 32  2  0
 31 33  1  0
 28  3  1  0
 13  8  1  0
 33 27  1  0
 16 11  1  0
M  END
>  <smiles>  (595) 
C100220-P129

>  <fragmenstein_outcome>  (595) 
acceptable

>  <inchikey>  (595) 
LHBDOIYYBRZRON-UHFFFAOYSA-N

>  <fragmenstein_mode>  (595) 
expansion

>  <HIPPO Pose ID>  (595) 
17262

>  <Energy>  (595) 
162.679159

>  <fragmenstein_error>  (595) 


>  <tags>  (595) 
{'openbind_xx01zvns2b_c1_fragmenstein', 'fragmenstein_placed'}

>  <ref_pdb>  (595) 
1

>  <scratch_subdir>  (595) 
/opt/xchem-fragalysis-2/maxwin/BulkDock/SCRATCH/511027/C100220-P129

>  <alias>  (595) 
CCc1c([C@@](O)(Nc2ccc3c(c2)CNC3)C(=O)NCC(F)F)cc(Br)c2c1OCC(=O)N2

>  <HIPPO Compound ID>  (595) 
100220

>  <fragmenstein_runtime>  (595) 
16.982899

$$$$
CCc1c([C@](O)(Nc2ccc3c(c2)CNC3)C(=O)NCC(F)F)cc(Br)c2c1OCC(=O)N2
     RDKit          3D

 33 36  0  0  0  0  0  0  0  0999 V2000
   -3.6175    5.1941  -15.8684 C   0  0  0  0  0  0  0  0  0  0  0  0
   -4.9231    5.4479  -15.1320 C   0  0  0  0  0  0  0  0  0  0  0  0
   -6.2549    5.1408  -15.7912 C   0  0  0  0  0  0  0  0  0  0  0  0
   -7.4367    5.0543  -14.9832 C   0  0  0  0  0  0  0  0  0  0  0  0
   -7.5507    5.4759  -13.4865 C   0  0  2  0  0  0  0  0  0  0  0  0
   -6.3460    6.0292  -12.9872 O   0  0  0  0  0  0  0  0  0  0  0  0
   -7.8100    4.3056  -12.6497 N   0  0  0  0  0  0  0  0  0  0  0  0
   -8.0706    4.3221  -11.2733 C   0  0  0  0  0  0  0  0  0  0  0  0
   -7.8693    5.4342  -10.4293 C   0  0  0  0  0  0  0  0  0  0  0  0
   -8.0544    5.3662   -9.0395 C   0  0  0  0  0  0  0  0  0  0  0  0
   -8.4217    4.1592   -8.4841 C   0  0  0  0  0  0  0  0  0  0  0  0
   -8.5947    3.0428   -9.2841 C   0  0  0  0  0  0  0  0  0  0  0  0
   -8.4112    3.1050  -10.6602 C   0  0  0  0  0  0  0  0  0  0  0  0
   -8.9333    1.8697   -8.4276 C   0  0  0  0  0  0  0  0  0  0  0  0
   -9.1788    2.4125   -7.0660 N   0  0  0  0  0  0  0  0  0  0  0  0
   -8.6530    3.7930   -7.0578 C   0  0  0  0  0  0  0  0  0  0  0  0
   -8.7352    6.5854  -13.3644 C   0  0  0  0  0  0  0  0  0  0  0  0
   -9.8626    6.3617  -13.5884 O   0  0  0  0  0  0  0  0  0  0  0  0
   -8.0350    7.9101  -12.9339 N   0  0  0  0  0  0  0  0  0  0  0  0
   -8.5938    9.2021  -12.6002 C   0  0  0  0  0  0  0  0  0  0  0  0
   -8.9865    9.3397  -11.1333 C   0  0  0  0  0  0  0  0  0  0  0  0
   -9.4006   10.6109  -10.8982 F   0  0  0  0  0  0  0  0  0  0  0  0
   -7.8854    9.1474  -10.3557 F   0  0  0  0  0  0  0  0  0  0  0  0
   -8.6300    4.6057  -15.6022 C   0  0  0  0  0  0  0  0  0  0  0  0
   -8.7092    4.3950  -16.9650 C   0  0  0  0  0  0  0  0  0  0  0  0
  -10.3286    4.0096  -17.8512 Br  0  0  0  0  0  0  0  0  0  0  0  0
   -7.5850    4.5442  -17.7423 C   0  0  0  0  0  0  0  0  0  0  0  0
   -6.3633    4.9206  -17.1888 C   0  0  0  0  0  0  0  0  0  0  0  0
   -5.2517    5.0511  -17.9838 O   0  0  0  0  0  0  0  0  0  0  0  0
   -5.4621    4.9808  -19.3984 C   0  0  0  0  0  0  0  0  0  0  0  0
   -6.6463    4.1724  -19.9008 C   0  0  0  0  0  0  0  0  0  0  0  0
   -6.7381    3.5356  -20.9421 O   0  0  0  0  0  0  0  0  0  0  0  0
   -7.7040    4.2072  -19.0770 N   0  0  0  0  0  0  0  0  0  0  0  0
  1  2  1  0
  2  3  1  0
  3  4  2  0
  4  5  1  0
  5  6  1  1
  5  7  1  0
  7  8  1  0
  8  9  2  0
  9 10  1  0
 10 11  2  0
 11 12  1  0
 12 13  2  0
 12 14  1  0
 14 15  1  0
 15 16  1  0
  5 17  1  0
 17 18  2  0
 17 19  1  0
 19 20  1  0
 20 21  1  0
 21 22  1  0
 21 23  1  0
  4 24  1  0
 24 25  2  0
 25 26  1  0
 25 27  1  0
 27 28  2  0
 28 29  1  0
 29 30  1  0
 30 31  1  0
 31 32  2  0
 31 33  1  0
 28  3  1  0
 13  8  1  0
 33 27  1  0
 16 11  1  0
M  END
>  <smiles>  (596) 
C100220-P58

>  <fragmenstein_outcome>  (596) 
acceptable

>  <inchikey>  (596) 
CWCRQXYSLMHJEE-UHFFFAOYSA-N

>  <fragmenstein_mode>  (596) 
expansion

>  <HIPPO Pose ID>  (596) 
17263

>  <Energy>  (596) 
165.953497

>  <fragmenstein_error>  (596) 


>  <tags>  (596) 
{'openbind_xx01zvns2b_c1_fragmenstein', 'fragmenstein_placed'}

>  <ref_pdb>  (596) 
1

>  <scratch_subdir>  (596) 
/opt/xchem-fragalysis-2/maxwin/BulkDock/SCRATCH/511027/C100220-P58

>  <alias>  (596) 
CCc1c([C@](O)(Nc2ccc3c(c2)CNC3)C(=O)NCC(F)F)cc(Br)c2c1OCC(=O)N2

>  <HIPPO Compound ID>  (596) 
94753

>  <fragmenstein_runtime>  (596) 
9.589483

$$$$
O=C1COc2cc([C@](O)(Nc3ccc4c(c3)CNC4)C(=O)NCC(F)F)cc(Cl)c2N1
     RDKit          3D

 31 34  0  0  0  0  0  0  0  0999 V2000
   -5.2811    5.3354  -20.6480 O   0  0  0  0  0  0  0  0  0  0  0  0
   -5.5029    5.1311  -19.4585 C   0  0  0  0  0  0  0  0  0  0  0  0
   -4.3909    5.1345  -18.4210 C   0  0  0  0  0  0  0  0  0  0  0  0
   -4.7098    5.4028  -17.0709 O   0  0  0  0  0  0  0  0  0  0  0  0
   -5.9873    5.0783  -16.7105 C   0  0  0  0  0  0  0  0  0  0  0  0
   -6.2465    5.1974  -15.3490 C   0  0  0  0  0  0  0  0  0  0  0  0
   -7.5343    5.0129  -14.8224 C   0  0  0  0  0  0  0  0  0  0  0  0
   -7.8095    5.3643  -13.3513 C   0  0  2  0  0  0  0  0  0  0  0  0
   -6.6200    5.9375  -12.8097 O   0  0  0  0  0  0  0  0  0  0  0  0
   -8.0575    4.1636  -12.5683 N   0  0  0  0  0  0  0  0  0  0  0  0
   -8.3179    4.1562  -11.1888 C   0  0  0  0  0  0  0  0  0  0  0  0
   -8.1074    5.2515  -10.3210 C   0  0  0  0  0  0  0  0  0  0  0  0
   -8.3107    5.1678   -8.9358 C   0  0  0  0  0  0  0  0  0  0  0  0
   -8.7156    3.9617   -8.4118 C   0  0  0  0  0  0  0  0  0  0  0  0
   -8.8785    2.8565   -9.2346 C   0  0  0  0  0  0  0  0  0  0  0  0
   -8.6719    2.9321  -10.6040 C   0  0  0  0  0  0  0  0  0  0  0  0
   -9.2389    1.6797   -8.3932 C   0  0  0  0  0  0  0  0  0  0  0  0
   -9.6865    2.2547   -7.0980 N   0  0  0  0  0  0  0  0  0  0  0  0
   -9.0258    3.5751   -7.0044 C   0  0  0  0  0  0  0  0  0  0  0  0
   -9.0323    6.4088  -13.2716 C   0  0  0  0  0  0  0  0  0  0  0  0
  -10.1178    6.1639  -13.6357 O   0  0  0  0  0  0  0  0  0  0  0  0
   -8.4376    7.7242  -12.6836 N   0  0  0  0  0  0  0  0  0  0  0  0
   -9.0816    8.9740  -12.3362 C   0  0  0  0  0  0  0  0  0  0  0  0
   -8.1995   10.2052  -12.4953 C   0  0  0  0  0  0  0  0  0  0  0  0
   -7.8669   10.3763  -13.8013 F   0  0  0  0  0  0  0  0  0  0  0  0
   -8.8854   11.3152  -12.1250 F   0  0  0  0  0  0  0  0  0  0  0  0
   -8.5384    4.5811  -15.7139 C   0  0  0  0  0  0  0  0  0  0  0  0
   -8.2820    4.4657  -17.0924 C   0  0  0  0  0  0  0  0  0  0  0  0
   -9.5878    4.0296  -18.1388 Cl  0  0  0  0  0  0  0  0  0  0  0  0
   -7.0097    4.7587  -17.6005 C   0  0  0  0  0  0  0  0  0  0  0  0
   -6.7477    4.8345  -18.9751 N   0  0  0  0  0  0  0  0  0  0  0  0
  1  2  2  0
  2  3  1  0
  3  4  1  0
  4  5  1  0
  5  6  2  0
  6  7  1  0
  7  8  1  0
  8  9  1  1
  8 10  1  0
 10 11  1  0
 11 12  2  0
 12 13  1  0
 13 14  2  0
 14 15  1  0
 15 16  2  0
 15 17  1  0
 17 18  1  0
 18 19  1  0
  8 20  1  0
 20 21  2  0
 20 22  1  0
 22 23  1  0
 23 24  1  0
 24 25  1  0
 24 26  1  0
  7 27  2  0
 27 28  1  0
 28 29  1  0
 28 30  2  0
 30 31  1  0
 31  2  1  0
 30  5  1  0
 16 11  1  0
 19 14  1  0
M  END
>  <smiles>  (597) 
C100222-P129

>  <fragmenstein_outcome>  (597) 
acceptable

>  <inchikey>  (597) 
YKANRRWBCKGOFQ-UHFFFAOYSA-N

>  <fragmenstein_mode>  (597) 
expansion

>  <HIPPO Pose ID>  (597) 
17264

>  <Energy>  (597) 
150.436174

>  <fragmenstein_error>  (597) 


>  <tags>  (597) 
{'openbind_xx01zvns2b_c1_fragmenstein', 'fragmenstein_placed'}

>  <ref_pdb>  (597) 
1

>  <scratch_subdir>  (597) 
/opt/xchem-fragalysis-2/maxwin/BulkDock/SCRATCH/511027/C100222-P129

>  <alias>  (597) 
O=C1COc2cc([C@](O)(Nc3ccc4c(c3)CNC4)C(=O)NCC(F)F)cc(Cl)c2N1

>  <HIPPO Compound ID>  (597) 
71694

>  <fragmenstein_runtime>  (597) 
3.561989

$$$$
CCN(CCCO)[C@]1(O)CC(=O)Nc2c(F)cc(C(=O)Nc3ccc4c(c3)CNC4)cc21
     RDKit          3D

 32 35  0  0  0  0  0  0  0  0999 V2000
   -2.5916    4.7535  -14.6384 C   0  0  0  0  0  0  0  0  0  0  0  0
   -4.0703    5.1221  -14.5705 C   0  0  0  0  0  0  0  0  0  0  0  0
   -4.5223    6.1684  -15.5037 N   0  0  0  0  0  0  0  0  0  0  0  0
   -3.6446    7.3397  -15.5309 C   0  0  0  0  0  0  0  0  0  0  0  0
   -4.3748    8.6885  -15.5029 C   0  0  0  0  0  0  0  0  0  0  0  0
   -5.3143    8.8348  -14.3126 C   0  0  0  0  0  0  0  0  0  0  0  0
   -5.9414   10.1119  -14.3813 O   0  0  0  0  0  0  0  0  0  0  0  0
   -5.0880    5.6459  -16.7679 C   0  0  2  0  0  0  0  0  0  0  0  0
   -4.2917    4.5523  -17.2159 O   0  0  0  0  0  0  0  0  0  0  0  0
   -5.1333    6.6429  -17.9213 C   0  0  0  0  0  0  0  0  0  0  0  0
   -5.7591    6.0326  -19.1501 C   0  0  0  0  0  0  0  0  0  0  0  0
   -5.3998    6.3887  -20.2707 O   0  0  0  0  0  0  0  0  0  0  0  0
   -6.8123    5.1724  -18.9426 N   0  0  0  0  0  0  0  0  0  0  0  0
   -7.3229    4.8730  -17.6713 C   0  0  0  0  0  0  0  0  0  0  0  0
   -8.6318    4.3933  -17.4959 C   0  0  0  0  0  0  0  0  0  0  0  0
   -9.3872    4.0604  -18.5535 F   0  0  0  0  0  0  0  0  0  0  0  0
   -9.2172    4.3637  -16.2292 C   0  0  0  0  0  0  0  0  0  0  0  0
   -8.4618    4.7634  -15.1388 C   0  0  0  0  0  0  0  0  0  0  0  0
   -8.9851    5.0737  -13.7953 C   0  0  0  0  0  0  0  0  0  0  0  0
   -9.6436    6.0258  -13.6521 O   0  0  0  0  0  0  0  0  0  0  0  0
   -8.4457    4.0670  -12.7605 N   0  0  0  0  0  0  0  0  0  0  0  0
   -8.5200    4.0714  -11.3749 C   0  0  0  0  0  0  0  0  0  0  0  0
   -8.4919    5.2844  -10.6648 C   0  0  0  0  0  0  0  0  0  0  0  0
   -8.5361    5.2928   -9.2667 C   0  0  0  0  0  0  0  0  0  0  0  0
   -8.7042    4.0834   -8.6177 C   0  0  0  0  0  0  0  0  0  0  0  0
   -8.7539    2.8877   -9.3284 C   0  0  0  0  0  0  0  0  0  0  0  0
   -8.5929    2.8563  -10.7014 C   0  0  0  0  0  0  0  0  0  0  0  0
   -9.0372    1.7654   -8.3868 C   0  0  0  0  0  0  0  0  0  0  0  0
   -9.4608    2.4206   -7.1197 N   0  0  0  0  0  0  0  0  0  0  0  0
   -8.9003    3.7887   -7.1684 C   0  0  0  0  0  0  0  0  0  0  0  0
   -7.1307    5.1364  -15.3010 C   0  0  0  0  0  0  0  0  0  0  0  0
   -6.5309    5.1829  -16.5616 C   0  0  0  0  0  0  0  0  0  0  0  0
  1  2  1  0
  2  3  1  0
  3  4  1  0
  4  5  1  0
  5  6  1  0
  6  7  1  0
  3  8  1  0
  8  9  1  6
  8 10  1  0
 10 11  1  0
 11 12  2  0
 11 13  1  0
 13 14  1  0
 14 15  2  0
 15 16  1  0
 15 17  1  0
 17 18  2  0
 18 19  1  0
 19 20  2  0
 19 21  1  0
 21 22  1  0
 22 23  2  0
 23 24  1  0
 24 25  2  0
 25 26  1  0
 26 27  2  0
 26 28  1  0
 28 29  1  0
 29 30  1  0
 18 31  1  0
 31 32  2  0
 32  8  1  0
 32 14  1  0
 27 22  1  0
 30 25  1  0
M  END
>  <smiles>  (598) 
C100225-P129

>  <fragmenstein_outcome>  (598) 
acceptable

>  <inchikey>  (598) 
WMZICKZFYQZLGK-UHFFFAOYSA-N

>  <fragmenstein_mode>  (598) 
expansion

>  <HIPPO Pose ID>  (598) 
17265

>  <Energy>  (598) 
18.113795

>  <fragmenstein_error>  (598) 


>  <tags>  (598) 
{'openbind_xx01zvns2b_c1_fragmenstein', 'fragmenstein_placed'}

>  <ref_pdb>  (598) 
1

>  <scratch_subdir>  (598) 
/opt/xchem-fragalysis-2/maxwin/BulkDock/SCRATCH/511027/C100225-P129

>  <alias>  (598) 
CCN(CCCO)[C@]1(O)CC(=O)Nc2c(F)cc(C(=O)Nc3ccc4c(c3)CNC4)cc21

>  <HIPPO Compound ID>  (598) 
106065

>  <fragmenstein_runtime>  (598) 
6.357383

$$$$
CNCN1CC(=O)Nc2c(F)cc(C(=O)Nc3ccc4c(c3)CNC4)cc21
     RDKit          3D

 27 30  0  0  0  0  0  0  0  0999 V2000
   -3.2109    5.7314  -13.5475 C   0  0  0  0  0  0  0  0  0  0  0  0
   -4.2666    5.9588  -14.5194 N   0  0  0  0  0  0  0  0  0  0  0  0
   -4.1641    5.0537  -15.6534 C   0  0  0  0  0  0  0  0  0  0  0  0
   -5.0947    5.2380  -16.7597 N   0  0  0  0  0  0  0  0  0  0  0  0
   -4.5174    5.0089  -18.0915 C   0  0  0  0  0  0  0  0  0  0  0  0
   -5.4954    5.0612  -19.2474 C   0  0  0  0  0  0  0  0  0  0  0  0
   -5.1018    5.2891  -20.3900 O   0  0  0  0  0  0  0  0  0  0  0  0
   -6.8012    4.7745  -18.9769 N   0  0  0  0  0  0  0  0  0  0  0  0
   -7.2945    4.6394  -17.6748 C   0  0  0  0  0  0  0  0  0  0  0  0
   -8.6535    4.3425  -17.4777 C   0  0  0  0  0  0  0  0  0  0  0  0
   -9.4555    4.0749  -18.5208 F   0  0  0  0  0  0  0  0  0  0  0  0
   -9.2163    4.3778  -16.2096 C   0  0  0  0  0  0  0  0  0  0  0  0
   -8.3994    4.6816  -15.1354 C   0  0  0  0  0  0  0  0  0  0  0  0
   -8.9133    5.0341  -13.7965 C   0  0  0  0  0  0  0  0  0  0  0  0
   -9.5375    6.0115  -13.6698 O   0  0  0  0  0  0  0  0  0  0  0  0
   -8.4111    4.0260  -12.7449 N   0  0  0  0  0  0  0  0  0  0  0  0
   -8.4862    4.0556  -11.3599 C   0  0  0  0  0  0  0  0  0  0  0  0
   -8.4595    5.2749  -10.6626 C   0  0  0  0  0  0  0  0  0  0  0  0
   -8.5187    5.2960   -9.2648 C   0  0  0  0  0  0  0  0  0  0  0  0
   -8.6979    4.0934   -8.6050 C   0  0  0  0  0  0  0  0  0  0  0  0
   -8.7485    2.8917   -9.3046 C   0  0  0  0  0  0  0  0  0  0  0  0
   -8.5756    2.8477  -10.6750 C   0  0  0  0  0  0  0  0  0  0  0  0
   -9.0446    1.7783   -8.3572 C   0  0  0  0  0  0  0  0  0  0  0  0
   -9.4682    2.4451   -7.0962 N   0  0  0  0  0  0  0  0  0  0  0  0
   -8.9022    3.8112   -7.1545 C   0  0  0  0  0  0  0  0  0  0  0  0
   -7.0312    4.8944  -15.3168 C   0  0  0  0  0  0  0  0  0  0  0  0
   -6.4386    4.8857  -16.5833 C   0  0  0  0  0  0  0  0  0  0  0  0
  1  2  1  0
  2  3  1  0
  3  4  1  0
  4  5  1  0
  5  6  1  0
  6  7  2  0
  6  8  1  0
  8  9  1  0
  9 10  2  0
 10 11  1  0
 10 12  1  0
 12 13  2  0
 13 14  1  0
 14 15  2  0
 14 16  1  0
 16 17  1  0
 17 18  2  0
 18 19  1  0
 19 20  2  0
 20 21  1  0
 21 22  2  0
 21 23  1  0
 23 24  1  0
 24 25  1  0
 13 26  1  0
 26 27  2  0
 27  4  1  0
 27  9  1  0
 22 17  1  0
 25 20  1  0
M  END
>  <smiles>  (599) 
C100244-P129

>  <fragmenstein_outcome>  (599) 
acceptable

>  <inchikey>  (599) 
QYWUINLTCGLJQL-UHFFFAOYSA-N

>  <fragmenstein_mode>  (599) 
expansion

>  <HIPPO Pose ID>  (599) 
17276

>  <Energy>  (599) 
59.452234

>  <fragmenstein_error>  (599) 


>  <tags>  (599) 
{'openbind_xx01zvns2b_c1_fragmenstein', 'fragmenstein_placed'}

>  <ref_pdb>  (599) 
1

>  <scratch_subdir>  (599) 
/opt/xchem-fragalysis-2/maxwin/BulkDock/SCRATCH/511027/C100244-P129

>  <alias>  (599) 
CNCN1CC(=O)Nc2c(F)cc(C(=O)Nc3ccc4c(c3)CNC4)cc21

>  <HIPPO Compound ID>  (599) 
75420

>  <fragmenstein_runtime>  (599) 
6.104007

$$$$
O=C1CC2(CCNCC2)c2cc(C(=O)Nc3ccc4c(c3)CNC4)cc(F)c2N1
     RDKit          3D

 29 33  0  0  0  0  0  0  0  0999 V2000
   -5.0587    5.6775  -20.3663 O   0  0  0  0  0  0  0  0  0  0  0  0
   -5.4100    5.2462  -19.2724 C   0  0  0  0  0  0  0  0  0  0  0  0
   -4.4121    4.9810  -18.1827 C   0  0  0  0  0  0  0  0  0  0  0  0
   -4.8826    5.4944  -16.8080 C   0  0  0  0  0  0  0  0  0  0  0  0
   -3.8734    4.9202  -15.7730 C   0  0  0  0  0  0  0  0  0  0  0  0
   -3.7159    5.7038  -14.4705 C   0  0  0  0  0  0  0  0  0  0  0  0
   -3.5851    7.1385  -14.6962 N   0  0  0  0  0  0  0  0  0  0  0  0
   -4.7241    7.6732  -15.4330 C   0  0  0  0  0  0  0  0  0  0  0  0
   -4.8038    7.0454  -16.8215 C   0  0  0  0  0  0  0  0  0  0  0  0
   -6.3278    5.0289  -16.5798 C   0  0  0  0  0  0  0  0  0  0  0  0
   -6.9017    5.0182  -15.3060 C   0  0  0  0  0  0  0  0  0  0  0  0
   -8.2613    4.7485  -15.1123 C   0  0  0  0  0  0  0  0  0  0  0  0
   -8.7712    5.1100  -13.7745 C   0  0  0  0  0  0  0  0  0  0  0  0
   -9.3215    6.1293  -13.6413 O   0  0  0  0  0  0  0  0  0  0  0  0
   -8.3688    4.0500  -12.7342 N   0  0  0  0  0  0  0  0  0  0  0  0
   -8.4692    4.0613  -11.3496 C   0  0  0  0  0  0  0  0  0  0  0  0
   -8.4373    5.2737  -10.6384 C   0  0  0  0  0  0  0  0  0  0  0  0
   -8.5102    5.2832   -9.2415 C   0  0  0  0  0  0  0  0  0  0  0  0
   -8.7026    4.0763   -8.5947 C   0  0  0  0  0  0  0  0  0  0  0  0
   -8.7573    2.8815   -9.3061 C   0  0  0  0  0  0  0  0  0  0  0  0
   -8.5791    2.8484  -10.6768 C   0  0  0  0  0  0  0  0  0  0  0  0
   -9.0566    1.7612   -8.3673 C   0  0  0  0  0  0  0  0  0  0  0  0
   -9.4854    2.4186   -7.1037 N   0  0  0  0  0  0  0  0  0  0  0  0
   -8.9158    3.7833   -7.1474 C   0  0  0  0  0  0  0  0  0  0  0  0
   -9.0778    4.4075  -16.1764 C   0  0  0  0  0  0  0  0  0  0  0  0
   -8.5237    4.3884  -17.4521 C   0  0  0  0  0  0  0  0  0  0  0  0
   -9.3318    4.1031  -18.4861 F   0  0  0  0  0  0  0  0  0  0  0  0
   -7.1756    4.7371  -17.6654 C   0  0  0  0  0  0  0  0  0  0  0  0
   -6.7030    4.9258  -18.9700 N   0  0  0  0  0  0  0  0  0  0  0  0
  1  2  2  0
  2  3  1  0
  3  4  1  0
  4  5  1  0
  5  6  1  0
  6  7  1  0
  7  8  1  0
  8  9  1  0
  4 10  1  0
 10 11  2  0
 11 12  1  0
 12 13  1  0
 13 14  2  0
 13 15  1  0
 15 16  1  0
 16 17  2  0
 17 18  1  0
 18 19  2  0
 19 20  1  0
 20 21  2  0
 20 22  1  0
 22 23  1  0
 23 24  1  0
 12 25  2  0
 25 26  1  0
 26 27  1  0
 26 28  2  0
 28 29  1  0
 29  2  1  0
  9  4  1  0
 28 10  1  0
 21 16  1  0
 24 19  1  0
M  END
>  <smiles>  (600) 
C30747-P129

>  <fragmenstein_outcome>  (600) 
acceptable

>  <inchikey>  (600) 
VIHMKAWJNXGZLT-UHFFFAOYSA-N

>  <fragmenstein_mode>  (600) 
expansion

>  <HIPPO Pose ID>  (600) 
17283

>  <Energy>  (600) 
48.38328

>  <fragmenstein_error>  (600) 


>  <tags>  (600) 
{'openbind_xx01zvns2b_c1_fragmenstein', 'fragmenstein_placed'}

>  <ref_pdb>  (600) 
1

>  <scratch_subdir>  (600) 
/opt/xchem-fragalysis-2/maxwin/BulkDock/SCRATCH/511027/C30747-P129

>  <alias>  (600) 
O=C1CC2(CCNCC2)c2cc(C(=O)Nc3ccc4c(c3)CNC4)cc(F)c2N1

>  <HIPPO Compound ID>  (600) 
90983

>  <fragmenstein_runtime>  (600) 
4.880084

$$$$
O=C(Nc1ccc2c(c1)CNC2)c1cc2scnc2c(F)c1OCF
     RDKit          3D

 25 28  0  0  0  0  0  0  0  0999 V2000
   -7.3320    6.5609  -13.0655 O   0  0  0  0  0  0  0  0  0  0  0  0
   -7.5230    5.4414  -13.3340 C   0  0  0  0  0  0  0  0  0  0  0  0
   -7.8778    4.2419  -12.4296 N   0  0  0  0  0  0  0  0  0  0  0  0
   -8.1550    4.1881  -11.0678 C   0  0  0  0  0  0  0  0  0  0  0  0
   -8.0096    5.3228  -10.2523 C   0  0  0  0  0  0  0  0  0  0  0  0
   -8.2611    5.2543   -8.8787 C   0  0  0  0  0  0  0  0  0  0  0  0
   -8.6699    4.0443   -8.3516 C   0  0  0  0  0  0  0  0  0  0  0  0
   -8.8128    2.9210   -9.1604 C   0  0  0  0  0  0  0  0  0  0  0  0
   -8.5564    2.9703  -10.5188 C   0  0  0  0  0  0  0  0  0  0  0  0
   -9.2248    1.7619   -8.3183 C   0  0  0  0  0  0  0  0  0  0  0  0
   -9.6758    2.3553   -7.0338 N   0  0  0  0  0  0  0  0  0  0  0  0
   -9.0130    3.6755   -6.9469 C   0  0  0  0  0  0  0  0  0  0  0  0
   -7.4131    5.0182  -14.7479 C   0  0  0  0  0  0  0  0  0  0  0  0
   -8.5921    4.6376  -15.4011 C   0  0  0  0  0  0  0  0  0  0  0  0
   -8.5124    4.4162  -16.7784 C   0  0  0  0  0  0  0  0  0  0  0  0
   -9.7699    4.0393  -17.8859 S   0  0  0  0  0  0  0  0  0  0  0  0
   -8.6302    4.0601  -19.1539 C   0  0  0  0  0  0  0  0  0  0  0  0
   -7.3859    4.2887  -18.8275 N   0  0  0  0  0  0  0  0  0  0  0  0
   -7.3109    4.5327  -17.4789 C   0  0  0  0  0  0  0  0  0  0  0  0
   -6.1439    4.8796  -16.7837 C   0  0  0  0  0  0  0  0  0  0  0  0
   -5.0024    4.9740  -17.4830 F   0  0  0  0  0  0  0  0  0  0  0  0
   -6.1840    5.1256  -15.4109 C   0  0  0  0  0  0  0  0  0  0  0  0
   -5.1019    5.4332  -14.6356 O   0  0  0  0  0  0  0  0  0  0  0  0
   -3.9200    5.8504  -15.2998 C   0  0  0  0  0  0  0  0  0  0  0  0
   -4.1925    6.9653  -16.0253 F   0  0  0  0  0  0  0  0  0  0  0  0
  1  2  2  0
  2  3  1  0
  3  4  1  0
  4  5  2  0
  5  6  1  0
  6  7  2  0
  7  8  1  0
  8  9  2  0
  8 10  1  0
 10 11  1  0
 11 12  1  0
  2 13  1  0
 13 14  2  0
 14 15  1  0
 15 16  1  0
 16 17  1  0
 17 18  2  0
 18 19  1  0
 19 20  1  0
 20 21  1  0
 20 22  2  0
 22 23  1  0
 23 24  1  0
 24 25  1  0
  9  4  1  0
 22 13  1  0
 12  7  1  0
 19 15  2  0
M  END
>  <smiles>  (601) 
C100335-P129

>  <fragmenstein_outcome>  (601) 
acceptable

>  <inchikey>  (601) 
XGLPSFPCSWDNPJ-UHFFFAOYSA-N

>  <fragmenstein_mode>  (601) 
expansion

>  <HIPPO Pose ID>  (601) 
17312

>  <Energy>  (601) 
75.671493

>  <fragmenstein_error>  (601) 


>  <tags>  (601) 
{'openbind_xx01zvns2b_c1_fragmenstein', 'fragmenstein_placed'}

>  <ref_pdb>  (601) 
1

>  <scratch_subdir>  (601) 
/opt/xchem-fragalysis-2/maxwin/BulkDock/SCRATCH/511027/C100335-P129

>  <alias>  (601) 
O=C(Nc1ccc2c(c1)CNC2)c1cc2scnc2c(F)c1OCF

>  <HIPPO Compound ID>  (601) 
104469

>  <fragmenstein_runtime>  (601) 
2.596455

$$$$
Cc1cc(CO)c2c(n1)c(C(=O)C(=O)c1ccc3c(c1)CNC3)cc1scnc12
     RDKit          3D

 29 33  0  0  0  0  0  0  0  0999 V2000
   -3.3756    6.1871  -13.8835 C   0  0  0  0  0  0  0  0  0  0  0  0
   -4.4453    5.8510  -14.8788 C   0  0  0  0  0  0  0  0  0  0  0  0
   -4.1630    5.8524  -16.2325 C   0  0  0  0  0  0  0  0  0  0  0  0
   -5.1796    5.5426  -17.1365 C   0  0  0  0  0  0  0  0  0  0  0  0
   -4.9070    5.7435  -18.6037 C   0  0  0  0  0  0  0  0  0  0  0  0
   -4.7390    4.5035  -19.2484 O   0  0  0  0  0  0  0  0  0  0  0  0
   -6.4386    5.1223  -16.6267 C   0  0  0  0  0  0  0  0  0  0  0  0
   -6.6563    5.2044  -15.2354 C   0  0  0  0  0  0  0  0  0  0  0  0
   -5.6793    5.5960  -14.3932 N   0  0  0  0  0  0  0  0  0  0  0  0
   -7.9270    4.9110  -14.7573 C   0  0  0  0  0  0  0  0  0  0  0  0
   -8.2443    5.0834  -13.3440 C   0  0  0  0  0  0  0  0  0  0  0  0
   -9.0617    5.9336  -13.0136 O   0  0  0  0  0  0  0  0  0  0  0  0
   -7.6329    4.0923  -12.3740 C   0  0  0  0  0  0  0  0  0  0  0  0
   -6.8871    3.2162  -12.7954 O   0  0  0  0  0  0  0  0  0  0  0  0
   -8.0157    4.1306  -10.9567 C   0  0  0  0  0  0  0  0  0  0  0  0
   -7.9439    5.3190  -10.2086 C   0  0  0  0  0  0  0  0  0  0  0  0
   -8.2464    5.3036   -8.8433 C   0  0  0  0  0  0  0  0  0  0  0  0
   -8.6375    4.1030   -8.2702 C   0  0  0  0  0  0  0  0  0  0  0  0
   -8.7358    2.9412   -9.0265 C   0  0  0  0  0  0  0  0  0  0  0  0
   -8.4086    2.9274  -10.3671 C   0  0  0  0  0  0  0  0  0  0  0  0
   -9.1759    1.8096   -8.1656 C   0  0  0  0  0  0  0  0  0  0  0  0
   -9.5083    2.4067   -6.8459 N   0  0  0  0  0  0  0  0  0  0  0  0
   -8.9809    3.7889   -6.8528 C   0  0  0  0  0  0  0  0  0  0  0  0
   -8.9902    4.4934  -15.5502 C   0  0  0  0  0  0  0  0  0  0  0  0
   -8.7467    4.3714  -16.9038 C   0  0  0  0  0  0  0  0  0  0  0  0
   -9.8669    3.9511  -18.1206 S   0  0  0  0  0  0  0  0  0  0  0  0
   -8.6105    4.0234  -19.2544 C   0  0  0  0  0  0  0  0  0  0  0  0
   -7.4294    4.3944  -18.8190 N   0  0  0  0  0  0  0  0  0  0  0  0
   -7.4990    4.6447  -17.4616 C   0  0  0  0  0  0  0  0  0  0  0  0
  1  2  1  0
  2  3  2  0
  3  4  1  0
  4  5  1  0
  5  6  1  0
  4  7  2  0
  7  8  1  0
  8  9  2  0
  8 10  1  0
 10 11  1  0
 11 12  2  0
 11 13  1  0
 13 14  2  0
 13 15  1  0
 15 16  2  0
 16 17  1  0
 17 18  2  0
 18 19  1  0
 19 20  2  0
 19 21  1  0
 21 22  1  0
 22 23  1  0
 10 24  2  0
 24 25  1  0
 25 26  1  0
 26 27  1  0
 27 28  2  0
 28 29  1  0
  9  2  1  0
 20 15  1  0
 29 25  2  0
 29  7  1  0
 23 18  1  0
M  END
>  <smiles>  (602) 
C100371-P129

>  <fragmenstein_outcome>  (602) 
acceptable

>  <inchikey>  (602) 
PNEYTBAAWKFEIU-UHFFFAOYSA-N

>  <fragmenstein_mode>  (602) 
expansion

>  <HIPPO Pose ID>  (602) 
17325

>  <Energy>  (602) 
116.386407

>  <fragmenstein_error>  (602) 


>  <tags>  (602) 
{'openbind_xx01zvns2b_c1_fragmenstein', 'fragmenstein_placed'}

>  <ref_pdb>  (602) 
1

>  <scratch_subdir>  (602) 
/opt/xchem-fragalysis-2/maxwin/BulkDock/SCRATCH/511027/C100371-P129

>  <alias>  (602) 
Cc1cc(CO)c2c(n1)c(C(=O)C(=O)c1ccc3c(c1)CNC3)cc1scnc12

>  <HIPPO Compound ID>  (602) 
71098

>  <fragmenstein_runtime>  (602) 
2.60833

$$$$
O=C(Nc1ccc2c(c1)CNC2)[C@@H]1C[C@@H]2SCN[C@H]2[C@@H]2NCC[C@H]21
     RDKit          3D

 24 28  0  0  0  0  0  0  0  0999 V2000
   -6.1188    2.7625  -13.2234 O   0  0  0  0  0  0  0  0  0  0  0  0
   -6.7058    3.7736  -13.1860 C   0  0  0  0  0  0  0  0  0  0  0  0
   -7.4983    4.4394  -12.0190 N   0  0  0  0  0  0  0  0  0  0  0  0
   -7.7928    3.9709  -10.7536 C   0  0  0  0  0  0  0  0  0  0  0  0
   -7.9095    2.5937  -10.5273 C   0  0  0  0  0  0  0  0  0  0  0  0
   -8.3172    2.1226   -9.2817 C   0  0  0  0  0  0  0  0  0  0  0  0
   -8.5244    3.0410   -8.2750 C   0  0  0  0  0  0  0  0  0  0  0  0
   -8.3431    4.4036   -8.4864 C   0  0  0  0  0  0  0  0  0  0  0  0
   -8.0421    4.8972   -9.7402 C   0  0  0  0  0  0  0  0  0  0  0  0
   -8.4871    5.1166   -7.1873 C   0  0  0  0  0  0  0  0  0  0  0  0
   -8.5007    4.0530   -6.1475 N   0  0  0  0  0  0  0  0  0  0  0  0
   -8.9071    2.8058   -6.8567 C   0  0  0  0  0  0  0  0  0  0  0  0
   -6.9229    4.6769  -14.3915 C   0  0  2  0  0  0  0  0  0  0  0  0
   -8.2135    4.0922  -15.0220 C   0  0  0  0  0  0  0  0  0  0  0  0
   -8.5059    4.7299  -16.3517 C   0  0  2  0  0  0  0  0  0  0  0  0
   -9.8178    4.0032  -17.3419 S   0  0  0  0  0  0  0  0  0  0  0  0
   -9.0534    4.5331  -18.8821 C   0  0  0  0  0  0  0  0  0  0  0  0
   -7.8670    5.3204  -18.5328 N   0  0  0  0  0  0  0  0  0  0  0  0
   -7.3283    4.7200  -17.3260 C   0  0  1  0  0  0  0  0  0  0  0  0
   -6.1566    5.4391  -16.6664 C   0  0  2  0  0  0  0  0  0  0  0  0
   -4.8931    5.5191  -17.4142 N   0  0  0  0  0  0  0  0  0  0  0  0
   -3.8332    5.5994  -16.3903 C   0  0  0  0  0  0  0  0  0  0  0  0
   -4.4865    5.3514  -15.0275 C   0  0  0  0  0  0  0  0  0  0  0  0
   -5.7792    4.6621  -15.4047 C   0  0  1  0  0  0  0  0  0  0  0  0
  1  2  2  0
  2  3  1  0
  3  4  1  0
  4  5  2  0
  5  6  1  0
  6  7  2  0
  7  8  1  0
  8  9  2  0
  8 10  1  0
 10 11  1  0
 11 12  1  0
 13  2  1  1
 13 14  1  0
 15 14  1  1
 15 16  1  0
 16 17  1  0
 17 18  1  0
 19 18  1  6
 19 20  1  0
 20 21  1  6
 21 22  1  0
 22 23  1  0
 24 23  1  1
  9  4  1  0
 24 13  1  0
 12  7  1  0
 19 15  1  0
 24 20  1  0
M  END
>  <smiles>  (603) 
C100419-P130

>  <fragmenstein_outcome>  (603) 
acceptable

>  <inchikey>  (603) 
RUSHROKAUMPIKY-UHFFFAOYSA-N

>  <fragmenstein_mode>  (603) 
expansion

>  <HIPPO Pose ID>  (603) 
17336

>  <Energy>  (603) 
62.384565

>  <fragmenstein_error>  (603) 


>  <tags>  (603) 
{'openbind_xx01zvns2b_c1_fragmenstein', 'fragmenstein_placed'}

>  <ref_pdb>  (603) 
1

>  <scratch_subdir>  (603) 
/opt/xchem-fragalysis-2/maxwin/BulkDock/SCRATCH/511027/C100419-P130

>  <alias>  (603) 
O=C(Nc1ccc2c(c1)CNC2)[C@@H]1C[C@@H]2SCN[C@H]2[C@@H]2NCC[C@H]21

>  <HIPPO Compound ID>  (603) 
79426

>  <fragmenstein_runtime>  (603) 
3.970294

$$$$
Cn1ncc2c(C(=O)Nc3ccc4c(c3)CNC4)cc3scnc3c21
     RDKit          3D

 25 29  0  0  0  0  0  0  0  0999 V2000
   -5.0239    5.3483  -18.9094 C   0  0  0  0  0  0  0  0  0  0  0  0
   -5.2498    5.0657  -17.5110 N   0  0  0  0  0  0  0  0  0  0  0  0
   -4.1954    5.0661  -16.6450 N   0  0  0  0  0  0  0  0  0  0  0  0
   -4.7452    4.6934  -15.4753 C   0  0  0  0  0  0  0  0  0  0  0  0
   -6.1451    4.5600  -15.5454 C   0  0  0  0  0  0  0  0  0  0  0  0
   -7.2481    4.2033  -14.7487 C   0  0  0  0  0  0  0  0  0  0  0  0
   -7.1015    3.5037  -13.4651 C   0  0  0  0  0  0  0  0  0  0  0  0
   -6.6396    2.4327  -13.4689 O   0  0  0  0  0  0  0  0  0  0  0  0
   -7.7077    4.3268  -12.3108 N   0  0  0  0  0  0  0  0  0  0  0  0
   -7.9505    3.9824  -10.9895 C   0  0  0  0  0  0  0  0  0  0  0  0
   -8.1217    2.6264  -10.6651 C   0  0  0  0  0  0  0  0  0  0  0  0
   -8.4514    2.2374   -9.3697 C   0  0  0  0  0  0  0  0  0  0  0  0
   -8.5302    3.2166   -8.4063 C   0  0  0  0  0  0  0  0  0  0  0  0
   -8.3022    4.5572   -8.7120 C   0  0  0  0  0  0  0  0  0  0  0  0
   -8.0717    4.9715  -10.0140 C   0  0  0  0  0  0  0  0  0  0  0  0
   -8.3172    5.3408   -7.4432 C   0  0  0  0  0  0  0  0  0  0  0  0
   -8.2685    4.3285   -6.3510 N   0  0  0  0  0  0  0  0  0  0  0  0
   -8.8081    3.0758   -6.9512 C   0  0  0  0  0  0  0  0  0  0  0  0
   -8.5755    4.2180  -15.2602 C   0  0  0  0  0  0  0  0  0  0  0  0
   -8.7489    4.3786  -16.6324 C   0  0  0  0  0  0  0  0  0  0  0  0
  -10.1150    4.2240  -17.6514 S   0  0  0  0  0  0  0  0  0  0  0  0
   -9.0959    4.4463  -19.0024 C   0  0  0  0  0  0  0  0  0  0  0  0
   -7.8264    4.7069  -18.7634 N   0  0  0  0  0  0  0  0  0  0  0  0
   -7.6489    4.6616  -17.4214 C   0  0  0  0  0  0  0  0  0  0  0  0
   -6.4029    4.7989  -16.8764 C   0  0  0  0  0  0  0  0  0  0  0  0
  1  2  1  0
  2  3  1  0
  3  4  2  0
  4  5  1  0
  5  6  2  0
  6  7  1  0
  7  8  2  0
  7  9  1  0
  9 10  1  0
 10 11  2  0
 11 12  1  0
 12 13  2  0
 13 14  1  0
 14 15  2  0
 14 16  1  0
 16 17  1  0
 17 18  1  0
  6 19  1  0
 19 20  2  0
 20 21  1  0
 21 22  1  0
 22 23  2  0
 23 24  1  0
 24 25  2  0
 25  2  1  0
 25  5  1  0
 15 10  1  0
 24 20  1  0
 18 13  1  0
M  END
>  <smiles>  (604) 
C100424-P130

>  <fragmenstein_outcome>  (604) 
acceptable

>  <inchikey>  (604) 
DWTADJMEXOSRNW-UHFFFAOYSA-N

>  <fragmenstein_mode>  (604) 
expansion

>  <HIPPO Pose ID>  (604) 
17339

>  <Energy>  (604) 
71.18387

>  <fragmenstein_error>  (604) 


>  <tags>  (604) 
{'openbind_xx01zvns2b_c1_fragmenstein', 'fragmenstein_placed'}

>  <ref_pdb>  (604) 
1

>  <scratch_subdir>  (604) 
/opt/xchem-fragalysis-2/maxwin/BulkDock/SCRATCH/511027/C100424-P130

>  <alias>  (604) 
Cn1ncc2c(C(=O)Nc3ccc4c(c3)CNC4)cc3scnc3c21

>  <HIPPO Compound ID>  (604) 
100424

>  <fragmenstein_runtime>  (604) 
2.432107

$$$$
CC1=Cc2csc3cc(C(=O)Nc4ccc5c(c4)CNC5)cc1c23
     RDKit          3D

 24 28  0  0  0  0  0  0  0  0999 V2000
   -3.8096    5.2346  -17.5637 C   0  0  0  0  0  0  0  0  0  0  0  0
   -5.2714    5.0498  -17.6889 C   0  0  0  0  0  0  0  0  0  0  0  0
   -6.0301    4.9464  -18.8253 C   0  0  0  0  0  0  0  0  0  0  0  0
   -7.3994    4.6924  -18.4967 C   0  0  0  0  0  0  0  0  0  0  0  0
   -8.6011    4.2910  -18.9997 C   0  0  0  0  0  0  0  0  0  0  0  0
   -9.7809    4.1714  -17.7266 S   0  0  0  0  0  0  0  0  0  0  0  0
   -8.5792    4.3867  -16.5103 C   0  0  0  0  0  0  0  0  0  0  0  0
   -8.5591    4.2336  -15.1353 C   0  0  0  0  0  0  0  0  0  0  0  0
   -7.2715    4.1970  -14.5331 C   0  0  0  0  0  0  0  0  0  0  0  0
   -7.2381    3.4225  -13.2831 C   0  0  0  0  0  0  0  0  0  0  0  0
   -6.9472    2.2944  -13.3294 O   0  0  0  0  0  0  0  0  0  0  0  0
   -7.7149    4.2821  -12.0997 N   0  0  0  0  0  0  0  0  0  0  0  0
   -8.0143    3.9292  -10.7951 C   0  0  0  0  0  0  0  0  0  0  0  0
   -8.2337    2.5775  -10.4857 C   0  0  0  0  0  0  0  0  0  0  0  0
   -8.5739    2.1869   -9.1954 C   0  0  0  0  0  0  0  0  0  0  0  0
   -8.6184    3.1615   -8.2255 C   0  0  0  0  0  0  0  0  0  0  0  0
   -8.3595    4.4990   -8.5223 C   0  0  0  0  0  0  0  0  0  0  0  0
   -8.1117    4.9162   -9.8173 C   0  0  0  0  0  0  0  0  0  0  0  0
   -8.3662    5.2775   -7.2524 C   0  0  0  0  0  0  0  0  0  0  0  0
   -8.3185    4.2596   -6.1665 N   0  0  0  0  0  0  0  0  0  0  0  0
   -8.8799    3.0161   -6.7684 C   0  0  0  0  0  0  0  0  0  0  0  0
   -6.0710    4.5407  -15.1843 C   0  0  0  0  0  0  0  0  0  0  0  0
   -6.1600    4.8416  -16.5237 C   0  0  0  0  0  0  0  0  0  0  0  0
   -7.4029    4.7093  -17.1215 C   0  0  0  0  0  0  0  0  0  0  0  0
  1  2  1  0
  2  3  2  0
  3  4  1  0
  4  5  2  0
  5  6  1  0
  6  7  1  0
  7  8  2  0
  8  9  1  0
  9 10  1  0
 10 11  2  0
 10 12  1  0
 12 13  1  0
 13 14  2  0
 14 15  1  0
 15 16  2  0
 16 17  1  0
 17 18  2  0
 17 19  1  0
 19 20  1  0
 20 21  1  0
  9 22  2  0
 22 23  1  0
 23 24  2  0
 23  2  1  0
 24  4  1  0
 24  7  1  0
 18 13  1  0
 21 16  1  0
M  END
>  <smiles>  (605) 
C39932-P130

>  <fragmenstein_outcome>  (605) 
acceptable

>  <inchikey>  (605) 
UIPAQRHULPKADV-UHFFFAOYSA-N

>  <fragmenstein_mode>  (605) 
expansion

>  <HIPPO Pose ID>  (605) 
17402

>  <Energy>  (605) 
106.791178

>  <fragmenstein_error>  (605) 


>  <tags>  (605) 
{'openbind_xx01zvns2b_c1_fragmenstein', 'fragmenstein_placed'}

>  <ref_pdb>  (605) 
1

>  <scratch_subdir>  (605) 
/opt/xchem-fragalysis-2/maxwin/BulkDock/SCRATCH/511027/C39932-P130

>  <alias>  (605) 
CC1=Cc2csc3cc(C(=O)Nc4ccc5c(c4)CNC5)cc1c23

>  <HIPPO Compound ID>  (605) 
91855

>  <fragmenstein_runtime>  (605) 
3.722946

$$$$
COn1cc2c(C(=O)Nc3ccc4c(c3)CNC4)cc(N)cc2n1
     RDKit          3D

 24 27  0  0  0  0  0  0  0  0999 V2000
   -2.8794    6.8719  -16.3413 C   0  0  0  0  0  0  0  0  0  0  0  0
   -3.0605    5.4813  -16.5695 O   0  0  0  0  0  0  0  0  0  0  0  0
   -4.4163    5.1949  -16.4724 N   0  0  0  0  0  0  0  0  0  0  0  0
   -5.0341    4.6652  -15.3836 C   0  0  0  0  0  0  0  0  0  0  0  0
   -6.3440    4.5536  -15.7645 C   0  0  0  0  0  0  0  0  0  0  0  0
   -7.4180    4.0538  -15.0321 C   0  0  0  0  0  0  0  0  0  0  0  0
   -7.3590    3.3484  -13.7435 C   0  0  0  0  0  0  0  0  0  0  0  0
   -7.1283    2.2046  -13.7475 O   0  0  0  0  0  0  0  0  0  0  0  0
   -7.7289    4.2909  -12.5772 N   0  0  0  0  0  0  0  0  0  0  0  0
   -7.9768    4.0145  -11.2336 C   0  0  0  0  0  0  0  0  0  0  0  0
   -8.1734    2.6876  -10.8186 C   0  0  0  0  0  0  0  0  0  0  0  0
   -8.4685    2.3832   -9.4886 C   0  0  0  0  0  0  0  0  0  0  0  0
   -8.5121    3.4183   -8.5787 C   0  0  0  0  0  0  0  0  0  0  0  0
   -8.2701    4.7288   -8.9737 C   0  0  0  0  0  0  0  0  0  0  0  0
   -8.0417    5.0554  -10.3051 C   0  0  0  0  0  0  0  0  0  0  0  0
   -8.2289    5.5975   -7.7646 C   0  0  0  0  0  0  0  0  0  0  0  0
   -8.6806    4.7629   -6.6241 N   0  0  0  0  0  0  0  0  0  0  0  0
   -8.7548    3.3592   -7.1117 C   0  0  0  0  0  0  0  0  0  0  0  0
   -8.6291    4.1031  -15.7581 C   0  0  0  0  0  0  0  0  0  0  0  0
   -8.7457    4.5527  -17.1062 C   0  0  0  0  0  0  0  0  0  0  0  0
   -9.9995    4.4222  -17.7482 N   0  0  0  0  0  0  0  0  0  0  0  0
   -7.6210    4.9639  -17.8551 C   0  0  0  0  0  0  0  0  0  0  0  0
   -6.4119    5.0102  -17.1381 C   0  0  0  0  0  0  0  0  0  0  0  0
   -5.1994    5.4418  -17.5271 N   0  0  0  0  0  0  0  0  0  0  0  0
  1  2  1  0
  2  3  1  0
  3  4  1  0
  4  5  2  0
  5  6  1  0
  6  7  1  0
  7  8  2  0
  7  9  1  0
  9 10  1  0
 10 11  2  0
 11 12  1  0
 12 13  2  0
 13 14  1  0
 14 15  2  0
 14 16  1  0
 16 17  1  0
 17 18  1  0
  6 19  2  0
 19 20  1  0
 20 21  1  0
 20 22  2  0
 22 23  1  0
 23 24  2  0
 24  3  1  0
 23  5  1  0
 15 10  1  0
 18 13  1  0
M  END
>  <smiles>  (606) 
C100538-P130

>  <fragmenstein_outcome>  (606) 
acceptable

>  <inchikey>  (606) 
QWGDAQPYNRGDSU-UHFFFAOYSA-N

>  <fragmenstein_mode>  (606) 
expansion

>  <HIPPO Pose ID>  (606) 
17416

>  <Energy>  (606) 
21.316152

>  <fragmenstein_error>  (606) 


>  <tags>  (606) 
{'openbind_xx01zvns2b_c1_fragmenstein', 'fragmenstein_placed'}

>  <ref_pdb>  (606) 
1

>  <scratch_subdir>  (606) 
/opt/xchem-fragalysis-2/maxwin/BulkDock/SCRATCH/511027/C100538-P130

>  <alias>  (606) 
COn1cc2c(C(=O)Nc3ccc4c(c3)CNC4)cc(N)cc2n1

>  <HIPPO Compound ID>  (606) 
100538

>  <fragmenstein_runtime>  (606) 
3.598153

$$$$
O=C(Nc1ccc2c(c1)CNC2)c1cncc2c1CC(=O)[C@@]21CCCN1
     RDKit          3D

 26 30  0  0  0  0  0  0  0  0999 V2000
   -7.1085    2.2457  -13.8282 O   0  0  0  0  0  0  0  0  0  0  0  0
   -7.3434    3.3886  -13.8046 C   0  0  0  0  0  0  0  0  0  0  0  0
   -7.7252    4.3086  -12.6228 N   0  0  0  0  0  0  0  0  0  0  0  0
   -7.9814    4.0061  -11.2856 C   0  0  0  0  0  0  0  0  0  0  0  0
   -8.2061    2.6699  -10.9139 C   0  0  0  0  0  0  0  0  0  0  0  0
   -8.5086    2.3248   -9.5976 C   0  0  0  0  0  0  0  0  0  0  0  0
   -8.5106    3.3248   -8.6544 C   0  0  0  0  0  0  0  0  0  0  0  0
   -8.2362    4.6460   -9.0018 C   0  0  0  0  0  0  0  0  0  0  0  0
   -8.0243    5.0185  -10.3236 C   0  0  0  0  0  0  0  0  0  0  0  0
   -8.1835    5.4569   -7.7492 C   0  0  0  0  0  0  0  0  0  0  0  0
   -8.1338    4.4665   -6.6356 N   0  0  0  0  0  0  0  0  0  0  0  0
   -8.7448    3.2257   -7.1879 C   0  0  0  0  0  0  0  0  0  0  0  0
   -7.3937    4.1099  -15.0915 C   0  0  0  0  0  0  0  0  0  0  0  0
   -8.6011    4.1340  -15.7739 C   0  0  0  0  0  0  0  0  0  0  0  0
   -8.7562    4.5882  -17.0447 N   0  0  0  0  0  0  0  0  0  0  0  0
   -7.6583    5.0569  -17.6751 C   0  0  0  0  0  0  0  0  0  0  0  0
   -6.4249    5.1115  -17.0638 C   0  0  0  0  0  0  0  0  0  0  0  0
   -6.2860    4.6075  -15.7572 C   0  0  0  0  0  0  0  0  0  0  0  0
   -4.8603    4.6361  -15.3045 C   0  0  0  0  0  0  0  0  0  0  0  0
   -4.1349    5.2140  -16.5169 C   0  0  0  0  0  0  0  0  0  0  0  0
   -2.9197    5.3729  -16.5871 O   0  0  0  0  0  0  0  0  0  0  0  0
   -5.1324    5.6193  -17.6301 C   0  0  1  0  0  0  0  0  0  0  0  0
   -4.7264    5.0501  -18.9889 C   0  0  0  0  0  0  0  0  0  0  0  0
   -4.4339    6.2678  -19.8492 C   0  0  0  0  0  0  0  0  0  0  0  0
   -5.2561    7.3573  -19.2021 C   0  0  0  0  0  0  0  0  0  0  0  0
   -5.1176    7.1052  -17.7620 N   0  0  0  0  0  0  0  0  0  0  0  0
  1  2  2  0
  2  3  1  0
  3  4  1  0
  4  5  2  0
  5  6  1  0
  6  7  2  0
  7  8  1  0
  8  9  2  0
  8 10  1  0
 10 11  1  0
 11 12  1  0
  2 13  1  0
 13 14  2  0
 14 15  1  0
 15 16  2  0
 16 17  1  0
 17 18  2  0
 18 19  1  0
 19 20  1  0
 20 21  2  0
 20 22  1  0
 22 23  1  6
 23 24  1  0
 24 25  1  0
 25 26  1  0
  9  4  1  0
 18 13  1  0
 26 22  1  0
 12  7  1  0
 22 17  1  0
M  END
>  <smiles>  (607) 
C100543-P130

>  <fragmenstein_outcome>  (607) 
acceptable

>  <inchikey>  (607) 
WOPANSNNRKQCLD-UHFFFAOYSA-N

>  <fragmenstein_mode>  (607) 
expansion

>  <HIPPO Pose ID>  (607) 
17417

>  <Energy>  (607) 
103.314876

>  <fragmenstein_error>  (607) 


>  <tags>  (607) 
{'openbind_xx01zvns2b_c1_fragmenstein', 'fragmenstein_placed'}

>  <ref_pdb>  (607) 
1

>  <scratch_subdir>  (607) 
/opt/xchem-fragalysis-2/maxwin/BulkDock/SCRATCH/511027/C100543-P130

>  <alias>  (607) 
O=C(Nc1ccc2c(c1)CNC2)c1cncc2c1CC(=O)[C@@]21CCCN1

>  <HIPPO Compound ID>  (607) 
85579

>  <fragmenstein_runtime>  (607) 
3.542778

$$$$
O=C(Nc1ccc2c(c1)CNC2)c1cncc2c1cnn2CNO
     RDKit          3D

 24 27  0  0  0  0  0  0  0  0999 V2000
   -7.1332    2.3012  -13.8317 O   0  0  0  0  0  0  0  0  0  0  0  0
   -7.3780    3.4421  -13.8033 C   0  0  0  0  0  0  0  0  0  0  0  0
   -7.7624    4.3546  -12.6171 N   0  0  0  0  0  0  0  0  0  0  0  0
   -8.0101    4.0456  -11.2798 C   0  0  0  0  0  0  0  0  0  0  0  0
   -8.2307    2.7052  -10.9175 C   0  0  0  0  0  0  0  0  0  0  0  0
   -8.5237    2.3478   -9.6026 C   0  0  0  0  0  0  0  0  0  0  0  0
   -8.5203    3.3402   -8.6515 C   0  0  0  0  0  0  0  0  0  0  0  0
   -8.2497    4.6648   -8.9898 C   0  0  0  0  0  0  0  0  0  0  0  0
   -8.0474    5.0497  -10.3099 C   0  0  0  0  0  0  0  0  0  0  0  0
   -8.1892    5.4651   -7.7307 C   0  0  0  0  0  0  0  0  0  0  0  0
   -8.1314    4.4656   -6.6258 N   0  0  0  0  0  0  0  0  0  0  0  0
   -8.7449    3.2288   -7.1842 C   0  0  0  0  0  0  0  0  0  0  0  0
   -7.4362    4.1484  -15.0905 C   0  0  0  0  0  0  0  0  0  0  0  0
   -8.6459    4.1902  -15.7673 C   0  0  0  0  0  0  0  0  0  0  0  0
   -8.7907    4.5590  -17.0612 N   0  0  0  0  0  0  0  0  0  0  0  0
   -7.6940    4.8813  -17.7823 C   0  0  0  0  0  0  0  0  0  0  0  0
   -6.4563    4.8911  -17.1541 C   0  0  0  0  0  0  0  0  0  0  0  0
   -6.3030    4.5479  -15.8084 C   0  0  0  0  0  0  0  0  0  0  0  0
   -4.9164    4.6572  -15.5766 C   0  0  0  0  0  0  0  0  0  0  0  0
   -4.2347    5.0375  -16.6620 N   0  0  0  0  0  0  0  0  0  0  0  0
   -5.1848    5.1047  -17.6313 N   0  0  0  0  0  0  0  0  0  0  0  0
   -4.7778    5.1517  -19.0374 C   0  0  0  0  0  0  0  0  0  0  0  0
   -5.0143    6.5026  -19.5670 N   0  0  0  0  0  0  0  0  0  0  0  0
   -4.1010    6.6081  -20.7013 O   0  0  0  0  0  0  0  0  0  0  0  0
  1  2  2  0
  2  3  1  0
  3  4  1  0
  4  5  2  0
  5  6  1  0
  6  7  2  0
  7  8  1  0
  8  9  2  0
  8 10  1  0
 10 11  1  0
 11 12  1  0
  2 13  1  0
 13 14  2  0
 14 15  1  0
 15 16  2  0
 16 17  1  0
 17 18  2  0
 18 19  1  0
 19 20  2  0
 20 21  1  0
 21 22  1  0
 22 23  1  0
 23 24  1  0
  9  4  1  0
 18 13  1  0
 12  7  1  0
 21 17  1  0
M  END
>  <smiles>  (608) 
C100558-P130

>  <fragmenstein_outcome>  (608) 
acceptable

>  <inchikey>  (608) 
NSIFFWYWQZFHBC-UHFFFAOYSA-N

>  <fragmenstein_mode>  (608) 
expansion

>  <HIPPO Pose ID>  (608) 
17419

>  <Energy>  (608) 
120.321514

>  <fragmenstein_error>  (608) 


>  <tags>  (608) 
{'openbind_xx01zvns2b_c1_fragmenstein', 'fragmenstein_placed'}

>  <ref_pdb>  (608) 
1

>  <scratch_subdir>  (608) 
/opt/xchem-fragalysis-2/maxwin/BulkDock/SCRATCH/511027/C100558-P130

>  <alias>  (608) 
O=C(Nc1ccc2c(c1)CNC2)c1cncc2c1cnn2CNO

>  <HIPPO Compound ID>  (608) 
73683

>  <fragmenstein_runtime>  (608) 
3.72081

$$$$
O[C@](F)(Nc1ccc2c(c1)CNC2)c1cncc2c3n(cc12)NCCC3
     RDKit          3D

 26 30  0  0  0  0  0  0  0  0999 V2000
   -6.5741    3.2254  -13.3095 O   0  0  0  0  0  0  0  0  0  0  0  0
   -7.3523    4.3842  -13.5150 C   0  0  2  0  0  0  0  0  0  0  0  0
   -6.6647    5.4162  -12.9609 F   0  0  0  0  0  0  0  0  0  0  0  0
   -8.6123    4.2162  -12.8104 N   0  0  0  0  0  0  0  0  0  0  0  0
   -8.5644    3.9656  -11.4200 C   0  0  0  0  0  0  0  0  0  0  0  0
   -9.0966    2.7477  -10.9437 C   0  0  0  0  0  0  0  0  0  0  0  0
   -9.1300    2.4151   -9.5914 C   0  0  0  0  0  0  0  0  0  0  0  0
   -8.6375    3.3340   -8.7011 C   0  0  0  0  0  0  0  0  0  0  0  0
   -8.0930    4.5394   -9.1391 C   0  0  0  0  0  0  0  0  0  0  0  0
   -8.0539    4.8765  -10.4896 C   0  0  0  0  0  0  0  0  0  0  0  0
   -7.6427    5.3049   -7.9390 C   0  0  0  0  0  0  0  0  0  0  0  0
   -7.6179    4.3140   -6.8235 N   0  0  0  0  0  0  0  0  0  0  0  0
   -8.6130    3.2767   -7.2133 C   0  0  0  0  0  0  0  0  0  0  0  0
   -7.5179    4.5541  -14.9932 C   0  0  0  0  0  0  0  0  0  0  0  0
   -8.7212    4.3254  -15.7058 C   0  0  0  0  0  0  0  0  0  0  0  0
   -8.9805    4.3553  -17.0789 N   0  0  0  0  0  0  0  0  0  0  0  0
   -7.9831    4.6629  -17.9636 C   0  0  0  0  0  0  0  0  0  0  0  0
   -6.7677    4.9420  -17.3557 C   0  0  0  0  0  0  0  0  0  0  0  0
   -5.5901    5.2714  -17.9762 C   0  0  0  0  0  0  0  0  0  0  0  0
   -4.6561    5.3979  -16.9758 N   0  0  0  0  0  0  0  0  0  0  0  0
   -5.2195    5.1830  -15.7403 C   0  0  0  0  0  0  0  0  0  0  0  0
   -6.5471    4.8848  -15.9475 C   0  0  0  0  0  0  0  0  0  0  0  0
   -3.2961    5.7505  -17.1940 N   0  0  0  0  0  0  0  0  0  0  0  0
   -2.8701    5.3911  -18.5519 C   0  0  0  0  0  0  0  0  0  0  0  0
   -3.8290    5.9574  -19.6009 C   0  0  0  0  0  0  0  0  0  0  0  0
   -5.2364    5.4144  -19.4126 C   0  0  0  0  0  0  0  0  0  0  0  0
  2  1  1  6
  2  3  1  0
  2  4  1  0
  4  5  1  0
  5  6  2  0
  6  7  1  0
  7  8  2  0
  8  9  1  0
  9 10  2  0
  9 11  1  0
 11 12  1  0
 12 13  1  0
  2 14  1  0
 14 15  2  0
 15 16  1  0
 16 17  2  0
 17 18  1  0
 18 19  2  0
 19 20  1  0
 20 21  1  0
 21 22  2  0
 20 23  1  0
 23 24  1  0
 24 25  1  0
 25 26  1  0
 10  5  1  0
 22 14  1  0
 13  8  1  0
 22 18  1  0
 26 19  1  0
M  END
>  <smiles>  (609) 
C100574-P130

>  <fragmenstein_outcome>  (609) 
acceptable

>  <inchikey>  (609) 
RKEOJFWNTKHGAY-UHFFFAOYSA-N

>  <fragmenstein_mode>  (609) 
expansion

>  <HIPPO Pose ID>  (609) 
17426

>  <Energy>  (609) 
-62.288665

>  <fragmenstein_error>  (609) 


>  <tags>  (609) 
{'openbind_xx01zvns2b_c1_fragmenstein', 'fragmenstein_placed'}

>  <ref_pdb>  (609) 
1

>  <scratch_subdir>  (609) 
/opt/xchem-fragalysis-2/maxwin/BulkDock/SCRATCH/511027/C100574-P130

>  <alias>  (609) 
O[C@](F)(Nc1ccc2c(c1)CNC2)c1cncc2c3n(cc12)NCCC3

>  <HIPPO Compound ID>  (609) 
97298

>  <fragmenstein_runtime>  (609) 
2.420079

$$$$
COCn1cc2c(C(=O)Nc3ccc4c(c3)CNC4)cncc2n1
     RDKit          3D

 24 27  0  0  0  0  0  0  0  0999 V2000
   -1.1652    6.6295  -17.5272 C   0  0  0  0  0  0  0  0  0  0  0  0
   -2.3592    6.5400  -16.7608 O   0  0  0  0  0  0  0  0  0  0  0  0
   -2.8571    5.2043  -16.7384 C   0  0  0  0  0  0  0  0  0  0  0  0
   -4.3005    5.1964  -16.5152 N   0  0  0  0  0  0  0  0  0  0  0  0
   -4.9413    4.7172  -15.3999 C   0  0  0  0  0  0  0  0  0  0  0  0
   -6.2577    4.6161  -15.7633 C   0  0  0  0  0  0  0  0  0  0  0  0
   -7.3213    4.1081  -15.0232 C   0  0  0  0  0  0  0  0  0  0  0  0
   -7.2813    3.4019  -13.7432 C   0  0  0  0  0  0  0  0  0  0  0  0
   -7.0356    2.2611  -13.7500 O   0  0  0  0  0  0  0  0  0  0  0  0
   -7.6879    4.3317  -12.5783 N   0  0  0  0  0  0  0  0  0  0  0  0
   -7.9602    4.0428  -11.2425 C   0  0  0  0  0  0  0  0  0  0  0  0
   -8.2041    2.7165  -10.8513 C   0  0  0  0  0  0  0  0  0  0  0  0
   -8.5112    2.3991   -9.5268 C   0  0  0  0  0  0  0  0  0  0  0  0
   -8.5275    3.4200   -8.6000 C   0  0  0  0  0  0  0  0  0  0  0  0
   -8.2490    4.7295   -8.9732 C   0  0  0  0  0  0  0  0  0  0  0  0
   -7.9998    5.0700  -10.2974 C   0  0  0  0  0  0  0  0  0  0  0  0
   -8.1994    5.5799   -7.7515 C   0  0  0  0  0  0  0  0  0  0  0  0
   -8.6825    4.7399   -6.6274 N   0  0  0  0  0  0  0  0  0  0  0  0
   -8.7727    3.3436   -7.1341 C   0  0  0  0  0  0  0  0  0  0  0  0
   -8.4990    4.1447  -15.7777 C   0  0  0  0  0  0  0  0  0  0  0  0
   -8.6576    4.5886  -17.0786 N   0  0  0  0  0  0  0  0  0  0  0  0
   -7.5785    5.0396  -17.8013 C   0  0  0  0  0  0  0  0  0  0  0  0
   -6.3436    5.0787  -17.1319 C   0  0  0  0  0  0  0  0  0  0  0  0
   -5.1293    5.4771  -17.5492 N   0  0  0  0  0  0  0  0  0  0  0  0
  1  2  1  0
  2  3  1  0
  3  4  1  0
  4  5  1  0
  5  6  2  0
  6  7  1  0
  7  8  1  0
  8  9  2  0
  8 10  1  0
 10 11  1  0
 11 12  2  0
 12 13  1  0
 13 14  2  0
 14 15  1  0
 15 16  2  0
 15 17  1  0
 17 18  1  0
 18 19  1  0
  7 20  2  0
 20 21  1  0
 21 22  2  0
 22 23  1  0
 23 24  2  0
 24  4  1  0
 23  6  1  0
 16 11  1  0
 19 14  1  0
M  END
>  <smiles>  (610) 
C100584-P130

>  <fragmenstein_outcome>  (610) 
acceptable

>  <inchikey>  (610) 
UHKJTNGLGRABBU-UHFFFAOYSA-N

>  <fragmenstein_mode>  (610) 
expansion

>  <HIPPO Pose ID>  (610) 
17429

>  <Energy>  (610) 
116.76609

>  <fragmenstein_error>  (610) 


>  <tags>  (610) 
{'openbind_xx01zvns2b_c1_fragmenstein', 'fragmenstein_placed'}

>  <ref_pdb>  (610) 
1

>  <scratch_subdir>  (610) 
/opt/xchem-fragalysis-2/maxwin/BulkDock/SCRATCH/511027/C100584-P130

>  <alias>  (610) 
COCn1cc2c(C(=O)Nc3ccc4c(c3)CNC4)cncc2n1

>  <HIPPO Compound ID>  (610) 
100584

>  <fragmenstein_runtime>  (610) 
3.154503

$$$$
Cc1cc2c(cc1C(=O)C(=O)c1cc(Cl)cc3c1cnn3CNC(C)(C)CO)CNC2
     RDKit          3D

 31 34  0  0  0  0  0  0  0  0999 V2000
   -7.5483    2.2133  -12.2118 C   0  0  0  0  0  0  0  0  0  0  0  0
   -8.0500    3.1145  -11.1275 C   0  0  0  0  0  0  0  0  0  0  0  0
   -8.2253    2.5794   -9.8371 C   0  0  0  0  0  0  0  0  0  0  0  0
   -8.4640    3.4372   -8.7797 C   0  0  0  0  0  0  0  0  0  0  0  0
   -8.4600    4.8104   -8.9656 C   0  0  0  0  0  0  0  0  0  0  0  0
   -8.4159    5.3584  -10.2366 C   0  0  0  0  0  0  0  0  0  0  0  0
   -8.2527    4.4962  -11.3322 C   0  0  0  0  0  0  0  0  0  0  0  0
   -8.3407    5.1020  -12.6832 C   0  0  0  0  0  0  0  0  0  0  0  0
   -9.2834    5.8251  -12.9943 O   0  0  0  0  0  0  0  0  0  0  0  0
   -7.2127    4.9257  -13.6693 C   0  0  0  0  0  0  0  0  0  0  0  0
   -6.0699    5.0209  -13.2349 O   0  0  0  0  0  0  0  0  0  0  0  0
   -7.4826    4.7597  -15.1222 C   0  0  0  0  0  0  0  0  0  0  0  0
   -8.7586    4.4331  -15.6319 C   0  0  0  0  0  0  0  0  0  0  0  0
   -8.9860    4.3814  -17.0073 C   0  0  0  0  0  0  0  0  0  0  0  0
  -10.5384    4.1313  -17.6928 Cl  0  0  0  0  0  0  0  0  0  0  0  0
   -7.9695    4.6138  -17.9134 C   0  0  0  0  0  0  0  0  0  0  0  0
   -6.7160    4.9324  -17.4039 C   0  0  0  0  0  0  0  0  0  0  0  0
   -6.4411    5.0143  -16.0456 C   0  0  0  0  0  0  0  0  0  0  0  0
   -5.0818    5.4129  -16.0042 C   0  0  0  0  0  0  0  0  0  0  0  0
   -4.5598    5.6393  -17.2170 N   0  0  0  0  0  0  0  0  0  0  0  0
   -5.5570    5.2624  -18.0614 N   0  0  0  0  0  0  0  0  0  0  0  0
   -5.5170    5.4735  -19.5139 C   0  0  0  0  0  0  0  0  0  0  0  0
   -4.2281    5.0995  -20.0727 N   0  0  0  0  0  0  0  0  0  0  0  0
   -3.3781    6.2231  -20.5405 C   0  0  0  0  0  0  0  0  0  0  0  0
   -2.1303    5.5528  -21.1581 C   0  0  0  0  0  0  0  0  0  0  0  0
   -4.0755    7.0365  -21.6507 C   0  0  0  0  0  0  0  0  0  0  0  0
   -2.8651    7.1687  -19.4177 C   0  0  0  0  0  0  0  0  0  0  0  0
   -3.9109    7.8784  -18.7616 O   0  0  0  0  0  0  0  0  0  0  0  0
   -8.4638    5.4771   -7.6337 C   0  0  0  0  0  0  0  0  0  0  0  0
   -8.8513    4.4362   -6.6517 N   0  0  0  0  0  0  0  0  0  0  0  0
   -8.7228    3.1243   -7.3456 C   0  0  0  0  0  0  0  0  0  0  0  0
  1  2  1  0
  2  3  2  0
  3  4  1  0
  4  5  2  0
  5  6  1  0
  6  7  2  0
  7  8  1  0
  8  9  2  0
  8 10  1  0
 10 11  2  0
 10 12  1  0
 12 13  2  0
 13 14  1  0
 14 15  1  0
 14 16  2  0
 16 17  1  0
 17 18  2  0
 18 19  1  0
 19 20  2  0
 20 21  1  0
 21 22  1  0
 22 23  1  0
 23 24  1  0
 24 25  1  0
 24 26  1  0
 24 27  1  0
 27 28  1  0
  5 29  1  0
 29 30  1  0
 30 31  1  0
  7  2  1  0
 18 12  1  0
 31  4  1  0
 21 17  1  0
M  END
>  <smiles>  (611) 
C100615-P130

>  <fragmenstein_outcome>  (611) 
acceptable

>  <inchikey>  (611) 
UWBSBBVWJFVNAG-UHFFFAOYSA-N

>  <fragmenstein_mode>  (611) 
expansion

>  <HIPPO Pose ID>  (611) 
17444

>  <Energy>  (611) 
171.432509

>  <fragmenstein_error>  (611) 


>  <tags>  (611) 
{'openbind_xx01zvns2b_c1_fragmenstein', 'fragmenstein_placed'}

>  <ref_pdb>  (611) 
1

>  <scratch_subdir>  (611) 
/opt/xchem-fragalysis-2/maxwin/BulkDock/SCRATCH/511027/C100615-P130

>  <alias>  (611) 
Cc1cc2c(cc1C(=O)C(=O)c1cc(Cl)cc3c1cnn3CNC(C)(C)CO)CNC2

>  <HIPPO Compound ID>  (611) 
84553

>  <fragmenstein_runtime>  (611) 
7.189856

$$$$
N#C[C@](O)(Nc1ccc2c(c1)CNC2)c1cn(Cl)cc2nncc1-2
     RDKit          3D

 24 27  0  0  0  0  0  0  0  0999 V2000
   -5.9224    2.2814  -13.0581 N   0  0  0  0  0  0  0  0  0  0  0  0
   -6.5020    3.2755  -13.2301 C   0  0  0  0  0  0  0  0  0  0  0  0
   -7.1891    4.5715  -13.5269 C   0  0  2  0  0  0  0  0  0  0  0  0
   -6.3744    5.6898  -13.1547 O   0  0  0  0  0  0  0  0  0  0  0  0
   -8.4689    4.8190  -12.8407 N   0  0  0  0  0  0  0  0  0  0  0  0
   -8.5293    4.3478  -11.5027 C   0  0  0  0  0  0  0  0  0  0  0  0
   -8.9434    3.0269  -11.2608 C   0  0  0  0  0  0  0  0  0  0  0  0
   -9.0367    2.5070   -9.9695 C   0  0  0  0  0  0  0  0  0  0  0  0
   -8.6762    3.3164   -8.9183 C   0  0  0  0  0  0  0  0  0  0  0  0
   -8.2052    4.6064   -9.1373 C   0  0  0  0  0  0  0  0  0  0  0  0
   -8.1296    5.1421  -10.4178 C   0  0  0  0  0  0  0  0  0  0  0  0
   -7.8605    5.2112   -7.8174 C   0  0  0  0  0  0  0  0  0  0  0  0
   -7.8552    4.0832   -6.8462 N   0  0  0  0  0  0  0  0  0  0  0  0
   -8.7218    3.0346   -7.4561 C   0  0  0  0  0  0  0  0  0  0  0  0
   -7.3812    4.6325  -15.0428 C   0  0  0  0  0  0  0  0  0  0  0  0
   -8.5434    4.4244  -15.7185 C   0  0  0  0  0  0  0  0  0  0  0  0
   -8.6229    4.4681  -17.1070 N   0  0  0  0  0  0  0  0  0  0  0  0
  -10.1259    4.2127  -17.8655 Cl  0  0  0  0  0  0  0  0  0  0  0  0
   -7.5393    4.7541  -17.9172 C   0  0  0  0  0  0  0  0  0  0  0  0
   -6.3468    4.9813  -17.3571 C   0  0  0  0  0  0  0  0  0  0  0  0
   -5.1139    5.2731  -17.8778 N   0  0  0  0  0  0  0  0  0  0  0  0
   -4.2758    5.3535  -16.9251 N   0  0  0  0  0  0  0  0  0  0  0  0
   -4.9299    5.1230  -15.7323 C   0  0  0  0  0  0  0  0  0  0  0  0
   -6.2331    4.9052  -15.9183 C   0  0  0  0  0  0  0  0  0  0  0  0
  1  2  3  0
  2  3  1  0
  3  4  1  1
  3  5  1  0
  5  6  1  0
  6  7  2  0
  7  8  1  0
  8  9  2  0
  9 10  1  0
 10 11  2  0
 10 12  1  0
 12 13  1  0
 13 14  1  0
  3 15  1  0
 15 16  2  0
 16 17  1  0
 17 18  1  0
 17 19  1  0
 19 20  2  0
 20 21  1  0
 21 22  2  0
 22 23  1  0
 23 24  2  0
 11  6  1  0
 24 15  1  0
 14  9  1  0
 24 20  1  0
M  END
>  <smiles>  (612) 
C100627-P130

>  <fragmenstein_outcome>  (612) 
acceptable

>  <inchikey>  (612) 
ZYCATFOYLZVNQB-UHFFFAOYSA-N

>  <fragmenstein_mode>  (612) 
expansion

>  <HIPPO Pose ID>  (612) 
17447

>  <Energy>  (612) 
74.535497

>  <fragmenstein_error>  (612) 


>  <tags>  (612) 
{'openbind_xx01zvns2b_c1_fragmenstein', 'fragmenstein_placed'}

>  <ref_pdb>  (612) 
1

>  <scratch_subdir>  (612) 
/opt/xchem-fragalysis-2/maxwin/BulkDock/SCRATCH/511027/C100627-P130

>  <alias>  (612) 
N#C[C@](O)(Nc1ccc2c(c1)CNC2)c1cn(Cl)cc2nncc1-2

>  <HIPPO Compound ID>  (612) 
90238

>  <fragmenstein_runtime>  (612) 
1.878302

$$$$
CC(C)NC(=O)[C@](O)(Nc1ccc2c(c1)CNC2)c1cn(Cl)cc2nncc1-2
     RDKit          3D

 28 31  0  0  0  0  0  0  0  0999 V2000
   -3.4618    3.4248  -10.9150 C   0  0  0  0  0  0  0  0  0  0  0  0
   -4.2177    2.6244  -11.9629 C   0  0  0  0  0  0  0  0  0  0  0  0
   -3.3158    2.2499  -13.1339 C   0  0  0  0  0  0  0  0  0  0  0  0
   -5.3325    3.4017  -12.4314 N   0  0  0  0  0  0  0  0  0  0  0  0
   -6.6168    2.9674  -13.1937 C   0  0  0  0  0  0  0  0  0  0  0  0
   -6.9996    1.9016  -13.4882 O   0  0  0  0  0  0  0  0  0  0  0  0
   -7.3823    4.3440  -13.5034 C   0  0  2  0  0  0  0  0  0  0  0  0
   -6.7127    5.5150  -13.0556 O   0  0  0  0  0  0  0  0  0  0  0  0
   -8.6966    4.3661  -12.8271 N   0  0  0  0  0  0  0  0  0  0  0  0
   -8.6542    4.0964  -11.4219 C   0  0  0  0  0  0  0  0  0  0  0  0
   -8.9793    2.8043  -10.9602 C   0  0  0  0  0  0  0  0  0  0  0  0
   -9.0013    2.4755   -9.6035 C   0  0  0  0  0  0  0  0  0  0  0  0
   -8.6950    3.4628   -8.6964 C   0  0  0  0  0  0  0  0  0  0  0  0
   -8.3172    4.7282   -9.1247 C   0  0  0  0  0  0  0  0  0  0  0  0
   -8.2897    5.0641  -10.4761 C   0  0  0  0  0  0  0  0  0  0  0  0
   -7.9726    5.5530   -7.9322 C   0  0  0  0  0  0  0  0  0  0  0  0
   -8.4483    4.7968   -6.7452 N   0  0  0  0  0  0  0  0  0  0  0  0
   -8.7147    3.4072   -7.2094 C   0  0  0  0  0  0  0  0  0  0  0  0
   -7.5079    4.4749  -15.0152 C   0  0  0  0  0  0  0  0  0  0  0  0
   -8.6333    4.3117  -15.7612 C   0  0  0  0  0  0  0  0  0  0  0  0
   -8.6477    4.4220  -17.1479 N   0  0  0  0  0  0  0  0  0  0  0  0
  -10.1163    4.2053  -17.9819 Cl  0  0  0  0  0  0  0  0  0  0  0  0
   -7.5261    4.7389  -17.8901 C   0  0  0  0  0  0  0  0  0  0  0  0
   -6.3643    4.9405  -17.2598 C   0  0  0  0  0  0  0  0  0  0  0  0
   -5.1117    5.2720  -17.7061 N   0  0  0  0  0  0  0  0  0  0  0  0
   -4.3292    5.3483  -16.7071 N   0  0  0  0  0  0  0  0  0  0  0  0
   -5.0423    5.0693  -15.5587 C   0  0  0  0  0  0  0  0  0  0  0  0
   -6.3239    4.8085  -15.8196 C   0  0  0  0  0  0  0  0  0  0  0  0
  1  2  1  0
  2  3  1  0
  2  4  1  0
  4  5  1  0
  5  6  2  0
  5  7  1  0
  7  8  1  1
  7  9  1  0
  9 10  1  0
 10 11  2  0
 11 12  1  0
 12 13  2  0
 13 14  1  0
 14 15  2  0
 14 16  1  0
 16 17  1  0
 17 18  1  0
  7 19  1  0
 19 20  2  0
 20 21  1  0
 21 22  1  0
 21 23  1  0
 23 24  2  0
 24 25  1  0
 25 26  2  0
 26 27  1  0
 27 28  2  0
 15 10  1  0
 28 19  1  0
 18 13  1  0
 28 24  1  0
M  END
>  <smiles>  (613) 
C100628-P130

>  <fragmenstein_outcome>  (613) 
acceptable

>  <inchikey>  (613) 
ZRKRWOKUAQBXHY-UHFFFAOYSA-N

>  <fragmenstein_mode>  (613) 
expansion

>  <HIPPO Pose ID>  (613) 
17448

>  <Energy>  (613) 
101.559122

>  <fragmenstein_error>  (613) 


>  <tags>  (613) 
{'openbind_xx01zvns2b_c1_fragmenstein', 'fragmenstein_placed'}

>  <ref_pdb>  (613) 
1

>  <scratch_subdir>  (613) 
/opt/xchem-fragalysis-2/maxwin/BulkDock/SCRATCH/511027/C100628-P130

>  <alias>  (613) 
CC(C)NC(=O)[C@](O)(Nc1ccc2c(c1)CNC2)c1cn(Cl)cc2nncc1-2

>  <HIPPO Compound ID>  (613) 
100628

>  <fragmenstein_runtime>  (613) 
5.825995

$$$$
CNC(=O)[C@](O)(Nc1ccc2c(c1)CNC2)c1cn(Cl)cc2nncc1-2
     RDKit          3D

 26 29  0  0  0  0  0  0  0  0999 V2000
   -4.6375    2.2419  -11.3337 C   0  0  0  0  0  0  0  0  0  0  0  0
   -5.4684    3.1265  -12.0936 N   0  0  0  0  0  0  0  0  0  0  0  0
   -6.6262    2.8199  -13.0906 C   0  0  0  0  0  0  0  0  0  0  0  0
   -7.0240    1.7972  -13.4997 O   0  0  0  0  0  0  0  0  0  0  0  0
   -7.2918    4.2504  -13.4337 C   0  0  2  0  0  0  0  0  0  0  0  0
   -6.5634    5.3760  -12.9700 O   0  0  0  0  0  0  0  0  0  0  0  0
   -8.6186    4.3560  -12.7769 N   0  0  0  0  0  0  0  0  0  0  0  0
   -8.6231    4.0861  -11.3733 C   0  0  0  0  0  0  0  0  0  0  0  0
   -8.9714    2.7969  -10.9197 C   0  0  0  0  0  0  0  0  0  0  0  0
   -9.0108    2.4665   -9.5641 C   0  0  0  0  0  0  0  0  0  0  0  0
   -8.7006    3.4488   -8.6523 C   0  0  0  0  0  0  0  0  0  0  0  0
   -8.3074    4.7122   -9.0737 C   0  0  0  0  0  0  0  0  0  0  0  0
   -8.2612    5.0499  -10.4233 C   0  0  0  0  0  0  0  0  0  0  0  0
   -7.9679    5.5324   -7.8771 C   0  0  0  0  0  0  0  0  0  0  0  0
   -8.4484    4.7725   -6.6947 N   0  0  0  0  0  0  0  0  0  0  0  0
   -8.7303    3.3883   -7.1656 C   0  0  0  0  0  0  0  0  0  0  0  0
   -7.4142    4.4059  -14.9465 C   0  0  0  0  0  0  0  0  0  0  0  0
   -8.5453    4.2864  -15.6946 C   0  0  0  0  0  0  0  0  0  0  0  0
   -8.5660    4.4470  -17.0771 N   0  0  0  0  0  0  0  0  0  0  0  0
  -10.0266    4.2039  -17.9201 Cl  0  0  0  0  0  0  0  0  0  0  0  0
   -7.4421    4.7685  -17.8139 C   0  0  0  0  0  0  0  0  0  0  0  0
   -6.2753    4.9295  -17.1804 C   0  0  0  0  0  0  0  0  0  0  0  0
   -5.0181    5.2511  -17.6204 N   0  0  0  0  0  0  0  0  0  0  0  0
   -4.2283    5.2664  -16.6239 N   0  0  0  0  0  0  0  0  0  0  0  0
   -4.9400    4.9546  -15.4826 C   0  0  0  0  0  0  0  0  0  0  0  0
   -6.2293    4.7400  -15.7462 C   0  0  0  0  0  0  0  0  0  0  0  0
  1  2  1  0
  2  3  1  0
  3  4  2  0
  3  5  1  0
  5  6  1  1
  5  7  1  0
  7  8  1  0
  8  9  2  0
  9 10  1  0
 10 11  2  0
 11 12  1  0
 12 13  2  0
 12 14  1  0
 14 15  1  0
 15 16  1  0
  5 17  1  0
 17 18  2  0
 18 19  1  0
 19 20  1  0
 19 21  1  0
 21 22  2  0
 22 23  1  0
 23 24  2  0
 24 25  1  0
 25 26  2  0
 13  8  1  0
 26 17  1  0
 16 11  1  0
 26 22  1  0
M  END
>  <smiles>  (614) 
C100632-P130

>  <fragmenstein_outcome>  (614) 
acceptable

>  <inchikey>  (614) 
KSIIPORFMRYCJW-UHFFFAOYSA-N

>  <fragmenstein_mode>  (614) 
expansion

>  <HIPPO Pose ID>  (614) 
17450

>  <Energy>  (614) 
100.274776

>  <fragmenstein_error>  (614) 


>  <tags>  (614) 
{'openbind_xx01zvns2b_c1_fragmenstein', 'fragmenstein_placed'}

>  <ref_pdb>  (614) 
1

>  <scratch_subdir>  (614) 
/opt/xchem-fragalysis-2/maxwin/BulkDock/SCRATCH/511027/C100632-P130

>  <alias>  (614) 
CNC(=O)[C@](O)(Nc1ccc2c(c1)CNC2)c1cn(Cl)cc2nncc1-2

>  <HIPPO Compound ID>  (614) 
91851

>  <fragmenstein_runtime>  (614) 
4.120216

$$$$
O=C(Nc1ccc2c(c1)CNC2)c1cncc2c1C=N[N@@H+]2[O-]
     RDKit          3D

 22 25  0  0  0  0  0  0  0  0999 V2000
   -6.8742    2.4210  -13.8314 O   0  0  0  0  0  0  0  0  0  0  0  0
   -7.2805    3.5149  -13.8372 C   0  0  0  0  0  0  0  0  0  0  0  0
   -7.8022    4.3955  -12.6800 N   0  0  0  0  0  0  0  0  0  0  0  0
   -8.0143    4.0920  -11.3361 C   0  0  0  0  0  0  0  0  0  0  0  0
   -8.1644    2.7533  -10.9397 C   0  0  0  0  0  0  0  0  0  0  0  0
   -8.4365    2.4219   -9.6104 C   0  0  0  0  0  0  0  0  0  0  0  0
   -8.4989    3.4412   -8.6832 C   0  0  0  0  0  0  0  0  0  0  0  0
   -8.2924    4.7627   -9.0597 C   0  0  0  0  0  0  0  0  0  0  0  0
   -8.0943    5.1160  -10.3896 C   0  0  0  0  0  0  0  0  0  0  0  0
   -8.2521    5.6125   -7.8364 C   0  0  0  0  0  0  0  0  0  0  0  0
   -8.6672    4.7497   -6.7036 N   0  0  0  0  0  0  0  0  0  0  0  0
   -8.7390    3.3555   -7.2165 C   0  0  0  0  0  0  0  0  0  0  0  0
   -7.4294    4.1714  -15.1431 C   0  0  0  0  0  0  0  0  0  0  0  0
   -8.6852    4.2296  -15.7243 C   0  0  0  0  0  0  0  0  0  0  0  0
   -8.9105    4.5544  -17.0299 N   0  0  0  0  0  0  0  0  0  0  0  0
   -7.8388    4.8317  -17.8119 C   0  0  0  0  0  0  0  0  0  0  0  0
   -6.5695    4.8068  -17.3018 C   0  0  0  0  0  0  0  0  0  0  0  0
   -6.3804    4.4793  -15.9746 C   0  0  0  0  0  0  0  0  0  0  0  0
   -4.9460    4.4624  -15.7972 C   0  0  0  0  0  0  0  0  0  0  0  0
   -4.2692    4.7281  -16.8763 N   0  0  0  0  0  0  0  0  0  0  0  0
   -5.3007    4.9814  -17.9919 N   0  0  2  0  0  0  0  0  0  0  0  0
   -5.1608    6.2570  -18.3831 O   0  0  0  0  0  0  0  0  0  0  0  0
  1  2  2  0
  2  3  1  0
  3  4  1  0
  4  5  2  0
  5  6  1  0
  6  7  2  0
  7  8  1  0
  8  9  2  0
  8 10  1  0
 10 11  1  0
 11 12  1  0
  2 13  1  0
 13 14  2  0
 14 15  1  0
 15 16  2  0
 16 17  1  0
 17 18  2  0
 18 19  1  0
 19 20  2  0
 20 21  1  0
 21 22  1  1
  9  4  1  0
 18 13  1  0
 12  7  1  0
 21 17  1  0
M  CHG  2  21   1  22  -1
M  END
>  <smiles>  (615) 
C100633-P130

>  <fragmenstein_outcome>  (615) 
acceptable

>  <inchikey>  (615) 
DSVQMQISPMXZEP-UHFFFAOYSA-N

>  <fragmenstein_mode>  (615) 
expansion

>  <HIPPO Pose ID>  (615) 
17451

>  <Energy>  (615) 
39.283053

>  <fragmenstein_error>  (615) 


>  <tags>  (615) 
{'openbind_xx01zvns2b_c1_fragmenstein', 'fragmenstein_placed'}

>  <ref_pdb>  (615) 
1

>  <scratch_subdir>  (615) 
/opt/xchem-fragalysis-2/maxwin/BulkDock/SCRATCH/511027/C100633-P130

>  <alias>  (615) 
O=C(Nc1ccc2c(c1)CNC2)c1cncc2c1C=N[N@@H+]2[O-]

>  <HIPPO Compound ID>  (615) 
88926

>  <fragmenstein_runtime>  (615) 
1.669791

$$$$
O=C(Nc1ccc2c(c1)CNC2)c1cn(Br)cc2n[n+]([O-])cc1-2
     RDKit          3D

 23 26  0  0  0  0  0  0  0  0999 V2000
   -7.0065    2.3221  -13.8548 O   0  0  0  0  0  0  0  0  0  0  0  0
   -7.2861    3.4556  -13.8616 C   0  0  0  0  0  0  0  0  0  0  0  0
   -7.7207    4.3894  -12.7042 N   0  0  0  0  0  0  0  0  0  0  0  0
   -7.9834    4.1078  -11.3630 C   0  0  0  0  0  0  0  0  0  0  0  0
   -8.2038    2.7786  -10.9635 C   0  0  0  0  0  0  0  0  0  0  0  0
   -8.4930    2.4593   -9.6351 C   0  0  0  0  0  0  0  0  0  0  0  0
   -8.5127    3.4813   -8.7099 C   0  0  0  0  0  0  0  0  0  0  0  0
   -8.2557    4.7934   -9.0895 C   0  0  0  0  0  0  0  0  0  0  0  0
   -8.0281    5.1357  -10.4188 C   0  0  0  0  0  0  0  0  0  0  0  0
   -8.2008    5.6462   -7.8687 C   0  0  0  0  0  0  0  0  0  0  0  0
   -8.6377    4.7977   -6.7331 N   0  0  0  0  0  0  0  0  0  0  0  0
   -8.7445    3.4042   -7.2416 C   0  0  0  0  0  0  0  0  0  0  0  0
   -7.3655    4.2130  -15.1440 C   0  0  0  0  0  0  0  0  0  0  0  0
   -8.5049    4.0711  -15.8612 C   0  0  0  0  0  0  0  0  0  0  0  0
   -8.6350    4.4939  -17.1848 N   0  0  0  0  0  0  0  0  0  0  0  0
  -10.2098    4.2177  -18.1150 Br  0  0  0  0  0  0  0  0  0  0  0  0
   -7.5559    5.0619  -17.8471 C   0  0  0  0  0  0  0  0  0  0  0  0
   -6.4021    5.2784  -17.2090 C   0  0  0  0  0  0  0  0  0  0  0  0
   -5.2644    5.8972  -17.6192 N   0  0  0  0  0  0  0  0  0  0  0  0
   -4.4735    5.9385  -16.6163 N   0  0  0  0  0  0  0  0  0  0  0  0
   -3.3633    6.5543  -16.6404 O   0  0  0  0  0  0  0  0  0  0  0  0
   -5.0501    5.2750  -15.4497 C   0  0  0  0  0  0  0  0  0  0  0  0
   -6.2691    4.8828  -15.8195 C   0  0  0  0  0  0  0  0  0  0  0  0
  1  2  2  0
  2  3  1  0
  3  4  1  0
  4  5  2  0
  5  6  1  0
  6  7  2  0
  7  8  1  0
  8  9  2  0
  8 10  1  0
 10 11  1  0
 11 12  1  0
  2 13  1  0
 13 14  2  0
 14 15  1  0
 15 16  1  0
 15 17  1  0
 17 18  2  0
 18 19  1  0
 19 20  2  0
 20 21  1  0
 20 22  1  0
 22 23  2  0
  9  4  1  0
 23 13  1  0
 12  7  1  0
 23 18  1  0
M  CHG  2  20   1  21  -1
M  END
>  <smiles>  (616) 
C100639-P130

>  <fragmenstein_outcome>  (616) 
acceptable

>  <inchikey>  (616) 
IURJBOVGZKHRKD-UHFFFAOYSA-N

>  <fragmenstein_mode>  (616) 
expansion

>  <HIPPO Pose ID>  (616) 
17453

>  <Energy>  (616) 
46.477563

>  <fragmenstein_error>  (616) 


>  <tags>  (616) 
{'openbind_xx01zvns2b_c1_fragmenstein', 'fragmenstein_placed'}

>  <ref_pdb>  (616) 
1

>  <scratch_subdir>  (616) 
/opt/xchem-fragalysis-2/maxwin/BulkDock/SCRATCH/511027/C100639-P130

>  <alias>  (616) 
O=C(Nc1ccc2c(c1)CNC2)c1cn(Br)cc2n[n+]([O-])cc1-2

>  <HIPPO Compound ID>  (616) 
100639

>  <fragmenstein_runtime>  (616) 
2.341247

$$$$
CC(C)(N1C=C2C(=CN(F)C=C2C(=O)Nc2ccc3c(c2)CNC3)N1)S(C)(=O)=O
     RDKit          3D

 29 32  0  0  0  0  0  0  0  0999 V2000
   -2.2174    5.4887  -17.6957 C   0  0  0  0  0  0  0  0  0  0  0  0
   -2.9476    5.8413  -16.3852 C   0  0  0  0  0  0  0  0  0  0  0  0
   -2.5675    4.8345  -15.2869 C   0  0  0  0  0  0  0  0  0  0  0  0
   -4.4291    5.8247  -16.5957 N   0  0  0  0  0  0  0  0  0  0  0  0
   -5.3393    5.8201  -15.5305 C   0  0  0  0  0  0  0  0  0  0  0  0
   -6.4810    5.2048  -15.8804 C   0  0  0  0  0  0  0  0  0  0  0  0
   -6.3123    4.7859  -17.2844 C   0  0  0  0  0  0  0  0  0  0  0  0
   -7.3859    4.2654  -17.8966 C   0  0  0  0  0  0  0  0  0  0  0  0
   -8.5870    4.1410  -17.2168 N   0  0  0  0  0  0  0  0  0  0  0  0
   -9.2779    2.9610  -17.6167 F   0  0  0  0  0  0  0  0  0  0  0  0
   -8.6861    4.3399  -15.8438 C   0  0  0  0  0  0  0  0  0  0  0  0
   -7.6936    4.9222  -15.1372 C   0  0  0  0  0  0  0  0  0  0  0  0
   -7.8725    5.4086  -13.7413 C   0  0  0  0  0  0  0  0  0  0  0  0
   -7.7847    6.5479  -13.4981 O   0  0  0  0  0  0  0  0  0  0  0  0
   -8.1476    4.2026  -12.8111 N   0  0  0  0  0  0  0  0  0  0  0  0
   -8.2730    4.1390  -11.4238 C   0  0  0  0  0  0  0  0  0  0  0  0
   -8.1123    5.2900  -10.6337 C   0  0  0  0  0  0  0  0  0  0  0  0
   -8.2285    5.2293   -9.2413 C   0  0  0  0  0  0  0  0  0  0  0  0
   -8.5179    4.0087   -8.6615 C   0  0  0  0  0  0  0  0  0  0  0  0
   -8.6759    2.8682   -9.4384 C   0  0  0  0  0  0  0  0  0  0  0  0
   -8.5494    2.9111  -10.8192 C   0  0  0  0  0  0  0  0  0  0  0  0
   -8.9454    1.7002   -8.5506 C   0  0  0  0  0  0  0  0  0  0  0  0
   -9.1710    2.2620   -7.1926 N   0  0  0  0  0  0  0  0  0  0  0  0
   -8.6959    3.6594   -7.2238 C   0  0  0  0  0  0  0  0  0  0  0  0
   -5.0133    5.0981  -17.6515 N   0  0  0  0  0  0  0  0  0  0  0  0
   -2.3233    7.5244  -15.8235 S   0  0  0  0  0  0  0  0  0  0  0  0
   -3.1783    8.6634  -16.8861 C   0  0  0  0  0  0  0  0  0  0  0  0
   -0.9080    7.6473  -16.1322 O   0  0  0  0  0  0  0  0  0  0  0  0
   -2.7809    7.7952  -14.4709 O   0  0  0  0  0  0  0  0  0  0  0  0
  1  2  1  0
  2  3  1  0
  2  4  1  0
  4  5  1  0
  5  6  2  0
  6  7  1  0
  7  8  2  0
  8  9  1  0
  9 10  1  0
  9 11  1  0
 11 12  2  0
 12 13  1  0
 13 14  2  0
 13 15  1  0
 15 16  1  0
 16 17  2  0
 17 18  1  0
 18 19  2  0
 19 20  1  0
 20 21  2  0
 20 22  1  0
 22 23  1  0
 23 24  1  0
  7 25  1  0
  2 26  1  0
 26 27  1  0
 26 28  2  0
 26 29  2  0
 25  4  1  0
 12  6  1  0
 21 16  1  0
 24 19  1  0
M  END
>  <smiles>  (617) 
C100657-P131

>  <fragmenstein_outcome>  (617) 
acceptable

>  <inchikey>  (617) 
OZCBKRFZBRCZOL-UHFFFAOYSA-N

>  <fragmenstein_mode>  (617) 
expansion

>  <HIPPO Pose ID>  (617) 
17461

>  <Energy>  (617) 
170.593654

>  <fragmenstein_error>  (617) 


>  <tags>  (617) 
{'openbind_xx01zvns2b_c1_fragmenstein', 'fragmenstein_placed'}

>  <ref_pdb>  (617) 
1

>  <scratch_subdir>  (617) 
/opt/xchem-fragalysis-2/maxwin/BulkDock/SCRATCH/511027/C100657-P131

>  <alias>  (617) 
CC(C)(N1C=C2C(=CN(F)C=C2C(=O)Nc2ccc3c(c2)CNC3)N1)S(C)(=O)=O

>  <HIPPO Compound ID>  (617) 
80131

>  <fragmenstein_runtime>  (617) 
4.975275

$$$$
CNCn1ncc2c(C(=O)Nc3cc(F)c4c(c3)CN[C@@]43CCCC3=O)cc(Cl)cc21
     RDKit          3D

 31 35  0  0  0  0  0  0  0  0999 V2000
   -1.7527    5.5165  -18.4378 C   0  0  0  0  0  0  0  0  0  0  0  0
   -2.8099    5.0312  -17.5675 N   0  0  0  0  0  0  0  0  0  0  0  0
   -4.1144    5.4621  -18.0749 C   0  0  0  0  0  0  0  0  0  0  0  0
   -4.9736    5.5615  -16.9096 N   0  0  0  0  0  0  0  0  0  0  0  0
   -4.4629    6.1701  -15.8045 N   0  0  0  0  0  0  0  0  0  0  0  0
   -5.4212    6.0059  -14.8991 C   0  0  0  0  0  0  0  0  0  0  0  0
   -6.5525    5.3463  -15.4270 C   0  0  0  0  0  0  0  0  0  0  0  0
   -7.8130    4.9857  -14.9251 C   0  0  0  0  0  0  0  0  0  0  0  0
   -8.1176    5.4589  -13.5647 C   0  0  0  0  0  0  0  0  0  0  0  0
   -8.0724    6.6099  -13.3846 O   0  0  0  0  0  0  0  0  0  0  0  0
   -8.3506    4.3034  -12.5770 N   0  0  0  0  0  0  0  0  0  0  0  0
   -8.4789    4.3106  -11.1909 C   0  0  0  0  0  0  0  0  0  0  0  0
   -8.2772    5.5082  -10.4833 C   0  0  0  0  0  0  0  0  0  0  0  0
   -8.2931    5.5171   -9.0939 C   0  0  0  0  0  0  0  0  0  0  0  0
   -8.0450    6.6534   -8.4307 F   0  0  0  0  0  0  0  0  0  0  0  0
   -8.5322    4.3471   -8.4124 C   0  0  0  0  0  0  0  0  0  0  0  0
   -8.7828    3.1701   -9.1181 C   0  0  0  0  0  0  0  0  0  0  0  0
   -8.7417    3.1242  -10.5063 C   0  0  0  0  0  0  0  0  0  0  0  0
   -9.0810    2.0735   -8.1554 C   0  0  0  0  0  0  0  0  0  0  0  0
   -8.6999    2.5935   -6.8177 N   0  0  0  0  0  0  0  0  0  0  0  0
   -8.4755    4.0630   -6.9522 C   0  0  1  0  0  0  0  0  0  0  0  0
   -7.1570    4.5399   -6.3065 C   0  0  0  0  0  0  0  0  0  0  0  0
   -7.4113    4.4694   -4.8084 C   0  0  0  0  0  0  0  0  0  0  0  0
   -8.8077    5.0522   -4.6567 C   0  0  0  0  0  0  0  0  0  0  0  0
   -9.4424    4.7832   -6.0067 C   0  0  0  0  0  0  0  0  0  0  0  0
  -10.5895    5.1454   -6.2400 O   0  0  0  0  0  0  0  0  0  0  0  0
   -8.7365    4.3579  -15.7596 C   0  0  0  0  0  0  0  0  0  0  0  0
   -8.4205    4.1596  -17.1052 C   0  0  0  0  0  0  0  0  0  0  0  0
   -9.6185    3.5314  -18.1704 Cl  0  0  0  0  0  0  0  0  0  0  0  0
   -7.1758    4.5187  -17.6397 C   0  0  0  0  0  0  0  0  0  0  0  0
   -6.2523    5.1005  -16.7617 C   0  0  0  0  0  0  0  0  0  0  0  0
  1  2  1  0
  2  3  1  0
  3  4  1  0
  4  5  1  0
  5  6  2  0
  6  7  1  0
  7  8  2  0
  8  9  1  0
  9 10  2  0
  9 11  1  0
 11 12  1  0
 12 13  2  0
 13 14  1  0
 14 15  1  0
 14 16  2  0
 16 17  1  0
 17 18  2  0
 17 19  1  0
 19 20  1  0
 20 21  1  0
 21 22  1  1
 22 23  1  0
 23 24  1  0
 24 25  1  0
 25 26  2  0
  8 27  1  0
 27 28  2  0
 28 29  1  0
 28 30  1  0
 30 31  2  0
 31  4  1  0
 31  7  1  0
 18 12  1  0
 25 21  1  0
 21 16  1  0
M  END
>  <smiles>  (618) 
C43786-P131

>  <fragmenstein_outcome>  (618) 
acceptable

>  <inchikey>  (618) 
YXFHPUGHGIBEBF-UHFFFAOYSA-N

>  <fragmenstein_mode>  (618) 
expansion

>  <HIPPO Pose ID>  (618) 
17483

>  <Energy>  (618) 
121.355327

>  <fragmenstein_error>  (618) 


>  <tags>  (618) 
{'openbind_xx01zvns2b_c1_fragmenstein', 'fragmenstein_placed'}

>  <ref_pdb>  (618) 
1

>  <scratch_subdir>  (618) 
/opt/xchem-fragalysis-2/maxwin/BulkDock/SCRATCH/511027/C43786-P131

>  <alias>  (618) 
CNCn1ncc2c(C(=O)Nc3cc(F)c4c(c3)CN[C@@]43CCCC3=O)cc(Cl)cc21

>  <HIPPO Compound ID>  (618) 
78675

>  <fragmenstein_runtime>  (618) 
7.415177

$$$$
CNCN1c2cc(F)cc(C(=O)Nc3ccc4c(c3)CNC4)c2C[C@]12CC[C@H](OC)NN2
     RDKit          3D

 32 36  0  0  0  0  0  0  0  0999 V2000
   -6.6926    3.6373  -20.2267 C   0  0  0  0  0  0  0  0  0  0  0  0
   -5.9416    4.8737  -20.2724 N   0  0  0  0  0  0  0  0  0  0  0  0
   -5.0947    5.1017  -19.1182 C   0  0  0  0  0  0  0  0  0  0  0  0
   -5.5027    5.6259  -17.8264 N   0  0  0  0  0  0  0  0  0  0  0  0
   -6.5655    5.1213  -17.0937 C   0  0  0  0  0  0  0  0  0  0  0  0
   -7.7870    4.6800  -17.5629 C   0  0  0  0  0  0  0  0  0  0  0  0
   -8.7577    4.2255  -16.6852 C   0  0  0  0  0  0  0  0  0  0  0  0
   -9.9130    3.7740  -17.1872 F   0  0  0  0  0  0  0  0  0  0  0  0
   -8.5792    4.3246  -15.3152 C   0  0  0  0  0  0  0  0  0  0  0  0
   -7.3883    4.8612  -14.8211 C   0  0  0  0  0  0  0  0  0  0  0  0
   -7.2854    5.2239  -13.3856 C   0  0  0  0  0  0  0  0  0  0  0  0
   -6.9116    6.2938  -13.1081 O   0  0  0  0  0  0  0  0  0  0  0  0
   -7.7987    4.0802  -12.4879 N   0  0  0  0  0  0  0  0  0  0  0  0
   -8.0407    4.0456  -11.1212 C   0  0  0  0  0  0  0  0  0  0  0  0
   -7.9072    5.1975  -10.3294 C   0  0  0  0  0  0  0  0  0  0  0  0
   -8.1794    5.1569   -8.9594 C   0  0  0  0  0  0  0  0  0  0  0  0
   -8.5895    3.9559   -8.4139 C   0  0  0  0  0  0  0  0  0  0  0  0
   -8.7136    2.8133   -9.1992 C   0  0  0  0  0  0  0  0  0  0  0  0
   -8.4449    2.8373  -10.5541 C   0  0  0  0  0  0  0  0  0  0  0  0
   -9.1089    1.6676   -8.3299 C   0  0  0  0  0  0  0  0  0  0  0  0
   -9.6180    2.2976   -7.0842 N   0  0  0  0  0  0  0  0  0  0  0  0
   -8.9382    3.6087   -7.0052 C   0  0  0  0  0  0  0  0  0  0  0  0
   -6.3843    5.2179  -15.7185 C   0  0  0  0  0  0  0  0  0  0  0  0
   -5.0385    5.7885  -15.4223 C   0  0  0  0  0  0  0  0  0  0  0  0
   -4.4176    5.9704  -16.8559 C   0  0  2  0  0  0  0  0  0  0  0  0
   -4.0802    7.4827  -17.0906 C   0  0  0  0  0  0  0  0  0  0  0  0
   -2.6130    7.7836  -16.7726 C   0  0  0  0  0  0  0  0  0  0  0  0
   -1.6875    6.9092  -17.6439 C   0  0  2  0  0  0  0  0  0  0  0  0
   -1.4796    7.6202  -18.8662 O   0  0  0  0  0  0  0  0  0  0  0  0
   -0.4357    7.0774  -19.6625 C   0  0  0  0  0  0  0  0  0  0  0  0
   -2.2726    5.5826  -17.9113 N   0  0  0  0  0  0  0  0  0  0  0  0
   -3.1442    5.1838  -16.8211 N   0  0  0  0  0  0  0  0  0  0  0  0
  1  2  1  0
  2  3  1  0
  3  4  1  0
  4  5  1  0
  5  6  2  0
  6  7  1  0
  7  8  1  0
  7  9  2  0
  9 10  1  0
 10 11  1  0
 11 12  2  0
 11 13  1  0
 13 14  1  0
 14 15  2  0
 15 16  1  0
 16 17  2  0
 17 18  1  0
 18 19  2  0
 18 20  1  0
 20 21  1  0
 21 22  1  0
 10 23  2  0
 23 24  1  0
 25 24  1  1
 25 26  1  0
 26 27  1  0
 27 28  1  0
 28 29  1  6
 29 30  1  0
 28 31  1  0
 31 32  1  0
 25  4  1  0
 23  5  1  0
 32 25  1  0
 19 14  1  0
 22 17  1  0
M  END
>  <smiles>  (619) 
C99672-P131

>  <fragmenstein_outcome>  (619) 
acceptable

>  <inchikey>  (619) 
QQELWSSSVJQNHH-UHFFFAOYSA-N

>  <fragmenstein_mode>  (619) 
expansion

>  <HIPPO Pose ID>  (619) 
17486

>  <Energy>  (619) 
46.989446

>  <fragmenstein_error>  (619) 


>  <tags>  (619) 
{'openbind_xx01zvns2b_c1_fragmenstein', 'fragmenstein_placed'}

>  <ref_pdb>  (619) 
1

>  <scratch_subdir>  (619) 
/opt/xchem-fragalysis-2/maxwin/BulkDock/SCRATCH/511027/C99672-P131

>  <alias>  (619) 
CNCN1c2cc(F)cc(C(=O)Nc3ccc4c(c3)CNC4)c2C[C@]12CC[C@H](OC)NN2

>  <HIPPO Compound ID>  (619) 
70740

>  <fragmenstein_runtime>  (619) 
9.118344

$$$$
CCNn1ncc2c(C(=O)Nc3ccc4c(c3)CNC4)cncc21
     RDKit          3D

 24 27  0  0  0  0  0  0  0  0999 V2000
   -5.1801    6.9863  -19.6695 C   0  0  0  0  0  0  0  0  0  0  0  0
   -3.8621    6.4723  -19.1105 C   0  0  0  0  0  0  0  0  0  0  0  0
   -4.0135    5.2254  -18.3582 N   0  0  0  0  0  0  0  0  0  0  0  0
   -4.6082    5.4477  -17.0940 N   0  0  0  0  0  0  0  0  0  0  0  0
   -3.9002    5.9350  -16.0621 N   0  0  0  0  0  0  0  0  0  0  0  0
   -4.7562    5.9003  -15.0388 C   0  0  0  0  0  0  0  0  0  0  0  0
   -6.0093    5.3622  -15.3964 C   0  0  0  0  0  0  0  0  0  0  0  0
   -7.2210    5.0809  -14.7528 C   0  0  0  0  0  0  0  0  0  0  0  0
   -7.4186    5.4624  -13.3463 C   0  0  0  0  0  0  0  0  0  0  0  0
   -7.1519    6.5563  -13.0372 O   0  0  0  0  0  0  0  0  0  0  0  0
   -7.9494    4.2839  -12.5001 N   0  0  0  0  0  0  0  0  0  0  0  0
   -8.1657    4.1804  -11.1267 C   0  0  0  0  0  0  0  0  0  0  0  0
   -8.0282    5.2966  -10.2827 C   0  0  0  0  0  0  0  0  0  0  0  0
   -8.2442    5.1880   -8.9043 C   0  0  0  0  0  0  0  0  0  0  0  0
   -8.6109    3.9561   -8.3987 C   0  0  0  0  0  0  0  0  0  0  0  0
   -8.7373    2.8475   -9.2317 C   0  0  0  0  0  0  0  0  0  0  0  0
   -8.5165    2.9373  -10.5956 C   0  0  0  0  0  0  0  0  0  0  0  0
   -9.0910    1.6589   -8.4007 C   0  0  0  0  0  0  0  0  0  0  0  0
   -9.5847    2.2270   -7.1186 N   0  0  0  0  0  0  0  0  0  0  0  0
   -8.9202    3.5438   -6.9976 C   0  0  0  0  0  0  0  0  0  0  0  0
   -8.2292    4.5305  -15.5303 C   0  0  0  0  0  0  0  0  0  0  0  0
   -8.1058    4.2642  -16.8523 N   0  0  0  0  0  0  0  0  0  0  0  0
   -6.9361    4.5404  -17.4870 C   0  0  0  0  0  0  0  0  0  0  0  0
   -5.8882    5.0820  -16.7533 C   0  0  0  0  0  0  0  0  0  0  0  0
  1  2  1  0
  2  3  1  0
  3  4  1  0
  4  5  1  0
  5  6  2  0
  6  7  1  0
  7  8  2  0
  8  9  1  0
  9 10  2  0
  9 11  1  0
 11 12  1  0
 12 13  2  0
 13 14  1  0
 14 15  2  0
 15 16  1  0
 16 17  2  0
 16 18  1  0
 18 19  1  0
 19 20  1  0
  8 21  1  0
 21 22  2  0
 22 23  1  0
 23 24  2  0
 24  4  1  0
 24  7  1  0
 17 12  1  0
 20 15  1  0
M  END
>  <smiles>  (620) 
C100723-P131

>  <fragmenstein_outcome>  (620) 
acceptable

>  <inchikey>  (620) 
YOIRQGGNVIQWOM-UHFFFAOYSA-N

>  <fragmenstein_mode>  (620) 
expansion

>  <HIPPO Pose ID>  (620) 
17487

>  <Energy>  (620) 
-4.790445

>  <fragmenstein_error>  (620) 


>  <tags>  (620) 
{'openbind_xx01zvns2b_c1_fragmenstein', 'fragmenstein_placed'}

>  <ref_pdb>  (620) 
1

>  <scratch_subdir>  (620) 
/opt/xchem-fragalysis-2/maxwin/BulkDock/SCRATCH/511027/C100723-P131

>  <alias>  (620) 
CCNn1ncc2c(C(=O)Nc3ccc4c(c3)CNC4)cncc21

>  <HIPPO Compound ID>  (620) 
100723

>  <fragmenstein_runtime>  (620) 
3.998392

$$$$
N#CC(=O)Nc1ccc2c(c1)CNC2
     RDKit          3D

 14 15  0  0  0  0  0  0  0  0999 V2000
   -9.1709    4.0206  -16.6965 N   0  0  0  0  0  0  0  0  0  0  0  0
   -8.6745    4.4231  -15.7222 C   0  0  0  0  0  0  0  0  0  0  0  0
   -8.1324    4.9105  -14.4394 C   0  0  0  0  0  0  0  0  0  0  0  0
   -7.5236    5.9084  -14.4310 O   0  0  0  0  0  0  0  0  0  0  0  0
   -8.5286    3.9662  -13.2766 N   0  0  0  0  0  0  0  0  0  0  0  0
   -8.3461    4.0982  -11.8992 C   0  0  0  0  0  0  0  0  0  0  0  0
   -7.8335    5.2603  -11.3082 C   0  0  0  0  0  0  0  0  0  0  0  0
   -7.7773    5.3819   -9.9113 C   0  0  0  0  0  0  0  0  0  0  0  0
   -8.2271    4.3287   -9.1314 C   0  0  0  0  0  0  0  0  0  0  0  0
   -8.7031    3.1659   -9.7141 C   0  0  0  0  0  0  0  0  0  0  0  0
   -8.7660    3.0336  -11.0911 C   0  0  0  0  0  0  0  0  0  0  0  0
   -9.1433    2.2128   -8.6563 C   0  0  0  0  0  0  0  0  0  0  0  0
   -8.8737    2.8755   -7.3574 N   0  0  0  0  0  0  0  0  0  0  0  0
   -8.3354    4.2209   -7.6493 C   0  0  0  0  0  0  0  0  0  0  0  0
  1  2  3  0
  2  3  1  0
  3  4  2  0
  3  5  1  0
  5  6  1  0
  6  7  2  0
  7  8  1  0
  8  9  2  0
  9 10  1  0
 10 11  2  0
 10 12  1  0
 12 13  1  0
 13 14  1  0
 11  6  1  0
 14  9  1  0
M  END
>  <smiles>  (621) 
C18124-P132

>  <fragmenstein_outcome>  (621) 
acceptable

>  <inchikey>  (621) 
GFWSAXIDECSWAE-UHFFFAOYSA-N

>  <fragmenstein_mode>  (621) 
expansion

>  <HIPPO Pose ID>  (621) 
17530

>  <Energy>  (621) 
53.031428

>  <fragmenstein_error>  (621) 


>  <tags>  (621) 
{'openbind_xx01zvns2b_c1_fragmenstein', 'fragmenstein_placed'}

>  <ref_pdb>  (621) 
1

>  <scratch_subdir>  (621) 
/opt/xchem-fragalysis-2/maxwin/BulkDock/SCRATCH/511027/C18124-P132

>  <alias>  (621) 
N#CC(=O)Nc1ccc2c(c1)CNC2

>  <HIPPO Compound ID>  (621) 
18124

>  <fragmenstein_runtime>  (621) 
1.717804

$$$$
O=C(Nc1ccc2c(c1)CNC2)c1cc(F)c2c3c([nH]cc13)C=N2
     RDKit          3D

 24 28  0  0  0  0  0  0  0  0999 V2000
   -7.1339    6.6340  -13.2832 O   0  0  0  0  0  0  0  0  0  0  0  0
   -7.4588    5.5534  -13.5812 C   0  0  0  0  0  0  0  0  0  0  0  0
   -7.9195    4.3697  -12.7046 N   0  0  0  0  0  0  0  0  0  0  0  0
   -8.1592    4.2984  -11.3373 C   0  0  0  0  0  0  0  0  0  0  0  0
   -7.9803    5.4242  -10.5176 C   0  0  0  0  0  0  0  0  0  0  0  0
   -8.1657    5.3391   -9.1364 C   0  0  0  0  0  0  0  0  0  0  0  0
   -8.5332    4.1190   -8.6017 C   0  0  0  0  0  0  0  0  0  0  0  0
   -8.7179    3.0064   -9.4121 C   0  0  0  0  0  0  0  0  0  0  0  0
   -8.5363    3.0740  -10.7837 C   0  0  0  0  0  0  0  0  0  0  0  0
   -9.0900    1.8355   -8.5712 C   0  0  0  0  0  0  0  0  0  0  0  0
   -9.1902    2.3311   -7.1759 N   0  0  0  0  0  0  0  0  0  0  0  0
   -8.7873    3.7528   -7.1811 C   0  0  0  0  0  0  0  0  0  0  0  0
   -7.3497    5.1492  -14.9828 C   0  0  0  0  0  0  0  0  0  0  0  0
   -8.3694    4.4836  -15.7643 C   0  0  0  0  0  0  0  0  0  0  0  0
   -8.2378    4.1224  -17.1811 C   0  0  0  0  0  0  0  0  0  0  0  0
   -9.2895    3.5378  -17.7805 F   0  0  0  0  0  0  0  0  0  0  0  0
   -7.0745    4.3871  -17.8986 C   0  0  0  0  0  0  0  0  0  0  0  0
   -6.2116    5.0202  -17.0794 C   0  0  0  0  0  0  0  0  0  0  0  0
   -5.0864    5.3065  -17.7444 C   0  0  0  0  0  0  0  0  0  0  0  0
   -4.2777    5.9080  -16.8240 N   0  0  0  0  0  0  0  0  0  0  0  0
   -4.9821    5.9769  -15.5911 C   0  0  0  0  0  0  0  0  0  0  0  0
   -6.2277    5.4056  -15.7700 C   0  0  0  0  0  0  0  0  0  0  0  0
   -5.2726    4.8179  -19.0710 C   0  0  0  0  0  0  0  0  0  0  0  0
   -6.4526    4.2359  -19.1590 N   0  0  0  0  0  0  0  0  0  0  0  0
  1  2  2  0
  2  3  1  0
  3  4  1  0
  4  5  2  0
  5  6  1  0
  6  7  2  0
  7  8  1  0
  8  9  2  0
  8 10  1  0
 10 11  1  0
 11 12  1  0
  2 13  1  0
 13 14  2  0
 14 15  1  0
 15 16  1  0
 15 17  2  0
 17 18  1  0
 18 19  2  0
 19 20  1  0
 20 21  1  0
 21 22  2  0
 19 23  1  0
 23 24  2  0
  9  4  1  0
 22 13  1  0
 12  7  1  0
 24 17  1  0
 22 18  1  0
M  END
>  <smiles>  (622) 
C100849-P132

>  <fragmenstein_outcome>  (622) 
acceptable

>  <inchikey>  (622) 
XKXXWRCMXPHEIU-UHFFFAOYSA-N

>  <fragmenstein_mode>  (622) 
expansion

>  <HIPPO Pose ID>  (622) 
17533

>  <Energy>  (622) 
119.979044

>  <fragmenstein_error>  (622) 


>  <tags>  (622) 
{'openbind_xx01zvns2b_c1_fragmenstein', 'fragmenstein_placed'}

>  <ref_pdb>  (622) 
1

>  <scratch_subdir>  (622) 
/opt/xchem-fragalysis-2/maxwin/BulkDock/SCRATCH/511027/C100849-P132

>  <alias>  (622) 
O=C(Nc1ccc2c(c1)CNC2)c1cc(F)c2c3c([nH]cc13)C=N2

>  <HIPPO Compound ID>  (622) 
94514

>  <fragmenstein_runtime>  (622) 
2.824874

$$$$
O=C(Nc1ccc2c(c1)CNC2)c1cc(F)c2c(c1)C1(CCCCC1)CN2
     RDKit          3D

 27 31  0  0  0  0  0  0  0  0999 V2000
   -7.6629    6.6575  -13.4765 O   0  0  0  0  0  0  0  0  0  0  0  0
   -7.8081    5.5322  -13.7519 C   0  0  0  0  0  0  0  0  0  0  0  0
   -8.1601    4.3224  -12.8624 N   0  0  0  0  0  0  0  0  0  0  0  0
   -8.3093    4.2281  -11.4790 C   0  0  0  0  0  0  0  0  0  0  0  0
   -8.1496    5.3684  -10.6695 C   0  0  0  0  0  0  0  0  0  0  0  0
   -8.2904    5.2954   -9.2813 C   0  0  0  0  0  0  0  0  0  0  0  0
   -8.6207    4.0750   -8.7290 C   0  0  0  0  0  0  0  0  0  0  0  0
   -8.7695    2.9411   -9.5247 C   0  0  0  0  0  0  0  0  0  0  0  0
   -8.5998    2.9925  -10.8994 C   0  0  0  0  0  0  0  0  0  0  0  0
   -9.1126    1.7841   -8.6450 C   0  0  0  0  0  0  0  0  0  0  0  0
   -9.5448    2.3907   -7.3617 N   0  0  0  0  0  0  0  0  0  0  0  0
   -8.8828    3.7105   -7.3055 C   0  0  0  0  0  0  0  0  0  0  0  0
   -7.5247    5.1385  -15.1546 C   0  0  0  0  0  0  0  0  0  0  0  0
   -8.4062    4.3981  -15.9453 C   0  0  0  0  0  0  0  0  0  0  0  0
   -8.0931    4.1814  -17.2888 C   0  0  0  0  0  0  0  0  0  0  0  0
   -8.9698    3.5167  -18.0599 F   0  0  0  0  0  0  0  0  0  0  0  0
   -6.9134    4.7030  -17.8242 C   0  0  0  0  0  0  0  0  0  0  0  0
   -6.0459    5.4527  -17.0326 C   0  0  0  0  0  0  0  0  0  0  0  0
   -6.3460    5.6647  -15.6992 C   0  0  0  0  0  0  0  0  0  0  0  0
   -4.8855    5.9777  -17.8488 C   0  0  0  0  0  0  0  0  0  0  0  0
   -3.5425    5.3547  -17.4519 C   0  0  0  0  0  0  0  0  0  0  0  0
   -3.0368    5.7922  -16.0775 C   0  0  0  0  0  0  0  0  0  0  0  0
   -3.2452    7.2750  -15.7922 C   0  0  0  0  0  0  0  0  0  0  0  0
   -3.5709    8.0731  -17.0455 C   0  0  0  0  0  0  0  0  0  0  0  0
   -4.7720    7.5258  -17.8263 C   0  0  0  0  0  0  0  0  0  0  0  0
   -5.3313    5.4870  -19.2649 C   0  0  0  0  0  0  0  0  0  0  0  0
   -6.3967    4.4860  -19.1165 N   0  0  0  0  0  0  0  0  0  0  0  0
  1  2  2  0
  2  3  1  0
  3  4  1  0
  4  5  2  0
  5  6  1  0
  6  7  2  0
  7  8  1  0
  8  9  2  0
  8 10  1  0
 10 11  1  0
 11 12  1  0
  2 13  1  0
 13 14  2  0
 14 15  1  0
 15 16  1  0
 15 17  2  0
 17 18  1  0
 18 19  2  0
 18 20  1  0
 20 21  1  0
 21 22  1  0
 22 23  1  0
 23 24  1  0
 24 25  1  0
 20 26  1  0
 26 27  1  0
  9  4  1  0
 19 13  1  0
 25 20  1  0
 12  7  1  0
 27 17  1  0
M  END
>  <smiles>  (623) 
C26396-P132

>  <fragmenstein_outcome>  (623) 
acceptable

>  <inchikey>  (623) 
NJIXTUXVVAUFHI-UHFFFAOYSA-N

>  <fragmenstein_mode>  (623) 
expansion

>  <HIPPO Pose ID>  (623) 
17535

>  <Energy>  (623) 
93.258028

>  <fragmenstein_error>  (623) 


>  <tags>  (623) 
{'openbind_xx01zvns2b_c1_fragmenstein', 'fragmenstein_placed'}

>  <ref_pdb>  (623) 
1

>  <scratch_subdir>  (623) 
/opt/xchem-fragalysis-2/maxwin/BulkDock/SCRATCH/511027/C26396-P132

>  <alias>  (623) 
O=C(Nc1ccc2c(c1)CNC2)c1cc(F)c2c(c1)C1(CCCCC1)CN2

>  <HIPPO Compound ID>  (623) 
95075

>  <fragmenstein_runtime>  (623) 
5.903878

$$$$
O=C1C=c2cc(C(=O)Nc3ccc4c(c3)CNC4)cc(F)c2=N1
     RDKit          3D

 23 26  0  0  0  0  0  0  0  0999 V2000
   -9.6863    3.9764  -19.8781 O   0  0  0  0  0  0  0  0  0  0  0  0
   -8.9771    4.0640  -18.8980 C   0  0  0  0  0  0  0  0  0  0  0  0
   -9.5011    4.0558  -17.5299 C   0  0  0  0  0  0  0  0  0  0  0  0
   -8.4807    4.3535  -16.7323 C   0  0  0  0  0  0  0  0  0  0  0  0
   -8.3699    4.6218  -15.3373 C   0  0  0  0  0  0  0  0  0  0  0  0
   -7.1767    5.0072  -14.8440 C   0  0  0  0  0  0  0  0  0  0  0  0
   -7.1127    5.4254  -13.4110 C   0  0  0  0  0  0  0  0  0  0  0  0
   -6.7275    6.4829  -13.1006 O   0  0  0  0  0  0  0  0  0  0  0  0
   -7.6660    4.2651  -12.5472 N   0  0  0  0  0  0  0  0  0  0  0  0
   -7.9377    4.2038  -11.1872 C   0  0  0  0  0  0  0  0  0  0  0  0
   -7.7757    5.3272  -10.3612 C   0  0  0  0  0  0  0  0  0  0  0  0
   -8.0827    5.2601   -8.9998 C   0  0  0  0  0  0  0  0  0  0  0  0
   -8.5557    4.0632   -8.4974 C   0  0  0  0  0  0  0  0  0  0  0  0
   -8.7084    2.9485   -9.3169 C   0  0  0  0  0  0  0  0  0  0  0  0
   -8.4040    2.9962  -10.6640 C   0  0  0  0  0  0  0  0  0  0  0  0
   -9.1782    1.8005   -8.4893 C   0  0  0  0  0  0  0  0  0  0  0  0
   -9.6609    2.4057   -7.2264 N   0  0  0  0  0  0  0  0  0  0  0  0
   -8.9519    3.6975   -7.1048 C   0  0  0  0  0  0  0  0  0  0  0  0
   -6.0118    5.1677  -15.7037 C   0  0  0  0  0  0  0  0  0  0  0  0
   -6.0653    4.9136  -17.0181 C   0  0  0  0  0  0  0  0  0  0  0  0
   -5.0062    5.0879  -17.8295 F   0  0  0  0  0  0  0  0  0  0  0  0
   -7.3359    4.4918  -17.6340 C   0  0  0  0  0  0  0  0  0  0  0  0
   -7.6202    4.2547  -18.8623 N   0  0  0  0  0  0  0  0  0  0  0  0
  1  2  2  0
  2  3  1  0
  3  4  2  0
  4  5  1  0
  5  6  2  0
  6  7  1  0
  7  8  2  0
  7  9  1  0
  9 10  1  0
 10 11  2  0
 11 12  1  0
 12 13  2  0
 13 14  1  0
 14 15  2  0
 14 16  1  0
 16 17  1  0
 17 18  1  0
  6 19  1  0
 19 20  2  0
 20 21  1  0
 20 22  1  0
 22 23  2  0
 23  2  1  0
 22  4  1  0
 15 10  1  0
 18 13  1  0
M  END
>  <smiles>  (624) 
C100832-P132

>  <fragmenstein_outcome>  (624) 
acceptable

>  <inchikey>  (624) 
RWJCQGISTWVBSW-UHFFFAOYSA-N

>  <fragmenstein_mode>  (624) 
expansion

>  <HIPPO Pose ID>  (624) 
17538

>  <Energy>  (624) 
36.687451

>  <fragmenstein_error>  (624) 


>  <tags>  (624) 
{'openbind_xx01zvns2b_c1_fragmenstein', 'fragmenstein_placed'}

>  <ref_pdb>  (624) 
1

>  <scratch_subdir>  (624) 
/opt/xchem-fragalysis-2/maxwin/BulkDock/SCRATCH/511027/C100832-P132

>  <alias>  (624) 
O=C1C=c2cc(C(=O)Nc3ccc4c(c3)CNC4)cc(F)c2=N1

>  <HIPPO Compound ID>  (624) 
84645

>  <fragmenstein_runtime>  (624) 
2.946658

$$$$
O=C(NCC(F)F)[C@](O)(Nc1ccc2c(c1)CNC2)c1cc(F)c2c3c(cccc13)C=N2
     RDKit          3D

 32 36  0  0  0  0  0  0  0  0999 V2000
   -6.7696    7.7154  -13.3000 O   0  0  0  0  0  0  0  0  0  0  0  0
   -6.6960    6.5580  -13.1317 C   0  0  0  0  0  0  0  0  0  0  0  0
   -5.6041    5.7091  -12.4058 N   0  0  0  0  0  0  0  0  0  0  0  0
   -4.3388    6.1046  -11.8258 C   0  0  0  0  0  0  0  0  0  0  0  0
   -4.4014    7.3667  -10.9688 C   0  0  0  0  0  0  0  0  0  0  0  0
   -5.0915    7.1244   -9.8249 F   0  0  0  0  0  0  0  0  0  0  0  0
   -3.1413    7.7103  -10.5901 F   0  0  0  0  0  0  0  0  0  0  0  0
   -7.8116    5.5273  -13.6668 C   0  0  2  0  0  0  0  0  0  0  0  0
   -9.1096    6.1057  -13.6307 O   0  0  0  0  0  0  0  0  0  0  0  0
   -7.8631    4.3128  -12.8323 N   0  0  0  0  0  0  0  0  0  0  0  0
   -8.1958    4.2862  -11.4671 C   0  0  0  0  0  0  0  0  0  0  0  0
   -8.0909    5.3958  -10.5976 C   0  0  0  0  0  0  0  0  0  0  0  0
   -8.3010    5.2935   -9.2166 C   0  0  0  0  0  0  0  0  0  0  0  0
   -8.6426    4.0654   -8.7010 C   0  0  0  0  0  0  0  0  0  0  0  0
   -8.7447    2.9542   -9.5267 C   0  0  0  0  0  0  0  0  0  0  0  0
   -8.4983    3.0406  -10.8901 C   0  0  0  0  0  0  0  0  0  0  0  0
   -9.1046    1.7709   -8.6893 C   0  0  0  0  0  0  0  0  0  0  0  0
   -9.5770    2.3381   -7.4017 N   0  0  0  0  0  0  0  0  0  0  0  0
   -8.9339    3.6628   -7.2943 C   0  0  0  0  0  0  0  0  0  0  0  0
   -7.5714    5.1176  -15.1448 C   0  0  0  0  0  0  0  0  0  0  0  0
   -8.6437    4.4126  -15.7883 C   0  0  0  0  0  0  0  0  0  0  0  0
   -8.5886    3.9720  -17.1133 C   0  0  0  0  0  0  0  0  0  0  0  0
   -9.6420    3.3470  -17.6580 F   0  0  0  0  0  0  0  0  0  0  0  0
   -7.4464    4.2023  -17.8336 C   0  0  0  0  0  0  0  0  0  0  0  0
   -6.4298    4.8983  -17.2414 C   0  0  0  0  0  0  0  0  0  0  0  0
   -5.4454    5.0294  -18.1794 C   0  0  0  0  0  0  0  0  0  0  0  0
   -4.2539    5.6587  -17.9142 C   0  0  0  0  0  0  0  0  0  0  0  0
   -4.1064    6.1794  -16.6321 C   0  0  0  0  0  0  0  0  0  0  0  0
   -5.1453    6.0584  -15.6728 C   0  0  0  0  0  0  0  0  0  0  0  0
   -6.3849    5.3863  -15.9311 C   0  0  0  0  0  0  0  0  0  0  0  0
   -5.9611    4.3543  -19.3622 C   0  0  0  0  0  0  0  0  0  0  0  0
   -7.1296    3.8195  -19.1506 N   0  0  0  0  0  0  0  0  0  0  0  0
  1  2  2  0
  2  3  1  0
  3  4  1  0
  4  5  1  0
  5  6  1  0
  5  7  1  0
  2  8  1  0
  8  9  1  6
  8 10  1  0
 10 11  1  0
 11 12  2  0
 12 13  1  0
 13 14  2  0
 14 15  1  0
 15 16  2  0
 15 17  1  0
 17 18  1  0
 18 19  1  0
  8 20  1  0
 20 21  2  0
 21 22  1  0
 22 23  1  0
 22 24  2  0
 24 25  1  0
 25 26  2  0
 26 27  1  0
 27 28  2  0
 28 29  1  0
 29 30  2  0
 26 31  1  0
 31 32  2  0
 16 11  1  0
 30 20  1  0
 19 14  1  0
 32 24  1  0
 30 25  1  0
M  END
>  <smiles>  (625) 
C100865-P132

>  <fragmenstein_outcome>  (625) 
acceptable

>  <inchikey>  (625) 
OYRDJDXMGMJLBH-UHFFFAOYSA-N

>  <fragmenstein_mode>  (625) 
expansion

>  <HIPPO Pose ID>  (625) 
17544

>  <Energy>  (625) 
173.789603

>  <fragmenstein_error>  (625) 


>  <tags>  (625) 
{'openbind_xx01zvns2b_c1_fragmenstein', 'fragmenstein_placed'}

>  <ref_pdb>  (625) 
1

>  <scratch_subdir>  (625) 
/opt/xchem-fragalysis-2/maxwin/BulkDock/SCRATCH/511027/C100865-P132

>  <alias>  (625) 
O=C(NCC(F)F)[C@](O)(Nc1ccc2c(c1)CNC2)c1cc(F)c2c3c(cccc13)C=N2

>  <HIPPO Compound ID>  (625) 
77723

>  <fragmenstein_runtime>  (625) 
4.258375

$$$$
Nc1cc2cc(C(=O)Nc3ccc4c(c3)CNC4)cc(F)c2[nH]1
     RDKit          3D

 23 26  0  0  0  0  0  0  0  0999 V2000
   -4.1202    5.0868  -20.2107 N   0  0  0  0  0  0  0  0  0  0  0  0
   -4.8905    5.0393  -19.1070 C   0  0  0  0  0  0  0  0  0  0  0  0
   -4.5882    5.3392  -17.8075 C   0  0  0  0  0  0  0  0  0  0  0  0
   -5.7583    5.1244  -17.0352 C   0  0  0  0  0  0  0  0  0  0  0  0
   -6.0551    5.3171  -15.6808 C   0  0  0  0  0  0  0  0  0  0  0  0
   -7.3412    5.0172  -15.2147 C   0  0  0  0  0  0  0  0  0  0  0  0
   -7.6438    5.4561  -13.8360 C   0  0  0  0  0  0  0  0  0  0  0  0
   -7.5098    6.5884  -13.5878 O   0  0  0  0  0  0  0  0  0  0  0  0
   -8.0114    4.2704  -12.9239 N   0  0  0  0  0  0  0  0  0  0  0  0
   -8.1929    4.2124  -11.5434 C   0  0  0  0  0  0  0  0  0  0  0  0
   -8.0801    5.3744  -10.7582 C   0  0  0  0  0  0  0  0  0  0  0  0
   -8.2503    5.3270   -9.3720 C   0  0  0  0  0  0  0  0  0  0  0  0
   -8.5665    4.1112   -8.8003 C   0  0  0  0  0  0  0  0  0  0  0  0
   -8.6814    2.9592   -9.5745 C   0  0  0  0  0  0  0  0  0  0  0  0
   -8.4752    2.9845  -10.9439 C   0  0  0  0  0  0  0  0  0  0  0  0
   -9.0453    1.8166   -8.6837 C   0  0  0  0  0  0  0  0  0  0  0  0
   -9.5013    2.4442   -7.4173 N   0  0  0  0  0  0  0  0  0  0  0  0
   -8.8432    3.7670   -7.3746 C   0  0  0  0  0  0  0  0  0  0  0  0
   -8.3157    4.4813  -16.0546 C   0  0  0  0  0  0  0  0  0  0  0  0
   -8.0323    4.3010  -17.4115 C   0  0  0  0  0  0  0  0  0  0  0  0
   -8.9948    3.8527  -18.2320 F   0  0  0  0  0  0  0  0  0  0  0  0
   -6.7578    4.6498  -17.8846 C   0  0  0  0  0  0  0  0  0  0  0  0
   -6.2136    4.6644  -19.1525 N   0  0  0  0  0  0  0  0  0  0  0  0
  1  2  1  0
  2  3  2  0
  3  4  1  0
  4  5  2  0
  5  6  1  0
  6  7  1  0
  7  8  2  0
  7  9  1  0
  9 10  1  0
 10 11  2  0
 11 12  1  0
 12 13  2  0
 13 14  1  0
 14 15  2  0
 14 16  1  0
 16 17  1  0
 17 18  1  0
  6 19  2  0
 19 20  1  0
 20 21  1  0
 20 22  2  0
 22 23  1  0
 23  2  1  0
 22  4  1  0
 15 10  1  0
 18 13  1  0
M  END
>  <smiles>  (626) 
C100746-P132

>  <fragmenstein_outcome>  (626) 
acceptable

>  <inchikey>  (626) 
PPCKUASGHFEABB-UHFFFAOYSA-N

>  <fragmenstein_mode>  (626) 
expansion

>  <HIPPO Pose ID>  (626) 
17547

>  <Energy>  (626) 
30.626412

>  <fragmenstein_error>  (626) 


>  <tags>  (626) 
{'openbind_xx01zvns2b_c1_fragmenstein', 'fragmenstein_placed'}

>  <ref_pdb>  (626) 
1

>  <scratch_subdir>  (626) 
/opt/xchem-fragalysis-2/maxwin/BulkDock/SCRATCH/511027/C100746-P132

>  <alias>  (626) 
Nc1cc2cc(C(=O)Nc3ccc4c(c3)CNC4)cc(F)c2[nH]1

>  <HIPPO Compound ID>  (626) 
100746

>  <fragmenstein_runtime>  (626) 
3.817791

$$$$
O=C(Nc1ccc2c(c1)CNC2)c1cc(F)c2[nH]cc3c2c1N=N3
     RDKit          3D

 24 28  0  0  0  0  0  0  0  0999 V2000
   -7.2967    6.5685  -13.3894 O   0  0  0  0  0  0  0  0  0  0  0  0
   -7.5390    5.4596  -13.6588 C   0  0  0  0  0  0  0  0  0  0  0  0
   -8.0263    4.2985  -12.7694 N   0  0  0  0  0  0  0  0  0  0  0  0
   -8.2205    4.2342  -11.3929 C   0  0  0  0  0  0  0  0  0  0  0  0
   -8.0407    5.3755  -10.5931 C   0  0  0  0  0  0  0  0  0  0  0  0
   -8.1955    5.3111   -9.2070 C   0  0  0  0  0  0  0  0  0  0  0  0
   -8.5404    4.0967   -8.6466 C   0  0  0  0  0  0  0  0  0  0  0  0
   -8.7250    2.9687   -9.4358 C   0  0  0  0  0  0  0  0  0  0  0  0
   -8.5655    3.0142  -10.8115 C   0  0  0  0  0  0  0  0  0  0  0  0
   -9.0754    1.8096   -8.5694 C   0  0  0  0  0  0  0  0  0  0  0  0
   -9.1857    2.3344   -7.1858 N   0  0  0  0  0  0  0  0  0  0  0  0
   -8.7709    3.7523   -7.2165 C   0  0  0  0  0  0  0  0  0  0  0  0
   -7.3210    5.0254  -15.0447 C   0  0  0  0  0  0  0  0  0  0  0  0
   -8.3686    4.4864  -15.8494 C   0  0  0  0  0  0  0  0  0  0  0  0
   -8.2197    4.2800  -17.2539 C   0  0  0  0  0  0  0  0  0  0  0  0
   -9.2445    3.8398  -17.9940 F   0  0  0  0  0  0  0  0  0  0  0  0
   -6.9902    4.6354  -17.7998 C   0  0  0  0  0  0  0  0  0  0  0  0
   -6.3536    4.7473  -19.0229 N   0  0  0  0  0  0  0  0  0  0  0  0
   -5.0374    5.2694  -18.8494 C   0  0  0  0  0  0  0  0  0  0  0  0
   -4.8898    5.4596  -17.5146 C   0  0  0  0  0  0  0  0  0  0  0  0
   -6.0390    5.0758  -16.9426 C   0  0  0  0  0  0  0  0  0  0  0  0
   -6.1023    5.3006  -15.6202 C   0  0  0  0  0  0  0  0  0  0  0  0
   -4.8205    5.8631  -15.3320 N   0  0  0  0  0  0  0  0  0  0  0  0
   -4.1086    5.9469  -16.4501 N   0  0  0  0  0  0  0  0  0  0  0  0
  1  2  2  0
  2  3  1  0
  3  4  1  0
  4  5  2  0
  5  6  1  0
  6  7  2  0
  7  8  1  0
  8  9  2  0
  8 10  1  0
 10 11  1  0
 11 12  1  0
  2 13  1  0
 13 14  2  0
 14 15  1  0
 15 16  1  0
 15 17  2  0
 17 18  1  0
 18 19  1  0
 19 20  2  0
 20 21  1  0
 21 22  2  0
 22 23  1  0
 23 24  2  0
  9  4  1  0
 22 13  1  0
 12  7  1  0
 21 17  1  0
 24 20  1  0
M  END
>  <smiles>  (627) 
C100887-P132

>  <fragmenstein_outcome>  (627) 
acceptable

>  <inchikey>  (627) 
GKXBNXXEOHHHSW-UHFFFAOYSA-N

>  <fragmenstein_mode>  (627) 
expansion

>  <HIPPO Pose ID>  (627) 
17552

>  <Energy>  (627) 
100.678346

>  <fragmenstein_error>  (627) 


>  <tags>  (627) 
{'openbind_xx01zvns2b_c1_fragmenstein', 'fragmenstein_placed'}

>  <ref_pdb>  (627) 
1

>  <scratch_subdir>  (627) 
/opt/xchem-fragalysis-2/maxwin/BulkDock/SCRATCH/511027/C100887-P132

>  <alias>  (627) 
O=C(Nc1ccc2c(c1)CNC2)c1cc(F)c2[nH]cc3c2c1N=N3

>  <HIPPO Compound ID>  (627) 
104264

>  <fragmenstein_runtime>  (627) 
4.004537

$$$$
COn1cc2c(n1)C[C@@H](Cl)C[C@]2(O)[C@H](Nc1ccc2c(c1)CNC2)C(=O)NCc1cccnc1
     RDKit          3D

 34 38  0  0  0  0  0  0  0  0999 V2000
   -2.5348    5.5480  -17.9951 C   0  0  0  0  0  0  0  0  0  0  0  0
   -3.2201    6.3647  -17.0537 O   0  0  0  0  0  0  0  0  0  0  0  0
   -4.4808    5.8317  -16.8183 N   0  0  0  0  0  0  0  0  0  0  0  0
   -5.0292    5.6124  -15.5884 C   0  0  0  0  0  0  0  0  0  0  0  0
   -6.3298    5.2128  -15.8209 C   0  0  0  0  0  0  0  0  0  0  0  0
   -6.4281    5.1987  -17.2345 C   0  0  0  0  0  0  0  0  0  0  0  0
   -5.3215    5.6413  -17.8360 N   0  0  0  0  0  0  0  0  0  0  0  0
   -7.6232    4.8143  -18.0167 C   0  0  0  0  0  0  0  0  0  0  0  0
   -8.8366    4.4626  -17.1441 C   0  0  1  0  0  0  0  0  0  0  0  0
   -9.1924    2.7240  -17.3185 Cl  0  0  0  0  0  0  0  0  0  0  0  0
   -8.8063    4.9433  -15.6557 C   0  0  0  0  0  0  0  0  0  0  0  0
   -7.4574    4.8244  -14.9227 C   0  0  1  0  0  0  0  0  0  0  0  0
   -7.4200    3.4216  -14.6998 O   0  0  0  0  0  0  0  0  0  0  0  0
   -7.4370    5.4165  -13.4692 C   0  0  2  0  0  0  0  0  0  0  0  0
   -8.4814    4.6896  -12.6597 N   0  0  0  0  0  0  0  0  0  0  0  0
   -8.2392    4.4113  -11.2957 C   0  0  0  0  0  0  0  0  0  0  0  0
   -7.7457    5.3817  -10.3994 C   0  0  0  0  0  0  0  0  0  0  0  0
   -7.8566    5.2267   -9.0134 C   0  0  0  0  0  0  0  0  0  0  0  0
   -8.4250    4.0676   -8.5330 C   0  0  0  0  0  0  0  0  0  0  0  0
   -8.7863    3.0428   -9.3963 C   0  0  0  0  0  0  0  0  0  0  0  0
   -8.7263    3.2049  -10.7694 C   0  0  0  0  0  0  0  0  0  0  0  0
   -9.2313    1.8735   -8.5867 C   0  0  0  0  0  0  0  0  0  0  0  0
   -9.5818    2.4383   -7.2619 N   0  0  0  0  0  0  0  0  0  0  0  0
   -8.7877    3.6819   -7.1373 C   0  0  0  0  0  0  0  0  0  0  0  0
   -7.5103    6.9728  -13.3598 C   0  0  0  0  0  0  0  0  0  0  0  0
   -6.6623    7.6588  -13.7787 O   0  0  0  0  0  0  0  0  0  0  0  0
   -8.7837    7.3304  -12.5511 N   0  0  0  0  0  0  0  0  0  0  0  0
   -9.2249    8.5892  -12.0112 C   0  0  0  0  0  0  0  0  0  0  0  0
   -9.6647    9.5983  -13.0181 C   0  0  0  0  0  0  0  0  0  0  0  0
  -10.9735    9.6299  -13.4982 C   0  0  0  0  0  0  0  0  0  0  0  0
  -11.3486   10.6176  -14.4020 C   0  0  0  0  0  0  0  0  0  0  0  0
  -10.4029   11.5425  -14.8053 C   0  0  0  0  0  0  0  0  0  0  0  0
   -9.1230   11.5387  -14.3790 N   0  0  0  0  0  0  0  0  0  0  0  0
   -8.7851   10.5670  -13.4966 C   0  0  0  0  0  0  0  0  0  0  0  0
  1  2  1  0
  2  3  1  0
  3  4  1  0
  4  5  2  0
  5  6  1  0
  6  7  2  0
  6  8  1  0
  8  9  1  0
  9 10  1  1
  9 11  1  0
 11 12  1  0
 12 13  1  1
 12 14  1  0
 14 15  1  1
 15 16  1  0
 16 17  2  0
 17 18  1  0
 18 19  2  0
 19 20  1  0
 20 21  2  0
 20 22  1  0
 22 23  1  0
 23 24  1  0
 14 25  1  0
 25 26  2  0
 25 27  1  0
 27 28  1  0
 28 29  1  0
 29 30  2  0
 30 31  1  0
 31 32  2  0
 32 33  1  0
 33 34  2  0
  7  3  1  0
 21 16  1  0
 34 29  1  0
 12  5  1  0
 24 19  1  0
M  END
>  <smiles>  (628) 
C100976-P132

>  <fragmenstein_outcome>  (628) 
acceptable

>  <inchikey>  (628) 
XPJWODOGSLKVHV-UHFFFAOYSA-N

>  <fragmenstein_mode>  (628) 
expansion

>  <HIPPO Pose ID>  (628) 
17583

>  <Energy>  (628) 
100.867712

>  <fragmenstein_error>  (628) 


>  <tags>  (628) 
{'openbind_xx01zvns2b_c1_fragmenstein', 'fragmenstein_placed'}

>  <ref_pdb>  (628) 
1

>  <scratch_subdir>  (628) 
/opt/xchem-fragalysis-2/maxwin/BulkDock/SCRATCH/511027/C100976-P132

>  <alias>  (628) 
COn1cc2c(n1)C[C@@H](Cl)C[C@]2(O)[C@H](Nc1ccc2c(c1)CNC2)C(=O)NCc1cccnc1

>  <HIPPO Compound ID>  (628) 
77746

>  <fragmenstein_runtime>  (628) 
6.962895

$$$$
CNn1cc2c(n1)C[C@@H](Cl)C[C@]2(O)[C@H](Nc1ccc2c(c1)CNC2)C(=O)NCc1cccnc1
     RDKit          3D

 34 38  0  0  0  0  0  0  0  0999 V2000
   -2.7634    7.0645  -16.9165 C   0  0  0  0  0  0  0  0  0  0  0  0
   -3.0769    5.6429  -16.8790 N   0  0  0  0  0  0  0  0  0  0  0  0
   -4.4587    5.4594  -16.7390 N   0  0  0  0  0  0  0  0  0  0  0  0
   -5.0971    5.2865  -15.5436 C   0  0  0  0  0  0  0  0  0  0  0  0
   -6.4181    5.0271  -15.8357 C   0  0  0  0  0  0  0  0  0  0  0  0
   -6.4535    5.0433  -17.2456 C   0  0  0  0  0  0  0  0  0  0  0  0
   -5.2710    5.3410  -17.7905 N   0  0  0  0  0  0  0  0  0  0  0  0
   -7.6510    4.7969  -18.0769 C   0  0  0  0  0  0  0  0  0  0  0  0
   -8.8987    4.4312  -17.2554 C   0  0  1  0  0  0  0  0  0  0  0  0
   -9.2656    2.6975  -17.5041 Cl  0  0  0  0  0  0  0  0  0  0  0  0
   -8.9069    4.8654  -15.7492 C   0  0  0  0  0  0  0  0  0  0  0  0
   -7.5912    4.7084  -14.9743 C   0  0  1  0  0  0  0  0  0  0  0  0
   -7.6211    3.3093  -14.7128 O   0  0  0  0  0  0  0  0  0  0  0  0
   -7.5594    5.3351  -13.5365 C   0  0  2  0  0  0  0  0  0  0  0  0
   -8.6019    4.6550  -12.6828 N   0  0  0  0  0  0  0  0  0  0  0  0
   -8.2893    4.4214  -11.3183 C   0  0  0  0  0  0  0  0  0  0  0  0
   -7.6506    5.3887  -10.5125 C   0  0  0  0  0  0  0  0  0  0  0  0
   -7.6443    5.3046   -9.1183 C   0  0  0  0  0  0  0  0  0  0  0  0
   -8.2514    4.2181   -8.5320 C   0  0  0  0  0  0  0  0  0  0  0  0
   -8.8027    3.2082   -9.3042 C   0  0  0  0  0  0  0  0  0  0  0  0
   -8.8433    3.2984  -10.6880 C   0  0  0  0  0  0  0  0  0  0  0  0
   -9.3959    2.1778   -8.4073 C   0  0  0  0  0  0  0  0  0  0  0  0
   -9.0366    2.5682   -7.0209 N   0  0  0  0  0  0  0  0  0  0  0  0
   -8.5105    3.9469   -7.0917 C   0  0  0  0  0  0  0  0  0  0  0  0
   -7.5800    6.8965  -13.4467 C   0  0  0  0  0  0  0  0  0  0  0  0
   -6.7283    7.5518  -13.9065 O   0  0  0  0  0  0  0  0  0  0  0  0
   -8.8120    7.3024  -12.5944 N   0  0  0  0  0  0  0  0  0  0  0  0
   -9.1952    8.5814  -12.0547 C   0  0  0  0  0  0  0  0  0  0  0  0
   -9.6430    9.5976  -13.0513 C   0  0  0  0  0  0  0  0  0  0  0  0
  -10.9524    9.6283  -13.5304 C   0  0  0  0  0  0  0  0  0  0  0  0
  -11.3339   10.6268  -14.4204 C   0  0  0  0  0  0  0  0  0  0  0  0
  -10.3942   11.5627  -14.8124 C   0  0  0  0  0  0  0  0  0  0  0  0
   -9.1132   11.5588  -14.3880 N   0  0  0  0  0  0  0  0  0  0  0  0
   -8.7701   10.5789  -13.5167 C   0  0  0  0  0  0  0  0  0  0  0  0
  1  2  1  0
  2  3  1  0
  3  4  1  0
  4  5  2  0
  5  6  1  0
  6  7  2  0
  6  8  1  0
  8  9  1  0
  9 10  1  1
  9 11  1  0
 11 12  1  0
 12 13  1  1
 12 14  1  0
 14 15  1  1
 15 16  1  0
 16 17  2  0
 17 18  1  0
 18 19  2  0
 19 20  1  0
 20 21  2  0
 20 22  1  0
 22 23  1  0
 23 24  1  0
 14 25  1  0
 25 26  2  0
 25 27  1  0
 27 28  1  0
 28 29  1  0
 29 30  2  0
 30 31  1  0
 31 32  2  0
 32 33  1  0
 33 34  2  0
  7  3  1  0
 21 16  1  0
 34 29  1  0
 12  5  1  0
 24 19  1  0
M  END
>  <smiles>  (629) 
C100989-P132

>  <fragmenstein_outcome>  (629) 
acceptable

>  <inchikey>  (629) 
PUMSPRFOVOXOMC-UHFFFAOYSA-N

>  <fragmenstein_mode>  (629) 
expansion

>  <HIPPO Pose ID>  (629) 
17584

>  <Energy>  (629) 
64.013791

>  <fragmenstein_error>  (629) 


>  <tags>  (629) 
{'openbind_xx01zvns2b_c1_fragmenstein', 'fragmenstein_placed'}

>  <ref_pdb>  (629) 
1

>  <scratch_subdir>  (629) 
/opt/xchem-fragalysis-2/maxwin/BulkDock/SCRATCH/511027/C100989-P132

>  <alias>  (629) 
CNn1cc2c(n1)C[C@@H](Cl)C[C@]2(O)[C@H](Nc1ccc2c(c1)CNC2)C(=O)NCc1cccnc1

>  <HIPPO Compound ID>  (629) 
106134

>  <fragmenstein_runtime>  (629) 
5.171253

$$$$
CCc1cc([C@](O)(Nc2ccc3c(c2)CNC3)C(=O)NCc2cccnc2)c2cnn(C)c2c1
     RDKit          3D

 34 38  0  0  0  0  0  0  0  0999 V2000
  -10.1691    4.8974  -19.0641 C   0  0  0  0  0  0  0  0  0  0  0  0
   -9.8127    4.0036  -17.9137 C   0  0  0  0  0  0  0  0  0  0  0  0
   -8.4976    4.3919  -17.3141 C   0  0  0  0  0  0  0  0  0  0  0  0
   -8.3886    4.5328  -15.9277 C   0  0  0  0  0  0  0  0  0  0  0  0
   -7.1721    4.8646  -15.2939 C   0  0  0  0  0  0  0  0  0  0  0  0
   -7.0751    5.0303  -13.7769 C   0  0  2  0  0  0  0  0  0  0  0  0
   -5.9845    4.2149  -13.3665 O   0  0  0  0  0  0  0  0  0  0  0  0
   -8.2723    4.5253  -13.0769 N   0  0  0  0  0  0  0  0  0  0  0  0
   -8.3333    4.5088  -11.6739 C   0  0  0  0  0  0  0  0  0  0  0  0
   -8.2042    5.6699  -10.8905 C   0  0  0  0  0  0  0  0  0  0  0  0
   -8.2049    5.6191   -9.4890 C   0  0  0  0  0  0  0  0  0  0  0  0
   -8.3608    4.3922   -8.8729 C   0  0  0  0  0  0  0  0  0  0  0  0
   -8.5265    3.2442   -9.6270 C   0  0  0  0  0  0  0  0  0  0  0  0
   -8.5139    3.2838  -11.0140 C   0  0  0  0  0  0  0  0  0  0  0  0
   -8.6925    2.0713   -8.7233 C   0  0  0  0  0  0  0  0  0  0  0  0
   -8.6673    2.5955   -7.3353 N   0  0  0  0  0  0  0  0  0  0  0  0
   -8.4137    4.0459   -7.4228 C   0  0  0  0  0  0  0  0  0  0  0  0
   -6.8174    6.5955  -13.4748 C   0  0  0  0  0  0  0  0  0  0  0  0
   -7.5304    7.4585  -13.8188 O   0  0  0  0  0  0  0  0  0  0  0  0
   -5.4693    6.6506  -12.6909 N   0  0  0  0  0  0  0  0  0  0  0  0
   -4.7838    7.7598  -12.0965 C   0  0  0  0  0  0  0  0  0  0  0  0
   -3.4967    8.0457  -12.8069 C   0  0  0  0  0  0  0  0  0  0  0  0
   -3.4719    8.3993  -14.1597 C   0  0  0  0  0  0  0  0  0  0  0  0
   -2.2555    8.6375  -14.7911 C   0  0  0  0  0  0  0  0  0  0  0  0
   -1.0971    8.5310  -14.0410 C   0  0  0  0  0  0  0  0  0  0  0  0
   -1.0780    8.2105  -12.7291 N   0  0  0  0  0  0  0  0  0  0  0  0
   -2.2752    7.9724  -12.1458 C   0  0  0  0  0  0  0  0  0  0  0  0
   -6.0639    5.0870  -16.1563 C   0  0  0  0  0  0  0  0  0  0  0  0
   -4.6935    5.4078  -15.9908 C   0  0  0  0  0  0  0  0  0  0  0  0
   -4.0407    5.5691  -17.1454 N   0  0  0  0  0  0  0  0  0  0  0  0
   -4.9951    5.3369  -18.0657 N   0  0  0  0  0  0  0  0  0  0  0  0
   -4.6866    5.4949  -19.4640 C   0  0  0  0  0  0  0  0  0  0  0  0
   -6.2092    4.9949  -17.5351 C   0  0  0  0  0  0  0  0  0  0  0  0
   -7.3996    4.6237  -18.1453 C   0  0  0  0  0  0  0  0  0  0  0  0
  1  2  1  0
  2  3  1  0
  3  4  2  0
  4  5  1  0
  5  6  1  0
  6  7  1  1
  6  8  1  0
  8  9  1  0
  9 10  2  0
 10 11  1  0
 11 12  2  0
 12 13  1  0
 13 14  2  0
 13 15  1  0
 15 16  1  0
 16 17  1  0
  6 18  1  0
 18 19  2  0
 18 20  1  0
 20 21  1  0
 21 22  1  0
 22 23  2  0
 23 24  1  0
 24 25  2  0
 25 26  1  0
 26 27  2  0
  5 28  2  0
 28 29  1  0
 29 30  2  0
 30 31  1  0
 31 32  1  0
 31 33  1  0
 33 34  2  0
 34  3  1  0
 14  9  1  0
 27 22  1  0
 33 28  1  0
 17 12  1  0
M  END
>  <smiles>  (630) 
C101052-P1

>  <fragmenstein_outcome>  (630) 
acceptable

>  <inchikey>  (630) 
FHEBFUATGCWMRC-UHFFFAOYSA-N

>  <fragmenstein_mode>  (630) 
expansion

>  <HIPPO Pose ID>  (630) 
17603

>  <Energy>  (630) 
118.291653

>  <fragmenstein_error>  (630) 


>  <tags>  (630) 
{'openbind_xx01zvns2b_c1_fragmenstein', 'fragmenstein_placed'}

>  <ref_pdb>  (630) 
1

>  <scratch_subdir>  (630) 
/opt/xchem-fragalysis-2/maxwin/BulkDock/SCRATCH/511027/C101052-P1

>  <alias>  (630) 
CCc1cc([C@](O)(Nc2ccc3c(c2)CNC3)C(=O)NCc2cccnc2)c2cnn(C)c2c1

>  <HIPPO Compound ID>  (630) 
71518

>  <fragmenstein_runtime>  (630) 
7.654148

$$$$
O=C(N[C@H](CF)c1cccnc1)[C@H](Nc1ccc2c(c1)CNC2)c1cc(Cl)cc2n[nH]cc12
     RDKit          3D

 33 37  0  0  0  0  0  0  0  0999 V2000
   -6.0956    7.1844  -13.4881 O   0  0  0  0  0  0  0  0  0  0  0  0
   -7.2455    6.9775  -13.4049 C   0  0  0  0  0  0  0  0  0  0  0  0
   -8.3946    7.8630  -12.8133 N   0  0  0  0  0  0  0  0  0  0  0  0
   -8.3399    9.1374  -12.1209 C   0  0  2  0  0  0  0  0  0  0  0  0
   -9.4540    9.2243  -11.0646 C   0  0  0  0  0  0  0  0  0  0  0  0
  -10.6598    8.9950  -11.6624 F   0  0  0  0  0  0  0  0  0  0  0  0
   -8.2975   10.2898  -13.0998 C   0  0  0  0  0  0  0  0  0  0  0  0
   -9.4074   11.0780  -13.4265 C   0  0  0  0  0  0  0  0  0  0  0  0
   -9.2712   12.1475  -14.3092 C   0  0  0  0  0  0  0  0  0  0  0  0
   -8.0255   12.3920  -14.8579 C   0  0  0  0  0  0  0  0  0  0  0  0
   -6.9361   11.6425  -14.5974 N   0  0  0  0  0  0  0  0  0  0  0  0
   -7.0954   10.6136  -13.7306 C   0  0  0  0  0  0  0  0  0  0  0  0
   -7.9037    5.5943  -13.8227 C   0  0  2  0  0  0  0  0  0  0  0  0
   -7.5589    4.4471  -12.9540 N   0  0  0  0  0  0  0  0  0  0  0  0
   -7.8916    4.4394  -11.5872 C   0  0  0  0  0  0  0  0  0  0  0  0
   -7.6416    5.5211  -10.7196 C   0  0  0  0  0  0  0  0  0  0  0  0
   -7.8923    5.4623   -9.3395 C   0  0  0  0  0  0  0  0  0  0  0  0
   -8.3470    4.2764   -8.8090 C   0  0  0  0  0  0  0  0  0  0  0  0
   -8.5491    3.1764   -9.6283 C   0  0  0  0  0  0  0  0  0  0  0  0
   -8.3314    3.2407  -11.0013 C   0  0  0  0  0  0  0  0  0  0  0  0
   -8.9108    2.0082   -8.7702 C   0  0  0  0  0  0  0  0  0  0  0  0
   -9.3011    2.5833   -7.4570 N   0  0  0  0  0  0  0  0  0  0  0  0
   -8.5985    3.8823   -7.3893 C   0  0  0  0  0  0  0  0  0  0  0  0
   -7.6514    5.2154  -15.2784 C   0  0  0  0  0  0  0  0  0  0  0  0
   -8.7420    4.7578  -16.0642 C   0  0  0  0  0  0  0  0  0  0  0  0
   -8.7081    4.4872  -17.4642 C   0  0  0  0  0  0  0  0  0  0  0  0
  -10.2079    4.1194  -18.2095 Cl  0  0  0  0  0  0  0  0  0  0  0  0
   -7.5590    4.5801  -18.2545 C   0  0  0  0  0  0  0  0  0  0  0  0
   -6.4259    4.9295  -17.5130 C   0  0  0  0  0  0  0  0  0  0  0  0
   -5.1572    5.0785  -17.9326 N   0  0  0  0  0  0  0  0  0  0  0  0
   -4.4653    5.3770  -16.8244 N   0  0  0  0  0  0  0  0  0  0  0  0
   -5.2175    5.4523  -15.6906 C   0  0  0  0  0  0  0  0  0  0  0  0
   -6.5040    5.2136  -16.0848 C   0  0  0  0  0  0  0  0  0  0  0  0
  1  2  2  0
  2  3  1  0
  3  4  1  0
  4  5  1  1
  5  6  1  0
  4  7  1  0
  7  8  2  0
  8  9  1  0
  9 10  2  0
 10 11  1  0
 11 12  2  0
  2 13  1  0
 13 14  1  1
 14 15  1  0
 15 16  2  0
 16 17  1  0
 17 18  2  0
 18 19  1  0
 19 20  2  0
 19 21  1  0
 21 22  1  0
 22 23  1  0
 13 24  1  0
 24 25  2  0
 25 26  1  0
 26 27  1  0
 26 28  2  0
 28 29  1  0
 29 30  2  0
 30 31  1  0
 31 32  1  0
 32 33  2  0
 12  7  1  0
 20 15  1  0
 33 24  1  0
 23 18  1  0
 33 29  1  0
M  END
>  <smiles>  (631) 
C101076-P31

>  <fragmenstein_outcome>  (631) 
acceptable

>  <inchikey>  (631) 
MBTVRRIHUJSQRH-UHFFFAOYSA-N

>  <fragmenstein_mode>  (631) 
expansion

>  <HIPPO Pose ID>  (631) 
17610

>  <Energy>  (631) 
133.070563

>  <fragmenstein_error>  (631) 


>  <tags>  (631) 
{'openbind_xx01zvns2b_c1_fragmenstein', 'fragmenstein_placed'}

>  <ref_pdb>  (631) 
1

>  <scratch_subdir>  (631) 
/opt/xchem-fragalysis-2/maxwin/BulkDock/SCRATCH/511027/C101076-P31

>  <alias>  (631) 
O=C(N[C@H](CF)c1cccnc1)[C@H](Nc1ccc2c(c1)CNC2)c1cc(Cl)cc2n[nH]cc12

>  <HIPPO Compound ID>  (631) 
42000

>  <fragmenstein_runtime>  (631) 
6.140793

$$$$
Cc1cc2c([C@@](O)(Nc3ccc4c(c3)CNC4)C(=O)NCc3cccnc3)cc(Cl)cc2n1C
     RDKit          3D

 34 38  0  0  0  0  0  0  0  0999 V2000
   -2.9834    5.6092  -17.4475 C   0  0  0  0  0  0  0  0  0  0  0  0
   -4.4190    5.3984  -17.1301 C   0  0  0  0  0  0  0  0  0  0  0  0
   -5.0671    5.4716  -15.9154 C   0  0  0  0  0  0  0  0  0  0  0  0
   -6.4563    5.1946  -16.0942 C   0  0  0  0  0  0  0  0  0  0  0  0
   -7.6002    5.1532  -15.2420 C   0  0  0  0  0  0  0  0  0  0  0  0
   -7.6834    5.5319  -13.7489 C   0  0  1  0  0  0  0  0  0  0  0  0
   -8.7705    6.4548  -13.6434 O   0  0  0  0  0  0  0  0  0  0  0  0
   -7.9952    4.3378  -12.9532 N   0  0  0  0  0  0  0  0  0  0  0  0
   -8.2782    4.3810  -11.5798 C   0  0  0  0  0  0  0  0  0  0  0  0
   -8.2071    5.5422  -10.7836 C   0  0  0  0  0  0  0  0  0  0  0  0
   -8.3348    5.4988   -9.3872 C   0  0  0  0  0  0  0  0  0  0  0  0
   -8.5120    4.2726   -8.7796 C   0  0  0  0  0  0  0  0  0  0  0  0
   -8.5922    3.1194   -9.5397 C   0  0  0  0  0  0  0  0  0  0  0  0
   -8.4864    3.1581  -10.9243 C   0  0  0  0  0  0  0  0  0  0  0  0
   -8.7581    1.9427   -8.6397 C   0  0  0  0  0  0  0  0  0  0  0  0
   -8.6371    2.4525   -7.2508 N   0  0  0  0  0  0  0  0  0  0  0  0
   -8.6400    3.9256   -7.3351 C   0  0  0  0  0  0  0  0  0  0  0  0
   -6.3441    6.2441  -13.2339 C   0  0  0  0  0  0  0  0  0  0  0  0
   -6.1495    7.3884  -13.3984 O   0  0  0  0  0  0  0  0  0  0  0  0
   -5.4400    5.1490  -12.5977 N   0  0  0  0  0  0  0  0  0  0  0  0
   -4.1658    5.2541  -11.9553 C   0  0  0  0  0  0  0  0  0  0  0  0
   -4.3157    5.5193  -10.4899 C   0  0  0  0  0  0  0  0  0  0  0  0
   -4.7185    4.5166   -9.6046 C   0  0  0  0  0  0  0  0  0  0  0  0
   -4.8707    4.8101   -8.2538 C   0  0  0  0  0  0  0  0  0  0  0  0
   -4.6133    6.1015   -7.8283 C   0  0  0  0  0  0  0  0  0  0  0  0
   -4.2217    7.0992   -8.6486 N   0  0  0  0  0  0  0  0  0  0  0  0
   -4.0961    6.7871   -9.9602 C   0  0  0  0  0  0  0  0  0  0  0  0
   -8.8215    4.7867  -15.8615 C   0  0  0  0  0  0  0  0  0  0  0  0
   -8.9416    4.5682  -17.2222 C   0  0  0  0  0  0  0  0  0  0  0  0
  -10.4924    4.3188  -17.8872 Cl  0  0  0  0  0  0  0  0  0  0  0  0
   -7.8434    4.6479  -18.0554 C   0  0  0  0  0  0  0  0  0  0  0  0
   -6.6092    4.9500  -17.4662 C   0  0  0  0  0  0  0  0  0  0  0  0
   -5.3727    5.0912  -18.0634 N   0  0  0  0  0  0  0  0  0  0  0  0
   -5.1573    4.9472  -19.4833 C   0  0  0  0  0  0  0  0  0  0  0  0
  1  2  1  0
  2  3  2  0
  3  4  1  0
  4  5  2  0
  5  6  1  0
  6  7  1  6
  6  8  1  0
  8  9  1  0
  9 10  2  0
 10 11  1  0
 11 12  2  0
 12 13  1  0
 13 14  2  0
 13 15  1  0
 15 16  1  0
 16 17  1  0
  6 18  1  0
 18 19  2  0
 18 20  1  0
 20 21  1  0
 21 22  1  0
 22 23  2  0
 23 24  1  0
 24 25  2  0
 25 26  1  0
 26 27  2  0
  5 28  1  0
 28 29  2  0
 29 30  1  0
 29 31  1  0
 31 32  2  0
 32 33  1  0
 33 34  1  0
 33  2  1  0
 32  4  1  0
 14  9  1  0
 27 22  1  0
 17 12  1  0
M  END
>  <smiles>  (632) 
C101085-P48

>  <fragmenstein_outcome>  (632) 
acceptable

>  <inchikey>  (632) 
DSABMARPVNSBOY-UHFFFAOYSA-N

>  <fragmenstein_mode>  (632) 
expansion

>  <HIPPO Pose ID>  (632) 
17616

>  <Energy>  (632) 
99.085457

>  <fragmenstein_error>  (632) 


>  <tags>  (632) 
{'openbind_xx01zvns2b_c1_fragmenstein', 'fragmenstein_placed'}

>  <ref_pdb>  (632) 
1

>  <scratch_subdir>  (632) 
/opt/xchem-fragalysis-2/maxwin/BulkDock/SCRATCH/511027/C101085-P48

>  <alias>  (632) 
Cc1cc2c([C@@](O)(Nc3ccc4c(c3)CNC4)C(=O)NCc3cccnc3)cc(Cl)cc2n1C

>  <HIPPO Compound ID>  (632) 
81082

>  <fragmenstein_runtime>  (632) 
8.303017

$$$$
O=C(NCc1cccnc1)[C@@](O)(Nc1ccc2c(c1)CNC2)c1cc(Cl)cc2n[nH]cc12
     RDKit          3D

 32 36  0  0  0  0  0  0  0  0999 V2000
   -4.8578    4.1689  -12.8579 O   0  0  0  0  0  0  0  0  0  0  0  0
   -5.7975    4.7743  -13.2123 C   0  0  0  0  0  0  0  0  0  0  0  0
   -6.0430    6.3180  -13.2761 N   0  0  0  0  0  0  0  0  0  0  0  0
   -5.2264    7.4083  -12.8322 C   0  0  0  0  0  0  0  0  0  0  0  0
   -3.9867    7.5401  -13.6643 C   0  0  0  0  0  0  0  0  0  0  0  0
   -2.7852    6.9366  -13.2806 C   0  0  0  0  0  0  0  0  0  0  0  0
   -1.6620    7.0479  -14.0945 C   0  0  0  0  0  0  0  0  0  0  0  0
   -1.7798    7.7525  -15.2800 C   0  0  0  0  0  0  0  0  0  0  0  0
   -2.9265    8.3292  -15.6994 N   0  0  0  0  0  0  0  0  0  0  0  0
   -4.0000    8.2124  -14.8816 C   0  0  0  0  0  0  0  0  0  0  0  0
   -7.1145    4.0852  -13.8484 C   0  0  1  0  0  0  0  0  0  0  0  0
   -7.1440    2.6766  -13.7154 O   0  0  0  0  0  0  0  0  0  0  0  0
   -8.3398    4.5989  -13.1645 N   0  0  0  0  0  0  0  0  0  0  0  0
   -8.3056    4.5027  -11.7381 C   0  0  0  0  0  0  0  0  0  0  0  0
   -8.1218    5.6613  -10.9591 C   0  0  0  0  0  0  0  0  0  0  0  0
   -8.0928    5.6009   -9.5585 C   0  0  0  0  0  0  0  0  0  0  0  0
   -8.2727    4.3724   -8.9470 C   0  0  0  0  0  0  0  0  0  0  0  0
   -8.4635    3.2281   -9.7041 C   0  0  0  0  0  0  0  0  0  0  0  0
   -8.4540    3.2685  -11.0895 C   0  0  0  0  0  0  0  0  0  0  0  0
   -8.6681    2.0567   -8.8058 C   0  0  0  0  0  0  0  0  0  0  0  0
   -8.6758    2.5873   -7.4200 N   0  0  0  0  0  0  0  0  0  0  0  0
   -8.3077    4.0128   -7.4986 C   0  0  0  0  0  0  0  0  0  0  0  0
   -7.2299    4.4055  -15.3567 C   0  0  0  0  0  0  0  0  0  0  0  0
   -8.4617    4.2131  -16.0615 C   0  0  0  0  0  0  0  0  0  0  0  0
   -8.6455    4.3505  -17.4708 C   0  0  0  0  0  0  0  0  0  0  0  0
  -10.2163    4.0926  -18.1116 Cl  0  0  0  0  0  0  0  0  0  0  0  0
   -7.6304    4.7072  -18.3594 C   0  0  0  0  0  0  0  0  0  0  0  0
   -6.4086    4.9444  -17.7304 C   0  0  0  0  0  0  0  0  0  0  0  0
   -5.2485    5.3375  -18.2817 N   0  0  0  0  0  0  0  0  0  0  0  0
   -4.3832    5.3820  -17.2633 N   0  0  0  0  0  0  0  0  0  0  0  0
   -4.9118    4.9935  -16.0668 C   0  0  0  0  0  0  0  0  0  0  0  0
   -6.2437    4.7771  -16.2940 C   0  0  0  0  0  0  0  0  0  0  0  0
  1  2  2  0
  2  3  1  0
  3  4  1  0
  4  5  1  0
  5  6  2  0
  6  7  1  0
  7  8  2  0
  8  9  1  0
  9 10  2  0
  2 11  1  0
 11 12  1  6
 11 13  1  0
 13 14  1  0
 14 15  2  0
 15 16  1  0
 16 17  2  0
 17 18  1  0
 18 19  2  0
 18 20  1  0
 20 21  1  0
 21 22  1  0
 11 23  1  0
 23 24  2  0
 24 25  1  0
 25 26  1  0
 25 27  2  0
 27 28  1  0
 28 29  2  0
 29 30  1  0
 30 31  1  0
 31 32  2  0
 10  5  1  0
 19 14  1  0
 32 23  1  0
 22 17  1  0
 32 28  1  0
M  END
>  <smiles>  (633) 
C43713-P58

>  <fragmenstein_outcome>  (633) 
acceptable

>  <inchikey>  (633) 
JZKOTEBIHYLAGM-UHFFFAOYSA-N

>  <fragmenstein_mode>  (633) 
expansion

>  <HIPPO Pose ID>  (633) 
17619

>  <Energy>  (633) 
98.723187

>  <fragmenstein_error>  (633) 


>  <tags>  (633) 
{'openbind_xx01zvns2b_c1_fragmenstein', 'fragmenstein_placed'}

>  <ref_pdb>  (633) 
1

>  <scratch_subdir>  (633) 
/opt/xchem-fragalysis-2/maxwin/BulkDock/SCRATCH/511027/C43713-P58

>  <alias>  (633) 
O=C(NCc1cccnc1)[C@@](O)(Nc1ccc2c(c1)CNC2)c1cc(Cl)cc2n[nH]cc12

>  <HIPPO Compound ID>  (633) 
94855

>  <fragmenstein_runtime>  (633) 
5.847772

$$$$
O=C(NCc1cccnc1)[C@](O)(Nc1ccc2c(c1)CNC2)c1cc(Cl)cc2c1c[nH][n+]2[O-]
     RDKit          3D

 33 37  0  0  0  0  0  0  0  0999 V2000
   -5.1305    4.2101  -13.1546 O   0  0  0  0  0  0  0  0  0  0  0  0
   -5.7512    5.1972  -13.2432 C   0  0  0  0  0  0  0  0  0  0  0  0
   -5.4113    6.6489  -12.7833 N   0  0  0  0  0  0  0  0  0  0  0  0
   -4.2918    7.1517  -12.0450 C   0  0  0  0  0  0  0  0  0  0  0  0
   -3.2404    7.6892  -12.9667 C   0  0  0  0  0  0  0  0  0  0  0  0
   -3.1969    9.0391  -13.3253 C   0  0  0  0  0  0  0  0  0  0  0  0
   -2.2201    9.4865  -14.2102 C   0  0  0  0  0  0  0  0  0  0  0  0
   -1.3230    8.5629  -14.7203 C   0  0  0  0  0  0  0  0  0  0  0  0
   -1.3427    7.2486  -14.4136 N   0  0  0  0  0  0  0  0  0  0  0  0
   -2.2949    6.8431  -13.5407 C   0  0  0  0  0  0  0  0  0  0  0  0
   -7.2084    5.3005  -13.9341 C   0  0  2  0  0  0  0  0  0  0  0  0
   -7.7418    6.6174  -13.8771 O   0  0  0  0  0  0  0  0  0  0  0  0
   -8.1865    4.4698  -13.2025 N   0  0  0  0  0  0  0  0  0  0  0  0
   -8.1913    4.4497  -11.7869 C   0  0  0  0  0  0  0  0  0  0  0  0
   -8.0281    5.6048  -10.9901 C   0  0  0  0  0  0  0  0  0  0  0  0
   -8.0919    5.5626   -9.5884 C   0  0  0  0  0  0  0  0  0  0  0  0
   -8.3670    4.3559   -8.9807 C   0  0  0  0  0  0  0  0  0  0  0  0
   -8.5804    3.2165   -9.7425 C   0  0  0  0  0  0  0  0  0  0  0  0
   -8.5043    3.2471  -11.1300 C   0  0  0  0  0  0  0  0  0  0  0  0
   -8.8656    2.0711   -8.8248 C   0  0  0  0  0  0  0  0  0  0  0  0
   -9.1619    2.6888   -7.5064 N   0  0  0  0  0  0  0  0  0  0  0  0
   -8.4883    4.0015   -7.5341 C   0  0  0  0  0  0  0  0  0  0  0  0
   -7.1941    4.9755  -15.4308 C   0  0  0  0  0  0  0  0  0  0  0  0
   -8.3583    4.4791  -16.1213 C   0  0  0  0  0  0  0  0  0  0  0  0
   -8.4839    4.2442  -17.5442 C   0  0  0  0  0  0  0  0  0  0  0  0
  -10.0140    3.7577  -18.1796 Cl  0  0  0  0  0  0  0  0  0  0  0  0
   -7.4700    4.4795  -18.4793 C   0  0  0  0  0  0  0  0  0  0  0  0
   -6.3380    4.9689  -17.8558 C   0  0  0  0  0  0  0  0  0  0  0  0
   -6.1902    5.2178  -16.3920 C   0  0  0  0  0  0  0  0  0  0  0  0
   -4.9299    5.7480  -16.1296 C   0  0  0  0  0  0  0  0  0  0  0  0
   -4.2970    5.7827  -17.3482 N   0  0  0  0  0  0  0  0  0  0  0  0
   -5.1604    5.3197  -18.4076 N   0  0  0  0  0  0  0  0  0  0  0  0
   -4.7357    5.3638  -19.5874 O   0  0  0  0  0  0  0  0  0  0  0  0
  1  2  2  0
  2  3  1  0
  3  4  1  0
  4  5  1  0
  5  6  2  0
  6  7  1  0
  7  8  2  0
  8  9  1  0
  9 10  2  0
  2 11  1  0
 11 12  1  6
 11 13  1  0
 13 14  1  0
 14 15  2  0
 15 16  1  0
 16 17  2  0
 17 18  1  0
 18 19  2  0
 18 20  1  0
 20 21  1  0
 21 22  1  0
 11 23  1  0
 23 24  2  0
 24 25  1  0
 25 26  1  0
 25 27  2  0
 27 28  1  0
 28 29  1  0
 29 30  2  0
 30 31  1  0
 31 32  1  0
 32 33  1  0
 10  5  1  0
 19 14  1  0
 29 23  1  0
 22 17  1  0
 32 28  2  0
M  CHG  2  32   1  33  -1
M  END
>  <smiles>  (634) 
C101054-P67

>  <fragmenstein_outcome>  (634) 
acceptable

>  <inchikey>  (634) 
YLYFPGKHMPFWJQ-UHFFFAOYSA-N

>  <fragmenstein_mode>  (634) 
expansion

>  <HIPPO Pose ID>  (634) 
17622

>  <Energy>  (634) 
105.114257

>  <fragmenstein_error>  (634) 


>  <tags>  (634) 
{'openbind_xx01zvns2b_c1_fragmenstein', 'fragmenstein_placed'}

>  <ref_pdb>  (634) 
1

>  <scratch_subdir>  (634) 
/opt/xchem-fragalysis-2/maxwin/BulkDock/SCRATCH/511027/C101054-P67

>  <alias>  (634) 
O=C(NCc1cccnc1)[C@](O)(Nc1ccc2c(c1)CNC2)c1cc(Cl)cc2c1c[nH][n+]2[O-]

>  <HIPPO Compound ID>  (634) 
101054

>  <fragmenstein_runtime>  (634) 
5.769722

$$$$
CN(c1ccc2c(c1)CNC2)[C@@H](C(=O)NC[C@@]1(F)CCCNC1)c1cc(Cl)cc2c1cnn2C
     RDKit          3D

 34 38  0  0  0  0  0  0  0  0999 V2000
   -6.9182    2.9560  -13.3156 C   0  0  0  0  0  0  0  0  0  0  0  0
   -7.7067    4.1750  -13.0474 N   0  0  0  0  0  0  0  0  0  0  0  0
   -8.0413    4.3020  -11.6789 C   0  0  0  0  0  0  0  0  0  0  0  0
   -7.9816    5.5174  -10.9632 C   0  0  0  0  0  0  0  0  0  0  0  0
   -8.1272    5.5754   -9.5636 C   0  0  0  0  0  0  0  0  0  0  0  0
   -8.3905    4.4077   -8.8764 C   0  0  0  0  0  0  0  0  0  0  0  0
   -8.5650    3.2216   -9.5645 C   0  0  0  0  0  0  0  0  0  0  0  0
   -8.4180    3.1631  -10.9422 C   0  0  0  0  0  0  0  0  0  0  0  0
   -8.8309    2.1190   -8.5946 C   0  0  0  0  0  0  0  0  0  0  0  0
   -9.1305    2.7930   -7.3039 N   0  0  0  0  0  0  0  0  0  0  0  0
   -8.5045    4.1309   -7.4129 C   0  0  0  0  0  0  0  0  0  0  0  0
   -7.3150    5.3642  -13.8423 C   0  0  1  0  0  0  0  0  0  0  0  0
   -5.9382    5.9736  -13.3638 C   0  0  0  0  0  0  0  0  0  0  0  0
   -5.0570    5.3202  -12.9545 O   0  0  0  0  0  0  0  0  0  0  0  0
   -6.0332    7.5169  -13.5888 N   0  0  0  0  0  0  0  0  0  0  0  0
   -5.0311    8.5500  -13.4449 C   0  0  0  0  0  0  0  0  0  0  0  0
   -4.3288    8.7025  -12.0805 C   0  0  1  0  0  0  0  0  0  0  0  0
   -3.7858    9.9776  -12.0978 F   0  0  0  0  0  0  0  0  0  0  0  0
   -5.2993    8.6884  -10.8916 C   0  0  0  0  0  0  0  0  0  0  0  0
   -4.5708    8.2757   -9.6172 C   0  0  0  0  0  0  0  0  0  0  0  0
   -4.0005    6.8610   -9.7571 C   0  0  0  0  0  0  0  0  0  0  0  0
   -3.3679    6.5680  -11.0435 N   0  0  0  0  0  0  0  0  0  0  0  0
   -3.1258    7.7537  -11.8648 C   0  0  0  0  0  0  0  0  0  0  0  0
   -7.3466    5.0698  -15.3589 C   0  0  0  0  0  0  0  0  0  0  0  0
   -8.5840    4.6657  -15.9229 C   0  0  0  0  0  0  0  0  0  0  0  0
   -8.7407    4.4404  -17.2896 C   0  0  0  0  0  0  0  0  0  0  0  0
  -10.2951    4.1051  -17.9265 Cl  0  0  0  0  0  0  0  0  0  0  0  0
   -7.6827    4.5934  -18.1750 C   0  0  0  0  0  0  0  0  0  0  0  0
   -6.4497    4.9584  -17.6292 C   0  0  0  0  0  0  0  0  0  0  0  0
   -6.2524    5.1743  -16.2631 C   0  0  0  0  0  0  0  0  0  0  0  0
   -4.8649    5.4617  -16.1776 C   0  0  0  0  0  0  0  0  0  0  0  0
   -4.2560    5.5083  -17.3615 N   0  0  0  0  0  0  0  0  0  0  0  0
   -5.2368    5.1982  -18.2248 N   0  0  0  0  0  0  0  0  0  0  0  0
   -4.9473    5.2033  -19.6340 C   0  0  0  0  0  0  0  0  0  0  0  0
  1  2  1  0
  2  3  1  0
  3  4  2  0
  4  5  1  0
  5  6  2  0
  6  7  1  0
  7  8  2  0
  7  9  1  0
  9 10  1  0
 10 11  1  0
 12  2  1  1
 12 13  1  0
 13 14  2  0
 13 15  1  0
 15 16  1  0
 16 17  1  0
 17 18  1  6
 17 19  1  0
 19 20  1  0
 20 21  1  0
 21 22  1  0
 22 23  1  0
 12 24  1  0
 24 25  2  0
 25 26  1  0
 26 27  1  0
 26 28  2  0
 28 29  1  0
 29 30  2  0
 30 31  1  0
 31 32  2  0
 32 33  1  0
 33 34  1  0
  8  3  1  0
 23 17  1  0
 30 24  1  0
 11  6  1  0
 33 29  1  0
M  END
>  <smiles>  (635) 
C101111-P87

>  <fragmenstein_outcome>  (635) 
acceptable

>  <inchikey>  (635) 
GVNXELLWXDWCSA-UHFFFAOYSA-N

>  <fragmenstein_mode>  (635) 
expansion

>  <HIPPO Pose ID>  (635) 
17627

>  <Energy>  (635) 
171.671003

>  <fragmenstein_error>  (635) 


>  <tags>  (635) 
{'openbind_xx01zvns2b_c1_fragmenstein', 'fragmenstein_placed'}

>  <ref_pdb>  (635) 
1

>  <scratch_subdir>  (635) 
/opt/xchem-fragalysis-2/maxwin/BulkDock/SCRATCH/511027/C101111-P87

>  <alias>  (635) 
CN(c1ccc2c(c1)CNC2)[C@@H](C(=O)NC[C@@]1(F)CCCNC1)c1cc(Cl)cc2c1cnn2C

>  <HIPPO Compound ID>  (635) 
20464

>  <fragmenstein_runtime>  (635) 
9.258443

$$$$
COn1ncc2c([C@@H](Nc3ccc4c(c3)CNC4)C(=O)N[C@H](NF)c3cccnc3)cc(Cl)cc21
     RDKit          3D

 35 39  0  0  0  0  0  0  0  0999 V2000
   -5.1835    6.4488  -20.0455 C   0  0  0  0  0  0  0  0  0  0  0  0
   -5.0650    5.1054  -19.5957 O   0  0  0  0  0  0  0  0  0  0  0  0
   -5.3311    5.0867  -18.2332 N   0  0  0  0  0  0  0  0  0  0  0  0
   -4.3411    5.3721  -17.3807 N   0  0  0  0  0  0  0  0  0  0  0  0
   -4.9365    5.2659  -16.1911 C   0  0  0  0  0  0  0  0  0  0  0  0
   -6.3208    4.9517  -16.2764 C   0  0  0  0  0  0  0  0  0  0  0  0
   -7.3918    4.7483  -15.3615 C   0  0  0  0  0  0  0  0  0  0  0  0
   -7.2734    4.8944  -13.8406 C   0  0  1  0  0  0  0  0  0  0  0  0
   -8.3931    4.2583  -13.1245 N   0  0  0  0  0  0  0  0  0  0  0  0
   -8.3702    4.2931  -11.7185 C   0  0  0  0  0  0  0  0  0  0  0  0
   -8.1915    5.4877  -10.9925 C   0  0  0  0  0  0  0  0  0  0  0  0
   -8.1674    5.4976   -9.5893 C   0  0  0  0  0  0  0  0  0  0  0  0
   -8.3756    4.3057   -8.9211 C   0  0  0  0  0  0  0  0  0  0  0  0
   -8.5973    3.1297   -9.6241 C   0  0  0  0  0  0  0  0  0  0  0  0
   -8.5902    3.1061  -11.0084 C   0  0  0  0  0  0  0  0  0  0  0  0
   -8.8234    2.0129   -8.6586 C   0  0  0  0  0  0  0  0  0  0  0  0
   -9.0911    2.6798   -7.3587 N   0  0  0  0  0  0  0  0  0  0  0  0
   -8.4318    4.0003   -7.4584 C   0  0  0  0  0  0  0  0  0  0  0  0
   -5.8910    4.3598  -13.3146 C   0  0  0  0  0  0  0  0  0  0  0  0
   -5.4469    3.3151  -13.5885 O   0  0  0  0  0  0  0  0  0  0  0  0
   -5.2791    5.5296  -12.4985 N   0  0  0  0  0  0  0  0  0  0  0  0
   -4.0542    5.6145  -11.7849 C   0  0  2  0  0  0  0  0  0  0  0  0
   -4.3995    5.7361  -10.3797 N   0  0  0  0  0  0  0  0  0  0  0  0
   -5.1343    6.8734  -10.1032 F   0  0  0  0  0  0  0  0  0  0  0  0
   -3.2709    6.7843  -12.3286 C   0  0  0  0  0  0  0  0  0  0  0  0
   -3.8408    8.0571  -12.5050 C   0  0  0  0  0  0  0  0  0  0  0  0
   -3.1054    9.0792  -13.0893 C   0  0  0  0  0  0  0  0  0  0  0  0
   -1.7977    8.8090  -13.4546 C   0  0  0  0  0  0  0  0  0  0  0  0
   -1.2002    7.6101  -13.2818 N   0  0  0  0  0  0  0  0  0  0  0  0
   -1.9484    6.6273  -12.7279 C   0  0  0  0  0  0  0  0  0  0  0  0
   -8.6579    4.5240  -15.9413 C   0  0  0  0  0  0  0  0  0  0  0  0
   -8.8478    4.4551  -17.3164 C   0  0  0  0  0  0  0  0  0  0  0  0
  -10.4402    4.3408  -17.9134 Cl  0  0  0  0  0  0  0  0  0  0  0  0
   -7.7934    4.5801  -18.2062 C   0  0  0  0  0  0  0  0  0  0  0  0
   -6.5446    4.8508  -17.6497 C   0  0  0  0  0  0  0  0  0  0  0  0
  1  2  1  0
  2  3  1  0
  3  4  1  0
  4  5  2  0
  5  6  1  0
  6  7  2  0
  7  8  1  0
  8  9  1  1
  9 10  1  0
 10 11  2  0
 11 12  1  0
 12 13  2  0
 13 14  1  0
 14 15  2  0
 14 16  1  0
 16 17  1  0
 17 18  1  0
  8 19  1  0
 19 20  2  0
 19 21  1  0
 22 21  1  6
 22 23  1  0
 23 24  1  0
 22 25  1  0
 25 26  2  0
 26 27  1  0
 27 28  2  0
 28 29  1  0
 29 30  2  0
  7 31  1  0
 31 32  2  0
 32 33  1  0
 32 34  1  0
 34 35  2  0
 35  3  1  0
 35  6  1  0
 15 10  1  0
 30 25  1  0
 18 13  1  0
M  END
>  <smiles>  (636) 
C101115-P94

>  <fragmenstein_outcome>  (636) 
acceptable

>  <inchikey>  (636) 
CHLFQAUYPUVFAH-UHFFFAOYSA-N

>  <fragmenstein_mode>  (636) 
expansion

>  <HIPPO Pose ID>  (636) 
17630

>  <Energy>  (636) 
60.385552

>  <fragmenstein_error>  (636) 


>  <tags>  (636) 
{'openbind_xx01zvns2b_c1_fragmenstein', 'fragmenstein_placed'}

>  <ref_pdb>  (636) 
1

>  <scratch_subdir>  (636) 
/opt/xchem-fragalysis-2/maxwin/BulkDock/SCRATCH/511027/C101115-P94

>  <alias>  (636) 
COn1ncc2c([C@@H](Nc3ccc4c(c3)CNC4)C(=O)N[C@H](NF)c3cccnc3)cc(Cl)cc21

>  <HIPPO Compound ID>  (636) 
97152

>  <fragmenstein_runtime>  (636) 
7.37837

$$$$
CN(Cn1ncc2c([C@](O)(Nc3ccc4c(c3)CNC4)C(=O)NCc3cccnc3)cc(Cl)cc21)C1CCOCC1
     RDKit          3D

 41 46  0  0  0  0  0  0  0  0999 V2000
   -5.1686    7.8311  -19.1470 C   0  0  0  0  0  0  0  0  0  0  0  0
   -4.5249    6.7672  -19.8914 N   0  0  0  0  0  0  0  0  0  0  0  0
   -5.0151    5.4117  -19.5873 C   0  0  0  0  0  0  0  0  0  0  0  0
   -5.2655    5.2047  -18.1559 N   0  0  0  0  0  0  0  0  0  0  0  0
   -4.2541    5.2671  -17.2601 N   0  0  0  0  0  0  0  0  0  0  0  0
   -4.8687    5.1631  -16.0831 C   0  0  0  0  0  0  0  0  0  0  0  0
   -6.2693    4.9941  -16.1976 C   0  0  0  0  0  0  0  0  0  0  0  0
   -7.3463    4.8438  -15.2819 C   0  0  0  0  0  0  0  0  0  0  0  0
   -7.1439    4.8858  -13.7585 C   0  0  2  0  0  0  0  0  0  0  0  0
   -6.3674    3.7472  -13.4743 O   0  0  0  0  0  0  0  0  0  0  0  0
   -8.4311    4.7358  -13.0431 N   0  0  0  0  0  0  0  0  0  0  0  0
   -8.3801    4.6172  -11.6290 C   0  0  0  0  0  0  0  0  0  0  0  0
   -8.1265    5.7255  -10.8000 C   0  0  0  0  0  0  0  0  0  0  0  0
   -8.0906    5.6109   -9.4045 C   0  0  0  0  0  0  0  0  0  0  0  0
   -8.3282    4.3740   -8.8396 C   0  0  0  0  0  0  0  0  0  0  0  0
   -8.5914    3.2728   -9.6375 C   0  0  0  0  0  0  0  0  0  0  0  0
   -8.6142    3.3711  -11.0228 C   0  0  0  0  0  0  0  0  0  0  0  0
   -8.8037    2.0772   -8.7715 C   0  0  0  0  0  0  0  0  0  0  0  0
   -8.7983    2.5634   -7.3711 N   0  0  0  0  0  0  0  0  0  0  0  0
   -8.3616    3.9698   -7.4033 C   0  0  0  0  0  0  0  0  0  0  0  0
   -6.3512    6.2211  -13.3333 C   0  0  0  0  0  0  0  0  0  0  0  0
   -5.2442    6.1796  -12.9543 O   0  0  0  0  0  0  0  0  0  0  0  0
   -7.3160    7.4299  -13.4939 N   0  0  0  0  0  0  0  0  0  0  0  0
   -7.1489    8.8126  -13.1332 C   0  0  0  0  0  0  0  0  0  0  0  0
   -6.6303    9.6909  -14.2325 C   0  0  0  0  0  0  0  0  0  0  0  0
   -7.1233   10.9925  -14.3895 C   0  0  0  0  0  0  0  0  0  0  0  0
   -6.6131   11.8175  -15.3882 C   0  0  0  0  0  0  0  0  0  0  0  0
   -5.6178   11.3147  -16.2063 C   0  0  0  0  0  0  0  0  0  0  0  0
   -5.1132   10.0701  -16.0892 N   0  0  0  0  0  0  0  0  0  0  0  0
   -5.6069    9.2976  -15.0901 C   0  0  0  0  0  0  0  0  0  0  0  0
   -8.6059    4.5687  -15.8698 C   0  0  0  0  0  0  0  0  0  0  0  0
   -8.7825    4.4733  -17.2485 C   0  0  0  0  0  0  0  0  0  0  0  0
  -10.3473    4.2005  -17.8813 Cl  0  0  0  0  0  0  0  0  0  0  0  0
   -7.7359    4.6740  -18.1331 C   0  0  0  0  0  0  0  0  0  0  0  0
   -6.4865    4.9422  -17.5741 C   0  0  0  0  0  0  0  0  0  0  0  0
   -3.1091    6.8866  -20.2669 C   0  0  0  0  0  0  0  0  0  0  0  0
   -2.0563    6.3335  -19.2903 C   0  0  0  0  0  0  0  0  0  0  0  0
   -1.7197    7.3211  -18.1861 C   0  0  0  0  0  0  0  0  0  0  0  0
   -1.2248    8.5327  -18.7639 O   0  0  0  0  0  0  0  0  0  0  0  0
   -2.2194    9.1841  -19.5503 C   0  0  0  0  0  0  0  0  0  0  0  0
   -2.6709    8.3002  -20.7091 C   0  0  0  0  0  0  0  0  0  0  0  0
  1  2  1  0
  2  3  1  0
  3  4  1  0
  4  5  1  0
  5  6  2  0
  6  7  1  0
  7  8  2  0
  8  9  1  0
  9 10  1  1
  9 11  1  0
 11 12  1  0
 12 13  2  0
 13 14  1  0
 14 15  2  0
 15 16  1  0
 16 17  2  0
 16 18  1  0
 18 19  1  0
 19 20  1  0
  9 21  1  0
 21 22  2  0
 21 23  1  0
 23 24  1  0
 24 25  1  0
 25 26  2  0
 26 27  1  0
 27 28  2  0
 28 29  1  0
 29 30  2  0
  8 31  1  0
 31 32  2  0
 32 33  1  0
 32 34  1  0
 34 35  2  0
  2 36  1  0
 36 37  1  0
 37 38  1  0
 38 39  1  0
 39 40  1  0
 40 41  1  0
 35  4  1  0
 41 36  1  0
 35  7  1  0
 17 12  1  0
 30 25  1  0
 20 15  1  0
M  END
>  <smiles>  (637) 
C101122-P105

>  <fragmenstein_outcome>  (637) 
acceptable

>  <inchikey>  (637) 
WLWQLBAUPNKMDQ-UHFFFAOYSA-N

>  <fragmenstein_mode>  (637) 
expansion

>  <HIPPO Pose ID>  (637) 
17632

>  <Energy>  (637) 
156.996062

>  <fragmenstein_error>  (637) 


>  <tags>  (637) 
{'openbind_xx01zvns2b_c1_fragmenstein', 'fragmenstein_placed'}

>  <ref_pdb>  (637) 
1

>  <scratch_subdir>  (637) 
/opt/xchem-fragalysis-2/maxwin/BulkDock/SCRATCH/511027/C101122-P105

>  <alias>  (637) 
CN(Cn1ncc2c([C@](O)(Nc3ccc4c(c3)CNC4)C(=O)NCc3cccnc3)cc(Cl)cc21)C1CCOCC1

>  <HIPPO Compound ID>  (637) 
73274

>  <fragmenstein_runtime>  (637) 
20.863621

$$$$
CC(C)O[C@]1(C)C(=O)Nc2c(C#N)c(Cl)cc(C(=O)Nc3ccc4c(c3)CNC4)c21
     RDKit          3D

 30 33  0  0  0  0  0  0  0  0999 V2000
   -5.4341    7.8143  -18.9630 C   0  0  0  0  0  0  0  0  0  0  0  0
   -4.8953    8.1913  -17.5881 C   0  0  0  0  0  0  0  0  0  0  0  0
   -3.3957    8.4316  -17.5856 C   0  0  0  0  0  0  0  0  0  0  0  0
   -5.3497    7.3762  -16.5054 O   0  0  0  0  0  0  0  0  0  0  0  0
   -5.0088    6.0002  -16.3429 C   0  0  2  0  0  0  0  0  0  0  0  0
   -4.1730    5.8083  -15.0880 C   0  0  0  0  0  0  0  0  0  0  0  0
   -4.3022    5.3289  -17.5606 C   0  0  0  0  0  0  0  0  0  0  0  0
   -3.1140    5.2862  -17.8307 O   0  0  0  0  0  0  0  0  0  0  0  0
   -5.3090    4.8096  -18.3479 N   0  0  0  0  0  0  0  0  0  0  0  0
   -6.5121    4.7601  -17.6525 C   0  0  0  0  0  0  0  0  0  0  0  0
   -7.6917    4.2187  -18.1255 C   0  0  0  0  0  0  0  0  0  0  0  0
   -7.6814    3.6496  -19.4280 C   0  0  0  0  0  0  0  0  0  0  0  0
   -7.3811    3.1569  -20.4361 N   0  0  0  0  0  0  0  0  0  0  0  0
   -8.7683    4.2130  -17.2588 C   0  0  0  0  0  0  0  0  0  0  0  0
  -10.3479    3.8638  -17.8004 Cl  0  0  0  0  0  0  0  0  0  0  0  0
   -8.6074    4.6072  -15.9219 C   0  0  0  0  0  0  0  0  0  0  0  0
   -7.3871    5.1354  -15.4585 C   0  0  0  0  0  0  0  0  0  0  0  0
   -7.3568    5.5875  -14.0419 C   0  0  0  0  0  0  0  0  0  0  0  0
   -7.0676    6.6921  -13.7980 O   0  0  0  0  0  0  0  0  0  0  0  0
   -7.8423    4.4455  -13.1093 N   0  0  0  0  0  0  0  0  0  0  0  0
   -7.9754    4.4044  -11.7202 C   0  0  0  0  0  0  0  0  0  0  0  0
   -7.8152    5.5505  -10.9282 C   0  0  0  0  0  0  0  0  0  0  0  0
   -8.0161    5.4966   -9.5426 C   0  0  0  0  0  0  0  0  0  0  0  0
   -8.3875    4.2899   -8.9773 C   0  0  0  0  0  0  0  0  0  0  0  0
   -8.5442    3.1502   -9.7578 C   0  0  0  0  0  0  0  0  0  0  0  0
   -8.3348    3.1855  -11.1273 C   0  0  0  0  0  0  0  0  0  0  0  0
   -8.9390    2.0066   -8.8797 C   0  0  0  0  0  0  0  0  0  0  0  0
   -9.3513    2.6320   -7.5927 N   0  0  0  0  0  0  0  0  0  0  0  0
   -8.6658    3.9425   -7.5533 C   0  0  0  0  0  0  0  0  0  0  0  0
   -6.3522    5.2929  -16.3691 C   0  0  0  0  0  0  0  0  0  0  0  0
  1  2  1  0
  2  3  1  0
  2  4  1  0
  4  5  1  0
  5  6  1  1
  5  7  1  0
  7  8  2  0
  7  9  1  0
  9 10  1  0
 10 11  2  0
 11 12  1  0
 12 13  3  0
 11 14  1  0
 14 15  1  0
 14 16  2  0
 16 17  1  0
 17 18  1  0
 18 19  2  0
 18 20  1  0
 20 21  1  0
 21 22  2  0
 22 23  1  0
 23 24  2  0
 24 25  1  0
 25 26  2  0
 25 27  1  0
 27 28  1  0
 28 29  1  0
 17 30  2  0
 30  5  1  0
 30 10  1  0
 26 21  1  0
 29 24  1  0
M  END
>  <smiles>  (638) 
C101328-P135

>  <fragmenstein_outcome>  (638) 
acceptable

>  <inchikey>  (638) 
DQZUSJRWJUMCTJ-UHFFFAOYSA-N

>  <fragmenstein_mode>  (638) 
expansion

>  <HIPPO Pose ID>  (638) 
17697

>  <Energy>  (638) 
104.049452

>  <fragmenstein_error>  (638) 


>  <tags>  (638) 
{'openbind_xx01zvns2b_c1_fragmenstein', 'fragmenstein_placed'}

>  <ref_pdb>  (638) 
1

>  <scratch_subdir>  (638) 
/opt/xchem-fragalysis-2/maxwin/BulkDock/SCRATCH/511027/C101328-P135

>  <alias>  (638) 
CC(C)O[C@]1(C)C(=O)Nc2c(C#N)c(Cl)cc(C(=O)Nc3ccc4c(c3)CNC4)c21

>  <HIPPO Compound ID>  (638) 
101328

>  <fragmenstein_runtime>  (638) 
4.025825

$$$$
O=C1CC2=C(N1)[C@H](Cl)C[C@@H]2C(=O)Nc1ccc2c(c1)CNC2
     RDKit          3D

 22 25  0  0  0  0  0  0  0  0999 V2000
   -4.6834    6.0046  -18.8214 O   0  0  0  0  0  0  0  0  0  0  0  0
   -5.6023    5.6148  -18.1235 C   0  0  0  0  0  0  0  0  0  0  0  0
   -5.5486    5.4372  -16.5975 C   0  0  0  0  0  0  0  0  0  0  0  0
   -6.9231    4.9285  -16.3926 C   0  0  0  0  0  0  0  0  0  0  0  0
   -7.6098    4.8226  -17.5264 C   0  0  0  0  0  0  0  0  0  0  0  0
   -6.8722    5.2488  -18.5648 N   0  0  0  0  0  0  0  0  0  0  0  0
   -8.9048    4.1476  -17.3644 C   0  0  2  0  0  0  0  0  0  0  0  0
  -10.2629    4.6889  -18.3070 Cl  0  0  0  0  0  0  0  0  0  0  0  0
   -9.0769    4.3562  -15.8544 C   0  0  0  0  0  0  0  0  0  0  0  0
   -7.6572    4.3505  -15.2509 C   0  0  2  0  0  0  0  0  0  0  0  0
   -7.6228    5.1323  -13.9326 C   0  0  0  0  0  0  0  0  0  0  0  0
   -7.1872    6.2121  -13.8072 O   0  0  0  0  0  0  0  0  0  0  0  0
   -8.2190    4.1501  -12.8699 N   0  0  0  0  0  0  0  0  0  0  0  0
   -8.3052    4.2614  -11.4869 C   0  0  0  0  0  0  0  0  0  0  0  0
   -8.0270    5.4553  -10.8099 C   0  0  0  0  0  0  0  0  0  0  0  0
   -8.1132    5.5128   -9.4127 C   0  0  0  0  0  0  0  0  0  0  0  0
   -8.4688    4.3645   -8.7251 C   0  0  0  0  0  0  0  0  0  0  0  0
   -8.7300    3.1782   -9.3980 C   0  0  0  0  0  0  0  0  0  0  0  0
   -8.6626    3.1126  -10.7761 C   0  0  0  0  0  0  0  0  0  0  0  0
   -9.0253    2.1007   -8.4094 C   0  0  0  0  0  0  0  0  0  0  0  0
   -9.2882    2.8133   -7.1304 N   0  0  0  0  0  0  0  0  0  0  0  0
   -8.6152    4.1264   -7.2601 C   0  0  0  0  0  0  0  0  0  0  0  0
  1  2  2  0
  2  3  1  0
  3  4  1  0
  4  5  2  0
  5  6  1  0
  5  7  1  0
  7  8  1  6
  7  9  1  0
  9 10  1  0
 10 11  1  1
 11 12  2  0
 11 13  1  0
 13 14  1  0
 14 15  2  0
 15 16  1  0
 16 17  2  0
 17 18  1  0
 18 19  2  0
 18 20  1  0
 20 21  1  0
 21 22  1  0
  6  2  1  0
 19 14  1  0
 10  4  1  0
 22 17  1  0
M  END
>  <smiles>  (639) 
C101299-P57

>  <fragmenstein_outcome>  (639) 
acceptable

>  <inchikey>  (639) 
RDSNBCPGJVDPHL-UHFFFAOYSA-N

>  <fragmenstein_mode>  (639) 
expansion

>  <HIPPO Pose ID>  (639) 
17703

>  <Energy>  (639) 
66.153781

>  <fragmenstein_error>  (639) 


>  <tags>  (639) 
{'openbind_xx01zvns2b_c1_fragmenstein', 'fragmenstein_placed'}

>  <ref_pdb>  (639) 
1

>  <scratch_subdir>  (639) 
/opt/xchem-fragalysis-2/maxwin/BulkDock/SCRATCH/511027/C101299-P57

>  <alias>  (639) 
O=C1CC2=C(N1)[C@H](Cl)C[C@@H]2C(=O)Nc1ccc2c(c1)CNC2

>  <HIPPO Compound ID>  (639) 
85642

>  <fragmenstein_runtime>  (639) 
3.502004

$$$$
CCc1cc([C@@](O)(Nc2ccc3c(c2)CNC3)C(=O)NCC(F)F)cc(Cl)c1C#N
     RDKit          3D

 30 32  0  0  0  0  0  0  0  0999 V2000
   -3.9437    5.7519  -17.6286 C   0  0  0  0  0  0  0  0  0  0  0  0
   -5.2231    5.2968  -18.3151 C   0  0  0  0  0  0  0  0  0  0  0  0
   -6.3727    4.9000  -17.4135 C   0  0  0  0  0  0  0  0  0  0  0  0
   -6.3215    5.1078  -16.0260 C   0  0  0  0  0  0  0  0  0  0  0  0
   -7.3978    4.7871  -15.1830 C   0  0  0  0  0  0  0  0  0  0  0  0
   -7.3363    5.0909  -13.6899 C   0  0  1  0  0  0  0  0  0  0  0  0
   -7.8155    6.4236  -13.6851 O   0  0  0  0  0  0  0  0  0  0  0  0
   -8.2587    4.2402  -12.9386 N   0  0  0  0  0  0  0  0  0  0  0  0
   -8.2924    4.2378  -11.5408 C   0  0  0  0  0  0  0  0  0  0  0  0
   -8.0822    5.3912  -10.7590 C   0  0  0  0  0  0  0  0  0  0  0  0
   -8.1524    5.3625   -9.3603 C   0  0  0  0  0  0  0  0  0  0  0  0
   -8.4641    4.1680   -8.7454 C   0  0  0  0  0  0  0  0  0  0  0  0
   -8.7030    3.0294   -9.4954 C   0  0  0  0  0  0  0  0  0  0  0  0
   -8.6232    3.0456  -10.8796 C   0  0  0  0  0  0  0  0  0  0  0  0
   -9.0386    1.8954   -8.5911 C   0  0  0  0  0  0  0  0  0  0  0  0
   -9.1151    2.4640   -7.2177 N   0  0  0  0  0  0  0  0  0  0  0  0
   -8.6280    3.8576   -7.2991 C   0  0  0  0  0  0  0  0  0  0  0  0
   -5.8437    5.0250  -13.0852 C   0  0  0  0  0  0  0  0  0  0  0  0
   -5.2514    6.0113  -12.8609 O   0  0  0  0  0  0  0  0  0  0  0  0
   -5.4351    3.5384  -12.8893 N   0  0  0  0  0  0  0  0  0  0  0  0
   -4.2511    2.9599  -12.2884 C   0  0  0  0  0  0  0  0  0  0  0  0
   -2.9615    3.7093  -12.6084 C   0  0  0  0  0  0  0  0  0  0  0  0
   -1.9014    3.0610  -12.0598 F   0  0  0  0  0  0  0  0  0  0  0  0
   -2.7468    3.7141  -13.9525 F   0  0  0  0  0  0  0  0  0  0  0  0
   -8.5935    4.3743  -15.7871 C   0  0  0  0  0  0  0  0  0  0  0  0
   -8.6657    4.1684  -17.1627 C   0  0  0  0  0  0  0  0  0  0  0  0
  -10.2022    3.8232  -17.8301 Cl  0  0  0  0  0  0  0  0  0  0  0  0
   -7.5419    4.3401  -17.9669 C   0  0  0  0  0  0  0  0  0  0  0  0
   -7.5124    3.8108  -19.3003 C   0  0  0  0  0  0  0  0  0  0  0  0
   -7.3038    3.2768  -20.3125 N   0  0  0  0  0  0  0  0  0  0  0  0
  1  2  1  0
  2  3  1  0
  3  4  2  0
  4  5  1  0
  5  6  1  0
  6  7  1  6
  6  8  1  0
  8  9  1  0
  9 10  2  0
 10 11  1  0
 11 12  2  0
 12 13  1  0
 13 14  2  0
 13 15  1  0
 15 16  1  0
 16 17  1  0
  6 18  1  0
 18 19  2  0
 18 20  1  0
 20 21  1  0
 21 22  1  0
 22 23  1  0
 22 24  1  0
  5 25  2  0
 25 26  1  0
 26 27  1  0
 26 28  2  0
 28 29  1  0
 29 30  3  0
 28  3  1  0
 14  9  1  0
 17 12  1  0
M  END
>  <smiles>  (640) 
C101268-P135

>  <fragmenstein_outcome>  (640) 
acceptable

>  <inchikey>  (640) 
IOHVVFZVSAEWIS-UHFFFAOYSA-N

>  <fragmenstein_mode>  (640) 
expansion

>  <HIPPO Pose ID>  (640) 
17706

>  <Energy>  (640) 
142.687106

>  <fragmenstein_error>  (640) 


>  <tags>  (640) 
{'openbind_xx01zvns2b_c1_fragmenstein', 'fragmenstein_placed'}

>  <ref_pdb>  (640) 
1

>  <scratch_subdir>  (640) 
/opt/xchem-fragalysis-2/maxwin/BulkDock/SCRATCH/511027/C101268-P135

>  <alias>  (640) 
CCc1cc([C@@](O)(Nc2ccc3c(c2)CNC3)C(=O)NCC(F)F)cc(Cl)c1C#N

>  <HIPPO Compound ID>  (640) 
95096

>  <fragmenstein_runtime>  (640) 
9.909197

$$$$
N#Cc1c(Cl)cc(C(=O)Nc2ccc3c(c2)CNC3)c2cnn(C3CNC3)c12
     RDKit          3D

 28 32  0  0  0  0  0  0  0  0999 V2000
   -7.0458    3.3889  -20.2492 N   0  0  0  0  0  0  0  0  0  0  0  0
   -7.2107    3.9165  -19.2267 C   0  0  0  0  0  0  0  0  0  0  0  0
   -7.3340    4.4527  -17.9099 C   0  0  0  0  0  0  0  0  0  0  0  0
   -8.4848    4.2268  -17.1384 C   0  0  0  0  0  0  0  0  0  0  0  0
   -9.9219    3.6283  -17.8487 Cl  0  0  0  0  0  0  0  0  0  0  0  0
   -8.5407    4.5413  -15.7856 C   0  0  0  0  0  0  0  0  0  0  0  0
   -7.4484    5.1559  -15.1768 C   0  0  0  0  0  0  0  0  0  0  0  0
   -7.5171    5.5677  -13.7575 C   0  0  0  0  0  0  0  0  0  0  0  0
   -7.2536    6.6728  -13.4890 O   0  0  0  0  0  0  0  0  0  0  0  0
   -7.9885    4.4031  -12.8574 N   0  0  0  0  0  0  0  0  0  0  0  0
   -8.1376    4.3317  -11.4747 C   0  0  0  0  0  0  0  0  0  0  0  0
   -7.9784    5.4683  -10.6658 C   0  0  0  0  0  0  0  0  0  0  0  0
   -8.1588    5.3922   -9.2810 C   0  0  0  0  0  0  0  0  0  0  0  0
   -8.5136    4.1731   -8.7360 C   0  0  0  0  0  0  0  0  0  0  0  0
   -8.6681    3.0450   -9.5361 C   0  0  0  0  0  0  0  0  0  0  0  0
   -8.4732    3.1000  -10.9052 C   0  0  0  0  0  0  0  0  0  0  0  0
   -9.0449    1.8854   -8.6747 C   0  0  0  0  0  0  0  0  0  0  0  0
   -9.4722    2.4900   -7.3830 N   0  0  0  0  0  0  0  0  0  0  0  0
   -8.7854    3.7990   -7.3177 C   0  0  0  0  0  0  0  0  0  0  0  0
   -6.3211    5.4959  -15.9487 C   0  0  0  0  0  0  0  0  0  0  0  0
   -5.1071    6.1578  -15.6896 C   0  0  0  0  0  0  0  0  0  0  0  0
   -4.3281    6.2337  -16.7621 N   0  0  0  0  0  0  0  0  0  0  0  0
   -5.0135    5.5861  -17.7228 N   0  0  0  0  0  0  0  0  0  0  0  0
   -4.3319    5.2047  -18.9634 C   0  0  0  0  0  0  0  0  0  0  0  0
   -2.9684    5.8832  -19.2276 C   0  0  0  0  0  0  0  0  0  0  0  0
   -3.3290    5.8459  -20.6796 N   0  0  0  0  0  0  0  0  0  0  0  0
   -4.7542    5.9539  -20.2398 C   0  0  0  0  0  0  0  0  0  0  0  0
   -6.2611    5.1418  -17.3049 C   0  0  0  0  0  0  0  0  0  0  0  0
  1  2  3  0
  2  3  1  0
  3  4  2  0
  4  5  1  0
  4  6  1  0
  6  7  2  0
  7  8  1  0
  8  9  2  0
  8 10  1  0
 10 11  1  0
 11 12  2  0
 12 13  1  0
 13 14  2  0
 14 15  1  0
 15 16  2  0
 15 17  1  0
 17 18  1  0
 18 19  1  0
  7 20  1  0
 20 21  1  0
 21 22  2  0
 22 23  1  0
 23 24  1  0
 24 25  1  0
 25 26  1  0
 26 27  1  0
 23 28  1  0
 28  3  1  0
 16 11  1  0
 28 20  2  0
 19 14  1  0
 27 24  1  0
M  END
>  <smiles>  (641) 
C30067-P135

>  <fragmenstein_outcome>  (641) 
acceptable

>  <inchikey>  (641) 
RFYXDWAQTIUUAZ-UHFFFAOYSA-N

>  <fragmenstein_mode>  (641) 
expansion

>  <HIPPO Pose ID>  (641) 
17708

>  <Energy>  (641) 
62.868965

>  <fragmenstein_error>  (641) 


>  <tags>  (641) 
{'openbind_xx01zvns2b_c1_fragmenstein', 'fragmenstein_placed'}

>  <ref_pdb>  (641) 
1

>  <scratch_subdir>  (641) 
/opt/xchem-fragalysis-2/maxwin/BulkDock/SCRATCH/511027/C30067-P135

>  <alias>  (641) 
N#Cc1c(Cl)cc(C(=O)Nc2ccc3c(c2)CNC3)c2cnn(C3CNC3)c12

>  <HIPPO Compound ID>  (641) 
99293

>  <fragmenstein_runtime>  (641) 
4.285717

$$$$
CCc1cc([C@](O)(Nc2ccc3c(c2)CNC3)C(=O)NCCCF)cc(Cl)c1C#N
     RDKit          3D

 30 32  0  0  0  0  0  0  0  0999 V2000
   -3.8831    5.8052  -17.2806 C   0  0  0  0  0  0  0  0  0  0  0  0
   -5.1313    5.3911  -18.0419 C   0  0  0  0  0  0  0  0  0  0  0  0
   -6.3423    5.0311  -17.2074 C   0  0  0  0  0  0  0  0  0  0  0  0
   -6.4045    5.2866  -15.8275 C   0  0  0  0  0  0  0  0  0  0  0  0
   -7.5374    4.9696  -15.0524 C   0  0  0  0  0  0  0  0  0  0  0  0
   -7.5937    5.2785  -13.5526 C   0  0  2  0  0  0  0  0  0  0  0  0
   -6.2815    5.6087  -13.1295 O   0  0  0  0  0  0  0  0  0  0  0  0
   -7.9395    4.0916  -12.7792 N   0  0  0  0  0  0  0  0  0  0  0  0
   -8.1696    4.1088  -11.3952 C   0  0  0  0  0  0  0  0  0  0  0  0
   -7.8776    5.2003  -10.5478 C   0  0  0  0  0  0  0  0  0  0  0  0
   -8.0928    5.1620   -9.1650 C   0  0  0  0  0  0  0  0  0  0  0  0
   -8.5618    3.9915   -8.6196 C   0  0  0  0  0  0  0  0  0  0  0  0
   -8.7821    2.8788   -9.4196 C   0  0  0  0  0  0  0  0  0  0  0  0
   -8.5860    2.9162  -10.7908 C   0  0  0  0  0  0  0  0  0  0  0  0
   -9.1802    1.7372   -8.5484 C   0  0  0  0  0  0  0  0  0  0  0  0
   -9.6148    2.3665   -7.2715 N   0  0  0  0  0  0  0  0  0  0  0  0
   -8.8699    3.6430   -7.2033 C   0  0  0  0  0  0  0  0  0  0  0  0
   -8.6738    6.4584  -13.3426 C   0  0  0  0  0  0  0  0  0  0  0  0
   -9.8241    6.3317  -13.5367 O   0  0  0  0  0  0  0  0  0  0  0  0
   -7.8643    7.6913  -12.8214 N   0  0  0  0  0  0  0  0  0  0  0  0
   -8.2933    9.0358  -12.5275 C   0  0  0  0  0  0  0  0  0  0  0  0
   -9.5313    9.0598  -11.6402 C   0  0  0  0  0  0  0  0  0  0  0  0
   -9.8533   10.4684  -11.1830 C   0  0  0  0  0  0  0  0  0  0  0  0
  -10.0082   11.2669  -12.2737 F   0  0  0  0  0  0  0  0  0  0  0  0
   -8.6546    4.4511  -15.7162 C   0  0  0  0  0  0  0  0  0  0  0  0
   -8.6222    4.2186  -17.0885 C   0  0  0  0  0  0  0  0  0  0  0  0
  -10.0860    3.7492  -17.8387 Cl  0  0  0  0  0  0  0  0  0  0  0  0
   -7.4594    4.4427  -17.8247 C   0  0  0  0  0  0  0  0  0  0  0  0
   -7.3424    3.9279  -19.1538 C   0  0  0  0  0  0  0  0  0  0  0  0
   -7.1536    3.3481  -20.1416 N   0  0  0  0  0  0  0  0  0  0  0  0
  1  2  1  0
  2  3  1  0
  3  4  2  0
  4  5  1  0
  5  6  1  0
  6  7  1  1
  6  8  1  0
  8  9  1  0
  9 10  2  0
 10 11  1  0
 11 12  2  0
 12 13  1  0
 13 14  2  0
 13 15  1  0
 15 16  1  0
 16 17  1  0
  6 18  1  0
 18 19  2  0
 18 20  1  0
 20 21  1  0
 21 22  1  0
 22 23  1  0
 23 24  1  0
  5 25  2  0
 25 26  1  0
 26 27  1  0
 26 28  2  0
 28 29  1  0
 29 30  3  0
 28  3  1  0
 14  9  1  0
 17 12  1  0
M  END
>  <smiles>  (642) 
C101344-P135

>  <fragmenstein_outcome>  (642) 
acceptable

>  <inchikey>  (642) 
TVMSNQZCMDXHIU-UHFFFAOYSA-N

>  <fragmenstein_mode>  (642) 
expansion

>  <HIPPO Pose ID>  (642) 
17711

>  <Energy>  (642) 
102.384453

>  <fragmenstein_error>  (642) 


>  <tags>  (642) 
{'openbind_xx01zvns2b_c1_fragmenstein', 'fragmenstein_placed'}

>  <ref_pdb>  (642) 
1

>  <scratch_subdir>  (642) 
/opt/xchem-fragalysis-2/maxwin/BulkDock/SCRATCH/511027/C101344-P135

>  <alias>  (642) 
CCc1cc([C@](O)(Nc2ccc3c(c2)CNC3)C(=O)NCCCF)cc(Cl)c1C#N

>  <HIPPO Compound ID>  (642) 
76839

>  <fragmenstein_runtime>  (642) 
5.471253

$$$$
O=C(Nc1ccc2c(c1)CNC2)c1[nH]c(Cl)c2c1cnn2C1CNC1
     RDKit          3D

 25 29  0  0  0  0  0  0  0  0999 V2000
   -7.8621    6.7655  -13.3281 O   0  0  0  0  0  0  0  0  0  0  0  0
   -7.8316    5.6324  -13.5963 C   0  0  0  0  0  0  0  0  0  0  0  0
   -8.0487    4.3936  -12.7138 N   0  0  0  0  0  0  0  0  0  0  0  0
   -8.2490    4.2854  -11.3425 C   0  0  0  0  0  0  0  0  0  0  0  0
   -8.1769    5.4252  -10.5208 C   0  0  0  0  0  0  0  0  0  0  0  0
   -8.3439    5.3257   -9.1385 C   0  0  0  0  0  0  0  0  0  0  0  0
   -8.6295    4.0829   -8.6120 C   0  0  0  0  0  0  0  0  0  0  0  0
   -8.7185    2.9570   -9.4273 C   0  0  0  0  0  0  0  0  0  0  0  0
   -8.4989    3.0292  -10.7914 C   0  0  0  0  0  0  0  0  0  0  0  0
   -9.0685    1.7776   -8.5834 C   0  0  0  0  0  0  0  0  0  0  0  0
   -9.5489    2.3557   -7.2976 N   0  0  0  0  0  0  0  0  0  0  0  0
   -8.8956    3.6793   -7.2016 C   0  0  0  0  0  0  0  0  0  0  0  0
   -7.4480    5.2226  -14.9197 C   0  0  0  0  0  0  0  0  0  0  0  0
   -8.2541    4.6639  -15.9235 N   0  0  0  0  0  0  0  0  0  0  0  0
   -7.4765    4.6368  -17.0823 C   0  0  0  0  0  0  0  0  0  0  0  0
   -8.2702    4.0429  -18.4479 Cl  0  0  0  0  0  0  0  0  0  0  0  0
   -6.2360    5.1069  -16.8599 C   0  0  0  0  0  0  0  0  0  0  0  0
   -6.2385    5.4150  -15.5128 C   0  0  0  0  0  0  0  0  0  0  0  0
   -4.9140    5.8861  -15.3187 C   0  0  0  0  0  0  0  0  0  0  0  0
   -4.1601    5.8441  -16.4552 N   0  0  0  0  0  0  0  0  0  0  0  0
   -5.0325    5.3964  -17.4377 N   0  0  0  0  0  0  0  0  0  0  0  0
   -4.5460    5.3071  -18.8108 C   0  0  0  0  0  0  0  0  0  0  0  0
   -5.4992    5.7909  -19.8860 C   0  0  0  0  0  0  0  0  0  0  0  0
   -4.4485    6.6537  -20.4542 N   0  0  0  0  0  0  0  0  0  0  0  0
   -3.6796    6.5260  -19.2046 C   0  0  0  0  0  0  0  0  0  0  0  0
  1  2  2  0
  2  3  1  0
  3  4  1  0
  4  5  2  0
  5  6  1  0
  6  7  2  0
  7  8  1  0
  8  9  2  0
  8 10  1  0
 10 11  1  0
 11 12  1  0
  2 13  1  0
 13 14  1  0
 14 15  1  0
 15 16  1  0
 15 17  2  0
 17 18  1  0
 18 19  1  0
 19 20  2  0
 20 21  1  0
 21 22  1  0
 22 23  1  0
 23 24  1  0
 24 25  1  0
  9  4  1  0
 18 13  2  0
 25 22  1  0
 12  7  1  0
 21 17  1  0
M  END
>  <smiles>  (643) 
C101347-P135

>  <fragmenstein_outcome>  (643) 
acceptable

>  <inchikey>  (643) 
BECHWKINDWQSLP-UHFFFAOYSA-N

>  <fragmenstein_mode>  (643) 
expansion

>  <HIPPO Pose ID>  (643) 
17713

>  <Energy>  (643) 
93.978229

>  <fragmenstein_error>  (643) 


>  <tags>  (643) 
{'openbind_xx01zvns2b_c1_fragmenstein', 'fragmenstein_placed'}

>  <ref_pdb>  (643) 
1

>  <scratch_subdir>  (643) 
/opt/xchem-fragalysis-2/maxwin/BulkDock/SCRATCH/511027/C101347-P135

>  <alias>  (643) 
O=C(Nc1ccc2c(c1)CNC2)c1[nH]c(Cl)c2c1cnn2C1CNC1

>  <HIPPO Compound ID>  (643) 
97623

>  <fragmenstein_runtime>  (643) 
3.363796

$$$$
CN1CCC(c2[nH]nc3c(C(=O)Nc4ccc5c(c4)CNC5)cc(Cl)c(C#N)c23)CC1
     RDKit          3D

 31 35  0  0  0  0  0  0  0  0999 V2000
   -1.7167    8.5081  -18.4731 C   0  0  0  0  0  0  0  0  0  0  0  0
   -2.7098    7.4492  -18.6587 N   0  0  0  0  0  0  0  0  0  0  0  0
   -3.9062    7.9748  -19.3399 C   0  0  0  0  0  0  0  0  0  0  0  0
   -4.7869    6.8799  -19.9632 C   0  0  0  0  0  0  0  0  0  0  0  0
   -4.5946    5.5020  -19.3191 C   0  0  0  0  0  0  0  0  0  0  0  0
   -5.2034    5.4504  -17.9397 C   0  0  0  0  0  0  0  0  0  0  0  0
   -4.5315    6.0050  -16.8776 N   0  0  0  0  0  0  0  0  0  0  0  0
   -5.1752    5.9462  -15.7101 N   0  0  0  0  0  0  0  0  0  0  0  0
   -6.3572    5.3770  -15.9816 C   0  0  0  0  0  0  0  0  0  0  0  0
   -7.4641    5.1159  -15.1504 C   0  0  0  0  0  0  0  0  0  0  0  0
   -7.5360    5.5609  -13.7525 C   0  0  0  0  0  0  0  0  0  0  0  0
   -7.3630    6.6888  -13.5068 O   0  0  0  0  0  0  0  0  0  0  0  0
   -7.9404    4.3853  -12.8327 N   0  0  0  0  0  0  0  0  0  0  0  0
   -8.1173    4.3364  -11.4529 C   0  0  0  0  0  0  0  0  0  0  0  0
   -7.9816    5.4857  -10.6600 C   0  0  0  0  0  0  0  0  0  0  0  0
   -8.1528    5.4207   -9.2737 C   0  0  0  0  0  0  0  0  0  0  0  0
   -8.4756    4.2002   -8.7089 C   0  0  0  0  0  0  0  0  0  0  0  0
   -8.6313    3.0675   -9.4952 C   0  0  0  0  0  0  0  0  0  0  0  0
   -8.4434    3.1104  -10.8671 C   0  0  0  0  0  0  0  0  0  0  0  0
   -8.9996    1.9080   -8.6367 C   0  0  0  0  0  0  0  0  0  0  0  0
   -9.1399    2.4366   -7.2518 N   0  0  0  0  0  0  0  0  0  0  0  0
   -8.7024    3.8492   -7.2800 C   0  0  0  0  0  0  0  0  0  0  0  0
   -8.5788    4.5417  -15.7905 C   0  0  0  0  0  0  0  0  0  0  0  0
   -8.5791    4.2143  -17.1736 C   0  0  0  0  0  0  0  0  0  0  0  0
  -10.0838    3.7153  -17.8265 Cl  0  0  0  0  0  0  0  0  0  0  0  0
   -7.4695    4.3743  -18.0244 C   0  0  0  0  0  0  0  0  0  0  0  0
   -7.3792    3.8158  -19.3278 C   0  0  0  0  0  0  0  0  0  0  0  0
   -7.2011    3.2704  -20.3402 N   0  0  0  0  0  0  0  0  0  0  0  0
   -6.3896    5.0068  -17.3919 C   0  0  0  0  0  0  0  0  0  0  0  0
   -3.0991    5.1169  -19.3015 C   0  0  0  0  0  0  0  0  0  0  0  0
   -2.1462    6.3158  -19.3928 C   0  0  0  0  0  0  0  0  0  0  0  0
  1  2  1  0
  2  3  1  0
  3  4  1  0
  4  5  1  0
  5  6  1  0
  6  7  1  0
  7  8  1  0
  8  9  2  0
  9 10  1  0
 10 11  1  0
 11 12  2  0
 11 13  1  0
 13 14  1  0
 14 15  2  0
 15 16  1  0
 16 17  2  0
 17 18  1  0
 18 19  2  0
 18 20  1  0
 20 21  1  0
 21 22  1  0
 10 23  2  0
 23 24  1  0
 24 25  1  0
 24 26  2  0
 26 27  1  0
 27 28  3  0
 26 29  1  0
  5 30  1  0
 30 31  1  0
 31  2  1  0
 29  6  2  0
 29  9  1  0
 19 14  1  0
 22 17  1  0
M  END
>  <smiles>  (644) 
C34461-P135

>  <fragmenstein_outcome>  (644) 
acceptable

>  <inchikey>  (644) 
KWPPPLQTQKYRJS-UHFFFAOYSA-N

>  <fragmenstein_mode>  (644) 
expansion

>  <HIPPO Pose ID>  (644) 
17718

>  <Energy>  (644) 
75.390339

>  <fragmenstein_error>  (644) 


>  <tags>  (644) 
{'openbind_xx01zvns2b_c1_fragmenstein', 'fragmenstein_placed'}

>  <ref_pdb>  (644) 
1

>  <scratch_subdir>  (644) 
/opt/xchem-fragalysis-2/maxwin/BulkDock/SCRATCH/511027/C34461-P135

>  <alias>  (644) 
CN1CCC(c2[nH]nc3c(C(=O)Nc4ccc5c(c4)CNC5)cc(Cl)c(C#N)c23)CC1

>  <HIPPO Compound ID>  (644) 
78114

>  <fragmenstein_runtime>  (644) 
4.670127

$$$$
CC(C)NC(=O)[C@@](O)(Nc1ccc2c(c1)CNC2)c1cc(Cl)c(C#N)c(C(F)(F)F)c1
     RDKit          3D

 31 33  0  0  0  0  0  0  0  0999 V2000
   -7.1583    9.9925  -12.9001 C   0  0  0  0  0  0  0  0  0  0  0  0
   -8.2333    8.9637  -12.5789 C   0  0  0  0  0  0  0  0  0  0  0  0
   -8.5918    8.9781  -11.0971 C   0  0  0  0  0  0  0  0  0  0  0  0
   -7.8078    7.6416  -12.9788 N   0  0  0  0  0  0  0  0  0  0  0  0
   -8.6445    6.3927  -13.4045 C   0  0  0  0  0  0  0  0  0  0  0  0
   -9.7995    6.2724  -13.5691 O   0  0  0  0  0  0  0  0  0  0  0  0
   -7.5778    5.2039  -13.6297 C   0  0  1  0  0  0  0  0  0  0  0  0
   -6.2520    5.5216  -13.2433 O   0  0  0  0  0  0  0  0  0  0  0  0
   -7.9208    4.0256  -12.8430 N   0  0  0  0  0  0  0  0  0  0  0  0
   -8.1401    4.0683  -11.4550 C   0  0  0  0  0  0  0  0  0  0  0  0
   -7.8294    5.1693  -10.6270 C   0  0  0  0  0  0  0  0  0  0  0  0
   -8.0443    5.1573   -9.2431 C   0  0  0  0  0  0  0  0  0  0  0  0
   -8.5265    4.0019   -8.6762 C   0  0  0  0  0  0  0  0  0  0  0  0
   -8.7612    2.8785   -9.4564 C   0  0  0  0  0  0  0  0  0  0  0  0
   -8.5701    2.8917  -10.8290 C   0  0  0  0  0  0  0  0  0  0  0  0
   -9.1675    1.7549   -8.5652 C   0  0  0  0  0  0  0  0  0  0  0  0
   -9.5859    2.4074   -7.2948 N   0  0  0  0  0  0  0  0  0  0  0  0
   -8.8343    3.6813   -7.2531 C   0  0  0  0  0  0  0  0  0  0  0  0
   -7.5492    4.8907  -15.1318 C   0  0  0  0  0  0  0  0  0  0  0  0
   -8.6811    4.3839  -15.7780 C   0  0  0  0  0  0  0  0  0  0  0  0
   -8.6801    4.1517  -17.1546 C   0  0  0  0  0  0  0  0  0  0  0  0
  -10.1759    3.7535  -17.8720 Cl  0  0  0  0  0  0  0  0  0  0  0  0
   -7.5353    4.3540  -17.9216 C   0  0  0  0  0  0  0  0  0  0  0  0
   -7.4344    3.8350  -19.2550 C   0  0  0  0  0  0  0  0  0  0  0  0
   -7.2004    3.3203  -20.2704 N   0  0  0  0  0  0  0  0  0  0  0  0
   -6.4251    4.9626  -17.3252 C   0  0  0  0  0  0  0  0  0  0  0  0
   -5.2465    5.3993  -18.1525 C   0  0  0  0  0  0  0  0  0  0  0  0
   -4.3712    6.1624  -17.4377 F   0  0  0  0  0  0  0  0  0  0  0  0
   -5.6067    6.1683  -19.2142 F   0  0  0  0  0  0  0  0  0  0  0  0
   -4.4946    4.3907  -18.6568 F   0  0  0  0  0  0  0  0  0  0  0  0
   -6.4396    5.2079  -15.9366 C   0  0  0  0  0  0  0  0  0  0  0  0
  1  2  1  0
  2  3  1  0
  2  4  1  0
  4  5  1  0
  5  6  2  0
  5  7  1  0
  7  8  1  1
  7  9  1  0
  9 10  1  0
 10 11  2  0
 11 12  1  0
 12 13  2  0
 13 14  1  0
 14 15  2  0
 14 16  1  0
 16 17  1  0
 17 18  1  0
  7 19  1  0
 19 20  2  0
 20 21  1  0
 21 22  1  0
 21 23  2  0
 23 24  1  0
 24 25  3  0
 23 26  1  0
 26 27  1  0
 27 28  1  0
 27 29  1  0
 27 30  1  0
 26 31  2  0
 15 10  1  0
 31 19  1  0
 18 13  1  0
M  END
>  <smiles>  (645) 
C101359-P135

>  <fragmenstein_outcome>  (645) 
acceptable

>  <inchikey>  (645) 
NRWBEPPIDQORFV-UHFFFAOYSA-N

>  <fragmenstein_mode>  (645) 
expansion

>  <HIPPO Pose ID>  (645) 
17719

>  <Energy>  (645) 
99.629418

>  <fragmenstein_error>  (645) 


>  <tags>  (645) 
{'openbind_xx01zvns2b_c1_fragmenstein', 'fragmenstein_placed'}

>  <ref_pdb>  (645) 
1

>  <scratch_subdir>  (645) 
/opt/xchem-fragalysis-2/maxwin/BulkDock/SCRATCH/511027/C101359-P135

>  <alias>  (645) 
CC(C)NC(=O)[C@@](O)(Nc1ccc2c(c1)CNC2)c1cc(Cl)c(C#N)c(C(F)(F)F)c1

>  <HIPPO Compound ID>  (645) 
87654

>  <fragmenstein_runtime>  (645) 
6.141744

$$$$
N#Cc1c(Cl)cc(C(=O)Nc2cc(F)c3c(c2)CN[C@@]32CCCC2=O)c2cnn(C3CNC3)c12
     RDKit          3D

 34 39  0  0  0  0  0  0  0  0999 V2000
   -7.3391    3.2519  -20.2534 N   0  0  0  0  0  0  0  0  0  0  0  0
   -7.5279    3.7887  -19.2402 C   0  0  0  0  0  0  0  0  0  0  0  0
   -7.5847    4.3422  -17.9270 C   0  0  0  0  0  0  0  0  0  0  0  0
   -8.7170    4.2185  -17.1146 C   0  0  0  0  0  0  0  0  0  0  0  0
  -10.2404    3.8358  -17.7963 Cl  0  0  0  0  0  0  0  0  0  0  0  0
   -8.6828    4.5126  -15.7537 C   0  0  0  0  0  0  0  0  0  0  0  0
   -7.5110    5.0013  -15.1744 C   0  0  0  0  0  0  0  0  0  0  0  0
   -7.5115    5.4687  -13.7649 C   0  0  0  0  0  0  0  0  0  0  0  0
   -7.1028    6.5444  -13.5613 O   0  0  0  0  0  0  0  0  0  0  0  0
   -8.1311    4.4295  -12.7960 N   0  0  0  0  0  0  0  0  0  0  0  0
   -8.2836    4.4617  -11.4066 C   0  0  0  0  0  0  0  0  0  0  0  0
   -8.0528    5.6418  -10.6866 C   0  0  0  0  0  0  0  0  0  0  0  0
   -8.1559    5.6533   -9.2940 C   0  0  0  0  0  0  0  0  0  0  0  0
   -7.8740    6.7777   -8.6234 F   0  0  0  0  0  0  0  0  0  0  0  0
   -8.4783    4.4966   -8.6156 C   0  0  0  0  0  0  0  0  0  0  0  0
   -8.7513    3.3364   -9.3387 C   0  0  0  0  0  0  0  0  0  0  0  0
   -8.6620    3.2975  -10.7284 C   0  0  0  0  0  0  0  0  0  0  0  0
   -9.1058    2.2405   -8.3926 C   0  0  0  0  0  0  0  0  0  0  0  0
   -8.6579    2.7066   -7.0559 N   0  0  0  0  0  0  0  0  0  0  0  0
   -8.4103    4.1765   -7.1565 C   0  0  1  0  0  0  0  0  0  0  0  0
   -7.0511    4.6130   -6.5633 C   0  0  0  0  0  0  0  0  0  0  0  0
   -7.2452    4.5774   -5.0573 C   0  0  0  0  0  0  0  0  0  0  0  0
   -8.5940    5.2481   -4.8751 C   0  0  0  0  0  0  0  0  0  0  0  0
   -9.3360    4.8549   -6.1361 C   0  0  0  0  0  0  0  0  0  0  0  0
  -10.5437    5.0471   -6.2210 O   0  0  0  0  0  0  0  0  0  0  0  0
   -6.3805    5.2206  -15.9921 C   0  0  0  0  0  0  0  0  0  0  0  0
   -5.0771    5.7129  -15.7860 C   0  0  0  0  0  0  0  0  0  0  0  0
   -4.3494    5.7253  -16.8991 N   0  0  0  0  0  0  0  0  0  0  0  0
   -5.1854    5.2775  -17.8558 N   0  0  0  0  0  0  0  0  0  0  0  0
   -4.8072    5.3281  -19.2859 C   0  0  0  0  0  0  0  0  0  0  0  0
   -4.9875    6.7219  -19.8995 C   0  0  0  0  0  0  0  0  0  0  0  0
   -3.7281    6.5142  -20.6560 N   0  0  0  0  0  0  0  0  0  0  0  0
   -3.3113    5.5663  -19.5813 C   0  0  0  0  0  0  0  0  0  0  0  0
   -6.4272    4.9068  -17.3586 C   0  0  0  0  0  0  0  0  0  0  0  0
  1  2  3  0
  2  3  1  0
  3  4  2  0
  4  5  1  0
  4  6  1  0
  6  7  2  0
  7  8  1  0
  8  9  2  0
  8 10  1  0
 10 11  1  0
 11 12  2  0
 12 13  1  0
 13 14  1  0
 13 15  2  0
 15 16  1  0
 16 17  2  0
 16 18  1  0
 18 19  1  0
 19 20  1  0
 20 21  1  1
 21 22  1  0
 22 23  1  0
 23 24  1  0
 24 25  2  0
  7 26  1  0
 26 27  1  0
 27 28  2  0
 28 29  1  0
 29 30  1  0
 30 31  1  0
 31 32  1  0
 32 33  1  0
 29 34  1  0
 34  3  1  0
 17 11  1  0
 24 20  1  0
 34 26  2  0
 20 15  1  0
 33 30  1  0
M  END
>  <smiles>  (646) 
C35983-P135

>  <fragmenstein_outcome>  (646) 
acceptable

>  <inchikey>  (646) 
PFAZBKFGCHTNTK-UHFFFAOYSA-N

>  <fragmenstein_mode>  (646) 
expansion

>  <HIPPO Pose ID>  (646) 
17721

>  <Energy>  (646) 
106.406799

>  <fragmenstein_error>  (646) 


>  <tags>  (646) 
{'openbind_xx01zvns2b_c1_fragmenstein', 'fragmenstein_placed'}

>  <ref_pdb>  (646) 
1

>  <scratch_subdir>  (646) 
/opt/xchem-fragalysis-2/maxwin/BulkDock/SCRATCH/511027/C35983-P135

>  <alias>  (646) 
N#Cc1c(Cl)cc(C(=O)Nc2cc(F)c3c(c2)CN[C@@]32CCCC2=O)c2cnn(C3CNC3)c12

>  <HIPPO Compound ID>  (646) 
70568

>  <fragmenstein_runtime>  (646) 
6.466113

$$$$
CN1Cc2ccc(NC(=O)c3cc(Cl)c(C#N)c4c3cnn4C3CNC3)cc2C1
     RDKit          3D

 29 33  0  0  0  0  0  0  0  0999 V2000
   -9.5612    1.9191   -6.4596 C   0  0  0  0  0  0  0  0  0  0  0  0
   -9.6040    2.7781   -7.6187 N   0  0  0  0  0  0  0  0  0  0  0  0
   -8.7529    3.9756   -7.4856 C   0  0  0  0  0  0  0  0  0  0  0  0
   -8.3960    4.3103   -8.8982 C   0  0  0  0  0  0  0  0  0  0  0  0
   -7.9249    5.4889   -9.4402 C   0  0  0  0  0  0  0  0  0  0  0  0
   -7.6784    5.5252  -10.8156 C   0  0  0  0  0  0  0  0  0  0  0  0
   -7.8928    4.3904  -11.6147 C   0  0  0  0  0  0  0  0  0  0  0  0
   -7.6654    4.4159  -12.9858 N   0  0  0  0  0  0  0  0  0  0  0  0
   -7.2694    5.5839  -13.9155 C   0  0  0  0  0  0  0  0  0  0  0  0
   -6.9970    6.6906  -13.6658 O   0  0  0  0  0  0  0  0  0  0  0  0
   -7.3031    5.1648  -15.3304 C   0  0  0  0  0  0  0  0  0  0  0  0
   -8.4640    4.6027  -15.8600 C   0  0  0  0  0  0  0  0  0  0  0  0
   -8.5040    4.2627  -17.2048 C   0  0  0  0  0  0  0  0  0  0  0  0
  -10.0045    3.7138  -17.8207 Cl  0  0  0  0  0  0  0  0  0  0  0  0
   -7.3888    4.4211  -18.0414 C   0  0  0  0  0  0  0  0  0  0  0  0
   -7.3602    3.8359  -19.3391 C   0  0  0  0  0  0  0  0  0  0  0  0
   -7.2535    3.2421  -20.3341 N   0  0  0  0  0  0  0  0  0  0  0  0
   -6.2419    5.0558  -17.5174 C   0  0  0  0  0  0  0  0  0  0  0  0
   -6.2031    5.4314  -16.1666 C   0  0  0  0  0  0  0  0  0  0  0  0
   -4.9409    6.0246  -15.9885 C   0  0  0  0  0  0  0  0  0  0  0  0
   -4.2244    6.0439  -17.1071 N   0  0  0  0  0  0  0  0  0  0  0  0
   -4.9994    5.4255  -18.0199 N   0  0  0  0  0  0  0  0  0  0  0  0
   -4.4811    5.1532  -19.3731 C   0  0  0  0  0  0  0  0  0  0  0  0
   -2.9589    4.8544  -19.4289 C   0  0  0  0  0  0  0  0  0  0  0  0
   -2.9743    5.5277  -20.7651 N   0  0  0  0  0  0  0  0  0  0  0  0
   -4.0918    6.3778  -20.2160 C   0  0  0  0  0  0  0  0  0  0  0  0
   -8.3565    3.1998  -11.0505 C   0  0  0  0  0  0  0  0  0  0  0  0
   -8.6137    3.1851   -9.6939 C   0  0  0  0  0  0  0  0  0  0  0  0
   -9.1389    2.0775   -8.8389 C   0  0  0  0  0  0  0  0  0  0  0  0
  1  2  1  0
  2  3  1  0
  3  4  1  0
  4  5  2  0
  5  6  1  0
  6  7  2  0
  7  8  1  0
  8  9  1  0
  9 10  2  0
  9 11  1  0
 11 12  2  0
 12 13  1  0
 13 14  1  0
 13 15  2  0
 15 16  1  0
 16 17  3  0
 15 18  1  0
 18 19  2  0
 19 20  1  0
 20 21  2  0
 21 22  1  0
 22 23  1  0
 23 24  1  0
 24 25  1  0
 25 26  1  0
  7 27  1  0
 27 28  2  0
 28 29  1  0
 29  2  1  0
 28  4  1  0
 19 11  1  0
 26 23  1  0
 22 18  1  0
M  END
>  <smiles>  (647) 
C37170-P135

>  <fragmenstein_outcome>  (647) 
acceptable

>  <inchikey>  (647) 
XOPZCVYKDHMQHH-UHFFFAOYSA-N

>  <fragmenstein_mode>  (647) 
expansion

>  <HIPPO Pose ID>  (647) 
17723

>  <Energy>  (647) 
76.795246

>  <fragmenstein_error>  (647) 


>  <tags>  (647) 
{'openbind_xx01zvns2b_c1_fragmenstein', 'fragmenstein_placed'}

>  <ref_pdb>  (647) 
1

>  <scratch_subdir>  (647) 
/opt/xchem-fragalysis-2/maxwin/BulkDock/SCRATCH/511027/C37170-P135

>  <alias>  (647) 
CN1Cc2ccc(NC(=O)c3cc(Cl)c(C#N)c4c3cnn4C3CNC3)cc2C1

>  <HIPPO Compound ID>  (647) 
86962

>  <fragmenstein_runtime>  (647) 
4.183379

$$$$
Nn1cnc2c([C@@H](Nc3ccc4c(c3)CNC4)C(F)(F)F)cccc21
     RDKit          3D

 25 28  0  0  0  0  0  0  0  0999 V2000
   -5.6160    5.0504  -19.7684 N   0  0  0  0  0  0  0  0  0  0  0  0
   -5.8373    5.1965  -18.3738 N   0  0  0  0  0  0  0  0  0  0  0  0
   -4.9545    5.7296  -17.4876 C   0  0  0  0  0  0  0  0  0  0  0  0
   -5.4442    5.7330  -16.2703 N   0  0  0  0  0  0  0  0  0  0  0  0
   -6.6871    5.1487  -16.3634 C   0  0  0  0  0  0  0  0  0  0  0  0
   -7.6340    4.8909  -15.3462 C   0  0  0  0  0  0  0  0  0  0  0  0
   -7.4589    5.2423  -13.8591 C   0  0  1  0  0  0  0  0  0  0  0  0
   -7.9246    4.0764  -13.0599 N   0  0  0  0  0  0  0  0  0  0  0  0
   -8.1427    4.1452  -11.6794 C   0  0  0  0  0  0  0  0  0  0  0  0
   -8.2280    5.3470  -10.9468 C   0  0  0  0  0  0  0  0  0  0  0  0
   -8.4033    5.3595   -9.5556 C   0  0  0  0  0  0  0  0  0  0  0  0
   -8.6070    4.1567   -8.9151 C   0  0  0  0  0  0  0  0  0  0  0  0
   -8.6467    2.9705   -9.6336 C   0  0  0  0  0  0  0  0  0  0  0  0
   -8.4008    2.9461  -10.9974 C   0  0  0  0  0  0  0  0  0  0  0  0
   -8.9781    1.8484   -8.7063 C   0  0  0  0  0  0  0  0  0  0  0  0
   -9.4400    2.5076   -7.4502 N   0  0  0  0  0  0  0  0  0  0  0  0
   -8.8293    3.8541   -7.4733 C   0  0  0  0  0  0  0  0  0  0  0  0
   -6.0481    5.7840  -13.4777 C   0  0  0  0  0  0  0  0  0  0  0  0
   -5.8337    7.0110  -14.0234 F   0  0  0  0  0  0  0  0  0  0  0  0
   -5.0410    4.9646  -13.8421 F   0  0  0  0  0  0  0  0  0  0  0  0
   -5.9102    5.9717  -12.1417 F   0  0  0  0  0  0  0  0  0  0  0  0
   -8.8568    4.3171  -15.7790 C   0  0  0  0  0  0  0  0  0  0  0  0
   -9.1222    4.0190  -17.1178 C   0  0  0  0  0  0  0  0  0  0  0  0
   -8.1748    4.2591  -18.1070 C   0  0  0  0  0  0  0  0  0  0  0  0
   -6.9673    4.8256  -17.6924 C   0  0  0  0  0  0  0  0  0  0  0  0
  1  2  1  0
  2  3  1  0
  3  4  2  0
  4  5  1  0
  5  6  2  0
  6  7  1  0
  7  8  1  1
  8  9  1  0
  9 10  2  0
 10 11  1  0
 11 12  2  0
 12 13  1  0
 13 14  2  0
 13 15  1  0
 15 16  1  0
 16 17  1  0
  7 18  1  0
 18 19  1  0
 18 20  1  0
 18 21  1  0
  6 22  1  0
 22 23  2  0
 23 24  1  0
 24 25  2  0
 25  2  1  0
 25  5  1  0
 14  9  1  0
 17 12  1  0
M  END
>  <smiles>  (648) 
C101392-P135

>  <fragmenstein_outcome>  (648) 
acceptable

>  <inchikey>  (648) 
PCCVTWXUXWKWGS-UHFFFAOYSA-N

>  <fragmenstein_mode>  (648) 
expansion

>  <HIPPO Pose ID>  (648) 
17732

>  <Energy>  (648) 
107.738412

>  <fragmenstein_error>  (648) 


>  <tags>  (648) 
{'openbind_xx01zvns2b_c1_fragmenstein', 'fragmenstein_placed'}

>  <ref_pdb>  (648) 
1

>  <scratch_subdir>  (648) 
/opt/xchem-fragalysis-2/maxwin/BulkDock/SCRATCH/511027/C101392-P135

>  <alias>  (648) 
Nn1cnc2c([C@@H](Nc3ccc4c(c3)CNC4)C(F)(F)F)cccc21

>  <HIPPO Compound ID>  (648) 
101392

>  <fragmenstein_runtime>  (648) 
2.62993

$$$$
C=Cn1cnc2c(C(=O)Nc3ccc4c(c3)CNC4)cccc21
     RDKit          3D

 23 26  0  0  0  0  0  0  0  0999 V2000
   -3.6898    5.7050  -19.7026 C   0  0  0  0  0  0  0  0  0  0  0  0
   -4.8868    5.3226  -19.2363 C   0  0  0  0  0  0  0  0  0  0  0  0
   -5.3380    5.3516  -17.9174 N   0  0  0  0  0  0  0  0  0  0  0  0
   -4.6506    5.8103  -16.8148 C   0  0  0  0  0  0  0  0  0  0  0  0
   -5.3497    5.7522  -15.7091 N   0  0  0  0  0  0  0  0  0  0  0  0
   -6.5550    5.2086  -16.0735 C   0  0  0  0  0  0  0  0  0  0  0  0
   -7.6958    4.9197  -15.3051 C   0  0  0  0  0  0  0  0  0  0  0  0
   -7.7732    5.3901  -13.9079 C   0  0  0  0  0  0  0  0  0  0  0  0
   -7.7147    6.5383  -13.7044 O   0  0  0  0  0  0  0  0  0  0  0  0
   -8.0270    4.2131  -12.9398 N   0  0  0  0  0  0  0  0  0  0  0  0
   -8.1627    4.1948  -11.5545 C   0  0  0  0  0  0  0  0  0  0  0  0
   -8.0128    5.3671  -10.7941 C   0  0  0  0  0  0  0  0  0  0  0  0
   -8.1775    5.3481   -9.4051 C   0  0  0  0  0  0  0  0  0  0  0  0
   -8.5144    4.1494   -8.8069 C   0  0  0  0  0  0  0  0  0  0  0  0
   -8.6633    2.9878   -9.5590 C   0  0  0  0  0  0  0  0  0  0  0  0
   -8.4722    2.9851  -10.9298 C   0  0  0  0  0  0  0  0  0  0  0  0
   -9.0309    1.8629   -8.6497 C   0  0  0  0  0  0  0  0  0  0  0  0
   -9.4524    2.5172   -7.3794 N   0  0  0  0  0  0  0  0  0  0  0  0
   -8.7677    3.8298   -7.3727 C   0  0  0  0  0  0  0  0  0  0  0  0
   -8.8071    4.3104  -15.9072 C   0  0  0  0  0  0  0  0  0  0  0  0
   -8.8015    4.0313  -17.2723 C   0  0  0  0  0  0  0  0  0  0  0  0
   -7.6941    4.3491  -18.0674 C   0  0  0  0  0  0  0  0  0  0  0  0
   -6.5764    4.9295  -17.4413 C   0  0  0  0  0  0  0  0  0  0  0  0
  1  2  2  0
  2  3  1  0
  3  4  1  0
  4  5  2  0
  5  6  1  0
  6  7  2  0
  7  8  1  0
  8  9  2  0
  8 10  1  0
 10 11  1  0
 11 12  2  0
 12 13  1  0
 13 14  2  0
 14 15  1  0
 15 16  2  0
 15 17  1  0
 17 18  1  0
 18 19  1  0
  7 20  1  0
 20 21  2  0
 21 22  1  0
 22 23  2  0
 23  3  1  0
 23  6  1  0
 16 11  1  0
 19 14  1  0
M  END
>  <smiles>  (649) 
C101405-P135

>  <fragmenstein_outcome>  (649) 
acceptable

>  <inchikey>  (649) 
KHWSQOHAMZDNLQ-UHFFFAOYSA-N

>  <fragmenstein_mode>  (649) 
expansion

>  <HIPPO Pose ID>  (649) 
17736

>  <Energy>  (649) 
80.540123

>  <fragmenstein_error>  (649) 


>  <tags>  (649) 
{'openbind_xx01zvns2b_c1_fragmenstein', 'fragmenstein_placed'}

>  <ref_pdb>  (649) 
1

>  <scratch_subdir>  (649) 
/opt/xchem-fragalysis-2/maxwin/BulkDock/SCRATCH/511027/C101405-P135

>  <alias>  (649) 
C=Cn1cnc2c(C(=O)Nc3ccc4c(c3)CNC4)cccc21

>  <HIPPO Compound ID>  (649) 
81895

>  <fragmenstein_runtime>  (649) 
3.501228

$$$$
C[C@H]1c2cc(NC(=O)c3cc(Cl)cc4c3ncn4NC(C)(C)CO)cc(O)c2CN1C
     RDKit          3D

 31 34  0  0  0  0  0  0  0  0999 V2000
   -9.9123    1.8309   -8.4993 C   0  0  0  0  0  0  0  0  0  0  0  0
   -8.8475    2.8236   -8.1390 C   0  0  1  0  0  0  0  0  0  0  0  0
   -8.5359    3.8259   -9.2126 C   0  0  0  0  0  0  0  0  0  0  0  0
   -8.3311    3.6518  -10.5755 C   0  0  0  0  0  0  0  0  0  0  0  0
   -8.0226    4.7820  -11.3358 C   0  0  0  0  0  0  0  0  0  0  0  0
   -7.7634    4.6520  -12.6975 N   0  0  0  0  0  0  0  0  0  0  0  0
   -7.4308    5.7203  -13.7614 C   0  0  0  0  0  0  0  0  0  0  0  0
   -7.2461    6.8679  -13.6499 O   0  0  0  0  0  0  0  0  0  0  0  0
   -7.3355    5.1505  -15.1125 C   0  0  0  0  0  0  0  0  0  0  0  0
   -8.4635    4.6196  -15.7434 C   0  0  0  0  0  0  0  0  0  0  0  0
   -8.4175    4.3643  -17.1117 C   0  0  0  0  0  0  0  0  0  0  0  0
   -9.8425    3.8220  -17.8952 Cl  0  0  0  0  0  0  0  0  0  0  0  0
   -7.2790    4.6295  -17.8863 C   0  0  0  0  0  0  0  0  0  0  0  0
   -6.1481    5.1113  -17.2128 C   0  0  0  0  0  0  0  0  0  0  0  0
   -6.1461    5.3414  -15.8357 C   0  0  0  0  0  0  0  0  0  0  0  0
   -4.8995    5.7330  -15.4074 N   0  0  0  0  0  0  0  0  0  0  0  0
   -4.1477    5.7094  -16.4793 C   0  0  0  0  0  0  0  0  0  0  0  0
   -4.8808    5.4786  -17.6080 N   0  0  0  0  0  0  0  0  0  0  0  0
   -4.3620    5.4541  -18.9423 N   0  0  0  0  0  0  0  0  0  0  0  0
   -3.9904    6.7878  -19.4961 C   0  0  0  0  0  0  0  0  0  0  0  0
   -3.4030    6.4805  -20.8931 C   0  0  0  0  0  0  0  0  0  0  0  0
   -2.8779    7.5071  -18.7099 C   0  0  0  0  0  0  0  0  0  0  0  0
   -5.2082    7.7253  -19.7272 C   0  0  0  0  0  0  0  0  0  0  0  0
   -5.8873    8.1746  -18.5604 O   0  0  0  0  0  0  0  0  0  0  0  0
   -7.9457    6.0485  -10.7294 C   0  0  0  0  0  0  0  0  0  0  0  0
   -8.1506    6.1995   -9.3638 C   0  0  0  0  0  0  0  0  0  0  0  0
   -8.0867    7.4489   -8.8280 O   0  0  0  0  0  0  0  0  0  0  0  0
   -8.4179    5.0835   -8.6100 C   0  0  0  0  0  0  0  0  0  0  0  0
   -8.5853    4.9404   -7.1356 C   0  0  0  0  0  0  0  0  0  0  0  0
   -9.2859    3.6629   -6.9917 N   0  0  0  0  0  0  0  0  0  0  0  0
   -9.0758    3.0411   -5.7045 C   0  0  0  0  0  0  0  0  0  0  0  0
  2  1  1  6
  2  3  1  0
  3  4  2  0
  4  5  1  0
  5  6  1  0
  6  7  1  0
  7  8  2  0
  7  9  1  0
  9 10  2  0
 10 11  1  0
 11 12  1  0
 11 13  2  0
 13 14  1  0
 14 15  2  0
 15 16  1  0
 16 17  2  0
 17 18  1  0
 18 19  1  0
 19 20  1  0
 20 21  1  0
 20 22  1  0
 20 23  1  0
 23 24  1  0
  5 25  2  0
 25 26  1  0
 26 27  1  0
 26 28  2  0
 28 29  1  0
 29 30  1  0
 30 31  1  0
 30  2  1  0
 28  3  1  0
 15  9  1  0
 18 14  1  0
M  END
>  <smiles>  (650) 
C101439-P135

>  <fragmenstein_outcome>  (650) 
acceptable

>  <inchikey>  (650) 
MTRODLIUBCTTOD-UHFFFAOYSA-N

>  <fragmenstein_mode>  (650) 
expansion

>  <HIPPO Pose ID>  (650) 
17738

>  <Energy>  (650) 
79.758928

>  <fragmenstein_error>  (650) 


>  <tags>  (650) 
{'openbind_xx01zvns2b_c1_fragmenstein', 'fragmenstein_placed'}

>  <ref_pdb>  (650) 
1

>  <scratch_subdir>  (650) 
/opt/xchem-fragalysis-2/maxwin/BulkDock/SCRATCH/511027/C101439-P135

>  <alias>  (650) 
C[C@H]1c2cc(NC(=O)c3cc(Cl)cc4c3ncn4NC(C)(C)CO)cc(O)c2CN1C

>  <HIPPO Compound ID>  (650) 
97109

>  <fragmenstein_runtime>  (650) 
10.731662

$$$$
Cc1ccc(C(=O)C(=O)c2ccc3c(c2)CNC3)c2ncn(C)c12
     RDKit          3D

 24 27  0  0  0  0  0  0  0  0999 V2000
   -8.3695    3.8232  -19.0782 C   0  0  0  0  0  0  0  0  0  0  0  0
   -8.0436    4.2990  -17.7039 C   0  0  0  0  0  0  0  0  0  0  0  0
   -9.0424    4.1125  -16.7351 C   0  0  0  0  0  0  0  0  0  0  0  0
   -8.8210    4.3851  -15.3974 C   0  0  0  0  0  0  0  0  0  0  0  0
   -7.5808    4.8670  -14.9689 C   0  0  0  0  0  0  0  0  0  0  0  0
   -7.3388    5.0697  -13.5304 C   0  0  0  0  0  0  0  0  0  0  0  0
   -6.8106    6.0886  -13.1137 O   0  0  0  0  0  0  0  0  0  0  0  0
   -7.8061    3.9687  -12.5934 C   0  0  0  0  0  0  0  0  0  0  0  0
   -8.0022    2.8612  -13.0815 O   0  0  0  0  0  0  0  0  0  0  0  0
   -8.0673    4.1401  -11.1521 C   0  0  0  0  0  0  0  0  0  0  0  0
   -7.9240    5.3545  -10.4605 C   0  0  0  0  0  0  0  0  0  0  0  0
   -8.1683    5.4174   -9.0825 C   0  0  0  0  0  0  0  0  0  0  0  0
   -8.5743    4.2659   -8.4300 C   0  0  0  0  0  0  0  0  0  0  0  0
   -8.7416    3.0719   -9.1156 C   0  0  0  0  0  0  0  0  0  0  0  0
   -8.4837    2.9869  -10.4648 C   0  0  0  0  0  0  0  0  0  0  0  0
   -9.1782    2.0023   -8.1764 C   0  0  0  0  0  0  0  0  0  0  0  0
   -9.5673    2.7212   -6.9335 N   0  0  0  0  0  0  0  0  0  0  0  0
   -8.8720    4.0267   -6.9889 C   0  0  0  0  0  0  0  0  0  0  0  0
   -6.5811    5.1452  -15.9160 C   0  0  0  0  0  0  0  0  0  0  0  0
   -5.3047    5.6374  -15.7502 N   0  0  0  0  0  0  0  0  0  0  0  0
   -4.8019    5.7234  -16.9548 C   0  0  0  0  0  0  0  0  0  0  0  0
   -5.6936    5.3135  -17.9031 N   0  0  0  0  0  0  0  0  0  0  0  0
   -5.4763    5.4671  -19.3159 C   0  0  0  0  0  0  0  0  0  0  0  0
   -6.8372    4.8831  -17.2702 C   0  0  0  0  0  0  0  0  0  0  0  0
  1  2  1  0
  2  3  2  0
  3  4  1  0
  4  5  2  0
  5  6  1  0
  6  7  2  0
  6  8  1  0
  8  9  2  0
  8 10  1  0
 10 11  2  0
 11 12  1  0
 12 13  2  0
 13 14  1  0
 14 15  2  0
 14 16  1  0
 16 17  1  0
 17 18  1  0
  5 19  1  0
 19 20  1  0
 20 21  2  0
 21 22  1  0
 22 23  1  0
 22 24  1  0
 24  2  1  0
 15 10  1  0
 24 19  2  0
 18 13  1  0
M  END
>  <smiles>  (651) 
C101450-P135

>  <fragmenstein_outcome>  (651) 
acceptable

>  <inchikey>  (651) 
XCGNXGDSCHKWNU-UHFFFAOYSA-N

>  <fragmenstein_mode>  (651) 
expansion

>  <HIPPO Pose ID>  (651) 
17739

>  <Energy>  (651) 
112.128273

>  <fragmenstein_error>  (651) 


>  <tags>  (651) 
{'openbind_xx01zvns2b_c1_fragmenstein', 'fragmenstein_placed'}

>  <ref_pdb>  (651) 
1

>  <scratch_subdir>  (651) 
/opt/xchem-fragalysis-2/maxwin/BulkDock/SCRATCH/511027/C101450-P135

>  <alias>  (651) 
Cc1ccc(C(=O)C(=O)c2ccc3c(c2)CNC3)c2ncn(C)c12

>  <HIPPO Compound ID>  (651) 
101450

>  <fragmenstein_runtime>  (651) 
4.005772

$$$$
Cc1cc2c(cc1NC(O)(O)c1cccc3[nH]cnc13)CNC2
     RDKit          3D

 23 26  0  0  0  0  0  0  0  0999 V2000
   -8.0369    6.8884  -11.3726 C   0  0  0  0  0  0  0  0  0  0  0  0
   -8.2044    5.4736  -10.8867 C   0  0  0  0  0  0  0  0  0  0  0  0
   -8.3049    5.3668   -9.4730 C   0  0  0  0  0  0  0  0  0  0  0  0
   -8.5207    4.1422   -8.8811 C   0  0  0  0  0  0  0  0  0  0  0  0
   -8.6195    3.0090   -9.6535 C   0  0  0  0  0  0  0  0  0  0  0  0
   -8.4583    3.0686  -11.0305 C   0  0  0  0  0  0  0  0  0  0  0  0
   -8.2730    4.3065  -11.7013 C   0  0  0  0  0  0  0  0  0  0  0  0
   -8.0711    4.1878  -13.0887 N   0  0  0  0  0  0  0  0  0  0  0  0
   -8.1543    5.2282  -14.0691 C   0  0  0  0  0  0  0  0  0  0  0  0
   -7.1642    6.1959  -13.8409 O   0  0  0  0  0  0  0  0  0  0  0  0
   -9.4439    5.8299  -13.9764 O   0  0  0  0  0  0  0  0  0  0  0  0
   -8.0365    4.6996  -15.5025 C   0  0  0  0  0  0  0  0  0  0  0  0
   -9.1356    4.0209  -16.0863 C   0  0  0  0  0  0  0  0  0  0  0  0
   -9.2126    3.7285  -17.4486 C   0  0  0  0  0  0  0  0  0  0  0  0
   -8.1771    4.0636  -18.3098 C   0  0  0  0  0  0  0  0  0  0  0  0
   -7.0709    4.6784  -17.7338 C   0  0  0  0  0  0  0  0  0  0  0  0
   -5.9087    5.1421  -18.2913 N   0  0  0  0  0  0  0  0  0  0  0  0
   -5.1506    5.6786  -17.2915 C   0  0  0  0  0  0  0  0  0  0  0  0
   -5.7652    5.6204  -16.1307 N   0  0  0  0  0  0  0  0  0  0  0  0
   -6.9664    4.9831  -16.3810 C   0  0  0  0  0  0  0  0  0  0  0  0
   -8.9020    1.8358   -8.7826 C   0  0  0  0  0  0  0  0  0  0  0  0
   -9.0212    2.3586   -7.3907 N   0  0  0  0  0  0  0  0  0  0  0  0
   -8.6854    3.7969   -7.4451 C   0  0  0  0  0  0  0  0  0  0  0  0
  1  2  1  0
  2  3  2  0
  3  4  1  0
  4  5  2  0
  5  6  1  0
  6  7  2  0
  7  8  1  0
  8  9  1  0
  9 10  1  0
  9 11  1  0
  9 12  1  0
 12 13  2  0
 13 14  1  0
 14 15  2  0
 15 16  1  0
 16 17  1  0
 17 18  1  0
 18 19  2  0
 19 20  1  0
  5 21  1  0
 21 22  1  0
 22 23  1  0
  7  2  1  0
 20 12  1  0
 23  4  1  0
 20 16  2  0
M  END
>  <smiles>  (652) 
C101468-P135

>  <fragmenstein_outcome>  (652) 
acceptable

>  <inchikey>  (652) 
NOBFNGRKOFJGHF-UHFFFAOYSA-N

>  <fragmenstein_mode>  (652) 
expansion

>  <HIPPO Pose ID>  (652) 
17743

>  <Energy>  (652) 
-66.229245

>  <fragmenstein_error>  (652) 


>  <tags>  (652) 
{'openbind_xx01zvns2b_c1_fragmenstein', 'fragmenstein_placed'}

>  <ref_pdb>  (652) 
1

>  <scratch_subdir>  (652) 
/opt/xchem-fragalysis-2/maxwin/BulkDock/SCRATCH/511027/C101468-P135

>  <alias>  (652) 
Cc1cc2c(cc1NC(O)(O)c1cccc3[nH]cnc13)CNC2

>  <HIPPO Compound ID>  (652) 
89137

>  <fragmenstein_runtime>  (652) 
3.079368

$$$$
N[C@H]1NCc2ccc(NC(=O)c3cc(Cl)cc4c3ncn4N)cc21
     RDKit          3D

 24 27  0  0  0  0  0  0  0  0999 V2000
   -9.3496    1.0987   -8.6945 N   0  0  0  0  0  0  0  0  0  0  0  0
   -9.4553    2.4986   -8.5311 C   0  0  1  0  0  0  0  0  0  0  0  0
   -8.8746    2.8152   -7.2272 N   0  0  0  0  0  0  0  0  0  0  0  0
   -8.4366    4.2253   -7.3544 C   0  0  0  0  0  0  0  0  0  0  0  0
   -8.1902    4.4273   -8.8128 C   0  0  0  0  0  0  0  0  0  0  0  0
   -7.5766    5.4765   -9.4631 C   0  0  0  0  0  0  0  0  0  0  0  0
   -7.4603    5.4086  -10.8534 C   0  0  0  0  0  0  0  0  0  0  0  0
   -7.9414    4.3007  -11.5721 C   0  0  0  0  0  0  0  0  0  0  0  0
   -7.7832    4.2415  -12.9584 N   0  0  0  0  0  0  0  0  0  0  0  0
   -7.1767    5.2733  -13.9495 C   0  0  0  0  0  0  0  0  0  0  0  0
   -6.6474    6.2965  -13.7484 O   0  0  0  0  0  0  0  0  0  0  0  0
   -7.3659    4.8657  -15.3657 C   0  0  0  0  0  0  0  0  0  0  0  0
   -8.6253    4.4343  -15.8127 C   0  0  0  0  0  0  0  0  0  0  0  0
   -8.8490    4.2352  -17.1722 C   0  0  0  0  0  0  0  0  0  0  0  0
  -10.4333    3.9426  -17.7405 Cl  0  0  0  0  0  0  0  0  0  0  0  0
   -7.8506    4.4114  -18.1259 C   0  0  0  0  0  0  0  0  0  0  0  0
   -6.6141    4.8647  -17.6681 C   0  0  0  0  0  0  0  0  0  0  0  0
   -6.3402    5.0887  -16.3149 C   0  0  0  0  0  0  0  0  0  0  0  0
   -5.0376    5.5232  -16.1669 N   0  0  0  0  0  0  0  0  0  0  0  0
   -4.5418    5.5826  -17.3822 C   0  0  0  0  0  0  0  0  0  0  0  0
   -5.4636    5.2234  -18.3205 N   0  0  0  0  0  0  0  0  0  0  0  0
   -5.2769    5.2737  -19.7379 N   0  0  0  0  0  0  0  0  0  0  0  0
   -8.5870    3.2561  -10.8983 C   0  0  0  0  0  0  0  0  0  0  0  0
   -8.7218    3.3475   -9.5178 C   0  0  0  0  0  0  0  0  0  0  0  0
  2  1  1  6
  2  3  1  0
  3  4  1  0
  4  5  1  0
  5  6  2  0
  6  7  1  0
  7  8  2  0
  8  9  1  0
  9 10  1  0
 10 11  2  0
 10 12  1  0
 12 13  2  0
 13 14  1  0
 14 15  1  0
 14 16  2  0
 16 17  1  0
 17 18  2  0
 18 19  1  0
 19 20  2  0
 20 21  1  0
 21 22  1  0
  8 23  1  0
 23 24  2  0
 24  2  1  0
 24  5  1  0
 18 12  1  0
 21 17  1  0
M  END
>  <smiles>  (653) 
C101472-P135

>  <fragmenstein_outcome>  (653) 
acceptable

>  <inchikey>  (653) 
LKCNNKZLXPYQRJ-UHFFFAOYSA-N

>  <fragmenstein_mode>  (653) 
expansion

>  <HIPPO Pose ID>  (653) 
17744

>  <Energy>  (653) 
-25.3053

>  <fragmenstein_error>  (653) 


>  <tags>  (653) 
{'openbind_xx01zvns2b_c1_fragmenstein', 'fragmenstein_placed'}

>  <ref_pdb>  (653) 
1

>  <scratch_subdir>  (653) 
/opt/xchem-fragalysis-2/maxwin/BulkDock/SCRATCH/511027/C101472-P135

>  <alias>  (653) 
N[C@H]1NCc2ccc(NC(=O)c3cc(Cl)cc4c3ncn4N)cc21

>  <HIPPO Compound ID>  (653) 
101472

>  <fragmenstein_runtime>  (653) 
2.589616

$$$$
CCc1cc(C(=O)Nc2ccc3c(c2)CNC3)c2ncn(C)c2c1
     RDKit          3D

 24 27  0  0  0  0  0  0  0  0999 V2000
  -10.7269    4.2829  -17.9963 C   0  0  0  0  0  0  0  0  0  0  0  0
   -9.5001    3.4087  -17.9271 C   0  0  0  0  0  0  0  0  0  0  0  0
   -8.3456    4.1229  -17.2998 C   0  0  0  0  0  0  0  0  0  0  0  0
   -8.3188    4.3959  -15.9246 C   0  0  0  0  0  0  0  0  0  0  0  0
   -7.2186    5.0563  -15.3524 C   0  0  0  0  0  0  0  0  0  0  0  0
   -7.2665    5.4970  -13.9394 C   0  0  0  0  0  0  0  0  0  0  0  0
   -7.0823    6.6264  -13.7027 O   0  0  0  0  0  0  0  0  0  0  0  0
   -7.6235    4.3188  -12.9980 N   0  0  0  0  0  0  0  0  0  0  0  0
   -7.9105    4.3049  -11.6329 C   0  0  0  0  0  0  0  0  0  0  0  0
   -7.8267    5.4770  -10.8649 C   0  0  0  0  0  0  0  0  0  0  0  0
   -8.0666    5.4523   -9.4867 C   0  0  0  0  0  0  0  0  0  0  0  0
   -8.4022    4.2461   -8.9004 C   0  0  0  0  0  0  0  0  0  0  0  0
   -8.5253    3.0927   -9.6617 C   0  0  0  0  0  0  0  0  0  0  0  0
   -8.2747    3.0981  -11.0272 C   0  0  0  0  0  0  0  0  0  0  0  0
   -8.9408    1.9610   -8.7860 C   0  0  0  0  0  0  0  0  0  0  0  0
   -8.9918    2.4933   -7.3954 N   0  0  0  0  0  0  0  0  0  0  0  0
   -8.6731    3.9357   -7.4702 C   0  0  0  0  0  0  0  0  0  0  0  0
   -6.1321    5.4105  -16.1739 C   0  0  0  0  0  0  0  0  0  0  0  0
   -4.9233    6.0072  -15.8875 N   0  0  0  0  0  0  0  0  0  0  0  0
   -4.2976    6.1233  -17.0358 C   0  0  0  0  0  0  0  0  0  0  0  0
   -5.0504    5.6456  -18.0646 N   0  0  0  0  0  0  0  0  0  0  0  0
   -4.7027    5.6979  -19.4608 C   0  0  0  0  0  0  0  0  0  0  0  0
   -6.2126    5.1483  -17.5407 C   0  0  0  0  0  0  0  0  0  0  0  0
   -7.3002    4.5215  -18.1334 C   0  0  0  0  0  0  0  0  0  0  0  0
  1  2  1  0
  2  3  1  0
  3  4  2  0
  4  5  1  0
  5  6  1  0
  6  7  2  0
  6  8  1  0
  8  9  1  0
  9 10  2  0
 10 11  1  0
 11 12  2  0
 12 13  1  0
 13 14  2  0
 13 15  1  0
 15 16  1  0
 16 17  1  0
  5 18  2  0
 18 19  1  0
 19 20  2  0
 20 21  1  0
 21 22  1  0
 21 23  1  0
 23 24  2  0
 24  3  1  0
 14  9  1  0
 23 18  1  0
 17 12  1  0
M  END
>  <smiles>  (654) 
C39553-P135

>  <fragmenstein_outcome>  (654) 
acceptable

>  <inchikey>  (654) 
QYEJIAPDMZXYAN-UHFFFAOYSA-N

>  <fragmenstein_mode>  (654) 
expansion

>  <HIPPO Pose ID>  (654) 
17746

>  <Energy>  (654) 
66.283643

>  <fragmenstein_error>  (654) 


>  <tags>  (654) 
{'openbind_xx01zvns2b_c1_fragmenstein', 'fragmenstein_placed'}

>  <ref_pdb>  (654) 
1

>  <scratch_subdir>  (654) 
/opt/xchem-fragalysis-2/maxwin/BulkDock/SCRATCH/511027/C39553-P135

>  <alias>  (654) 
CCc1cc(C(=O)Nc2ccc3c(c2)CNC3)c2ncn(C)c2c1

>  <HIPPO Compound ID>  (654) 
39553

>  <fragmenstein_runtime>  (654) 
3.529274

$$$$
O=C1N=c2cccc(C(=O)Nc3ccc4c(c3)CNC4)c2=N1
     RDKit          3D

 22 25  0  0  0  0  0  0  0  0999 V2000
   -3.4813    5.5781  -17.3783 O   0  0  0  0  0  0  0  0  0  0  0  0
   -4.6750    5.3709  -17.2185 C   0  0  0  0  0  0  0  0  0  0  0  0
   -5.5169    5.0036  -18.2536 N   0  0  0  0  0  0  0  0  0  0  0  0
   -6.6269    4.7453  -17.6620 C   0  0  0  0  0  0  0  0  0  0  0  0
   -7.8945    4.2367  -18.1845 C   0  0  0  0  0  0  0  0  0  0  0  0
   -8.8827    4.0312  -17.3028 C   0  0  0  0  0  0  0  0  0  0  0  0
   -8.7669    4.3509  -15.8912 C   0  0  0  0  0  0  0  0  0  0  0  0
   -7.6442    4.8359  -15.3297 C   0  0  0  0  0  0  0  0  0  0  0  0
   -7.6608    5.3652  -13.9412 C   0  0  0  0  0  0  0  0  0  0  0  0
   -7.4154    6.4882  -13.7333 O   0  0  0  0  0  0  0  0  0  0  0  0
   -8.0779    4.2314  -12.9697 N   0  0  0  0  0  0  0  0  0  0  0  0
   -8.1827    4.2234  -11.5796 C   0  0  0  0  0  0  0  0  0  0  0  0
   -7.9920    5.3961  -10.8320 C   0  0  0  0  0  0  0  0  0  0  0  0
   -8.1073    5.3836   -9.4384 C   0  0  0  0  0  0  0  0  0  0  0  0
   -8.4170    4.1882   -8.8162 C   0  0  0  0  0  0  0  0  0  0  0  0
   -8.6132    3.0283   -9.5524 C   0  0  0  0  0  0  0  0  0  0  0  0
   -8.4955    3.0238  -10.9341 C   0  0  0  0  0  0  0  0  0  0  0  0
   -8.9676    1.9086   -8.6351 C   0  0  0  0  0  0  0  0  0  0  0  0
   -8.8734    2.4506   -7.2517 N   0  0  0  0  0  0  0  0  0  0  0  0
   -8.6201    3.9031   -7.3698 C   0  0  0  0  0  0  0  0  0  0  0  0
   -6.4874    5.0311  -16.2101 C   0  0  0  0  0  0  0  0  0  0  0  0
   -5.2866    5.4278  -15.9752 N   0  0  0  0  0  0  0  0  0  0  0  0
  1  2  2  0
  2  3  1  0
  3  4  2  0
  4  5  1  0
  5  6  2  0
  6  7  1  0
  7  8  2  0
  8  9  1  0
  9 10  2  0
  9 11  1  0
 11 12  1  0
 12 13  2  0
 13 14  1  0
 14 15  2  0
 15 16  1  0
 16 17  2  0
 16 18  1  0
 18 19  1  0
 19 20  1  0
  8 21  1  0
 21 22  2  0
 22  2  1  0
 21  4  1  0
 17 12  1  0
 20 15  1  0
M  END
>  <smiles>  (655) 
C101481-P136

>  <fragmenstein_outcome>  (655) 
acceptable

>  <inchikey>  (655) 
NWXWLUAVIFFVKN-UHFFFAOYSA-N

>  <fragmenstein_mode>  (655) 
expansion

>  <HIPPO Pose ID>  (655) 
17750

>  <Energy>  (655) 
12.350579

>  <fragmenstein_error>  (655) 


>  <tags>  (655) 
{'openbind_xx01zvns2b_c1_fragmenstein', 'fragmenstein_placed'}

>  <ref_pdb>  (655) 
1

>  <scratch_subdir>  (655) 
/opt/xchem-fragalysis-2/maxwin/BulkDock/SCRATCH/511027/C101481-P136

>  <alias>  (655) 
O=C1N=c2cccc(C(=O)Nc3ccc4c(c3)CNC4)c2=N1

>  <HIPPO Compound ID>  (655) 
83993

>  <fragmenstein_runtime>  (655) 
2.083995

$$$$
CCc1nc2c([C@@](O)(Nc3ccc4c(c3)CNC4)C(=O)NCC(F)F)cc(Cl)cc2[nH]1
     RDKit          3D

 31 34  0  0  0  0  0  0  0  0999 V2000
   -3.4236    7.8691  -17.7925 C   0  0  0  0  0  0  0  0  0  0  0  0
   -3.4547    6.3591  -17.9642 C   0  0  0  0  0  0  0  0  0  0  0  0
   -4.7464    5.7880  -17.4904 C   0  0  0  0  0  0  0  0  0  0  0  0
   -5.1985    5.7172  -16.2511 N   0  0  0  0  0  0  0  0  0  0  0  0
   -6.4422    5.1267  -16.3259 C   0  0  0  0  0  0  0  0  0  0  0  0
   -7.3721    4.8140  -15.3041 C   0  0  0  0  0  0  0  0  0  0  0  0
   -7.1099    5.0161  -13.8065 C   0  0  1  0  0  0  0  0  0  0  0  0
   -7.1351    6.4250  -13.6092 O   0  0  0  0  0  0  0  0  0  0  0  0
   -8.2133    4.3869  -13.0303 N   0  0  0  0  0  0  0  0  0  0  0  0
   -8.2382    4.3793  -11.6241 C   0  0  0  0  0  0  0  0  0  0  0  0
   -8.1697    5.5475  -10.8456 C   0  0  0  0  0  0  0  0  0  0  0  0
   -8.2408    5.5060   -9.4455 C   0  0  0  0  0  0  0  0  0  0  0  0
   -8.4418    4.2854   -8.8299 C   0  0  0  0  0  0  0  0  0  0  0  0
   -8.5847    3.1317   -9.5801 C   0  0  0  0  0  0  0  0  0  0  0  0
   -8.4838    3.1605  -10.9626 C   0  0  0  0  0  0  0  0  0  0  0  0
   -8.8961    1.9819   -8.6855 C   0  0  0  0  0  0  0  0  0  0  0  0
   -8.8061    2.5020   -7.2913 N   0  0  0  0  0  0  0  0  0  0  0  0
   -8.6152    3.9656   -7.3873 C   0  0  0  0  0  0  0  0  0  0  0  0
   -5.6976    4.3721  -13.3242 C   0  0  0  0  0  0  0  0  0  0  0  0
   -5.6207    3.3047  -12.8544 O   0  0  0  0  0  0  0  0  0  0  0  0
   -4.6110    5.4649  -13.5222 N   0  0  0  0  0  0  0  0  0  0  0  0
   -3.1920    5.4302  -13.2695 C   0  0  0  0  0  0  0  0  0  0  0  0
   -2.3220    5.3436  -14.5161 C   0  0  0  0  0  0  0  0  0  0  0  0
   -2.2625    6.5616  -15.1166 F   0  0  0  0  0  0  0  0  0  0  0  0
   -2.8075    4.4661  -15.4211 F   0  0  0  0  0  0  0  0  0  0  0  0
   -8.6589    4.4244  -15.7728 C   0  0  0  0  0  0  0  0  0  0  0  0
   -8.9492    4.2669  -17.1272 C   0  0  0  0  0  0  0  0  0  0  0  0
  -10.5656    4.0657  -17.6374 Cl  0  0  0  0  0  0  0  0  0  0  0  0
   -7.9831    4.4195  -18.1040 C   0  0  0  0  0  0  0  0  0  0  0  0
   -6.7600    4.8938  -17.6609 C   0  0  0  0  0  0  0  0  0  0  0  0
   -5.6531    5.2648  -18.3710 N   0  0  0  0  0  0  0  0  0  0  0  0
  1  2  1  0
  2  3  1  0
  3  4  2  0
  4  5  1  0
  5  6  2  0
  6  7  1  0
  7  8  1  6
  7  9  1  0
  9 10  1  0
 10 11  2  0
 11 12  1  0
 12 13  2  0
 13 14  1  0
 14 15  2  0
 14 16  1  0
 16 17  1  0
 17 18  1  0
  7 19  1  0
 19 20  2  0
 19 21  1  0
 21 22  1  0
 22 23  1  0
 23 24  1  0
 23 25  1  0
  6 26  1  0
 26 27  2  0
 27 28  1  0
 27 29  1  0
 29 30  2  0
 30 31  1  0
 31  3  1  0
 30  5  1  0
 15 10  1  0
 18 13  1  0
M  END
>  <smiles>  (656) 
C101499-P136

>  <fragmenstein_outcome>  (656) 
acceptable

>  <inchikey>  (656) 
GWDKRVSGMCKELZ-UHFFFAOYSA-N

>  <fragmenstein_mode>  (656) 
expansion

>  <HIPPO Pose ID>  (656) 
17751

>  <Energy>  (656) 
105.89374

>  <fragmenstein_error>  (656) 


>  <tags>  (656) 
{'openbind_xx01zvns2b_c1_fragmenstein', 'fragmenstein_placed'}

>  <ref_pdb>  (656) 
1

>  <scratch_subdir>  (656) 
/opt/xchem-fragalysis-2/maxwin/BulkDock/SCRATCH/511027/C101499-P136

>  <alias>  (656) 
CCc1nc2c([C@@](O)(Nc3ccc4c(c3)CNC4)C(=O)NCC(F)F)cc(Cl)cc2[nH]1

>  <HIPPO Compound ID>  (656) 
84718

>  <fragmenstein_runtime>  (656) 
7.410218

$$$$
[O-][N@@H+]1CN[C@H]2[C@@H]3[C@@H](C=N[C@H]3Nc3ccc4c(c3)CNC4)CC[C@@H]21
     RDKit          3D

 23 27  0  0  0  0  0  0  0  0999 V2000
   -4.6834    4.8806  -18.6492 O   0  0  0  0  0  0  0  0  0  0  0  0
   -5.4626    5.8948  -18.1843 N   0  0  2  0  0  0  0  0  0  0  0  0
   -4.7568    6.6941  -17.1169 C   0  0  0  0  0  0  0  0  0  0  0  0
   -5.2993    6.3118  -15.7902 N   0  0  0  0  0  0  0  0  0  0  0  0
   -6.0999    5.1141  -16.0984 C   0  0  1  0  0  0  0  0  0  0  0  0
   -7.0722    4.4793  -15.1078 C   0  0  2  0  0  0  0  0  0  0  0  0
   -8.4867    4.2592  -15.6253 C   0  0  1  0  0  0  0  0  0  0  0  0
   -9.0641    5.5021  -15.0223 C   0  0  0  0  0  0  0  0  0  0  0  0
   -8.4429    6.0520  -14.0238 N   0  0  0  0  0  0  0  0  0  0  0  0
   -7.3403    5.1274  -13.7441 C   0  0  1  0  0  0  0  0  0  0  0  0
   -7.7413    4.0517  -12.8406 N   0  0  0  0  0  0  0  0  0  0  0  0
   -7.9648    4.1872  -11.4791 C   0  0  0  0  0  0  0  0  0  0  0  0
   -7.9201    5.4055  -10.7862 C   0  0  0  0  0  0  0  0  0  0  0  0
   -8.1277    5.4618   -9.4000 C   0  0  0  0  0  0  0  0  0  0  0  0
   -8.4254    4.2900   -8.7270 C   0  0  0  0  0  0  0  0  0  0  0  0
   -8.5626    3.0959   -9.4134 C   0  0  0  0  0  0  0  0  0  0  0  0
   -8.3397    3.0299  -10.7756 C   0  0  0  0  0  0  0  0  0  0  0  0
   -8.9948    2.0201   -8.4806 C   0  0  0  0  0  0  0  0  0  0  0  0
   -8.8554    2.5918   -7.1120 N   0  0  0  0  0  0  0  0  0  0  0  0
   -8.6864    4.0545   -7.2807 C   0  0  0  0  0  0  0  0  0  0  0  0
   -8.7376    4.0748  -17.1200 C   0  0  0  0  0  0  0  0  0  0  0  0
   -7.5785    4.4249  -18.0494 C   0  0  0  0  0  0  0  0  0  0  0  0
   -6.6902    5.4683  -17.4433 C   0  0  2  0  0  0  0  0  0  0  0  0
  2  1  1  1
  2  3  1  0
  3  4  1  0
  5  4  1  1
  5  6  1  0
  6  7  1  0
  7  8  1  0
  8  9  2  0
  9 10  1  0
 10 11  1  1
 11 12  1  0
 12 13  2  0
 13 14  1  0
 14 15  2  0
 15 16  1  0
 16 17  2  0
 16 18  1  0
 18 19  1  0
 19 20  1  0
  7 21  1  6
 21 22  1  0
 23 22  1  6
 23  2  1  0
 23  5  1  0
  6 10  1  1
 17 12  1  0
 20 15  1  0
M  CHG  2   1  -1   2   1
M  END
>  <smiles>  (657) 
C101502-P136

>  <fragmenstein_outcome>  (657) 
acceptable

>  <inchikey>  (657) 
DOIFJWRFBOINIP-UHFFFAOYSA-N

>  <fragmenstein_mode>  (657) 
expansion

>  <HIPPO Pose ID>  (657) 
17752

>  <Energy>  (657) 
41.132214

>  <fragmenstein_error>  (657) 


>  <tags>  (657) 
{'openbind_xx01zvns2b_c1_fragmenstein', 'fragmenstein_placed'}

>  <ref_pdb>  (657) 
1

>  <scratch_subdir>  (657) 
/opt/xchem-fragalysis-2/maxwin/BulkDock/SCRATCH/511027/C101502-P136

>  <alias>  (657) 
[O-][N@@H+]1CN[C@H]2[C@@H]3[C@@H](C=N[C@H]3Nc3ccc4c(c3)CNC4)CC[C@@H]21

>  <HIPPO Compound ID>  (657) 
106401

>  <fragmenstein_runtime>  (657) 
2.445134

$$$$
Cn1c(=O)n(OCCCO)c2c(C(=O)Nc3ccc4c(c3)CNC4)cc(F)cc21
     RDKit          3D

 29 32  0  0  0  0  0  0  0  0999 V2000
   -5.3564    5.1834  -19.6443 C   0  0  0  0  0  0  0  0  0  0  0  0
   -5.5883    5.2051  -18.2293 N   0  0  0  0  0  0  0  0  0  0  0  0
   -4.6068    5.4626  -17.2427 C   0  0  0  0  0  0  0  0  0  0  0  0
   -3.4048    5.5660  -17.4406 O   0  0  0  0  0  0  0  0  0  0  0  0
   -5.3035    5.5088  -16.0135 N   0  0  0  0  0  0  0  0  0  0  0  0
   -4.6480    5.1020  -14.8388 O   0  0  0  0  0  0  0  0  0  0  0  0
   -4.1105    6.2521  -14.1807 C   0  0  0  0  0  0  0  0  0  0  0  0
   -3.9361    5.9382  -12.6976 C   0  0  0  0  0  0  0  0  0  0  0  0
   -2.9773    4.7825  -12.4487 C   0  0  0  0  0  0  0  0  0  0  0  0
   -1.6625    5.1518  -12.8478 O   0  0  0  0  0  0  0  0  0  0  0  0
   -6.6190    5.0667  -16.2141 C   0  0  0  0  0  0  0  0  0  0  0  0
   -7.6439    4.8064  -15.3234 C   0  0  0  0  0  0  0  0  0  0  0  0
   -7.5929    5.2635  -13.9179 C   0  0  0  0  0  0  0  0  0  0  0  0
   -7.3083    6.3771  -13.7123 O   0  0  0  0  0  0  0  0  0  0  0  0
   -8.0427    4.1489  -12.9470 N   0  0  0  0  0  0  0  0  0  0  0  0
   -8.1417    4.1449  -11.5569 C   0  0  0  0  0  0  0  0  0  0  0  0
   -7.9552    5.3173  -10.8070 C   0  0  0  0  0  0  0  0  0  0  0  0
   -8.1068    5.3093   -9.4157 C   0  0  0  0  0  0  0  0  0  0  0  0
   -8.4575    4.1207   -8.8030 C   0  0  0  0  0  0  0  0  0  0  0  0
   -8.6335    2.9562   -9.5429 C   0  0  0  0  0  0  0  0  0  0  0  0
   -8.4722    2.9468  -10.9179 C   0  0  0  0  0  0  0  0  0  0  0  0
   -8.9874    1.8384   -8.6184 C   0  0  0  0  0  0  0  0  0  0  0  0
   -9.3733    2.4999   -7.3430 N   0  0  0  0  0  0  0  0  0  0  0  0
   -8.7002    3.8186   -7.3625 C   0  0  0  0  0  0  0  0  0  0  0  0
   -8.8429    4.2963  -15.8380 C   0  0  0  0  0  0  0  0  0  0  0  0
   -8.9850    4.0876  -17.2161 C   0  0  0  0  0  0  0  0  0  0  0  0
  -10.1476    3.6193  -17.6835 F   0  0  0  0  0  0  0  0  0  0  0  0
   -7.9686    4.3899  -18.1161 C   0  0  0  0  0  0  0  0  0  0  0  0
   -6.7934    4.8817  -17.5901 C   0  0  0  0  0  0  0  0  0  0  0  0
  1  2  1  0
  2  3  1  0
  3  4  2  0
  3  5  1  0
  5  6  1  0
  6  7  1  0
  7  8  1  0
  8  9  1  0
  9 10  1  0
  5 11  1  0
 11 12  2  0
 12 13  1  0
 13 14  2  0
 13 15  1  0
 15 16  1  0
 16 17  2  0
 17 18  1  0
 18 19  2  0
 19 20  1  0
 20 21  2  0
 20 22  1  0
 22 23  1  0
 23 24  1  0
 12 25  1  0
 25 26  2  0
 26 27  1  0
 26 28  1  0
 28 29  2  0
 29  2  1  0
 29 11  1  0
 21 16  1  0
 24 19  1  0
M  END
>  <smiles>  (658) 
C101503-P136

>  <fragmenstein_outcome>  (658) 
acceptable

>  <inchikey>  (658) 
IBSRNRFJCDKJAP-UHFFFAOYSA-N

>  <fragmenstein_mode>  (658) 
expansion

>  <HIPPO Pose ID>  (658) 
17753

>  <Energy>  (658) 
53.639654

>  <fragmenstein_error>  (658) 


>  <tags>  (658) 
{'openbind_xx01zvns2b_c1_fragmenstein', 'fragmenstein_placed'}

>  <ref_pdb>  (658) 
1

>  <scratch_subdir>  (658) 
/opt/xchem-fragalysis-2/maxwin/BulkDock/SCRATCH/511027/C101503-P136

>  <alias>  (658) 
Cn1c(=O)n(OCCCO)c2c(C(=O)Nc3ccc4c(c3)CNC4)cc(F)cc21

>  <HIPPO Compound ID>  (658) 
78857

>  <fragmenstein_runtime>  (658) 
4.230489

$$$$
O=C(NCC(F)F)[C@@](NCc1ccccn1)(Nc1ccc2c(c1)CNC2)c1cc(Br)cc2[nH]cnc12
     RDKit          3D

 36 40  0  0  0  0  0  0  0  0999 V2000
   -6.9740    7.4933  -13.8518 O   0  0  0  0  0  0  0  0  0  0  0  0
   -6.5796    6.6123  -13.1858 C   0  0  0  0  0  0  0  0  0  0  0  0
   -5.7508    6.6384  -11.8587 N   0  0  0  0  0  0  0  0  0  0  0  0
   -5.1632    7.7473  -11.1413 C   0  0  0  0  0  0  0  0  0  0  0  0
   -3.6845    7.5718  -10.8190 C   0  0  0  0  0  0  0  0  0  0  0  0
   -3.5409    6.7081   -9.7797 F   0  0  0  0  0  0  0  0  0  0  0  0
   -3.1721    8.7590  -10.3954 F   0  0  0  0  0  0  0  0  0  0  0  0
   -6.9185    5.0269  -13.5563 C   0  0  1  0  0  0  0  0  0  0  0  0
   -5.8404    4.1106  -13.1389 N   0  0  0  0  0  0  0  0  0  0  0  0
   -4.4570    4.4312  -13.4668 C   0  0  0  0  0  0  0  0  0  0  0  0
   -3.4871    3.7353  -12.5180 C   0  0  0  0  0  0  0  0  0  0  0  0
   -3.5878    2.3639  -12.2720 C   0  0  0  0  0  0  0  0  0  0  0  0
   -2.7142    1.7707  -11.3666 C   0  0  0  0  0  0  0  0  0  0  0  0
   -1.7625    2.5557  -10.7308 C   0  0  0  0  0  0  0  0  0  0  0  0
   -1.7252    3.9077  -11.0292 C   0  0  0  0  0  0  0  0  0  0  0  0
   -2.5568    4.5131  -11.9072 N   0  0  0  0  0  0  0  0  0  0  0  0
   -8.2141    4.6410  -12.8884 N   0  0  0  0  0  0  0  0  0  0  0  0
   -8.3023    4.5010  -11.4904 C   0  0  0  0  0  0  0  0  0  0  0  0
   -8.2775    5.6166  -10.6371 C   0  0  0  0  0  0  0  0  0  0  0  0
   -8.3569    5.4816   -9.2467 C   0  0  0  0  0  0  0  0  0  0  0  0
   -8.5430    4.2175   -8.7241 C   0  0  0  0  0  0  0  0  0  0  0  0
   -8.6194    3.1053   -9.5526 C   0  0  0  0  0  0  0  0  0  0  0  0
   -8.4762    3.2236  -10.9257 C   0  0  0  0  0  0  0  0  0  0  0  0
   -8.8982    1.8954   -8.7212 C   0  0  0  0  0  0  0  0  0  0  0  0
   -9.3259    2.4277   -7.3978 N   0  0  0  0  0  0  0  0  0  0  0  0
   -8.7418    3.7839   -7.3110 C   0  0  0  0  0  0  0  0  0  0  0  0
   -7.1783    4.9338  -15.1069 C   0  0  0  0  0  0  0  0  0  0  0  0
   -8.4434    4.5291  -15.6359 C   0  0  0  0  0  0  0  0  0  0  0  0
   -8.6856    4.3927  -17.0046 C   0  0  0  0  0  0  0  0  0  0  0  0
  -10.4264    4.1140  -17.6329 Br  0  0  0  0  0  0  0  0  0  0  0  0
   -7.7046    4.6108  -17.9523 C   0  0  0  0  0  0  0  0  0  0  0  0
   -6.5122    5.1065  -17.4583 C   0  0  0  0  0  0  0  0  0  0  0  0
   -5.3962    5.5289  -18.1284 N   0  0  0  0  0  0  0  0  0  0  0  0
   -4.5119    5.9885  -17.2022 C   0  0  0  0  0  0  0  0  0  0  0  0
   -4.9796    5.8638  -15.9813 N   0  0  0  0  0  0  0  0  0  0  0  0
   -6.2332    5.2968  -16.1044 C   0  0  0  0  0  0  0  0  0  0  0  0
  1  2  2  0
  2  3  1  0
  3  4  1  0
  4  5  1  0
  5  6  1  0
  5  7  1  0
  2  8  1  0
  8  9  1  1
  9 10  1  0
 10 11  1  0
 11 12  2  0
 12 13  1  0
 13 14  2  0
 14 15  1  0
 15 16  2  0
  8 17  1  0
 17 18  1  0
 18 19  2  0
 19 20  1  0
 20 21  2  0
 21 22  1  0
 22 23  2  0
 22 24  1  0
 24 25  1  0
 25 26  1  0
  8 27  1  0
 27 28  2  0
 28 29  1  0
 29 30  1  0
 29 31  2  0
 31 32  1  0
 32 33  1  0
 33 34  1  0
 34 35  2  0
 35 36  1  0
 16 11  1  0
 23 18  1  0
 36 27  1  0
 26 21  1  0
 36 32  2  0
M  END
>  <smiles>  (659) 
C101512-P136

>  <fragmenstein_outcome>  (659) 
acceptable

>  <inchikey>  (659) 
WUAVKWCPINYTSG-UHFFFAOYSA-N

>  <fragmenstein_mode>  (659) 
expansion

>  <HIPPO Pose ID>  (659) 
17755

>  <Energy>  (659) 
144.001805

>  <fragmenstein_error>  (659) 


>  <tags>  (659) 
{'openbind_xx01zvns2b_c1_fragmenstein', 'fragmenstein_placed'}

>  <ref_pdb>  (659) 
1

>  <scratch_subdir>  (659) 
/opt/xchem-fragalysis-2/maxwin/BulkDock/SCRATCH/511027/C101512-P136

>  <alias>  (659) 
O=C(NCC(F)F)[C@@](NCc1ccccn1)(Nc1ccc2c(c1)CNC2)c1cc(Br)cc2[nH]cnc12

>  <HIPPO Compound ID>  (659) 
104755

>  <fragmenstein_runtime>  (659) 
8.615551

$$$$
O=C(Nc1ccc2c(c1)CNC2)c1cccc2c1N=C[N@@H+]2[O-]
     RDKit          3D

 22 25  0  0  0  0  0  0  0  0999 V2000
   -7.5195    6.4752  -13.7018 O   0  0  0  0  0  0  0  0  0  0  0  0
   -7.6998    5.3413  -13.9162 C   0  0  0  0  0  0  0  0  0  0  0  0
   -8.0529    4.1824  -12.9537 N   0  0  0  0  0  0  0  0  0  0  0  0
   -8.1605    4.1606  -11.5643 C   0  0  0  0  0  0  0  0  0  0  0  0
   -7.9669    5.3239  -10.8014 C   0  0  0  0  0  0  0  0  0  0  0  0
   -8.1167    5.3041   -9.4102 C   0  0  0  0  0  0  0  0  0  0  0  0
   -8.4691    4.1109   -8.8085 C   0  0  0  0  0  0  0  0  0  0  0  0
   -8.6480    2.9536   -9.5596 C   0  0  0  0  0  0  0  0  0  0  0  0
   -8.4911    2.9568  -10.9360 C   0  0  0  0  0  0  0  0  0  0  0  0
   -8.9962    1.8279   -8.6424 C   0  0  0  0  0  0  0  0  0  0  0  0
   -9.3842    2.4786   -7.3616 N   0  0  0  0  0  0  0  0  0  0  0  0
   -8.7087    3.7964   -7.3703 C   0  0  0  0  0  0  0  0  0  0  0  0
   -7.6995    4.8881  -15.3268 C   0  0  0  0  0  0  0  0  0  0  0  0
   -8.8634    4.3368  -15.8859 C   0  0  0  0  0  0  0  0  0  0  0  0
   -8.9419    4.0743  -17.2648 C   0  0  0  0  0  0  0  0  0  0  0  0
   -7.8666    4.3708  -18.1030 C   0  0  0  0  0  0  0  0  0  0  0  0
   -6.7282    4.9092  -17.5274 C   0  0  0  0  0  0  0  0  0  0  0  0
   -6.6185    5.1391  -16.1571 C   0  0  0  0  0  0  0  0  0  0  0  0
   -5.3245    5.5838  -15.8268 N   0  0  0  0  0  0  0  0  0  0  0  0
   -4.6779    5.6486  -16.9537 C   0  0  0  0  0  0  0  0  0  0  0  0
   -5.4452    5.2197  -18.1555 N   0  0  2  0  0  0  0  0  0  0  0  0
   -5.5182    6.2378  -19.0426 O   0  0  0  0  0  0  0  0  0  0  0  0
  1  2  2  0
  2  3  1  0
  3  4  1  0
  4  5  2  0
  5  6  1  0
  6  7  2  0
  7  8  1  0
  8  9  2  0
  8 10  1  0
 10 11  1  0
 11 12  1  0
  2 13  1  0
 13 14  2  0
 14 15  1  0
 15 16  2  0
 16 17  1  0
 17 18  2  0
 18 19  1  0
 19 20  2  0
 20 21  1  0
 21 22  1  6
  9  4  1  0
 18 13  1  0
 12  7  1  0
 21 17  1  0
M  CHG  2  21   1  22  -1
M  END
>  <smiles>  (660) 
C101476-P136

>  <fragmenstein_outcome>  (660) 
acceptable

>  <inchikey>  (660) 
IFINTOJADSHMBN-UHFFFAOYSA-N

>  <fragmenstein_mode>  (660) 
expansion

>  <HIPPO Pose ID>  (660) 
17756

>  <Energy>  (660) 
87.271698

>  <fragmenstein_error>  (660) 


>  <tags>  (660) 
{'openbind_xx01zvns2b_c1_fragmenstein', 'fragmenstein_placed'}

>  <ref_pdb>  (660) 
1

>  <scratch_subdir>  (660) 
/opt/xchem-fragalysis-2/maxwin/BulkDock/SCRATCH/511027/C101476-P136

>  <alias>  (660) 
O=C(Nc1ccc2c(c1)CNC2)c1cccc2c1N=C[N@@H+]2[O-]

>  <HIPPO Compound ID>  (660) 
89141

>  <fragmenstein_runtime>  (660) 
3.127534

$$$$
NCn1cnc2c(C(=O)Nc3ccc4c(c3)CNC4)cc(Cl)cc21
     RDKit          3D

 24 27  0  0  0  0  0  0  0  0999 V2000
   -4.5164    5.9497  -20.0957 N   0  0  0  0  0  0  0  0  0  0  0  0
   -5.5005    6.5413  -19.2151 C   0  0  0  0  0  0  0  0  0  0  0  0
   -5.4870    5.8311  -17.9465 N   0  0  0  0  0  0  0  0  0  0  0  0
   -4.5886    6.0718  -16.9440 C   0  0  0  0  0  0  0  0  0  0  0  0
   -5.0856    5.7683  -15.7672 N   0  0  0  0  0  0  0  0  0  0  0  0
   -6.3437    5.2656  -16.0142 C   0  0  0  0  0  0  0  0  0  0  0  0
   -7.3966    4.9159  -15.1474 C   0  0  0  0  0  0  0  0  0  0  0  0
   -7.4000    5.3573  -13.7368 C   0  0  0  0  0  0  0  0  0  0  0  0
   -7.1501    6.4750  -13.5064 O   0  0  0  0  0  0  0  0  0  0  0  0
   -7.8527    4.2160  -12.7948 N   0  0  0  0  0  0  0  0  0  0  0  0
   -7.9950    4.1893  -11.4115 C   0  0  0  0  0  0  0  0  0  0  0  0
   -7.7739    5.3412  -10.6410 C   0  0  0  0  0  0  0  0  0  0  0  0
   -7.9679    5.3243   -9.2573 C   0  0  0  0  0  0  0  0  0  0  0  0
   -8.3728    4.1413   -8.6686 C   0  0  0  0  0  0  0  0  0  0  0  0
   -8.5922    3.0004   -9.4290 C   0  0  0  0  0  0  0  0  0  0  0  0
   -8.4122    3.0039  -10.8026 C   0  0  0  0  0  0  0  0  0  0  0  0
   -9.0427    1.8913   -8.5433 C   0  0  0  0  0  0  0  0  0  0  0  0
   -8.9241    2.3959   -7.1473 N   0  0  0  0  0  0  0  0  0  0  0  0
   -8.6652    3.8502   -7.2390 C   0  0  0  0  0  0  0  0  0  0  0  0
   -8.5970    4.4224  -15.6812 C   0  0  0  0  0  0  0  0  0  0  0  0
   -8.7429    4.2993  -17.0562 C   0  0  0  0  0  0  0  0  0  0  0  0
  -10.2928    3.9682  -17.6909 Cl  0  0  0  0  0  0  0  0  0  0  0  0
   -7.7253    4.6378  -17.9451 C   0  0  0  0  0  0  0  0  0  0  0  0
   -6.5587    5.1683  -17.3913 C   0  0  0  0  0  0  0  0  0  0  0  0
  1  2  1  0
  2  3  1  0
  3  4  1  0
  4  5  2  0
  5  6  1  0
  6  7  2  0
  7  8  1  0
  8  9  2  0
  8 10  1  0
 10 11  1  0
 11 12  2  0
 12 13  1  0
 13 14  2  0
 14 15  1  0
 15 16  2  0
 15 17  1  0
 17 18  1  0
 18 19  1  0
  7 20  1  0
 20 21  2  0
 21 22  1  0
 21 23  1  0
 23 24  2  0
 24  3  1  0
 24  6  1  0
 16 11  1  0
 19 14  1  0
M  END
>  <smiles>  (661) 
C39447-P136

>  <fragmenstein_outcome>  (661) 
acceptable

>  <inchikey>  (661) 
HJIHEKYACQIPEZ-UHFFFAOYSA-N

>  <fragmenstein_mode>  (661) 
expansion

>  <HIPPO Pose ID>  (661) 
17757

>  <Energy>  (661) 
63.136646

>  <fragmenstein_error>  (661) 


>  <tags>  (661) 
{'openbind_xx01zvns2b_c1_fragmenstein', 'fragmenstein_placed'}

>  <ref_pdb>  (661) 
1

>  <scratch_subdir>  (661) 
/opt/xchem-fragalysis-2/maxwin/BulkDock/SCRATCH/511027/C39447-P136

>  <alias>  (661) 
NCn1cnc2c(C(=O)Nc3ccc4c(c3)CNC4)cc(Cl)cc21

>  <HIPPO Compound ID>  (661) 
89354

>  <fragmenstein_runtime>  (661) 
2.126766

$$$$
O=C(Nc1ccc2c(c1)CNC2)c1cccc2c1N=C[N@H+]2[O-]
     RDKit          3D

 22 25  0  0  0  0  0  0  0  0999 V2000
   -7.3873    6.5393  -13.8605 O   0  0  0  0  0  0  0  0  0  0  0  0
   -7.6255    5.4090  -14.0433 C   0  0  0  0  0  0  0  0  0  0  0  0
   -8.0246    4.2915  -13.0441 N   0  0  0  0  0  0  0  0  0  0  0  0
   -8.1173    4.3115  -11.6488 C   0  0  0  0  0  0  0  0  0  0  0  0
   -7.9324    5.5047  -10.9331 C   0  0  0  0  0  0  0  0  0  0  0  0
   -8.0085    5.5266   -9.5358 C   0  0  0  0  0  0  0  0  0  0  0  0
   -8.2684    4.3422   -8.8711 C   0  0  0  0  0  0  0  0  0  0  0  0
   -8.4657    3.1606   -9.5701 C   0  0  0  0  0  0  0  0  0  0  0  0
   -8.3950    3.1265  -10.9589 C   0  0  0  0  0  0  0  0  0  0  0  0
   -8.7368    2.0553   -8.6042 C   0  0  0  0  0  0  0  0  0  0  0  0
   -8.6518    2.6487   -7.2415 N   0  0  0  0  0  0  0  0  0  0  0  0
   -8.3891    4.0919   -7.4086 C   0  0  0  0  0  0  0  0  0  0  0  0
   -7.6120    4.9232  -15.4482 C   0  0  0  0  0  0  0  0  0  0  0  0
   -8.7453    4.2986  -15.9860 C   0  0  0  0  0  0  0  0  0  0  0  0
   -8.8521    4.0664  -17.3691 C   0  0  0  0  0  0  0  0  0  0  0  0
   -7.8219    4.4370  -18.2339 C   0  0  0  0  0  0  0  0  0  0  0  0
   -6.7009    5.0289  -17.6828 C   0  0  0  0  0  0  0  0  0  0  0  0
   -6.5811    5.2703  -16.3131 C   0  0  0  0  0  0  0  0  0  0  0  0
   -5.3672    5.9266  -16.0325 N   0  0  0  0  0  0  0  0  0  0  0  0
   -4.7898    6.1132  -17.1831 C   0  0  0  0  0  0  0  0  0  0  0  0
   -5.5869    5.6881  -18.3644 N   0  0  1  0  0  0  0  0  0  0  0  0
   -4.8663    4.8830  -19.1678 O   0  0  0  0  0  0  0  0  0  0  0  0
  1  2  2  0
  2  3  1  0
  3  4  1  0
  4  5  2  0
  5  6  1  0
  6  7  2  0
  7  8  1  0
  8  9  2  0
  8 10  1  0
 10 11  1  0
 11 12  1  0
  2 13  1  0
 13 14  2  0
 14 15  1  0
 15 16  2  0
 16 17  1  0
 17 18  2  0
 18 19  1  0
 19 20  2  0
 20 21  1  0
 21 22  1  6
  9  4  1  0
 18 13  1  0
 12  7  1  0
 21 17  1  0
M  CHG  2  21   1  22  -1
M  END
>  <smiles>  (662) 
C101476-P64

>  <fragmenstein_outcome>  (662) 
acceptable

>  <inchikey>  (662) 
XMXTYHAZSLEFPF-UHFFFAOYSA-N

>  <fragmenstein_mode>  (662) 
expansion

>  <HIPPO Pose ID>  (662) 
17758

>  <Energy>  (662) 
86.906655

>  <fragmenstein_error>  (662) 


>  <tags>  (662) 
{'openbind_xx01zvns2b_c1_fragmenstein', 'fragmenstein_placed'}

>  <ref_pdb>  (662) 
1

>  <scratch_subdir>  (662) 
/opt/xchem-fragalysis-2/maxwin/BulkDock/SCRATCH/511027/C101476-P64

>  <alias>  (662) 
O=C(Nc1ccc2c(c1)CNC2)c1cccc2c1N=C[N@H+]2[O-]

>  <HIPPO Compound ID>  (662) 
101476

>  <fragmenstein_runtime>  (662) 
1.514513

$$$$
CN1CCC2(CC1)Nc1cccc(C(=O)Nc3ccc4c(c3)CNC4)c1N2
     RDKit          3D

 27 31  0  0  0  0  0  0  0  0999 V2000
   -2.1373    8.2018  -14.5078 C   0  0  0  0  0  0  0  0  0  0  0  0
   -2.1705    7.5150  -15.7971 N   0  0  0  0  0  0  0  0  0  0  0  0
   -2.4536    6.0904  -15.6084 C   0  0  0  0  0  0  0  0  0  0  0  0
   -3.3472    5.5010  -16.6888 C   0  0  0  0  0  0  0  0  0  0  0  0
   -4.6971    6.2188  -16.7143 C   0  0  0  0  0  0  0  0  0  0  0  0
   -4.5074    7.7529  -16.7543 C   0  0  0  0  0  0  0  0  0  0  0  0
   -3.0330    8.1646  -16.7885 C   0  0  0  0  0  0  0  0  0  0  0  0
   -5.4770    5.7668  -17.8959 N   0  0  0  0  0  0  0  0  0  0  0  0
   -6.6085    5.1300  -17.3333 C   0  0  0  0  0  0  0  0  0  0  0  0
   -7.6433    4.5021  -17.9992 C   0  0  0  0  0  0  0  0  0  0  0  0
   -8.7455    4.0585  -17.2561 C   0  0  0  0  0  0  0  0  0  0  0  0
   -8.8075    4.2746  -15.8683 C   0  0  0  0  0  0  0  0  0  0  0  0
   -7.7462    4.9099  -15.2168 C   0  0  0  0  0  0  0  0  0  0  0  0
   -7.8349    5.3580  -13.8091 C   0  0  0  0  0  0  0  0  0  0  0  0
   -7.6636    6.4935  -13.5914 O   0  0  0  0  0  0  0  0  0  0  0  0
   -8.1682    4.1944  -12.8510 N   0  0  0  0  0  0  0  0  0  0  0  0
   -8.2642    4.1655  -11.4629 C   0  0  0  0  0  0  0  0  0  0  0  0
   -8.0518    5.3289  -10.7046 C   0  0  0  0  0  0  0  0  0  0  0  0
   -8.1538    5.3060   -9.3114 C   0  0  0  0  0  0  0  0  0  0  0  0
   -8.4675    4.1071   -8.7002 C   0  0  0  0  0  0  0  0  0  0  0  0
   -8.6744    2.9552   -9.4468 C   0  0  0  0  0  0  0  0  0  0  0  0
   -8.5738    2.9621  -10.8293 C   0  0  0  0  0  0  0  0  0  0  0  0
   -9.0152    1.8260   -8.5385 C   0  0  0  0  0  0  0  0  0  0  0  0
   -8.9240    2.3568   -7.1504 N   0  0  0  0  0  0  0  0  0  0  0  0
   -8.6694    3.8101   -7.2567 C   0  0  0  0  0  0  0  0  0  0  0  0
   -6.6457    5.3040  -15.9616 C   0  0  0  0  0  0  0  0  0  0  0  0
   -5.4352    5.8543  -15.4890 N   0  0  0  0  0  0  0  0  0  0  0  0
  1  2  1  0
  2  3  1  0
  3  4  1  0
  4  5  1  0
  5  6  1  0
  6  7  1  0
  5  8  1  0
  8  9  1  0
  9 10  2  0
 10 11  1  0
 11 12  2  0
 12 13  1  0
 13 14  1  0
 14 15  2  0
 14 16  1  0
 16 17  1  0
 17 18  2  0
 18 19  1  0
 19 20  2  0
 20 21  1  0
 21 22  2  0
 21 23  1  0
 23 24  1  0
 24 25  1  0
 13 26  2  0
 26 27  1  0
  7  2  1  0
 26  9  1  0
 27  5  1  0
 22 17  1  0
 25 20  1  0
M  END
>  <smiles>  (663) 
C101520-P136

>  <fragmenstein_outcome>  (663) 
acceptable

>  <inchikey>  (663) 
YDHBTWLYDWLVHQ-UHFFFAOYSA-N

>  <fragmenstein_mode>  (663) 
expansion

>  <HIPPO Pose ID>  (663) 
17759

>  <Energy>  (663) 
46.579446

>  <fragmenstein_error>  (663) 


>  <tags>  (663) 
{'openbind_xx01zvns2b_c1_fragmenstein', 'fragmenstein_placed'}

>  <ref_pdb>  (663) 
1

>  <scratch_subdir>  (663) 
/opt/xchem-fragalysis-2/maxwin/BulkDock/SCRATCH/511027/C101520-P136

>  <alias>  (663) 
CN1CCC2(CC1)Nc1cccc(C(=O)Nc3ccc4c(c3)CNC4)c1N2

>  <HIPPO Compound ID>  (663) 
103597

>  <fragmenstein_runtime>  (663) 
4.835234

$$$$
O=C(Nc1ccc2c(c1)CNC2)c1cccc2c1NC1(CCNCC1)N2
     RDKit          3D

 26 30  0  0  0  0  0  0  0  0999 V2000
   -7.2557    6.3817  -13.7330 O   0  0  0  0  0  0  0  0  0  0  0  0
   -7.5654    5.2720  -13.9389 C   0  0  0  0  0  0  0  0  0  0  0  0
   -8.0183    4.1568  -12.9609 N   0  0  0  0  0  0  0  0  0  0  0  0
   -8.0902    4.1478  -11.5698 C   0  0  0  0  0  0  0  0  0  0  0  0
   -7.8488    5.3055  -10.8142 C   0  0  0  0  0  0  0  0  0  0  0  0
   -8.0097    5.2991   -9.4235 C   0  0  0  0  0  0  0  0  0  0  0  0
   -8.4097    4.1233   -8.8154 C   0  0  0  0  0  0  0  0  0  0  0  0
   -8.6245    2.9684   -9.5593 C   0  0  0  0  0  0  0  0  0  0  0  0
   -8.4703    2.9614  -10.9352 C   0  0  0  0  0  0  0  0  0  0  0  0
   -9.0006    1.8560   -8.6377 C   0  0  0  0  0  0  0  0  0  0  0  0
   -9.3698    2.5219   -7.3591 N   0  0  0  0  0  0  0  0  0  0  0  0
   -8.6669    3.8257   -7.3766 C   0  0  0  0  0  0  0  0  0  0  0  0
   -7.6528    4.8202  -15.3546 C   0  0  0  0  0  0  0  0  0  0  0  0
   -8.8293    4.2001  -15.8120 C   0  0  0  0  0  0  0  0  0  0  0  0
   -9.0333    3.9632  -17.1789 C   0  0  0  0  0  0  0  0  0  0  0  0
   -8.0903    4.3875  -18.1098 C   0  0  0  0  0  0  0  0  0  0  0  0
   -6.9535    5.0229  -17.6491 C   0  0  0  0  0  0  0  0  0  0  0  0
   -6.7103    5.2113  -16.2945 C   0  0  0  0  0  0  0  0  0  0  0  0
   -5.4412    5.8217  -16.0959 N   0  0  0  0  0  0  0  0  0  0  0  0
   -4.9833    6.1429  -17.4742 C   0  0  0  0  0  0  0  0  0  0  0  0
   -4.7580    7.6629  -17.6174 C   0  0  0  0  0  0  0  0  0  0  0  0
   -3.2923    8.0167  -17.3994 C   0  0  0  0  0  0  0  0  0  0  0  0
   -2.4207    7.4023  -18.4011 N   0  0  0  0  0  0  0  0  0  0  0  0
   -2.8616    6.0702  -18.8218 C   0  0  0  0  0  0  0  0  0  0  0  0
   -3.6978    5.3571  -17.7721 C   0  0  0  0  0  0  0  0  0  0  0  0
   -6.0312    5.7422  -18.4251 N   0  0  0  0  0  0  0  0  0  0  0  0
  1  2  2  0
  2  3  1  0
  3  4  1  0
  4  5  2  0
  5  6  1  0
  6  7  2  0
  7  8  1  0
  8  9  2  0
  8 10  1  0
 10 11  1  0
 11 12  1  0
  2 13  1  0
 13 14  2  0
 14 15  1  0
 15 16  2  0
 16 17  1  0
 17 18  2  0
 18 19  1  0
 19 20  1  0
 20 21  1  0
 21 22  1  0
 22 23  1  0
 23 24  1  0
 24 25  1  0
 20 26  1  0
  9  4  1  0
 18 13  1  0
 25 20  1  0
 12  7  1  0
 26 17  1  0
M  END
>  <smiles>  (664) 
C101490-P136

>  <fragmenstein_outcome>  (664) 
acceptable

>  <inchikey>  (664) 
WYTSPBDQKBLXRB-UHFFFAOYSA-N

>  <fragmenstein_mode>  (664) 
expansion

>  <HIPPO Pose ID>  (664) 
17763

>  <Energy>  (664) 
39.975483

>  <fragmenstein_error>  (664) 


>  <tags>  (664) 
{'openbind_xx01zvns2b_c1_fragmenstein', 'fragmenstein_placed'}

>  <ref_pdb>  (664) 
1

>  <scratch_subdir>  (664) 
/opt/xchem-fragalysis-2/maxwin/BulkDock/SCRATCH/511027/C101490-P136

>  <alias>  (664) 
O=C(Nc1ccc2c(c1)CNC2)c1cccc2c1NC1(CCNCC1)N2

>  <HIPPO Compound ID>  (664) 
92388

>  <fragmenstein_runtime>  (664) 
4.409071

$$$$
CNCn1cnc2c(C(=O)Nc3ccc4c(c3)CNC4)cc(Cl)cc21
     RDKit          3D

 25 28  0  0  0  0  0  0  0  0999 V2000
   -4.8702    6.8946  -21.1599 C   0  0  0  0  0  0  0  0  0  0  0  0
   -5.3591    6.6361  -19.8159 N   0  0  0  0  0  0  0  0  0  0  0  0
   -4.9982    5.3067  -19.3438 C   0  0  0  0  0  0  0  0  0  0  0  0
   -5.3413    5.2804  -17.9341 N   0  0  0  0  0  0  0  0  0  0  0  0
   -4.5082    5.6618  -16.9211 C   0  0  0  0  0  0  0  0  0  0  0  0
   -5.0974    5.5821  -15.7520 N   0  0  0  0  0  0  0  0  0  0  0  0
   -6.3802    5.1547  -16.0114 C   0  0  0  0  0  0  0  0  0  0  0  0
   -7.4787    4.9467  -15.1591 C   0  0  0  0  0  0  0  0  0  0  0  0
   -7.4580    5.3933  -13.7537 C   0  0  0  0  0  0  0  0  0  0  0  0
   -7.1911    6.5069  -13.5237 O   0  0  0  0  0  0  0  0  0  0  0  0
   -7.9147    4.2553  -12.8088 N   0  0  0  0  0  0  0  0  0  0  0  0
   -8.0416    4.2272  -11.4240 C   0  0  0  0  0  0  0  0  0  0  0  0
   -7.8041    5.3743  -10.6520 C   0  0  0  0  0  0  0  0  0  0  0  0
   -7.9768    5.3506   -9.2655 C   0  0  0  0  0  0  0  0  0  0  0  0
   -8.3757    4.1657   -8.6758 C   0  0  0  0  0  0  0  0  0  0  0  0
   -8.6091    3.0285   -9.4375 C   0  0  0  0  0  0  0  0  0  0  0  0
   -8.4514    3.0391  -10.8138 C   0  0  0  0  0  0  0  0  0  0  0  0
   -9.0502    1.9168   -8.5500 C   0  0  0  0  0  0  0  0  0  0  0  0
   -8.9103    2.4158   -7.1542 N   0  0  0  0  0  0  0  0  0  0  0  0
   -8.6513    3.8701   -7.2437 C   0  0  0  0  0  0  0  0  0  0  0  0
   -8.6955    4.5045  -15.6931 C   0  0  0  0  0  0  0  0  0  0  0  0
   -8.8181    4.3047  -17.0610 C   0  0  0  0  0  0  0  0  0  0  0  0
  -10.3740    4.0351  -17.7092 Cl  0  0  0  0  0  0  0  0  0  0  0  0
   -7.7489    4.4807  -17.9379 C   0  0  0  0  0  0  0  0  0  0  0  0
   -6.5460    4.9227  -17.3805 C   0  0  0  0  0  0  0  0  0  0  0  0
  1  2  1  0
  2  3  1  0
  3  4  1  0
  4  5  1  0
  5  6  2  0
  6  7  1  0
  7  8  2  0
  8  9  1  0
  9 10  2  0
  9 11  1  0
 11 12  1  0
 12 13  2  0
 13 14  1  0
 14 15  2  0
 15 16  1  0
 16 17  2  0
 16 18  1  0
 18 19  1  0
 19 20  1  0
  8 21  1  0
 21 22  2  0
 22 23  1  0
 22 24  1  0
 24 25  2  0
 25  4  1  0
 25  7  1  0
 17 12  1  0
 20 15  1  0
M  END
>  <smiles>  (665) 
C39589-P136

>  <fragmenstein_outcome>  (665) 
acceptable

>  <inchikey>  (665) 
VPMUAODBNIZDJH-UHFFFAOYSA-N

>  <fragmenstein_mode>  (665) 
expansion

>  <HIPPO Pose ID>  (665) 
17764

>  <Energy>  (665) 
60.545599

>  <fragmenstein_error>  (665) 


>  <tags>  (665) 
{'openbind_xx01zvns2b_c1_fragmenstein', 'fragmenstein_placed'}

>  <ref_pdb>  (665) 
1

>  <scratch_subdir>  (665) 
/opt/xchem-fragalysis-2/maxwin/BulkDock/SCRATCH/511027/C39589-P136

>  <alias>  (665) 
CNCn1cnc2c(C(=O)Nc3ccc4c(c3)CNC4)cc(Cl)cc21

>  <HIPPO Compound ID>  (665) 
80796

>  <fragmenstein_runtime>  (665) 
4.224218

$$$$
CC(C)NC(=O)[C@](O)(Nc1ccc2c(c1)CNC2)c1cc(Cl)cc2c1NC(F)(F)N2
     RDKit          3D

 30 33  0  0  0  0  0  0  0  0999 V2000
   -3.1455    7.2974  -13.0610 C   0  0  0  0  0  0  0  0  0  0  0  0
   -4.1208    6.9483  -11.9429 C   0  0  0  0  0  0  0  0  0  0  0  0
   -4.3752    8.1444  -11.0356 C   0  0  0  0  0  0  0  0  0  0  0  0
   -5.3605    6.4556  -12.4908 N   0  0  0  0  0  0  0  0  0  0  0  0
   -5.7412    5.0356  -13.0225 C   0  0  0  0  0  0  0  0  0  0  0  0
   -5.1293    4.0365  -13.0229 O   0  0  0  0  0  0  0  0  0  0  0  0
   -7.2520    5.1763  -13.5745 C   0  0  2  0  0  0  0  0  0  0  0  0
   -7.8220    6.4721  -13.4352 O   0  0  0  0  0  0  0  0  0  0  0  0
   -8.1290    4.2569  -12.8341 N   0  0  0  0  0  0  0  0  0  0  0  0
   -8.1619    4.2345  -11.4246 C   0  0  0  0  0  0  0  0  0  0  0  0
   -7.9699    5.3704  -10.6112 C   0  0  0  0  0  0  0  0  0  0  0  0
   -8.1002    5.3177   -9.2181 C   0  0  0  0  0  0  0  0  0  0  0  0
   -8.4462    4.1164   -8.6382 C   0  0  0  0  0  0  0  0  0  0  0  0
   -8.6706    2.9944   -9.4166 C   0  0  0  0  0  0  0  0  0  0  0  0
   -8.5527    3.0399  -10.7978 C   0  0  0  0  0  0  0  0  0  0  0  0
   -9.0529    1.8497   -8.5450 C   0  0  0  0  0  0  0  0  0  0  0  0
   -8.9489    2.3362   -7.1408 N   0  0  0  0  0  0  0  0  0  0  0  0
   -8.6801    3.7888   -7.2067 C   0  0  0  0  0  0  0  0  0  0  0  0
   -7.3566    4.9131  -15.0717 C   0  0  0  0  0  0  0  0  0  0  0  0
   -8.5519    4.4341  -15.6475 C   0  0  0  0  0  0  0  0  0  0  0  0
   -8.6938    4.3034  -17.0377 C   0  0  0  0  0  0  0  0  0  0  0  0
  -10.2364    3.9603  -17.6825 Cl  0  0  0  0  0  0  0  0  0  0  0  0
   -7.6554    4.6019  -17.9085 C   0  0  0  0  0  0  0  0  0  0  0  0
   -6.5018    5.0965  -17.3520 C   0  0  0  0  0  0  0  0  0  0  0  0
   -6.3523    5.2512  -15.9702 C   0  0  0  0  0  0  0  0  0  0  0  0
   -5.1353    5.9240  -15.6855 N   0  0  0  0  0  0  0  0  0  0  0  0
   -4.4700    5.8654  -16.9702 C   0  0  0  0  0  0  0  0  0  0  0  0
   -3.5324    4.8996  -16.9514 F   0  0  0  0  0  0  0  0  0  0  0  0
   -3.8396    7.0437  -17.1719 F   0  0  0  0  0  0  0  0  0  0  0  0
   -5.3957    5.6307  -18.0491 N   0  0  0  0  0  0  0  0  0  0  0  0
  1  2  1  0
  2  3  1  0
  2  4  1  0
  4  5  1  0
  5  6  2  0
  5  7  1  0
  7  8  1  6
  7  9  1  0
  9 10  1  0
 10 11  2  0
 11 12  1  0
 12 13  2  0
 13 14  1  0
 14 15  2  0
 14 16  1  0
 16 17  1  0
 17 18  1  0
  7 19  1  0
 19 20  2  0
 20 21  1  0
 21 22  1  0
 21 23  2  0
 23 24  1  0
 24 25  2  0
 25 26  1  0
 26 27  1  0
 27 28  1  0
 27 29  1  0
 27 30  1  0
 15 10  1  0
 25 19  1  0
 18 13  1  0
 30 24  1  0
M  END
>  <smiles>  (666) 
C34889-P136

>  <fragmenstein_outcome>  (666) 
acceptable

>  <inchikey>  (666) 
DCIAUBKHBKJTLY-UHFFFAOYSA-N

>  <fragmenstein_mode>  (666) 
expansion

>  <HIPPO Pose ID>  (666) 
17766

>  <Energy>  (666) 
-2.400748

>  <fragmenstein_error>  (666) 


>  <tags>  (666) 
{'openbind_xx01zvns2b_c1_fragmenstein', 'fragmenstein_placed'}

>  <ref_pdb>  (666) 
1

>  <scratch_subdir>  (666) 
/opt/xchem-fragalysis-2/maxwin/BulkDock/SCRATCH/511027/C34889-P136

>  <alias>  (666) 
CC(C)NC(=O)[C@](O)(Nc1ccc2c(c1)CNC2)c1cc(Cl)cc2c1NC(F)(F)N2

>  <HIPPO Compound ID>  (666) 
82074

>  <fragmenstein_runtime>  (666) 
4.706595

$$$$
O=C(Nc1ccc2c(c1)CNC2)c1cc(Cl)cc2nc(CC3CCNCC3)[nH]c12
     RDKit          3D

 29 33  0  0  0  0  0  0  0  0999 V2000
   -6.6586    6.2019  -13.5909 O   0  0  0  0  0  0  0  0  0  0  0  0
   -7.2530    5.2235  -13.8263 C   0  0  0  0  0  0  0  0  0  0  0  0
   -7.9048    4.1926  -12.8747 N   0  0  0  0  0  0  0  0  0  0  0  0
   -8.0387    4.1995  -11.4898 C   0  0  0  0  0  0  0  0  0  0  0  0
   -7.7099    5.3379  -10.7384 C   0  0  0  0  0  0  0  0  0  0  0  0
   -7.8658    5.3471   -9.3495 C   0  0  0  0  0  0  0  0  0  0  0  0
   -8.3267    4.1979   -8.7353 C   0  0  0  0  0  0  0  0  0  0  0  0
   -8.6463    3.0673   -9.4758 C   0  0  0  0  0  0  0  0  0  0  0  0
   -8.5236    3.0526  -10.8560 C   0  0  0  0  0  0  0  0  0  0  0  0
   -9.1274    1.9951   -8.5600 C   0  0  0  0  0  0  0  0  0  0  0  0
   -8.8908    2.4934   -7.1773 N   0  0  0  0  0  0  0  0  0  0  0  0
   -8.5898    3.9375   -7.2936 C   0  0  0  0  0  0  0  0  0  0  0  0
   -7.4708    4.8705  -15.2470 C   0  0  0  0  0  0  0  0  0  0  0  0
   -8.7188    4.4667  -15.7289 C   0  0  0  0  0  0  0  0  0  0  0  0
   -8.9169    4.2858  -17.0974 C   0  0  0  0  0  0  0  0  0  0  0  0
  -10.5084    4.0689  -17.6781 Cl  0  0  0  0  0  0  0  0  0  0  0  0
   -7.8883    4.4287  -18.0247 C   0  0  0  0  0  0  0  0  0  0  0  0
   -6.6467    4.8494  -17.5507 C   0  0  0  0  0  0  0  0  0  0  0  0
   -5.5038    5.1177  -18.2449 N   0  0  0  0  0  0  0  0  0  0  0  0
   -4.6235    5.5123  -17.3538 C   0  0  0  0  0  0  0  0  0  0  0  0
   -3.2052    5.8732  -17.6095 C   0  0  0  0  0  0  0  0  0  0  0  0
   -2.8712    6.0648  -19.1052 C   0  0  0  0  0  0  0  0  0  0  0  0
   -1.3459    6.2143  -19.3015 C   0  0  0  0  0  0  0  0  0  0  0  0
   -0.8984    7.6541  -19.5708 C   0  0  0  0  0  0  0  0  0  0  0  0
   -1.6671    8.6040  -18.7748 N   0  0  0  0  0  0  0  0  0  0  0  0
   -3.0856    8.6033  -19.1483 C   0  0  0  0  0  0  0  0  0  0  0  0
   -3.5815    7.2756  -19.7301 C   0  0  0  0  0  0  0  0  0  0  0  0
   -5.1714    5.5220  -16.0957 N   0  0  0  0  0  0  0  0  0  0  0  0
   -6.4659    5.0784  -16.1942 C   0  0  0  0  0  0  0  0  0  0  0  0
  1  2  2  0
  2  3  1  0
  3  4  1  0
  4  5  2  0
  5  6  1  0
  6  7  2  0
  7  8  1  0
  8  9  2  0
  8 10  1  0
 10 11  1  0
 11 12  1  0
  2 13  1  0
 13 14  2  0
 14 15  1  0
 15 16  1  0
 15 17  2  0
 17 18  1  0
 18 19  1  0
 19 20  2  0
 20 21  1  0
 21 22  1  0
 22 23  1  0
 23 24  1  0
 24 25  1  0
 25 26  1  0
 26 27  1  0
 20 28  1  0
 28 29  1  0
  9  4  1  0
 29 13  1  0
 12  7  1  0
 29 18  2  0
 27 22  1  0
M  END
>  <smiles>  (667) 
C39609-P136

>  <fragmenstein_outcome>  (667) 
acceptable

>  <inchikey>  (667) 
FJLKXPRKLDOMEE-UHFFFAOYSA-N

>  <fragmenstein_mode>  (667) 
expansion

>  <HIPPO Pose ID>  (667) 
17767

>  <Energy>  (667) 
27.646734

>  <fragmenstein_error>  (667) 


>  <tags>  (667) 
{'openbind_xx01zvns2b_c1_fragmenstein', 'fragmenstein_placed'}

>  <ref_pdb>  (667) 
1

>  <scratch_subdir>  (667) 
/opt/xchem-fragalysis-2/maxwin/BulkDock/SCRATCH/511027/C39609-P136

>  <alias>  (667) 
O=C(Nc1ccc2c(c1)CNC2)c1cc(Cl)cc2nc(CC3CCNCC3)[nH]c12

>  <HIPPO Compound ID>  (667) 
39609

>  <fragmenstein_runtime>  (667) 
6.471084

$$$$
CN(C)Cc1nc2c(C(=O)Nc3ccc4c(c3)CNC4)cccc2[nH]1
     RDKit          3D

 25 28  0  0  0  0  0  0  0  0999 V2000
   -2.9381    5.3962  -14.5292 C   0  0  0  0  0  0  0  0  0  0  0  0
   -2.5473    5.4688  -15.9428 N   0  0  0  0  0  0  0  0  0  0  0  0
   -1.2373    6.1187  -16.0476 C   0  0  0  0  0  0  0  0  0  0  0  0
   -3.5239    6.2283  -16.7521 C   0  0  0  0  0  0  0  0  0  0  0  0
   -4.9190    5.7124  -16.7086 C   0  0  0  0  0  0  0  0  0  0  0  0
   -5.7072    5.7663  -15.6577 N   0  0  0  0  0  0  0  0  0  0  0  0
   -6.8746    5.1626  -16.0308 C   0  0  0  0  0  0  0  0  0  0  0  0
   -8.0223    4.8786  -15.2837 C   0  0  0  0  0  0  0  0  0  0  0  0
   -8.1042    5.3540  -13.8878 C   0  0  0  0  0  0  0  0  0  0  0  0
   -8.0376    6.5007  -13.6806 O   0  0  0  0  0  0  0  0  0  0  0  0
   -8.2860    4.1702  -12.9140 N   0  0  0  0  0  0  0  0  0  0  0  0
   -8.3272    4.1418  -11.5216 C   0  0  0  0  0  0  0  0  0  0  0  0
   -8.1769    5.3185  -10.7680 C   0  0  0  0  0  0  0  0  0  0  0  0
   -8.2630    5.2939   -9.3722 C   0  0  0  0  0  0  0  0  0  0  0  0
   -8.5332    4.0857   -8.7591 C   0  0  0  0  0  0  0  0  0  0  0  0
   -8.6745    2.9177   -9.5028 C   0  0  0  0  0  0  0  0  0  0  0  0
   -8.5489    2.9211  -10.8817 C   0  0  0  0  0  0  0  0  0  0  0  0
   -8.9739    1.7852   -8.5777 C   0  0  0  0  0  0  0  0  0  0  0  0
   -9.3737    2.4311   -7.2965 N   0  0  0  0  0  0  0  0  0  0  0  0
   -8.7323    3.7657   -7.3164 C   0  0  0  0  0  0  0  0  0  0  0  0
   -9.0907    4.2264  -15.9087 C   0  0  0  0  0  0  0  0  0  0  0  0
   -9.0383    3.9201  -17.2716 C   0  0  0  0  0  0  0  0  0  0  0  0
   -7.9087    4.2172  -18.0415 C   0  0  0  0  0  0  0  0  0  0  0  0
   -6.8368    4.8139  -17.3762 C   0  0  0  0  0  0  0  0  0  0  0  0
   -5.5783    5.1760  -17.7887 N   0  0  0  0  0  0  0  0  0  0  0  0
  1  2  1  0
  2  3  1  0
  2  4  1  0
  4  5  1  0
  5  6  2  0
  6  7  1  0
  7  8  2  0
  8  9  1  0
  9 10  2  0
  9 11  1  0
 11 12  1  0
 12 13  2  0
 13 14  1  0
 14 15  2  0
 15 16  1  0
 16 17  2  0
 16 18  1  0
 18 19  1  0
 19 20  1  0
  8 21  1  0
 21 22  2  0
 22 23  1  0
 23 24  2  0
 24 25  1  0
 25  5  1  0
 24  7  1  0
 17 12  1  0
 20 15  1  0
M  END
>  <smiles>  (668) 
C101530-P136

>  <fragmenstein_outcome>  (668) 
acceptable

>  <inchikey>  (668) 
BKCQIVZWFPZPPX-UHFFFAOYSA-N

>  <fragmenstein_mode>  (668) 
expansion

>  <HIPPO Pose ID>  (668) 
17768

>  <Energy>  (668) 
73.536422

>  <fragmenstein_error>  (668) 


>  <tags>  (668) 
{'openbind_xx01zvns2b_c1_fragmenstein', 'fragmenstein_placed'}

>  <ref_pdb>  (668) 
1

>  <scratch_subdir>  (668) 
/opt/xchem-fragalysis-2/maxwin/BulkDock/SCRATCH/511027/C101530-P136

>  <alias>  (668) 
CN(C)Cc1nc2c(C(=O)Nc3ccc4c(c3)CNC4)cccc2[nH]1

>  <HIPPO Compound ID>  (668) 
70563

>  <fragmenstein_runtime>  (668) 
3.616675

$$$$
O=C(Nc1ccc2c(c1)CNC2)c1cc(Cl)cc2nc(CC3CNC3)[nH]c12
     RDKit          3D

 27 31  0  0  0  0  0  0  0  0999 V2000
   -6.6111    6.1725  -13.5829 O   0  0  0  0  0  0  0  0  0  0  0  0
   -7.2258    5.2070  -13.8206 C   0  0  0  0  0  0  0  0  0  0  0  0
   -7.8994    4.1880  -12.8715 N   0  0  0  0  0  0  0  0  0  0  0  0
   -8.0337    4.1947  -11.4867 C   0  0  0  0  0  0  0  0  0  0  0  0
   -7.6959    5.3306  -10.7351 C   0  0  0  0  0  0  0  0  0  0  0  0
   -7.8525    5.3412   -9.3464 C   0  0  0  0  0  0  0  0  0  0  0  0
   -8.3217    4.1954   -8.7325 C   0  0  0  0  0  0  0  0  0  0  0  0
   -8.6492    3.0670   -9.4731 C   0  0  0  0  0  0  0  0  0  0  0  0
   -8.5278    3.0517  -10.8534 C   0  0  0  0  0  0  0  0  0  0  0  0
   -9.1368    1.9980   -8.5570 C   0  0  0  0  0  0  0  0  0  0  0  0
   -8.8935    2.4939   -7.1746 N   0  0  0  0  0  0  0  0  0  0  0  0
   -8.5871    3.9366   -7.2908 C   0  0  0  0  0  0  0  0  0  0  0  0
   -7.4463    4.8631  -15.2438 C   0  0  0  0  0  0  0  0  0  0  0  0
   -8.6917    4.4633  -15.7330 C   0  0  0  0  0  0  0  0  0  0  0  0
   -8.8820    4.2903  -17.1038 C   0  0  0  0  0  0  0  0  0  0  0  0
  -10.4714    4.0647  -17.6876 Cl  0  0  0  0  0  0  0  0  0  0  0  0
   -7.8489    4.4435  -18.0269 C   0  0  0  0  0  0  0  0  0  0  0  0
   -6.6083    4.8608  -17.5453 C   0  0  0  0  0  0  0  0  0  0  0  0
   -5.4559    5.1366  -18.2273 N   0  0  0  0  0  0  0  0  0  0  0  0
   -4.5779    5.5112  -17.3225 C   0  0  0  0  0  0  0  0  0  0  0  0
   -3.1678    5.8680  -17.6256 C   0  0  0  0  0  0  0  0  0  0  0  0
   -2.2757    6.0622  -16.4027 C   0  0  0  0  0  0  0  0  0  0  0  0
   -2.3707    7.4169  -15.6606 C   0  0  0  0  0  0  0  0  0  0  0  0
   -1.2491    7.9019  -16.4868 N   0  0  0  0  0  0  0  0  0  0  0  0
   -0.8286    6.5062  -16.7169 C   0  0  0  0  0  0  0  0  0  0  0  0
   -5.1437    5.5151  -16.0724 N   0  0  0  0  0  0  0  0  0  0  0  0
   -6.4375    5.0756  -16.1862 C   0  0  0  0  0  0  0  0  0  0  0  0
  1  2  2  0
  2  3  1  0
  3  4  1  0
  4  5  2  0
  5  6  1  0
  6  7  2  0
  7  8  1  0
  8  9  2  0
  8 10  1  0
 10 11  1  0
 11 12  1  0
  2 13  1  0
 13 14  2  0
 14 15  1  0
 15 16  1  0
 15 17  2  0
 17 18  1  0
 18 19  1  0
 19 20  2  0
 20 21  1  0
 21 22  1  0
 22 23  1  0
 23 24  1  0
 24 25  1  0
 20 26  1  0
 26 27  1  0
  9  4  1  0
 27 13  1  0
 12  7  1  0
 27 18  2  0
 25 22  1  0
M  END
>  <smiles>  (669) 
C39611-P136

>  <fragmenstein_outcome>  (669) 
acceptable

>  <inchikey>  (669) 
GDRKCPUDJANBHS-UHFFFAOYSA-N

>  <fragmenstein_mode>  (669) 
expansion

>  <HIPPO Pose ID>  (669) 
17769

>  <Energy>  (669) 
31.678577

>  <fragmenstein_error>  (669) 


>  <tags>  (669) 
{'openbind_xx01zvns2b_c1_fragmenstein', 'fragmenstein_placed'}

>  <ref_pdb>  (669) 
1

>  <scratch_subdir>  (669) 
/opt/xchem-fragalysis-2/maxwin/BulkDock/SCRATCH/511027/C39611-P136

>  <alias>  (669) 
O=C(Nc1ccc2c(c1)CNC2)c1cc(Cl)cc2nc(CC3CNC3)[nH]c12

>  <HIPPO Compound ID>  (669) 
78168

>  <fragmenstein_runtime>  (669) 
4.075273

$$$$
O=C(Nc1ccc2c(c1)CNC2)c1ccc2[nH]c(=O)n3cnc1c23
     RDKit          3D

 24 28  0  0  0  0  0  0  0  0999 V2000
   -7.8537    6.5449  -13.6429 O   0  0  0  0  0  0  0  0  0  0  0  0
   -7.8222    5.3964  -13.8460 C   0  0  0  0  0  0  0  0  0  0  0  0
   -8.0162    4.2062  -12.8860 N   0  0  0  0  0  0  0  0  0  0  0  0
   -8.1896    4.1771  -11.5045 C   0  0  0  0  0  0  0  0  0  0  0  0
   -8.0797    5.3540  -10.7452 C   0  0  0  0  0  0  0  0  0  0  0  0
   -8.2204    5.3276   -9.3550 C   0  0  0  0  0  0  0  0  0  0  0  0
   -8.4862    4.1146   -8.7486 C   0  0  0  0  0  0  0  0  0  0  0  0
   -8.6132    2.9528   -9.4978 C   0  0  0  0  0  0  0  0  0  0  0  0
   -8.4552    2.9602  -10.8757 C   0  0  0  0  0  0  0  0  0  0  0  0
   -8.9407    1.8125   -8.5973 C   0  0  0  0  0  0  0  0  0  0  0  0
   -8.9158    2.3482   -7.2081 N   0  0  0  0  0  0  0  0  0  0  0  0
   -8.7001    3.8082   -7.3085 C   0  0  0  0  0  0  0  0  0  0  0  0
   -7.5670    4.9517  -15.2218 C   0  0  0  0  0  0  0  0  0  0  0  0
   -8.6172    4.4408  -16.0695 C   0  0  0  0  0  0  0  0  0  0  0  0
   -8.4488    4.2696  -17.4804 C   0  0  0  0  0  0  0  0  0  0  0  0
   -7.2277    4.5982  -18.0133 C   0  0  0  0  0  0  0  0  0  0  0  0
   -6.5413    4.7438  -19.2369 N   0  0  0  0  0  0  0  0  0  0  0  0
   -5.2298    5.2664  -19.0465 C   0  0  0  0  0  0  0  0  0  0  0  0
   -4.3308    5.5949  -19.7924 O   0  0  0  0  0  0  0  0  0  0  0  0
   -5.1482    5.4012  -17.6650 N   0  0  0  0  0  0  0  0  0  0  0  0
   -4.3828    5.8268  -16.6313 C   0  0  0  0  0  0  0  0  0  0  0  0
   -5.0712    5.7461  -15.4829 N   0  0  0  0  0  0  0  0  0  0  0  0
   -6.3273    5.2366  -15.8070 C   0  0  0  0  0  0  0  0  0  0  0  0
   -6.3060    5.0140  -17.1298 C   0  0  0  0  0  0  0  0  0  0  0  0
  1  2  2  0
  2  3  1  0
  3  4  1  0
  4  5  2  0
  5  6  1  0
  6  7  2  0
  7  8  1  0
  8  9  2  0
  8 10  1  0
 10 11  1  0
 11 12  1  0
  2 13  1  0
 13 14  2  0
 14 15  1  0
 15 16  2  0
 16 17  1  0
 17 18  1  0
 18 19  2  0
 18 20  1  0
 20 21  1  0
 21 22  2  0
 22 23  1  0
 23 24  2  0
  9  4  1  0
 23 13  1  0
 12  7  1  0
 24 16  1  0
 24 20  1  0
M  END
>  <smiles>  (670) 
C101531-P136

>  <fragmenstein_outcome>  (670) 
acceptable

>  <inchikey>  (670) 
AXEMEHUOXOQSEA-UHFFFAOYSA-N

>  <fragmenstein_mode>  (670) 
expansion

>  <HIPPO Pose ID>  (670) 
17770

>  <Energy>  (670) 
100.346546

>  <fragmenstein_error>  (670) 


>  <tags>  (670) 
{'openbind_xx01zvns2b_c1_fragmenstein', 'fragmenstein_placed'}

>  <ref_pdb>  (670) 
1

>  <scratch_subdir>  (670) 
/opt/xchem-fragalysis-2/maxwin/BulkDock/SCRATCH/511027/C101531-P136

>  <alias>  (670) 
O=C(Nc1ccc2c(c1)CNC2)c1ccc2[nH]c(=O)n3cnc1c23

>  <HIPPO Compound ID>  (670) 
83869

>  <fragmenstein_runtime>  (670) 
4.485794

$$$$
CNCn1cnc2c(C(=O)Nc3ccc4c(c3)CN(C)[C@@H]4C)cc(Cl)cc21
     RDKit          3D

 27 30  0  0  0  0  0  0  0  0999 V2000
   -2.8219    4.9904  -19.7955 C   0  0  0  0  0  0  0  0  0  0  0  0
   -3.8983    5.9606  -19.8734 N   0  0  0  0  0  0  0  0  0  0  0  0
   -5.2163    5.4508  -19.4929 C   0  0  0  0  0  0  0  0  0  0  0  0
   -5.3986    5.3560  -18.0406 N   0  0  0  0  0  0  0  0  0  0  0  0
   -4.5570    5.7447  -17.0374 C   0  0  0  0  0  0  0  0  0  0  0  0
   -5.1109    5.6366  -15.8520 N   0  0  0  0  0  0  0  0  0  0  0  0
   -6.3848    5.1715  -16.0705 C   0  0  0  0  0  0  0  0  0  0  0  0
   -7.4544    4.9278  -15.1818 C   0  0  0  0  0  0  0  0  0  0  0  0
   -7.4062    5.3713  -13.7665 C   0  0  0  0  0  0  0  0  0  0  0  0
   -7.0388    6.4582  -13.5413 O   0  0  0  0  0  0  0  0  0  0  0  0
   -7.9742    4.2836  -12.8145 N   0  0  0  0  0  0  0  0  0  0  0  0
   -8.1128    4.2775  -11.4244 C   0  0  0  0  0  0  0  0  0  0  0  0
   -7.8759    5.4365  -10.6712 C   0  0  0  0  0  0  0  0  0  0  0  0
   -7.9993    5.4274   -9.2759 C   0  0  0  0  0  0  0  0  0  0  0  0
   -8.3681    4.2495   -8.6472 C   0  0  0  0  0  0  0  0  0  0  0  0
   -8.6258    3.1039   -9.3953 C   0  0  0  0  0  0  0  0  0  0  0  0
   -8.5063    3.0987  -10.7815 C   0  0  0  0  0  0  0  0  0  0  0  0
   -8.9840    1.9744   -8.4806 C   0  0  0  0  0  0  0  0  0  0  0  0
   -8.9487    2.5333   -7.1083 N   0  0  0  0  0  0  0  0  0  0  0  0
  -10.1496    2.2741   -6.3475 C   0  0  0  0  0  0  0  0  0  0  0  0
   -8.4379    3.9186   -7.1812 C   0  0  2  0  0  0  0  0  0  0  0  0
   -9.1233    4.9682   -6.3065 C   0  0  0  0  0  0  0  0  0  0  0  0
   -8.6770    4.4748  -15.6959 C   0  0  0  0  0  0  0  0  0  0  0  0
   -8.8298    4.2921  -17.0646 C   0  0  0  0  0  0  0  0  0  0  0  0
  -10.3979    4.0277  -17.6869 Cl  0  0  0  0  0  0  0  0  0  0  0  0
   -7.7853    4.4902  -17.9661 C   0  0  0  0  0  0  0  0  0  0  0  0
   -6.5775    4.9533  -17.4389 C   0  0  0  0  0  0  0  0  0  0  0  0
  1  2  1  0
  2  3  1  0
  3  4  1  0
  4  5  1  0
  5  6  2  0
  6  7  1  0
  7  8  2  0
  8  9  1  0
  9 10  2  0
  9 11  1  0
 11 12  1  0
 12 13  2  0
 13 14  1  0
 14 15  2  0
 15 16  1  0
 16 17  2  0
 16 18  1  0
 18 19  1  0
 19 20  1  0
 19 21  1  0
 21 22  1  1
  8 23  1  0
 23 24  2  0
 24 25  1  0
 24 26  1  0
 26 27  2  0
 27  4  1  0
 27  7  1  0
 17 12  1  0
 21 15  1  0
M  END
>  <smiles>  (671) 
C39616-P136

>  <fragmenstein_outcome>  (671) 
acceptable

>  <inchikey>  (671) 
KINWPGACGPZLEE-UHFFFAOYSA-N

>  <fragmenstein_mode>  (671) 
expansion

>  <HIPPO Pose ID>  (671) 
17774

>  <Energy>  (671) 
81.605902

>  <fragmenstein_error>  (671) 


>  <tags>  (671) 
{'openbind_xx01zvns2b_c1_fragmenstein', 'fragmenstein_placed'}

>  <ref_pdb>  (671) 
1

>  <scratch_subdir>  (671) 
/opt/xchem-fragalysis-2/maxwin/BulkDock/SCRATCH/511027/C39616-P136

>  <alias>  (671) 
CNCn1cnc2c(C(=O)Nc3ccc4c(c3)CN(C)[C@@H]4C)cc(Cl)cc21

>  <HIPPO Compound ID>  (671) 
85515

>  <fragmenstein_runtime>  (671) 
4.340443

$$$$
CNCn1cnc2c(C(=O)Nc3cc4c(c5c3OC(C)(C)C5)CNC4)cc(Cl)cc21
     RDKit          3D

 30 34  0  0  0  0  0  0  0  0999 V2000
   -3.2194    6.6917  -20.1888 C   0  0  0  0  0  0  0  0  0  0  0  0
   -3.8143    5.3904  -19.9434 N   0  0  0  0  0  0  0  0  0  0  0  0
   -5.2243    5.4703  -19.5611 C   0  0  0  0  0  0  0  0  0  0  0  0
   -5.4005    5.3925  -18.1107 N   0  0  0  0  0  0  0  0  0  0  0  0
   -4.5445    5.7997  -17.1277 C   0  0  0  0  0  0  0  0  0  0  0  0
   -5.0819    5.7076  -15.9338 N   0  0  0  0  0  0  0  0  0  0  0  0
   -6.3531    5.2267  -16.1302 C   0  0  0  0  0  0  0  0  0  0  0  0
   -7.4076    4.9856  -15.2290 C   0  0  0  0  0  0  0  0  0  0  0  0
   -7.3409    5.4465  -13.8284 C   0  0  0  0  0  0  0  0  0  0  0  0
   -7.1230    6.5762  -13.6233 O   0  0  0  0  0  0  0  0  0  0  0  0
   -7.6881    4.2949  -12.8481 N   0  0  0  0  0  0  0  0  0  0  0  0
   -7.9247    4.3158  -11.4666 C   0  0  0  0  0  0  0  0  0  0  0  0
   -8.3206    3.1027  -10.8745 C   0  0  0  0  0  0  0  0  0  0  0  0
   -8.5537    3.0510   -9.5007 C   0  0  0  0  0  0  0  0  0  0  0  0
   -8.4063    4.1707   -8.6971 C   0  0  0  0  0  0  0  0  0  0  0  0
   -8.0423    5.3642   -9.2685 C   0  0  0  0  0  0  0  0  0  0  0  0
   -7.8058    5.4334  -10.6385 C   0  0  0  0  0  0  0  0  0  0  0  0
   -7.4398    6.6932  -11.0307 O   0  0  0  0  0  0  0  0  0  0  0  0
   -7.5935    7.5522   -9.8731 C   0  0  0  0  0  0  0  0  0  0  0  0
   -6.3226    8.3963   -9.7582 C   0  0  0  0  0  0  0  0  0  0  0  0
   -8.8001    8.4640  -10.1186 C   0  0  0  0  0  0  0  0  0  0  0  0
   -7.7921    6.6712   -8.6259 C   0  0  0  0  0  0  0  0  0  0  0  0
   -8.6982    3.8239   -7.2837 C   0  0  0  0  0  0  0  0  0  0  0  0
   -8.9392    2.3648   -7.2466 N   0  0  0  0  0  0  0  0  0  0  0  0
   -8.9712    1.8929   -8.6597 C   0  0  0  0  0  0  0  0  0  0  0  0
   -8.6355    4.5106  -15.7092 C   0  0  0  0  0  0  0  0  0  0  0  0
   -8.8077    4.3072  -17.0715 C   0  0  0  0  0  0  0  0  0  0  0  0
  -10.3788    4.0119  -17.6717 Cl  0  0  0  0  0  0  0  0  0  0  0  0
   -7.7792    4.5072  -17.9909 C   0  0  0  0  0  0  0  0  0  0  0  0
   -6.5664    4.9883  -17.4906 C   0  0  0  0  0  0  0  0  0  0  0  0
  1  2  1  0
  2  3  1  0
  3  4  1  0
  4  5  1  0
  5  6  2  0
  6  7  1  0
  7  8  2  0
  8  9  1  0
  9 10  2  0
  9 11  1  0
 11 12  1  0
 12 13  2  0
 13 14  1  0
 14 15  2  0
 15 16  1  0
 16 17  2  0
 17 18  1  0
 18 19  1  0
 19 20  1  0
 19 21  1  0
 19 22  1  0
 15 23  1  0
 23 24  1  0
 24 25  1  0
  8 26  1  0
 26 27  2  0
 27 28  1  0
 27 29  1  0
 29 30  2  0
 30  4  1  0
 30  7  1  0
 17 12  1  0
 25 14  1  0
 22 16  1  0
M  END
>  <smiles>  (672) 
C39617-P136

>  <fragmenstein_outcome>  (672) 
acceptable

>  <inchikey>  (672) 
HFSLTIYBTZOLEO-UHFFFAOYSA-N

>  <fragmenstein_mode>  (672) 
expansion

>  <HIPPO Pose ID>  (672) 
17775

>  <Energy>  (672) 
100.866047

>  <fragmenstein_error>  (672) 


>  <tags>  (672) 
{'openbind_xx01zvns2b_c1_fragmenstein', 'fragmenstein_placed'}

>  <ref_pdb>  (672) 
1

>  <scratch_subdir>  (672) 
/opt/xchem-fragalysis-2/maxwin/BulkDock/SCRATCH/511027/C39617-P136

>  <alias>  (672) 
CNCn1cnc2c(C(=O)Nc3cc4c(c5c3OC(C)(C)C5)CNC4)cc(Cl)cc21

>  <HIPPO Compound ID>  (672) 
39617

>  <fragmenstein_runtime>  (672) 
4.281171

$$$$
CNCn1cnc2c(C(=O)Nc3cc(F)c4c(c3)CNC4)cc(Cl)cc21
     RDKit          3D

 26 29  0  0  0  0  0  0  0  0999 V2000
   -3.0323    5.2903  -20.2013 C   0  0  0  0  0  0  0  0  0  0  0  0
   -4.0651    6.2997  -20.0708 N   0  0  0  0  0  0  0  0  0  0  0  0
   -5.3448    5.7621  -19.6150 C   0  0  0  0  0  0  0  0  0  0  0  0
   -5.4093    5.5227  -18.1703 N   0  0  0  0  0  0  0  0  0  0  0  0
   -4.5209    5.8708  -17.1944 C   0  0  0  0  0  0  0  0  0  0  0  0
   -5.0192    5.7066  -15.9899 N   0  0  0  0  0  0  0  0  0  0  0  0
   -6.2931    5.2261  -16.1702 C   0  0  0  0  0  0  0  0  0  0  0  0
   -7.3240    4.9417  -15.2524 C   0  0  0  0  0  0  0  0  0  0  0  0
   -7.2259    5.3492  -13.8339 C   0  0  0  0  0  0  0  0  0  0  0  0
   -6.9200    6.4491  -13.5868 O   0  0  0  0  0  0  0  0  0  0  0  0
   -7.6672    4.1957  -12.8987 N   0  0  0  0  0  0  0  0  0  0  0  0
   -7.9063    4.1848  -11.5259 C   0  0  0  0  0  0  0  0  0  0  0  0
   -7.7861    5.3538  -10.7630 C   0  0  0  0  0  0  0  0  0  0  0  0
   -8.0317    5.3193   -9.3932 C   0  0  0  0  0  0  0  0  0  0  0  0
   -7.9199    6.4365   -8.6644 F   0  0  0  0  0  0  0  0  0  0  0  0
   -8.3878    4.1317   -8.7946 C   0  0  0  0  0  0  0  0  0  0  0  0
   -8.5279    2.9779   -9.5489 C   0  0  0  0  0  0  0  0  0  0  0  0
   -8.2933    2.9842  -10.9170 C   0  0  0  0  0  0  0  0  0  0  0  0
   -8.9422    1.8554   -8.6611 C   0  0  0  0  0  0  0  0  0  0  0  0
   -8.9509    2.3952   -7.2723 N   0  0  0  0  0  0  0  0  0  0  0  0
   -8.6745    3.8479   -7.3677 C   0  0  0  0  0  0  0  0  0  0  0  0
   -8.5596    4.4724  -15.7234 C   0  0  0  0  0  0  0  0  0  0  0  0
   -8.7575    4.3044  -17.0869 C   0  0  0  0  0  0  0  0  0  0  0  0
  -10.3343    3.9960  -17.6651 Cl  0  0  0  0  0  0  0  0  0  0  0  0
   -7.7520    4.5493  -18.0202 C   0  0  0  0  0  0  0  0  0  0  0  0
   -6.5387    5.0409  -17.5325 C   0  0  0  0  0  0  0  0  0  0  0  0
  1  2  1  0
  2  3  1  0
  3  4  1  0
  4  5  1  0
  5  6  2  0
  6  7  1  0
  7  8  2  0
  8  9  1  0
  9 10  2  0
  9 11  1  0
 11 12  1  0
 12 13  2  0
 13 14  1  0
 14 15  1  0
 14 16  2  0
 16 17  1  0
 17 18  2  0
 17 19  1  0
 19 20  1  0
 20 21  1  0
  8 22  1  0
 22 23  2  0
 23 24  1  0
 23 25  1  0
 25 26  2  0
 26  4  1  0
 26  7  1  0
 18 12  1  0
 21 16  1  0
M  END
>  <smiles>  (673) 
C39618-P136

>  <fragmenstein_outcome>  (673) 
acceptable

>  <inchikey>  (673) 
URAUPIRDXYAQNQ-UHFFFAOYSA-N

>  <fragmenstein_mode>  (673) 
expansion

>  <HIPPO Pose ID>  (673) 
17776

>  <Energy>  (673) 
57.460856

>  <fragmenstein_error>  (673) 


>  <tags>  (673) 
{'openbind_xx01zvns2b_c1_fragmenstein', 'fragmenstein_placed'}

>  <ref_pdb>  (673) 
1

>  <scratch_subdir>  (673) 
/opt/xchem-fragalysis-2/maxwin/BulkDock/SCRATCH/511027/C39618-P136

>  <alias>  (673) 
CNCn1cnc2c(C(=O)Nc3cc(F)c4c(c3)CNC4)cc(Cl)cc21

>  <HIPPO Compound ID>  (673) 
39618

>  <fragmenstein_runtime>  (673) 
4.958587

$$$$
CNCn1cnc2c(C(=O)Nc3ccc4c(c3)CN(CC(F)F)C4)cc(Cl)cc21
     RDKit          3D

 29 32  0  0  0  0  0  0  0  0999 V2000
   -2.4447    6.0318  -19.9004 C   0  0  0  0  0  0  0  0  0  0  0  0
   -3.8501    6.3072  -19.6267 N   0  0  0  0  0  0  0  0  0  0  0  0
   -4.5437    5.1206  -19.1336 C   0  0  0  0  0  0  0  0  0  0  0  0
   -5.0803    5.3459  -17.7996 N   0  0  0  0  0  0  0  0  0  0  0  0
   -4.3150    5.6975  -16.7204 C   0  0  0  0  0  0  0  0  0  0  0  0
   -4.9984    5.6699  -15.6050 N   0  0  0  0  0  0  0  0  0  0  0  0
   -6.2572    5.2382  -15.9499 C   0  0  0  0  0  0  0  0  0  0  0  0
   -7.3927    5.0063  -15.1451 C   0  0  0  0  0  0  0  0  0  0  0  0
   -7.4008    5.4674  -13.7426 C   0  0  0  0  0  0  0  0  0  0  0  0
   -7.1207    6.5884  -13.5565 O   0  0  0  0  0  0  0  0  0  0  0  0
   -7.8757    4.3698  -12.7498 N   0  0  0  0  0  0  0  0  0  0  0  0
   -8.0070    4.4001  -11.3591 C   0  0  0  0  0  0  0  0  0  0  0  0
   -7.6153    5.5595  -10.6707 C   0  0  0  0  0  0  0  0  0  0  0  0
   -7.6867    5.6334   -9.2835 C   0  0  0  0  0  0  0  0  0  0  0  0
   -8.1681    4.5376   -8.5982 C   0  0  0  0  0  0  0  0  0  0  0  0
   -8.5988    3.3937   -9.2597 C   0  0  0  0  0  0  0  0  0  0  0  0
   -8.5111    3.2992  -10.6488 C   0  0  0  0  0  0  0  0  0  0  0  0
   -9.1610    2.4351   -8.2461 C   0  0  0  0  0  0  0  0  0  0  0  0
   -8.9023    3.0487   -6.9054 N   0  0  0  0  0  0  0  0  0  0  0  0
  -10.0597    3.1299   -6.0057 C   0  0  0  0  0  0  0  0  0  0  0  0
  -10.7970    1.8550   -5.6088 C   0  0  0  0  0  0  0  0  0  0  0  0
  -12.0510    2.1949   -5.1859 F   0  0  0  0  0  0  0  0  0  0  0  0
  -10.9498    1.0294   -6.6615 F   0  0  0  0  0  0  0  0  0  0  0  0
   -8.3184    4.3815   -7.1278 C   0  0  0  0  0  0  0  0  0  0  0  0
   -8.5696    4.5413  -15.7336 C   0  0  0  0  0  0  0  0  0  0  0  0
   -8.6157    4.3476  -17.1105 C   0  0  0  0  0  0  0  0  0  0  0  0
  -10.1315    3.9908  -17.8151 Cl  0  0  0  0  0  0  0  0  0  0  0  0
   -7.5091    4.5626  -17.9426 C   0  0  0  0  0  0  0  0  0  0  0  0
   -6.3350    5.0174  -17.3303 C   0  0  0  0  0  0  0  0  0  0  0  0
  1  2  1  0
  2  3  1  0
  3  4  1  0
  4  5  1  0
  5  6  2  0
  6  7  1  0
  7  8  2  0
  8  9  1  0
  9 10  2  0
  9 11  1  0
 11 12  1  0
 12 13  2  0
 13 14  1  0
 14 15  2  0
 15 16  1  0
 16 17  2  0
 16 18  1  0
 18 19  1  0
 19 20  1  0
 20 21  1  0
 21 22  1  0
 21 23  1  0
 19 24  1  0
  8 25  1  0
 25 26  2  0
 26 27  1  0
 26 28  1  0
 28 29  2  0
 29  4  1  0
 29  7  1  0
 17 12  1  0
 24 15  1  0
M  END
>  <smiles>  (674) 
C39623-P136

>  <fragmenstein_outcome>  (674) 
acceptable

>  <inchikey>  (674) 
PNTKFCUWQHSSCF-UHFFFAOYSA-N

>  <fragmenstein_mode>  (674) 
expansion

>  <HIPPO Pose ID>  (674) 
17779

>  <Energy>  (674) 
116.484407

>  <fragmenstein_error>  (674) 


>  <tags>  (674) 
{'openbind_xx01zvns2b_c1_fragmenstein', 'fragmenstein_placed'}

>  <ref_pdb>  (674) 
1

>  <scratch_subdir>  (674) 
/opt/xchem-fragalysis-2/maxwin/BulkDock/SCRATCH/511027/C39623-P136

>  <alias>  (674) 
CNCn1cnc2c(C(=O)Nc3ccc4c(c3)CN(CC(F)F)C4)cc(Cl)cc21

>  <HIPPO Compound ID>  (674) 
39932

>  <fragmenstein_runtime>  (674) 
7.157438

$$$$
O=C(Nc1ccc2c(c1)CNC2)c1cccc2c1ncn2NC1CCC1
     RDKit          3D

 26 30  0  0  0  0  0  0  0  0999 V2000
   -7.3546    6.4239  -13.6844 O   0  0  0  0  0  0  0  0  0  0  0  0
   -7.6247    5.3062  -13.8901 C   0  0  0  0  0  0  0  0  0  0  0  0
   -8.0603    4.1849  -12.9181 N   0  0  0  0  0  0  0  0  0  0  0  0
   -8.1591    4.1798  -11.5286 C   0  0  0  0  0  0  0  0  0  0  0  0
   -7.9552    5.3535  -10.7857 C   0  0  0  0  0  0  0  0  0  0  0  0
   -8.0809    5.3512   -9.3934 C   0  0  0  0  0  0  0  0  0  0  0  0
   -8.4120    4.1635   -8.7682 C   0  0  0  0  0  0  0  0  0  0  0  0
   -8.6194    3.0025   -9.5005 C   0  0  0  0  0  0  0  0  0  0  0  0
   -8.4941    2.9888  -10.8809 C   0  0  0  0  0  0  0  0  0  0  0  0
   -9.0007    1.8945   -8.5810 C   0  0  0  0  0  0  0  0  0  0  0  0
   -8.8730    2.4331   -7.1985 N   0  0  0  0  0  0  0  0  0  0  0  0
   -8.6362    3.8883   -7.3233 C   0  0  0  0  0  0  0  0  0  0  0  0
   -7.6704    4.8452  -15.2975 C   0  0  0  0  0  0  0  0  0  0  0  0
   -8.8341    4.2482  -15.8114 C   0  0  0  0  0  0  0  0  0  0  0  0
   -8.9677    4.0130  -17.1792 C   0  0  0  0  0  0  0  0  0  0  0  0
   -7.9716    4.4058  -18.0768 C   0  0  0  0  0  0  0  0  0  0  0  0
   -6.8224    5.0105  -17.5487 C   0  0  0  0  0  0  0  0  0  0  0  0
   -6.6250    5.1841  -16.1765 C   0  0  0  0  0  0  0  0  0  0  0  0
   -5.3753    5.7097  -15.9311 N   0  0  0  0  0  0  0  0  0  0  0  0
   -4.8615    5.9375  -17.1164 C   0  0  0  0  0  0  0  0  0  0  0  0
   -5.7335    5.6256  -18.1260 N   0  0  0  0  0  0  0  0  0  0  0  0
   -5.6795    6.0487  -19.4890 N   0  0  0  0  0  0  0  0  0  0  0  0
   -4.4958    6.7986  -19.8817 C   0  0  0  0  0  0  0  0  0  0  0  0
   -4.6178    7.1983  -21.3695 C   0  0  0  0  0  0  0  0  0  0  0  0
   -3.1415    6.7675  -21.5205 C   0  0  0  0  0  0  0  0  0  0  0  0
   -3.3581    5.8435  -20.3013 C   0  0  0  0  0  0  0  0  0  0  0  0
  1  2  2  0
  2  3  1  0
  3  4  1  0
  4  5  2  0
  5  6  1  0
  6  7  2  0
  7  8  1  0
  8  9  2  0
  8 10  1  0
 10 11  1  0
 11 12  1  0
  2 13  1  0
 13 14  2  0
 14 15  1  0
 15 16  2  0
 16 17  1  0
 17 18  2  0
 18 19  1  0
 19 20  2  0
 20 21  1  0
 21 22  1  0
 22 23  1  0
 23 24  1  0
 24 25  1  0
 25 26  1  0
  9  4  1  0
 18 13  1  0
 26 23  1  0
 12  7  1  0
 21 17  1  0
M  END
>  <smiles>  (675) 
C101534-P136

>  <fragmenstein_outcome>  (675) 
acceptable

>  <inchikey>  (675) 
KUGWYHCHSQDECH-UHFFFAOYSA-N

>  <fragmenstein_mode>  (675) 
expansion

>  <HIPPO Pose ID>  (675) 
17780

>  <Energy>  (675) 
83.776189

>  <fragmenstein_error>  (675) 


>  <tags>  (675) 
{'openbind_xx01zvns2b_c1_fragmenstein', 'fragmenstein_placed'}

>  <ref_pdb>  (675) 
1

>  <scratch_subdir>  (675) 
/opt/xchem-fragalysis-2/maxwin/BulkDock/SCRATCH/511027/C101534-P136

>  <alias>  (675) 
O=C(Nc1ccc2c(c1)CNC2)c1cccc2c1ncn2NC1CCC1

>  <HIPPO Compound ID>  (675) 
106197

>  <fragmenstein_runtime>  (675) 
4.136716

$$$$
O=C(Nc1ccc2c(c1)CNC2)c1cc(F)cc2c1N[C@@H]1C[C@H]3C[C@@]21CNN3
     RDKit          3D

 28 33  0  0  0  0  0  0  0  0999 V2000
   -7.5394    6.5892  -13.6712 O   0  0  0  0  0  0  0  0  0  0  0  0
   -7.6880    5.4545  -13.9046 C   0  0  0  0  0  0  0  0  0  0  0  0
   -8.0268    4.2722  -12.9631 N   0  0  0  0  0  0  0  0  0  0  0  0
   -8.1548    4.2277  -11.5753 C   0  0  0  0  0  0  0  0  0  0  0  0
   -7.9836    5.3823  -10.7939 C   0  0  0  0  0  0  0  0  0  0  0  0
   -8.1377    5.3390   -9.4038 C   0  0  0  0  0  0  0  0  0  0  0  0
   -8.4753    4.1322   -8.8215 C   0  0  0  0  0  0  0  0  0  0  0  0
   -8.6377    2.9842   -9.5905 C   0  0  0  0  0  0  0  0  0  0  0  0
   -8.4729    3.0097  -10.9665 C   0  0  0  0  0  0  0  0  0  0  0  0
   -8.9822    1.8426   -8.6909 C   0  0  0  0  0  0  0  0  0  0  0  0
   -9.3783    2.4706   -7.4012 N   0  0  0  0  0  0  0  0  0  0  0  0
   -8.7161    3.7945   -7.3887 C   0  0  0  0  0  0  0  0  0  0  0  0
   -7.6122    5.0070  -15.3217 C   0  0  0  0  0  0  0  0  0  0  0  0
   -8.6835    4.3084  -15.8913 C   0  0  0  0  0  0  0  0  0  0  0  0
   -8.6641    3.9833  -17.2528 C   0  0  0  0  0  0  0  0  0  0  0  0
   -9.7338    3.3727  -17.7795 F   0  0  0  0  0  0  0  0  0  0  0  0
   -7.5887    4.3127  -18.0795 C   0  0  0  0  0  0  0  0  0  0  0  0
   -6.5243    4.9945  -17.5160 C   0  0  0  0  0  0  0  0  0  0  0  0
   -6.5367    5.3509  -16.1412 C   0  0  0  0  0  0  0  0  0  0  0  0
   -5.4227    6.2145  -15.8125 N   0  0  0  0  0  0  0  0  0  0  0  0
   -4.5096    5.8071  -16.8666 C   0  0  2  0  0  0  0  0  0  0  0  0
   -3.3355    6.6617  -17.2779 C   0  0  0  0  0  0  0  0  0  0  0  0
   -3.2012    6.2983  -18.7931 C   0  0  1  0  0  0  0  0  0  0  0  0
   -4.2097    5.1305  -19.0208 C   0  0  0  0  0  0  0  0  0  0  0  0
   -5.3494    5.6594  -18.1625 C   0  0  1  0  0  0  0  0  0  0  0  0
   -5.8114    7.0155  -18.7779 C   0  0  0  0  0  0  0  0  0  0  0  0
   -4.9923    7.5132  -19.9047 N   0  0  0  0  0  0  0  0  0  0  0  0
   -3.5770    7.4960  -19.5673 N   0  0  0  0  0  0  0  0  0  0  0  0
  1  2  2  0
  2  3  1  0
  3  4  1  0
  4  5  2  0
  5  6  1  0
  6  7  2  0
  7  8  1  0
  8  9  2  0
  8 10  1  0
 10 11  1  0
 11 12  1  0
  2 13  1  0
 13 14  2  0
 14 15  1  0
 15 16  1  0
 15 17  2  0
 17 18  1  0
 18 19  2  0
 19 20  1  0
 20 21  1  0
 21 22  1  6
 23 22  1  1
 23 24  1  0
 24 25  1  0
 25 26  1  6
 26 27  1  0
 27 28  1  0
  9  4  1  0
 19 13  1  0
 25 21  1  0
 12  7  1  0
 25 18  1  0
 28 23  1  0
M  END
>  <smiles>  (676) 
C101535-P136

>  <fragmenstein_outcome>  (676) 
acceptable

>  <inchikey>  (676) 
WGLRJTGUAXJRPA-UHFFFAOYSA-N

>  <fragmenstein_mode>  (676) 
expansion

>  <HIPPO Pose ID>  (676) 
17781

>  <Energy>  (676) 
162.839275

>  <fragmenstein_error>  (676) 


>  <tags>  (676) 
{'openbind_xx01zvns2b_c1_fragmenstein', 'fragmenstein_placed'}

>  <ref_pdb>  (676) 
1

>  <scratch_subdir>  (676) 
/opt/xchem-fragalysis-2/maxwin/BulkDock/SCRATCH/511027/C101535-P136

>  <alias>  (676) 
O=C(Nc1ccc2c(c1)CNC2)c1cc(F)cc2c1N[C@@H]1C[C@H]3C[C@@]21CNN3

>  <HIPPO Compound ID>  (676) 
78380

>  <fragmenstein_runtime>  (676) 
4.923131

$$$$
CC1(C)C(=O)Nc2ccc(C(=O)Nc3ccc4c(c3)CNC4)cc21
     RDKit          3D

 24 27  0  0  0  0  0  0  0  0999 V2000
   -9.4354    2.4447  -17.6183 C   0  0  0  0  0  0  0  0  0  0  0  0
   -9.3087    3.9405  -17.6610 C   0  0  0  0  0  0  0  0  0  0  0  0
  -10.6700    4.6017  -17.6214 C   0  0  0  0  0  0  0  0  0  0  0  0
   -8.6304    4.2084  -18.9817 C   0  0  0  0  0  0  0  0  0  0  0  0
   -9.1238    3.9533  -20.0601 O   0  0  0  0  0  0  0  0  0  0  0  0
   -7.3611    4.6831  -18.7430 N   0  0  0  0  0  0  0  0  0  0  0  0
   -7.1454    4.8502  -17.3958 C   0  0  0  0  0  0  0  0  0  0  0  0
   -6.0323    5.3814  -16.7919 C   0  0  0  0  0  0  0  0  0  0  0  0
   -6.0807    5.5368  -15.4061 C   0  0  0  0  0  0  0  0  0  0  0  0
   -7.2266    5.1515  -14.6757 C   0  0  0  0  0  0  0  0  0  0  0  0
   -7.2857    5.4900  -13.2302 C   0  0  0  0  0  0  0  0  0  0  0  0
   -6.9545    6.5597  -12.9001 O   0  0  0  0  0  0  0  0  0  0  0  0
   -7.8783    4.3262  -12.4056 N   0  0  0  0  0  0  0  0  0  0  0  0
   -8.0915    4.2059  -11.0359 C   0  0  0  0  0  0  0  0  0  0  0  0
   -7.9425    5.3069  -10.1775 C   0  0  0  0  0  0  0  0  0  0  0  0
   -8.1906    5.1851   -8.8064 C   0  0  0  0  0  0  0  0  0  0  0  0
   -8.5969    3.9558   -8.3244 C   0  0  0  0  0  0  0  0  0  0  0  0
   -8.7367    2.8632   -9.1751 C   0  0  0  0  0  0  0  0  0  0  0  0
   -8.4862    2.9652  -10.5318 C   0  0  0  0  0  0  0  0  0  0  0  0
   -9.1484    1.6758   -8.3733 C   0  0  0  0  0  0  0  0  0  0  0  0
   -9.6409    2.2331   -7.0868 N   0  0  0  0  0  0  0  0  0  0  0  0
   -8.9425    3.5320   -6.9353 C   0  0  0  0  0  0  0  0  0  0  0  0
   -8.3400    4.5884  -15.3147 C   0  0  0  0  0  0  0  0  0  0  0  0
   -8.2792    4.4454  -16.6874 C   0  0  0  0  0  0  0  0  0  0  0  0
  1  2  1  0
  2  3  1  0
  2  4  1  0
  4  5  2  0
  4  6  1  0
  6  7  1  0
  7  8  2  0
  8  9  1  0
  9 10  2  0
 10 11  1  0
 11 12  2  0
 11 13  1  0
 13 14  1  0
 14 15  2  0
 15 16  1  0
 16 17  2  0
 17 18  1  0
 18 19  2  0
 18 20  1  0
 20 21  1  0
 21 22  1  0
 10 23  1  0
 23 24  2  0
 24  2  1  0
 24  7  1  0
 19 14  1  0
 22 17  1  0
M  END
>  <smiles>  (677) 
C129-P136

>  <fragmenstein_outcome>  (677) 
acceptable

>  <inchikey>  (677) 
YUZFALXUVOISIG-UHFFFAOYSA-N

>  <fragmenstein_mode>  (677) 
expansion

>  <HIPPO Pose ID>  (677) 
17784

>  <Energy>  (677) 
68.595009

>  <fragmenstein_error>  (677) 


>  <tags>  (677) 
{'openbind_xx01zvns2b_c1_fragmenstein', 'fragmenstein_placed'}

>  <ref_pdb>  (677) 
1

>  <scratch_subdir>  (677) 
/opt/xchem-fragalysis-2/maxwin/BulkDock/SCRATCH/511027/C129-P136

>  <alias>  (677) 
CC1(C)C(=O)Nc2ccc(C(=O)Nc3ccc4c(c3)CNC4)cc21

>  <HIPPO Compound ID>  (677) 
72774

>  <fragmenstein_runtime>  (677) 
3.953051

$$$$
CC1(C)C(=O)Nc2c(Cl)cc(C(=O)N[C@H]3CC4=C(CNC4)C4(C3)NNNN4)cc21
     RDKit          3D

 29 33  0  0  0  0  0  0  0  0999 V2000
   -9.4720    2.3925  -17.7454 C   0  0  0  0  0  0  0  0  0  0  0  0
   -9.5019    3.8965  -17.7266 C   0  0  0  0  0  0  0  0  0  0  0  0
  -10.8946    4.4087  -17.5230 C   0  0  0  0  0  0  0  0  0  0  0  0
   -8.9838    4.3542  -19.0580 C   0  0  0  0  0  0  0  0  0  0  0  0
   -9.6615    4.4534  -20.0604 O   0  0  0  0  0  0  0  0  0  0  0  0
   -7.6366    4.6170  -18.9107 N   0  0  0  0  0  0  0  0  0  0  0  0
   -7.3111    4.7362  -17.5755 C   0  0  0  0  0  0  0  0  0  0  0  0
   -6.1543    5.2364  -17.0248 C   0  0  0  0  0  0  0  0  0  0  0  0
   -4.8246    5.6747  -18.0084 Cl  0  0  0  0  0  0  0  0  0  0  0  0
   -6.1277    5.4287  -15.6490 C   0  0  0  0  0  0  0  0  0  0  0  0
   -7.2577    5.0974  -14.8755 C   0  0  0  0  0  0  0  0  0  0  0  0
   -7.2950    5.4942  -13.4547 C   0  0  0  0  0  0  0  0  0  0  0  0
   -7.0519    6.5986  -13.1812 O   0  0  0  0  0  0  0  0  0  0  0  0
   -7.7666    4.3318  -12.5724 N   0  0  0  0  0  0  0  0  0  0  0  0
   -8.1326    4.3025  -11.1762 C   0  0  1  0  0  0  0  0  0  0  0  0
   -8.3900    2.8671  -10.6816 C   0  0  0  0  0  0  0  0  0  0  0  0
   -8.6495    2.8892   -9.2202 C   0  0  0  0  0  0  0  0  0  0  0  0
   -8.3807    3.9236   -8.4160 C   0  0  0  0  0  0  0  0  0  0  0  0
   -8.8472    3.6219   -7.0392 C   0  0  0  0  0  0  0  0  0  0  0  0
   -9.5898    2.3461   -7.1486 N   0  0  0  0  0  0  0  0  0  0  0  0
   -9.2180    1.7611   -8.4522 C   0  0  0  0  0  0  0  0  0  0  0  0
   -7.6688    5.1758   -8.8367 C   0  0  0  0  0  0  0  0  0  0  0  0
   -7.1126    5.0107  -10.2755 C   0  0  0  0  0  0  0  0  0  0  0  0
   -8.5834    6.3218   -8.7449 N   0  0  0  0  0  0  0  0  0  0  0  0
   -7.9809    7.2524   -7.8411 N   0  0  0  0  0  0  0  0  0  0  0  0
   -7.0169    6.5435   -7.0933 N   0  0  0  0  0  0  0  0  0  0  0  0
   -6.5394    5.5070   -7.9565 N   0  0  0  0  0  0  0  0  0  0  0  0
   -8.4185    4.5565  -15.4452 C   0  0  0  0  0  0  0  0  0  0  0  0
   -8.4231    4.3837  -16.8084 C   0  0  0  0  0  0  0  0  0  0  0  0
  1  2  1  0
  2  3  1  0
  2  4  1  0
  4  5  2  0
  4  6  1  0
  6  7  1  0
  7  8  2  0
  8  9  1  0
  8 10  1  0
 10 11  2  0
 11 12  1  0
 12 13  2  0
 12 14  1  0
 15 14  1  6
 15 16  1  0
 16 17  1  0
 17 18  2  0
 18 19  1  0
 19 20  1  0
 20 21  1  0
 18 22  1  0
 22 23  1  0
 22 24  1  0
 24 25  1  0
 25 26  1  0
 26 27  1  0
 11 28  1  0
 28 29  2  0
 29  2  1  0
 29  7  1  0
 23 15  1  0
 21 17  1  0
 27 22  1  0
M  END
>  <smiles>  (678) 
C101642-P136

>  <fragmenstein_outcome>  (678) 
acceptable

>  <inchikey>  (678) 
SMHKOLJOCSZSLI-UHFFFAOYSA-N

>  <fragmenstein_mode>  (678) 
expansion

>  <HIPPO Pose ID>  (678) 
17813

>  <Energy>  (678) 
52.993036

>  <fragmenstein_error>  (678) 


>  <tags>  (678) 
{'openbind_xx01zvns2b_c1_fragmenstein', 'fragmenstein_placed'}

>  <ref_pdb>  (678) 
1

>  <scratch_subdir>  (678) 
/opt/xchem-fragalysis-2/maxwin/BulkDock/SCRATCH/511027/C101642-P136

>  <alias>  (678) 
CC1(C)C(=O)Nc2c(Cl)cc(C(=O)N[C@H]3CC4=C(CNC4)C4(C3)NNNN4)cc21

>  <HIPPO Compound ID>  (678) 
85832

>  <fragmenstein_runtime>  (678) 
10.893467

$$$$
C[C@@]12CCCc3c(C(=O)Nc4ccc5c(c4)CNC5)ccc(c31)NC2=O
     RDKit          3D

 26 30  0  0  0  0  0  0  0  0999 V2000
   -5.0228    7.4287  -18.0180 C   0  0  0  0  0  0  0  0  0  0  0  0
   -4.8801    5.9114  -17.7863 C   0  0  1  0  0  0  0  0  0  0  0  0
   -3.6168    5.5631  -17.0226 C   0  0  0  0  0  0  0  0  0  0  0  0
   -3.7009    6.1114  -15.5879 C   0  0  0  0  0  0  0  0  0  0  0  0
   -5.0006    5.7899  -14.8056 C   0  0  0  0  0  0  0  0  0  0  0  0
   -6.1943    5.4233  -15.6408 C   0  0  0  0  0  0  0  0  0  0  0  0
   -7.4436    5.0342  -15.1347 C   0  0  0  0  0  0  0  0  0  0  0  0
   -7.7802    5.4286  -13.7430 C   0  0  0  0  0  0  0  0  0  0  0  0
   -7.8034    6.5725  -13.5101 O   0  0  0  0  0  0  0  0  0  0  0  0
   -8.0001    4.2149  -12.8169 N   0  0  0  0  0  0  0  0  0  0  0  0
   -8.1946    4.1513  -11.4353 C   0  0  0  0  0  0  0  0  0  0  0  0
   -8.0977    5.3139  -10.6499 C   0  0  0  0  0  0  0  0  0  0  0  0
   -8.2518    5.2643   -9.2605 C   0  0  0  0  0  0  0  0  0  0  0  0
   -8.5258    4.0425   -8.6767 C   0  0  0  0  0  0  0  0  0  0  0  0
   -8.6417    2.8934   -9.4479 C   0  0  0  0  0  0  0  0  0  0  0  0
   -8.4644    2.9241  -10.8263 C   0  0  0  0  0  0  0  0  0  0  0  0
   -8.9570    1.7358   -8.5617 C   0  0  0  0  0  0  0  0  0  0  0  0
   -9.1546    2.2910   -7.1954 N   0  0  0  0  0  0  0  0  0  0  0  0
   -8.7382    3.7082   -7.2411 C   0  0  0  0  0  0  0  0  0  0  0  0
   -8.4325    4.4901  -15.9899 C   0  0  0  0  0  0  0  0  0  0  0  0
   -8.1798    4.3361  -17.3701 C   0  0  0  0  0  0  0  0  0  0  0  0
   -6.9714    4.7977  -17.8515 C   0  0  0  0  0  0  0  0  0  0  0  0
   -6.0470    5.3842  -17.0088 C   0  0  0  0  0  0  0  0  0  0  0  0
   -6.4129    4.7498  -19.1262 N   0  0  0  0  0  0  0  0  0  0  0  0
   -5.1054    5.2431  -19.1449 C   0  0  0  0  0  0  0  0  0  0  0  0
   -4.3168    5.2260  -20.0747 O   0  0  0  0  0  0  0  0  0  0  0  0
  2  1  1  6
  2  3  1  0
  3  4  1  0
  4  5  1  0
  5  6  1  0
  6  7  2  0
  7  8  1  0
  8  9  2  0
  8 10  1  0
 10 11  1  0
 11 12  2  0
 12 13  1  0
 13 14  2  0
 14 15  1  0
 15 16  2  0
 15 17  1  0
 17 18  1  0
 18 19  1  0
  7 20  1  0
 20 21  2  0
 21 22  1  0
 22 23  2  0
 22 24  1  0
 24 25  1  0
 25 26  2  0
 23  2  1  0
 25  2  1  0
 23  6  1  0
 16 11  1  0
 19 14  1  0
M  END
>  <smiles>  (679) 
C101668-P136

>  <fragmenstein_outcome>  (679) 
acceptable

>  <inchikey>  (679) 
SYLDLAZCXGOGQL-UHFFFAOYSA-N

>  <fragmenstein_mode>  (679) 
expansion

>  <HIPPO Pose ID>  (679) 
17821

>  <Energy>  (679) 
77.196325

>  <fragmenstein_error>  (679) 


>  <tags>  (679) 
{'openbind_xx01zvns2b_c1_fragmenstein', 'fragmenstein_placed'}

>  <ref_pdb>  (679) 
1

>  <scratch_subdir>  (679) 
/opt/xchem-fragalysis-2/maxwin/BulkDock/SCRATCH/511027/C101668-P136

>  <alias>  (679) 
C[C@@]12CCCc3c(C(=O)Nc4ccc5c(c4)CNC5)ccc(c31)NC2=O

>  <HIPPO Compound ID>  (679) 
101668

>  <fragmenstein_runtime>  (679) 
2.83426

$$$$
C[C@]1(CN)C(=O)Nc2c(Cl)cc(C(=O)Nc3ccc4c(c3)CNC4)cc21
     RDKit          3D

 26 29  0  0  0  0  0  0  0  0999 V2000
   -5.0145    7.1787  -17.4393 C   0  0  0  0  0  0  0  0  0  0  0  0
   -5.1120    5.6665  -17.6884 C   0  0  2  0  0  0  0  0  0  0  0  0
   -3.7917    4.9467  -17.4220 C   0  0  0  0  0  0  0  0  0  0  0  0
   -3.3364    4.9663  -16.0331 N   0  0  0  0  0  0  0  0  0  0  0  0
   -5.5030    5.4516  -19.1587 C   0  0  0  0  0  0  0  0  0  0  0  0
   -4.7671    5.5906  -20.1237 O   0  0  0  0  0  0  0  0  0  0  0  0
   -6.8492    5.1046  -19.1617 N   0  0  0  0  0  0  0  0  0  0  0  0
   -7.3267    4.8331  -17.8855 C   0  0  0  0  0  0  0  0  0  0  0  0
   -8.5619    4.3474  -17.4849 C   0  0  0  0  0  0  0  0  0  0  0  0
   -9.8606    4.1107  -18.5675 Cl  0  0  0  0  0  0  0  0  0  0  0  0
   -8.7377    4.0287  -16.1411 C   0  0  0  0  0  0  0  0  0  0  0  0
   -7.6832    4.2136  -15.2434 C   0  0  0  0  0  0  0  0  0  0  0  0
   -7.7817    3.7233  -13.8592 C   0  0  0  0  0  0  0  0  0  0  0  0
   -7.6786    2.5849  -13.6355 O   0  0  0  0  0  0  0  0  0  0  0  0
   -7.9193    4.9205  -12.9008 N   0  0  0  0  0  0  0  0  0  0  0  0
   -8.0490    4.9593  -11.5222 C   0  0  0  0  0  0  0  0  0  0  0  0
   -7.9640    6.2101  -10.8879 C   0  0  0  0  0  0  0  0  0  0  0  0
   -8.0395    6.3037   -9.4983 C   0  0  0  0  0  0  0  0  0  0  0  0
   -8.2312    5.1385   -8.7789 C   0  0  0  0  0  0  0  0  0  0  0  0
   -8.3481    3.9052   -9.4125 C   0  0  0  0  0  0  0  0  0  0  0  0
   -8.2436    3.7913  -10.7851 C   0  0  0  0  0  0  0  0  0  0  0  0
   -8.5595    2.8365   -8.3933 C   0  0  0  0  0  0  0  0  0  0  0  0
   -8.8358    3.5634   -7.1215 N   0  0  0  0  0  0  0  0  0  0  0  0
   -8.3233    4.9362   -7.3065 C   0  0  0  0  0  0  0  0  0  0  0  0
   -6.4820    4.8023  -15.6323 C   0  0  0  0  0  0  0  0  0  0  0  0
   -6.3087    5.0923  -16.9703 C   0  0  0  0  0  0  0  0  0  0  0  0
  2  1  1  6
  2  3  1  0
  3  4  1  0
  2  5  1  0
  5  6  2  0
  5  7  1  0
  7  8  1  0
  8  9  2  0
  9 10  1  0
  9 11  1  0
 11 12  2  0
 12 13  1  0
 13 14  2  0
 13 15  1  0
 15 16  1  0
 16 17  2  0
 17 18  1  0
 18 19  2  0
 19 20  1  0
 20 21  2  0
 20 22  1  0
 22 23  1  0
 23 24  1  0
 12 25  1  0
 25 26  2  0
 26  2  1  0
 26  8  1  0
 21 16  1  0
 24 19  1  0
M  END
>  <smiles>  (680) 
C101747-P137

>  <fragmenstein_outcome>  (680) 
acceptable

>  <inchikey>  (680) 
QQPHUMIHZPHDRC-UHFFFAOYSA-N

>  <fragmenstein_mode>  (680) 
expansion

>  <HIPPO Pose ID>  (680) 
17846

>  <Energy>  (680) 
83.495427

>  <fragmenstein_error>  (680) 


>  <tags>  (680) 
{'openbind_xx01zvns2b_c1_fragmenstein', 'fragmenstein_placed'}

>  <ref_pdb>  (680) 
1

>  <scratch_subdir>  (680) 
/opt/xchem-fragalysis-2/maxwin/BulkDock/SCRATCH/511027/C101747-P137

>  <alias>  (680) 
C[C@]1(CN)C(=O)Nc2c(Cl)cc(C(=O)Nc3ccc4c(c3)CNC4)cc21

>  <HIPPO Compound ID>  (680) 
101747

>  <fragmenstein_runtime>  (680) 
3.024159

$$$$
Cc1cc2c(cc1C(=O)C(=O)c1cc(Cl)cc(N3N[C@@](C)(CO)CC3=O)n1)CNC2
     RDKit          3D

 30 33  0  0  0  0  0  0  0  0999 V2000
   -8.1214    6.8829  -11.8879 C   0  0  0  0  0  0  0  0  0  0  0  0
   -8.1612    5.6582  -11.0151 C   0  0  0  0  0  0  0  0  0  0  0  0
   -8.1695    5.8957   -9.6260 C   0  0  0  0  0  0  0  0  0  0  0  0
   -8.3238    4.8307   -8.7586 C   0  0  0  0  0  0  0  0  0  0  0  0
   -8.5209    3.5463   -9.2337 C   0  0  0  0  0  0  0  0  0  0  0  0
   -8.4416    3.2657  -10.5809 C   0  0  0  0  0  0  0  0  0  0  0  0
   -8.1948    4.3148  -11.4829 C   0  0  0  0  0  0  0  0  0  0  0  0
   -7.8737    3.8598  -12.8642 C   0  0  0  0  0  0  0  0  0  0  0  0
   -7.9847    2.6892  -13.2181 O   0  0  0  0  0  0  0  0  0  0  0  0
   -7.1757    4.7569  -13.8244 C   0  0  0  0  0  0  0  0  0  0  0  0
   -6.2446    5.4284  -13.3915 O   0  0  0  0  0  0  0  0  0  0  0  0
   -7.5155    4.7293  -15.2646 C   0  0  0  0  0  0  0  0  0  0  0  0
   -8.7047    4.2894  -15.8036 C   0  0  0  0  0  0  0  0  0  0  0  0
   -8.8049    4.2901  -17.1927 C   0  0  0  0  0  0  0  0  0  0  0  0
  -10.2863    3.8991  -17.9649 Cl  0  0  0  0  0  0  0  0  0  0  0  0
   -7.7327    4.6586  -17.9931 C   0  0  0  0  0  0  0  0  0  0  0  0
   -6.6067    5.1369  -17.3627 C   0  0  0  0  0  0  0  0  0  0  0  0
   -5.4949    5.5797  -18.0905 N   0  0  0  0  0  0  0  0  0  0  0  0
   -5.0686    4.9337  -19.2792 N   0  0  0  0  0  0  0  0  0  0  0  0
   -3.9050    5.7363  -19.7318 C   0  0  1  0  0  0  0  0  0  0  0  0
   -2.8033    4.8808  -20.3624 C   0  0  0  0  0  0  0  0  0  0  0  0
   -4.3989    6.7619  -20.7780 C   0  0  0  0  0  0  0  0  0  0  0  0
   -5.5513    7.4679  -20.3201 O   0  0  0  0  0  0  0  0  0  0  0  0
   -3.3802    6.4112  -18.4559 C   0  0  0  0  0  0  0  0  0  0  0  0
   -4.5673    6.4748  -17.5645 C   0  0  0  0  0  0  0  0  0  0  0  0
   -4.6293    7.2001  -16.5834 O   0  0  0  0  0  0  0  0  0  0  0  0
   -6.5113    5.1921  -16.0294 N   0  0  0  0  0  0  0  0  0  0  0  0
   -8.8212    2.6265   -8.1028 C   0  0  0  0  0  0  0  0  0  0  0  0
   -8.5291    3.4032   -6.8703 N   0  0  0  0  0  0  0  0  0  0  0  0
   -8.3672    4.8175   -7.2705 C   0  0  0  0  0  0  0  0  0  0  0  0
  1  2  1  0
  2  3  2  0
  3  4  1  0
  4  5  2  0
  5  6  1  0
  6  7  2  0
  7  8  1  0
  8  9  2  0
  8 10  1  0
 10 11  2  0
 10 12  1  0
 12 13  2  0
 13 14  1  0
 14 15  1  0
 14 16  2  0
 16 17  1  0
 17 18  1  0
 18 19  1  0
 19 20  1  0
 20 21  1  6
 20 22  1  0
 22 23  1  0
 20 24  1  0
 24 25  1  0
 25 26  2  0
 17 27  2  0
  5 28  1  0
 28 29  1  0
 29 30  1  0
  7  2  1  0
 27 12  1  0
 30  4  1  0
 25 18  1  0
M  END
>  <smiles>  (681) 
C101853-P137

>  <fragmenstein_outcome>  (681) 
acceptable

>  <inchikey>  (681) 
SAPUTGXIQPTJFN-UHFFFAOYSA-N

>  <fragmenstein_mode>  (681) 
expansion

>  <HIPPO Pose ID>  (681) 
17886

>  <Energy>  (681) 
141.499048

>  <fragmenstein_error>  (681) 


>  <tags>  (681) 
{'openbind_xx01zvns2b_c1_fragmenstein', 'fragmenstein_placed'}

>  <ref_pdb>  (681) 
1

>  <scratch_subdir>  (681) 
/opt/xchem-fragalysis-2/maxwin/BulkDock/SCRATCH/511027/C101853-P137

>  <alias>  (681) 
Cc1cc2c(cc1C(=O)C(=O)c1cc(Cl)cc(N3N[C@@](C)(CO)CC3=O)n1)CNC2

>  <HIPPO Compound ID>  (681) 
101853

>  <fragmenstein_runtime>  (681) 
5.279514

$$$$
O=C(Nc1ccc2c(c1)CNC2)c1cccc2cc(CC3(O)CCCC3)nn12
     RDKit          3D

 28 32  0  0  0  0  0  0  0  0999 V2000
   -7.3420    6.8558  -14.1410 O   0  0  0  0  0  0  0  0  0  0  0  0
   -7.6145    5.7267  -14.2755 C   0  0  0  0  0  0  0  0  0  0  0  0
   -7.9941    4.6497  -13.2205 N   0  0  0  0  0  0  0  0  0  0  0  0
   -8.0219    4.7168  -11.8289 C   0  0  0  0  0  0  0  0  0  0  0  0
   -7.7142    5.9180  -11.1681 C   0  0  0  0  0  0  0  0  0  0  0  0
   -7.7275    5.9931   -9.7734 C   0  0  0  0  0  0  0  0  0  0  0  0
   -8.0603    4.8561   -9.0614 C   0  0  0  0  0  0  0  0  0  0  0  0
   -8.3893    3.6723   -9.7102 C   0  0  0  0  0  0  0  0  0  0  0  0
   -8.3699    3.5793  -11.0949 C   0  0  0  0  0  0  0  0  0  0  0  0
   -8.7576    2.6368   -8.7012 C   0  0  0  0  0  0  0  0  0  0  0  0
   -8.5279    3.2534   -7.3676 N   0  0  0  0  0  0  0  0  0  0  0  0
   -8.1494    4.6640   -7.5879 C   0  0  0  0  0  0  0  0  0  0  0  0
   -7.7092    5.1311  -15.6440 C   0  0  0  0  0  0  0  0  0  0  0  0
   -8.8318    4.4687  -15.9963 C   0  0  0  0  0  0  0  0  0  0  0  0
   -9.0405    4.0901  -17.3808 C   0  0  0  0  0  0  0  0  0  0  0  0
   -8.1186    4.3504  -18.3212 C   0  0  0  0  0  0  0  0  0  0  0  0
   -6.9147    5.0070  -17.9560 C   0  0  0  0  0  0  0  0  0  0  0  0
   -5.8143    5.4172  -18.6612 C   0  0  0  0  0  0  0  0  0  0  0  0
   -5.0387    6.1329  -17.7320 C   0  0  0  0  0  0  0  0  0  0  0  0
   -3.8242    6.9529  -18.0306 C   0  0  0  0  0  0  0  0  0  0  0  0
   -2.4765    6.2936  -17.6803 C   0  0  0  0  0  0  0  0  0  0  0  0
   -2.3154    5.0733  -18.4047 O   0  0  0  0  0  0  0  0  0  0  0  0
   -1.3099    7.2406  -18.0089 C   0  0  0  0  0  0  0  0  0  0  0  0
   -1.2032    8.1824  -16.8098 C   0  0  0  0  0  0  0  0  0  0  0  0
   -1.8970    7.4690  -15.6483 C   0  0  0  0  0  0  0  0  0  0  0  0
   -2.2486    6.0847  -16.1797 C   0  0  0  0  0  0  0  0  0  0  0  0
   -5.5784    6.1181  -16.5084 N   0  0  0  0  0  0  0  0  0  0  0  0
   -6.7436    5.4134  -16.6277 N   0  0  0  0  0  0  0  0  0  0  0  0
  1  2  2  0
  2  3  1  0
  3  4  1  0
  4  5  2  0
  5  6  1  0
  6  7  2  0
  7  8  1  0
  8  9  2  0
  8 10  1  0
 10 11  1  0
 11 12  1  0
  2 13  1  0
 13 14  2  0
 14 15  1  0
 15 16  2  0
 16 17  1  0
 17 18  2  0
 18 19  1  0
 19 20  1  0
 20 21  1  0
 21 22  1  0
 21 23  1  0
 23 24  1  0
 24 25  1  0
 25 26  1  0
 19 27  2  0
 27 28  1  0
  9  4  1  0
 28 13  1  0
 12  7  1  0
 28 17  1  0
 26 21  1  0
M  END
>  <smiles>  (682) 
C101865-P137

>  <fragmenstein_outcome>  (682) 
acceptable

>  <inchikey>  (682) 
UKELOAOGDWGVNP-UHFFFAOYSA-N

>  <fragmenstein_mode>  (682) 
expansion

>  <HIPPO Pose ID>  (682) 
17894

>  <Energy>  (682) 
81.618812

>  <fragmenstein_error>  (682) 


>  <tags>  (682) 
{'openbind_xx01zvns2b_c1_fragmenstein', 'fragmenstein_placed'}

>  <ref_pdb>  (682) 
1

>  <scratch_subdir>  (682) 
/opt/xchem-fragalysis-2/maxwin/BulkDock/SCRATCH/511027/C101865-P137

>  <alias>  (682) 
O=C(Nc1ccc2c(c1)CNC2)c1cccc2cc(CC3(O)CCCC3)nn12

>  <HIPPO Compound ID>  (682) 
101865

>  <fragmenstein_runtime>  (682) 
4.752309

$$$$
CNC(=O)[C@](O)(Nc1ccc2c(c1)CNC2)c1cc(Cl)cc2nc(C)c(O)n12
     RDKit          3D

 28 31  0  0  0  0  0  0  0  0999 V2000
   -4.6329    2.2962  -11.6281 C   0  0  0  0  0  0  0  0  0  0  0  0
   -5.5020    3.1672  -12.3587 N   0  0  0  0  0  0  0  0  0  0  0  0
   -6.6090    2.8451  -13.4062 C   0  0  0  0  0  0  0  0  0  0  0  0
   -7.0294    1.8165  -13.7722 O   0  0  0  0  0  0  0  0  0  0  0  0
   -7.2116    4.2753  -13.8703 C   0  0  2  0  0  0  0  0  0  0  0  0
   -6.4078    5.3916  -13.5048 O   0  0  0  0  0  0  0  0  0  0  0  0
   -8.5166    4.4882  -13.1848 N   0  0  0  0  0  0  0  0  0  0  0  0
   -8.4406    4.5974  -11.7670 C   0  0  0  0  0  0  0  0  0  0  0  0
   -8.1304    5.8334  -11.1573 C   0  0  0  0  0  0  0  0  0  0  0  0
   -7.9741    5.9463   -9.7733 C   0  0  0  0  0  0  0  0  0  0  0  0
   -8.1603    4.8148   -9.0039 C   0  0  0  0  0  0  0  0  0  0  0  0
   -8.5007    3.6014   -9.5855 C   0  0  0  0  0  0  0  0  0  0  0  0
   -8.6271    3.4677  -10.9587 C   0  0  0  0  0  0  0  0  0  0  0  0
   -8.7138    2.5747   -8.5263 C   0  0  0  0  0  0  0  0  0  0  0  0
   -8.4863    3.2674   -7.2311 N   0  0  0  0  0  0  0  0  0  0  0  0
   -8.0798    4.6543   -7.5260 C   0  0  0  0  0  0  0  0  0  0  0  0
   -7.3942    4.3522  -15.3870 C   0  0  0  0  0  0  0  0  0  0  0  0
   -8.6041    4.1945  -15.9858 C   0  0  0  0  0  0  0  0  0  0  0  0
   -8.7564    4.2916  -17.4237 C   0  0  0  0  0  0  0  0  0  0  0  0
  -10.3209    4.0826  -18.1030 Cl  0  0  0  0  0  0  0  0  0  0  0  0
   -7.7121    4.5588  -18.2152 C   0  0  0  0  0  0  0  0  0  0  0  0
   -6.4356    4.7719  -17.6447 C   0  0  0  0  0  0  0  0  0  0  0  0
   -5.3174    5.1081  -18.2454 N   0  0  0  0  0  0  0  0  0  0  0  0
   -4.3823    5.1877  -17.2600 C   0  0  0  0  0  0  0  0  0  0  0  0
   -2.9984    5.5753  -17.6012 C   0  0  0  0  0  0  0  0  0  0  0  0
   -4.9362    4.9233  -16.0225 C   0  0  0  0  0  0  0  0  0  0  0  0
   -4.3329    4.9478  -14.8357 O   0  0  0  0  0  0  0  0  0  0  0  0
   -6.2913    4.6504  -16.2505 N   0  0  0  0  0  0  0  0  0  0  0  0
  1  2  1  0
  2  3  1  0
  3  4  2  0
  3  5  1  0
  5  6  1  1
  5  7  1  0
  7  8  1  0
  8  9  2  0
  9 10  1  0
 10 11  2  0
 11 12  1  0
 12 13  2  0
 12 14  1  0
 14 15  1  0
 15 16  1  0
  5 17  1  0
 17 18  2  0
 18 19  1  0
 19 20  1  0
 19 21  2  0
 21 22  1  0
 22 23  2  0
 23 24  1  0
 24 25  1  0
 24 26  2  0
 26 27  1  0
 26 28  1  0
 13  8  1  0
 28 17  1  0
 16 11  1  0
 28 22  1  0
M  END
>  <smiles>  (683) 
C101875-P137

>  <fragmenstein_outcome>  (683) 
acceptable

>  <inchikey>  (683) 
RMMBGMDYOWDCCB-UHFFFAOYSA-N

>  <fragmenstein_mode>  (683) 
expansion

>  <HIPPO Pose ID>  (683) 
17896

>  <Energy>  (683) 
86.107933

>  <fragmenstein_error>  (683) 


>  <tags>  (683) 
{'openbind_xx01zvns2b_c1_fragmenstein', 'fragmenstein_placed'}

>  <ref_pdb>  (683) 
1

>  <scratch_subdir>  (683) 
/opt/xchem-fragalysis-2/maxwin/BulkDock/SCRATCH/511027/C101875-P137

>  <alias>  (683) 
CNC(=O)[C@](O)(Nc1ccc2c(c1)CNC2)c1cc(Cl)cc2nc(C)c(O)n12

>  <HIPPO Compound ID>  (683) 
100006

>  <fragmenstein_runtime>  (683) 
3.985975

$$$$
Cc1cnn2c(C(=O)Nc3ccc4c(c3)CNC4)cc(Br)cc12
     RDKit          3D

 23 26  0  0  0  0  0  0  0  0999 V2000
   -4.7933    5.5299  -19.4672 C   0  0  0  0  0  0  0  0  0  0  0  0
   -5.1603    5.1658  -18.0813 C   0  0  0  0  0  0  0  0  0  0  0  0
   -4.3325    5.0837  -16.9472 C   0  0  0  0  0  0  0  0  0  0  0  0
   -4.9827    4.7208  -15.8409 N   0  0  0  0  0  0  0  0  0  0  0  0
   -6.2666    4.5046  -16.2380 N   0  0  0  0  0  0  0  0  0  0  0  0
   -7.3658    4.0948  -15.4799 C   0  0  0  0  0  0  0  0  0  0  0  0
   -7.2777    3.6190  -14.0808 C   0  0  0  0  0  0  0  0  0  0  0  0
   -7.0968    2.4970  -13.8119 O   0  0  0  0  0  0  0  0  0  0  0  0
   -7.5678    4.8373  -13.1665 N   0  0  0  0  0  0  0  0  0  0  0  0
   -7.7808    4.9057  -11.7948 C   0  0  0  0  0  0  0  0  0  0  0  0
   -7.8167    6.1738  -11.1893 C   0  0  0  0  0  0  0  0  0  0  0  0
   -7.9894    6.2983   -9.8081 C   0  0  0  0  0  0  0  0  0  0  0  0
   -8.1591    5.1438   -9.0661 C   0  0  0  0  0  0  0  0  0  0  0  0
   -8.1691    3.8915   -9.6721 C   0  0  0  0  0  0  0  0  0  0  0  0
   -7.9666    3.7497  -11.0338 C   0  0  0  0  0  0  0  0  0  0  0  0
   -8.3728    2.8372   -8.6349 C   0  0  0  0  0  0  0  0  0  0  0  0
   -8.7549    3.5767   -7.3978 N   0  0  0  0  0  0  0  0  0  0  0  0
   -8.3058    4.9702   -7.5939 C   0  0  0  0  0  0  0  0  0  0  0  0
   -8.5918    4.0410  -16.0364 C   0  0  0  0  0  0  0  0  0  0  0  0
   -8.7455    4.3512  -17.4431 C   0  0  0  0  0  0  0  0  0  0  0  0
  -10.4370    4.2122  -18.1848 Br  0  0  0  0  0  0  0  0  0  0  0  0
   -7.6866    4.7096  -18.1875 C   0  0  0  0  0  0  0  0  0  0  0  0
   -6.4010    4.8222  -17.5965 C   0  0  0  0  0  0  0  0  0  0  0  0
  1  2  1  0
  2  3  1  0
  3  4  2  0
  4  5  1  0
  5  6  1  0
  6  7  1  0
  7  8  2  0
  7  9  1  0
  9 10  1  0
 10 11  2  0
 11 12  1  0
 12 13  2  0
 13 14  1  0
 14 15  2  0
 14 16  1  0
 16 17  1  0
 17 18  1  0
  6 19  2  0
 19 20  1  0
 20 21  1  0
 20 22  2  0
 22 23  1  0
 23  2  2  0
 23  5  1  0
 15 10  1  0
 18 13  1  0
M  END
>  <smiles>  (684) 
C101884-P137

>  <fragmenstein_outcome>  (684) 
acceptable

>  <inchikey>  (684) 
ZDGJIMFAPLGIFG-UHFFFAOYSA-N

>  <fragmenstein_mode>  (684) 
expansion

>  <HIPPO Pose ID>  (684) 
17900

>  <Energy>  (684) 
44.149113

>  <fragmenstein_error>  (684) 


>  <tags>  (684) 
{'openbind_xx01zvns2b_c1_fragmenstein', 'fragmenstein_placed'}

>  <ref_pdb>  (684) 
1

>  <scratch_subdir>  (684) 
/opt/xchem-fragalysis-2/maxwin/BulkDock/SCRATCH/511027/C101884-P137

>  <alias>  (684) 
Cc1cnn2c(C(=O)Nc3ccc4c(c3)CNC4)cc(Br)cc12

>  <HIPPO Compound ID>  (684) 
92868

>  <fragmenstein_runtime>  (684) 
3.070787

$$$$
CCCNC(=O)[C@](O)(Nc1ccc2c(c1)CNC2)[C@@H]1C[C@H](Cl)CN2CN3C[C@@]12CNN3
     RDKit          3D

 31 35  0  0  0  0  0  0  0  0999 V2000
   -2.4119    1.1935  -11.9868 C   0  0  0  0  0  0  0  0  0  0  0  0
   -3.3629    2.0897  -12.7628 C   0  0  0  0  0  0  0  0  0  0  0  0
   -4.5873    2.4553  -11.9335 C   0  0  0  0  0  0  0  0  0  0  0  0
   -5.3917    3.4425  -12.6069 N   0  0  0  0  0  0  0  0  0  0  0  0
   -6.6085    3.2724  -13.5690 C   0  0  0  0  0  0  0  0  0  0  0  0
   -7.1859    2.3100  -13.8959 O   0  0  0  0  0  0  0  0  0  0  0  0
   -7.0487    4.7852  -13.9991 C   0  0  2  0  0  0  0  0  0  0  0  0
   -6.0674    5.7680  -13.6842 O   0  0  0  0  0  0  0  0  0  0  0  0
   -8.2694    5.2045  -13.2544 N   0  0  0  0  0  0  0  0  0  0  0  0
   -8.2702    5.1108  -11.8503 C   0  0  0  0  0  0  0  0  0  0  0  0
   -8.0000    6.2631  -11.0786 C   0  0  0  0  0  0  0  0  0  0  0  0
   -7.8929    6.2014   -9.6871 C   0  0  0  0  0  0  0  0  0  0  0  0
   -8.0795    4.9782   -9.0732 C   0  0  0  0  0  0  0  0  0  0  0  0
   -8.3782    3.8424   -9.8145 C   0  0  0  0  0  0  0  0  0  0  0  0
   -8.4648    3.8871  -11.1988 C   0  0  0  0  0  0  0  0  0  0  0  0
   -8.5723    2.6814   -8.8963 C   0  0  0  0  0  0  0  0  0  0  0  0
   -8.4687    3.2305   -7.5185 N   0  0  0  0  0  0  0  0  0  0  0  0
   -8.0141    4.6279   -7.6266 C   0  0  0  0  0  0  0  0  0  0  0  0
   -7.3542    4.9652  -15.5311 C   0  0  2  0  0  0  0  0  0  0  0  0
   -8.4540    4.0158  -16.0261 C   0  0  0  0  0  0  0  0  0  0  0  0
   -8.9209    4.4112  -17.4146 C   0  0  2  0  0  0  0  0  0  0  0  0
  -10.0725    3.3026  -18.1356 Cl  0  0  0  0  0  0  0  0  0  0  0  0
   -7.7954    4.7276  -18.3963 C   0  0  0  0  0  0  0  0  0  0  0  0
   -6.4325    4.4888  -17.8988 N   0  0  0  0  0  0  0  0  0  0  0  0
   -5.4612    5.1477  -18.7973 C   0  0  0  0  0  0  0  0  0  0  0  0
   -4.8533    6.2704  -18.0399 N   0  0  0  0  0  0  0  0  0  0  0  0
   -5.8151    6.4766  -16.9427 C   0  0  0  0  0  0  0  0  0  0  0  0
   -6.1396    5.0322  -16.5360 C   0  0  1  0  0  0  0  0  0  0  0  0
   -4.7894    4.3879  -16.0652 C   0  0  0  0  0  0  0  0  0  0  0  0
   -3.6164    5.2727  -16.1943 N   0  0  0  0  0  0  0  0  0  0  0  0
   -3.5665    5.8717  -17.4922 N   0  0  0  0  0  0  0  0  0  0  0  0
  1  2  1  0
  2  3  1  0
  3  4  1  0
  4  5  1  0
  5  6  2  0
  5  7  1  0
  7  8  1  1
  7  9  1  0
  9 10  1  0
 10 11  2  0
 11 12  1  0
 12 13  2  0
 13 14  1  0
 14 15  2  0
 14 16  1  0
 16 17  1  0
 17 18  1  0
  7 19  1  0
 19 20  1  6
 20 21  1  0
 21 22  1  6
 21 23  1  0
 23 24  1  0
 24 25  1  0
 25 26  1  0
 26 27  1  0
 27 28  1  0
 28 29  1  1
 29 30  1  0
 30 31  1  0
 15 10  1  0
 28 19  1  0
 18 13  1  0
 28 24  1  0
 31 26  1  0
M  END
>  <smiles>  (685) 
C101890-P137

>  <fragmenstein_outcome>  (685) 
acceptable

>  <inchikey>  (685) 
KOYSDAJWABDYFG-UHFFFAOYSA-N

>  <fragmenstein_mode>  (685) 
expansion

>  <HIPPO Pose ID>  (685) 
17904

>  <Energy>  (685) 
158.505296

>  <fragmenstein_error>  (685) 


>  <tags>  (685) 
{'openbind_xx01zvns2b_c1_fragmenstein', 'fragmenstein_placed'}

>  <ref_pdb>  (685) 
1

>  <scratch_subdir>  (685) 
/opt/xchem-fragalysis-2/maxwin/BulkDock/SCRATCH/511027/C101890-P137

>  <alias>  (685) 
CCCNC(=O)[C@](O)(Nc1ccc2c(c1)CNC2)[C@@H]1C[C@H](Cl)CN2CN3C[C@@]12CNN3

>  <HIPPO Compound ID>  (685) 
101890

>  <fragmenstein_runtime>  (685) 
4.992906

$$$$
Cc1ccn2c(C(=O)Nc3ccc4c(c3)CNC4)cc(Cl)cc12
     RDKit          3D

 23 26  0  0  0  0  0  0  0  0999 V2000
   -4.9519    5.5195  -19.5384 C   0  0  0  0  0  0  0  0  0  0  0  0
   -5.2628    5.1474  -18.1351 C   0  0  0  0  0  0  0  0  0  0  0  0
   -4.3520    5.0655  -17.0479 C   0  0  0  0  0  0  0  0  0  0  0  0
   -5.0527    4.6512  -15.9347 C   0  0  0  0  0  0  0  0  0  0  0  0
   -6.3751    4.4809  -16.2804 N   0  0  0  0  0  0  0  0  0  0  0  0
   -7.4629    4.0903  -15.4964 C   0  0  0  0  0  0  0  0  0  0  0  0
   -7.3577    3.6301  -14.0906 C   0  0  0  0  0  0  0  0  0  0  0  0
   -7.0917    2.5296  -13.8072 O   0  0  0  0  0  0  0  0  0  0  0  0
   -7.7041    4.8427  -13.1910 N   0  0  0  0  0  0  0  0  0  0  0  0
   -7.8805    4.9242  -11.8155 C   0  0  0  0  0  0  0  0  0  0  0  0
   -7.9309    6.1983  -11.2242 C   0  0  0  0  0  0  0  0  0  0  0  0
   -8.0634    6.3345   -9.8397 C   0  0  0  0  0  0  0  0  0  0  0  0
   -8.1856    5.1851   -9.0808 C   0  0  0  0  0  0  0  0  0  0  0  0
   -8.1825    3.9258   -9.6723 C   0  0  0  0  0  0  0  0  0  0  0  0
   -8.0114    3.7726  -11.0368 C   0  0  0  0  0  0  0  0  0  0  0  0
   -8.3436    2.8800   -8.6190 C   0  0  0  0  0  0  0  0  0  0  0  0
   -8.7159    3.6269   -7.3837 N   0  0  0  0  0  0  0  0  0  0  0  0
   -8.2975    5.0260   -7.6038 C   0  0  0  0  0  0  0  0  0  0  0  0
   -8.6933    4.0429  -16.0436 C   0  0  0  0  0  0  0  0  0  0  0  0
   -8.8474    4.3311  -17.4534 C   0  0  0  0  0  0  0  0  0  0  0  0
  -10.4078    4.1775  -18.1524 Cl  0  0  0  0  0  0  0  0  0  0  0  0
   -7.7957    4.6824  -18.2107 C   0  0  0  0  0  0  0  0  0  0  0  0
   -6.5011    4.7995  -17.6300 C   0  0  0  0  0  0  0  0  0  0  0  0
  1  2  1  0
  2  3  1  0
  3  4  2  0
  4  5  1  0
  5  6  1  0
  6  7  1  0
  7  8  2  0
  7  9  1  0
  9 10  1  0
 10 11  2  0
 11 12  1  0
 12 13  2  0
 13 14  1  0
 14 15  2  0
 14 16  1  0
 16 17  1  0
 17 18  1  0
  6 19  2  0
 19 20  1  0
 20 21  1  0
 20 22  2  0
 22 23  1  0
 23  2  2  0
 23  5  1  0
 15 10  1  0
 18 13  1  0
M  END
>  <smiles>  (686) 
C101892-P137

>  <fragmenstein_outcome>  (686) 
acceptable

>  <inchikey>  (686) 
WTBHWRIRLAZHHO-UHFFFAOYSA-N

>  <fragmenstein_mode>  (686) 
expansion

>  <HIPPO Pose ID>  (686) 
17905

>  <Energy>  (686) 
42.053319

>  <fragmenstein_error>  (686) 


>  <tags>  (686) 
{'openbind_xx01zvns2b_c1_fragmenstein', 'fragmenstein_placed'}

>  <ref_pdb>  (686) 
1

>  <scratch_subdir>  (686) 
/opt/xchem-fragalysis-2/maxwin/BulkDock/SCRATCH/511027/C101892-P137

>  <alias>  (686) 
Cc1ccn2c(C(=O)Nc3ccc4c(c3)CNC4)cc(Cl)cc12

>  <HIPPO Compound ID>  (686) 
99137

>  <fragmenstein_runtime>  (686) 
3.407382

$$$$
CN1N[C@H]2C[C@@H](F)C[C@H](C(=O)Nc3cc4c(cc3C#N)CNC4)N2[C@H]1O
     RDKit          3D

 26 29  0  0  0  0  0  0  0  0999 V2000
   -3.5624    5.5474  -17.5747 C   0  0  0  0  0  0  0  0  0  0  0  0
   -4.8752    5.8718  -17.0439 N   0  0  0  0  0  0  0  0  0  0  0  0
   -5.8731    5.6548  -18.0844 N   0  0  0  0  0  0  0  0  0  0  0  0
   -7.0773    5.4016  -17.3161 C   0  0  1  0  0  0  0  0  0  0  0  0
   -8.1428    4.6793  -18.1017 C   0  0  0  0  0  0  0  0  0  0  0  0
   -9.3081    4.3502  -17.1976 C   0  0  1  0  0  0  0  0  0  0  0  0
  -10.0686    3.3935  -17.8067 F   0  0  0  0  0  0  0  0  0  0  0  0
   -8.9459    3.8583  -15.8059 C   0  0  0  0  0  0  0  0  0  0  0  0
   -7.5368    4.1214  -15.2650 C   0  0  2  0  0  0  0  0  0  0  0  0
   -7.6265    5.0068  -13.9904 C   0  0  0  0  0  0  0  0  0  0  0  0
   -7.3002    6.1310  -13.9409 O   0  0  0  0  0  0  0  0  0  0  0  0
   -8.1459    4.0470  -12.8585 N   0  0  0  0  0  0  0  0  0  0  0  0
   -8.2691    4.2532  -11.4714 C   0  0  0  0  0  0  0  0  0  0  0  0
   -8.5161    3.0591  -10.7570 C   0  0  0  0  0  0  0  0  0  0  0  0
   -8.6430    3.0817   -9.3794 C   0  0  0  0  0  0  0  0  0  0  0  0
   -8.5038    4.2638   -8.6750 C   0  0  0  0  0  0  0  0  0  0  0  0
   -8.2634    5.4539   -9.3384 C   0  0  0  0  0  0  0  0  0  0  0  0
   -8.1725    5.4631  -10.7523 C   0  0  0  0  0  0  0  0  0  0  0  0
   -8.0916    6.7647  -11.3480 C   0  0  0  0  0  0  0  0  0  0  0  0
   -8.0925    7.8691  -11.7106 N   0  0  0  0  0  0  0  0  0  0  0  0
   -8.6719    3.9818   -7.2189 C   0  0  0  0  0  0  0  0  0  0  0  0
   -9.2852    2.6376   -7.1531 N   0  0  0  0  0  0  0  0  0  0  0  0
   -8.9124    1.9637   -8.4243 C   0  0  0  0  0  0  0  0  0  0  0  0
   -6.5914    4.5541  -16.2751 N   0  0  0  0  0  0  0  0  0  0  0  0
   -5.2952    5.0378  -15.9017 C   0  0  1  0  0  0  0  0  0  0  0  0
   -4.4892    3.9014  -15.7221 O   0  0  0  0  0  0  0  0  0  0  0  0
  1  2  1  0
  2  3  1  0
  3  4  1  0
  4  5  1  6
  5  6  1  0
  6  7  1  6
  6  8  1  0
  8  9  1  0
  9 10  1  1
 10 11  2  0
 10 12  1  0
 12 13  1  0
 13 14  2  0
 14 15  1  0
 15 16  2  0
 16 17  1  0
 17 18  2  0
 18 19  1  0
 19 20  3  0
 16 21  1  0
 21 22  1  0
 22 23  1  0
  9 24  1  0
 24 25  1  0
 25 26  1  6
 25  2  1  0
 24  4  1  0
 18 13  1  0
 23 15  1  0
M  END
>  <smiles>  (687) 
C101904-P137

>  <fragmenstein_outcome>  (687) 
acceptable

>  <inchikey>  (687) 
HRPLMOSGZSJXPW-UHFFFAOYSA-N

>  <fragmenstein_mode>  (687) 
expansion

>  <HIPPO Pose ID>  (687) 
17909

>  <Energy>  (687) 
11.598068

>  <fragmenstein_error>  (687) 


>  <tags>  (687) 
{'openbind_xx01zvns2b_c1_fragmenstein', 'fragmenstein_placed'}

>  <ref_pdb>  (687) 
1

>  <scratch_subdir>  (687) 
/opt/xchem-fragalysis-2/maxwin/BulkDock/SCRATCH/511027/C101904-P137

>  <alias>  (687) 
CN1N[C@H]2C[C@@H](F)C[C@H](C(=O)Nc3cc4c(cc3C#N)CNC4)N2[C@H]1O

>  <HIPPO Compound ID>  (687) 
74668

>  <fragmenstein_runtime>  (687) 
3.532093

$$$$
C[C@]1(O)Cc2c(cc(F)cc2C(=O)Nc2cc3c(c(C4=CCS(=O)(=O)CC4)c2)CNC3)N1
     RDKit          3D

 32 36  0  0  0  0  0  0  0  0999 V2000
   -3.5450    4.9662  -17.6633 C   0  0  0  0  0  0  0  0  0  0  0  0
   -4.7259    5.9232  -17.6943 C   0  0  2  0  0  0  0  0  0  0  0  0
   -4.2869    7.1728  -18.1785 O   0  0  0  0  0  0  0  0  0  0  0  0
   -5.4059    6.0858  -16.3110 C   0  0  0  0  0  0  0  0  0  0  0  0
   -6.7024    5.3743  -16.5313 C   0  0  0  0  0  0  0  0  0  0  0  0
   -6.8127    5.0365  -17.8758 C   0  0  0  0  0  0  0  0  0  0  0  0
   -7.9505    4.4225  -18.3588 C   0  0  0  0  0  0  0  0  0  0  0  0
   -8.9583    4.1024  -17.4567 C   0  0  0  0  0  0  0  0  0  0  0  0
  -10.0711    3.5070  -17.9051 F   0  0  0  0  0  0  0  0  0  0  0  0
   -8.8484    4.4032  -16.0972 C   0  0  0  0  0  0  0  0  0  0  0  0
   -7.7161    5.0705  -15.6274 C   0  0  0  0  0  0  0  0  0  0  0  0
   -7.6485    5.5953  -14.2410 C   0  0  0  0  0  0  0  0  0  0  0  0
   -7.2631    6.6896  -14.1059 O   0  0  0  0  0  0  0  0  0  0  0  0
   -8.1274    4.5643  -13.1918 N   0  0  0  0  0  0  0  0  0  0  0  0
   -8.1417    4.6295  -11.7997 C   0  0  0  0  0  0  0  0  0  0  0  0
   -8.4808    3.5003  -11.0536 C   0  0  0  0  0  0  0  0  0  0  0  0
   -8.4681    3.6057   -9.6687 C   0  0  0  0  0  0  0  0  0  0  0  0
   -8.1195    4.7935   -9.0296 C   0  0  0  0  0  0  0  0  0  0  0  0
   -7.7902    5.9275   -9.7556 C   0  0  0  0  0  0  0  0  0  0  0  0
   -7.4346    7.1985   -9.1096 C   0  0  0  0  0  0  0  0  0  0  0  0
   -8.4136    8.0606   -8.7820 C   0  0  0  0  0  0  0  0  0  0  0  0
   -8.2639    9.4131   -8.1453 C   0  0  0  0  0  0  0  0  0  0  0  0
   -6.5633    9.9524   -8.0816 S   0  0  0  0  0  0  0  0  0  0  0  0
   -6.1686   10.4587   -9.3837 O   0  0  0  0  0  0  0  0  0  0  0  0
   -6.3949   10.7804   -6.8995 O   0  0  0  0  0  0  0  0  0  0  0  0
   -5.6820    8.4410   -7.7887 C   0  0  0  0  0  0  0  0  0  0  0  0
   -5.9647    7.4274   -8.8805 C   0  0  0  0  0  0  0  0  0  0  0  0
   -7.8112    5.8328  -11.1521 C   0  0  0  0  0  0  0  0  0  0  0  0
   -8.1893    4.6009   -7.5539 C   0  0  0  0  0  0  0  0  0  0  0  0
   -8.5564    3.1901   -7.3245 N   0  0  0  0  0  0  0  0  0  0  0  0
   -8.8241    2.5751   -8.6497 C   0  0  0  0  0  0  0  0  0  0  0  0
   -5.7341    5.4966  -18.6569 N   0  0  0  0  0  0  0  0  0  0  0  0
  2  1  1  1
  2  3  1  0
  2  4  1  0
  4  5  1  0
  5  6  2  0
  6  7  1  0
  7  8  2  0
  8  9  1  0
  8 10  1  0
 10 11  2  0
 11 12  1  0
 12 13  2  0
 12 14  1  0
 14 15  1  0
 15 16  2  0
 16 17  1  0
 17 18  2  0
 18 19  1  0
 19 20  1  0
 20 21  2  0
 21 22  1  0
 22 23  1  0
 23 24  2  0
 23 25  2  0
 23 26  1  0
 26 27  1  0
 19 28  2  0
 18 29  1  0
 29 30  1  0
 30 31  1  0
  6 32  1  0
 32  2  1  0
 11  5  1  0
 28 15  1  0
 31 17  1  0
 27 20  1  0
M  END
>  <smiles>  (688) 
C101905-P137

>  <fragmenstein_outcome>  (688) 
acceptable

>  <inchikey>  (688) 
GGZOWSHGYVJJQY-UHFFFAOYSA-N

>  <fragmenstein_mode>  (688) 
expansion

>  <HIPPO Pose ID>  (688) 
17910

>  <Energy>  (688) 
40.199123

>  <fragmenstein_error>  (688) 


>  <tags>  (688) 
{'openbind_xx01zvns2b_c1_fragmenstein', 'fragmenstein_placed'}

>  <ref_pdb>  (688) 
1

>  <scratch_subdir>  (688) 
/opt/xchem-fragalysis-2/maxwin/BulkDock/SCRATCH/511027/C101905-P137

>  <alias>  (688) 
C[C@]1(O)Cc2c(cc(F)cc2C(=O)Nc2cc3c(c(C4=CCS(=O)(=O)CC4)c2)CNC3)N1

>  <HIPPO Compound ID>  (688) 
90931

>  <fragmenstein_runtime>  (688) 
3.539792

$$$$
Cc1nc(C(C)C)sc1-c1nc2cc(F)cc(C(=O)Nc3ccc4c(c3)CNC4)n2n1
     RDKit          3D

 31 35  0  0  0  0  0  0  0  0999 V2000
   -2.6822    6.8044  -15.3260 C   0  0  0  0  0  0  0  0  0  0  0  0
   -2.4185    6.6375  -16.7805 C   0  0  0  0  0  0  0  0  0  0  0  0
   -1.1774    7.0404  -17.2610 N   0  0  0  0  0  0  0  0  0  0  0  0
   -1.0955    6.8297  -18.5584 C   0  0  0  0  0  0  0  0  0  0  0  0
    0.1218    7.1956  -19.3721 C   0  0  0  0  0  0  0  0  0  0  0  0
   -0.1722    8.3290  -20.3549 C   0  0  0  0  0  0  0  0  0  0  0  0
    0.7318    5.9911  -20.0832 C   0  0  0  0  0  0  0  0  0  0  0  0
   -2.4943    6.1245  -19.2700 S   0  0  0  0  0  0  0  0  0  0  0  0
   -3.2677    6.1285  -17.7469 C   0  0  0  0  0  0  0  0  0  0  0  0
   -4.7327    5.6293  -17.5238 C   0  0  0  0  0  0  0  0  0  0  0  0
   -5.5063    5.1384  -18.5397 N   0  0  0  0  0  0  0  0  0  0  0  0
   -6.6468    4.8626  -17.9504 C   0  0  0  0  0  0  0  0  0  0  0  0
   -7.8685    4.3292  -18.4411 C   0  0  0  0  0  0  0  0  0  0  0  0
   -8.8773    4.0982  -17.5862 C   0  0  0  0  0  0  0  0  0  0  0  0
  -10.0330    3.5643  -18.0268 F   0  0  0  0  0  0  0  0  0  0  0  0
   -8.7866    4.4326  -16.1796 C   0  0  0  0  0  0  0  0  0  0  0  0
   -7.6490    4.9849  -15.7148 C   0  0  0  0  0  0  0  0  0  0  0  0
   -7.6175    5.5746  -14.3501 C   0  0  0  0  0  0  0  0  0  0  0  0
   -7.3473    6.7034  -14.2155 O   0  0  0  0  0  0  0  0  0  0  0  0
   -7.9250    4.4822  -13.2935 N   0  0  0  0  0  0  0  0  0  0  0  0
   -8.0517    4.5730  -11.9080 C   0  0  0  0  0  0  0  0  0  0  0  0
   -7.8657    5.8093  -11.2618 C   0  0  0  0  0  0  0  0  0  0  0  0
   -7.9303    5.9171   -9.8711 C   0  0  0  0  0  0  0  0  0  0  0  0
   -8.1954    4.7730   -9.1473 C   0  0  0  0  0  0  0  0  0  0  0  0
   -8.3967    3.5479   -9.7802 C   0  0  0  0  0  0  0  0  0  0  0  0
   -8.3260    3.4245  -11.1609 C   0  0  0  0  0  0  0  0  0  0  0  0
   -8.6327    2.4997   -8.7406 C   0  0  0  0  0  0  0  0  0  0  0  0
   -8.8880    3.2515   -7.4809 N   0  0  0  0  0  0  0  0  0  0  0  0
   -8.2782    4.5842   -7.6716 C   0  0  0  0  0  0  0  0  0  0  0  0
   -6.5721    5.1800  -16.5907 N   0  0  0  0  0  0  0  0  0  0  0  0
   -5.3329    5.6621  -16.3314 N   0  0  0  0  0  0  0  0  0  0  0  0
  1  2  1  0
  2  3  1  0
  3  4  2  0
  4  5  1  0
  5  6  1  0
  5  7  1  0
  4  8  1  0
  8  9  1  0
  9 10  1  0
 10 11  1  0
 11 12  2  0
 12 13  1  0
 13 14  2  0
 14 15  1  0
 14 16  1  0
 16 17  2  0
 17 18  1  0
 18 19  2  0
 18 20  1  0
 20 21  1  0
 21 22  2  0
 22 23  1  0
 23 24  2  0
 24 25  1  0
 25 26  2  0
 25 27  1  0
 27 28  1  0
 28 29  1  0
 17 30  1  0
 30 31  1  0
  9  2  2  0
 31 10  2  0
 30 12  1  0
 26 21  1  0
 29 24  1  0
M  END
>  <smiles>  (689) 
C101914-P137

>  <fragmenstein_outcome>  (689) 
acceptable

>  <inchikey>  (689) 
RVZPQKZTCNMTDY-UHFFFAOYSA-N

>  <fragmenstein_mode>  (689) 
expansion

>  <HIPPO Pose ID>  (689) 
17916

>  <Energy>  (689) 
40.01057

>  <fragmenstein_error>  (689) 


>  <tags>  (689) 
{'openbind_xx01zvns2b_c1_fragmenstein', 'fragmenstein_placed'}

>  <ref_pdb>  (689) 
1

>  <scratch_subdir>  (689) 
/opt/xchem-fragalysis-2/maxwin/BulkDock/SCRATCH/511027/C101914-P137

>  <alias>  (689) 
Cc1nc(C(C)C)sc1-c1nc2cc(F)cc(C(=O)Nc3ccc4c(c3)CNC4)n2n1

>  <HIPPO Compound ID>  (689) 
91943

>  <fragmenstein_runtime>  (689) 
3.610142

$$$$
COCCO[C@@]1(C)CN(C)c2cc(F)cc(C(=O)Nc3ccc4c(c3)CNC4)c21
     RDKit          3D

 29 32  0  0  0  0  0  0  0  0999 V2000
   -2.5086    4.0483  -11.1250 C   0  0  0  0  0  0  0  0  0  0  0  0
   -3.5297    3.7036  -12.0488 O   0  0  0  0  0  0  0  0  0  0  0  0
   -3.3372    4.3252  -13.3156 C   0  0  0  0  0  0  0  0  0  0  0  0
   -4.5038    3.9654  -14.2321 C   0  0  0  0  0  0  0  0  0  0  0  0
   -4.2857    4.4608  -15.5476 O   0  0  0  0  0  0  0  0  0  0  0  0
   -5.1000    5.5685  -15.9872 C   0  0  1  0  0  0  0  0  0  0  0  0
   -4.9093    6.7992  -15.1013 C   0  0  0  0  0  0  0  0  0  0  0  0
   -4.5778    5.9259  -17.4212 C   0  0  0  0  0  0  0  0  0  0  0  0
   -5.3038    5.0803  -18.3841 N   0  0  0  0  0  0  0  0  0  0  0  0
   -5.3130    5.4818  -19.7770 C   0  0  0  0  0  0  0  0  0  0  0  0
   -6.5398    4.8549  -17.7451 C   0  0  0  0  0  0  0  0  0  0  0  0
   -7.7077    4.3915  -18.3400 C   0  0  0  0  0  0  0  0  0  0  0  0
   -8.8353    4.1866  -17.5545 C   0  0  0  0  0  0  0  0  0  0  0  0
   -9.9614    3.7210  -18.1148 F   0  0  0  0  0  0  0  0  0  0  0  0
   -8.8221    4.4745  -16.1959 C   0  0  0  0  0  0  0  0  0  0  0  0
   -7.6635    4.9890  -15.6076 C   0  0  0  0  0  0  0  0  0  0  0  0
   -7.7852    5.5557  -14.2530 C   0  0  0  0  0  0  0  0  0  0  0  0
   -7.6459    6.7085  -14.1384 O   0  0  0  0  0  0  0  0  0  0  0  0
   -8.0813    4.4742  -13.1940 N   0  0  0  0  0  0  0  0  0  0  0  0
   -8.1709    4.5664  -11.8081 C   0  0  0  0  0  0  0  0  0  0  0  0
   -7.9644    5.8025  -11.1676 C   0  0  0  0  0  0  0  0  0  0  0  0
   -7.9985    5.9092   -9.7775 C   0  0  0  0  0  0  0  0  0  0  0  0
   -8.2546    4.7641   -9.0519 C   0  0  0  0  0  0  0  0  0  0  0  0
   -8.4710    3.5389   -9.6794 C   0  0  0  0  0  0  0  0  0  0  0  0
   -8.4301    3.4172  -11.0589 C   0  0  0  0  0  0  0  0  0  0  0  0
   -8.6885    2.4908   -8.6373 C   0  0  0  0  0  0  0  0  0  0  0  0
   -8.9226    3.2436   -7.3732 N   0  0  0  0  0  0  0  0  0  0  0  0
   -8.3120    4.5745   -7.5751 C   0  0  0  0  0  0  0  0  0  0  0  0
   -6.5011    5.1355  -16.3663 C   0  0  0  0  0  0  0  0  0  0  0  0
  1  2  1  0
  2  3  1  0
  3  4  1  0
  4  5  1  0
  5  6  1  0
  6  7  1  1
  6  8  1  0
  8  9  1  0
  9 10  1  0
  9 11  1  0
 11 12  2  0
 12 13  1  0
 13 14  1  0
 13 15  2  0
 15 16  1  0
 16 17  1  0
 17 18  2  0
 17 19  1  0
 19 20  1  0
 20 21  2  0
 21 22  1  0
 22 23  2  0
 23 24  1  0
 24 25  2  0
 24 26  1  0
 26 27  1  0
 27 28  1  0
 16 29  2  0
 29  6  1  0
 29 11  1  0
 25 20  1  0
 28 23  1  0
M  END
>  <smiles>  (690) 
C101928-P137

>  <fragmenstein_outcome>  (690) 
acceptable

>  <inchikey>  (690) 
QXRGVLGSKXSQLS-UHFFFAOYSA-N

>  <fragmenstein_mode>  (690) 
expansion

>  <HIPPO Pose ID>  (690) 
17919

>  <Energy>  (690) 
101.653387

>  <fragmenstein_error>  (690) 


>  <tags>  (690) 
{'openbind_xx01zvns2b_c1_fragmenstein', 'fragmenstein_placed'}

>  <ref_pdb>  (690) 
1

>  <scratch_subdir>  (690) 
/opt/xchem-fragalysis-2/maxwin/BulkDock/SCRATCH/511027/C101928-P137

>  <alias>  (690) 
COCCO[C@@]1(C)CN(C)c2cc(F)cc(C(=O)Nc3ccc4c(c3)CNC4)c21

>  <HIPPO Compound ID>  (690) 
71320

>  <fragmenstein_runtime>  (690) 
5.748585

$$$$
Cc1nc2cc(F)cc(C(=O)Nc3ccc4c(c3)CNC4)n2c1O
     RDKit          3D

 24 27  0  0  0  0  0  0  0  0999 V2000
  -10.7489    4.6313  -18.0768 C   0  0  0  0  0  0  0  0  0  0  0  0
   -9.4614    4.5099  -17.3805 C   0  0  0  0  0  0  0  0  0  0  0  0
   -8.3919    4.0754  -18.1006 N   0  0  0  0  0  0  0  0  0  0  0  0
   -7.3568    4.3797  -17.3654 C   0  0  0  0  0  0  0  0  0  0  0  0
   -5.9930    4.4275  -17.7173 C   0  0  0  0  0  0  0  0  0  0  0  0
   -5.0976    4.7799  -16.7884 C   0  0  0  0  0  0  0  0  0  0  0  0
   -3.8025    4.8786  -17.1304 F   0  0  0  0  0  0  0  0  0  0  0  0
   -5.4734    5.1016  -15.4271 C   0  0  0  0  0  0  0  0  0  0  0  0
   -6.7819    5.1109  -15.0983 C   0  0  0  0  0  0  0  0  0  0  0  0
   -7.1102    5.6058  -13.7321 C   0  0  0  0  0  0  0  0  0  0  0  0
   -6.8277    6.6964  -13.4159 O   0  0  0  0  0  0  0  0  0  0  0  0
   -7.7291    4.4449  -12.9035 N   0  0  0  0  0  0  0  0  0  0  0  0
   -8.0285    4.3618  -11.5397 C   0  0  0  0  0  0  0  0  0  0  0  0
   -7.9136    5.4906  -10.7117 C   0  0  0  0  0  0  0  0  0  0  0  0
   -8.1338    5.4003   -9.3328 C   0  0  0  0  0  0  0  0  0  0  0  0
   -8.4672    4.1693   -8.7995 C   0  0  0  0  0  0  0  0  0  0  0  0
   -8.6038    3.0527   -9.6128 C   0  0  0  0  0  0  0  0  0  0  0  0
   -8.3981    3.1297  -10.9865 C   0  0  0  0  0  0  0  0  0  0  0  0
   -8.9529    1.8709   -8.7716 C   0  0  0  0  0  0  0  0  0  0  0  0
   -9.0637    2.3599   -7.3719 N   0  0  0  0  0  0  0  0  0  0  0  0
   -8.7230    3.7970   -7.3801 C   0  0  0  0  0  0  0  0  0  0  0  0
   -7.7143    4.7903  -16.0845 N   0  0  0  0  0  0  0  0  0  0  0  0
   -9.0716    4.9772  -16.1345 C   0  0  0  0  0  0  0  0  0  0  0  0
   -9.7138    5.6779  -15.2026 O   0  0  0  0  0  0  0  0  0  0  0  0
  1  2  1  0
  2  3  1  0
  3  4  2  0
  4  5  1  0
  5  6  2  0
  6  7  1  0
  6  8  1  0
  8  9  2  0
  9 10  1  0
 10 11  2  0
 10 12  1  0
 12 13  1  0
 13 14  2  0
 14 15  1  0
 15 16  2  0
 16 17  1  0
 17 18  2  0
 17 19  1  0
 19 20  1  0
 20 21  1  0
  9 22  1  0
 22 23  1  0
 23 24  1  0
 23  2  2  0
 22  4  1  0
 18 13  1  0
 21 16  1  0
M  END
>  <smiles>  (691) 
C101929-P138

>  <fragmenstein_outcome>  (691) 
acceptable

>  <inchikey>  (691) 
NZPAXHAGAADXQH-UHFFFAOYSA-N

>  <fragmenstein_mode>  (691) 
expansion

>  <HIPPO Pose ID>  (691) 
17925

>  <Energy>  (691) 
50.178991

>  <fragmenstein_error>  (691) 


>  <tags>  (691) 
{'openbind_xx01zvns2b_c1_fragmenstein', 'fragmenstein_placed'}

>  <ref_pdb>  (691) 
1

>  <scratch_subdir>  (691) 
/opt/xchem-fragalysis-2/maxwin/BulkDock/SCRATCH/511027/C101929-P138

>  <alias>  (691) 
Cc1nc2cc(F)cc(C(=O)Nc3ccc4c(c3)CNC4)n2c1O

>  <HIPPO Compound ID>  (691) 
85464

>  <fragmenstein_runtime>  (691) 
6.684176

$$$$
CC(C)(O)c1cc(Cl)cc([C@@](O)(Nc2ccc3c(c2)CNC3)C(=O)NCCCF)n1
     RDKit          3D

 30 32  0  0  0  0  0  0  0  0999 V2000
   -4.4869    5.1793  -19.0872 C   0  0  0  0  0  0  0  0  0  0  0  0
   -4.5929    5.2548  -17.5637 C   0  0  0  0  0  0  0  0  0  0  0  0
   -4.2458    6.6711  -17.0952 C   0  0  0  0  0  0  0  0  0  0  0  0
   -3.5856    4.3845  -17.0123 O   0  0  0  0  0  0  0  0  0  0  0  0
   -5.9414    4.8582  -16.9798 C   0  0  0  0  0  0  0  0  0  0  0  0
   -7.0798    4.7281  -17.7481 C   0  0  0  0  0  0  0  0  0  0  0  0
   -8.2467    4.3501  -17.1115 C   0  0  0  0  0  0  0  0  0  0  0  0
   -9.6535    4.1558  -18.0615 Cl  0  0  0  0  0  0  0  0  0  0  0  0
   -8.2874    4.1311  -15.7404 C   0  0  0  0  0  0  0  0  0  0  0  0
   -7.1126    4.2638  -15.0102 C   0  0  0  0  0  0  0  0  0  0  0  0
   -7.0575    4.0555  -13.4747 C   0  0  1  0  0  0  0  0  0  0  0  0
   -6.2425    5.1166  -12.9730 O   0  0  0  0  0  0  0  0  0  0  0  0
   -8.4015    4.1903  -12.8532 N   0  0  0  0  0  0  0  0  0  0  0  0
   -8.4338    4.1373  -11.4327 C   0  0  0  0  0  0  0  0  0  0  0  0
   -8.2278    5.3004  -10.6610 C   0  0  0  0  0  0  0  0  0  0  0  0
   -8.2911    5.2707   -9.2623 C   0  0  0  0  0  0  0  0  0  0  0  0
   -8.5859    4.0689   -8.6495 C   0  0  0  0  0  0  0  0  0  0  0  0
   -8.7686    2.9115   -9.3965 C   0  0  0  0  0  0  0  0  0  0  0  0
   -8.6797    2.9230  -10.7771 C   0  0  0  0  0  0  0  0  0  0  0  0
   -9.0588    1.7742   -8.4748 C   0  0  0  0  0  0  0  0  0  0  0  0
   -9.4417    2.4193   -7.1899 N   0  0  0  0  0  0  0  0  0  0  0  0
   -8.7841    3.7455   -7.2064 C   0  0  0  0  0  0  0  0  0  0  0  0
   -6.4279    2.6131  -13.1685 C   0  0  0  0  0  0  0  0  0  0  0  0
   -7.0311    1.6121  -13.2420 O   0  0  0  0  0  0  0  0  0  0  0  0
   -4.9475    2.8711  -12.7575 N   0  0  0  0  0  0  0  0  0  0  0  0
   -3.8931    1.9494  -12.4485 C   0  0  0  0  0  0  0  0  0  0  0  0
   -3.7509    1.7428  -10.9497 C   0  0  0  0  0  0  0  0  0  0  0  0
   -2.7512    0.6441  -10.6476 C   0  0  0  0  0  0  0  0  0  0  0  0
   -2.4310    0.6898   -9.3258 F   0  0  0  0  0  0  0  0  0  0  0  0
   -5.9492    4.6216  -15.6354 N   0  0  0  0  0  0  0  0  0  0  0  0
  1  2  1  0
  2  3  1  0
  2  4  1  0
  2  5  1  0
  5  6  2  0
  6  7  1  0
  7  8  1  0
  7  9  2  0
  9 10  1  0
 10 11  1  0
 11 12  1  1
 11 13  1  0
 13 14  1  0
 14 15  2  0
 15 16  1  0
 16 17  2  0
 17 18  1  0
 18 19  2  0
 18 20  1  0
 20 21  1  0
 21 22  1  0
 11 23  1  0
 23 24  2  0
 23 25  1  0
 25 26  1  0
 26 27  1  0
 27 28  1  0
 28 29  1  0
 10 30  2  0
 30  5  1  0
 19 14  1  0
 22 17  1  0
M  END
>  <smiles>  (692) 
C101967-P138

>  <fragmenstein_outcome>  (692) 
acceptable

>  <inchikey>  (692) 
CIKILNYZTSJSMQ-UHFFFAOYSA-N

>  <fragmenstein_mode>  (692) 
expansion

>  <HIPPO Pose ID>  (692) 
17949

>  <Energy>  (692) 
127.68393

>  <fragmenstein_error>  (692) 


>  <tags>  (692) 
{'openbind_xx01zvns2b_c1_fragmenstein', 'fragmenstein_placed'}

>  <ref_pdb>  (692) 
1

>  <scratch_subdir>  (692) 
/opt/xchem-fragalysis-2/maxwin/BulkDock/SCRATCH/511027/C101967-P138

>  <alias>  (692) 
CC(C)(O)c1cc(Cl)cc([C@@](O)(Nc2ccc3c(c2)CNC3)C(=O)NCCCF)n1

>  <HIPPO Compound ID>  (692) 
77177

>  <fragmenstein_runtime>  (692) 
6.874357

$$$$
CC(C)NC(=O)[C@](O)(Nc1ccc2c(c1)CNC2)c1cc(Cl)cc(N[C@@](C)(O)F)n1
     RDKit          3D

 30 32  0  0  0  0  0  0  0  0999 V2000
   -3.8408    6.3502  -10.6163 C   0  0  0  0  0  0  0  0  0  0  0  0
   -3.8973    6.5944  -12.1203 C   0  0  0  0  0  0  0  0  0  0  0  0
   -3.5930    8.0480  -12.4561 C   0  0  0  0  0  0  0  0  0  0  0  0
   -5.1880    6.2099  -12.6346 N   0  0  0  0  0  0  0  0  0  0  0  0
   -5.7427    4.8049  -13.0349 C   0  0  0  0  0  0  0  0  0  0  0  0
   -5.2603    3.7417  -12.9338 O   0  0  0  0  0  0  0  0  0  0  0  0
   -7.2269    5.0684  -13.5841 C   0  0  2  0  0  0  0  0  0  0  0  0
   -7.6810    6.4134  -13.4596 O   0  0  0  0  0  0  0  0  0  0  0  0
   -8.2028    4.2467  -12.8392 N   0  0  0  0  0  0  0  0  0  0  0  0
   -8.2072    4.2122  -11.4273 C   0  0  0  0  0  0  0  0  0  0  0  0
   -7.9599    5.3364  -10.6118 C   0  0  0  0  0  0  0  0  0  0  0  0
   -8.0812    5.2816   -9.2161 C   0  0  0  0  0  0  0  0  0  0  0  0
   -8.4614    4.0898   -8.6349 C   0  0  0  0  0  0  0  0  0  0  0  0
   -8.7151    2.9745   -9.4139 C   0  0  0  0  0  0  0  0  0  0  0  0
   -8.6170    3.0244  -10.7973 C   0  0  0  0  0  0  0  0  0  0  0  0
   -9.0553    1.8197   -8.5364 C   0  0  0  0  0  0  0  0  0  0  0  0
   -9.1485    2.3587   -7.1530 N   0  0  0  0  0  0  0  0  0  0  0  0
   -8.6725    3.7574   -7.1993 C   0  0  0  0  0  0  0  0  0  0  0  0
   -7.2675    4.7764  -15.0983 C   0  0  0  0  0  0  0  0  0  0  0  0
   -8.4765    4.4676  -15.7085 C   0  0  0  0  0  0  0  0  0  0  0  0
   -8.5023    4.3382  -17.0831 C   0  0  0  0  0  0  0  0  0  0  0  0
   -9.9711    4.0390  -17.9003 Cl  0  0  0  0  0  0  0  0  0  0  0  0
   -7.3521    4.4894  -17.8288 C   0  0  0  0  0  0  0  0  0  0  0  0
   -6.1807    4.8011  -17.1761 C   0  0  0  0  0  0  0  0  0  0  0  0
   -4.9720    4.9540  -17.8252 N   0  0  0  0  0  0  0  0  0  0  0  0
   -4.8751    5.8467  -18.9411 C   0  0  1  0  0  0  0  0  0  0  0  0
   -5.1369    5.1989  -20.2818 C   0  0  0  0  0  0  0  0  0  0  0  0
   -5.6477    7.0055  -18.7453 O   0  0  0  0  0  0  0  0  0  0  0  0
   -3.5903    6.2924  -18.9350 F   0  0  0  0  0  0  0  0  0  0  0  0
   -6.1359    4.9669  -15.8386 N   0  0  0  0  0  0  0  0  0  0  0  0
  1  2  1  0
  2  3  1  0
  2  4  1  0
  4  5  1  0
  5  6  2  0
  5  7  1  0
  7  8  1  6
  7  9  1  0
  9 10  1  0
 10 11  2  0
 11 12  1  0
 12 13  2  0
 13 14  1  0
 14 15  2  0
 14 16  1  0
 16 17  1  0
 17 18  1  0
  7 19  1  0
 19 20  2  0
 20 21  1  0
 21 22  1  0
 21 23  2  0
 23 24  1  0
 24 25  1  0
 25 26  1  0
 26 27  1  6
 26 28  1  0
 26 29  1  0
 24 30  2  0
 15 10  1  0
 30 19  1  0
 18 13  1  0
M  END
>  <smiles>  (693) 
C101982-P138

>  <fragmenstein_outcome>  (693) 
acceptable

>  <inchikey>  (693) 
BCKVSPYVDFEOMY-UHFFFAOYSA-N

>  <fragmenstein_mode>  (693) 
expansion

>  <HIPPO Pose ID>  (693) 
17956

>  <Energy>  (693) 
-9.532378

>  <fragmenstein_error>  (693) 


>  <tags>  (693) 
{'openbind_xx01zvns2b_c1_fragmenstein', 'fragmenstein_placed'}

>  <ref_pdb>  (693) 
1

>  <scratch_subdir>  (693) 
/opt/xchem-fragalysis-2/maxwin/BulkDock/SCRATCH/511027/C101982-P138

>  <alias>  (693) 
CC(C)NC(=O)[C@](O)(Nc1ccc2c(c1)CNC2)c1cc(Cl)cc(N[C@@](C)(O)F)n1

>  <HIPPO Compound ID>  (693) 
101982

>  <fragmenstein_runtime>  (693) 
3.84493

$$$$
NCc1cc(Cl)cc(C(=O)Nc2ccc3c(c2)CNC3)n1
     RDKit          3D

 21 23  0  0  0  0  0  0  0  0999 V2000
   -4.4126    5.1991  -19.0306 N   0  0  0  0  0  0  0  0  0  0  0  0
   -4.5019    5.1893  -17.5719 C   0  0  0  0  0  0  0  0  0  0  0  0
   -5.8907    4.9721  -17.0145 C   0  0  0  0  0  0  0  0  0  0  0  0
   -6.9302    4.5319  -17.8155 C   0  0  0  0  0  0  0  0  0  0  0  0
   -8.1738    4.3481  -17.2389 C   0  0  0  0  0  0  0  0  0  0  0  0
   -9.4640    3.8858  -18.2415 Cl  0  0  0  0  0  0  0  0  0  0  0  0
   -8.3846    4.5760  -15.8917 C   0  0  0  0  0  0  0  0  0  0  0  0
   -7.3009    5.0260  -15.1669 C   0  0  0  0  0  0  0  0  0  0  0  0
   -7.4869    5.4575  -13.7479 C   0  0  0  0  0  0  0  0  0  0  0  0
   -7.3178    6.5857  -13.4871 O   0  0  0  0  0  0  0  0  0  0  0  0
   -7.9208    4.2699  -12.8457 N   0  0  0  0  0  0  0  0  0  0  0  0
   -8.1358    4.2098  -11.4680 C   0  0  0  0  0  0  0  0  0  0  0  0
   -7.9768    5.3494  -10.6608 C   0  0  0  0  0  0  0  0  0  0  0  0
   -8.1810    5.2881   -9.2775 C   0  0  0  0  0  0  0  0  0  0  0  0
   -8.5515    4.0772   -8.7256 C   0  0  0  0  0  0  0  0  0  0  0  0
   -8.7035    2.9439   -9.5191 C   0  0  0  0  0  0  0  0  0  0  0  0
   -8.4993    2.9895  -10.8903 C   0  0  0  0  0  0  0  0  0  0  0  0
   -9.0657    1.7891   -8.6438 C   0  0  0  0  0  0  0  0  0  0  0  0
   -9.4983    2.3973   -7.3585 N   0  0  0  0  0  0  0  0  0  0  0  0
   -8.8343    3.7187   -7.3047 C   0  0  0  0  0  0  0  0  0  0  0  0
   -6.0634    5.2245  -15.6925 N   0  0  0  0  0  0  0  0  0  0  0  0
  1  2  1  0
  2  3  1  0
  3  4  2  0
  4  5  1  0
  5  6  1  0
  5  7  2  0
  7  8  1  0
  8  9  1  0
  9 10  2  0
  9 11  1  0
 11 12  1  0
 12 13  2  0
 13 14  1  0
 14 15  2  0
 15 16  1  0
 16 17  2  0
 16 18  1  0
 18 19  1  0
 19 20  1  0
  8 21  2  0
 21  3  1  0
 17 12  1  0
 20 15  1  0
M  END
>  <smiles>  (694) 
C102013-P138

>  <fragmenstein_outcome>  (694) 
acceptable

>  <inchikey>  (694) 
BMAGOGBSHXHPRW-UHFFFAOYSA-N

>  <fragmenstein_mode>  (694) 
expansion

>  <HIPPO Pose ID>  (694) 
17972

>  <Energy>  (694) 
72.837546

>  <fragmenstein_error>  (694) 


>  <tags>  (694) 
{'openbind_xx01zvns2b_c1_fragmenstein', 'fragmenstein_placed'}

>  <ref_pdb>  (694) 
1

>  <scratch_subdir>  (694) 
/opt/xchem-fragalysis-2/maxwin/BulkDock/SCRATCH/511027/C102013-P138

>  <alias>  (694) 
NCc1cc(Cl)cc(C(=O)Nc2ccc3c(c2)CNC3)n1

>  <HIPPO Compound ID>  (694) 
89443

>  <fragmenstein_runtime>  (694) 
2.859617

$$$$
O=C1N=c2c(C(=O)Nc3ccc4c(c3)CNC4)cc(Br)c3c2=C1C=N3
     RDKit          3D

 25 29  0  0  0  0  0  0  0  0999 V2000
   -2.9374    4.7173  -17.3295 O   0  0  0  0  0  0  0  0  0  0  0  0
   -4.1219    4.8159  -17.0735 C   0  0  0  0  0  0  0  0  0  0  0  0
   -4.6970    4.9200  -15.7879 N   0  0  0  0  0  0  0  0  0  0  0  0
   -5.9756    4.8290  -15.9607 C   0  0  0  0  0  0  0  0  0  0  0  0
   -7.2138    4.8190  -15.1404 C   0  0  0  0  0  0  0  0  0  0  0  0
   -7.2081    5.2704  -13.7254 C   0  0  0  0  0  0  0  0  0  0  0  0
   -6.7634    6.3141  -13.4462 O   0  0  0  0  0  0  0  0  0  0  0  0
   -7.8111    4.1609  -12.8243 N   0  0  0  0  0  0  0  0  0  0  0  0
   -8.0685    4.1478  -11.4531 C   0  0  0  0  0  0  0  0  0  0  0  0
   -7.8722    5.2978  -10.6705 C   0  0  0  0  0  0  0  0  0  0  0  0
   -8.0827    5.2713   -9.2876 C   0  0  0  0  0  0  0  0  0  0  0  0
   -8.4759    4.0801   -8.7068 C   0  0  0  0  0  0  0  0  0  0  0  0
   -8.6749    2.9422   -9.4766 C   0  0  0  0  0  0  0  0  0  0  0  0
   -8.4913    2.9593  -10.8525 C   0  0  0  0  0  0  0  0  0  0  0  0
   -9.0392    1.8013   -8.5887 C   0  0  0  0  0  0  0  0  0  0  0  0
   -9.1838    2.3615   -7.2203 N   0  0  0  0  0  0  0  0  0  0  0  0
   -8.7287    3.7667   -7.2725 C   0  0  0  0  0  0  0  0  0  0  0  0
   -8.3990    4.6236  -15.7829 C   0  0  0  0  0  0  0  0  0  0  0  0
   -8.5301    4.4174  -17.2510 C   0  0  0  0  0  0  0  0  0  0  0  0
  -10.2097    4.2256  -17.9679 Br  0  0  0  0  0  0  0  0  0  0  0  0
   -7.4343    4.4762  -18.0116 C   0  0  0  0  0  0  0  0  0  0  0  0
   -6.2525    4.6999  -17.3400 C   0  0  0  0  0  0  0  0  0  0  0  0
   -5.1682    4.7330  -18.0559 C   0  0  0  0  0  0  0  0  0  0  0  0
   -5.7675    4.5233  -19.3508 C   0  0  0  0  0  0  0  0  0  0  0  0
   -7.0787    4.3670  -19.3363 N   0  0  0  0  0  0  0  0  0  0  0  0
  1  2  2  0
  2  3  1  0
  3  4  2  0
  4  5  1  0
  5  6  1  0
  6  7  2  0
  6  8  1  0
  8  9  1  0
  9 10  2  0
 10 11  1  0
 11 12  2  0
 12 13  1  0
 13 14  2  0
 13 15  1  0
 15 16  1  0
 16 17  1  0
  5 18  2  0
 18 19  1  0
 19 20  1  0
 19 21  2  0
 21 22  1  0
 22 23  2  0
 23 24  1  0
 24 25  2  0
 23  2  1  0
 22  4  1  0
 14  9  1  0
 25 21  1  0
 17 12  1  0
M  END
>  <smiles>  (695) 
C102031-P138

>  <fragmenstein_outcome>  (695) 
acceptable

>  <inchikey>  (695) 
PIXPOEVVVNRWSV-UHFFFAOYSA-N

>  <fragmenstein_mode>  (695) 
expansion

>  <HIPPO Pose ID>  (695) 
17982

>  <Energy>  (695) 
59.468802

>  <fragmenstein_error>  (695) 


>  <tags>  (695) 
{'openbind_xx01zvns2b_c1_fragmenstein', 'fragmenstein_placed'}

>  <ref_pdb>  (695) 
1

>  <scratch_subdir>  (695) 
/opt/xchem-fragalysis-2/maxwin/BulkDock/SCRATCH/511027/C102031-P138

>  <alias>  (695) 
O=C1N=c2c(C(=O)Nc3ccc4c(c3)CNC4)cc(Br)c3c2=C1C=N3

>  <HIPPO Compound ID>  (695) 
102031

>  <fragmenstein_runtime>  (695) 
4.461934

$$$$
NC1=c2cc(Br)cc(C(=NC(F)F)Nc3ccc4c(c3)CNC4)c2=NC1=O
     RDKit          3D

 27 30  0  0  0  0  0  0  0  0999 V2000
   -9.0649    4.4648  -19.5280 N   0  0  0  0  0  0  0  0  0  0  0  0
   -8.6994    4.3832  -18.2163 C   0  0  0  0  0  0  0  0  0  0  0  0
   -7.5418    4.5302  -17.6007 C   0  0  0  0  0  0  0  0  0  0  0  0
   -6.2570    4.7708  -18.1445 C   0  0  0  0  0  0  0  0  0  0  0  0
   -5.2372    4.8942  -17.2936 C   0  0  0  0  0  0  0  0  0  0  0  0
   -3.5130    5.1817  -17.9082 Br  0  0  0  0  0  0  0  0  0  0  0  0
   -5.4512    4.8297  -15.8617 C   0  0  0  0  0  0  0  0  0  0  0  0
   -6.6477    4.6256  -15.2575 C   0  0  0  0  0  0  0  0  0  0  0  0
   -6.6585    4.7244  -13.7281 C   0  0  0  0  0  0  0  0  0  0  0  0
   -5.6728    5.2812  -13.2847 N   0  0  0  0  0  0  0  0  0  0  0  0
   -5.3365    5.4573  -11.9054 C   0  0  0  0  0  0  0  0  0  0  0  0
   -3.9773    5.4869  -11.8177 F   0  0  0  0  0  0  0  0  0  0  0  0
   -5.7533    6.6801  -11.4936 F   0  0  0  0  0  0  0  0  0  0  0  0
   -7.9581    4.1874  -12.9908 N   0  0  0  0  0  0  0  0  0  0  0  0
   -8.2721    4.1292  -11.6337 C   0  0  0  0  0  0  0  0  0  0  0  0
   -8.2362    5.3042  -10.8512 C   0  0  0  0  0  0  0  0  0  0  0  0
   -8.3973    5.2782   -9.4621 C   0  0  0  0  0  0  0  0  0  0  0  0
   -8.6526    4.0617   -8.8663 C   0  0  0  0  0  0  0  0  0  0  0  0
   -8.7546    2.9008   -9.6274 C   0  0  0  0  0  0  0  0  0  0  0  0
   -8.5666    2.9163  -11.0052 C   0  0  0  0  0  0  0  0  0  0  0  0
   -9.0417    1.7549   -8.7106 C   0  0  0  0  0  0  0  0  0  0  0  0
   -9.4658    2.3776   -7.4286 N   0  0  0  0  0  0  0  0  0  0  0  0
   -8.8602    3.7253   -7.4272 C   0  0  0  0  0  0  0  0  0  0  0  0
   -7.8169    4.4123  -16.1599 C   0  0  0  0  0  0  0  0  0  0  0  0
   -9.0591    4.1652  -15.8989 N   0  0  0  0  0  0  0  0  0  0  0  0
   -9.6771    4.1057  -17.1448 C   0  0  0  0  0  0  0  0  0  0  0  0
  -10.8313    3.8442  -17.4408 O   0  0  0  0  0  0  0  0  0  0  0  0
  1  2  1  0
  2  3  2  0
  3  4  1  0
  4  5  2  0
  5  6  1  0
  5  7  1  0
  7  8  2  0
  8  9  1  0
  9 10  2  3
 10 11  1  0
 11 12  1  0
 11 13  1  0
  9 14  1  0
 14 15  1  0
 15 16  2  0
 16 17  1  0
 17 18  2  0
 18 19  1  0
 19 20  2  0
 19 21  1  0
 21 22  1  0
 22 23  1  0
  8 24  1  0
 24 25  2  0
 25 26  1  0
 26 27  2  0
 26  2  1  0
 24  3  1  0
 20 15  1  0
 23 18  1  0
M  END
>  <smiles>  (696) 
C102033-P138

>  <fragmenstein_outcome>  (696) 
acceptable

>  <inchikey>  (696) 
SAJGYJDQMZIYRK-UHFFFAOYSA-N

>  <fragmenstein_mode>  (696) 
expansion

>  <HIPPO Pose ID>  (696) 
17984

>  <Energy>  (696) 
78.676648

>  <fragmenstein_error>  (696) 


>  <tags>  (696) 
{'openbind_xx01zvns2b_c1_fragmenstein', 'fragmenstein_placed'}

>  <ref_pdb>  (696) 
1

>  <scratch_subdir>  (696) 
/opt/xchem-fragalysis-2/maxwin/BulkDock/SCRATCH/511027/C102033-P138

>  <alias>  (696) 
NC1=c2cc(Br)cc(C(=NC(F)F)Nc3ccc4c(c3)CNC4)c2=NC1=O

>  <HIPPO Compound ID>  (696) 
102033

>  <fragmenstein_runtime>  (696) 
3.815708

$$$$
O=C(Nc1ccc2c(c1)CNC2)c1cc(Br)cc2c1=NC(=NN1CCC(n3cn[nH]c3=O)CC1)N=2
     RDKit          3D

 35 40  0  0  0  0  0  0  0  0999 V2000
   -7.1929    6.7337  -13.4197 O   0  0  0  0  0  0  0  0  0  0  0  0
   -7.3076    5.6042  -13.6958 C   0  0  0  0  0  0  0  0  0  0  0  0
   -7.7376    4.3943  -12.8240 N   0  0  0  0  0  0  0  0  0  0  0  0
   -8.0129    4.3141  -11.4596 C   0  0  0  0  0  0  0  0  0  0  0  0
   -7.9118    5.4441  -10.6304 C   0  0  0  0  0  0  0  0  0  0  0  0
   -8.1639    5.3549   -9.2567 C   0  0  0  0  0  0  0  0  0  0  0  0
   -8.5288    4.1278   -8.7387 C   0  0  0  0  0  0  0  0  0  0  0  0
   -8.6343    3.0075   -9.5575 C   0  0  0  0  0  0  0  0  0  0  0  0
   -8.3768    3.0781  -10.9184 C   0  0  0  0  0  0  0  0  0  0  0  0
   -9.0155    1.8318   -8.7161 C   0  0  0  0  0  0  0  0  0  0  0  0
   -9.4894    2.4100   -7.4306 N   0  0  0  0  0  0  0  0  0  0  0  0
   -8.8408    3.7358   -7.3328 C   0  0  0  0  0  0  0  0  0  0  0  0
   -7.0853    5.1424  -15.0877 C   0  0  0  0  0  0  0  0  0  0  0  0
   -8.1341    4.7359  -15.8274 C   0  0  0  0  0  0  0  0  0  0  0  0
   -8.0471    4.4737  -17.2540 C   0  0  0  0  0  0  0  0  0  0  0  0
   -9.6147    4.0473  -18.1279 Br  0  0  0  0  0  0  0  0  0  0  0  0
   -6.9206    4.6001  -17.9630 C   0  0  0  0  0  0  0  0  0  0  0  0
   -5.7461    5.0499  -17.2411 C   0  0  0  0  0  0  0  0  0  0  0  0
   -5.8099    5.3466  -15.7837 C   0  0  0  0  0  0  0  0  0  0  0  0
   -4.6559    5.7627  -15.3913 N   0  0  0  0  0  0  0  0  0  0  0  0
   -3.9142    5.7681  -16.5593 C   0  0  0  0  0  0  0  0  0  0  0  0
   -2.7081    6.2489  -16.5766 N   0  0  0  0  0  0  0  0  0  0  0  0
   -2.1069    6.2508  -17.8049 N   0  0  0  0  0  0  0  0  0  0  0  0
   -2.4597    7.3465  -18.7240 C   0  0  0  0  0  0  0  0  0  0  0  0
   -2.1072    6.9569  -20.1572 C   0  0  0  0  0  0  0  0  0  0  0  0
   -0.6259    6.5866  -20.2799 C   0  0  0  0  0  0  0  0  0  0  0  0
   -0.2815    6.1248  -21.6211 N   0  0  0  0  0  0  0  0  0  0  0  0
   -0.8702    5.1595  -22.3591 C   0  0  0  0  0  0  0  0  0  0  0  0
   -0.2426    4.8286  -23.4462 N   0  0  0  0  0  0  0  0  0  0  0  0
    0.8822    5.6069  -23.4118 N   0  0  0  0  0  0  0  0  0  0  0  0
    0.9172    6.3568  -22.2413 C   0  0  0  0  0  0  0  0  0  0  0  0
    1.8482    7.0444  -21.8546 O   0  0  0  0  0  0  0  0  0  0  0  0
   -0.2274    5.5690  -19.2060 C   0  0  0  0  0  0  0  0  0  0  0  0
   -0.6573    6.0354  -17.8179 C   0  0  0  0  0  0  0  0  0  0  0  0
   -4.5672    5.2909  -17.6830 N   0  0  0  0  0  0  0  0  0  0  0  0
  1  2  2  0
  2  3  1  0
  3  4  1  0
  4  5  2  0
  5  6  1  0
  6  7  2  0
  7  8  1  0
  8  9  2  0
  8 10  1  0
 10 11  1  0
 11 12  1  0
  2 13  1  0
 13 14  2  0
 14 15  1  0
 15 16  1  0
 15 17  2  0
 17 18  1  0
 18 19  1  0
 19 20  2  0
 20 21  1  0
 21 22  2  3
 22 23  1  0
 23 24  1  0
 24 25  1  0
 25 26  1  0
 26 27  1  0
 27 28  1  0
 28 29  2  0
 29 30  1  0
 30 31  1  0
 31 32  2  0
 26 33  1  0
 33 34  1  0
 21 35  1  0
  9  4  1  0
 19 13  1  0
 34 23  1  0
 12  7  1  0
 35 18  2  0
 31 27  1  0
M  END
>  <smiles>  (697) 
C102035-P138

>  <fragmenstein_outcome>  (697) 
acceptable

>  <inchikey>  (697) 
WQEKGCHRIQDPPM-UHFFFAOYSA-N

>  <fragmenstein_mode>  (697) 
expansion

>  <HIPPO Pose ID>  (697) 
17985

>  <Energy>  (697) 
7.396241

>  <fragmenstein_error>  (697) 


>  <tags>  (697) 
{'openbind_xx01zvns2b_c1_fragmenstein', 'fragmenstein_placed'}

>  <ref_pdb>  (697) 
1

>  <scratch_subdir>  (697) 
/opt/xchem-fragalysis-2/maxwin/BulkDock/SCRATCH/511027/C102035-P138

>  <alias>  (697) 
O=C(Nc1ccc2c(c1)CNC2)c1cc(Br)cc2c1=NC(=NN1CCC(n3cn[nH]c3=O)CC1)N=2

>  <HIPPO Compound ID>  (697) 
96469

>  <fragmenstein_runtime>  (697) 
9.976166

$$$$
O=C1N=c2c(C(=O)Nc3ccc4c(c3)CNC4)cc(Br)c(CCO)c2=N1
     RDKit          3D

 26 29  0  0  0  0  0  0  0  0999 V2000
   -2.9252    5.6497  -16.4531 O   0  0  0  0  0  0  0  0  0  0  0  0
   -4.1093    5.3666  -16.3847 C   0  0  0  0  0  0  0  0  0  0  0  0
   -4.8399    5.3798  -15.2082 N   0  0  0  0  0  0  0  0  0  0  0  0
   -6.0288    5.0650  -15.5806 C   0  0  0  0  0  0  0  0  0  0  0  0
   -7.2819    4.9275  -14.8448 C   0  0  0  0  0  0  0  0  0  0  0  0
   -7.4264    5.4050  -13.4522 C   0  0  0  0  0  0  0  0  0  0  0  0
   -7.1575    6.5059  -13.1722 O   0  0  0  0  0  0  0  0  0  0  0  0
   -7.9658    4.2495  -12.5746 N   0  0  0  0  0  0  0  0  0  0  0  0
   -8.1877    4.1849  -11.2029 C   0  0  0  0  0  0  0  0  0  0  0  0
   -8.0470    5.3257  -10.3969 C   0  0  0  0  0  0  0  0  0  0  0  0
   -8.2414    5.2519   -9.0155 C   0  0  0  0  0  0  0  0  0  0  0  0
   -8.5808    4.0291   -8.4676 C   0  0  0  0  0  0  0  0  0  0  0  0
   -8.7263    2.9016   -9.2653 C   0  0  0  0  0  0  0  0  0  0  0  0
   -8.5353    2.9579  -10.6361 C   0  0  0  0  0  0  0  0  0  0  0  0
   -9.0535    1.7267   -8.4095 C   0  0  0  0  0  0  0  0  0  0  0  0
   -9.2921    2.2634   -7.0449 N   0  0  0  0  0  0  0  0  0  0  0  0
   -8.8262    3.6660   -7.0437 C   0  0  0  0  0  0  0  0  0  0  0  0
   -8.3712    4.5773  -15.5473 C   0  0  0  0  0  0  0  0  0  0  0  0
   -8.3615    4.3587  -16.9831 C   0  0  0  0  0  0  0  0  0  0  0  0
  -10.0330    4.0861  -17.7677 Br  0  0  0  0  0  0  0  0  0  0  0  0
   -7.2537    4.4605  -17.7418 C   0  0  0  0  0  0  0  0  0  0  0  0
   -7.2516    4.3397  -19.2301 C   0  0  0  0  0  0  0  0  0  0  0  0
   -5.9775    4.6540  -20.0063 C   0  0  0  0  0  0  0  0  0  0  0  0
   -6.2265    4.4753  -21.3934 O   0  0  0  0  0  0  0  0  0  0  0  0
   -6.0265    4.8212  -17.0410 C   0  0  0  0  0  0  0  0  0  0  0  0
   -4.8428    5.0160  -17.4957 N   0  0  0  0  0  0  0  0  0  0  0  0
  1  2  2  0
  2  3  1  0
  3  4  2  0
  4  5  1  0
  5  6  1  0
  6  7  2  0
  6  8  1  0
  8  9  1  0
  9 10  2  0
 10 11  1  0
 11 12  2  0
 12 13  1  0
 13 14  2  0
 13 15  1  0
 15 16  1  0
 16 17  1  0
  5 18  2  0
 18 19  1  0
 19 20  1  0
 19 21  2  0
 21 22  1  0
 22 23  1  0
 23 24  1  0
 21 25  1  0
 25 26  2  0
 26  2  1  0
 25  4  1  0
 14  9  1  0
 17 12  1  0
M  END
>  <smiles>  (698) 
C102054-P138

>  <fragmenstein_outcome>  (698) 
acceptable

>  <inchikey>  (698) 
USQYSKNXUZQGST-UHFFFAOYSA-N

>  <fragmenstein_mode>  (698) 
expansion

>  <HIPPO Pose ID>  (698) 
17991

>  <Energy>  (698) 
13.000505

>  <fragmenstein_error>  (698) 


>  <tags>  (698) 
{'openbind_xx01zvns2b_c1_fragmenstein', 'fragmenstein_placed'}

>  <ref_pdb>  (698) 
1

>  <scratch_subdir>  (698) 
/opt/xchem-fragalysis-2/maxwin/BulkDock/SCRATCH/511027/C102054-P138

>  <alias>  (698) 
O=C1N=c2c(C(=O)Nc3ccc4c(c3)CNC4)cc(Br)c(CCO)c2=N1

>  <HIPPO Compound ID>  (698) 
104598

>  <fragmenstein_runtime>  (698) 
5.223632

$$$$
COCn1c(=O)[nH]c2c(C(=O)Nc3ccc4c(c3)CNC4)cc(Br)cc21
     RDKit          3D

 26 29  0  0  0  0  0  0  0  0999 V2000
   -5.3574    5.1862  -21.1547 C   0  0  0  0  0  0  0  0  0  0  0  0
   -5.2903    4.5898  -19.8735 O   0  0  0  0  0  0  0  0  0  0  0  0
   -4.5176    5.3841  -18.9900 C   0  0  0  0  0  0  0  0  0  0  0  0
   -4.8571    5.1145  -17.6293 N   0  0  0  0  0  0  0  0  0  0  0  0
   -4.0283    5.4974  -16.5604 C   0  0  0  0  0  0  0  0  0  0  0  0
   -2.8792    5.9026  -16.6206 O   0  0  0  0  0  0  0  0  0  0  0  0
   -4.7970    5.3773  -15.3965 N   0  0  0  0  0  0  0  0  0  0  0  0
   -6.0955    5.0082  -15.7435 C   0  0  0  0  0  0  0  0  0  0  0  0
   -7.2197    4.8573  -14.9550 C   0  0  0  0  0  0  0  0  0  0  0  0
   -7.1764    5.2031  -13.5190 C   0  0  0  0  0  0  0  0  0  0  0  0
   -6.6357    6.1939  -13.2182 O   0  0  0  0  0  0  0  0  0  0  0  0
   -7.8681    4.1333  -12.6432 N   0  0  0  0  0  0  0  0  0  0  0  0
   -8.1131    4.1068  -11.2730 C   0  0  0  0  0  0  0  0  0  0  0  0
   -7.8767    5.2412  -10.4788 C   0  0  0  0  0  0  0  0  0  0  0  0
   -8.0886    5.2067   -9.0974 C   0  0  0  0  0  0  0  0  0  0  0  0
   -8.5162    4.0205   -8.5318 C   0  0  0  0  0  0  0  0  0  0  0  0
   -8.7438    2.8960   -9.3148 C   0  0  0  0  0  0  0  0  0  0  0  0
   -8.5688    2.9241  -10.6900 C   0  0  0  0  0  0  0  0  0  0  0  0
   -9.1118    1.7495   -8.4373 C   0  0  0  0  0  0  0  0  0  0  0  0
   -9.3018    2.3120   -7.0758 N   0  0  0  0  0  0  0  0  0  0  0  0
   -8.7786    3.6944   -7.1017 C   0  0  0  0  0  0  0  0  0  0  0  0
   -8.4196    4.5335  -15.5928 C   0  0  0  0  0  0  0  0  0  0  0  0
   -8.4511    4.4073  -16.9918 C   0  0  0  0  0  0  0  0  0  0  0  0
  -10.0804    4.1237  -17.8737 Br  0  0  0  0  0  0  0  0  0  0  0  0
   -7.3150    4.5718  -17.7779 C   0  0  0  0  0  0  0  0  0  0  0  0
   -6.1404    4.8603  -17.1279 C   0  0  0  0  0  0  0  0  0  0  0  0
  1  2  1  0
  2  3  1  0
  3  4  1  0
  4  5  1  0
  5  6  2  0
  5  7  1  0
  7  8  1  0
  8  9  2  0
  9 10  1  0
 10 11  2  0
 10 12  1  0
 12 13  1  0
 13 14  2  0
 14 15  1  0
 15 16  2  0
 16 17  1  0
 17 18  2  0
 17 19  1  0
 19 20  1  0
 20 21  1  0
  9 22  1  0
 22 23  2  0
 23 24  1  0
 23 25  1  0
 25 26  2  0
 26  4  1  0
 26  8  1  0
 18 13  1  0
 21 16  1  0
M  END
>  <smiles>  (699) 
C102077-P138

>  <fragmenstein_outcome>  (699) 
acceptable

>  <inchikey>  (699) 
XMEDHYRXMBSZDK-UHFFFAOYSA-N

>  <fragmenstein_mode>  (699) 
expansion

>  <HIPPO Pose ID>  (699) 
17998

>  <Energy>  (699) 
-2.572489

>  <fragmenstein_error>  (699) 


>  <tags>  (699) 
{'openbind_xx01zvns2b_c1_fragmenstein', 'fragmenstein_placed'}

>  <ref_pdb>  (699) 
1

>  <scratch_subdir>  (699) 
/opt/xchem-fragalysis-2/maxwin/BulkDock/SCRATCH/511027/C102077-P138

>  <alias>  (699) 
COCn1c(=O)[nH]c2c(C(=O)Nc3ccc4c(c3)CNC4)cc(Br)cc21

>  <HIPPO Compound ID>  (699) 
102077

>  <fragmenstein_runtime>  (699) 
7.667414

$$$$
CS(=O)(=O)c1cc2c(cc1NC(=O)c1cc(Br)cc3c1=NC(=O)N=3)CNC2
     RDKit          3D

 27 30  0  0  0  0  0  0  0  0999 V2000
   -8.8566    8.1594  -10.2355 C   0  0  0  0  0  0  0  0  0  0  0  0
   -7.9593    7.1600  -11.3934 S   0  0  0  0  0  0  0  0  0  0  0  0
   -6.5729    7.5690  -11.2638 O   0  0  0  0  0  0  0  0  0  0  0  0
   -8.7014    7.2795  -12.6379 O   0  0  0  0  0  0  0  0  0  0  0  0
   -8.0840    5.4744  -10.8156 C   0  0  0  0  0  0  0  0  0  0  0  0
   -8.1787    5.3205   -9.4164 C   0  0  0  0  0  0  0  0  0  0  0  0
   -8.5322    4.0913   -8.9043 C   0  0  0  0  0  0  0  0  0  0  0  0
   -8.7533    3.0100   -9.7438 C   0  0  0  0  0  0  0  0  0  0  0  0
   -8.6313    3.1286  -11.1258 C   0  0  0  0  0  0  0  0  0  0  0  0
   -8.2694    4.3681  -11.6891 C   0  0  0  0  0  0  0  0  0  0  0  0
   -8.0355    4.3795  -13.0815 N   0  0  0  0  0  0  0  0  0  0  0  0
   -7.0273    5.1976  -13.9250 C   0  0  0  0  0  0  0  0  0  0  0  0
   -6.2870    6.0449  -13.6085 O   0  0  0  0  0  0  0  0  0  0  0  0
   -6.9973    4.7777  -15.3660 C   0  0  0  0  0  0  0  0  0  0  0  0
   -5.7939    4.9400  -15.9587 C   0  0  0  0  0  0  0  0  0  0  0  0
   -5.5395    4.8375  -17.3813 C   0  0  0  0  0  0  0  0  0  0  0  0
   -3.7890    5.1108  -17.9499 Br  0  0  0  0  0  0  0  0  0  0  0  0
   -6.5035    4.6098  -18.2746 C   0  0  0  0  0  0  0  0  0  0  0  0
   -7.8298    4.4069  -17.7371 C   0  0  0  0  0  0  0  0  0  0  0  0
   -8.1065    4.4579  -16.2726 C   0  0  0  0  0  0  0  0  0  0  0  0
   -9.3523    4.2107  -16.0984 N   0  0  0  0  0  0  0  0  0  0  0  0
   -9.8526    4.0707  -17.4041 C   0  0  0  0  0  0  0  0  0  0  0  0
  -11.0136    3.8332  -17.6825 O   0  0  0  0  0  0  0  0  0  0  0  0
   -8.8998    4.1588  -18.3883 N   0  0  0  0  0  0  0  0  0  0  0  0
   -9.0691    1.8183   -8.8956 C   0  0  0  0  0  0  0  0  0  0  0  0
   -9.4378    2.3735   -7.5679 N   0  0  0  0  0  0  0  0  0  0  0  0
   -8.7580    3.6803   -7.4864 C   0  0  0  0  0  0  0  0  0  0  0  0
  1  2  1  0
  2  3  2  0
  2  4  2  0
  2  5  1  0
  5  6  2  0
  6  7  1  0
  7  8  2  0
  8  9  1  0
  9 10  2  0
 10 11  1  0
 11 12  1  0
 12 13  2  0
 12 14  1  0
 14 15  2  0
 15 16  1  0
 16 17  1  0
 16 18  2  0
 18 19  1  0
 19 20  1  0
 20 21  2  0
 21 22  1  0
 22 23  2  0
 22 24  1  0
  8 25  1  0
 25 26  1  0
 26 27  1  0
 10  5  1  0
 20 14  1  0
 27  7  1  0
 24 19  2  0
M  END
>  <smiles>  (700) 
C102043-P138

>  <fragmenstein_outcome>  (700) 
acceptable

>  <inchikey>  (700) 
CXSDAHNMOVHNNR-UHFFFAOYSA-N

>  <fragmenstein_mode>  (700) 
expansion

>  <HIPPO Pose ID>  (700) 
18003

>  <Energy>  (700) 
38.128135

>  <fragmenstein_error>  (700) 


>  <tags>  (700) 
{'openbind_xx01zvns2b_c1_fragmenstein', 'fragmenstein_placed'}

>  <ref_pdb>  (700) 
1

>  <scratch_subdir>  (700) 
/opt/xchem-fragalysis-2/maxwin/BulkDock/SCRATCH/511027/C102043-P138

>  <alias>  (700) 
CS(=O)(=O)c1cc2c(cc1NC(=O)c1cc(Br)cc3c1=NC(=O)N=3)CNC2

>  <HIPPO Compound ID>  (700) 
102043

>  <fragmenstein_runtime>  (700) 
2.158066

$$$$
O=C1N=c2cc(Br)cc(C(O)(O)Nc3ccc4c(c3)CNC4)c2=N1
     RDKit          3D

 24 27  0  0  0  0  0  0  0  0999 V2000
   -3.1525    5.5445  -16.0647 O   0  0  0  0  0  0  0  0  0  0  0  0
   -4.3279    5.2435  -16.1788 C   0  0  0  0  0  0  0  0  0  0  0  0
   -5.0289    5.3116  -17.3755 N   0  0  0  0  0  0  0  0  0  0  0  0
   -6.2108    4.9392  -17.0446 C   0  0  0  0  0  0  0  0  0  0  0  0
   -7.4133    4.8249  -17.8463 C   0  0  0  0  0  0  0  0  0  0  0  0
   -8.5160    4.4570  -17.1839 C   0  0  0  0  0  0  0  0  0  0  0  0
  -10.1316    4.3194  -18.0802 Br  0  0  0  0  0  0  0  0  0  0  0  0
   -8.5389    4.1497  -15.7656 C   0  0  0  0  0  0  0  0  0  0  0  0
   -7.4678    4.1713  -14.9492 C   0  0  0  0  0  0  0  0  0  0  0  0
   -7.4084    3.7408  -13.5087 C   0  0  0  0  0  0  0  0  0  0  0  0
   -6.3161    4.2580  -12.8058 O   0  0  0  0  0  0  0  0  0  0  0  0
   -7.2767    2.3490  -13.4803 O   0  0  0  0  0  0  0  0  0  0  0  0
   -8.6607    4.0510  -12.8566 N   0  0  0  0  0  0  0  0  0  0  0  0
   -8.6115    4.0930  -11.4407 C   0  0  0  0  0  0  0  0  0  0  0  0
   -8.2219    5.2778  -10.7832 C   0  0  0  0  0  0  0  0  0  0  0  0
   -8.1728    5.3503   -9.3871 C   0  0  0  0  0  0  0  0  0  0  0  0
   -8.5126    4.2212   -8.6656 C   0  0  0  0  0  0  0  0  0  0  0  0
   -8.8517    3.0335   -9.3054 C   0  0  0  0  0  0  0  0  0  0  0  0
   -8.8986    2.9483  -10.6841 C   0  0  0  0  0  0  0  0  0  0  0  0
   -9.1216    1.9823   -8.2819 C   0  0  0  0  0  0  0  0  0  0  0  0
   -9.3161    2.7324   -7.0137 N   0  0  0  0  0  0  0  0  0  0  0  0
   -8.5924    4.0111   -7.1914 C   0  0  0  0  0  0  0  0  0  0  0  0
   -6.2411    4.6213  -15.5966 C   0  0  0  0  0  0  0  0  0  0  0  0
   -5.0746    4.8205  -15.0960 N   0  0  0  0  0  0  0  0  0  0  0  0
  1  2  2  0
  2  3  1  0
  3  4  2  0
  4  5  1  0
  5  6  2  0
  6  7  1  0
  6  8  1  0
  8  9  2  0
  9 10  1  0
 10 11  1  0
 10 12  1  0
 10 13  1  0
 13 14  1  0
 14 15  2  0
 15 16  1  0
 16 17  2  0
 17 18  1  0
 18 19  2  0
 18 20  1  0
 20 21  1  0
 21 22  1  0
  9 23  1  0
 23 24  2  0
 24  2  1  0
 23  4  1  0
 19 14  1  0
 22 17  1  0
M  END
>  <smiles>  (701) 
C102089-P138

>  <fragmenstein_outcome>  (701) 
acceptable

>  <inchikey>  (701) 
DHZLGLXBALGQBB-UHFFFAOYSA-N

>  <fragmenstein_mode>  (701) 
expansion

>  <HIPPO Pose ID>  (701) 
18006

>  <Energy>  (701) 
-133.5007

>  <fragmenstein_error>  (701) 


>  <tags>  (701) 
{'openbind_xx01zvns2b_c1_fragmenstein', 'fragmenstein_placed'}

>  <ref_pdb>  (701) 
1

>  <scratch_subdir>  (701) 
/opt/xchem-fragalysis-2/maxwin/BulkDock/SCRATCH/511027/C102089-P138

>  <alias>  (701) 
O=C1N=c2cc(Br)cc(C(O)(O)Nc3ccc4c(c3)CNC4)c2=N1

>  <HIPPO Compound ID>  (701) 
79875

>  <fragmenstein_runtime>  (701) 
3.870483

$$$$
Cc1cc(NC(=O)c2cc(Br)cc3c2=NC(=O)C=3NC(C)C)cc2c1CNC2
     RDKit          3D

 28 31  0  0  0  0  0  0  0  0999 V2000
   -7.8864    6.3830   -8.1668 C   0  0  0  0  0  0  0  0  0  0  0  0
   -8.1324    5.1638   -8.9985 C   0  0  0  0  0  0  0  0  0  0  0  0
   -7.9214    5.1808  -10.3871 C   0  0  0  0  0  0  0  0  0  0  0  0
   -8.1397    4.0376  -11.1774 C   0  0  0  0  0  0  0  0  0  0  0  0
   -7.9219    4.0745  -12.5542 N   0  0  0  0  0  0  0  0  0  0  0  0
   -7.2303    5.1444  -13.4344 C   0  0  0  0  0  0  0  0  0  0  0  0
   -6.8043    6.1955  -13.1541 O   0  0  0  0  0  0  0  0  0  0  0  0
   -7.2163    4.7107  -14.8627 C   0  0  0  0  0  0  0  0  0  0  0  0
   -8.3944    4.4487  -15.4754 C   0  0  0  0  0  0  0  0  0  0  0  0
   -8.5520    4.5244  -16.9198 C   0  0  0  0  0  0  0  0  0  0  0  0
  -10.1683    4.1782  -17.7467 Br  0  0  0  0  0  0  0  0  0  0  0  0
   -7.5647    5.0034  -17.6783 C   0  0  0  0  0  0  0  0  0  0  0  0
   -6.2648    5.1391  -17.1375 C   0  0  0  0  0  0  0  0  0  0  0  0
   -6.0180    4.9744  -15.7078 C   0  0  0  0  0  0  0  0  0  0  0  0
   -4.7765    5.1015  -15.3760 N   0  0  0  0  0  0  0  0  0  0  0  0
   -4.1125    5.3929  -16.5478 C   0  0  0  0  0  0  0  0  0  0  0  0
   -2.9141    5.5849  -16.6943 O   0  0  0  0  0  0  0  0  0  0  0  0
   -5.0914    5.4187  -17.6961 C   0  0  0  0  0  0  0  0  0  0  0  0
   -4.7091    5.7360  -18.9897 N   0  0  0  0  0  0  0  0  0  0  0  0
   -4.9611    4.9835  -20.2257 C   0  0  0  0  0  0  0  0  0  0  0  0
   -5.0815    5.9673  -21.3781 C   0  0  0  0  0  0  0  0  0  0  0  0
   -6.1534    4.0590  -20.2415 C   0  0  0  0  0  0  0  0  0  0  0  0
   -8.5714    2.8535  -10.5859 C   0  0  0  0  0  0  0  0  0  0  0  0
   -8.7512    2.8342   -9.2109 C   0  0  0  0  0  0  0  0  0  0  0  0
   -8.5422    3.9660   -8.4296 C   0  0  0  0  0  0  0  0  0  0  0  0
   -8.8131    3.6311   -6.9998 C   0  0  0  0  0  0  0  0  0  0  0  0
   -9.3339    2.2477   -6.9791 N   0  0  0  0  0  0  0  0  0  0  0  0
   -9.1180    1.6859   -8.3352 C   0  0  0  0  0  0  0  0  0  0  0  0
  1  2  1  0
  2  3  2  0
  3  4  1  0
  4  5  1  0
  5  6  1  0
  6  7  2  0
  6  8  1  0
  8  9  2  0
  9 10  1  0
 10 11  1  0
 10 12  2  0
 12 13  1  0
 13 14  1  0
 14 15  2  0
 15 16  1  0
 16 17  2  0
 16 18  1  0
 18 19  1  0
 19 20  1  0
 20 21  1  0
 20 22  1  0
  4 23  2  0
 23 24  1  0
 24 25  2  0
 25 26  1  0
 26 27  1  0
 27 28  1  0
 25  2  1  0
 14  8  1  0
 28 24  1  0
 18 13  2  0
M  END
>  <smiles>  (702) 
C102112-P138

>  <fragmenstein_outcome>  (702) 
acceptable

>  <inchikey>  (702) 
NRMWBVCLARAHPS-UHFFFAOYSA-N

>  <fragmenstein_mode>  (702) 
expansion

>  <HIPPO Pose ID>  (702) 
18008

>  <Energy>  (702) 
97.070161

>  <fragmenstein_error>  (702) 


>  <tags>  (702) 
{'openbind_xx01zvns2b_c1_fragmenstein', 'fragmenstein_placed'}

>  <ref_pdb>  (702) 
1

>  <scratch_subdir>  (702) 
/opt/xchem-fragalysis-2/maxwin/BulkDock/SCRATCH/511027/C102112-P138

>  <alias>  (702) 
Cc1cc(NC(=O)c2cc(Br)cc3c2=NC(=O)C=3NC(C)C)cc2c1CNC2

>  <HIPPO Compound ID>  (702) 
88340

>  <fragmenstein_runtime>  (702) 
5.396933

$$$$
N#C[C@](O)(Nc1ccc2c(c1)CNC2)c1cc(Br)cc2c1=NC(=O)N=2
     RDKit          3D

 25 28  0  0  0  0  0  0  0  0999 V2000
   -5.6772    6.6328  -12.8873 N   0  0  0  0  0  0  0  0  0  0  0  0
   -6.5521    5.9687  -13.2758 C   0  0  0  0  0  0  0  0  0  0  0  0
   -7.6824    5.1438  -13.8341 C   0  0  2  0  0  0  0  0  0  0  0  0
   -8.8445    5.9599  -13.8998 O   0  0  0  0  0  0  0  0  0  0  0  0
   -8.0120    3.9939  -13.0031 N   0  0  0  0  0  0  0  0  0  0  0  0
   -8.2502    4.0472  -11.6165 C   0  0  0  0  0  0  0  0  0  0  0  0
   -8.1087    5.2039  -10.8123 C   0  0  0  0  0  0  0  0  0  0  0  0
   -8.2767    5.1858   -9.4191 C   0  0  0  0  0  0  0  0  0  0  0  0
   -8.6029    3.9931   -8.8184 C   0  0  0  0  0  0  0  0  0  0  0  0
   -8.7393    2.8384   -9.5749 C   0  0  0  0  0  0  0  0  0  0  0  0
   -8.5516    2.8470  -10.9532 C   0  0  0  0  0  0  0  0  0  0  0  0
   -9.0618    1.7043   -8.6568 C   0  0  0  0  0  0  0  0  0  0  0  0
   -9.4886    2.3444   -7.3840 N   0  0  0  0  0  0  0  0  0  0  0  0
   -8.8454    3.6750   -7.3816 C   0  0  0  0  0  0  0  0  0  0  0  0
   -7.3053    4.7434  -15.2650 C   0  0  0  0  0  0  0  0  0  0  0  0
   -6.0676    4.8474  -15.8074 C   0  0  0  0  0  0  0  0  0  0  0  0
   -5.7494    4.7904  -17.2266 C   0  0  0  0  0  0  0  0  0  0  0  0
   -3.9672    5.0613  -17.7050 Br  0  0  0  0  0  0  0  0  0  0  0  0
   -6.6701    4.6301  -18.1793 C   0  0  0  0  0  0  0  0  0  0  0  0
   -8.0202    4.4223  -17.7153 C   0  0  0  0  0  0  0  0  0  0  0  0
   -8.3451    4.4233  -16.2623 C   0  0  0  0  0  0  0  0  0  0  0  0
   -9.5830    4.1248  -16.1465 N   0  0  0  0  0  0  0  0  0  0  0  0
  -10.0470    4.0534  -17.4656 C   0  0  0  0  0  0  0  0  0  0  0  0
  -11.2033    3.8323  -17.7773 O   0  0  0  0  0  0  0  0  0  0  0  0
   -9.0678    4.1981  -18.4127 N   0  0  0  0  0  0  0  0  0  0  0  0
  1  2  3  0
  2  3  1  0
  3  4  1  6
  3  5  1  0
  5  6  1  0
  6  7  2  0
  7  8  1  0
  8  9  2  0
  9 10  1  0
 10 11  2  0
 10 12  1  0
 12 13  1  0
 13 14  1  0
  3 15  1  0
 15 16  2  0
 16 17  1  0
 17 18  1  0
 17 19  2  0
 19 20  1  0
 20 21  1  0
 21 22  2  0
 22 23  1  0
 23 24  2  0
 23 25  1  0
 11  6  1  0
 21 15  1  0
 14  9  1  0
 25 20  2  0
M  END
>  <smiles>  (703) 
C102123-P138

>  <fragmenstein_outcome>  (703) 
acceptable

>  <inchikey>  (703) 
NHKIKJPRMBAWGT-UHFFFAOYSA-N

>  <fragmenstein_mode>  (703) 
expansion

>  <HIPPO Pose ID>  (703) 
18011

>  <Energy>  (703) 
1.792038

>  <fragmenstein_error>  (703) 


>  <tags>  (703) 
{'openbind_xx01zvns2b_c1_fragmenstein', 'fragmenstein_placed'}

>  <ref_pdb>  (703) 
1

>  <scratch_subdir>  (703) 
/opt/xchem-fragalysis-2/maxwin/BulkDock/SCRATCH/511027/C102123-P138

>  <alias>  (703) 
N#C[C@](O)(Nc1ccc2c(c1)CNC2)c1cc(Br)cc2c1=NC(=O)N=2

>  <HIPPO Compound ID>  (703) 
105968

>  <fragmenstein_runtime>  (703) 
2.733333

$$$$
O=C1N=c2cc(Br)cc([C@](O)(Nc3ccc4c(c3)CNC4)C(=O)NC3CCOCC3)c2=N1
     RDKit          3D

 32 36  0  0  0  0  0  0  0  0999 V2000
   -2.7598    5.6042  -16.4583 O   0  0  0  0  0  0  0  0  0  0  0  0
   -3.9592    5.3761  -16.4625 C   0  0  0  0  0  0  0  0  0  0  0  0
   -4.6657    5.1000  -17.6196 N   0  0  0  0  0  0  0  0  0  0  0  0
   -5.8646    4.9122  -17.1957 C   0  0  0  0  0  0  0  0  0  0  0  0
   -7.0656    4.5904  -17.9453 C   0  0  0  0  0  0  0  0  0  0  0  0
   -8.1813    4.4357  -17.2258 C   0  0  0  0  0  0  0  0  0  0  0  0
   -9.7995    4.1051  -18.0682 Br  0  0  0  0  0  0  0  0  0  0  0  0
   -8.2342    4.5919  -15.7854 C   0  0  0  0  0  0  0  0  0  0  0  0
   -7.2009    4.9564  -14.9975 C   0  0  0  0  0  0  0  0  0  0  0  0
   -7.3323    5.2851  -13.5225 C   0  0  2  0  0  0  0  0  0  0  0  0
   -6.1037    5.7591  -13.0102 O   0  0  0  0  0  0  0  0  0  0  0  0
   -7.6534    4.0782  -12.7603 N   0  0  0  0  0  0  0  0  0  0  0  0
   -7.9519    4.0977  -11.3828 C   0  0  0  0  0  0  0  0  0  0  0  0
   -7.6831    5.1777  -10.5141 C   0  0  0  0  0  0  0  0  0  0  0  0
   -7.9737    5.1310   -9.1421 C   0  0  0  0  0  0  0  0  0  0  0  0
   -8.4972    3.9669   -8.6270 C   0  0  0  0  0  0  0  0  0  0  0  0
   -8.6952    2.8631   -9.4440 C   0  0  0  0  0  0  0  0  0  0  0  0
   -8.4284    2.9101  -10.8052 C   0  0  0  0  0  0  0  0  0  0  0  0
   -9.1578    1.7218   -8.6011 C   0  0  0  0  0  0  0  0  0  0  0  0
   -9.6384    2.3448   -7.3400 N   0  0  0  0  0  0  0  0  0  0  0  0
   -8.8923    3.6189   -7.2303 C   0  0  0  0  0  0  0  0  0  0  0  0
   -8.4817    6.4101  -13.3697 C   0  0  0  0  0  0  0  0  0  0  0  0
   -9.6309    6.1565  -13.6080 O   0  0  0  0  0  0  0  0  0  0  0  0
   -7.8584    7.6387  -12.9319 N   0  0  0  0  0  0  0  0  0  0  0  0
   -8.4332    8.9116  -12.5541 C   0  0  0  0  0  0  0  0  0  0  0  0
   -7.4844   10.0699  -12.8699 C   0  0  0  0  0  0  0  0  0  0  0  0
   -7.7097   11.2538  -11.9356 C   0  0  0  0  0  0  0  0  0  0  0  0
   -9.0815   11.3305  -11.5675 O   0  0  0  0  0  0  0  0  0  0  0  0
   -9.4867   10.2506  -10.7198 C   0  0  0  0  0  0  0  0  0  0  0  0
   -8.8222    8.9239  -11.0799 C   0  0  0  0  0  0  0  0  0  0  0  0
   -5.9168    5.0992  -15.7149 C   0  0  0  0  0  0  0  0  0  0  0  0
   -4.7291    5.3805  -15.3106 N   0  0  0  0  0  0  0  0  0  0  0  0
  1  2  2  0
  2  3  1  0
  3  4  2  0
  4  5  1  0
  5  6  2  0
  6  7  1  0
  6  8  1  0
  8  9  2  0
  9 10  1  0
 10 11  1  1
 10 12  1  0
 12 13  1  0
 13 14  2  0
 14 15  1  0
 15 16  2  0
 16 17  1  0
 17 18  2  0
 17 19  1  0
 19 20  1  0
 20 21  1  0
 10 22  1  0
 22 23  2  0
 22 24  1  0
 24 25  1  0
 25 26  1  0
 26 27  1  0
 27 28  1  0
 28 29  1  0
 29 30  1  0
  9 31  1  0
 31 32  2  0
 32  2  1  0
 31  4  1  0
 18 13  1  0
 30 25  1  0
 21 16  1  0
M  END
>  <smiles>  (704) 
C102132-P138

>  <fragmenstein_outcome>  (704) 
acceptable

>  <inchikey>  (704) 
FQCISECCJKZCME-UHFFFAOYSA-N

>  <fragmenstein_mode>  (704) 
expansion

>  <HIPPO Pose ID>  (704) 
18014

>  <Energy>  (704) 
29.095689

>  <fragmenstein_error>  (704) 


>  <tags>  (704) 
{'openbind_xx01zvns2b_c1_fragmenstein', 'fragmenstein_placed'}

>  <ref_pdb>  (704) 
1

>  <scratch_subdir>  (704) 
/opt/xchem-fragalysis-2/maxwin/BulkDock/SCRATCH/511027/C102132-P138

>  <alias>  (704) 
O=C1N=c2cc(Br)cc([C@](O)(Nc3ccc4c(c3)CNC4)C(=O)NC3CCOCC3)c2=N1

>  <HIPPO Compound ID>  (704) 
102132

>  <fragmenstein_runtime>  (704) 
9.394929

$$$$
O=C1N=c2cc(Br)cc([C@@](O)(Nc3ccc4c(c3)CNC4)C(=O)NCC3CCOCC3)c2=N1
     RDKit          3D

 33 37  0  0  0  0  0  0  0  0999 V2000
   -2.8951    5.3738  -16.3297 O   0  0  0  0  0  0  0  0  0  0  0  0
   -4.0943    5.1493  -16.3660 C   0  0  0  0  0  0  0  0  0  0  0  0
   -4.8091    5.0414  -17.5492 N   0  0  0  0  0  0  0  0  0  0  0  0
   -6.0047    4.7856  -17.1538 C   0  0  0  0  0  0  0  0  0  0  0  0
   -7.2329    4.5975  -17.9096 C   0  0  0  0  0  0  0  0  0  0  0  0
   -8.3447    4.3881  -17.1918 C   0  0  0  0  0  0  0  0  0  0  0  0
   -9.9833    4.2076  -18.0454 Br  0  0  0  0  0  0  0  0  0  0  0  0
   -8.3672    4.3254  -15.7393 C   0  0  0  0  0  0  0  0  0  0  0  0
   -7.2874    4.4820  -14.9513 C   0  0  0  0  0  0  0  0  0  0  0  0
   -7.1850    4.4517  -13.4439 C   0  0  1  0  0  0  0  0  0  0  0  0
   -6.7153    5.7410  -13.0608 O   0  0  0  0  0  0  0  0  0  0  0  0
   -8.5196    4.2322  -12.8512 N   0  0  0  0  0  0  0  0  0  0  0  0
   -8.5373    4.1898  -11.4327 C   0  0  0  0  0  0  0  0  0  0  0  0
   -8.3121    5.3501  -10.6643 C   0  0  0  0  0  0  0  0  0  0  0  0
   -8.3113    5.3111   -9.2658 C   0  0  0  0  0  0  0  0  0  0  0  0
   -8.5593    4.1006   -8.6461 C   0  0  0  0  0  0  0  0  0  0  0  0
   -8.7797    2.9503   -9.3895 C   0  0  0  0  0  0  0  0  0  0  0  0
   -8.7626    2.9728  -10.7744 C   0  0  0  0  0  0  0  0  0  0  0  0
   -9.0122    1.7977   -8.4749 C   0  0  0  0  0  0  0  0  0  0  0  0
   -9.1063    2.3720   -7.1073 N   0  0  0  0  0  0  0  0  0  0  0  0
   -8.6656    3.7799   -7.1953 C   0  0  0  0  0  0  0  0  0  0  0  0
   -6.2125    3.2331  -13.0162 C   0  0  0  0  0  0  0  0  0  0  0  0
   -6.1929    2.2048  -13.5734 O   0  0  0  0  0  0  0  0  0  0  0  0
   -5.4131    3.7213  -11.7732 N   0  0  0  0  0  0  0  0  0  0  0  0
   -4.3656    3.0802  -11.0270 C   0  0  0  0  0  0  0  0  0  0  0  0
   -3.0446    3.0468  -11.8077 C   0  0  0  0  0  0  0  0  0  0  0  0
   -2.5218    4.4699  -12.0749 C   0  0  0  0  0  0  0  0  0  0  0  0
   -1.0057    4.4716  -12.1877 C   0  0  0  0  0  0  0  0  0  0  0  0
   -0.3738    4.0599  -10.9740 O   0  0  0  0  0  0  0  0  0  0  0  0
   -1.0841    3.0765  -10.2206 C   0  0  0  0  0  0  0  0  0  0  0  0
   -1.9879    2.2014  -11.0767 C   0  0  0  0  0  0  0  0  0  0  0  0
   -6.0343    4.7396  -15.6714 C   0  0  0  0  0  0  0  0  0  0  0  0
   -4.8586    4.9953  -15.2146 N   0  0  0  0  0  0  0  0  0  0  0  0
  1  2  2  0
  2  3  1  0
  3  4  2  0
  4  5  1  0
  5  6  2  0
  6  7  1  0
  6  8  1  0
  8  9  2  0
  9 10  1  0
 10 11  1  1
 10 12  1  0
 12 13  1  0
 13 14  2  0
 14 15  1  0
 15 16  2  0
 16 17  1  0
 17 18  2  0
 17 19  1  0
 19 20  1  0
 20 21  1  0
 10 22  1  0
 22 23  2  0
 22 24  1  0
 24 25  1  0
 25 26  1  0
 26 27  1  0
 27 28  1  0
 28 29  1  0
 29 30  1  0
 30 31  1  0
  9 32  1  0
 32 33  2  0
 33  2  1  0
 32  4  1  0
 18 13  1  0
 31 26  1  0
 21 16  1  0
M  END
>  <smiles>  (705) 
C102142-P138

>  <fragmenstein_outcome>  (705) 
acceptable

>  <inchikey>  (705) 
AUSPCCGZGBWPFN-UHFFFAOYSA-N

>  <fragmenstein_mode>  (705) 
expansion

>  <HIPPO Pose ID>  (705) 
18015

>  <Energy>  (705) 
36.730423

>  <fragmenstein_error>  (705) 


>  <tags>  (705) 
{'openbind_xx01zvns2b_c1_fragmenstein', 'fragmenstein_placed'}

>  <ref_pdb>  (705) 
1

>  <scratch_subdir>  (705) 
/opt/xchem-fragalysis-2/maxwin/BulkDock/SCRATCH/511027/C102142-P138

>  <alias>  (705) 
O=C1N=c2cc(Br)cc([C@@](O)(Nc3ccc4c(c3)CNC4)C(=O)NCC3CCOCC3)c2=N1

>  <HIPPO Compound ID>  (705) 
80045

>  <fragmenstein_runtime>  (705) 
4.517204

$$$$
O=C1N=c2c(C(=O)Nc3ccc4c(c3)CNC4)cc3c(c2N1)N=CC=3
     RDKit          3D

 25 29  0  0  0  0  0  0  0  0999 V2000
  -11.1744    3.8576  -17.8072 O   0  0  0  0  0  0  0  0  0  0  0  0
  -10.0062    4.0712  -17.5347 C   0  0  0  0  0  0  0  0  0  0  0  0
   -9.4491    4.2581  -16.2560 N   0  0  0  0  0  0  0  0  0  0  0  0
   -8.1898    4.5056  -16.4419 C   0  0  0  0  0  0  0  0  0  0  0  0
   -7.1147    4.8963  -15.4940 C   0  0  0  0  0  0  0  0  0  0  0  0
   -7.3493    5.3929  -14.1019 C   0  0  0  0  0  0  0  0  0  0  0  0
   -7.0412    6.4913  -13.8382 O   0  0  0  0  0  0  0  0  0  0  0  0
   -7.9148    4.2619  -13.1996 N   0  0  0  0  0  0  0  0  0  0  0  0
   -8.1218    4.2207  -11.8120 C   0  0  0  0  0  0  0  0  0  0  0  0
   -7.9151    5.3675  -11.0223 C   0  0  0  0  0  0  0  0  0  0  0  0
   -8.0906    5.3397   -9.6316 C   0  0  0  0  0  0  0  0  0  0  0  0
   -8.4695    4.1496   -9.0432 C   0  0  0  0  0  0  0  0  0  0  0  0
   -8.6664    3.0062   -9.8109 C   0  0  0  0  0  0  0  0  0  0  0  0
   -8.5060    3.0248  -11.1938 C   0  0  0  0  0  0  0  0  0  0  0  0
   -9.0134    1.8747   -8.8960 C   0  0  0  0  0  0  0  0  0  0  0  0
   -9.3850    2.5112   -7.6054 N   0  0  0  0  0  0  0  0  0  0  0  0
   -8.7105    3.8267   -7.6056 C   0  0  0  0  0  0  0  0  0  0  0  0
   -5.8690    5.0986  -15.9918 C   0  0  0  0  0  0  0  0  0  0  0  0
   -5.6028    4.9259  -17.4080 C   0  0  0  0  0  0  0  0  0  0  0  0
   -6.6493    4.5916  -18.3393 C   0  0  0  0  0  0  0  0  0  0  0  0
   -7.8684    4.4049  -17.8745 C   0  0  0  0  0  0  0  0  0  0  0  0
   -9.0264    4.1291  -18.4840 N   0  0  0  0  0  0  0  0  0  0  0  0
   -6.1698    4.5372  -19.6132 N   0  0  0  0  0  0  0  0  0  0  0  0
   -4.9168    4.8341  -19.4712 C   0  0  0  0  0  0  0  0  0  0  0  0
   -4.4699    5.1014  -18.0933 C   0  0  0  0  0  0  0  0  0  0  0  0
  1  2  2  0
  2  3  1  0
  3  4  2  0
  4  5  1  0
  5  6  1  0
  6  7  2  0
  6  8  1  0
  8  9  1  0
  9 10  2  0
 10 11  1  0
 11 12  2  0
 12 13  1  0
 13 14  2  0
 13 15  1  0
 15 16  1  0
 16 17  1  0
  5 18  2  0
 18 19  1  0
 19 20  1  0
 20 21  2  0
 21 22  1  0
 20 23  1  0
 23 24  2  0
 24 25  1  0
 22  2  1  0
 21  4  1  0
 14  9  1  0
 25 19  2  0
 17 12  1  0
M  END
>  <smiles>  (706) 
C20464-P138

>  <fragmenstein_outcome>  (706) 
acceptable

>  <inchikey>  (706) 
WVZKMWVSVVSIAI-UHFFFAOYSA-N

>  <fragmenstein_mode>  (706) 
expansion

>  <HIPPO Pose ID>  (706) 
18019

>  <Energy>  (706) 
17.704047

>  <fragmenstein_error>  (706) 


>  <tags>  (706) 
{'openbind_xx01zvns2b_c1_fragmenstein', 'fragmenstein_placed'}

>  <ref_pdb>  (706) 
1

>  <scratch_subdir>  (706) 
/opt/xchem-fragalysis-2/maxwin/BulkDock/SCRATCH/511027/C20464-P138

>  <alias>  (706) 
O=C1N=c2c(C(=O)Nc3ccc4c(c3)CNC4)cc3c(c2N1)N=CC=3

>  <HIPPO Compound ID>  (706) 
80282

>  <fragmenstein_runtime>  (706) 
2.623164

$$$$
N#Cc1csc2cc(C(=O)Nc3ccc4c(c3)CNC4)c3c(c12)=NC(=O)N=3
     RDKit          3D

 27 31  0  0  0  0  0  0  0  0999 V2000
   -6.4201    3.8923  -21.1809 N   0  0  0  0  0  0  0  0  0  0  0  0
   -6.0874    4.3428  -20.1666 C   0  0  0  0  0  0  0  0  0  0  0  0
   -5.5738    4.8045  -18.9182 C   0  0  0  0  0  0  0  0  0  0  0  0
   -4.2714    5.2299  -18.7731 C   0  0  0  0  0  0  0  0  0  0  0  0
   -3.8997    5.6349  -17.1516 S   0  0  0  0  0  0  0  0  0  0  0  0
   -5.4767    5.2556  -16.6290 C   0  0  0  0  0  0  0  0  0  0  0  0
   -5.9086    5.4007  -15.2757 C   0  0  0  0  0  0  0  0  0  0  0  0
   -7.1828    5.1006  -14.9335 C   0  0  0  0  0  0  0  0  0  0  0  0
   -7.5796    5.5450  -13.5739 C   0  0  0  0  0  0  0  0  0  0  0  0
   -7.5010    6.6780  -13.2975 O   0  0  0  0  0  0  0  0  0  0  0  0
   -7.9548    4.3226  -12.7008 N   0  0  0  0  0  0  0  0  0  0  0  0
   -8.2101    4.2306  -11.3303 C   0  0  0  0  0  0  0  0  0  0  0  0
   -8.1072    5.3650  -10.5054 C   0  0  0  0  0  0  0  0  0  0  0  0
   -8.2902    5.2720   -9.1216 C   0  0  0  0  0  0  0  0  0  0  0  0
   -8.5889    4.0354   -8.5831 C   0  0  0  0  0  0  0  0  0  0  0  0
   -8.7043    2.9125   -9.3938 C   0  0  0  0  0  0  0  0  0  0  0  0
   -8.5147    2.9879  -10.7682 C   0  0  0  0  0  0  0  0  0  0  0  0
   -9.0096    1.7243   -8.5435 C   0  0  0  0  0  0  0  0  0  0  0  0
   -9.2858    2.2531   -7.1849 N   0  0  0  0  0  0  0  0  0  0  0  0
   -8.8218    3.6524   -7.1612 C   0  0  0  0  0  0  0  0  0  0  0  0
   -8.1162    4.6299  -15.9699 C   0  0  0  0  0  0  0  0  0  0  0  0
   -7.6140    4.5262  -17.3607 C   0  0  0  0  0  0  0  0  0  0  0  0
   -6.2666    4.8384  -17.6853 C   0  0  0  0  0  0  0  0  0  0  0  0
   -8.5468    4.1689  -18.1608 N   0  0  0  0  0  0  0  0  0  0  0  0
   -9.6370    4.0704  -17.3214 C   0  0  0  0  0  0  0  0  0  0  0  0
  -10.7481    3.8077  -17.7418 O   0  0  0  0  0  0  0  0  0  0  0  0
   -9.3514    4.3006  -15.9687 N   0  0  0  0  0  0  0  0  0  0  0  0
  1  2  3  0
  2  3  1  0
  3  4  2  0
  4  5  1  0
  5  6  1  0
  6  7  1  0
  7  8  2  0
  8  9  1  0
  9 10  2  0
  9 11  1  0
 11 12  1  0
 12 13  2  0
 13 14  1  0
 14 15  2  0
 15 16  1  0
 16 17  2  0
 16 18  1  0
 18 19  1  0
 19 20  1  0
  8 21  1  0
 21 22  1  0
 22 23  1  0
 22 24  2  0
 24 25  1  0
 25 26  2  0
 25 27  1  0
 23  3  1  0
 23  6  2  0
 17 12  1  0
 27 21  2  0
 20 15  1  0
M  END
>  <smiles>  (707) 
C102176-P138

>  <fragmenstein_outcome>  (707) 
acceptable

>  <inchikey>  (707) 
OLDNCFGGXGCCEE-UHFFFAOYSA-O

>  <fragmenstein_mode>  (707) 
expansion

>  <HIPPO Pose ID>  (707) 
18024

>  <Energy>  (707) 
7.402651

>  <fragmenstein_error>  (707) 


>  <tags>  (707) 
{'openbind_xx01zvns2b_c1_fragmenstein', 'fragmenstein_placed'}

>  <ref_pdb>  (707) 
1

>  <scratch_subdir>  (707) 
/opt/xchem-fragalysis-2/maxwin/BulkDock/SCRATCH/511027/C102176-P138

>  <alias>  (707) 
N#Cc1csc2cc(C(=O)Nc3ccc4c(c3)CNC4)c3c(c12)=NC(=O)N=3

>  <HIPPO Compound ID>  (707) 
91463

>  <fragmenstein_runtime>  (707) 
3.68612

$$$$
O=C1N=c2cc(Br)cc([C@@](O)(Nc3ccc4c(c3)CNC4)C(=O)NCCCF)c2=N1
     RDKit          3D

 30 33  0  0  0  0  0  0  0  0999 V2000
   -2.9953    6.0703  -16.2093 O   0  0  0  0  0  0  0  0  0  0  0  0
   -4.1705    5.7499  -16.2449 C   0  0  0  0  0  0  0  0  0  0  0  0
   -4.9140    5.7284  -17.4115 N   0  0  0  0  0  0  0  0  0  0  0  0
   -6.0484    5.2584  -17.0373 C   0  0  0  0  0  0  0  0  0  0  0  0
   -7.2522    4.9624  -17.7940 C   0  0  0  0  0  0  0  0  0  0  0  0
   -8.3156    4.5593  -17.0846 C   0  0  0  0  0  0  0  0  0  0  0  0
   -9.9122    4.1873  -17.9687 Br  0  0  0  0  0  0  0  0  0  0  0  0
   -8.3081    4.4159  -15.6314 C   0  0  0  0  0  0  0  0  0  0  0  0
   -7.2284    4.6159  -14.8485 C   0  0  0  0  0  0  0  0  0  0  0  0
   -7.0643    4.5035  -13.3444 C   0  0  1  0  0  0  0  0  0  0  0  0
   -6.4895    5.7301  -12.8911 O   0  0  0  0  0  0  0  0  0  0  0  0
   -8.3788    4.3122  -12.7085 N   0  0  0  0  0  0  0  0  0  0  0  0
   -8.3675    4.2833  -11.2910 C   0  0  0  0  0  0  0  0  0  0  0  0
   -8.1157    5.4477  -10.5362 C   0  0  0  0  0  0  0  0  0  0  0  0
   -8.1168    5.4309   -9.1363 C   0  0  0  0  0  0  0  0  0  0  0  0
   -8.3940    4.2369   -8.5013 C   0  0  0  0  0  0  0  0  0  0  0  0
   -8.6231    3.0755   -9.2305 C   0  0  0  0  0  0  0  0  0  0  0  0
   -8.6080    3.0800  -10.6153 C   0  0  0  0  0  0  0  0  0  0  0  0
   -8.8611    1.9472   -8.2819 C   0  0  0  0  0  0  0  0  0  0  0  0
   -9.1909    2.6062   -6.9912 N   0  0  0  0  0  0  0  0  0  0  0  0
   -8.5268    3.9273   -7.0473 C   0  0  0  0  0  0  0  0  0  0  0  0
   -6.1279    3.2328  -13.0299 C   0  0  0  0  0  0  0  0  0  0  0  0
   -6.1639    2.2356  -13.6454 O   0  0  0  0  0  0  0  0  0  0  0  0
   -5.2038    3.6567  -11.8419 N   0  0  0  0  0  0  0  0  0  0  0  0
   -4.0814    2.9777  -11.2397 C   0  0  0  0  0  0  0  0  0  0  0  0
   -3.8942    1.5536  -11.7333 C   0  0  0  0  0  0  0  0  0  0  0  0
   -2.6772    0.8989  -11.1138 C   0  0  0  0  0  0  0  0  0  0  0  0
   -1.5722    1.6364  -11.4155 F   0  0  0  0  0  0  0  0  0  0  0  0
   -6.0273    5.0464  -15.5719 C   0  0  0  0  0  0  0  0  0  0  0  0
   -4.8686    5.3637  -15.1089 N   0  0  0  0  0  0  0  0  0  0  0  0
  1  2  2  0
  2  3  1  0
  3  4  2  0
  4  5  1  0
  5  6  2  0
  6  7  1  0
  6  8  1  0
  8  9  2  0
  9 10  1  0
 10 11  1  1
 10 12  1  0
 12 13  1  0
 13 14  2  0
 14 15  1  0
 15 16  2  0
 16 17  1  0
 17 18  2  0
 17 19  1  0
 19 20  1  0
 20 21  1  0
 10 22  1  0
 22 23  2  0
 22 24  1  0
 24 25  1  0
 25 26  1  0
 26 27  1  0
 27 28  1  0
  9 29  1  0
 29 30  2  0
 30  2  1  0
 29  4  1  0
 18 13  1  0
 21 16  1  0
M  END
>  <smiles>  (708) 
C102182-P12

>  <fragmenstein_outcome>  (708) 
acceptable

>  <inchikey>  (708) 
NRYHOQSATMJBOZ-UHFFFAOYSA-N

>  <fragmenstein_mode>  (708) 
expansion

>  <HIPPO Pose ID>  (708) 
18030

>  <Energy>  (708) 
21.793742

>  <fragmenstein_error>  (708) 


>  <tags>  (708) 
{'openbind_xx01zvns2b_c1_fragmenstein', 'fragmenstein_placed'}

>  <ref_pdb>  (708) 
1

>  <scratch_subdir>  (708) 
/opt/xchem-fragalysis-2/maxwin/BulkDock/SCRATCH/511027/C102182-P12

>  <alias>  (708) 
O=C1N=c2cc(Br)cc([C@@](O)(Nc3ccc4c(c3)CNC4)C(=O)NCCCF)c2=N1

>  <HIPPO Compound ID>  (708) 
71820

>  <fragmenstein_runtime>  (708) 
4.645615

$$$$
O=C(O)N=C(Nc1ccc2c(c1)CNC2)c1cc(Br)cc2c1=NC(=O)N=2
     RDKit          3D

 26 29  0  0  0  0  0  0  0  0999 V2000
   -4.8100    4.7298  -11.8279 O   0  0  0  0  0  0  0  0  0  0  0  0
   -5.3111    5.6663  -12.4282 C   0  0  0  0  0  0  0  0  0  0  0  0
   -5.2813    6.9065  -11.9095 O   0  0  0  0  0  0  0  0  0  0  0  0
   -5.8558    5.6659  -13.6615 N   0  0  0  0  0  0  0  0  0  0  0  0
   -6.7709    4.9012  -13.9493 C   0  0  0  0  0  0  0  0  0  0  0  0
   -7.8086    4.1114  -13.0049 N   0  0  0  0  0  0  0  0  0  0  0  0
   -7.9978    4.1615  -11.6197 C   0  0  0  0  0  0  0  0  0  0  0  0
   -7.8978    5.3601  -10.8879 C   0  0  0  0  0  0  0  0  0  0  0  0
   -8.0353    5.3922   -9.4923 C   0  0  0  0  0  0  0  0  0  0  0  0
   -8.3080    4.2100   -8.8322 C   0  0  0  0  0  0  0  0  0  0  0  0
   -8.4528    3.0236   -9.5362 C   0  0  0  0  0  0  0  0  0  0  0  0
   -8.2917    2.9817  -10.9169 C   0  0  0  0  0  0  0  0  0  0  0  0
   -8.7712    1.9188   -8.5817 C   0  0  0  0  0  0  0  0  0  0  0  0
   -8.9779    2.5654   -7.2649 N   0  0  0  0  0  0  0  0  0  0  0  0
   -8.4911    3.9515   -7.3747 C   0  0  0  0  0  0  0  0  0  0  0  0
   -6.9891    4.7778  -15.4620 C   0  0  0  0  0  0  0  0  0  0  0  0
   -8.1660    4.4017  -16.0030 C   0  0  0  0  0  0  0  0  0  0  0  0
   -8.4028    4.2807  -17.4375 C   0  0  0  0  0  0  0  0  0  0  0  0
  -10.1127    3.8459  -18.0146 Br  0  0  0  0  0  0  0  0  0  0  0  0
   -7.4768    4.5310  -18.3676 C   0  0  0  0  0  0  0  0  0  0  0  0
   -6.1823    4.9608  -17.8942 C   0  0  0  0  0  0  0  0  0  0  0  0
   -5.9114    5.1011  -16.4421 C   0  0  0  0  0  0  0  0  0  0  0  0
   -4.6968    5.5068  -16.3185 N   0  0  0  0  0  0  0  0  0  0  0  0
   -4.2156    5.6049  -17.6093 C   0  0  0  0  0  0  0  0  0  0  0  0
   -3.0684    5.9300  -17.8728 O   0  0  0  0  0  0  0  0  0  0  0  0
   -5.1424    5.2807  -18.5764 N   0  0  0  0  0  0  0  0  0  0  0  0
  1  2  2  0
  2  3  1  0
  2  4  1  0
  4  5  2  3
  5  6  1  0
  6  7  1  0
  7  8  2  0
  8  9  1  0
  9 10  2  0
 10 11  1  0
 11 12  2  0
 11 13  1  0
 13 14  1  0
 14 15  1  0
  5 16  1  0
 16 17  2  0
 17 18  1  0
 18 19  1  0
 18 20  2  0
 20 21  1  0
 21 22  1  0
 22 23  2  0
 23 24  1  0
 24 25  2  0
 24 26  1  0
 12  7  1  0
 22 16  1  0
 15 10  1  0
 26 21  2  0
M  END
>  <smiles>  (709) 
C102186-P139

>  <fragmenstein_outcome>  (709) 
acceptable

>  <inchikey>  (709) 
VELAFXGNJACXNY-UHFFFAOYSA-N

>  <fragmenstein_mode>  (709) 
expansion

>  <HIPPO Pose ID>  (709) 
18035

>  <Energy>  (709) 
-45.499577

>  <fragmenstein_error>  (709) 


>  <tags>  (709) 
{'openbind_xx01zvns2b_c1_fragmenstein', 'fragmenstein_placed'}

>  <ref_pdb>  (709) 
1

>  <scratch_subdir>  (709) 
/opt/xchem-fragalysis-2/maxwin/BulkDock/SCRATCH/511027/C102186-P139

>  <alias>  (709) 
O=C(O)N=C(Nc1ccc2c(c1)CNC2)c1cc(Br)cc2c1=NC(=O)N=2

>  <HIPPO Compound ID>  (709) 
102186

>  <fragmenstein_runtime>  (709) 
2.767252

$$$$
O=C(Nc1ccc2c(c1)CNC2)c1cc(Br)cc2c1=NC(=NC1CCNCC1)N=2
     RDKit          3D

 29 33  0  0  0  0  0  0  0  0999 V2000
   -6.9232    6.4019  -13.6978 O   0  0  0  0  0  0  0  0  0  0  0  0
   -7.2495    5.2996  -13.9111 C   0  0  0  0  0  0  0  0  0  0  0  0
   -7.7810    4.2029  -12.9478 N   0  0  0  0  0  0  0  0  0  0  0  0
   -7.9250    4.2084  -11.5544 C   0  0  0  0  0  0  0  0  0  0  0  0
   -7.6724    5.3735  -10.8100 C   0  0  0  0  0  0  0  0  0  0  0  0
   -7.8163    5.3886   -9.4172 C   0  0  0  0  0  0  0  0  0  0  0  0
   -8.2122    4.2255   -8.7847 C   0  0  0  0  0  0  0  0  0  0  0  0
   -8.4688    3.0699   -9.5109 C   0  0  0  0  0  0  0  0  0  0  0  0
   -8.3338    3.0427  -10.8952 C   0  0  0  0  0  0  0  0  0  0  0  0
   -8.9117    1.9925   -8.5760 C   0  0  0  0  0  0  0  0  0  0  0  0
   -8.7621    2.5394   -7.2049 N   0  0  0  0  0  0  0  0  0  0  0  0
   -8.4646    3.9787   -7.3370 C   0  0  0  0  0  0  0  0  0  0  0  0
   -7.2520    4.7968  -15.3176 C   0  0  0  0  0  0  0  0  0  0  0  0
   -8.4072    4.4109  -15.8978 C   0  0  0  0  0  0  0  0  0  0  0  0
   -8.5664    4.2333  -17.3376 C   0  0  0  0  0  0  0  0  0  0  0  0
  -10.2493    3.8507  -18.0130 Br  0  0  0  0  0  0  0  0  0  0  0  0
   -7.6022    4.4909  -18.2249 C   0  0  0  0  0  0  0  0  0  0  0  0
   -6.3436    4.9422  -17.6881 C   0  0  0  0  0  0  0  0  0  0  0  0
   -6.1157    5.0446  -16.2210 C   0  0  0  0  0  0  0  0  0  0  0  0
   -4.8865    5.3741  -16.0266 N   0  0  0  0  0  0  0  0  0  0  0  0
   -4.4092    5.5462  -17.3109 C   0  0  0  0  0  0  0  0  0  0  0  0
   -3.2094    5.9380  -17.5096 N   0  0  0  0  0  0  0  0  0  0  0  0
   -2.8628    6.3389  -18.8812 C   0  0  0  0  0  0  0  0  0  0  0  0
   -1.6196    7.2445  -18.8101 C   0  0  0  0  0  0  0  0  0  0  0  0
   -0.7596    7.1632  -20.0742 C   0  0  0  0  0  0  0  0  0  0  0  0
   -1.5753    6.9777  -21.2751 N   0  0  0  0  0  0  0  0  0  0  0  0
   -2.2805    5.6853  -21.2225 C   0  0  0  0  0  0  0  0  0  0  0  0
   -2.5909    5.1666  -19.8100 C   0  0  0  0  0  0  0  0  0  0  0  0
   -5.2954    5.3033  -18.3290 N   0  0  0  0  0  0  0  0  0  0  0  0
  1  2  2  0
  2  3  1  0
  3  4  1  0
  4  5  2  0
  5  6  1  0
  6  7  2  0
  7  8  1  0
  8  9  2  0
  8 10  1  0
 10 11  1  0
 11 12  1  0
  2 13  1  0
 13 14  2  0
 14 15  1  0
 15 16  1  0
 15 17  2  0
 17 18  1  0
 18 19  1  0
 19 20  2  0
 20 21  1  0
 21 22  2  3
 22 23  1  0
 23 24  1  0
 24 25  1  0
 25 26  1  0
 26 27  1  0
 27 28  1  0
 21 29  1  0
  9  4  1  0
 19 13  1  0
 28 23  1  0
 12  7  1  0
 29 18  2  0
M  END
>  <smiles>  (710) 
C102196-P139

>  <fragmenstein_outcome>  (710) 
acceptable

>  <inchikey>  (710) 
WJLWKRBAKZACLG-UHFFFAOYSA-N

>  <fragmenstein_mode>  (710) 
expansion

>  <HIPPO Pose ID>  (710) 
18047

>  <Energy>  (710) 
-6.663904

>  <fragmenstein_error>  (710) 


>  <tags>  (710) 
{'openbind_xx01zvns2b_c1_fragmenstein', 'fragmenstein_placed'}

>  <ref_pdb>  (710) 
1

>  <scratch_subdir>  (710) 
/opt/xchem-fragalysis-2/maxwin/BulkDock/SCRATCH/511027/C102196-P139

>  <alias>  (710) 
O=C(Nc1ccc2c(c1)CNC2)c1cc(Br)cc2c1=NC(=NC1CCNCC1)N=2

>  <HIPPO Compound ID>  (710) 
102196

>  <fragmenstein_runtime>  (710) 
4.698608

$$$$
CN=C1N=c2cc(Br)cc(C(=O)Nc3ccc4c(c3)CNC4)c2=N1
     RDKit          3D

 24 27  0  0  0  0  0  0  0  0999 V2000
   -1.7985    6.6142  -17.3149 C   0  0  0  0  0  0  0  0  0  0  0  0
   -2.5207    6.4738  -16.0575 N   0  0  0  0  0  0  0  0  0  0  0  0
   -3.7246    6.0446  -16.1527 C   0  0  0  0  0  0  0  0  0  0  0  0
   -4.3554    5.7259  -17.3405 N   0  0  0  0  0  0  0  0  0  0  0  0
   -5.5128    5.3191  -16.9457 C   0  0  0  0  0  0  0  0  0  0  0  0
   -6.6444    4.7760  -17.6990 C   0  0  0  0  0  0  0  0  0  0  0  0
   -7.7346    4.4034  -17.0087 C   0  0  0  0  0  0  0  0  0  0  0  0
   -9.2055    3.6557  -17.8960 Br  0  0  0  0  0  0  0  0  0  0  0  0
   -7.8652    4.6173  -15.5721 C   0  0  0  0  0  0  0  0  0  0  0  0
   -6.8695    5.1037  -14.8051 C   0  0  0  0  0  0  0  0  0  0  0  0
   -7.1447    5.5518  -13.4159 C   0  0  0  0  0  0  0  0  0  0  0  0
   -7.0308    6.6787  -13.1306 O   0  0  0  0  0  0  0  0  0  0  0  0
   -7.5868    4.3384  -12.5589 N   0  0  0  0  0  0  0  0  0  0  0  0
   -7.8785    4.2490  -11.1967 C   0  0  0  0  0  0  0  0  0  0  0  0
   -7.8080    5.3856  -10.3715 C   0  0  0  0  0  0  0  0  0  0  0  0
   -8.0787    5.3010   -9.0018 C   0  0  0  0  0  0  0  0  0  0  0  0
   -8.4451    4.0740   -8.4854 C   0  0  0  0  0  0  0  0  0  0  0  0
   -8.5269    2.9479   -9.2999 C   0  0  0  0  0  0  0  0  0  0  0  0
   -8.2361    3.0112  -10.6545 C   0  0  0  0  0  0  0  0  0  0  0  0
   -8.9351    1.7797   -8.4631 C   0  0  0  0  0  0  0  0  0  0  0  0
   -9.4434    2.3649   -7.1970 N   0  0  0  0  0  0  0  0  0  0  0  0
   -8.7950    3.6902   -7.0858 C   0  0  0  0  0  0  0  0  0  0  0  0
   -5.6010    5.4400  -15.4651 C   0  0  0  0  0  0  0  0  0  0  0  0
   -4.4731    5.8627  -15.0113 N   0  0  0  0  0  0  0  0  0  0  0  0
  1  2  1  0
  2  3  2  3
  3  4  1  0
  4  5  2  0
  5  6  1  0
  6  7  2  0
  7  8  1  0
  7  9  1  0
  9 10  2  0
 10 11  1  0
 11 12  2  0
 11 13  1  0
 13 14  1  0
 14 15  2  0
 15 16  1  0
 16 17  2  0
 17 18  1  0
 18 19  2  0
 18 20  1  0
 20 21  1  0
 21 22  1  0
 10 23  1  0
 23 24  2  0
 24  3  1  0
 23  5  1  0
 19 14  1  0
 22 17  1  0
M  END
>  <smiles>  (711) 
C102036-P139

>  <fragmenstein_outcome>  (711) 
acceptable

>  <inchikey>  (711) 
KXMJYZOHXPDQCQ-UHFFFAOYSA-N

>  <fragmenstein_mode>  (711) 
expansion

>  <HIPPO Pose ID>  (711) 
18058

>  <Energy>  (711) 
-15.647427

>  <fragmenstein_error>  (711) 


>  <tags>  (711) 
{'openbind_xx01zvns2b_c1_fragmenstein', 'fragmenstein_placed'}

>  <ref_pdb>  (711) 
1

>  <scratch_subdir>  (711) 
/opt/xchem-fragalysis-2/maxwin/BulkDock/SCRATCH/511027/C102036-P139

>  <alias>  (711) 
CN=C1N=c2cc(Br)cc(C(=O)Nc3ccc4c(c3)CNC4)c2=N1

>  <HIPPO Compound ID>  (711) 
84088

>  <fragmenstein_runtime>  (711) 
3.170297

$$$$
CNC[C@@]1(O)Nc2cc(Br)cc(C(=O)Nc3ccc4c(c3)CNC4)c2N1
     RDKit          3D

 26 29  0  0  0  0  0  0  0  0999 V2000
   -4.8094    5.0719  -20.7611 C   0  0  0  0  0  0  0  0  0  0  0  0
   -4.1609    6.2376  -20.1719 N   0  0  0  0  0  0  0  0  0  0  0  0
   -3.7485    6.0172  -18.7312 C   0  0  0  0  0  0  0  0  0  0  0  0
   -4.6940    6.7781  -17.7091 C   0  0  1  0  0  0  0  0  0  0  0  0
   -4.3129    8.1149  -17.5580 O   0  0  0  0  0  0  0  0  0  0  0  0
   -5.9969    6.8189  -18.3373 N   0  0  0  0  0  0  0  0  0  0  0  0
   -6.5863    5.6988  -17.7074 C   0  0  0  0  0  0  0  0  0  0  0  0
   -7.6447    4.9904  -18.1862 C   0  0  0  0  0  0  0  0  0  0  0  0
   -8.3130    4.1910  -17.2857 C   0  0  0  0  0  0  0  0  0  0  0  0
   -9.7397    3.2336  -18.0069 Br  0  0  0  0  0  0  0  0  0  0  0  0
   -7.9955    4.1959  -15.9164 C   0  0  0  0  0  0  0  0  0  0  0  0
   -6.8595    4.8976  -15.4532 C   0  0  0  0  0  0  0  0  0  0  0  0
   -6.7199    5.2419  -13.9873 C   0  0  0  0  0  0  0  0  0  0  0  0
   -6.2727    6.2962  -13.7378 O   0  0  0  0  0  0  0  0  0  0  0  0
   -7.3038    4.1446  -13.0469 N   0  0  0  0  0  0  0  0  0  0  0  0
   -7.5362    4.1600  -11.6625 C   0  0  0  0  0  0  0  0  0  0  0  0
   -7.3308    5.3167  -10.8930 C   0  0  0  0  0  0  0  0  0  0  0  0
   -7.6257    5.3374   -9.5198 C   0  0  0  0  0  0  0  0  0  0  0  0
   -8.1249    4.1892   -8.9319 C   0  0  0  0  0  0  0  0  0  0  0  0
   -8.3218    3.0362   -9.6815 C   0  0  0  0  0  0  0  0  0  0  0  0
   -8.0418    3.0063  -11.0435 C   0  0  0  0  0  0  0  0  0  0  0  0
   -8.8140    1.9500   -8.7787 C   0  0  0  0  0  0  0  0  0  0  0  0
   -9.2192    2.6292   -7.5228 N   0  0  0  0  0  0  0  0  0  0  0  0
   -8.4993    3.9221   -7.5111 C   0  0  0  0  0  0  0  0  0  0  0  0
   -6.0883    5.5455  -16.4191 C   0  0  0  0  0  0  0  0  0  0  0  0
   -4.8153    6.1922  -16.3643 N   0  0  0  0  0  0  0  0  0  0  0  0
  1  2  1  0
  2  3  1  0
  3  4  1  0
  4  5  1  1
  4  6  1  0
  6  7  1  0
  7  8  2  0
  8  9  1  0
  9 10  1  0
  9 11  2  0
 11 12  1  0
 12 13  1  0
 13 14  2  0
 13 15  1  0
 15 16  1  0
 16 17  2  0
 17 18  1  0
 18 19  2  0
 19 20  1  0
 20 21  2  0
 20 22  1  0
 22 23  1  0
 23 24  1  0
 12 25  2  0
 25 26  1  0
 26  4  1  0
 25  7  1  0
 21 16  1  0
 24 19  1  0
M  END
>  <smiles>  (712) 
C102218-P139

>  <fragmenstein_outcome>  (712) 
acceptable

>  <inchikey>  (712) 
LZDVLTDZEOTZSI-UHFFFAOYSA-N

>  <fragmenstein_mode>  (712) 
expansion

>  <HIPPO Pose ID>  (712) 
18059

>  <Energy>  (712) 
41.632007

>  <fragmenstein_error>  (712) 


>  <tags>  (712) 
{'openbind_xx01zvns2b_c1_fragmenstein', 'fragmenstein_placed'}

>  <ref_pdb>  (712) 
1

>  <scratch_subdir>  (712) 
/opt/xchem-fragalysis-2/maxwin/BulkDock/SCRATCH/511027/C102218-P139

>  <alias>  (712) 
CNC[C@@]1(O)Nc2cc(Br)cc(C(=O)Nc3ccc4c(c3)CNC4)c2N1

>  <HIPPO Compound ID>  (712) 
93992

>  <fragmenstein_runtime>  (712) 
3.776104

$$$$
O=C(Nc1ccc2c(c1)CNC2)[C@H]1C[C@@H](Br)C[C@@H]2[C@H]3CCC[C@@H]3C[C@@H]21
     RDKit          3D

 25 29  0  0  0  0  0  0  0  0999 V2000
   -6.6689    6.5905  -13.3271 O   0  0  0  0  0  0  0  0  0  0  0  0
   -7.0260    5.5028  -13.5774 C   0  0  0  0  0  0  0  0  0  0  0  0
   -7.6457    4.4022  -12.6539 N   0  0  0  0  0  0  0  0  0  0  0  0
   -7.8526    4.3891  -11.2727 C   0  0  0  0  0  0  0  0  0  0  0  0
   -7.5267    5.5009  -10.4796 C   0  0  0  0  0  0  0  0  0  0  0  0
   -7.7007    5.4711   -9.0906 C   0  0  0  0  0  0  0  0  0  0  0  0
   -8.2002    4.3179   -8.5149 C   0  0  0  0  0  0  0  0  0  0  0  0
   -8.5348    3.2180   -9.2950 C   0  0  0  0  0  0  0  0  0  0  0  0
   -8.3749    3.2369  -10.6748 C   0  0  0  0  0  0  0  0  0  0  0  0
   -9.0074    2.1133   -8.4062 C   0  0  0  0  0  0  0  0  0  0  0  0
   -9.1693    2.7208   -7.0620 N   0  0  0  0  0  0  0  0  0  0  0  0
   -8.4424    4.0000   -7.0776 C   0  0  0  0  0  0  0  0  0  0  0  0
   -6.9806    4.9255  -15.0165 C   0  0  1  0  0  0  0  0  0  0  0  0
   -8.4079    4.8641  -15.5750 C   0  0  0  0  0  0  0  0  0  0  0  0
   -8.3870    4.3008  -16.9792 C   0  0  1  0  0  0  0  0  0  0  0  0
  -10.1656    4.0276  -17.6764 Br  0  0  0  0  0  0  0  0  0  0  0  0
   -7.5904    5.0649  -18.0035 C   0  0  0  0  0  0  0  0  0  0  0  0
   -6.3830    5.7990  -17.4633 C   0  0  2  0  0  0  0  0  0  0  0  0
   -5.1163    5.2661  -18.0847 C   0  0  1  0  0  0  0  0  0  0  0  0
   -4.6731    5.6459  -19.4739 C   0  0  0  0  0  0  0  0  0  0  0  0
   -3.1421    5.4909  -19.3810 C   0  0  0  0  0  0  0  0  0  0  0  0
   -2.8029    5.2976  -17.8771 C   0  0  0  0  0  0  0  0  0  0  0  0
   -4.0379    5.8408  -17.1964 C   0  0  2  0  0  0  0  0  0  0  0  0
   -4.5490    5.4143  -15.8321 C   0  0  0  0  0  0  0  0  0  0  0  0
   -6.0708    5.7779  -15.9322 C   0  0  2  0  0  0  0  0  0  0  0  0
  1  2  2  0
  2  3  1  0
  3  4  1  0
  4  5  2  0
  5  6  1  0
  6  7  2  0
  7  8  1  0
  8  9  2  0
  8 10  1  0
 10 11  1  0
 11 12  1  0
 13  2  1  1
 13 14  1  0
 14 15  1  0
 15 16  1  6
 15 17  1  0
 18 17  1  1
 18 19  1  0
 19 20  1  6
 20 21  1  0
 21 22  1  0
 23 22  1  6
 23 24  1  0
 25 24  1  6
  9  4  1  0
 25 13  1  0
 12  7  1  0
 25 18  1  0
 23 19  1  0
M  END
>  <smiles>  (713) 
C102214-P100

>  <fragmenstein_outcome>  (713) 
acceptable

>  <inchikey>  (713) 
UUTOKBLCKLOJKY-UHFFFAOYSA-N

>  <fragmenstein_mode>  (713) 
expansion

>  <HIPPO Pose ID>  (713) 
18065

>  <Energy>  (713) 
73.726783

>  <fragmenstein_error>  (713) 


>  <tags>  (713) 
{'openbind_xx01zvns2b_c1_fragmenstein', 'fragmenstein_placed'}

>  <ref_pdb>  (713) 
1

>  <scratch_subdir>  (713) 
/opt/xchem-fragalysis-2/maxwin/BulkDock/SCRATCH/511027/C102214-P100

>  <alias>  (713) 
O=C(Nc1ccc2c(c1)CNC2)[C@H]1C[C@@H](Br)C[C@@H]2[C@H]3CCC[C@@H]3C[C@@H]21

>  <HIPPO Compound ID>  (713) 
106832

>  <fragmenstein_runtime>  (713) 
3.332399

$$$$
CCCc1cn(-c2cc(Br)cc(C(=O)Nc3ccc4c(c3)CNC4)c2N)cn1
     RDKit          3D

 28 31  0  0  0  0  0  0  0  0999 V2000
   -0.9393    6.7077  -21.0733 C   0  0  0  0  0  0  0  0  0  0  0  0
   -0.7858    6.8735  -19.5673 C   0  0  0  0  0  0  0  0  0  0  0  0
   -1.9572    7.6091  -18.9187 C   0  0  0  0  0  0  0  0  0  0  0  0
   -3.1981    6.7954  -18.7871 C   0  0  0  0  0  0  0  0  0  0  0  0
   -3.8172    6.3503  -17.6394 C   0  0  0  0  0  0  0  0  0  0  0  0
   -4.9909    5.7322  -18.0174 N   0  0  0  0  0  0  0  0  0  0  0  0
   -6.0563    5.2246  -17.1952 C   0  0  0  0  0  0  0  0  0  0  0  0
   -7.1625    4.6463  -17.8344 C   0  0  0  0  0  0  0  0  0  0  0  0
   -8.2890    4.2591  -17.1103 C   0  0  0  0  0  0  0  0  0  0  0  0
   -9.7576    3.6000  -18.0793 Br  0  0  0  0  0  0  0  0  0  0  0  0
   -8.3664    4.4359  -15.7361 C   0  0  0  0  0  0  0  0  0  0  0  0
   -7.2745    4.9983  -15.0777 C   0  0  0  0  0  0  0  0  0  0  0  0
   -7.3954    5.3842  -13.6375 C   0  0  0  0  0  0  0  0  0  0  0  0
   -7.0543    6.4666  -13.3579 O   0  0  0  0  0  0  0  0  0  0  0  0
   -7.9426    4.2448  -12.7476 N   0  0  0  0  0  0  0  0  0  0  0  0
   -8.0908    4.1682  -11.3604 C   0  0  0  0  0  0  0  0  0  0  0  0
   -7.8784    5.3058  -10.5589 C   0  0  0  0  0  0  0  0  0  0  0  0
   -8.0417    5.2551   -9.1706 C   0  0  0  0  0  0  0  0  0  0  0  0
   -8.4260    4.0558   -8.6055 C   0  0  0  0  0  0  0  0  0  0  0  0
   -8.6177    2.9219   -9.3903 C   0  0  0  0  0  0  0  0  0  0  0  0
   -8.4546    2.9570  -10.7682 C   0  0  0  0  0  0  0  0  0  0  0  0
   -8.9888    1.7819   -8.4992 C   0  0  0  0  0  0  0  0  0  0  0  0
   -9.3894    2.4061   -7.2141 N   0  0  0  0  0  0  0  0  0  0  0  0
   -8.7050    3.7174   -7.1784 C   0  0  0  0  0  0  0  0  0  0  0  0
   -6.1029    5.3915  -15.7906 C   0  0  0  0  0  0  0  0  0  0  0  0
   -4.9483    5.7322  -15.0448 N   0  0  0  0  0  0  0  0  0  0  0  0
   -4.9711    5.7900  -19.4017 C   0  0  0  0  0  0  0  0  0  0  0  0
   -3.9319    6.4383  -19.8788 N   0  0  0  0  0  0  0  0  0  0  0  0
  1  2  1  0
  2  3  1  0
  3  4  1  0
  4  5  2  0
  5  6  1  0
  6  7  1  0
  7  8  2  0
  8  9  1  0
  9 10  1  0
  9 11  2  0
 11 12  1  0
 12 13  1  0
 13 14  2  0
 13 15  1  0
 15 16  1  0
 16 17  2  0
 17 18  1  0
 18 19  2  0
 19 20  1  0
 20 21  2  0
 20 22  1  0
 22 23  1  0
 23 24  1  0
 12 25  2  0
 25 26  1  0
  6 27  1  0
 27 28  2  0
 28  4  1  0
 25  7  1  0
 21 16  1  0
 24 19  1  0
M  END
>  <smiles>  (714) 
C102225-P139

>  <fragmenstein_outcome>  (714) 
acceptable

>  <inchikey>  (714) 
GESXWCBVHGTIMO-UHFFFAOYSA-N

>  <fragmenstein_mode>  (714) 
expansion

>  <HIPPO Pose ID>  (714) 
18066

>  <Energy>  (714) 
92.984168

>  <fragmenstein_error>  (714) 


>  <tags>  (714) 
{'openbind_xx01zvns2b_c1_fragmenstein', 'fragmenstein_placed'}

>  <ref_pdb>  (714) 
1

>  <scratch_subdir>  (714) 
/opt/xchem-fragalysis-2/maxwin/BulkDock/SCRATCH/511027/C102225-P139

>  <alias>  (714) 
CCCc1cn(-c2cc(Br)cc(C(=O)Nc3ccc4c(c3)CNC4)c2N)cn1

>  <HIPPO Compound ID>  (714) 
75565

>  <fragmenstein_runtime>  (714) 
4.402388

$$$$
O=C1N=c2c(C(=O)Nc3ccc4c(c3)CNC4)cc(Br)cc2=C1NC1CNC1
     RDKit          3D

 28 32  0  0  0  0  0  0  0  0999 V2000
   -3.1698    5.9403  -17.5595 O   0  0  0  0  0  0  0  0  0  0  0  0
   -4.3169    5.5902  -17.3363 C   0  0  0  0  0  0  0  0  0  0  0  0
   -4.9159    5.5061  -16.0911 N   0  0  0  0  0  0  0  0  0  0  0  0
   -6.1214    5.0967  -16.3029 C   0  0  0  0  0  0  0  0  0  0  0  0
   -7.2545    4.8608  -15.3599 C   0  0  0  0  0  0  0  0  0  0  0  0
   -7.2168    5.3549  -13.9468 C   0  0  0  0  0  0  0  0  0  0  0  0
   -6.9539    6.4741  -13.7298 O   0  0  0  0  0  0  0  0  0  0  0  0
   -7.6018    4.2026  -12.9739 N   0  0  0  0  0  0  0  0  0  0  0  0
   -7.8267    4.2168  -11.5901 C   0  0  0  0  0  0  0  0  0  0  0  0
   -7.6010    5.3779  -10.8319 C   0  0  0  0  0  0  0  0  0  0  0  0
   -7.7924    5.3853   -9.4437 C   0  0  0  0  0  0  0  0  0  0  0  0
   -8.2103    4.2195   -8.8291 C   0  0  0  0  0  0  0  0  0  0  0  0
   -8.4432    3.0678   -9.5695 C   0  0  0  0  0  0  0  0  0  0  0  0
   -8.2595    3.0482  -10.9488 C   0  0  0  0  0  0  0  0  0  0  0  0
   -8.8641    1.9694   -8.6474 C   0  0  0  0  0  0  0  0  0  0  0  0
   -9.0284    2.5904   -7.3126 N   0  0  0  0  0  0  0  0  0  0  0  0
   -8.4622    3.9492   -7.3843 C   0  0  0  0  0  0  0  0  0  0  0  0
   -8.4338    4.4445  -15.8773 C   0  0  0  0  0  0  0  0  0  0  0  0
   -8.6367    4.2104  -17.3037 C   0  0  0  0  0  0  0  0  0  0  0  0
  -10.3279    3.8828  -17.9735 Br  0  0  0  0  0  0  0  0  0  0  0  0
   -7.6534    4.3995  -18.1880 C   0  0  0  0  0  0  0  0  0  0  0  0
   -6.3995    4.8542  -17.7173 C   0  0  0  0  0  0  0  0  0  0  0  0
   -5.3132    5.2041  -18.3982 C   0  0  0  0  0  0  0  0  0  0  0  0
   -5.1359    5.2271  -19.7705 N   0  0  0  0  0  0  0  0  0  0  0  0
   -4.0384    5.8722  -20.4512 C   0  0  0  0  0  0  0  0  0  0  0  0
   -4.2171    5.8777  -21.9906 C   0  0  0  0  0  0  0  0  0  0  0  0
   -3.5242    4.5660  -22.0476 N   0  0  0  0  0  0  0  0  0  0  0  0
   -2.8547    4.9283  -20.7611 C   0  0  0  0  0  0  0  0  0  0  0  0
  1  2  2  0
  2  3  1  0
  3  4  2  0
  4  5  1  0
  5  6  1  0
  6  7  2  0
  6  8  1  0
  8  9  1  0
  9 10  2  0
 10 11  1  0
 11 12  2  0
 12 13  1  0
 13 14  2  0
 13 15  1  0
 15 16  1  0
 16 17  1  0
  5 18  2  0
 18 19  1  0
 19 20  1  0
 19 21  2  0
 21 22  1  0
 22 23  2  0
 23 24  1  0
 24 25  1  0
 25 26  1  0
 26 27  1  0
 27 28  1  0
 23  2  1  0
 28 25  1  0
 22  4  1  0
 14  9  1  0
 17 12  1  0
M  END
>  <smiles>  (715) 
C102228-P139

>  <fragmenstein_outcome>  (715) 
acceptable

>  <inchikey>  (715) 
KURXIKUEMNSGQC-UHFFFAOYSA-N

>  <fragmenstein_mode>  (715) 
expansion

>  <HIPPO Pose ID>  (715) 
18068

>  <Energy>  (715) 
114.116588

>  <fragmenstein_error>  (715) 


>  <tags>  (715) 
{'openbind_xx01zvns2b_c1_fragmenstein', 'fragmenstein_placed'}

>  <ref_pdb>  (715) 
1

>  <scratch_subdir>  (715) 
/opt/xchem-fragalysis-2/maxwin/BulkDock/SCRATCH/511027/C102228-P139

>  <alias>  (715) 
O=C1N=c2c(C(=O)Nc3ccc4c(c3)CNC4)cc(Br)cc2=C1NC1CNC1

>  <HIPPO Compound ID>  (715) 
85459

>  <fragmenstein_runtime>  (715) 
3.901656

$$$$
O=C(Nc1ccc2c(c1)CNC2)c1cc(Br)cc2c1NC(=O)C21CCOCC1
     RDKit          3D

 28 32  0  0  0  0  0  0  0  0999 V2000
   -6.9075    6.4447  -13.3054 O   0  0  0  0  0  0  0  0  0  0  0  0
   -7.2482    5.3645  -13.5905 C   0  0  0  0  0  0  0  0  0  0  0  0
   -7.7338    4.1997  -12.6994 N   0  0  0  0  0  0  0  0  0  0  0  0
   -7.9841    4.1515  -11.3266 C   0  0  0  0  0  0  0  0  0  0  0  0
   -7.8173    5.2977  -10.5275 C   0  0  0  0  0  0  0  0  0  0  0  0
   -8.0381    5.2561   -9.1465 C   0  0  0  0  0  0  0  0  0  0  0  0
   -8.4338    4.0575   -8.5871 C   0  0  0  0  0  0  0  0  0  0  0  0
   -8.5941    2.9187   -9.3715 C   0  0  0  0  0  0  0  0  0  0  0  0
   -8.3743    2.9448  -10.7413 C   0  0  0  0  0  0  0  0  0  0  0  0
   -8.9855    1.7801   -8.4876 C   0  0  0  0  0  0  0  0  0  0  0  0
   -9.4199    2.4057   -7.2139 N   0  0  0  0  0  0  0  0  0  0  0  0
   -8.7412    3.7198   -7.1657 C   0  0  0  0  0  0  0  0  0  0  0  0
   -7.1379    4.9799  -15.0205 C   0  0  0  0  0  0  0  0  0  0  0  0
   -8.1954    4.4225  -15.7365 C   0  0  0  0  0  0  0  0  0  0  0  0
   -8.0626    4.2506  -17.1269 C   0  0  0  0  0  0  0  0  0  0  0  0
   -9.5076    3.5524  -18.1163 Br  0  0  0  0  0  0  0  0  0  0  0  0
   -6.9085    4.6398  -17.8271 C   0  0  0  0  0  0  0  0  0  0  0  0
   -5.8598    5.1886  -17.1131 C   0  0  0  0  0  0  0  0  0  0  0  0
   -5.9888    5.3237  -15.7245 C   0  0  0  0  0  0  0  0  0  0  0  0
   -4.8053    5.8156  -15.1977 N   0  0  0  0  0  0  0  0  0  0  0  0
   -3.8405    5.9784  -16.1725 C   0  0  0  0  0  0  0  0  0  0  0  0
   -2.6676    6.2198  -15.9443 O   0  0  0  0  0  0  0  0  0  0  0  0
   -4.5428    5.8219  -17.5527 C   0  0  0  0  0  0  0  0  0  0  0  0
   -4.8273    7.2251  -18.1146 C   0  0  0  0  0  0  0  0  0  0  0  0
   -5.2680    7.1710  -19.5717 C   0  0  0  0  0  0  0  0  0  0  0  0
   -4.2761    6.5319  -20.3644 O   0  0  0  0  0  0  0  0  0  0  0  0
   -4.0752    5.1788  -19.9757 C   0  0  0  0  0  0  0  0  0  0  0  0
   -3.6115    5.0995  -18.5278 C   0  0  0  0  0  0  0  0  0  0  0  0
  1  2  2  0
  2  3  1  0
  3  4  1  0
  4  5  2  0
  5  6  1  0
  6  7  2  0
  7  8  1  0
  8  9  2  0
  8 10  1  0
 10 11  1  0
 11 12  1  0
  2 13  1  0
 13 14  2  0
 14 15  1  0
 15 16  1  0
 15 17  2  0
 17 18  1  0
 18 19  2  0
 19 20  1  0
 20 21  1  0
 21 22  2  0
 21 23  1  0
 23 24  1  0
 24 25  1  0
 25 26  1  0
 26 27  1  0
 27 28  1  0
  9  4  1  0
 19 13  1  0
 28 23  1  0
 12  7  1  0
 23 18  1  0
M  END
>  <smiles>  (716) 
C102230-P139

>  <fragmenstein_outcome>  (716) 
acceptable

>  <inchikey>  (716) 
MGWAOFDCZVASLD-UHFFFAOYSA-N

>  <fragmenstein_mode>  (716) 
expansion

>  <HIPPO Pose ID>  (716) 
18069

>  <Energy>  (716) 
57.247902

>  <fragmenstein_error>  (716) 


>  <tags>  (716) 
{'openbind_xx01zvns2b_c1_fragmenstein', 'fragmenstein_placed'}

>  <ref_pdb>  (716) 
1

>  <scratch_subdir>  (716) 
/opt/xchem-fragalysis-2/maxwin/BulkDock/SCRATCH/511027/C102230-P139

>  <alias>  (716) 
O=C(Nc1ccc2c(c1)CNC2)c1cc(Br)cc2c1NC(=O)C21CCOCC1

>  <HIPPO Compound ID>  (716) 
93788

>  <fragmenstein_runtime>  (716) 
4.157446

$$$$
CC(=O)N[C@](O)(Nc1ccc2c(c1)CNC2)c1cccc2nn(C)cc12
     RDKit          3D

 26 29  0  0  0  0  0  0  0  0999 V2000
   -3.9695    6.1880  -12.1058 C   0  0  0  0  0  0  0  0  0  0  0  0
   -4.8720    5.1123  -12.6695 C   0  0  0  0  0  0  0  0  0  0  0  0
   -4.5530    3.9967  -12.7623 O   0  0  0  0  0  0  0  0  0  0  0  0
   -6.2174    5.7973  -12.9865 N   0  0  0  0  0  0  0  0  0  0  0  0
   -7.3938    5.2798  -13.5601 C   0  0  2  0  0  0  0  0  0  0  0  0
   -8.3338    6.3248  -13.4443 O   0  0  0  0  0  0  0  0  0  0  0  0
   -7.8781    4.1820  -12.7620 N   0  0  0  0  0  0  0  0  0  0  0  0
   -8.0397    4.1824  -11.3675 C   0  0  0  0  0  0  0  0  0  0  0  0
   -8.0214    5.3432  -10.5627 C   0  0  0  0  0  0  0  0  0  0  0  0
   -8.2242    5.2948   -9.1773 C   0  0  0  0  0  0  0  0  0  0  0  0
   -8.5046    4.0743   -8.6025 C   0  0  0  0  0  0  0  0  0  0  0  0
   -8.5737    2.9241   -9.3765 C   0  0  0  0  0  0  0  0  0  0  0  0
   -8.3438    2.9606  -10.7439 C   0  0  0  0  0  0  0  0  0  0  0  0
   -8.8954    1.7647   -8.4917 C   0  0  0  0  0  0  0  0  0  0  0  0
   -9.3788    2.3718   -7.2219 N   0  0  0  0  0  0  0  0  0  0  0  0
   -8.7721    3.7192   -7.1788 C   0  0  0  0  0  0  0  0  0  0  0  0
   -7.3676    4.9403  -15.0348 C   0  0  0  0  0  0  0  0  0  0  0  0
   -8.5175    4.3365  -15.6490 C   0  0  0  0  0  0  0  0  0  0  0  0
   -8.6847    4.0524  -17.0395 C   0  0  0  0  0  0  0  0  0  0  0  0
   -7.7004    4.3361  -17.9974 C   0  0  0  0  0  0  0  0  0  0  0  0
   -6.5438    4.9176  -17.4607 C   0  0  0  0  0  0  0  0  0  0  0  0
   -5.4336    5.3159  -18.1054 N   0  0  0  0  0  0  0  0  0  0  0  0
   -4.6281    5.7734  -17.1404 N   0  0  0  0  0  0  0  0  0  0  0  0
   -3.3018    6.2178  -17.4915 C   0  0  0  0  0  0  0  0  0  0  0  0
   -5.1885    5.7872  -15.8982 C   0  0  0  0  0  0  0  0  0  0  0  0
   -6.4172    5.1972  -16.0386 C   0  0  0  0  0  0  0  0  0  0  0  0
  1  2  1  0
  2  3  2  0
  2  4  1  0
  4  5  1  0
  5  6  1  6
  5  7  1  0
  7  8  1  0
  8  9  2  0
  9 10  1  0
 10 11  2  0
 11 12  1  0
 12 13  2  0
 12 14  1  0
 14 15  1  0
 15 16  1  0
  5 17  1  0
 17 18  2  0
 18 19  1  0
 19 20  2  0
 20 21  1  0
 21 22  2  0
 22 23  1  0
 23 24  1  0
 23 25  1  0
 25 26  2  0
 13  8  1  0
 26 17  1  0
 16 11  1  0
 26 21  1  0
M  END
>  <smiles>  (717) 
C102257-P139

>  <fragmenstein_outcome>  (717) 
acceptable

>  <inchikey>  (717) 
TXEIXMMOIJDFIM-UHFFFAOYSA-N

>  <fragmenstein_mode>  (717) 
expansion

>  <HIPPO Pose ID>  (717) 
18076

>  <Energy>  (717) 
-91.009526

>  <fragmenstein_error>  (717) 


>  <tags>  (717) 
{'openbind_xx01zvns2b_c1_fragmenstein', 'fragmenstein_placed'}

>  <ref_pdb>  (717) 
1

>  <scratch_subdir>  (717) 
/opt/xchem-fragalysis-2/maxwin/BulkDock/SCRATCH/511027/C102257-P139

>  <alias>  (717) 
CC(=O)N[C@](O)(Nc1ccc2c(c1)CNC2)c1cccc2nn(C)cc12

>  <HIPPO Compound ID>  (717) 
102257

>  <fragmenstein_runtime>  (717) 
2.859367

$$$$
Cc1c(C)n(CO)c2cccc(C(=O)C(=O)c3ccc4c(c3)CNC4)c12
     RDKit          3D

 26 29  0  0  0  0  0  0  0  0999 V2000
   -4.4331    5.7016  -14.0712 C   0  0  0  0  0  0  0  0  0  0  0  0
   -5.1468    5.5627  -15.3691 C   0  0  0  0  0  0  0  0  0  0  0  0
   -4.5961    5.7342  -16.6348 C   0  0  0  0  0  0  0  0  0  0  0  0
   -3.2206    6.1487  -17.0285 C   0  0  0  0  0  0  0  0  0  0  0  0
   -5.5629    5.4061  -17.5622 N   0  0  0  0  0  0  0  0  0  0  0  0
   -5.4169    5.4182  -19.0139 C   0  0  0  0  0  0  0  0  0  0  0  0
   -6.1255    6.5282  -19.5564 O   0  0  0  0  0  0  0  0  0  0  0  0
   -6.7033    4.9676  -16.9159 C   0  0  0  0  0  0  0  0  0  0  0  0
   -7.8956    4.4588  -17.4548 C   0  0  0  0  0  0  0  0  0  0  0  0
   -8.9292    4.1474  -16.5811 C   0  0  0  0  0  0  0  0  0  0  0  0
   -8.7852    4.3596  -15.2158 C   0  0  0  0  0  0  0  0  0  0  0  0
   -7.5981    4.8641  -14.6744 C   0  0  0  0  0  0  0  0  0  0  0  0
   -7.6663    5.3293  -13.2767 C   0  0  0  0  0  0  0  0  0  0  0  0
   -8.1642    6.4269  -13.0409 O   0  0  0  0  0  0  0  0  0  0  0  0
   -7.2035    4.4778  -12.1161 C   0  0  0  0  0  0  0  0  0  0  0  0
   -6.0926    3.9721  -12.0972 O   0  0  0  0  0  0  0  0  0  0  0  0
   -7.9720    4.3593  -10.8794 C   0  0  0  0  0  0  0  0  0  0  0  0
   -8.0292    5.4804  -10.0315 C   0  0  0  0  0  0  0  0  0  0  0  0
   -8.3802    5.3222   -8.6910 C   0  0  0  0  0  0  0  0  0  0  0  0
   -8.6938    4.0497   -8.2438 C   0  0  0  0  0  0  0  0  0  0  0  0
   -8.6782    2.9496   -9.1004 C   0  0  0  0  0  0  0  0  0  0  0  0
   -8.2984    3.0768  -10.4222 C   0  0  0  0  0  0  0  0  0  0  0  0
   -9.0161    1.7230   -8.3200 C   0  0  0  0  0  0  0  0  0  0  0  0
   -9.5991    2.2254   -7.0502 N   0  0  0  0  0  0  0  0  0  0  0  0
   -9.0318    3.5784   -6.8668 C   0  0  0  0  0  0  0  0  0  0  0  0
   -6.5082    5.1417  -15.5365 C   0  0  0  0  0  0  0  0  0  0  0  0
  1  2  1  0
  2  3  2  0
  3  4  1  0
  3  5  1  0
  5  6  1  0
  6  7  1  0
  5  8  1  0
  8  9  2  0
  9 10  1  0
 10 11  2  0
 11 12  1  0
 12 13  1  0
 13 14  2  0
 13 15  1  0
 15 16  2  0
 15 17  1  0
 17 18  2  0
 18 19  1  0
 19 20  2  0
 20 21  1  0
 21 22  2  0
 21 23  1  0
 23 24  1  0
 24 25  1  0
 12 26  2  0
 26  2  1  0
 26  8  1  0
 22 17  1  0
 25 20  1  0
M  END
>  <smiles>  (718) 
C102302-P139

>  <fragmenstein_outcome>  (718) 
acceptable

>  <inchikey>  (718) 
HMTXOTKUXYWPLK-UHFFFAOYSA-N

>  <fragmenstein_mode>  (718) 
expansion

>  <HIPPO Pose ID>  (718) 
18083

>  <Energy>  (718) 
142.60253

>  <fragmenstein_error>  (718) 


>  <tags>  (718) 
{'openbind_xx01zvns2b_c1_fragmenstein', 'fragmenstein_placed'}

>  <ref_pdb>  (718) 
1

>  <scratch_subdir>  (718) 
/opt/xchem-fragalysis-2/maxwin/BulkDock/SCRATCH/511027/C102302-P139

>  <alias>  (718) 
Cc1c(C)n(CO)c2cccc(C(=O)C(=O)c3ccc4c(c3)CNC4)c12

>  <HIPPO Compound ID>  (718) 
102347

>  <fragmenstein_runtime>  (718) 
3.195518

$$$$
Cn1cc2c(C(=O)Nc3ccc4c(c3)CNC4)cc(F)cc2n1
     RDKit          3D

 23 26  0  0  0  0  0  0  0  0999 V2000
   -3.5242    6.2039  -17.9587 C   0  0  0  0  0  0  0  0  0  0  0  0
   -4.7858    5.7043  -17.4919 N   0  0  0  0  0  0  0  0  0  0  0  0
   -5.2693    5.6964  -16.2161 C   0  0  0  0  0  0  0  0  0  0  0  0
   -6.5120    5.1235  -16.3137 C   0  0  0  0  0  0  0  0  0  0  0  0
   -7.4349    4.8588  -15.2947 C   0  0  0  0  0  0  0  0  0  0  0  0
   -7.2901    5.2732  -13.8804 C   0  0  0  0  0  0  0  0  0  0  0  0
   -6.9088    6.3566  -13.6613 O   0  0  0  0  0  0  0  0  0  0  0  0
   -7.7472    4.1521  -12.9089 N   0  0  0  0  0  0  0  0  0  0  0  0
   -7.9138    4.1658  -11.5197 C   0  0  0  0  0  0  0  0  0  0  0  0
   -7.6575    5.3164  -10.7567 C   0  0  0  0  0  0  0  0  0  0  0  0
   -7.8508    5.3184   -9.3677 C   0  0  0  0  0  0  0  0  0  0  0  0
   -8.2935    4.1563   -8.7624 C   0  0  0  0  0  0  0  0  0  0  0  0
   -8.5252    3.0068   -9.5091 C   0  0  0  0  0  0  0  0  0  0  0  0
   -8.3493    2.9953  -10.8855 C   0  0  0  0  0  0  0  0  0  0  0  0
   -8.9322    1.9034   -8.5874 C   0  0  0  0  0  0  0  0  0  0  0  0
   -9.2865    2.5704   -7.3101 N   0  0  0  0  0  0  0  0  0  0  0  0
   -8.5804    3.8713   -7.3251 C   0  0  0  0  0  0  0  0  0  0  0  0
   -8.6051    4.2570  -15.8066 C   0  0  0  0  0  0  0  0  0  0  0  0
   -8.7959    3.9640  -17.1891 C   0  0  0  0  0  0  0  0  0  0  0  0
   -9.9572    3.4146  -17.5652 F   0  0  0  0  0  0  0  0  0  0  0  0
   -7.8669    4.2317  -18.1983 C   0  0  0  0  0  0  0  0  0  0  0  0
   -6.7005    4.8258  -17.7179 C   0  0  0  0  0  0  0  0  0  0  0  0
   -5.6246    5.2158  -18.4091 N   0  0  0  0  0  0  0  0  0  0  0  0
  1  2  1  0
  2  3  1  0
  3  4  2  0
  4  5  1  0
  5  6  1  0
  6  7  2  0
  6  8  1  0
  8  9  1  0
  9 10  2  0
 10 11  1  0
 11 12  2  0
 12 13  1  0
 13 14  2  0
 13 15  1  0
 15 16  1  0
 16 17  1  0
  5 18  2  0
 18 19  1  0
 19 20  1  0
 19 21  2  0
 21 22  1  0
 22 23  2  0
 23  2  1  0
 22  4  1  0
 14  9  1  0
 17 12  1  0
M  END
>  <smiles>  (719) 
C99513-P139

>  <fragmenstein_outcome>  (719) 
acceptable

>  <inchikey>  (719) 
QQJGAPZLHQSZPM-UHFFFAOYSA-N

>  <fragmenstein_mode>  (719) 
expansion

>  <HIPPO Pose ID>  (719) 
18089

>  <Energy>  (719) 
40.121222

>  <fragmenstein_error>  (719) 


>  <tags>  (719) 
{'openbind_xx01zvns2b_c1_fragmenstein', 'fragmenstein_placed'}

>  <ref_pdb>  (719) 
1

>  <scratch_subdir>  (719) 
/opt/xchem-fragalysis-2/maxwin/BulkDock/SCRATCH/511027/C99513-P139

>  <alias>  (719) 
Cn1cc2c(C(=O)Nc3ccc4c(c3)CNC4)cc(F)cc2n1

>  <HIPPO Compound ID>  (719) 
99513

>  <fragmenstein_runtime>  (719) 
3.929033

$$$$
CCCn1cc2c(C(=O)Nc3ccc4c(c3)CNC4)cccc2n1
     RDKit          3D

 24 27  0  0  0  0  0  0  0  0999 V2000
   -1.2801    6.3534  -18.4923 C   0  0  0  0  0  0  0  0  0  0  0  0
   -2.5241    5.6531  -17.9725 C   0  0  0  0  0  0  0  0  0  0  0  0
   -3.7231    6.5961  -17.9391 C   0  0  0  0  0  0  0  0  0  0  0  0
   -4.9066    5.9429  -17.4297 N   0  0  0  0  0  0  0  0  0  0  0  0
   -5.3327    5.8875  -16.1349 C   0  0  0  0  0  0  0  0  0  0  0  0
   -6.5326    5.2257  -16.1869 C   0  0  0  0  0  0  0  0  0  0  0  0
   -7.4110    4.9358  -15.1382 C   0  0  0  0  0  0  0  0  0  0  0  0
   -7.2306    5.3426  -13.7241 C   0  0  0  0  0  0  0  0  0  0  0  0
   -6.7777    6.3960  -13.4955 O   0  0  0  0  0  0  0  0  0  0  0  0
   -7.7437    4.2380  -12.7617 N   0  0  0  0  0  0  0  0  0  0  0  0
   -7.8879    4.2408  -11.3731 C   0  0  0  0  0  0  0  0  0  0  0  0
   -7.6080    5.3848  -10.6103 C   0  0  0  0  0  0  0  0  0  0  0  0
   -7.7740    5.3786   -9.2200 C   0  0  0  0  0  0  0  0  0  0  0  0
   -8.2192    4.2172   -8.6145 C   0  0  0  0  0  0  0  0  0  0  0  0
   -8.4928    3.0799   -9.3635 C   0  0  0  0  0  0  0  0  0  0  0  0
   -8.3360    3.0733  -10.7426 C   0  0  0  0  0  0  0  0  0  0  0  0
   -8.9307    1.9814   -8.4522 C   0  0  0  0  0  0  0  0  0  0  0  0
   -9.0885    2.5986   -7.1146 N   0  0  0  0  0  0  0  0  0  0  0  0
   -8.4765    3.9388   -7.1726 C   0  0  0  0  0  0  0  0  0  0  0  0
   -8.5862    4.3044  -15.6107 C   0  0  0  0  0  0  0  0  0  0  0  0
   -8.8257    3.9805  -16.9812 C   0  0  0  0  0  0  0  0  0  0  0  0
   -7.9102    4.2507  -18.0136 C   0  0  0  0  0  0  0  0  0  0  0  0
   -6.7470    4.8990  -17.5799 C   0  0  0  0  0  0  0  0  0  0  0  0
   -5.7102    5.3303  -18.3079 N   0  0  0  0  0  0  0  0  0  0  0  0
  1  2  1  0
  2  3  1  0
  3  4  1  0
  4  5  1  0
  5  6  2  0
  6  7  1  0
  7  8  1  0
  8  9  2  0
  8 10  1  0
 10 11  1  0
 11 12  2  0
 12 13  1  0
 13 14  2  0
 14 15  1  0
 15 16  2  0
 15 17  1  0
 17 18  1  0
 18 19  1  0
  7 20  2  0
 20 21  1  0
 21 22  2  0
 22 23  1  0
 23 24  2  0
 24  4  1  0
 23  6  1  0
 16 11  1  0
 19 14  1  0
M  END
>  <smiles>  (720) 
C102319-P139

>  <fragmenstein_outcome>  (720) 
acceptable

>  <inchikey>  (720) 
MOTHAOWFQFYBJJ-UHFFFAOYSA-N

>  <fragmenstein_mode>  (720) 
expansion

>  <HIPPO Pose ID>  (720) 
18090

>  <Energy>  (720) 
58.044111

>  <fragmenstein_error>  (720) 


>  <tags>  (720) 
{'openbind_xx01zvns2b_c1_fragmenstein', 'fragmenstein_placed'}

>  <ref_pdb>  (720) 
1

>  <scratch_subdir>  (720) 
/opt/xchem-fragalysis-2/maxwin/BulkDock/SCRATCH/511027/C102319-P139

>  <alias>  (720) 
CCCn1cc2c(C(=O)Nc3ccc4c(c3)CNC4)cccc2n1

>  <HIPPO Compound ID>  (720) 
85592

>  <fragmenstein_runtime>  (720) 
3.523799

$$$$
CO[C@@H]1C[C@]2(CCN1)C[C@@H](NC(=O)c1cc(F)cc3nn(C)cc13)CC1=C2CNC1
     RDKit          3D

 30 34  0  0  0  0  0  0  0  0999 V2000
   -9.1023    9.6292  -11.9057 C   0  0  0  0  0  0  0  0  0  0  0  0
   -9.3105    8.6809  -10.8687 O   0  0  0  0  0  0  0  0  0  0  0  0
   -8.1829    7.8504  -10.6593 C   0  0  2  0  0  0  0  0  0  0  0  0
   -8.6678    6.6436   -9.8591 C   0  0  0  0  0  0  0  0  0  0  0  0
   -7.5675    5.5818   -9.7086 C   0  0  2  0  0  0  0  0  0  0  0  0
   -6.4119    6.2884   -8.9631 C   0  0  0  0  0  0  0  0  0  0  0  0
   -6.0237    7.6303   -9.6196 C   0  0  0  0  0  0  0  0  0  0  0  0
   -7.1534    8.5329   -9.8884 N   0  0  0  0  0  0  0  0  0  0  0  0
   -7.0760    5.0810  -11.1046 C   0  0  0  0  0  0  0  0  0  0  0  0
   -8.1933    4.3061  -11.8275 C   0  0  1  0  0  0  0  0  0  0  0  0
   -7.9847    4.2573  -13.2571 N   0  0  0  0  0  0  0  0  0  0  0  0
   -7.6190    5.3733  -14.2532 C   0  0  0  0  0  0  0  0  0  0  0  0
   -7.3523    6.4934  -14.0689 O   0  0  0  0  0  0  0  0  0  0  0  0
   -7.6501    4.9239  -15.6476 C   0  0  0  0  0  0  0  0  0  0  0  0
   -8.8159    4.4435  -16.2707 C   0  0  0  0  0  0  0  0  0  0  0  0
   -8.9035    4.2300  -17.6749 C   0  0  0  0  0  0  0  0  0  0  0  0
  -10.0762    3.7924  -18.1624 F   0  0  0  0  0  0  0  0  0  0  0  0
   -7.8508    4.4589  -18.5815 C   0  0  0  0  0  0  0  0  0  0  0  0
   -6.6720    4.9233  -17.9765 C   0  0  0  0  0  0  0  0  0  0  0  0
   -5.4820    5.2403  -18.5152 N   0  0  0  0  0  0  0  0  0  0  0  0
   -4.7206    5.6350  -17.4807 N   0  0  0  0  0  0  0  0  0  0  0  0
   -3.3585    6.0369  -17.7320 C   0  0  0  0  0  0  0  0  0  0  0  0
   -5.3524    5.6075  -16.2750 C   0  0  0  0  0  0  0  0  0  0  0  0
   -6.6109    5.1423  -16.5525 C   0  0  0  0  0  0  0  0  0  0  0  0
   -8.4246    2.9765  -11.0928 C   0  0  0  0  0  0  0  0  0  0  0  0
   -8.4674    3.2212   -9.6088 C   0  0  0  0  0  0  0  0  0  0  0  0
   -8.1199    4.3627   -8.9937 C   0  0  0  0  0  0  0  0  0  0  0  0
   -8.3402    4.2302   -7.5267 C   0  0  0  0  0  0  0  0  0  0  0  0
   -9.0706    2.9622   -7.3529 N   0  0  0  0  0  0  0  0  0  0  0  0
   -8.8938    2.2033   -8.6118 C   0  0  0  0  0  0  0  0  0  0  0  0
  1  2  1  0
  3  2  1  1
  3  4  1  0
  5  4  1  6
  5  6  1  0
  6  7  1  0
  7  8  1  0
  5  9  1  0
  9 10  1  0
 10 11  1  6
 11 12  1  0
 12 13  2  0
 12 14  1  0
 14 15  2  0
 15 16  1  0
 16 17  1  0
 16 18  2  0
 18 19  1  0
 19 20  2  0
 20 21  1  0
 21 22  1  0
 21 23  1  0
 23 24  2  0
 10 25  1  0
 25 26  1  0
 26 27  2  0
 27 28  1  0
 28 29  1  0
 29 30  1  0
  8  3  1  0
 24 14  1  0
 30 26  1  0
 27  5  1  0
 24 19  1  0
M  END
>  <smiles>  (721) 
C102347-P278

>  <fragmenstein_outcome>  (721) 
acceptable

>  <inchikey>  (721) 
HWEHHFPTYJERRQ-UHFFFAOYSA-N

>  <fragmenstein_mode>  (721) 
expansion

>  <HIPPO Pose ID>  (721) 
18097

>  <Energy>  (721) 
7.585464

>  <fragmenstein_error>  (721) 


>  <tags>  (721) 
{'openbind_xx01zvns2b_c1_fragmenstein', 'fragmenstein_placed'}

>  <ref_pdb>  (721) 
1

>  <scratch_subdir>  (721) 
/opt/xchem-fragalysis-2/maxwin/BulkDock/SCRATCH/511027/C102347-P278

>  <alias>  (721) 
CO[C@@H]1C[C@]2(CCN1)C[C@@H](NC(=O)c1cc(F)cc3nn(C)cc13)CC1=C2CNC1

>  <HIPPO Compound ID>  (721) 
88542

>  <fragmenstein_runtime>  (721) 
15.873487

$$$$
Cc1cc(NC(=O)c2cccc3nn(C)cc23)cc2c1CNC2
     RDKit          3D

 23 26  0  0  0  0  0  0  0  0999 V2000
   -7.8225    6.4256   -8.5361 C   0  0  0  0  0  0  0  0  0  0  0  0
   -8.0553    5.2024   -9.3504 C   0  0  0  0  0  0  0  0  0  0  0  0
   -7.9394    5.2369  -10.7482 C   0  0  0  0  0  0  0  0  0  0  0  0
   -8.1636    4.0908  -11.5248 C   0  0  0  0  0  0  0  0  0  0  0  0
   -8.0642    4.1452  -12.9158 N   0  0  0  0  0  0  0  0  0  0  0  0
   -7.5632    5.2771  -13.8438 C   0  0  0  0  0  0  0  0  0  0  0  0
   -7.2280    6.3683  -13.5944 O   0  0  0  0  0  0  0  0  0  0  0  0
   -7.5575    4.8575  -15.2577 C   0  0  0  0  0  0  0  0  0  0  0  0
   -8.6713    4.2933  -15.9149 C   0  0  0  0  0  0  0  0  0  0  0  0
   -8.7104    4.0366  -17.3212 C   0  0  0  0  0  0  0  0  0  0  0  0
   -7.6327    4.3112  -18.1935 C   0  0  0  0  0  0  0  0  0  0  0  0
   -6.4965    4.8385  -17.5546 C   0  0  0  0  0  0  0  0  0  0  0  0
   -5.2999    5.1848  -18.0622 N   0  0  0  0  0  0  0  0  0  0  0  0
   -4.5726    5.5674  -16.9948 N   0  0  0  0  0  0  0  0  0  0  0  0
   -3.1801    5.8933  -17.1765 C   0  0  0  0  0  0  0  0  0  0  0  0
   -5.2570    5.5768  -15.8187 C   0  0  0  0  0  0  0  0  0  0  0  0
   -6.4990    5.0942  -16.1343 C   0  0  0  0  0  0  0  0  0  0  0  0
   -8.5006    2.8853  -10.9051 C   0  0  0  0  0  0  0  0  0  0  0  0
   -8.6406    2.8654   -9.5255 C   0  0  0  0  0  0  0  0  0  0  0  0
   -8.4406    4.0097   -8.7615 C   0  0  0  0  0  0  0  0  0  0  0  0
   -8.6951    3.6836   -7.3249 C   0  0  0  0  0  0  0  0  0  0  0  0
   -9.3832    2.3752   -7.3333 N   0  0  0  0  0  0  0  0  0  0  0  0
   -8.9815    1.7346   -8.6113 C   0  0  0  0  0  0  0  0  0  0  0  0
  1  2  1  0
  2  3  2  0
  3  4  1  0
  4  5  1  0
  5  6  1  0
  6  7  2  0
  6  8  1  0
  8  9  2  0
  9 10  1  0
 10 11  2  0
 11 12  1  0
 12 13  2  0
 13 14  1  0
 14 15  1  0
 14 16  1  0
 16 17  2  0
  4 18  2  0
 18 19  1  0
 19 20  2  0
 20 21  1  0
 21 22  1  0
 22 23  1  0
 20  2  1  0
 17  8  1  0
 23 19  1  0
 17 12  1  0
M  END
>  <smiles>  (722) 
C102356-P139

>  <fragmenstein_outcome>  (722) 
acceptable

>  <inchikey>  (722) 
VJCWAZSJYVQZMR-UHFFFAOYSA-N

>  <fragmenstein_mode>  (722) 
expansion

>  <HIPPO Pose ID>  (722) 
18101

>  <Energy>  (722) 
62.203702

>  <fragmenstein_error>  (722) 


>  <tags>  (722) 
{'openbind_xx01zvns2b_c1_fragmenstein', 'fragmenstein_placed'}

>  <ref_pdb>  (722) 
1

>  <scratch_subdir>  (722) 
/opt/xchem-fragalysis-2/maxwin/BulkDock/SCRATCH/511027/C102356-P139

>  <alias>  (722) 
Cc1cc(NC(=O)c2cccc3nn(C)cc23)cc2c1CNC2

>  <HIPPO Compound ID>  (722) 
87123

>  <fragmenstein_runtime>  (722) 
5.376397

$$$$
NC=Cn1cc2c(C(=O)Nc3ccc4c(c3)CNC4)cc(Cl)cc2n1
     RDKit          3D

 25 28  0  0  0  0  0  0  0  0999 V2000
   -3.1256    5.1516  -20.1285 N   0  0  0  0  0  0  0  0  0  0  0  0
   -2.5001    5.2938  -18.9031 C   0  0  0  0  0  0  0  0  0  0  0  0
   -3.0421    5.3124  -17.6740 C   0  0  0  0  0  0  0  0  0  0  0  0
   -4.4031    5.2099  -17.3708 N   0  0  0  0  0  0  0  0  0  0  0  0
   -4.9351    5.2958  -16.0892 C   0  0  0  0  0  0  0  0  0  0  0  0
   -6.2661    5.0024  -16.1975 C   0  0  0  0  0  0  0  0  0  0  0  0
   -7.2114    4.8779  -15.1781 C   0  0  0  0  0  0  0  0  0  0  0  0
   -7.0169    5.2153  -13.7583 C   0  0  0  0  0  0  0  0  0  0  0  0
   -6.5106    6.2308  -13.4814 O   0  0  0  0  0  0  0  0  0  0  0  0
   -7.6490    4.1295  -12.8534 N   0  0  0  0  0  0  0  0  0  0  0  0
   -7.8664    4.1125  -11.4781 C   0  0  0  0  0  0  0  0  0  0  0  0
   -7.6630    5.2548  -10.6888 C   0  0  0  0  0  0  0  0  0  0  0  0
   -7.9424    5.2350   -9.3172 C   0  0  0  0  0  0  0  0  0  0  0  0
   -8.4148    4.0605   -8.7610 C   0  0  0  0  0  0  0  0  0  0  0  0
   -8.5975    2.9223   -9.5387 C   0  0  0  0  0  0  0  0  0  0  0  0
   -8.3376    2.9302  -10.8983 C   0  0  0  0  0  0  0  0  0  0  0  0
   -9.0439    1.7996   -8.6622 C   0  0  0  0  0  0  0  0  0  0  0  0
   -9.4827    2.4455   -7.3985 N   0  0  0  0  0  0  0  0  0  0  0  0
   -8.7758    3.7442   -7.3478 C   0  0  0  0  0  0  0  0  0  0  0  0
   -8.4861    4.5387  -15.6769 C   0  0  0  0  0  0  0  0  0  0  0  0
   -8.7417    4.3412  -17.0609 C   0  0  0  0  0  0  0  0  0  0  0  0
  -10.3667    4.1359  -17.5512 Cl  0  0  0  0  0  0  0  0  0  0  0  0
   -7.7734    4.4257  -18.0688 C   0  0  0  0  0  0  0  0  0  0  0  0
   -6.5109    4.7915  -17.5958 C   0  0  0  0  0  0  0  0  0  0  0  0
   -5.3934    5.0269  -18.2880 N   0  0  0  0  0  0  0  0  0  0  0  0
  1  2  1  0
  2  3  2  3
  3  4  1  0
  4  5  1  0
  5  6  2  0
  6  7  1  0
  7  8  1  0
  8  9  2  0
  8 10  1  0
 10 11  1  0
 11 12  2  0
 12 13  1  0
 13 14  2  0
 14 15  1  0
 15 16  2  0
 15 17  1  0
 17 18  1  0
 18 19  1  0
  7 20  2  0
 20 21  1  0
 21 22  1  0
 21 23  2  0
 23 24  1  0
 24 25  2  0
 25  4  1  0
 24  6  1  0
 16 11  1  0
 19 14  1  0
M  END
>  <smiles>  (723) 
C102370-P140

>  <fragmenstein_outcome>  (723) 
acceptable

>  <inchikey>  (723) 
APSOJNXXNVBXGS-UHFFFAOYSA-N

>  <fragmenstein_mode>  (723) 
expansion

>  <HIPPO Pose ID>  (723) 
18104

>  <Energy>  (723) 
45.180909

>  <fragmenstein_error>  (723) 


>  <tags>  (723) 
{'openbind_xx01zvns2b_c1_fragmenstein', 'fragmenstein_placed'}

>  <ref_pdb>  (723) 
1

>  <scratch_subdir>  (723) 
/opt/xchem-fragalysis-2/maxwin/BulkDock/SCRATCH/511027/C102370-P140

>  <alias>  (723) 
NC=Cn1cc2c(C(=O)Nc3ccc4c(c3)CNC4)cc(Cl)cc2n1

>  <HIPPO Compound ID>  (723) 
94474

>  <fragmenstein_runtime>  (723) 
2.774626

$$$$
Cn1cc2c(C(=O)Nc3ccc4c(c3)CNC4)cccc2[n+]1[O-]
     RDKit          3D

 23 26  0  0  0  0  0  0  0  0999 V2000
   -3.6191    5.8821  -17.6082 C   0  0  0  0  0  0  0  0  0  0  0  0
   -4.9439    5.4926  -17.2065 N   0  0  0  0  0  0  0  0  0  0  0  0
   -5.4900    5.5435  -15.9439 C   0  0  0  0  0  0  0  0  0  0  0  0
   -6.7849    5.0494  -16.1154 C   0  0  0  0  0  0  0  0  0  0  0  0
   -7.7417    4.8816  -15.1147 C   0  0  0  0  0  0  0  0  0  0  0  0
   -7.6040    5.3024  -13.7107 C   0  0  0  0  0  0  0  0  0  0  0  0
   -7.2266    6.3810  -13.4716 O   0  0  0  0  0  0  0  0  0  0  0  0
   -8.1117    4.1870  -12.7690 N   0  0  0  0  0  0  0  0  0  0  0  0
   -8.1697    4.1340  -11.3804 C   0  0  0  0  0  0  0  0  0  0  0  0
   -7.9386    5.2744  -10.5954 C   0  0  0  0  0  0  0  0  0  0  0  0
   -8.1027    5.2293   -9.2072 C   0  0  0  0  0  0  0  0  0  0  0  0
   -8.5012    4.0354   -8.6358 C   0  0  0  0  0  0  0  0  0  0  0  0
   -8.6946    2.8967   -9.4115 C   0  0  0  0  0  0  0  0  0  0  0  0
   -8.5296    2.9234  -10.7835 C   0  0  0  0  0  0  0  0  0  0  0  0
   -9.0693    1.7594   -8.5222 C   0  0  0  0  0  0  0  0  0  0  0  0
   -9.4892    2.3959   -7.2473 N   0  0  0  0  0  0  0  0  0  0  0  0
   -8.7946    3.7024   -7.2110 C   0  0  0  0  0  0  0  0  0  0  0  0
   -8.9550    4.3545  -15.6262 C   0  0  0  0  0  0  0  0  0  0  0  0
   -9.1936    4.0399  -17.0058 C   0  0  0  0  0  0  0  0  0  0  0  0
   -8.2366    4.1842  -18.0219 C   0  0  0  0  0  0  0  0  0  0  0  0
   -7.0463    4.6907  -17.5231 C   0  0  0  0  0  0  0  0  0  0  0  0
   -5.9061    4.9607  -18.1743 N   0  0  0  0  0  0  0  0  0  0  0  0
   -5.5774    4.8275  -19.3675 O   0  0  0  0  0  0  0  0  0  0  0  0
  1  2  1  0
  2  3  1  0
  3  4  2  0
  4  5  1  0
  5  6  1  0
  6  7  2  0
  6  8  1  0
  8  9  1  0
  9 10  2  0
 10 11  1  0
 11 12  2  0
 12 13  1  0
 13 14  2  0
 13 15  1  0
 15 16  1  0
 16 17  1  0
  5 18  2  0
 18 19  1  0
 19 20  2  0
 20 21  1  0
 21 22  2  0
 22 23  1  0
 22  2  1  0
 21  4  1  0
 14  9  1  0
 17 12  1  0
M  CHG  2  22   1  23  -1
M  END
>  <smiles>  (724) 
C102323-P140

>  <fragmenstein_outcome>  (724) 
acceptable

>  <inchikey>  (724) 
BDZBXBYGFADLFE-UHFFFAOYSA-N

>  <fragmenstein_mode>  (724) 
expansion

>  <HIPPO Pose ID>  (724) 
18105

>  <Energy>  (724) 
82.524532

>  <fragmenstein_error>  (724) 


>  <tags>  (724) 
{'openbind_xx01zvns2b_c1_fragmenstein', 'fragmenstein_placed'}

>  <ref_pdb>  (724) 
1

>  <scratch_subdir>  (724) 
/opt/xchem-fragalysis-2/maxwin/BulkDock/SCRATCH/511027/C102323-P140

>  <alias>  (724) 
Cn1cc2c(C(=O)Nc3ccc4c(c3)CNC4)cccc2[n+]1[O-]

>  <HIPPO Compound ID>  (724) 
96807

>  <fragmenstein_runtime>  (724) 
3.821762

$$$$
CNCc1c2cccc(C(=O)Nc3ccc4c(c3)CNC4)c2cn1C
     RDKit          3D

 25 28  0  0  0  0  0  0  0  0999 V2000
   -4.9097    6.8815  -21.2993 C   0  0  0  0  0  0  0  0  0  0  0  0
   -5.3731    6.6494  -19.9423 N   0  0  0  0  0  0  0  0  0  0  0  0
   -5.3038    5.2321  -19.5733 C   0  0  0  0  0  0  0  0  0  0  0  0
   -5.6772    5.1369  -18.1333 C   0  0  0  0  0  0  0  0  0  0  0  0
   -6.8428    4.7577  -17.5023 C   0  0  0  0  0  0  0  0  0  0  0  0
   -7.9932    4.2508  -18.1010 C   0  0  0  0  0  0  0  0  0  0  0  0
   -9.0127    4.0288  -17.1502 C   0  0  0  0  0  0  0  0  0  0  0  0
   -8.8773    4.3060  -15.7496 C   0  0  0  0  0  0  0  0  0  0  0  0
   -7.7036    4.8350  -15.1627 C   0  0  0  0  0  0  0  0  0  0  0  0
   -7.6398    5.2702  -13.7596 C   0  0  0  0  0  0  0  0  0  0  0  0
   -7.3583    6.3797  -13.5284 O   0  0  0  0  0  0  0  0  0  0  0  0
   -8.0773    4.1298  -12.8131 N   0  0  0  0  0  0  0  0  0  0  0  0
   -8.1653    4.0909  -11.4251 C   0  0  0  0  0  0  0  0  0  0  0  0
   -7.9302    5.2369  -10.6476 C   0  0  0  0  0  0  0  0  0  0  0  0
   -8.0993    5.2074   -9.2595 C   0  0  0  0  0  0  0  0  0  0  0  0
   -8.5034    4.0210   -8.6779 C   0  0  0  0  0  0  0  0  0  0  0  0
   -8.7013    2.8766   -9.4441 C   0  0  0  0  0  0  0  0  0  0  0  0
   -8.5352    2.8896  -10.8172 C   0  0  0  0  0  0  0  0  0  0  0  0
   -9.0744    1.7479   -8.5431 C   0  0  0  0  0  0  0  0  0  0  0  0
   -9.4897    2.3954   -7.2721 N   0  0  0  0  0  0  0  0  0  0  0  0
   -8.7942    3.7015   -7.2495 C   0  0  0  0  0  0  0  0  0  0  0  0
   -6.7015    5.0311  -16.1092 C   0  0  0  0  0  0  0  0  0  0  0  0
   -5.4272    5.4915  -15.9011 C   0  0  0  0  0  0  0  0  0  0  0  0
   -4.8003    5.5004  -17.1250 N   0  0  0  0  0  0  0  0  0  0  0  0
   -3.4182    5.8570  -17.3318 C   0  0  0  0  0  0  0  0  0  0  0  0
  1  2  1  0
  2  3  1  0
  3  4  1  0
  4  5  2  0
  5  6  1  0
  6  7  2  0
  7  8  1  0
  8  9  2  0
  9 10  1  0
 10 11  2  0
 10 12  1  0
 12 13  1  0
 13 14  2  0
 14 15  1  0
 15 16  2  0
 16 17  1  0
 17 18  2  0
 17 19  1  0
 19 20  1  0
 20 21  1  0
  9 22  1  0
 22 23  2  0
 23 24  1  0
 24 25  1  0
 24  4  1  0
 22  5  1  0
 18 13  1  0
 21 16  1  0
M  END
>  <smiles>  (725) 
C102367-P140

>  <fragmenstein_outcome>  (725) 
acceptable

>  <inchikey>  (725) 
KIPQBGOFRFPYSC-UHFFFAOYSA-N

>  <fragmenstein_mode>  (725) 
expansion

>  <HIPPO Pose ID>  (725) 
18106

>  <Energy>  (725) 
54.468568

>  <fragmenstein_error>  (725) 


>  <tags>  (725) 
{'openbind_xx01zvns2b_c1_fragmenstein', 'fragmenstein_placed'}

>  <ref_pdb>  (725) 
1

>  <scratch_subdir>  (725) 
/opt/xchem-fragalysis-2/maxwin/BulkDock/SCRATCH/511027/C102367-P140

>  <alias>  (725) 
CNCc1c2cccc(C(=O)Nc3ccc4c(c3)CNC4)c2cn1C

>  <HIPPO Compound ID>  (725) 
102367

>  <fragmenstein_runtime>  (725) 
4.629128

$$$$
CNCc1c2cc(Cl)cc(C(=O)Nc3ccc4c(c3)CNC4)c2cn1C
     RDKit          3D

 26 29  0  0  0  0  0  0  0  0999 V2000
   -2.5768    4.3831  -19.6013 C   0  0  0  0  0  0  0  0  0  0  0  0
   -3.5222    5.4099  -19.9857 N   0  0  0  0  0  0  0  0  0  0  0  0
   -4.9055    5.2305  -19.5372 C   0  0  0  0  0  0  0  0  0  0  0  0
   -5.2017    5.2972  -18.0612 C   0  0  0  0  0  0  0  0  0  0  0  0
   -6.3859    4.9465  -17.4210 C   0  0  0  0  0  0  0  0  0  0  0  0
   -7.5530    4.4840  -18.0214 C   0  0  0  0  0  0  0  0  0  0  0  0
   -8.5787    4.3411  -17.0592 C   0  0  0  0  0  0  0  0  0  0  0  0
  -10.1676    4.0512  -17.6186 Cl  0  0  0  0  0  0  0  0  0  0  0  0
   -8.4418    4.5528  -15.6518 C   0  0  0  0  0  0  0  0  0  0  0  0
   -7.2443    4.9974  -15.0666 C   0  0  0  0  0  0  0  0  0  0  0  0
   -7.1538    5.3712  -13.6465 C   0  0  0  0  0  0  0  0  0  0  0  0
   -6.7370    6.4239  -13.3606 O   0  0  0  0  0  0  0  0  0  0  0  0
   -7.7072    4.2362  -12.7542 N   0  0  0  0  0  0  0  0  0  0  0  0
   -7.9425    4.1976  -11.3841 C   0  0  0  0  0  0  0  0  0  0  0  0
   -7.7550    5.3349  -10.5840 C   0  0  0  0  0  0  0  0  0  0  0  0
   -7.9927    5.2870   -9.2076 C   0  0  0  0  0  0  0  0  0  0  0  0
   -8.4051    4.0885   -8.6559 C   0  0  0  0  0  0  0  0  0  0  0  0
   -8.5948    2.9641   -9.4473 C   0  0  0  0  0  0  0  0  0  0  0  0
   -8.3774    2.9987  -10.8148 C   0  0  0  0  0  0  0  0  0  0  0  0
   -9.0365    1.8238   -8.5981 C   0  0  0  0  0  0  0  0  0  0  0  0
   -9.0157    2.3119   -7.1933 N   0  0  0  0  0  0  0  0  0  0  0  0
   -8.7252    3.7606   -7.2397 C   0  0  0  0  0  0  0  0  0  0  0  0
   -6.2532    5.1942  -16.0240 C   0  0  0  0  0  0  0  0  0  0  0  0
   -4.9919    5.6712  -15.8180 C   0  0  0  0  0  0  0  0  0  0  0  0
   -4.3777    5.7794  -17.0498 N   0  0  0  0  0  0  0  0  0  0  0  0
   -3.0878    6.4129  -17.1706 C   0  0  0  0  0  0  0  0  0  0  0  0
  1  2  1  0
  2  3  1  0
  3  4  1  0
  4  5  2  0
  5  6  1  0
  6  7  2  0
  7  8  1  0
  7  9  1  0
  9 10  2  0
 10 11  1  0
 11 12  2  0
 11 13  1  0
 13 14  1  0
 14 15  2  0
 15 16  1  0
 16 17  2  0
 17 18  1  0
 18 19  2  0
 18 20  1  0
 20 21  1  0
 21 22  1  0
 10 23  1  0
 23 24  2  0
 24 25  1  0
 25 26  1  0
 25  4  1  0
 23  5  1  0
 19 14  1  0
 22 17  1  0
M  END
>  <smiles>  (726) 
C102373-P140

>  <fragmenstein_outcome>  (726) 
acceptable

>  <inchikey>  (726) 
OCYNPZIVTGLJBR-UHFFFAOYSA-O

>  <fragmenstein_mode>  (726) 
expansion

>  <HIPPO Pose ID>  (726) 
18112

>  <Energy>  (726) 
53.596701

>  <fragmenstein_error>  (726) 


>  <tags>  (726) 
{'openbind_xx01zvns2b_c1_fragmenstein', 'fragmenstein_placed'}

>  <ref_pdb>  (726) 
1

>  <scratch_subdir>  (726) 
/opt/xchem-fragalysis-2/maxwin/BulkDock/SCRATCH/511027/C102373-P140

>  <alias>  (726) 
CNCc1c2cc(Cl)cc(C(=O)Nc3ccc4c(c3)CNC4)c2cn1C

>  <HIPPO Compound ID>  (726) 
70536

>  <fragmenstein_runtime>  (726) 
7.967894

$$$$
CN(Cc1c2cccc(C(=O)Nc3ccc4c(c3)CNC4)c2cn1C)C1CCOCC1
     RDKit          3D

 31 35  0  0  0  0  0  0  0  0999 V2000
   -2.7919    4.8303  -19.4737 C   0  0  0  0  0  0  0  0  0  0  0  0
   -3.6686    5.9753  -19.7457 N   0  0  0  0  0  0  0  0  0  0  0  0
   -5.0886    5.5798  -19.5689 C   0  0  0  0  0  0  0  0  0  0  0  0
   -5.5200    5.5393  -18.1234 C   0  0  0  0  0  0  0  0  0  0  0  0
   -6.6454    4.9554  -17.5568 C   0  0  0  0  0  0  0  0  0  0  0  0
   -7.6618    4.2632  -18.2139 C   0  0  0  0  0  0  0  0  0  0  0  0
   -8.7121    3.9148  -17.3292 C   0  0  0  0  0  0  0  0  0  0  0  0
   -8.7210    4.2158  -15.9255 C   0  0  0  0  0  0  0  0  0  0  0  0
   -7.6703    4.8967  -15.2714 C   0  0  0  0  0  0  0  0  0  0  0  0
   -7.7302    5.3451  -13.8668 C   0  0  0  0  0  0  0  0  0  0  0  0
   -7.5672    6.4788  -13.6372 O   0  0  0  0  0  0  0  0  0  0  0  0
   -8.0676    4.1696  -12.9210 N   0  0  0  0  0  0  0  0  0  0  0  0
   -8.1775    4.1279  -11.5324 C   0  0  0  0  0  0  0  0  0  0  0  0
   -7.9845    5.2825  -10.7546 C   0  0  0  0  0  0  0  0  0  0  0  0
   -8.1424    5.2481   -9.3651 C   0  0  0  0  0  0  0  0  0  0  0  0
   -8.5037    4.0499   -8.7803 C   0  0  0  0  0  0  0  0  0  0  0  0
   -8.6720    2.8995   -9.5451 C   0  0  0  0  0  0  0  0  0  0  0  0
   -8.5039    2.9155  -10.9197 C   0  0  0  0  0  0  0  0  0  0  0  0
   -9.0252    1.7648   -8.6414 C   0  0  0  0  0  0  0  0  0  0  0  0
   -9.4430    2.4051   -7.3666 N   0  0  0  0  0  0  0  0  0  0  0  0
   -8.7742    3.7243   -7.3495 C   0  0  0  0  0  0  0  0  0  0  0  0
   -6.6547    5.2435  -16.1623 C   0  0  0  0  0  0  0  0  0  0  0  0
   -5.5187    5.9475  -15.8816 C   0  0  0  0  0  0  0  0  0  0  0  0
   -4.8801    6.1977  -17.0759 N   0  0  0  0  0  0  0  0  0  0  0  0
   -3.7739    7.1311  -17.1474 C   0  0  0  0  0  0  0  0  0  0  0  0
   -3.4058    6.6396  -21.0424 C   0  0  0  0  0  0  0  0  0  0  0  0
   -1.8953    6.8609  -21.3043 C   0  0  0  0  0  0  0  0  0  0  0  0
   -1.6285    7.9321  -22.3581 C   0  0  0  0  0  0  0  0  0  0  0  0
   -2.7384    8.0474  -23.2374 O   0  0  0  0  0  0  0  0  0  0  0  0
   -3.8891    8.5763  -22.5770 C   0  0  0  0  0  0  0  0  0  0  0  0
   -4.0856    8.0141  -21.1671 C   0  0  0  0  0  0  0  0  0  0  0  0
  1  2  1  0
  2  3  1  0
  3  4  1  0
  4  5  2  0
  5  6  1  0
  6  7  2  0
  7  8  1  0
  8  9  2  0
  9 10  1  0
 10 11  2  0
 10 12  1  0
 12 13  1  0
 13 14  2  0
 14 15  1  0
 15 16  2  0
 16 17  1  0
 17 18  2  0
 17 19  1  0
 19 20  1  0
 20 21  1  0
  9 22  1  0
 22 23  2  0
 23 24  1  0
 24 25  1  0
  2 26  1  0
 26 27  1  0
 27 28  1  0
 28 29  1  0
 29 30  1  0
 30 31  1  0
 24  4  1  0
 31 26  1  0
 22  5  1  0
 18 13  1  0
 21 16  1  0
M  END
>  <smiles>  (727) 
C102381-P140

>  <fragmenstein_outcome>  (727) 
acceptable

>  <inchikey>  (727) 
IZOYRFRXAYTNDZ-UHFFFAOYSA-N

>  <fragmenstein_mode>  (727) 
expansion

>  <HIPPO Pose ID>  (727) 
18113

>  <Energy>  (727) 
78.884574

>  <fragmenstein_error>  (727) 


>  <tags>  (727) 
{'openbind_xx01zvns2b_c1_fragmenstein', 'fragmenstein_placed'}

>  <ref_pdb>  (727) 
1

>  <scratch_subdir>  (727) 
/opt/xchem-fragalysis-2/maxwin/BulkDock/SCRATCH/511027/C102381-P140

>  <alias>  (727) 
CN(Cc1c2cccc(C(=O)Nc3ccc4c(c3)CNC4)c2cn1C)C1CCOCC1

>  <HIPPO Compound ID>  (727) 
103054

>  <fragmenstein_runtime>  (727) 
11.998388

$$$$
CNCn1cc2c(C(=O)Nc3ccc4c(c3)CNC4)cc(Br)cc2n1
     RDKit          3D

 25 28  0  0  0  0  0  0  0  0999 V2000
   -1.9903    5.4769  -16.2324 C   0  0  0  0  0  0  0  0  0  0  0  0
   -2.2954    5.0447  -17.5863 N   0  0  0  0  0  0  0  0  0  0  0  0
   -3.4010    5.7998  -18.1720 C   0  0  0  0  0  0  0  0  0  0  0  0
   -4.6792    5.3791  -17.6072 N   0  0  0  0  0  0  0  0  0  0  0  0
   -5.1454    5.5151  -16.3242 C   0  0  0  0  0  0  0  0  0  0  0  0
   -6.4222    5.0253  -16.3515 C   0  0  0  0  0  0  0  0  0  0  0  0
   -7.3267    4.9050  -15.2969 C   0  0  0  0  0  0  0  0  0  0  0  0
   -7.1123    5.2777  -13.8871 C   0  0  0  0  0  0  0  0  0  0  0  0
   -6.6400    6.3149  -13.6287 O   0  0  0  0  0  0  0  0  0  0  0  0
   -7.6864    4.1753  -12.9589 N   0  0  0  0  0  0  0  0  0  0  0  0
   -7.8773    4.1635  -11.5781 C   0  0  0  0  0  0  0  0  0  0  0  0
   -7.6789    5.3093  -10.7942 C   0  0  0  0  0  0  0  0  0  0  0  0
   -7.9373    5.2870   -9.4175 C   0  0  0  0  0  0  0  0  0  0  0  0
   -8.3875    4.1080   -8.8510 C   0  0  0  0  0  0  0  0  0  0  0  0
   -8.5670    2.9657   -9.6226 C   0  0  0  0  0  0  0  0  0  0  0  0
   -8.3227    2.9752  -10.9857 C   0  0  0  0  0  0  0  0  0  0  0  0
   -8.9994    1.8419   -8.7389 C   0  0  0  0  0  0  0  0  0  0  0  0
   -9.4235    2.4875   -7.4696 N   0  0  0  0  0  0  0  0  0  0  0  0
   -8.7277    3.7924   -7.4324 C   0  0  0  0  0  0  0  0  0  0  0  0
   -8.6045    4.5287  -15.7527 C   0  0  0  0  0  0  0  0  0  0  0  0
   -8.8874    4.2855  -17.1246 C   0  0  0  0  0  0  0  0  0  0  0  0
  -10.6814    4.2494  -17.6511 Br  0  0  0  0  0  0  0  0  0  0  0  0
   -7.9453    4.2774  -18.1561 C   0  0  0  0  0  0  0  0  0  0  0  0
   -6.6920    4.7062  -17.7320 C   0  0  0  0  0  0  0  0  0  0  0  0
   -5.6048    4.9354  -18.4703 N   0  0  0  0  0  0  0  0  0  0  0  0
  1  2  1  0
  2  3  1  0
  3  4  1  0
  4  5  1  0
  5  6  2  0
  6  7  1  0
  7  8  1  0
  8  9  2  0
  8 10  1  0
 10 11  1  0
 11 12  2  0
 12 13  1  0
 13 14  2  0
 14 15  1  0
 15 16  2  0
 15 17  1  0
 17 18  1  0
 18 19  1  0
  7 20  2  0
 20 21  1  0
 21 22  1  0
 21 23  2  0
 23 24  1  0
 24 25  2  0
 25  4  1  0
 24  6  1  0
 16 11  1  0
 19 14  1  0
M  END
>  <smiles>  (728) 
C102382-P140

>  <fragmenstein_outcome>  (728) 
acceptable

>  <inchikey>  (728) 
DRGKXRKFXQVDBM-UHFFFAOYSA-N

>  <fragmenstein_mode>  (728) 
expansion

>  <HIPPO Pose ID>  (728) 
18114

>  <Energy>  (728) 
83.603043

>  <fragmenstein_error>  (728) 


>  <tags>  (728) 
{'openbind_xx01zvns2b_c1_fragmenstein', 'fragmenstein_placed'}

>  <ref_pdb>  (728) 
1

>  <scratch_subdir>  (728) 
/opt/xchem-fragalysis-2/maxwin/BulkDock/SCRATCH/511027/C102382-P140

>  <alias>  (728) 
CNCn1cc2c(C(=O)Nc3ccc4c(c3)CNC4)cc(Br)cc2n1

>  <HIPPO Compound ID>  (728) 
90201

>  <fragmenstein_runtime>  (728) 
3.473223

$$$$
CCNCCn1cc2c(C(=O)Nc3ccc4c(c3)CNC4)ccc(NC=O)c2n1
     RDKit          3D

 29 32  0  0  0  0  0  0  0  0999 V2000
    0.2366    5.7592  -14.3806 C   0  0  0  0  0  0  0  0  0  0  0  0
   -1.2015    5.4020  -14.0338 C   0  0  0  0  0  0  0  0  0  0  0  0
   -1.9672    4.9178  -15.1825 N   0  0  0  0  0  0  0  0  0  0  0  0
   -2.2036    5.9495  -16.1993 C   0  0  0  0  0  0  0  0  0  0  0  0
   -3.2586    5.5709  -17.2475 C   0  0  0  0  0  0  0  0  0  0  0  0
   -4.6193    5.4867  -16.7540 N   0  0  0  0  0  0  0  0  0  0  0  0
   -5.0521    5.5834  -15.4625 C   0  0  0  0  0  0  0  0  0  0  0  0
   -6.3304    5.1146  -15.4849 C   0  0  0  0  0  0  0  0  0  0  0  0
   -7.1814    4.9146  -14.4016 C   0  0  0  0  0  0  0  0  0  0  0  0
   -6.9373    5.2496  -12.9934 C   0  0  0  0  0  0  0  0  0  0  0  0
   -6.3975    6.2416  -12.7006 O   0  0  0  0  0  0  0  0  0  0  0  0
   -7.5873    4.1643  -12.1074 N   0  0  0  0  0  0  0  0  0  0  0  0
   -7.7842    4.1210  -10.7427 C   0  0  0  0  0  0  0  0  0  0  0  0
   -7.5576    5.2410   -9.9346 C   0  0  0  0  0  0  0  0  0  0  0  0
   -7.8867    5.2030   -8.5797 C   0  0  0  0  0  0  0  0  0  0  0  0
   -8.4260    4.0352   -8.0702 C   0  0  0  0  0  0  0  0  0  0  0  0
   -8.6409    2.9285   -8.8790 C   0  0  0  0  0  0  0  0  0  0  0  0
   -8.3322    2.9497  -10.2214 C   0  0  0  0  0  0  0  0  0  0  0  0
   -9.1677    1.8026   -8.0659 C   0  0  0  0  0  0  0  0  0  0  0  0
   -9.4300    2.3557   -6.7133 N   0  0  0  0  0  0  0  0  0  0  0  0
   -8.8318    3.7072   -6.6759 C   0  0  0  0  0  0  0  0  0  0  0  0
   -8.4665    4.4803  -14.7884 C   0  0  0  0  0  0  0  0  0  0  0  0
   -8.8451    4.2999  -16.1245 C   0  0  0  0  0  0  0  0  0  0  0  0
   -7.9810    4.5713  -17.1979 C   0  0  0  0  0  0  0  0  0  0  0  0
   -8.5185    4.7120  -18.4415 N   0  0  0  0  0  0  0  0  0  0  0  0
   -9.9740    4.7162  -18.8974 C   0  0  0  0  0  0  0  0  0  0  0  0
  -10.9564    4.6772  -18.2806 O   0  0  0  0  0  0  0  0  0  0  0  0
   -6.6683    4.9325  -16.8717 C   0  0  0  0  0  0  0  0  0  0  0  0
   -5.6117    5.2542  -17.6416 N   0  0  0  0  0  0  0  0  0  0  0  0
  1  2  1  0
  2  3  1  0
  3  4  1  0
  4  5  1  0
  5  6  1  0
  6  7  1  0
  7  8  2  0
  8  9  1  0
  9 10  1  0
 10 11  2  0
 10 12  1  0
 12 13  1  0
 13 14  2  0
 14 15  1  0
 15 16  2  0
 16 17  1  0
 17 18  2  0
 17 19  1  0
 19 20  1  0
 20 21  1  0
  9 22  2  0
 22 23  1  0
 23 24  2  0
 24 25  1  0
 25 26  1  0
 26 27  2  0
 24 28  1  0
 28 29  2  0
 29  6  1  0
 28  8  1  0
 18 13  1  0
 21 16  1  0
M  END
>  <smiles>  (729) 
C102383-P140

>  <fragmenstein_outcome>  (729) 
acceptable

>  <inchikey>  (729) 
FOHBYQCQIBZLJV-UHFFFAOYSA-N

>  <fragmenstein_mode>  (729) 
expansion

>  <HIPPO Pose ID>  (729) 
18115

>  <Energy>  (729) 
95.532182

>  <fragmenstein_error>  (729) 


>  <tags>  (729) 
{'openbind_xx01zvns2b_c1_fragmenstein', 'fragmenstein_placed'}

>  <ref_pdb>  (729) 
1

>  <scratch_subdir>  (729) 
/opt/xchem-fragalysis-2/maxwin/BulkDock/SCRATCH/511027/C102383-P140

>  <alias>  (729) 
CCNCCn1cc2c(C(=O)Nc3ccc4c(c3)CNC4)ccc(NC=O)c2n1

>  <HIPPO Compound ID>  (729) 
102383

>  <fragmenstein_runtime>  (729) 
5.442167

$$$$
CNCc1c2cc(Cl)cc(C(=O)Nc3ccc4c(c3)CN(C)C4)c2cn1C
     RDKit          3D

 27 30  0  0  0  0  0  0  0  0999 V2000
   -4.7544    8.2859  -19.0833 C   0  0  0  0  0  0  0  0  0  0  0  0
   -5.6247    7.2626  -19.6293 N   0  0  0  0  0  0  0  0  0  0  0  0
   -5.1325    5.8916  -19.4204 C   0  0  0  0  0  0  0  0  0  0  0  0
   -5.3303    5.4759  -18.0153 C   0  0  0  0  0  0  0  0  0  0  0  0
   -6.4519    5.0111  -17.3700 C   0  0  0  0  0  0  0  0  0  0  0  0
   -7.6531    4.6318  -17.9521 C   0  0  0  0  0  0  0  0  0  0  0  0
   -8.6391    4.4184  -16.9722 C   0  0  0  0  0  0  0  0  0  0  0  0
  -10.2311    4.0829  -17.5181 Cl  0  0  0  0  0  0  0  0  0  0  0  0
   -8.4404    4.5853  -15.5665 C   0  0  0  0  0  0  0  0  0  0  0  0
   -7.2016    4.9845  -15.0118 C   0  0  0  0  0  0  0  0  0  0  0  0
   -7.0387    5.3428  -13.6039 C   0  0  0  0  0  0  0  0  0  0  0  0
   -6.5802    6.3723  -13.3105 O   0  0  0  0  0  0  0  0  0  0  0  0
   -7.6240    4.2278  -12.7271 N   0  0  0  0  0  0  0  0  0  0  0  0
   -7.8478    4.1814  -11.3668 C   0  0  0  0  0  0  0  0  0  0  0  0
   -7.6015    5.2961  -10.5471 C   0  0  0  0  0  0  0  0  0  0  0  0
   -7.8904    5.2530   -9.1841 C   0  0  0  0  0  0  0  0  0  0  0  0
   -8.4303    4.0876   -8.6849 C   0  0  0  0  0  0  0  0  0  0  0  0
   -8.6612    2.9839   -9.5085 C   0  0  0  0  0  0  0  0  0  0  0  0
   -8.3706    3.0034  -10.8502 C   0  0  0  0  0  0  0  0  0  0  0  0
   -9.2471    1.8808   -8.7031 C   0  0  0  0  0  0  0  0  0  0  0  0
   -9.7510    2.5792   -7.5031 N   0  0  0  0  0  0  0  0  0  0  0  0
   -9.7771    1.6925   -6.3711 C   0  0  0  0  0  0  0  0  0  0  0  0
   -8.8731    3.7468   -7.3004 C   0  0  0  0  0  0  0  0  0  0  0  0
   -6.2257    5.1587  -15.9799 C   0  0  0  0  0  0  0  0  0  0  0  0
   -4.9078    5.4878  -15.7970 C   0  0  0  0  0  0  0  0  0  0  0  0
   -4.3457    5.5656  -17.0490 N   0  0  0  0  0  0  0  0  0  0  0  0
   -2.9346    5.7471  -17.2969 C   0  0  0  0  0  0  0  0  0  0  0  0
  1  2  1  0
  2  3  1  0
  3  4  1  0
  4  5  2  0
  5  6  1  0
  6  7  2  0
  7  8  1  0
  7  9  1  0
  9 10  2  0
 10 11  1  0
 11 12  2  0
 11 13  1  0
 13 14  1  0
 14 15  2  0
 15 16  1  0
 16 17  2  0
 17 18  1  0
 18 19  2  0
 18 20  1  0
 20 21  1  0
 21 22  1  0
 21 23  1  0
 10 24  1  0
 24 25  2  0
 25 26  1  0
 26 27  1  0
 26  4  1  0
 24  5  1  0
 19 14  1  0
 23 17  1  0
M  END
>  <smiles>  (730) 
C102392-P140

>  <fragmenstein_outcome>  (730) 
acceptable

>  <inchikey>  (730) 
TXDTZELQNGEGTC-UHFFFAOYSA-N

>  <fragmenstein_mode>  (730) 
expansion

>  <HIPPO Pose ID>  (730) 
18123

>  <Energy>  (730) 
60.562274

>  <fragmenstein_error>  (730) 


>  <tags>  (730) 
{'openbind_xx01zvns2b_c1_fragmenstein', 'fragmenstein_placed'}

>  <ref_pdb>  (730) 
1

>  <scratch_subdir>  (730) 
/opt/xchem-fragalysis-2/maxwin/BulkDock/SCRATCH/511027/C102392-P140

>  <alias>  (730) 
CNCc1c2cc(Cl)cc(C(=O)Nc3ccc4c(c3)CN(C)C4)c2cn1C

>  <HIPPO Compound ID>  (730) 
102392

>  <fragmenstein_runtime>  (730) 
4.063748

$$$$
CNCc1c2cc(Cl)cc(C(=O)Nc3cc(F)c4c(c3)CNC4)c2cn1C
     RDKit          3D

 27 30  0  0  0  0  0  0  0  0999 V2000
   -4.7525    6.9812  -21.2559 C   0  0  0  0  0  0  0  0  0  0  0  0
   -5.0063    6.7764  -19.8381 N   0  0  0  0  0  0  0  0  0  0  0  0
   -5.0032    5.3485  -19.5069 C   0  0  0  0  0  0  0  0  0  0  0  0
   -5.3130    5.2100  -18.0557 C   0  0  0  0  0  0  0  0  0  0  0  0
   -6.4779    4.8856  -17.3973 C   0  0  0  0  0  0  0  0  0  0  0  0
   -7.6742    4.5198  -17.9905 C   0  0  0  0  0  0  0  0  0  0  0  0
   -8.6859    4.3927  -17.0235 C   0  0  0  0  0  0  0  0  0  0  0  0
  -10.2816    4.2083  -17.6166 Cl  0  0  0  0  0  0  0  0  0  0  0  0
   -8.5089    4.5571  -15.6124 C   0  0  0  0  0  0  0  0  0  0  0  0
   -7.2704    4.9146  -15.0329 C   0  0  0  0  0  0  0  0  0  0  0  0
   -7.1420    5.2601  -13.6094 C   0  0  0  0  0  0  0  0  0  0  0  0
   -6.6992    6.2996  -13.3162 O   0  0  0  0  0  0  0  0  0  0  0  0
   -7.7251    4.1346  -12.7258 N   0  0  0  0  0  0  0  0  0  0  0  0
   -7.9637    4.0931  -11.3557 C   0  0  0  0  0  0  0  0  0  0  0  0
   -7.7824    5.2294  -10.5531 C   0  0  0  0  0  0  0  0  0  0  0  0
   -8.0569    5.1708   -9.1888 C   0  0  0  0  0  0  0  0  0  0  0  0
   -7.8920    6.2574   -8.4228 F   0  0  0  0  0  0  0  0  0  0  0  0
   -8.5055    3.9913   -8.6408 C   0  0  0  0  0  0  0  0  0  0  0  0
   -8.6692    2.8615   -9.4337 C   0  0  0  0  0  0  0  0  0  0  0  0
   -8.4080    2.8920  -10.7931 C   0  0  0  0  0  0  0  0  0  0  0  0
   -9.0947    1.7244   -8.5678 C   0  0  0  0  0  0  0  0  0  0  0  0
   -9.5499    2.3534   -7.3011 N   0  0  0  0  0  0  0  0  0  0  0  0
   -8.8598    3.6625   -7.2346 C   0  0  0  0  0  0  0  0  0  0  0  0
   -6.2778    5.0730  -15.9989 C   0  0  0  0  0  0  0  0  0  0  0  0
   -4.9635    5.4164  -15.8181 C   0  0  0  0  0  0  0  0  0  0  0  0
   -4.3743    5.4349  -17.0636 N   0  0  0  0  0  0  0  0  0  0  0  0
   -2.9671    5.6561  -17.2983 C   0  0  0  0  0  0  0  0  0  0  0  0
  1  2  1  0
  2  3  1  0
  3  4  1  0
  4  5  2  0
  5  6  1  0
  6  7  2  0
  7  8  1  0
  7  9  1  0
  9 10  2  0
 10 11  1  0
 11 12  2  0
 11 13  1  0
 13 14  1  0
 14 15  2  0
 15 16  1  0
 16 17  1  0
 16 18  2  0
 18 19  1  0
 19 20  2  0
 19 21  1  0
 21 22  1  0
 22 23  1  0
 10 24  1  0
 24 25  2  0
 25 26  1  0
 26 27  1  0
 26  4  1  0
 24  5  1  0
 20 14  1  0
 23 18  1  0
M  END
>  <smiles>  (731) 
C102393-P140

>  <fragmenstein_outcome>  (731) 
acceptable

>  <inchikey>  (731) 
FLRPTPAOCJLEDP-UHFFFAOYSA-N

>  <fragmenstein_mode>  (731) 
expansion

>  <HIPPO Pose ID>  (731) 
18124

>  <Energy>  (731) 
32.824517

>  <fragmenstein_error>  (731) 


>  <tags>  (731) 
{'openbind_xx01zvns2b_c1_fragmenstein', 'fragmenstein_placed'}

>  <ref_pdb>  (731) 
1

>  <scratch_subdir>  (731) 
/opt/xchem-fragalysis-2/maxwin/BulkDock/SCRATCH/511027/C102393-P140

>  <alias>  (731) 
CNCc1c2cc(Cl)cc(C(=O)Nc3cc(F)c4c(c3)CNC4)c2cn1C

>  <HIPPO Compound ID>  (731) 
91249

>  <fragmenstein_runtime>  (731) 
5.070323

$$$$
O=C(Nc1ccc2c(c1)CNC2)c1cc(Cl)cc2nn(CC3CNC3)cc12
     RDKit          3D

 27 31  0  0  0  0  0  0  0  0999 V2000
   -6.6770    6.2375  -13.5843 O   0  0  0  0  0  0  0  0  0  0  0  0
   -7.1623    5.2049  -13.8348 C   0  0  0  0  0  0  0  0  0  0  0  0
   -7.7461    4.1170  -12.8999 N   0  0  0  0  0  0  0  0  0  0  0  0
   -7.9331    4.1157  -11.5198 C   0  0  0  0  0  0  0  0  0  0  0  0
   -7.7245    5.2669  -10.7455 C   0  0  0  0  0  0  0  0  0  0  0  0
   -7.9723    5.2551   -9.3674 C   0  0  0  0  0  0  0  0  0  0  0  0
   -8.4211    4.0808   -8.7908 C   0  0  0  0  0  0  0  0  0  0  0  0
   -8.6082    2.9338   -9.5539 C   0  0  0  0  0  0  0  0  0  0  0  0
   -8.3757    2.9327  -10.9181 C   0  0  0  0  0  0  0  0  0  0  0  0
   -9.0320    1.8156   -8.6600 C   0  0  0  0  0  0  0  0  0  0  0  0
   -9.4533    2.4709   -7.3953 N   0  0  0  0  0  0  0  0  0  0  0  0
   -8.7543    3.7744   -7.3685 C   0  0  0  0  0  0  0  0  0  0  0  0
   -7.3787    4.8344  -15.2442 C   0  0  0  0  0  0  0  0  0  0  0  0
   -8.6536    4.4587  -15.7136 C   0  0  0  0  0  0  0  0  0  0  0  0
   -8.9364    4.2455  -17.0921 C   0  0  0  0  0  0  0  0  0  0  0  0
  -10.5737    4.1397  -17.5688 Cl  0  0  0  0  0  0  0  0  0  0  0  0
   -7.9910    4.2870  -18.1212 C   0  0  0  0  0  0  0  0  0  0  0  0
   -6.7427    4.7227  -17.6849 C   0  0  0  0  0  0  0  0  0  0  0  0
   -5.6598    5.0127  -18.4135 N   0  0  0  0  0  0  0  0  0  0  0  0
   -4.8009    5.5548  -17.5451 N   0  0  0  0  0  0  0  0  0  0  0  0
   -3.6373    6.2284  -18.0839 C   0  0  0  0  0  0  0  0  0  0  0  0
   -3.8786    7.6447  -18.6051 C   0  0  0  0  0  0  0  0  0  0  0  0
   -4.7836    8.6014  -17.7978 C   0  0  0  0  0  0  0  0  0  0  0  0
   -5.8964    8.2906  -18.7243 N   0  0  0  0  0  0  0  0  0  0  0  0
   -4.9020    7.8687  -19.7400 C   0  0  0  0  0  0  0  0  0  0  0  0
   -5.1949    5.4876  -16.2405 C   0  0  0  0  0  0  0  0  0  0  0  0
   -6.4718    4.9932  -16.2919 C   0  0  0  0  0  0  0  0  0  0  0  0
  1  2  2  0
  2  3  1  0
  3  4  1  0
  4  5  2  0
  5  6  1  0
  6  7  2  0
  7  8  1  0
  8  9  2  0
  8 10  1  0
 10 11  1  0
 11 12  1  0
  2 13  1  0
 13 14  2  0
 14 15  1  0
 15 16  1  0
 15 17  2  0
 17 18  1  0
 18 19  2  0
 19 20  1  0
 20 21  1  0
 21 22  1  0
 22 23  1  0
 23 24  1  0
 24 25  1  0
 20 26  1  0
 26 27  2  0
  9  4  1  0
 27 13  1  0
 12  7  1  0
 27 18  1  0
 25 22  1  0
M  END
>  <smiles>  (732) 
C43785-P140

>  <fragmenstein_outcome>  (732) 
acceptable

>  <inchikey>  (732) 
GUPVAHXZWVYEOJ-UHFFFAOYSA-N

>  <fragmenstein_mode>  (732) 
expansion

>  <HIPPO Pose ID>  (732) 
18127

>  <Energy>  (732) 
49.540461

>  <fragmenstein_error>  (732) 


>  <tags>  (732) 
{'openbind_xx01zvns2b_c1_fragmenstein', 'fragmenstein_placed'}

>  <ref_pdb>  (732) 
1

>  <scratch_subdir>  (732) 
/opt/xchem-fragalysis-2/maxwin/BulkDock/SCRATCH/511027/C43785-P140

>  <alias>  (732) 
O=C(Nc1ccc2c(c1)CNC2)c1cc(Cl)cc2nn(CC3CNC3)cc12

>  <HIPPO Compound ID>  (732) 
43785

>  <fragmenstein_runtime>  (732) 
3.277735

$$$$
CCn1cc2c(C(=O)Nc3ccc4c(c3)CNC4)cc(Cl)cc2n1
     RDKit          3D

 24 27  0  0  0  0  0  0  0  0999 V2000
   -2.2379    5.1753  -18.4842 C   0  0  0  0  0  0  0  0  0  0  0  0
   -2.8956    5.9969  -17.3854 C   0  0  0  0  0  0  0  0  0  0  0  0
   -4.2522    5.5910  -17.0642 N   0  0  0  0  0  0  0  0  0  0  0  0
   -4.8124    5.5758  -15.8179 C   0  0  0  0  0  0  0  0  0  0  0  0
   -6.1038    5.1674  -16.0127 C   0  0  0  0  0  0  0  0  0  0  0  0
   -7.0931    4.9776  -15.0483 C   0  0  0  0  0  0  0  0  0  0  0  0
   -6.9818    5.3157  -13.6198 C   0  0  0  0  0  0  0  0  0  0  0  0
   -6.5479    6.3566  -13.3159 O   0  0  0  0  0  0  0  0  0  0  0  0
   -7.5853    4.1877  -12.7492 N   0  0  0  0  0  0  0  0  0  0  0  0
   -7.8576    4.1462  -11.3848 C   0  0  0  0  0  0  0  0  0  0  0  0
   -7.7026    5.2816  -10.5743 C   0  0  0  0  0  0  0  0  0  0  0  0
   -8.0076    5.2335   -9.2096 C   0  0  0  0  0  0  0  0  0  0  0  0
   -8.4636    4.0398   -8.6831 C   0  0  0  0  0  0  0  0  0  0  0  0
   -8.6096    2.9119   -9.4840 C   0  0  0  0  0  0  0  0  0  0  0  0
   -8.3171    2.9451  -10.8365 C   0  0  0  0  0  0  0  0  0  0  0  0
   -9.0578    1.7685   -8.6363 C   0  0  0  0  0  0  0  0  0  0  0  0
   -9.5327    2.3860   -7.3713 N   0  0  0  0  0  0  0  0  0  0  0  0
   -8.8414    3.6907   -7.2819 C   0  0  0  0  0  0  0  0  0  0  0  0
   -8.3114    4.5581  -15.6156 C   0  0  0  0  0  0  0  0  0  0  0  0
   -8.4739    4.3521  -17.0134 C   0  0  0  0  0  0  0  0  0  0  0  0
  -10.0453    3.9925  -17.5718 Cl  0  0  0  0  0  0  0  0  0  0  0  0
   -7.4639    4.5127  -17.9745 C   0  0  0  0  0  0  0  0  0  0  0  0
   -6.2532    4.9520  -17.4322 C   0  0  0  0  0  0  0  0  0  0  0  0
   -5.1036    5.2599  -18.0513 N   0  0  0  0  0  0  0  0  0  0  0  0
  1  2  1  0
  2  3  1  0
  3  4  1  0
  4  5  2  0
  5  6  1  0
  6  7  1  0
  7  8  2  0
  7  9  1  0
  9 10  1  0
 10 11  2  0
 11 12  1  0
 12 13  2  0
 13 14  1  0
 14 15  2  0
 14 16  1  0
 16 17  1  0
 17 18  1  0
  6 19  2  0
 19 20  1  0
 20 21  1  0
 20 22  2  0
 22 23  1  0
 23 24  2  0
 24  3  1  0
 23  5  1  0
 15 10  1  0
 18 13  1  0
M  END
>  <smiles>  (733) 
C102402-P140

>  <fragmenstein_outcome>  (733) 
acceptable

>  <inchikey>  (733) 
IYFZFGHFXGTVTD-UHFFFAOYSA-N

>  <fragmenstein_mode>  (733) 
expansion

>  <HIPPO Pose ID>  (733) 
18131

>  <Energy>  (733) 
40.45894

>  <fragmenstein_error>  (733) 


>  <tags>  (733) 
{'openbind_xx01zvns2b_c1_fragmenstein', 'fragmenstein_placed'}

>  <ref_pdb>  (733) 
1

>  <scratch_subdir>  (733) 
/opt/xchem-fragalysis-2/maxwin/BulkDock/SCRATCH/511027/C102402-P140

>  <alias>  (733) 
CCn1cc2c(C(=O)Nc3ccc4c(c3)CNC4)cc(Cl)cc2n1

>  <HIPPO Compound ID>  (733) 
74044

>  <fragmenstein_runtime>  (733) 
2.249436

$$$$
CCn1cc2c(C(=O)Nc3ccc4c(c3)CNC4)cccc2n1
     RDKit          3D

 23 26  0  0  0  0  0  0  0  0999 V2000
   -2.6592    6.5918  -16.0230 C   0  0  0  0  0  0  0  0  0  0  0  0
   -3.7540    6.8934  -17.0323 C   0  0  0  0  0  0  0  0  0  0  0  0
   -4.9477    6.0927  -16.8387 N   0  0  0  0  0  0  0  0  0  0  0  0
   -5.6375    5.9697  -15.6718 C   0  0  0  0  0  0  0  0  0  0  0  0
   -6.7665    5.2751  -16.0026 C   0  0  0  0  0  0  0  0  0  0  0  0
   -7.8130    4.9386  -15.1488 C   0  0  0  0  0  0  0  0  0  0  0  0
   -7.8793    5.3731  -13.7452 C   0  0  0  0  0  0  0  0  0  0  0  0
   -7.7715    6.5107  -13.5073 O   0  0  0  0  0  0  0  0  0  0  0  0
   -8.0424    4.1646  -12.8000 N   0  0  0  0  0  0  0  0  0  0  0  0
   -8.1967    4.1123  -11.4172 C   0  0  0  0  0  0  0  0  0  0  0  0
   -8.0430    5.2672  -10.6308 C   0  0  0  0  0  0  0  0  0  0  0  0
   -8.2163    5.2202   -9.2444 C   0  0  0  0  0  0  0  0  0  0  0  0
   -8.5617    4.0107   -8.6742 C   0  0  0  0  0  0  0  0  0  0  0  0
   -8.6980    2.8630   -9.4502 C   0  0  0  0  0  0  0  0  0  0  0  0
   -8.5038    2.8885  -10.8202 C   0  0  0  0  0  0  0  0  0  0  0  0
   -9.0471    1.7168   -8.5608 C   0  0  0  0  0  0  0  0  0  0  0  0
   -9.4985    2.3418   -7.2901 N   0  0  0  0  0  0  0  0  0  0  0  0
   -8.8440    3.6675   -7.2498 C   0  0  0  0  0  0  0  0  0  0  0  0
   -8.8446    4.2484  -15.8135 C   0  0  0  0  0  0  0  0  0  0  0  0
   -8.8014    3.9407  -17.2077 C   0  0  0  0  0  0  0  0  0  0  0  0
   -7.7222    4.2902  -18.0530 C   0  0  0  0  0  0  0  0  0  0  0  0
   -6.6842    4.9861  -17.4097 C   0  0  0  0  0  0  0  0  0  0  0  0
   -5.5411    5.5036  -17.8947 N   0  0  0  0  0  0  0  0  0  0  0  0
  1  2  1  0
  2  3  1  0
  3  4  1  0
  4  5  2  0
  5  6  1  0
  6  7  1  0
  7  8  2  0
  7  9  1  0
  9 10  1  0
 10 11  2  0
 11 12  1  0
 12 13  2  0
 13 14  1  0
 14 15  2  0
 14 16  1  0
 16 17  1  0
 17 18  1  0
  6 19  2  0
 19 20  1  0
 20 21  2  0
 21 22  1  0
 22 23  2  0
 23  3  1  0
 22  5  1  0
 15 10  1  0
 18 13  1  0
M  END
>  <smiles>  (734) 
C102406-P140

>  <fragmenstein_outcome>  (734) 
acceptable

>  <inchikey>  (734) 
YVMNNYLRRNBOEF-UHFFFAOYSA-N

>  <fragmenstein_mode>  (734) 
expansion

>  <HIPPO Pose ID>  (734) 
18133

>  <Energy>  (734) 
58.982808

>  <fragmenstein_error>  (734) 


>  <tags>  (734) 
{'openbind_xx01zvns2b_c1_fragmenstein', 'fragmenstein_placed'}

>  <ref_pdb>  (734) 
1

>  <scratch_subdir>  (734) 
/opt/xchem-fragalysis-2/maxwin/BulkDock/SCRATCH/511027/C102406-P140

>  <alias>  (734) 
CCn1cc2c(C(=O)Nc3ccc4c(c3)CNC4)cccc2n1

>  <HIPPO Compound ID>  (734) 
28415

>  <fragmenstein_runtime>  (734) 
3.071824

$$$$
CNCc1c2cc(F)cc(C(=O)Nc3ccc4c(c3)CNC4)c2cn1C
     RDKit          3D

 26 29  0  0  0  0  0  0  0  0999 V2000
   -3.6536    6.7541  -20.7500 C   0  0  0  0  0  0  0  0  0  0  0  0
   -3.9147    5.5146  -20.0407 N   0  0  0  0  0  0  0  0  0  0  0  0
   -5.3008    5.4411  -19.5840 C   0  0  0  0  0  0  0  0  0  0  0  0
   -5.5527    5.3941  -18.1015 C   0  0  0  0  0  0  0  0  0  0  0  0
   -6.6923    4.9038  -17.4747 C   0  0  0  0  0  0  0  0  0  0  0  0
   -7.7927    4.3084  -18.0914 C   0  0  0  0  0  0  0  0  0  0  0  0
   -8.8126    4.0302  -17.1619 C   0  0  0  0  0  0  0  0  0  0  0  0
   -9.9528    3.5012  -17.6296 F   0  0  0  0  0  0  0  0  0  0  0  0
   -8.7392    4.3047  -15.7626 C   0  0  0  0  0  0  0  0  0  0  0  0
   -7.6140    4.9032  -15.1527 C   0  0  0  0  0  0  0  0  0  0  0  0
   -7.5910    5.3307  -13.7434 C   0  0  0  0  0  0  0  0  0  0  0  0
   -7.2822    6.4290  -13.4949 O   0  0  0  0  0  0  0  0  0  0  0  0
   -8.0690    4.1908  -12.8167 N   0  0  0  0  0  0  0  0  0  0  0  0
   -8.1729    4.1365  -11.4292 C   0  0  0  0  0  0  0  0  0  0  0  0
   -7.9754    5.2821  -10.6406 C   0  0  0  0  0  0  0  0  0  0  0  0
   -8.1439    5.2343   -9.2531 C   0  0  0  0  0  0  0  0  0  0  0  0
   -8.5195    4.0328   -8.6838 C   0  0  0  0  0  0  0  0  0  0  0  0
   -8.6906    2.8916   -9.4616 C   0  0  0  0  0  0  0  0  0  0  0  0
   -8.5151    2.9203  -10.8337 C   0  0  0  0  0  0  0  0  0  0  0  0
   -9.0545    1.7493   -8.5732 C   0  0  0  0  0  0  0  0  0  0  0  0
   -9.4829    2.3786   -7.2972 N   0  0  0  0  0  0  0  0  0  0  0  0
   -8.8066    3.6939   -7.2591 C   0  0  0  0  0  0  0  0  0  0  0  0
   -6.6115    5.1814  -16.0824 C   0  0  0  0  0  0  0  0  0  0  0  0
   -5.4024    5.7766  -15.8587 C   0  0  0  0  0  0  0  0  0  0  0  0
   -4.7728    5.9276  -17.0798 N   0  0  0  0  0  0  0  0  0  0  0  0
   -3.5134    6.6322  -17.1832 C   0  0  0  0  0  0  0  0  0  0  0  0
  1  2  1  0
  2  3  1  0
  3  4  1  0
  4  5  2  0
  5  6  1  0
  6  7  2  0
  7  8  1  0
  7  9  1  0
  9 10  2  0
 10 11  1  0
 11 12  2  0
 11 13  1  0
 13 14  1  0
 14 15  2  0
 15 16  1  0
 16 17  2  0
 17 18  1  0
 18 19  2  0
 18 20  1  0
 20 21  1  0
 21 22  1  0
 10 23  1  0
 23 24  2  0
 24 25  1  0
 25 26  1  0
 25  4  1  0
 23  5  1  0
 19 14  1  0
 22 17  1  0
M  END
>  <smiles>  (735) 
C102378-P140

>  <fragmenstein_outcome>  (735) 
acceptable

>  <inchikey>  (735) 
PPFCDTVZMGZOMZ-UHFFFAOYSA-N

>  <fragmenstein_mode>  (735) 
expansion

>  <HIPPO Pose ID>  (735) 
18134

>  <Energy>  (735) 
49.462546

>  <fragmenstein_error>  (735) 


>  <tags>  (735) 
{'openbind_xx01zvns2b_c1_fragmenstein', 'fragmenstein_placed'}

>  <ref_pdb>  (735) 
1

>  <scratch_subdir>  (735) 
/opt/xchem-fragalysis-2/maxwin/BulkDock/SCRATCH/511027/C102378-P140

>  <alias>  (735) 
CNCc1c2cc(F)cc(C(=O)Nc3ccc4c(c3)CNC4)c2cn1C

>  <HIPPO Compound ID>  (735) 
102378

>  <fragmenstein_runtime>  (735) 
4.535252

$$$$
O=C(Nc1ccc2c(c1)CNC2)[C@@H]1C[C@@H](F)C[C@@H]2[C@H]3COC[C@H]3C[C@@H]21
     RDKit          3D

 25 29  0  0  0  0  0  0  0  0999 V2000
   -7.0471    6.6108  -13.5328 O   0  0  0  0  0  0  0  0  0  0  0  0
   -7.5542    5.5876  -13.8003 C   0  0  0  0  0  0  0  0  0  0  0  0
   -8.0353    4.4256  -12.8759 N   0  0  0  0  0  0  0  0  0  0  0  0
   -8.0752    4.3326  -11.4880 C   0  0  0  0  0  0  0  0  0  0  0  0
   -7.7779    5.4373  -10.6777 C   0  0  0  0  0  0  0  0  0  0  0  0
   -7.9143    5.3585   -9.2884 C   0  0  0  0  0  0  0  0  0  0  0  0
   -8.3314    4.1616   -8.7348 C   0  0  0  0  0  0  0  0  0  0  0  0
   -8.5990    3.0582   -9.5324 C   0  0  0  0  0  0  0  0  0  0  0  0
   -8.4823    3.1243  -10.9117 C   0  0  0  0  0  0  0  0  0  0  0  0
   -9.0268    1.9154   -8.6770 C   0  0  0  0  0  0  0  0  0  0  0  0
   -8.9455    2.3886   -7.2702 N   0  0  0  0  0  0  0  0  0  0  0  0
   -8.6036    3.8257   -7.3103 C   0  0  0  0  0  0  0  0  0  0  0  0
   -7.9375    5.2988  -15.2821 C   0  0  2  0  0  0  0  0  0  0  0  0
   -8.6497    4.0017  -15.6348 C   0  0  0  0  0  0  0  0  0  0  0  0
   -9.0419    3.9019  -17.0939 C   0  0  1  0  0  0  0  0  0  0  0  0
  -10.0159    4.7987  -17.3586 F   0  0  0  0  0  0  0  0  0  0  0  0
   -7.8822    4.1285  -18.0233 C   0  0  0  0  0  0  0  0  0  0  0  0
   -7.0129    5.3480  -17.7348 C   0  0  2  0  0  0  0  0  0  0  0  0
   -5.6090    5.1276  -18.3529 C   0  0  1  0  0  0  0  0  0  0  0  0
   -5.1709    6.2112  -19.3091 C   0  0  0  0  0  0  0  0  0  0  0  0
   -4.6060    7.2375  -18.4954 O   0  0  0  0  0  0  0  0  0  0  0  0
   -3.9804    6.6038  -17.3749 C   0  0  0  0  0  0  0  0  0  0  0  0
   -4.6161    5.2319  -17.2047 C   0  0  1  0  0  0  0  0  0  0  0  0
   -5.4302    5.0633  -15.9249 C   0  0  0  0  0  0  0  0  0  0  0  0
   -6.7852    5.6685  -16.2457 C   0  0  2  0  0  0  0  0  0  0  0  0
  1  2  2  0
  2  3  1  0
  3  4  1  0
  4  5  2  0
  5  6  1  0
  6  7  2  0
  7  8  1  0
  8  9  2  0
  8 10  1  0
 10 11  1  0
 11 12  1  0
 13  2  1  1
 13 14  1  0
 14 15  1  0
 15 16  1  6
 15 17  1  0
 18 17  1  1
 18 19  1  0
 19 20  1  6
 20 21  1  0
 21 22  1  0
 23 22  1  1
 23 24  1  0
 25 24  1  1
  9  4  1  0
 25 13  1  0
 12  7  1  0
 25 18  1  0
 23 19  1  0
M  END
>  <smiles>  (736) 
C44304-P140

>  <fragmenstein_outcome>  (736) 
acceptable

>  <inchikey>  (736) 
AQZJRGKFCYOTNZ-UHFFFAOYSA-N

>  <fragmenstein_mode>  (736) 
expansion

>  <HIPPO Pose ID>  (736) 
18135

>  <Energy>  (736) 
69.825853

>  <fragmenstein_error>  (736) 


>  <tags>  (736) 
{'openbind_xx01zvns2b_c1_fragmenstein', 'fragmenstein_placed'}

>  <ref_pdb>  (736) 
1

>  <scratch_subdir>  (736) 
/opt/xchem-fragalysis-2/maxwin/BulkDock/SCRATCH/511027/C44304-P140

>  <alias>  (736) 
O=C(Nc1ccc2c(c1)CNC2)[C@@H]1C[C@@H](F)C[C@@H]2[C@H]3COC[C@H]3C[C@@H]21

>  <HIPPO Compound ID>  (736) 
105058

>  <fragmenstein_runtime>  (736) 
3.402926

$$$$
Cn1cc2c([C@H](N=O)Nc3ccc4c(c3)CNC4)ccc(CN)c2n1
     RDKit          3D

 25 28  0  0  0  0  0  0  0  0999 V2000
   -3.4445    6.0920  -17.1268 C   0  0  0  0  0  0  0  0  0  0  0  0
   -4.7761    5.7652  -16.7023 N   0  0  0  0  0  0  0  0  0  0  0  0
   -5.2491    5.7944  -15.4267 C   0  0  0  0  0  0  0  0  0  0  0  0
   -6.5508    5.3785  -15.5153 C   0  0  0  0  0  0  0  0  0  0  0  0
   -7.4746    5.1997  -14.4758 C   0  0  0  0  0  0  0  0  0  0  0  0
   -7.3786    5.4043  -12.9905 C   0  0  2  0  0  0  0  0  0  0  0  0
   -6.0317    5.8351  -12.5285 N   0  0  0  0  0  0  0  0  0  0  0  0
   -6.0559    6.9594  -12.0103 O   0  0  0  0  0  0  0  0  0  0  0  0
   -7.8045    4.1742  -12.3480 N   0  0  0  0  0  0  0  0  0  0  0  0
   -8.0760    4.1053  -10.9862 C   0  0  0  0  0  0  0  0  0  0  0  0
   -8.1211    5.2307  -10.1352 C   0  0  0  0  0  0  0  0  0  0  0  0
   -8.3977    5.1183   -8.7712 C   0  0  0  0  0  0  0  0  0  0  0  0
   -8.7203    3.8739   -8.2835 C   0  0  0  0  0  0  0  0  0  0  0  0
   -8.7526    2.7668   -9.1213 C   0  0  0  0  0  0  0  0  0  0  0  0
   -8.4236    2.8579  -10.4592 C   0  0  0  0  0  0  0  0  0  0  0  0
   -9.1423    1.5719   -8.3257 C   0  0  0  0  0  0  0  0  0  0  0  0
   -9.7215    2.1198   -7.0718 N   0  0  0  0  0  0  0  0  0  0  0  0
   -9.0911    3.4468   -6.9046 C   0  0  0  0  0  0  0  0  0  0  0  0
   -8.7197    4.7370  -14.9835 C   0  0  0  0  0  0  0  0  0  0  0  0
   -8.9845    4.4635  -16.3322 C   0  0  0  0  0  0  0  0  0  0  0  0
   -8.0139    4.6096  -17.3442 C   0  0  0  0  0  0  0  0  0  0  0  0
   -8.2711    4.1183  -18.7062 C   0  0  0  0  0  0  0  0  0  0  0  0
   -8.6238    2.7230  -18.5782 N   0  0  0  0  0  0  0  0  0  0  0  0
   -6.7815    5.1138  -16.9120 C   0  0  0  0  0  0  0  0  0  0  0  0
   -5.6817    5.4209  -17.6189 N   0  0  0  0  0  0  0  0  0  0  0  0
  1  2  1  0
  2  3  1  0
  3  4  2  0
  4  5  1  0
  5  6  1  0
  6  7  1  0
  7  8  2  0
  6  9  1  1
  9 10  1  0
 10 11  2  0
 11 12  1  0
 12 13  2  0
 13 14  1  0
 14 15  2  0
 14 16  1  0
 16 17  1  0
 17 18  1  0
  5 19  2  0
 19 20  1  0
 20 21  2  0
 21 22  1  0
 22 23  1  0
 21 24  1  0
 24 25  2  0
 25  2  1  0
 24  4  1  0
 15 10  1  0
 18 13  1  0
M  END
>  <smiles>  (737) 
C102409-P140

>  <fragmenstein_outcome>  (737) 
acceptable

>  <inchikey>  (737) 
OCPCLSNNNPUHLG-UHFFFAOYSA-N

>  <fragmenstein_mode>  (737) 
expansion

>  <HIPPO Pose ID>  (737) 
18137

>  <Energy>  (737) 
54.868349

>  <fragmenstein_error>  (737) 


>  <tags>  (737) 
{'openbind_xx01zvns2b_c1_fragmenstein', 'fragmenstein_placed'}

>  <ref_pdb>  (737) 
1

>  <scratch_subdir>  (737) 
/opt/xchem-fragalysis-2/maxwin/BulkDock/SCRATCH/511027/C102409-P140

>  <alias>  (737) 
Cn1cc2c([C@H](N=O)Nc3ccc4c(c3)CNC4)ccc(CN)c2n1

>  <HIPPO Compound ID>  (737) 
76312

>  <fragmenstein_runtime>  (737) 
2.373523

$$$$
O=C(Nc1ccc2c(c1)CNC2)c1cc(Cl)cc2c1CN1CO[C@H]3NCC[C@]231
     RDKit          3D

 28 33  0  0  0  0  0  0  0  0999 V2000
   -6.6120    6.2566  -13.3471 O   0  0  0  0  0  0  0  0  0  0  0  0
   -7.0525    5.2114  -13.6233 C   0  0  0  0  0  0  0  0  0  0  0  0
   -7.6448    4.1062  -12.7242 N   0  0  0  0  0  0  0  0  0  0  0  0
   -7.8978    4.0930  -11.3574 C   0  0  0  0  0  0  0  0  0  0  0  0
   -7.7114    5.2452  -10.5769 C   0  0  0  0  0  0  0  0  0  0  0  0
   -7.9717    5.2288   -9.2042 C   0  0  0  0  0  0  0  0  0  0  0  0
   -8.4042    4.0459   -8.6360 C   0  0  0  0  0  0  0  0  0  0  0  0
   -8.5942    2.9090   -9.4091 C   0  0  0  0  0  0  0  0  0  0  0  0
   -8.3565    2.9124  -10.7732 C   0  0  0  0  0  0  0  0  0  0  0  0
   -9.0514    1.7872   -8.5449 C   0  0  0  0  0  0  0  0  0  0  0  0
   -9.0515    2.3017   -7.1499 N   0  0  0  0  0  0  0  0  0  0  0  0
   -8.7406    3.7454   -7.2175 C   0  0  0  0  0  0  0  0  0  0  0  0
   -7.1650    4.8615  -15.0604 C   0  0  0  0  0  0  0  0  0  0  0  0
   -8.3923    4.4411  -15.5728 C   0  0  0  0  0  0  0  0  0  0  0  0
   -8.5644    4.3519  -16.9562 C   0  0  0  0  0  0  0  0  0  0  0  0
  -10.1220    4.0310  -17.5637 Cl  0  0  0  0  0  0  0  0  0  0  0  0
   -7.5460    4.6748  -17.8503 C   0  0  0  0  0  0  0  0  0  0  0  0
   -6.3487    5.1293  -17.3349 C   0  0  0  0  0  0  0  0  0  0  0  0
   -6.1502    5.1799  -15.9522 C   0  0  0  0  0  0  0  0  0  0  0  0
   -4.7553    5.6355  -15.6815 C   0  0  0  0  0  0  0  0  0  0  0  0
   -4.3030    6.2894  -16.9334 N   0  0  0  0  0  0  0  0  0  0  0  0
   -4.6529    7.7063  -16.8826 C   0  0  0  0  0  0  0  0  0  0  0  0
   -5.1970    8.1505  -18.1270 O   0  0  0  0  0  0  0  0  0  0  0  0
   -5.4729    6.9897  -18.9016 C   0  0  1  0  0  0  0  0  0  0  0  0
   -4.5866    6.9952  -20.0683 N   0  0  0  0  0  0  0  0  0  0  0  0
   -3.6243    5.9208  -19.8273 C   0  0  0  0  0  0  0  0  0  0  0  0
   -4.3868    4.9049  -18.9945 C   0  0  0  0  0  0  0  0  0  0  0  0
   -5.1753    5.7590  -18.0279 C   0  0  2  0  0  0  0  0  0  0  0  0
  1  2  2  0
  2  3  1  0
  3  4  1  0
  4  5  2  0
  5  6  1  0
  6  7  2  0
  7  8  1  0
  8  9  2  0
  8 10  1  0
 10 11  1  0
 11 12  1  0
  2 13  1  0
 13 14  2  0
 14 15  1  0
 15 16  1  0
 15 17  2  0
 17 18  1  0
 18 19  2  0
 19 20  1  0
 20 21  1  0
 21 22  1  0
 22 23  1  0
 23 24  1  0
 24 25  1  6
 25 26  1  0
 26 27  1  0
 28 27  1  6
  9  4  1  0
 19 13  1  0
 28 21  1  0
 12  7  1  0
 28 18  1  0
 28 24  1  0
M  END
>  <smiles>  (738) 
C102416-P140

>  <fragmenstein_outcome>  (738) 
acceptable

>  <inchikey>  (738) 
SDNUWVOVYUUKDY-UHFFFAOYSA-N

>  <fragmenstein_mode>  (738) 
expansion

>  <HIPPO Pose ID>  (738) 
18140

>  <Energy>  (738) 
57.037356

>  <fragmenstein_error>  (738) 


>  <tags>  (738) 
{'openbind_xx01zvns2b_c1_fragmenstein', 'fragmenstein_placed'}

>  <ref_pdb>  (738) 
1

>  <scratch_subdir>  (738) 
/opt/xchem-fragalysis-2/maxwin/BulkDock/SCRATCH/511027/C102416-P140

>  <alias>  (738) 
O=C(Nc1ccc2c(c1)CNC2)c1cc(Cl)cc2c1CN1CO[C@H]3NCC[C@]231

>  <HIPPO Compound ID>  (738) 
102416

>  <fragmenstein_runtime>  (738) 
4.575839

$$$$
CNc1noc2cccc(C(=O)Nc3ccc4c(c3)CNC4)c12
     RDKit          3D

 23 26  0  0  0  0  0  0  0  0999 V2000
   -3.3723    6.3684  -15.0980 C   0  0  0  0  0  0  0  0  0  0  0  0
   -4.6555    5.7052  -15.0619 N   0  0  0  0  0  0  0  0  0  0  0  0
   -5.2832    5.3849  -16.2198 C   0  0  0  0  0  0  0  0  0  0  0  0
   -4.7444    5.4034  -17.4446 N   0  0  0  0  0  0  0  0  0  0  0  0
   -5.7362    4.9600  -18.3034 O   0  0  0  0  0  0  0  0  0  0  0  0
   -6.8600    4.6833  -17.5931 C   0  0  0  0  0  0  0  0  0  0  0  0
   -8.0606    4.2007  -18.1063 C   0  0  0  0  0  0  0  0  0  0  0  0
   -9.0957    3.9979  -17.1909 C   0  0  0  0  0  0  0  0  0  0  0  0
   -8.9175    4.2628  -15.8318 C   0  0  0  0  0  0  0  0  0  0  0  0
   -7.6927    4.7510  -15.3493 C   0  0  0  0  0  0  0  0  0  0  0  0
   -7.5471    5.1624  -13.9325 C   0  0  0  0  0  0  0  0  0  0  0  0
   -7.1080    6.2229  -13.7132 O   0  0  0  0  0  0  0  0  0  0  0  0
   -8.0240    4.0556  -12.9646 N   0  0  0  0  0  0  0  0  0  0  0  0
   -8.1452    4.0577  -11.5763 C   0  0  0  0  0  0  0  0  0  0  0  0
   -7.9169    5.2234  -10.8257 C   0  0  0  0  0  0  0  0  0  0  0  0
   -8.0838    5.2266   -9.4360 C   0  0  0  0  0  0  0  0  0  0  0  0
   -8.4785    4.0525   -8.8233 C   0  0  0  0  0  0  0  0  0  0  0  0
   -8.6783    2.8905   -9.5616 C   0  0  0  0  0  0  0  0  0  0  0  0
   -8.5163    2.8728  -10.9363 C   0  0  0  0  0  0  0  0  0  0  0  0
   -9.0401    1.7801   -8.6316 C   0  0  0  0  0  0  0  0  0  0  0  0
   -9.4345    2.4532   -7.3666 N   0  0  0  0  0  0  0  0  0  0  0  0
   -8.7467    3.7628   -7.3842 C   0  0  0  0  0  0  0  0  0  0  0  0
   -6.6378    4.9595  -16.2567 C   0  0  0  0  0  0  0  0  0  0  0  0
  1  2  1  0
  2  3  1  0
  3  4  2  0
  4  5  1  0
  5  6  1  0
  6  7  2  0
  7  8  1  0
  8  9  2  0
  9 10  1  0
 10 11  1  0
 11 12  2  0
 11 13  1  0
 13 14  1  0
 14 15  2  0
 15 16  1  0
 16 17  2  0
 17 18  1  0
 18 19  2  0
 18 20  1  0
 20 21  1  0
 21 22  1  0
 10 23  2  0
 23  3  1  0
 23  6  1  0
 19 14  1  0
 22 17  1  0
M  END
>  <smiles>  (739) 
C102418-P140

>  <fragmenstein_outcome>  (739) 
acceptable

>  <inchikey>  (739) 
ITNSWSWJFXOJLI-UHFFFAOYSA-N

>  <fragmenstein_mode>  (739) 
expansion

>  <HIPPO Pose ID>  (739) 
18142

>  <Energy>  (739) 
20.138353

>  <fragmenstein_error>  (739) 


>  <tags>  (739) 
{'openbind_xx01zvns2b_c1_fragmenstein', 'fragmenstein_placed'}

>  <ref_pdb>  (739) 
1

>  <scratch_subdir>  (739) 
/opt/xchem-fragalysis-2/maxwin/BulkDock/SCRATCH/511027/C102418-P140

>  <alias>  (739) 
CNc1noc2cccc(C(=O)Nc3ccc4c(c3)CNC4)c12

>  <HIPPO Compound ID>  (739) 
83247

>  <fragmenstein_runtime>  (739) 
3.165331

$$$$
Nc1[nH]c(N)c2c([C@H](Nc3ccc4c(c3)CNC4)C(F)(F)F)cccc12
     RDKit          3D

 26 29  0  0  0  0  0  0  0  0999 V2000
   -5.6703    5.3278  -19.6657 N   0  0  0  0  0  0  0  0  0  0  0  0
   -5.8115    5.0984  -18.3432 C   0  0  0  0  0  0  0  0  0  0  0  0
   -4.7283    5.1970  -17.5146 N   0  0  0  0  0  0  0  0  0  0  0  0
   -5.0968    5.0665  -16.1927 C   0  0  0  0  0  0  0  0  0  0  0  0
   -4.1199    5.1436  -15.2577 N   0  0  0  0  0  0  0  0  0  0  0  0
   -6.4666    4.8623  -16.1684 C   0  0  0  0  0  0  0  0  0  0  0  0
   -7.3372    4.6849  -15.0673 C   0  0  0  0  0  0  0  0  0  0  0  0
   -7.0229    4.7367  -13.5719 C   0  0  2  0  0  0  0  0  0  0  0  0
   -8.1992    4.1633  -12.8272 N   0  0  0  0  0  0  0  0  0  0  0  0
   -8.2400    4.1075  -11.4278 C   0  0  0  0  0  0  0  0  0  0  0  0
   -8.1748    5.2567  -10.6160 C   0  0  0  0  0  0  0  0  0  0  0  0
   -8.3022    5.1985   -9.2226 C   0  0  0  0  0  0  0  0  0  0  0  0
   -8.5726    3.9769   -8.6489 C   0  0  0  0  0  0  0  0  0  0  0  0
   -8.6739    2.8341   -9.4302 C   0  0  0  0  0  0  0  0  0  0  0  0
   -8.4931    2.8767  -10.8035 C   0  0  0  0  0  0  0  0  0  0  0  0
   -9.0071    1.6760   -8.5508 C   0  0  0  0  0  0  0  0  0  0  0  0
   -9.4741    2.2841   -7.2765 N   0  0  0  0  0  0  0  0  0  0  0  0
   -8.8461    3.6215   -7.2270 C   0  0  0  0  0  0  0  0  0  0  0  0
   -6.5718    6.1633  -13.1561 C   0  0  0  0  0  0  0  0  0  0  0  0
   -5.6269    6.6854  -13.9749 F   0  0  0  0  0  0  0  0  0  0  0  0
   -5.9805    6.1735  -11.9334 F   0  0  0  0  0  0  0  0  0  0  0  0
   -7.5826    7.0637  -13.1321 F   0  0  0  0  0  0  0  0  0  0  0  0
   -8.6616    4.4174  -15.5591 C   0  0  0  0  0  0  0  0  0  0  0  0
   -9.0501    4.3098  -16.9319 C   0  0  0  0  0  0  0  0  0  0  0  0
   -8.1679    4.5128  -17.9996 C   0  0  0  0  0  0  0  0  0  0  0  0
   -6.8878    4.8045  -17.5453 C   0  0  0  0  0  0  0  0  0  0  0  0
  1  2  1  0
  2  3  1  0
  3  4  1  0
  4  5  1  0
  4  6  2  0
  6  7  1  0
  7  8  1  0
  8  9  1  1
  9 10  1  0
 10 11  2  0
 11 12  1  0
 12 13  2  0
 13 14  1  0
 14 15  2  0
 14 16  1  0
 16 17  1  0
 17 18  1  0
  8 19  1  0
 19 20  1  0
 19 21  1  0
 19 22  1  0
  7 23  2  0
 23 24  1  0
 24 25  2  0
 25 26  1  0
 26  2  2  0
 26  6  1  0
 15 10  1  0
 18 13  1  0
M  END
>  <smiles>  (740) 
C102419-P140

>  <fragmenstein_outcome>  (740) 
acceptable

>  <inchikey>  (740) 
QWFFKUXZEUYZOR-UHFFFAOYSA-N

>  <fragmenstein_mode>  (740) 
expansion

>  <HIPPO Pose ID>  (740) 
18143

>  <Energy>  (740) 
148.75282

>  <fragmenstein_error>  (740) 


>  <tags>  (740) 
{'openbind_xx01zvns2b_c1_fragmenstein', 'fragmenstein_placed'}

>  <ref_pdb>  (740) 
1

>  <scratch_subdir>  (740) 
/opt/xchem-fragalysis-2/maxwin/BulkDock/SCRATCH/511027/C102419-P140

>  <alias>  (740) 
Nc1[nH]c(N)c2c([C@H](Nc3ccc4c(c3)CNC4)C(F)(F)F)cccc12

>  <HIPPO Compound ID>  (740) 
87280

>  <fragmenstein_runtime>  (740) 
3.231683

$$$$
CC(C)Nc1[nH]c(N)c2c(C(=O)Nc3ccc4c(c3)CNC4)cccc12
     RDKit          3D

 26 29  0  0  0  0  0  0  0  0999 V2000
   -4.6128    7.0559  -21.2755 C   0  0  0  0  0  0  0  0  0  0  0  0
   -4.2368    6.3970  -19.9512 C   0  0  0  0  0  0  0  0  0  0  0  0
   -2.9514    5.5824  -20.0706 C   0  0  0  0  0  0  0  0  0  0  0  0
   -5.3209    5.5511  -19.4673 N   0  0  0  0  0  0  0  0  0  0  0  0
   -5.5746    5.3716  -18.1448 C   0  0  0  0  0  0  0  0  0  0  0  0
   -4.6296    5.6456  -17.1800 N   0  0  0  0  0  0  0  0  0  0  0  0
   -5.1480    5.5154  -15.9173 C   0  0  0  0  0  0  0  0  0  0  0  0
   -4.3670    5.7839  -14.8531 N   0  0  0  0  0  0  0  0  0  0  0  0
   -6.4486    5.0964  -16.0593 C   0  0  0  0  0  0  0  0  0  0  0  0
   -7.4040    4.8446  -15.0698 C   0  0  0  0  0  0  0  0  0  0  0  0
   -7.2585    5.2001  -13.6445 C   0  0  0  0  0  0  0  0  0  0  0  0
   -6.7974    6.2375  -13.3685 O   0  0  0  0  0  0  0  0  0  0  0  0
   -7.8309    4.0861  -12.7399 N   0  0  0  0  0  0  0  0  0  0  0  0
   -8.0357    4.0551  -11.3649 C   0  0  0  0  0  0  0  0  0  0  0  0
   -7.8383    5.2017  -10.5769 C   0  0  0  0  0  0  0  0  0  0  0  0
   -8.0815    5.1759   -9.2002 C   0  0  0  0  0  0  0  0  0  0  0  0
   -8.5184    3.9916   -8.6394 C   0  0  0  0  0  0  0  0  0  0  0  0
   -8.6938    2.8509   -9.4171 C   0  0  0  0  0  0  0  0  0  0  0  0
   -8.4622    2.8619  -10.7808 C   0  0  0  0  0  0  0  0  0  0  0  0
   -9.1008    1.7206   -8.5334 C   0  0  0  0  0  0  0  0  0  0  0  0
   -9.5535    2.3630   -7.2726 N   0  0  0  0  0  0  0  0  0  0  0  0
   -8.8540    3.6658   -7.2222 C   0  0  0  0  0  0  0  0  0  0  0  0
   -8.6203    4.3662  -15.6223 C   0  0  0  0  0  0  0  0  0  0  0  0
   -8.8339    4.1657  -17.0261 C   0  0  0  0  0  0  0  0  0  0  0  0
   -7.8685    4.4451  -18.0176 C   0  0  0  0  0  0  0  0  0  0  0  0
   -6.6835    4.9216  -17.4623 C   0  0  0  0  0  0  0  0  0  0  0  0
  1  2  1  0
  2  3  1  0
  2  4  1  0
  4  5  1  0
  5  6  1  0
  6  7  1  0
  7  8  1  0
  7  9  2  0
  9 10  1  0
 10 11  1  0
 11 12  2  0
 11 13  1  0
 13 14  1  0
 14 15  2  0
 15 16  1  0
 16 17  2  0
 17 18  1  0
 18 19  2  0
 18 20  1  0
 20 21  1  0
 21 22  1  0
 10 23  2  0
 23 24  1  0
 24 25  2  0
 25 26  1  0
 26  5  2  0
 26  9  1  0
 19 14  1  0
 22 17  1  0
M  END
>  <smiles>  (741) 
C102423-P140

>  <fragmenstein_outcome>  (741) 
acceptable

>  <inchikey>  (741) 
ULZBYBUNZLIEHK-UHFFFAOYSA-N

>  <fragmenstein_mode>  (741) 
expansion

>  <HIPPO Pose ID>  (741) 
18145

>  <Energy>  (741) 
79.068667

>  <fragmenstein_error>  (741) 


>  <tags>  (741) 
{'openbind_xx01zvns2b_c1_fragmenstein', 'fragmenstein_placed'}

>  <ref_pdb>  (741) 
1

>  <scratch_subdir>  (741) 
/opt/xchem-fragalysis-2/maxwin/BulkDock/SCRATCH/511027/C102423-P140

>  <alias>  (741) 
CC(C)Nc1[nH]c(N)c2c(C(=O)Nc3ccc4c(c3)CNC4)cccc12

>  <HIPPO Compound ID>  (741) 
96915

>  <fragmenstein_runtime>  (741) 
4.756049

$$$$
NCc1[nH]c(N)c2c(C(=O)Nc3ccc4c(c3)CNC4)cccc12
     RDKit          3D

 24 27  0  0  0  0  0  0  0  0999 V2000
   -4.0349    5.9328  -19.8902 N   0  0  0  0  0  0  0  0  0  0  0  0
   -5.4480    5.6875  -19.6014 C   0  0  0  0  0  0  0  0  0  0  0  0
   -5.7060    5.5177  -18.1537 C   0  0  0  0  0  0  0  0  0  0  0  0
   -4.8380    5.9964  -17.1926 N   0  0  0  0  0  0  0  0  0  0  0  0
   -5.3800    5.8813  -15.9355 C   0  0  0  0  0  0  0  0  0  0  0  0
   -4.7173    6.3748  -14.8685 N   0  0  0  0  0  0  0  0  0  0  0  0
   -6.5949    5.2507  -16.0739 C   0  0  0  0  0  0  0  0  0  0  0  0
   -7.5441    4.9378  -15.0945 C   0  0  0  0  0  0  0  0  0  0  0  0
   -7.4795    5.3417  -13.6750 C   0  0  0  0  0  0  0  0  0  0  0  0
   -7.1378    6.4275  -13.4106 O   0  0  0  0  0  0  0  0  0  0  0  0
   -8.0012    4.2055  -12.7649 N   0  0  0  0  0  0  0  0  0  0  0  0
   -8.1177    4.1381  -11.3799 C   0  0  0  0  0  0  0  0  0  0  0  0
   -7.9232    5.2762  -10.5799 C   0  0  0  0  0  0  0  0  0  0  0  0
   -8.1183    5.2203   -9.1964 C   0  0  0  0  0  0  0  0  0  0  0  0
   -8.5148    4.0181   -8.6431 C   0  0  0  0  0  0  0  0  0  0  0  0
   -8.6826    2.8843   -9.4325 C   0  0  0  0  0  0  0  0  0  0  0  0
   -8.4842    2.9213  -10.8009 C   0  0  0  0  0  0  0  0  0  0  0  0
   -9.0659    1.7377   -8.5585 C   0  0  0  0  0  0  0  0  0  0  0  0
   -9.5107    2.3596   -7.2845 N   0  0  0  0  0  0  0  0  0  0  0  0
   -8.8263    3.6700   -7.2257 C   0  0  0  0  0  0  0  0  0  0  0  0
   -8.6956    4.3244  -15.6568 C   0  0  0  0  0  0  0  0  0  0  0  0
   -8.8558    4.0496  -17.0539 C   0  0  0  0  0  0  0  0  0  0  0  0
   -7.8916    4.3692  -18.0314 C   0  0  0  0  0  0  0  0  0  0  0  0
   -6.7741    4.9813  -17.4684 C   0  0  0  0  0  0  0  0  0  0  0  0
  1  2  1  0
  2  3  1  0
  3  4  1  0
  4  5  1  0
  5  6  1  0
  5  7  2  0
  7  8  1  0
  8  9  1  0
  9 10  2  0
  9 11  1  0
 11 12  1  0
 12 13  2  0
 13 14  1  0
 14 15  2  0
 15 16  1  0
 16 17  2  0
 16 18  1  0
 18 19  1  0
 19 20  1  0
  8 21  2  0
 21 22  1  0
 22 23  2  0
 23 24  1  0
 24  3  2  0
 24  7  1  0
 17 12  1  0
 20 15  1  0
M  END
>  <smiles>  (742) 
C102425-P140

>  <fragmenstein_outcome>  (742) 
acceptable

>  <inchikey>  (742) 
GLJPWQGHRLNGLL-UHFFFAOYSA-N

>  <fragmenstein_mode>  (742) 
expansion

>  <HIPPO Pose ID>  (742) 
18148

>  <Energy>  (742) 
41.859258

>  <fragmenstein_error>  (742) 


>  <tags>  (742) 
{'openbind_xx01zvns2b_c1_fragmenstein', 'fragmenstein_placed'}

>  <ref_pdb>  (742) 
1

>  <scratch_subdir>  (742) 
/opt/xchem-fragalysis-2/maxwin/BulkDock/SCRATCH/511027/C102425-P140

>  <alias>  (742) 
NCc1[nH]c(N)c2c(C(=O)Nc3ccc4c(c3)CNC4)cccc12

>  <HIPPO Compound ID>  (742) 
80693

>  <fragmenstein_runtime>  (742) 
4.061575

$$$$
O=C(Nc1ccc2c(c1)CNC2)c1cccc2c1C1(CCNCC1)NO2
     RDKit          3D

 26 30  0  0  0  0  0  0  0  0999 V2000
   -7.6785    6.5587  -13.5671 O   0  0  0  0  0  0  0  0  0  0  0  0
   -7.8764    5.4344  -13.8077 C   0  0  0  0  0  0  0  0  0  0  0  0
   -8.2032    4.2539  -12.8707 N   0  0  0  0  0  0  0  0  0  0  0  0
   -8.2601    4.1911  -11.4807 C   0  0  0  0  0  0  0  0  0  0  0  0
   -8.0668    5.3400  -10.6966 C   0  0  0  0  0  0  0  0  0  0  0  0
   -8.1627    5.2799   -9.3036 C   0  0  0  0  0  0  0  0  0  0  0  0
   -8.4628    4.0629   -8.7208 C   0  0  0  0  0  0  0  0  0  0  0  0
   -8.6430    2.9241   -9.4935 C   0  0  0  0  0  0  0  0  0  0  0  0
   -8.5337    2.9637  -10.8742 C   0  0  0  0  0  0  0  0  0  0  0  0
   -8.9529    1.7647   -8.6116 C   0  0  0  0  0  0  0  0  0  0  0  0
   -9.0405    2.3012   -7.2277 N   0  0  0  0  0  0  0  0  0  0  0  0
   -8.6647    3.7289   -7.2844 C   0  0  0  0  0  0  0  0  0  0  0  0
   -7.7897    4.9895  -15.2129 C   0  0  0  0  0  0  0  0  0  0  0  0
   -8.9192    4.4411  -15.8346 C   0  0  0  0  0  0  0  0  0  0  0  0
   -8.8957    4.1202  -17.1976 C   0  0  0  0  0  0  0  0  0  0  0  0
   -7.7336    4.3185  -17.9381 C   0  0  0  0  0  0  0  0  0  0  0  0
   -6.6175    4.8038  -17.2807 C   0  0  0  0  0  0  0  0  0  0  0  0
   -6.6230    5.1545  -15.9436 C   0  0  0  0  0  0  0  0  0  0  0  0
   -5.2331    5.5294  -15.5465 C   0  0  0  0  0  0  0  0  0  0  0  0
   -4.7900    4.8265  -14.2470 C   0  0  0  0  0  0  0  0  0  0  0  0
   -3.2992    4.9888  -13.9783 C   0  0  0  0  0  0  0  0  0  0  0  0
   -2.7622    6.2796  -14.4307 N   0  0  0  0  0  0  0  0  0  0  0  0
   -3.7939    7.3246  -14.4195 C   0  0  0  0  0  0  0  0  0  0  0  0
   -4.9847    7.0448  -15.3599 C   0  0  0  0  0  0  0  0  0  0  0  0
   -4.4290    5.0610  -16.7226 N   0  0  0  0  0  0  0  0  0  0  0  0
   -5.3831    4.9346  -17.8505 O   0  0  0  0  0  0  0  0  0  0  0  0
  1  2  2  0
  2  3  1  0
  3  4  1  0
  4  5  2  0
  5  6  1  0
  6  7  2  0
  7  8  1  0
  8  9  2  0
  8 10  1  0
 10 11  1  0
 11 12  1  0
  2 13  1  0
 13 14  2  0
 14 15  1  0
 15 16  2  0
 16 17  1  0
 17 18  2  0
 18 19  1  0
 19 20  1  0
 20 21  1  0
 21 22  1  0
 22 23  1  0
 23 24  1  0
 19 25  1  0
 25 26  1  0
  9  4  1  0
 18 13  1  0
 24 19  1  0
 12  7  1  0
 26 17  1  0
M  END
>  <smiles>  (743) 
C102431-P140

>  <fragmenstein_outcome>  (743) 
acceptable

>  <inchikey>  (743) 
XIHDHKZRIGHQRP-UHFFFAOYSA-N

>  <fragmenstein_mode>  (743) 
expansion

>  <HIPPO Pose ID>  (743) 
18149

>  <Energy>  (743) 
61.862245

>  <fragmenstein_error>  (743) 


>  <tags>  (743) 
{'openbind_xx01zvns2b_c1_fragmenstein', 'fragmenstein_placed'}

>  <ref_pdb>  (743) 
1

>  <scratch_subdir>  (743) 
/opt/xchem-fragalysis-2/maxwin/BulkDock/SCRATCH/511027/C102431-P140

>  <alias>  (743) 
O=C(Nc1ccc2c(c1)CNC2)c1cccc2c1C1(CCNCC1)NO2

>  <HIPPO Compound ID>  (743) 
102431

>  <fragmenstein_runtime>  (743) 
4.051311

$$$$
Nc1[nH]c(N)c2c(C(=O)Nc3ccc4c(c3)CNC4)cccc12
     RDKit          3D

 23 26  0  0  0  0  0  0  0  0999 V2000
   -4.9853    5.1344  -19.4746 N   0  0  0  0  0  0  0  0  0  0  0  0
   -5.4436    5.1949  -18.2081 C   0  0  0  0  0  0  0  0  0  0  0  0
   -4.6386    5.7002  -17.2131 N   0  0  0  0  0  0  0  0  0  0  0  0
   -5.3038    5.7355  -16.0094 C   0  0  0  0  0  0  0  0  0  0  0  0
   -4.7008    6.2526  -14.9182 N   0  0  0  0  0  0  0  0  0  0  0  0
   -6.5428    5.1743  -16.2190 C   0  0  0  0  0  0  0  0  0  0  0  0
   -7.5713    4.9479  -15.2963 C   0  0  0  0  0  0  0  0  0  0  0  0
   -7.5564    5.3865  -13.8865 C   0  0  0  0  0  0  0  0  0  0  0  0
   -7.2319    6.4829  -13.6435 O   0  0  0  0  0  0  0  0  0  0  0  0
   -8.0470    4.2551  -12.9516 N   0  0  0  0  0  0  0  0  0  0  0  0
   -8.1467    4.2082  -11.5620 C   0  0  0  0  0  0  0  0  0  0  0  0
   -7.9324    5.3557  -10.7823 C   0  0  0  0  0  0  0  0  0  0  0  0
   -8.0636    5.3113   -9.3909 C   0  0  0  0  0  0  0  0  0  0  0  0
   -8.4074    4.1081   -8.8027 C   0  0  0  0  0  0  0  0  0  0  0  0
   -8.6124    2.9701   -9.5696 C   0  0  0  0  0  0  0  0  0  0  0  0
   -8.4857    2.9985  -10.9500 C   0  0  0  0  0  0  0  0  0  0  0  0
   -8.9681    1.8266   -8.6831 C   0  0  0  0  0  0  0  0  0  0  0  0
   -8.9738    2.3551   -7.2929 N   0  0  0  0  0  0  0  0  0  0  0  0
   -8.6367    3.7919   -7.3664 C   0  0  0  0  0  0  0  0  0  0  0  0
   -8.6981    4.3371  -15.9034 C   0  0  0  0  0  0  0  0  0  0  0  0
   -8.7672    3.9979  -17.2962 C   0  0  0  0  0  0  0  0  0  0  0  0
   -7.7214    4.2248  -18.2178 C   0  0  0  0  0  0  0  0  0  0  0  0
   -6.6229    4.8249  -17.6068 C   0  0  0  0  0  0  0  0  0  0  0  0
  1  2  1  0
  2  3  1  0
  3  4  1  0
  4  5  1  0
  4  6  2  0
  6  7  1  0
  7  8  1  0
  8  9  2  0
  8 10  1  0
 10 11  1  0
 11 12  2  0
 12 13  1  0
 13 14  2  0
 14 15  1  0
 15 16  2  0
 15 17  1  0
 17 18  1  0
 18 19  1  0
  7 20  2  0
 20 21  1  0
 21 22  2  0
 22 23  1  0
 23  2  2  0
 23  6  1  0
 16 11  1  0
 19 14  1  0
M  END
>  <smiles>  (744) 
C102427-P140

>  <fragmenstein_outcome>  (744) 
acceptable

>  <inchikey>  (744) 
IFVXVEITDNONAQ-UHFFFAOYSA-N

>  <fragmenstein_mode>  (744) 
expansion

>  <HIPPO Pose ID>  (744) 
18150

>  <Energy>  (744) 
71.949699

>  <fragmenstein_error>  (744) 


>  <tags>  (744) 
{'openbind_xx01zvns2b_c1_fragmenstein', 'fragmenstein_placed'}

>  <ref_pdb>  (744) 
1

>  <scratch_subdir>  (744) 
/opt/xchem-fragalysis-2/maxwin/BulkDock/SCRATCH/511027/C102427-P140

>  <alias>  (744) 
Nc1[nH]c(N)c2c(C(=O)Nc3ccc4c(c3)CNC4)cccc12

>  <HIPPO Compound ID>  (744) 
91583

>  <fragmenstein_runtime>  (744) 
4.098127

$$$$
Nc1[nH]oc2cc(=O)cc(C(=O)Nc3ccc4c(c3)CNC4)c1-2
     RDKit          3D

 23 26  0  0  0  0  0  0  0  0999 V2000
   -4.7623    6.3646  -15.0720 N   0  0  0  0  0  0  0  0  0  0  0  0
   -5.3188    5.7026  -16.1257 C   0  0  0  0  0  0  0  0  0  0  0  0
   -4.6418    5.5505  -17.3243 N   0  0  0  0  0  0  0  0  0  0  0  0
   -5.4935    5.0366  -18.3270 O   0  0  0  0  0  0  0  0  0  0  0  0
   -6.6499    4.7498  -17.6311 C   0  0  0  0  0  0  0  0  0  0  0  0
   -7.7623    4.2209  -18.1414 C   0  0  0  0  0  0  0  0  0  0  0  0
   -8.9118    4.0280  -17.2342 C   0  0  0  0  0  0  0  0  0  0  0  0
   -9.9692    3.5659  -17.6419 O   0  0  0  0  0  0  0  0  0  0  0  0
   -8.7715    4.4081  -15.7995 C   0  0  0  0  0  0  0  0  0  0  0  0
   -7.6315    4.9426  -15.3271 C   0  0  0  0  0  0  0  0  0  0  0  0
   -7.5881    5.4164  -13.9083 C   0  0  0  0  0  0  0  0  0  0  0  0
   -7.2590    6.5106  -13.6610 O   0  0  0  0  0  0  0  0  0  0  0  0
   -8.0631    4.2735  -12.9723 N   0  0  0  0  0  0  0  0  0  0  0  0
   -8.1373    4.2143  -11.5811 C   0  0  0  0  0  0  0  0  0  0  0  0
   -7.9156    5.3586  -10.7979 C   0  0  0  0  0  0  0  0  0  0  0  0
   -8.0422    5.3101   -9.4062 C   0  0  0  0  0  0  0  0  0  0  0  0
   -8.3890    4.1068   -8.8208 C   0  0  0  0  0  0  0  0  0  0  0  0
   -8.5982    2.9712   -9.5902 C   0  0  0  0  0  0  0  0  0  0  0  0
   -8.4755    3.0031  -10.9714 C   0  0  0  0  0  0  0  0  0  0  0  0
   -8.9594    1.8278   -8.7051 C   0  0  0  0  0  0  0  0  0  0  0  0
   -8.9674    2.3553   -7.3148 N   0  0  0  0  0  0  0  0  0  0  0  0
   -8.6223    3.7899   -7.3851 C   0  0  0  0  0  0  0  0  0  0  0  0
   -6.5367    5.1478  -16.2474 C   0  0  0  0  0  0  0  0  0  0  0  0
  1  2  1  0
  2  3  1  0
  3  4  1  0
  4  5  1  0
  5  6  2  0
  6  7  1  0
  7  8  2  0
  7  9  1  0
  9 10  2  0
 10 11  1  0
 11 12  2  0
 11 13  1  0
 13 14  1  0
 14 15  2  0
 15 16  1  0
 16 17  2  0
 17 18  1  0
 18 19  2  0
 18 20  1  0
 20 21  1  0
 21 22  1  0
 10 23  1  0
 23  2  2  0
 23  5  1  0
 19 14  1  0
 22 17  1  0
M  END
>  <smiles>  (745) 
C102432-P140

>  <fragmenstein_outcome>  (745) 
acceptable

>  <inchikey>  (745) 
VXPJQZKSHIVWMO-UHFFFAOYSA-N

>  <fragmenstein_mode>  (745) 
expansion

>  <HIPPO Pose ID>  (745) 
18151

>  <Energy>  (745) 
-1.070376

>  <fragmenstein_error>  (745) 


>  <tags>  (745) 
{'openbind_xx01zvns2b_c1_fragmenstein', 'fragmenstein_placed'}

>  <ref_pdb>  (745) 
1

>  <scratch_subdir>  (745) 
/opt/xchem-fragalysis-2/maxwin/BulkDock/SCRATCH/511027/C102432-P140

>  <alias>  (745) 
Nc1[nH]oc2cc(=O)cc(C(=O)Nc3ccc4c(c3)CNC4)c1-2

>  <HIPPO Compound ID>  (745) 
102432

>  <fragmenstein_runtime>  (745) 
2.327665

$$$$
C[C@@H](CN)c1oc2cccc(C(=O)Nc3ccc4c(c3)CNC4)c2c1N
     RDKit          3D

 26 29  0  0  0  0  0  0  0  0999 V2000
   -3.2153    7.5652  -18.2291 C   0  0  0  0  0  0  0  0  0  0  0  0
   -3.5962    6.1340  -18.6198 C   0  0  1  0  0  0  0  0  0  0  0  0
   -2.3870    5.1811  -18.5980 C   0  0  0  0  0  0  0  0  0  0  0  0
   -1.3420    5.5647  -19.5590 N   0  0  0  0  0  0  0  0  0  0  0  0
   -4.7485    5.6255  -17.7960 C   0  0  0  0  0  0  0  0  0  0  0  0
   -5.7573    5.0788  -18.5378 O   0  0  0  0  0  0  0  0  0  0  0  0
   -6.7743    4.7642  -17.6963 C   0  0  0  0  0  0  0  0  0  0  0  0
   -7.9954    4.2266  -18.1008 C   0  0  0  0  0  0  0  0  0  0  0  0
   -8.9540    4.0140  -17.1136 C   0  0  0  0  0  0  0  0  0  0  0  0
   -8.6732    4.3042  -15.7803 C   0  0  0  0  0  0  0  0  0  0  0  0
   -7.4163    4.8198  -15.3915 C   0  0  0  0  0  0  0  0  0  0  0  0
   -7.2049    5.2096  -13.9692 C   0  0  0  0  0  0  0  0  0  0  0  0
   -6.7596    6.2655  -13.7340 O   0  0  0  0  0  0  0  0  0  0  0  0
   -7.7385    4.1080  -13.0154 N   0  0  0  0  0  0  0  0  0  0  0  0
   -7.9162    4.1159  -11.6319 C   0  0  0  0  0  0  0  0  0  0  0  0
   -7.7222    5.2772  -10.8688 C   0  0  0  0  0  0  0  0  0  0  0  0
   -7.9626    5.2758   -9.4885 C   0  0  0  0  0  0  0  0  0  0  0  0
   -8.3945    4.1024   -8.8971 C   0  0  0  0  0  0  0  0  0  0  0  0
   -8.5716    2.9457   -9.6477 C   0  0  0  0  0  0  0  0  0  0  0  0
   -8.3399    2.9336  -11.0133 C   0  0  0  0  0  0  0  0  0  0  0  0
   -8.9868    1.8337   -8.7406 C   0  0  0  0  0  0  0  0  0  0  0  0
   -9.4063    2.4992   -7.4795 N   0  0  0  0  0  0  0  0  0  0  0  0
   -8.7144    3.8065   -7.4696 C   0  0  0  0  0  0  0  0  0  0  0  0
   -6.4407    5.0744  -16.3827 C   0  0  0  0  0  0  0  0  0  0  0  0
   -5.1159    5.6074  -16.4616 C   0  0  0  0  0  0  0  0  0  0  0  0
   -4.3909    6.0501  -15.4153 N   0  0  0  0  0  0  0  0  0  0  0  0
  2  1  1  1
  2  3  1  0
  3  4  1  0
  2  5  1  0
  5  6  1  0
  6  7  1  0
  7  8  2  0
  8  9  1  0
  9 10  2  0
 10 11  1  0
 11 12  1  0
 12 13  2  0
 12 14  1  0
 14 15  1  0
 15 16  2  0
 16 17  1  0
 17 18  2  0
 18 19  1  0
 19 20  2  0
 19 21  1  0
 21 22  1  0
 22 23  1  0
 11 24  2  0
 24 25  1  0
 25 26  1  0
 25  5  2  0
 24  7  1  0
 20 15  1  0
 23 18  1  0
M  END
>  <smiles>  (746) 
C102433-P140

>  <fragmenstein_outcome>  (746) 
acceptable

>  <inchikey>  (746) 
USRWISINKPFQDR-UHFFFAOYSA-N

>  <fragmenstein_mode>  (746) 
expansion

>  <HIPPO Pose ID>  (746) 
18152

>  <Energy>  (746) 
57.876077

>  <fragmenstein_error>  (746) 


>  <tags>  (746) 
{'openbind_xx01zvns2b_c1_fragmenstein', 'fragmenstein_placed'}

>  <ref_pdb>  (746) 
1

>  <scratch_subdir>  (746) 
/opt/xchem-fragalysis-2/maxwin/BulkDock/SCRATCH/511027/C102433-P140

>  <alias>  (746) 
C[C@@H](CN)c1oc2cccc(C(=O)Nc3ccc4c(c3)CNC4)c2c1N

>  <HIPPO Compound ID>  (746) 
102433

>  <fragmenstein_runtime>  (746) 
3.337512

$$$$
C=Cc1[nH]c(N)c2c(C(=O)Nc3ccc4c(c3)CNC4)cccc12
     RDKit          3D

 24 27  0  0  0  0  0  0  0  0999 V2000
   -4.4685    6.4300  -19.9535 C   0  0  0  0  0  0  0  0  0  0  0  0
   -5.3235    5.5249  -19.4609 C   0  0  0  0  0  0  0  0  0  0  0  0
   -5.6869    5.4400  -18.0975 C   0  0  0  0  0  0  0  0  0  0  0  0
   -4.8280    5.8896  -17.1134 N   0  0  0  0  0  0  0  0  0  0  0  0
   -5.4132    5.8212  -15.8720 C   0  0  0  0  0  0  0  0  0  0  0  0
   -4.7614    6.3035  -14.7924 N   0  0  0  0  0  0  0  0  0  0  0  0
   -6.6405    5.2250  -16.0388 C   0  0  0  0  0  0  0  0  0  0  0  0
   -7.6133    4.9350  -15.0776 C   0  0  0  0  0  0  0  0  0  0  0  0
   -7.5540    5.3394  -13.6600 C   0  0  0  0  0  0  0  0  0  0  0  0
   -7.2164    6.4267  -13.3972 O   0  0  0  0  0  0  0  0  0  0  0  0
   -8.0610    4.1999  -12.7478 N   0  0  0  0  0  0  0  0  0  0  0  0
   -8.1653    4.1300  -11.3622 C   0  0  0  0  0  0  0  0  0  0  0  0
   -7.9644    5.2678  -10.5630 C   0  0  0  0  0  0  0  0  0  0  0  0
   -8.1441    5.2104   -9.1779 C   0  0  0  0  0  0  0  0  0  0  0  0
   -8.5325    4.0068   -8.6224 C   0  0  0  0  0  0  0  0  0  0  0  0
   -8.7043    2.8730   -9.4112 C   0  0  0  0  0  0  0  0  0  0  0  0
   -8.5200    2.9112  -10.7813 C   0  0  0  0  0  0  0  0  0  0  0  0
   -9.0767    1.7251   -8.5345 C   0  0  0  0  0  0  0  0  0  0  0  0
   -9.5172    2.3463   -7.2589 N   0  0  0  0  0  0  0  0  0  0  0  0
   -8.8344    3.6575   -7.2032 C   0  0  0  0  0  0  0  0  0  0  0  0
   -8.7586    4.3291  -15.6555 C   0  0  0  0  0  0  0  0  0  0  0  0
   -8.8947    4.0470  -17.0543 C   0  0  0  0  0  0  0  0  0  0  0  0
   -7.9067    4.3453  -18.0154 C   0  0  0  0  0  0  0  0  0  0  0  0
   -6.7902    4.9453  -17.4346 C   0  0  0  0  0  0  0  0  0  0  0  0
  1  2  2  0
  2  3  1  0
  3  4  1  0
  4  5  1  0
  5  6  1  0
  5  7  2  0
  7  8  1  0
  8  9  1  0
  9 10  2  0
  9 11  1  0
 11 12  1  0
 12 13  2  0
 13 14  1  0
 14 15  2  0
 15 16  1  0
 16 17  2  0
 16 18  1  0
 18 19  1  0
 19 20  1  0
  8 21  2  0
 21 22  1  0
 22 23  2  0
 23 24  1  0
 24  3  2  0
 24  7  1  0
 17 12  1  0
 20 15  1  0
M  END
>  <smiles>  (747) 
C102435-P140

>  <fragmenstein_outcome>  (747) 
acceptable

>  <inchikey>  (747) 
JFDVQWYISVOBTF-UHFFFAOYSA-N

>  <fragmenstein_mode>  (747) 
expansion

>  <HIPPO Pose ID>  (747) 
18153

>  <Energy>  (747) 
71.360867

>  <fragmenstein_error>  (747) 


>  <tags>  (747) 
{'openbind_xx01zvns2b_c1_fragmenstein', 'fragmenstein_placed'}

>  <ref_pdb>  (747) 
1

>  <scratch_subdir>  (747) 
/opt/xchem-fragalysis-2/maxwin/BulkDock/SCRATCH/511027/C102435-P140

>  <alias>  (747) 
C=Cc1[nH]c(N)c2c(C(=O)Nc3ccc4c(c3)CNC4)cccc12

>  <HIPPO Compound ID>  (747) 
98061

>  <fragmenstein_runtime>  (747) 
3.685858

$$$$
Cc1cc(C(=O)Nc2ccc3c(c2)CNC3)c2c(N)noc2c1
     RDKit          3D

 23 26  0  0  0  0  0  0  0  0999 V2000
   -9.9351    3.9777  -17.6862 C   0  0  0  0  0  0  0  0  0  0  0  0
   -8.6259    4.3419  -17.0753 C   0  0  0  0  0  0  0  0  0  0  0  0
   -8.5129    4.5582  -15.6989 C   0  0  0  0  0  0  0  0  0  0  0  0
   -7.2956    4.9851  -15.1424 C   0  0  0  0  0  0  0  0  0  0  0  0
   -7.2262    5.3613  -13.7134 C   0  0  0  0  0  0  0  0  0  0  0  0
   -6.7823    6.4067  -13.4371 O   0  0  0  0  0  0  0  0  0  0  0  0
   -7.8758    4.2796  -12.8186 N   0  0  0  0  0  0  0  0  0  0  0  0
   -8.0238    4.2194  -11.4359 C   0  0  0  0  0  0  0  0  0  0  0  0
   -7.7865    5.3477  -10.6361 C   0  0  0  0  0  0  0  0  0  0  0  0
   -7.9745    5.2942   -9.2522 C   0  0  0  0  0  0  0  0  0  0  0  0
   -8.3851    4.0987   -8.6927 C   0  0  0  0  0  0  0  0  0  0  0  0
   -8.6105    2.9792   -9.4813 C   0  0  0  0  0  0  0  0  0  0  0  0
   -8.4447    3.0202  -10.8563 C   0  0  0  0  0  0  0  0  0  0  0  0
   -9.0311    1.8384   -8.6212 C   0  0  0  0  0  0  0  0  0  0  0  0
   -9.0018    2.3328   -7.2195 N   0  0  0  0  0  0  0  0  0  0  0  0
   -8.6749    3.7733   -7.2693 C   0  0  0  0  0  0  0  0  0  0  0  0
   -6.1878    5.1791  -15.9852 C   0  0  0  0  0  0  0  0  0  0  0  0
   -4.8406    5.6078  -15.8840 C   0  0  0  0  0  0  0  0  0  0  0  0
   -4.2576    6.0000  -14.7328 N   0  0  0  0  0  0  0  0  0  0  0  0
   -4.2255    5.5947  -17.0692 N   0  0  0  0  0  0  0  0  0  0  0  0
   -5.1707    5.1524  -17.9797 O   0  0  0  0  0  0  0  0  0  0  0  0
   -6.3387    4.9114  -17.3329 C   0  0  0  0  0  0  0  0  0  0  0  0
   -7.5180    4.4805  -17.9213 C   0  0  0  0  0  0  0  0  0  0  0  0
  1  2  1  0
  2  3  2  0
  3  4  1  0
  4  5  1  0
  5  6  2  0
  5  7  1  0
  7  8  1  0
  8  9  2  0
  9 10  1  0
 10 11  2  0
 11 12  1  0
 12 13  2  0
 12 14  1  0
 14 15  1  0
 15 16  1  0
  4 17  2  0
 17 18  1  0
 18 19  1  0
 18 20  2  0
 20 21  1  0
 21 22  1  0
 22 23  2  0
 23  2  1  0
 13  8  1  0
 22 17  1  0
 16 11  1  0
M  END
>  <smiles>  (748) 
C102438-P140

>  <fragmenstein_outcome>  (748) 
acceptable

>  <inchikey>  (748) 
AHSFJJGNZMTPFI-UHFFFAOYSA-N

>  <fragmenstein_mode>  (748) 
expansion

>  <HIPPO Pose ID>  (748) 
18154

>  <Energy>  (748) 
17.291206

>  <fragmenstein_error>  (748) 


>  <tags>  (748) 
{'openbind_xx01zvns2b_c1_fragmenstein', 'fragmenstein_placed'}

>  <ref_pdb>  (748) 
1

>  <scratch_subdir>  (748) 
/opt/xchem-fragalysis-2/maxwin/BulkDock/SCRATCH/511027/C102438-P140

>  <alias>  (748) 
Cc1cc(C(=O)Nc2ccc3c(c2)CNC3)c2c(N)noc2c1

>  <HIPPO Compound ID>  (748) 
75716

>  <fragmenstein_runtime>  (748) 
2.159132

$$$$
Nc1noc2cccc(C(=O)Nc3ccc4c(c3)CNC4)c12
     RDKit          3D

 22 25  0  0  0  0  0  0  0  0999 V2000
   -4.4426    5.7036  -15.4074 N   0  0  0  0  0  0  0  0  0  0  0  0
   -5.1946    5.3610  -16.4686 C   0  0  0  0  0  0  0  0  0  0  0  0
   -4.7440    5.3847  -17.7235 N   0  0  0  0  0  0  0  0  0  0  0  0
   -5.7955    4.9394  -18.5064 O   0  0  0  0  0  0  0  0  0  0  0  0
   -6.8663    4.6690  -17.7152 C   0  0  0  0  0  0  0  0  0  0  0  0
   -8.1036    4.1999  -18.1487 C   0  0  0  0  0  0  0  0  0  0  0  0
   -9.0837    4.0191  -17.1730 C   0  0  0  0  0  0  0  0  0  0  0  0
   -8.8122    4.2799  -15.8295 C   0  0  0  0  0  0  0  0  0  0  0  0
   -7.5429    4.7331  -15.4201 C   0  0  0  0  0  0  0  0  0  0  0  0
   -7.3155    5.1220  -14.0060 C   0  0  0  0  0  0  0  0  0  0  0  0
   -6.8680    6.1817  -13.7934 O   0  0  0  0  0  0  0  0  0  0  0  0
   -7.8300    4.0339  -13.0286 N   0  0  0  0  0  0  0  0  0  0  0  0
   -7.9832    4.0606  -11.6419 C   0  0  0  0  0  0  0  0  0  0  0  0
   -7.7319    5.2203  -10.8924 C   0  0  0  0  0  0  0  0  0  0  0  0
   -7.9462    5.2391   -9.5079 C   0  0  0  0  0  0  0  0  0  0  0  0
   -8.3983    4.0836   -8.8971 C   0  0  0  0  0  0  0  0  0  0  0  0
   -8.6185    2.9250   -9.6329 C   0  0  0  0  0  0  0  0  0  0  0  0
   -8.4253    2.8968  -11.0038 C   0  0  0  0  0  0  0  0  0  0  0  0
   -9.0237    1.8272   -8.7049 C   0  0  0  0  0  0  0  0  0  0  0  0
   -9.4090    2.5113   -7.4436 N   0  0  0  0  0  0  0  0  0  0  0  0
   -8.6993    3.8092   -7.4611 C   0  0  0  0  0  0  0  0  0  0  0  0
   -6.5475    4.9386  -16.3949 C   0  0  0  0  0  0  0  0  0  0  0  0
  1  2  1  0
  2  3  2  0
  3  4  1  0
  4  5  1  0
  5  6  2  0
  6  7  1  0
  7  8  2  0
  8  9  1  0
  9 10  1  0
 10 11  2  0
 10 12  1  0
 12 13  1  0
 13 14  2  0
 14 15  1  0
 15 16  2  0
 16 17  1  0
 17 18  2  0
 17 19  1  0
 19 20  1  0
 20 21  1  0
  9 22  2  0
 22  2  1  0
 22  5  1  0
 18 13  1  0
 21 16  1  0
M  END
>  <smiles>  (749) 
C133-P140

>  <fragmenstein_outcome>  (749) 
acceptable

>  <inchikey>  (749) 
VBWILDQPPYPBPN-UHFFFAOYSA-N

>  <fragmenstein_mode>  (749) 
expansion

>  <HIPPO Pose ID>  (749) 
18156

>  <Energy>  (749) 
16.005795

>  <fragmenstein_error>  (749) 


>  <tags>  (749) 
{'openbind_xx01zvns2b_c1_fragmenstein', 'fragmenstein_placed'}

>  <ref_pdb>  (749) 
1

>  <scratch_subdir>  (749) 
/opt/xchem-fragalysis-2/maxwin/BulkDock/SCRATCH/511027/C133-P140

>  <alias>  (749) 
Nc1noc2cccc(C(=O)Nc3ccc4c(c3)CNC4)c12

>  <HIPPO Compound ID>  (749) 
70892

>  <fragmenstein_runtime>  (749) 
3.123234

$$$$
Nc1c(C(F)(F)F)oc2cccc(C(=O)Nc3ccc4c(c3)CNC4)c12
     RDKit          3D

 26 29  0  0  0  0  0  0  0  0999 V2000
   -4.5925    5.6001  -15.6558 N   0  0  0  0  0  0  0  0  0  0  0  0
   -5.4501    5.2331  -16.6245 C   0  0  0  0  0  0  0  0  0  0  0  0
   -5.2090    5.2455  -17.9817 C   0  0  0  0  0  0  0  0  0  0  0  0
   -4.1114    5.7217  -18.8164 C   0  0  0  0  0  0  0  0  0  0  0  0
   -3.0914    6.1704  -18.0428 F   0  0  0  0  0  0  0  0  0  0  0  0
   -4.5032    6.7694  -19.5897 F   0  0  0  0  0  0  0  0  0  0  0  0
   -3.5920    4.7829  -19.6468 F   0  0  0  0  0  0  0  0  0  0  0  0
   -6.2917    4.7856  -18.6508 O   0  0  0  0  0  0  0  0  0  0  0  0
   -7.2516    4.5555  -17.7322 C   0  0  0  0  0  0  0  0  0  0  0  0
   -8.5360    4.1587  -18.0662 C   0  0  0  0  0  0  0  0  0  0  0  0
   -9.4334    4.0396  -17.0166 C   0  0  0  0  0  0  0  0  0  0  0  0
   -9.0272    4.2576  -15.6998 C   0  0  0  0  0  0  0  0  0  0  0  0
   -7.7089    4.6385  -15.3847 C   0  0  0  0  0  0  0  0  0  0  0  0
   -7.3780    5.0146  -13.9817 C   0  0  0  0  0  0  0  0  0  0  0  0
   -6.8089    6.0187  -13.7909 O   0  0  0  0  0  0  0  0  0  0  0  0
   -7.9717    3.9889  -12.9795 N   0  0  0  0  0  0  0  0  0  0  0  0
   -8.0677    4.0326  -11.5885 C   0  0  0  0  0  0  0  0  0  0  0  0
   -7.8045    5.2060  -10.8647 C   0  0  0  0  0  0  0  0  0  0  0  0
   -7.9931    5.2487   -9.4759 C   0  0  0  0  0  0  0  0  0  0  0  0
   -8.4319    4.1036   -8.8354 C   0  0  0  0  0  0  0  0  0  0  0  0
   -8.6620    2.9317   -9.5468 C   0  0  0  0  0  0  0  0  0  0  0  0
   -8.4938    2.8796  -10.9205 C   0  0  0  0  0  0  0  0  0  0  0  0
   -9.0508    1.8496   -8.5942 C   0  0  0  0  0  0  0  0  0  0  0  0
   -9.4201    2.5555   -7.3400 N   0  0  0  0  0  0  0  0  0  0  0  0
   -8.7084    3.8528   -7.3896 C   0  0  0  0  0  0  0  0  0  0  0  0
   -6.7956    4.8136  -16.4431 C   0  0  0  0  0  0  0  0  0  0  0  0
  1  2  1  0
  2  3  2  0
  3  4  1  0
  4  5  1  0
  4  6  1  0
  4  7  1  0
  3  8  1  0
  8  9  1  0
  9 10  2  0
 10 11  1  0
 11 12  2  0
 12 13  1  0
 13 14  1  0
 14 15  2  0
 14 16  1  0
 16 17  1  0
 17 18  2  0
 18 19  1  0
 19 20  2  0
 20 21  1  0
 21 22  2  0
 21 23  1  0
 23 24  1  0
 24 25  1  0
 13 26  2  0
 26  2  1  0
 26  9  1  0
 22 17  1  0
 25 20  1  0
M  END
>  <smiles>  (750) 
C102521-P140

>  <fragmenstein_outcome>  (750) 
acceptable

>  <inchikey>  (750) 
HUGPCRXFFAETQM-UHFFFAOYSA-N

>  <fragmenstein_mode>  (750) 
expansion

>  <HIPPO Pose ID>  (750) 
18169

>  <Energy>  (750) 
79.89784

>  <fragmenstein_error>  (750) 


>  <tags>  (750) 
{'openbind_xx01zvns2b_c1_fragmenstein', 'fragmenstein_placed'}

>  <ref_pdb>  (750) 
1

>  <scratch_subdir>  (750) 
/opt/xchem-fragalysis-2/maxwin/BulkDock/SCRATCH/511027/C102521-P140

>  <alias>  (750) 
Nc1c(C(F)(F)F)oc2cccc(C(=O)Nc3ccc4c(c3)CNC4)c12

>  <HIPPO Compound ID>  (750) 
102521

>  <fragmenstein_runtime>  (750) 
7.066047

$$$$
CCc1cc(C(=O)Nc2ccc3c(c2)CNC3)c2c(N)[nH]c(C)c2c1
     RDKit          3D

 25 28  0  0  0  0  0  0  0  0999 V2000
  -10.6726    4.6128  -18.0066 C   0  0  0  0  0  0  0  0  0  0  0  0
   -9.7843    3.7760  -17.1257 C   0  0  0  0  0  0  0  0  0  0  0  0
   -8.4524    4.3684  -16.7982 C   0  0  0  0  0  0  0  0  0  0  0  0
   -8.1960    4.6531  -15.4115 C   0  0  0  0  0  0  0  0  0  0  0  0
   -6.9757    5.1576  -14.9089 C   0  0  0  0  0  0  0  0  0  0  0  0
   -6.8273    5.4801  -13.4778 C   0  0  0  0  0  0  0  0  0  0  0  0
   -6.3691    6.5065  -13.1557 O   0  0  0  0  0  0  0  0  0  0  0  0
   -7.4442    4.3421  -12.6230 N   0  0  0  0  0  0  0  0  0  0  0  0
   -7.7008    4.2757  -11.2592 C   0  0  0  0  0  0  0  0  0  0  0  0
   -7.5217    5.3876  -10.4260 C   0  0  0  0  0  0  0  0  0  0  0  0
   -7.8413    5.3157   -9.0672 C   0  0  0  0  0  0  0  0  0  0  0  0
   -8.3230    4.1193   -8.5676 C   0  0  0  0  0  0  0  0  0  0  0  0
   -8.5041    3.0190   -9.3936 C   0  0  0  0  0  0  0  0  0  0  0  0
   -8.2085    3.0783  -10.7444 C   0  0  0  0  0  0  0  0  0  0  0  0
   -9.0380    1.8789   -8.5983 C   0  0  0  0  0  0  0  0  0  0  0  0
   -9.0360    2.3227   -7.1792 N   0  0  0  0  0  0  0  0  0  0  0  0
   -8.7320    3.7698   -7.1791 C   0  0  0  0  0  0  0  0  0  0  0  0
   -6.0666    5.3823  -15.9400 C   0  0  0  0  0  0  0  0  0  0  0  0
   -4.7921    5.8864  -15.8697 C   0  0  0  0  0  0  0  0  0  0  0  0
   -4.0393    6.3267  -14.8403 N   0  0  0  0  0  0  0  0  0  0  0  0
   -4.2879    5.8965  -17.1505 N   0  0  0  0  0  0  0  0  0  0  0  0
   -5.2255    5.4441  -18.0582 C   0  0  0  0  0  0  0  0  0  0  0  0
   -4.9511    5.3902  -19.5123 C   0  0  0  0  0  0  0  0  0  0  0  0
   -6.3334    5.1050  -17.3193 C   0  0  0  0  0  0  0  0  0  0  0  0
   -7.5139    4.5836  -17.8283 C   0  0  0  0  0  0  0  0  0  0  0  0
  1  2  1  0
  2  3  1  0
  3  4  1  0
  4  5  2  0
  5  6  1  0
  6  7  2  0
  6  8  1  0
  8  9  1  0
  9 10  2  0
 10 11  1  0
 11 12  2  0
 12 13  1  0
 13 14  2  0
 13 15  1  0
 15 16  1  0
 16 17  1  0
  5 18  1  0
 18 19  2  0
 19 20  1  0
 19 21  1  0
 21 22  1  0
 22 23  1  0
 22 24  2  0
 24 25  1  0
 25  3  2  0
 14  9  1  0
 24 18  1  0
 17 12  1  0
M  END
>  <smiles>  (751) 
C102534-P140

>  <fragmenstein_outcome>  (751) 
acceptable

>  <inchikey>  (751) 
MLNJKKYXQPTSMM-UHFFFAOYSA-N

>  <fragmenstein_mode>  (751) 
expansion

>  <HIPPO Pose ID>  (751) 
18173

>  <Energy>  (751) 
69.591613

>  <fragmenstein_error>  (751) 


>  <tags>  (751) 
{'openbind_xx01zvns2b_c1_fragmenstein', 'fragmenstein_placed'}

>  <ref_pdb>  (751) 
1

>  <scratch_subdir>  (751) 
/opt/xchem-fragalysis-2/maxwin/BulkDock/SCRATCH/511027/C102534-P140

>  <alias>  (751) 
CCc1cc(C(=O)Nc2ccc3c(c2)CNC3)c2c(N)[nH]c(C)c2c1

>  <HIPPO Compound ID>  (751) 
71617

>  <fragmenstein_runtime>  (751) 
3.657266

$$$$
N#Cc1cc2c(cc1NC(=O)c1cc(F)cc3onc(N)c13)CNC2
     RDKit          3D

 25 28  0  0  0  0  0  0  0  0999 V2000
   -7.9565    7.8442  -11.5634 N   0  0  0  0  0  0  0  0  0  0  0  0
   -7.9650    6.7208  -11.2635 C   0  0  0  0  0  0  0  0  0  0  0  0
   -8.0623    5.3814  -10.7559 C   0  0  0  0  0  0  0  0  0  0  0  0
   -8.1772    5.2829   -9.3534 C   0  0  0  0  0  0  0  0  0  0  0  0
   -8.4571    4.0572   -8.7820 C   0  0  0  0  0  0  0  0  0  0  0  0
   -8.6216    2.9324   -9.5695 C   0  0  0  0  0  0  0  0  0  0  0  0
   -8.4893    2.9948  -10.9485 C   0  0  0  0  0  0  0  0  0  0  0  0
   -8.1885    4.2247  -11.5621 C   0  0  0  0  0  0  0  0  0  0  0  0
   -8.0451    4.1745  -12.9588 N   0  0  0  0  0  0  0  0  0  0  0  0
   -7.4024    5.1837  -13.9403 C   0  0  0  0  0  0  0  0  0  0  0  0
   -6.8241    6.1770  -13.7334 O   0  0  0  0  0  0  0  0  0  0  0  0
   -7.5759    4.7840  -15.3609 C   0  0  0  0  0  0  0  0  0  0  0  0
   -8.8081    4.3114  -15.8411 C   0  0  0  0  0  0  0  0  0  0  0  0
   -8.9838    4.0596  -17.1998 C   0  0  0  0  0  0  0  0  0  0  0  0
  -10.1876    3.6687  -17.6353 F   0  0  0  0  0  0  0  0  0  0  0  0
   -7.9638    4.2384  -18.1253 C   0  0  0  0  0  0  0  0  0  0  0  0
   -6.7632    4.7216  -17.6195 C   0  0  0  0  0  0  0  0  0  0  0  0
   -5.6480    5.0014  -18.3430 O   0  0  0  0  0  0  0  0  0  0  0  0
   -4.6568    5.4771  -17.5009 N   0  0  0  0  0  0  0  0  0  0  0  0
   -5.1862    5.4706  -16.2764 C   0  0  0  0  0  0  0  0  0  0  0  0
   -4.5274    5.8778  -15.1719 N   0  0  0  0  0  0  0  0  0  0  0  0
   -6.5295    5.0033  -16.2835 C   0  0  0  0  0  0  0  0  0  0  0  0
   -8.9229    1.7572   -8.7018 C   0  0  0  0  0  0  0  0  0  0  0  0
   -9.0706    2.2891   -7.3224 N   0  0  0  0  0  0  0  0  0  0  0  0
   -8.6606    3.7058   -7.3494 C   0  0  0  0  0  0  0  0  0  0  0  0
  1  2  3  0
  2  3  1  0
  3  4  2  0
  4  5  1  0
  5  6  2  0
  6  7  1  0
  7  8  2  0
  8  9  1  0
  9 10  1  0
 10 11  2  0
 10 12  1  0
 12 13  2  0
 13 14  1  0
 14 15  1  0
 14 16  2  0
 16 17  1  0
 17 18  1  0
 18 19  1  0
 19 20  2  0
 20 21  1  0
 20 22  1  0
  6 23  1  0
 23 24  1  0
 24 25  1  0
  8  3  1  0
 22 12  1  0
 25  5  1  0
 22 17  2  0
M  END
>  <smiles>  (752) 
C102537-P140

>  <fragmenstein_outcome>  (752) 
acceptable

>  <inchikey>  (752) 
RIGBPUSGEPUDSL-UHFFFAOYSA-N

>  <fragmenstein_mode>  (752) 
expansion

>  <HIPPO Pose ID>  (752) 
18174

>  <Energy>  (752) 
22.756731

>  <fragmenstein_error>  (752) 


>  <tags>  (752) 
{'openbind_xx01zvns2b_c1_fragmenstein', 'fragmenstein_placed'}

>  <ref_pdb>  (752) 
1

>  <scratch_subdir>  (752) 
/opt/xchem-fragalysis-2/maxwin/BulkDock/SCRATCH/511027/C102537-P140

>  <alias>  (752) 
N#Cc1cc2c(cc1NC(=O)c1cc(F)cc3onc(N)c13)CNC2

>  <HIPPO Compound ID>  (752) 
102537

>  <fragmenstein_runtime>  (752) 
1.605255

$$$$
Nc1noc2cc(Cl)cc([C@](O)(Nc3ccc4c(c3)CNC4)C(=O)NCC(F)F)c12
     RDKit          3D

 30 33  0  0  0  0  0  0  0  0999 V2000
   -4.3233    5.9758  -14.8911 N   0  0  0  0  0  0  0  0  0  0  0  0
   -4.9781    5.5416  -15.9856 C   0  0  0  0  0  0  0  0  0  0  0  0
   -4.4213    5.5310  -17.1968 N   0  0  0  0  0  0  0  0  0  0  0  0
   -5.4015    5.0822  -18.0547 O   0  0  0  0  0  0  0  0  0  0  0  0
   -6.5339    4.8258  -17.3540 C   0  0  0  0  0  0  0  0  0  0  0  0
   -7.7308    4.4276  -17.9251 C   0  0  0  0  0  0  0  0  0  0  0  0
   -8.7881    4.3027  -17.0442 C   0  0  0  0  0  0  0  0  0  0  0  0
  -10.3684    4.1449  -17.6601 Cl  0  0  0  0  0  0  0  0  0  0  0  0
   -8.6261    4.4528  -15.6702 C   0  0  0  0  0  0  0  0  0  0  0  0
   -7.3944    4.8412  -15.0801 C   0  0  0  0  0  0  0  0  0  0  0  0
   -7.3927    5.1401  -13.5735 C   0  0  2  0  0  0  0  0  0  0  0  0
   -6.0651    5.3081  -13.1173 O   0  0  0  0  0  0  0  0  0  0  0  0
   -7.8844    4.0074  -12.7893 N   0  0  0  0  0  0  0  0  0  0  0  0
   -8.1222    4.0456  -11.4071 C   0  0  0  0  0  0  0  0  0  0  0  0
   -7.8241    5.1440  -10.5727 C   0  0  0  0  0  0  0  0  0  0  0  0
   -8.0234    5.1124   -9.1873 C   0  0  0  0  0  0  0  0  0  0  0  0
   -8.4722    3.9414   -8.6218 C   0  0  0  0  0  0  0  0  0  0  0  0
   -8.7131    2.8292   -9.4088 C   0  0  0  0  0  0  0  0  0  0  0  0
   -8.5498    2.8636  -10.7870 C   0  0  0  0  0  0  0  0  0  0  0  0
   -9.0861    1.6810   -8.5390 C   0  0  0  0  0  0  0  0  0  0  0  0
   -9.2088    2.2182   -7.1579 N   0  0  0  0  0  0  0  0  0  0  0  0
   -8.7489    3.6217   -7.1958 C   0  0  0  0  0  0  0  0  0  0  0  0
   -8.3061    6.4498  -13.3581 C   0  0  0  0  0  0  0  0  0  0  0  0
   -9.4741    6.4489  -13.4483 O   0  0  0  0  0  0  0  0  0  0  0  0
   -7.3223    7.6027  -12.9890 N   0  0  0  0  0  0  0  0  0  0  0  0
   -7.5697    9.0073  -12.7498 C   0  0  0  0  0  0  0  0  0  0  0  0
   -6.8960    9.5351  -11.4879 C   0  0  0  0  0  0  0  0  0  0  0  0
   -7.2724    8.8151  -10.4027 F   0  0  0  0  0  0  0  0  0  0  0  0
   -5.5481    9.3984  -11.5969 F   0  0  0  0  0  0  0  0  0  0  0  0
   -6.3260    5.0641  -15.9999 C   0  0  0  0  0  0  0  0  0  0  0  0
  1  2  1  0
  2  3  2  0
  3  4  1  0
  4  5  1  0
  5  6  2  0
  6  7  1  0
  7  8  1  0
  7  9  2  0
  9 10  1  0
 10 11  1  0
 11 12  1  1
 11 13  1  0
 13 14  1  0
 14 15  2  0
 15 16  1  0
 16 17  2  0
 17 18  1  0
 18 19  2  0
 18 20  1  0
 20 21  1  0
 21 22  1  0
 11 23  1  0
 23 24  2  0
 23 25  1  0
 25 26  1  0
 26 27  1  0
 27 28  1  0
 27 29  1  0
 10 30  2  0
 30  2  1  0
 30  5  1  0
 19 14  1  0
 22 17  1  0
M  END
>  <smiles>  (753) 
C102509-P140

>  <fragmenstein_outcome>  (753) 
acceptable

>  <inchikey>  (753) 
WRXZJTHBPZEUQQ-UHFFFAOYSA-N

>  <fragmenstein_mode>  (753) 
expansion

>  <HIPPO Pose ID>  (753) 
18177

>  <Energy>  (753) 
78.21353

>  <fragmenstein_error>  (753) 


>  <tags>  (753) 
{'openbind_xx01zvns2b_c1_fragmenstein', 'fragmenstein_placed'}

>  <ref_pdb>  (753) 
1

>  <scratch_subdir>  (753) 
/opt/xchem-fragalysis-2/maxwin/BulkDock/SCRATCH/511027/C102509-P140

>  <alias>  (753) 
Nc1noc2cc(Cl)cc([C@](O)(Nc3ccc4c(c3)CNC4)C(=O)NCC(F)F)c12

>  <HIPPO Compound ID>  (753) 
78748

>  <fragmenstein_runtime>  (753) 
5.625869

$$$$
CC1=c2cc(F)cc(C(=O)Nc3ccc4c(c3)CNC4)c2=C(NCCCO)[N@H+]1[O-]
     RDKit          3D

 29 32  0  0  0  0  0  0  0  0999 V2000
   -5.2844    5.1110  -19.6081 C   0  0  0  0  0  0  0  0  0  0  0  0
   -5.5757    5.2101  -18.1606 C   0  0  0  0  0  0  0  0  0  0  0  0
   -6.6910    4.8487  -17.5120 C   0  0  0  0  0  0  0  0  0  0  0  0
   -7.9205    4.2820  -18.0130 C   0  0  0  0  0  0  0  0  0  0  0  0
   -8.9168    4.0690  -17.1397 C   0  0  0  0  0  0  0  0  0  0  0  0
  -10.1015    3.6076  -17.5851 F   0  0  0  0  0  0  0  0  0  0  0  0
   -8.7988    4.3882  -15.7229 C   0  0  0  0  0  0  0  0  0  0  0  0
   -7.6696    4.9191  -15.1988 C   0  0  0  0  0  0  0  0  0  0  0  0
   -7.6731    5.3963  -13.7830 C   0  0  0  0  0  0  0  0  0  0  0  0
   -7.3807    6.4989  -13.5300 O   0  0  0  0  0  0  0  0  0  0  0  0
   -8.1137    4.2372  -12.8562 N   0  0  0  0  0  0  0  0  0  0  0  0
   -8.1916    4.1694  -11.4674 C   0  0  0  0  0  0  0  0  0  0  0  0
   -7.9853    5.3138  -10.6790 C   0  0  0  0  0  0  0  0  0  0  0  0
   -8.1098    5.2574   -9.2882 C   0  0  0  0  0  0  0  0  0  0  0  0
   -8.4443    4.0473   -8.7108 C   0  0  0  0  0  0  0  0  0  0  0  0
   -8.6373    2.9129   -9.4872 C   0  0  0  0  0  0  0  0  0  0  0  0
   -8.5107    2.9506  -10.8667 C   0  0  0  0  0  0  0  0  0  0  0  0
   -8.9724    1.7578   -8.6083 C   0  0  0  0  0  0  0  0  0  0  0  0
   -9.0747    2.2968   -7.2268 N   0  0  0  0  0  0  0  0  0  0  0  0
   -8.6701    3.7165   -7.2769 C   0  0  0  0  0  0  0  0  0  0  0  0
   -6.5468    5.1724  -16.0942 C   0  0  0  0  0  0  0  0  0  0  0  0
   -5.3239    5.7075  -15.8938 C   0  0  0  0  0  0  0  0  0  0  0  0
   -4.7854    6.2792  -14.7533 N   0  0  0  0  0  0  0  0  0  0  0  0
   -3.3938    6.0992  -14.3563 C   0  0  0  0  0  0  0  0  0  0  0  0
   -2.5340    7.2464  -14.8711 C   0  0  0  0  0  0  0  0  0  0  0  0
   -1.0657    7.0113  -14.5566 C   0  0  0  0  0  0  0  0  0  0  0  0
   -0.3083    8.1230  -15.0213 O   0  0  0  0  0  0  0  0  0  0  0  0
   -4.5809    5.7740  -17.2137 N   0  0  1  0  0  0  0  0  0  0  0  0
   -3.4592    5.0079  -17.2075 O   0  0  0  0  0  0  0  0  0  0  0  0
  1  2  1  0
  2  3  2  0
  3  4  1  0
  4  5  2  0
  5  6  1  0
  5  7  1  0
  7  8  2  0
  8  9  1  0
  9 10  2  0
  9 11  1  0
 11 12  1  0
 12 13  2  0
 13 14  1  0
 14 15  2  0
 15 16  1  0
 16 17  2  0
 16 18  1  0
 18 19  1  0
 19 20  1  0
  8 21  1  0
 21 22  2  0
 22 23  1  0
 23 24  1  0
 24 25  1  0
 25 26  1  0
 26 27  1  0
 22 28  1  0
 28 29  1  1
 28  2  1  0
 21  3  1  0
 17 12  1  0
 20 15  1  0
M  CHG  2  28   1  29  -1
M  END
>  <smiles>  (754) 
C102555-P140

>  <fragmenstein_outcome>  (754) 
acceptable

>  <inchikey>  (754) 
OHZWQMYAJWBLEW-UHFFFAOYSA-N

>  <fragmenstein_mode>  (754) 
expansion

>  <HIPPO Pose ID>  (754) 
18178

>  <Energy>  (754) 
71.509447

>  <fragmenstein_error>  (754) 


>  <tags>  (754) 
{'openbind_xx01zvns2b_c1_fragmenstein', 'fragmenstein_placed'}

>  <ref_pdb>  (754) 
1

>  <scratch_subdir>  (754) 
/opt/xchem-fragalysis-2/maxwin/BulkDock/SCRATCH/511027/C102555-P140

>  <alias>  (754) 
CC1=c2cc(F)cc(C(=O)Nc3ccc4c(c3)CNC4)c2=C(NCCCO)[N@H+]1[O-]

>  <HIPPO Compound ID>  (754) 
102555

>  <fragmenstein_runtime>  (754) 
4.495335

$$$$
COCCONc1c2c(C(=O)Nc3ccc4c(c3)CNC4)cc(F)cc2o[n+]1[O-]
     RDKit          3D

 29 32  0  0  0  0  0  0  0  0999 V2000
   -5.1003    8.6492  -10.3401 C   0  0  0  0  0  0  0  0  0  0  0  0
   -5.3222    7.5980  -11.2661 O   0  0  0  0  0  0  0  0  0  0  0  0
   -4.1009    7.0101  -11.7143 C   0  0  0  0  0  0  0  0  0  0  0  0
   -4.3763    5.8865  -12.7133 C   0  0  0  0  0  0  0  0  0  0  0  0
   -4.8106    6.4490  -13.9632 O   0  0  0  0  0  0  0  0  0  0  0  0
   -4.3350    5.6250  -14.9838 N   0  0  0  0  0  0  0  0  0  0  0  0
   -5.1452    5.3516  -16.0471 C   0  0  0  0  0  0  0  0  0  0  0  0
   -6.5252    5.0200  -16.1570 C   0  0  0  0  0  0  0  0  0  0  0  0
   -7.6570    4.8742  -15.3268 C   0  0  0  0  0  0  0  0  0  0  0  0
   -7.6808    5.3367  -13.9306 C   0  0  0  0  0  0  0  0  0  0  0  0
   -7.6152    6.4829  -13.7229 O   0  0  0  0  0  0  0  0  0  0  0  0
   -7.8435    4.1500  -12.9552 N   0  0  0  0  0  0  0  0  0  0  0  0
   -8.0477    4.1327  -11.5764 C   0  0  0  0  0  0  0  0  0  0  0  0
   -7.9740    5.3115  -10.8166 C   0  0  0  0  0  0  0  0  0  0  0  0
   -8.1815    5.2890   -9.4333 C   0  0  0  0  0  0  0  0  0  0  0  0
   -8.4982    4.0817   -8.8405 C   0  0  0  0  0  0  0  0  0  0  0  0
   -8.5830    2.9135   -9.5916 C   0  0  0  0  0  0  0  0  0  0  0  0
   -8.3370    2.9139  -10.9551 C   0  0  0  0  0  0  0  0  0  0  0  0
   -8.9496    1.7807   -8.6893 C   0  0  0  0  0  0  0  0  0  0  0  0
   -9.4161    2.4226   -7.4311 N   0  0  0  0  0  0  0  0  0  0  0  0
   -8.7889    3.7612   -7.4130 C   0  0  0  0  0  0  0  0  0  0  0  0
   -8.8640    4.3910  -15.8564 C   0  0  0  0  0  0  0  0  0  0  0  0
   -8.9710    4.1088  -17.2090 C   0  0  0  0  0  0  0  0  0  0  0  0
  -10.1504    3.7075  -17.6970 F   0  0  0  0  0  0  0  0  0  0  0  0
   -7.8985    4.2688  -18.0732 C   0  0  0  0  0  0  0  0  0  0  0  0
   -6.7052    4.7149  -17.5095 C   0  0  0  0  0  0  0  0  0  0  0  0
   -5.5566    4.8949  -18.2101 O   0  0  0  0  0  0  0  0  0  0  0  0
   -4.5710    5.2688  -17.2663 N   0  0  0  0  0  0  0  0  0  0  0  0
   -3.3948    5.4052  -17.6844 O   0  0  0  0  0  0  0  0  0  0  0  0
  1  2  1  0
  2  3  1  0
  3  4  1  0
  4  5  1  0
  5  6  1  0
  6  7  1  0
  7  8  1  0
  8  9  2  0
  9 10  1  0
 10 11  2  0
 10 12  1  0
 12 13  1  0
 13 14  2  0
 14 15  1  0
 15 16  2  0
 16 17  1  0
 17 18  2  0
 17 19  1  0
 19 20  1  0
 20 21  1  0
  9 22  1  0
 22 23  2  0
 23 24  1  0
 23 25  1  0
 25 26  2  0
 26 27  1  0
 27 28  1  0
 28 29  1  0
 28  7  2  0
 26  8  1  0
 18 13  1  0
 21 16  1  0
M  CHG  2  28   1  29  -1
M  END
>  <smiles>  (755) 
C102556-P140

>  <fragmenstein_outcome>  (755) 
acceptable

>  <inchikey>  (755) 
OVCVOASUZPTIQY-UHFFFAOYSA-N

>  <fragmenstein_mode>  (755) 
expansion

>  <HIPPO Pose ID>  (755) 
18179

>  <Energy>  (755) 
103.986979

>  <fragmenstein_error>  (755) 


>  <tags>  (755) 
{'openbind_xx01zvns2b_c1_fragmenstein', 'fragmenstein_placed'}

>  <ref_pdb>  (755) 
1

>  <scratch_subdir>  (755) 
/opt/xchem-fragalysis-2/maxwin/BulkDock/SCRATCH/511027/C102556-P140

>  <alias>  (755) 
COCCONc1c2c(C(=O)Nc3ccc4c(c3)CNC4)cc(F)cc2o[n+]1[O-]

>  <HIPPO Compound ID>  (755) 
99939

>  <fragmenstein_runtime>  (755) 
3.597926

$$$$
Nc1c2c(C(=O)Nc3ccc4c(c3)CNC4)cccc2o[n+]1[O-]
     RDKit          3D

 23 26  0  0  0  0  0  0  0  0999 V2000
   -4.4777    5.8995  -15.1784 N   0  0  0  0  0  0  0  0  0  0  0  0
   -5.1848    5.4429  -16.2478 C   0  0  0  0  0  0  0  0  0  0  0  0
   -6.5309    4.9996  -16.2704 C   0  0  0  0  0  0  0  0  0  0  0  0
   -7.5770    4.8178  -15.3431 C   0  0  0  0  0  0  0  0  0  0  0  0
   -7.4102    5.2235  -13.9243 C   0  0  0  0  0  0  0  0  0  0  0  0
   -6.9763    6.2842  -13.6933 O   0  0  0  0  0  0  0  0  0  0  0  0
   -7.9062    4.1119  -12.9674 N   0  0  0  0  0  0  0  0  0  0  0  0
   -8.0548    4.1102  -11.5816 C   0  0  0  0  0  0  0  0  0  0  0  0
   -7.8454    5.2698  -10.8185 C   0  0  0  0  0  0  0  0  0  0  0  0
   -8.0439    5.2608   -9.4324 C   0  0  0  0  0  0  0  0  0  0  0  0
   -8.4510    4.0816   -8.8364 C   0  0  0  0  0  0  0  0  0  0  0  0
   -8.6377    2.9261   -9.5874 C   0  0  0  0  0  0  0  0  0  0  0  0
   -8.4451    2.9205  -10.9584 C   0  0  0  0  0  0  0  0  0  0  0  0
   -9.0201    1.8079   -8.6744 C   0  0  0  0  0  0  0  0  0  0  0  0
   -9.4280    2.4689   -7.4074 N   0  0  0  0  0  0  0  0  0  0  0  0
   -8.7407    3.7788   -7.4040 C   0  0  0  0  0  0  0  0  0  0  0  0
   -8.8173    4.3306  -15.7938 C   0  0  0  0  0  0  0  0  0  0  0  0
   -9.0254    4.0382  -17.1414 C   0  0  0  0  0  0  0  0  0  0  0  0
   -8.0036    4.2071  -18.0760 C   0  0  0  0  0  0  0  0  0  0  0  0
   -6.7830    4.6818  -17.6013 C   0  0  0  0  0  0  0  0  0  0  0  0
   -5.6853    4.9005  -18.3715 O   0  0  0  0  0  0  0  0  0  0  0  0
   -4.6559    5.3401  -17.4922 N   0  0  0  0  0  0  0  0  0  0  0  0
   -3.5509    5.6268  -18.0117 O   0  0  0  0  0  0  0  0  0  0  0  0
  1  2  1  0
  2  3  1  0
  3  4  2  0
  4  5  1  0
  5  6  2  0
  5  7  1  0
  7  8  1  0
  8  9  2  0
  9 10  1  0
 10 11  2  0
 11 12  1  0
 12 13  2  0
 12 14  1  0
 14 15  1  0
 15 16  1  0
  4 17  1  0
 17 18  2  0
 18 19  1  0
 19 20  2  0
 20 21  1  0
 21 22  1  0
 22 23  1  0
 22  2  2  0
 20  3  1  0
 13  8  1  0
 16 11  1  0
M  CHG  2  22   1  23  -1
M  END
>  <smiles>  (756) 
C102523-P140

>  <fragmenstein_outcome>  (756) 
acceptable

>  <inchikey>  (756) 
TZNICNMBGCNMII-UHFFFAOYSA-N

>  <fragmenstein_mode>  (756) 
expansion

>  <HIPPO Pose ID>  (756) 
18180

>  <Energy>  (756) 
98.193848

>  <fragmenstein_error>  (756) 


>  <tags>  (756) 
{'openbind_xx01zvns2b_c1_fragmenstein', 'fragmenstein_placed'}

>  <ref_pdb>  (756) 
1

>  <scratch_subdir>  (756) 
/opt/xchem-fragalysis-2/maxwin/BulkDock/SCRATCH/511027/C102523-P140

>  <alias>  (756) 
Nc1c2c(C(=O)Nc3ccc4c(c3)CNC4)cccc2o[n+]1[O-]

>  <HIPPO Compound ID>  (756) 
93334

>  <fragmenstein_runtime>  (756) 
1.765712

$$$$
N#Cc1[nH]c(N)c2c(C(=O)Nc3ccc4c(c3)CNC4)cccc12
     RDKit          3D

 24 27  0  0  0  0  0  0  0  0999 V2000
   -4.8241    6.3063  -20.4204 N   0  0  0  0  0  0  0  0  0  0  0  0
   -5.2592    5.8338  -19.4532 C   0  0  0  0  0  0  0  0  0  0  0  0
   -5.5972    5.5231  -18.1085 C   0  0  0  0  0  0  0  0  0  0  0  0
   -4.7606    5.9137  -17.0836 N   0  0  0  0  0  0  0  0  0  0  0  0
   -5.3828    5.7937  -15.8688 C   0  0  0  0  0  0  0  0  0  0  0  0
   -4.7703    6.2489  -14.7564 N   0  0  0  0  0  0  0  0  0  0  0  0
   -6.6004    5.1968  -16.0999 C   0  0  0  0  0  0  0  0  0  0  0  0
   -7.6069    4.8902  -15.1760 C   0  0  0  0  0  0  0  0  0  0  0  0
   -7.6025    5.3161  -13.7620 C   0  0  0  0  0  0  0  0  0  0  0  0
   -7.2763    6.4103  -13.5146 O   0  0  0  0  0  0  0  0  0  0  0  0
   -8.0955    4.1845  -12.8341 N   0  0  0  0  0  0  0  0  0  0  0  0
   -8.1969    4.1323  -11.4464 C   0  0  0  0  0  0  0  0  0  0  0  0
   -7.9841    5.2812  -10.6665 C   0  0  0  0  0  0  0  0  0  0  0  0
   -8.1149    5.2377   -9.2758 C   0  0  0  0  0  0  0  0  0  0  0  0
   -8.4597    4.0346   -8.6900 C   0  0  0  0  0  0  0  0  0  0  0  0
   -8.6602    2.8960   -9.4585 C   0  0  0  0  0  0  0  0  0  0  0  0
   -8.5315    2.9221  -10.8378 C   0  0  0  0  0  0  0  0  0  0  0  0
   -8.9918    1.7471   -8.5709 C   0  0  0  0  0  0  0  0  0  0  0  0
   -9.1126    2.3006   -7.1966 N   0  0  0  0  0  0  0  0  0  0  0  0
   -8.6812    3.7125   -7.2534 C   0  0  0  0  0  0  0  0  0  0  0  0
   -8.7257    4.2850  -15.7980 C   0  0  0  0  0  0  0  0  0  0  0  0
   -8.8083    4.0264  -17.2070 C   0  0  0  0  0  0  0  0  0  0  0  0
   -7.7962    4.3596  -18.1370 C   0  0  0  0  0  0  0  0  0  0  0  0
   -6.7019    4.9573  -17.5142 C   0  0  0  0  0  0  0  0  0  0  0  0
  1  2  3  0
  2  3  1  0
  3  4  1  0
  4  5  1  0
  5  6  1  0
  5  7  2  0
  7  8  1  0
  8  9  1  0
  9 10  2  0
  9 11  1  0
 11 12  1  0
 12 13  2  0
 13 14  1  0
 14 15  2  0
 15 16  1  0
 16 17  2  0
 16 18  1  0
 18 19  1  0
 19 20  1  0
  8 21  2  0
 21 22  1  0
 22 23  2  0
 23 24  1  0
 24  3  2  0
 24  7  1  0
 17 12  1  0
 20 15  1  0
M  END
>  <smiles>  (757) 
C102564-P140

>  <fragmenstein_outcome>  (757) 
acceptable

>  <inchikey>  (757) 
SKGHHCWHOSLSIM-UHFFFAOYSA-N

>  <fragmenstein_mode>  (757) 
expansion

>  <HIPPO Pose ID>  (757) 
18183

>  <Energy>  (757) 
68.848248

>  <fragmenstein_error>  (757) 


>  <tags>  (757) 
{'openbind_xx01zvns2b_c1_fragmenstein', 'fragmenstein_placed'}

>  <ref_pdb>  (757) 
1

>  <scratch_subdir>  (757) 
/opt/xchem-fragalysis-2/maxwin/BulkDock/SCRATCH/511027/C102564-P140

>  <alias>  (757) 
N#Cc1[nH]c(N)c2c(C(=O)Nc3ccc4c(c3)CNC4)cccc12

>  <HIPPO Compound ID>  (757) 
103305

>  <fragmenstein_runtime>  (757) 
2.653924

$$$$
Nc1c2c(C(=O)Nc3ccc4c(c3)CNC4=O)cccc2o[n+]1[O-]
     RDKit          3D

 24 27  0  0  0  0  0  0  0  0999 V2000
   -4.6546    6.0139  -14.8804 N   0  0  0  0  0  0  0  0  0  0  0  0
   -5.2718    5.5391  -15.9982 C   0  0  0  0  0  0  0  0  0  0  0  0
   -6.5927    5.0422  -16.1154 C   0  0  0  0  0  0  0  0  0  0  0  0
   -7.6882    4.8179  -15.2567 C   0  0  0  0  0  0  0  0  0  0  0  0
   -7.6190    5.2521  -13.8384 C   0  0  0  0  0  0  0  0  0  0  0  0
   -7.2198    6.3285  -13.6168 O   0  0  0  0  0  0  0  0  0  0  0  0
   -8.1490    4.1606  -12.8765 N   0  0  0  0  0  0  0  0  0  0  0  0
   -8.2074    4.1316  -11.4827 C   0  0  0  0  0  0  0  0  0  0  0  0
   -7.9360    5.2908  -10.7303 C   0  0  0  0  0  0  0  0  0  0  0  0
   -8.0229    5.2780   -9.3355 C   0  0  0  0  0  0  0  0  0  0  0  0
   -8.3806    4.0896   -8.7329 C   0  0  0  0  0  0  0  0  0  0  0  0
   -8.6408    2.9295   -9.4570 C   0  0  0  0  0  0  0  0  0  0  0  0
   -8.5586    2.9352  -10.8413 C   0  0  0  0  0  0  0  0  0  0  0  0
   -8.9588    1.8155   -8.5154 C   0  0  0  0  0  0  0  0  0  0  0  0
   -8.9912    2.4839   -7.2303 N   0  0  0  0  0  0  0  0  0  0  0  0
   -8.5485    3.7865   -7.3072 C   0  0  0  0  0  0  0  0  0  0  0  0
   -8.3131    4.5536   -6.3922 O   0  0  0  0  0  0  0  0  0  0  0  0
   -8.8751    4.2882  -15.7884 C   0  0  0  0  0  0  0  0  0  0  0  0
   -8.9847    4.0032  -17.1503 C   0  0  0  0  0  0  0  0  0  0  0  0
   -7.9148    4.2232  -18.0201 C   0  0  0  0  0  0  0  0  0  0  0  0
   -6.7454    4.7352  -17.4639 C   0  0  0  0  0  0  0  0  0  0  0  0
   -5.6091    5.0135  -18.1576 O   0  0  0  0  0  0  0  0  0  0  0  0
   -4.6628    5.4854  -17.2053 N   0  0  0  0  0  0  0  0  0  0  0  0
   -3.5421    5.8434  -17.6394 O   0  0  0  0  0  0  0  0  0  0  0  0
  1  2  1  0
  2  3  1  0
  3  4  2  0
  4  5  1  0
  5  6  2  0
  5  7  1  0
  7  8  1  0
  8  9  2  0
  9 10  1  0
 10 11  2  0
 11 12  1  0
 12 13  2  0
 12 14  1  0
 14 15  1  0
 15 16  1  0
 16 17  2  0
  4 18  1  0
 18 19  2  0
 19 20  1  0
 20 21  2  0
 21 22  1  0
 22 23  1  0
 23 24  1  0
 23  2  2  0
 21  3  1  0
 13  8  1  0
 16 11  1  0
M  CHG  2  23   1  24  -1
M  END
>  <smiles>  (758) 
C102567-P140

>  <fragmenstein_outcome>  (758) 
acceptable

>  <inchikey>  (758) 
LXPNCCATQQGGIN-UHFFFAOYSA-N

>  <fragmenstein_mode>  (758) 
expansion

>  <HIPPO Pose ID>  (758) 
18184

>  <Energy>  (758) 
84.010869

>  <fragmenstein_error>  (758) 


>  <tags>  (758) 
{'openbind_xx01zvns2b_c1_fragmenstein', 'fragmenstein_placed'}

>  <ref_pdb>  (758) 
1

>  <scratch_subdir>  (758) 
/opt/xchem-fragalysis-2/maxwin/BulkDock/SCRATCH/511027/C102567-P140

>  <alias>  (758) 
Nc1c2c(C(=O)Nc3ccc4c(c3)CNC4=O)cccc2o[n+]1[O-]

>  <HIPPO Compound ID>  (758) 
102567

>  <fragmenstein_runtime>  (758) 
2.693484

$$$$
NCc1[nH]c(N)c2c(C(=O)Nc3ccc4c(c3)CNC4)cc(Cl)cc12
     RDKit          3D

 25 28  0  0  0  0  0  0  0  0999 V2000
   -3.5586    5.2187  -19.8379 N   0  0  0  0  0  0  0  0  0  0  0  0
   -4.9853    5.3762  -19.5554 C   0  0  0  0  0  0  0  0  0  0  0  0
   -5.2872    5.3524  -18.0966 C   0  0  0  0  0  0  0  0  0  0  0  0
   -4.3925    5.7609  -17.1236 N   0  0  0  0  0  0  0  0  0  0  0  0
   -4.9622    5.7276  -15.8720 C   0  0  0  0  0  0  0  0  0  0  0  0
   -4.2619    6.1507  -14.8007 N   0  0  0  0  0  0  0  0  0  0  0  0
   -6.2339    5.2323  -16.0180 C   0  0  0  0  0  0  0  0  0  0  0  0
   -7.2122    5.0148  -15.0428 C   0  0  0  0  0  0  0  0  0  0  0  0
   -7.1101    5.3789  -13.6212 C   0  0  0  0  0  0  0  0  0  0  0  0
   -6.7502    6.4544  -13.3396 O   0  0  0  0  0  0  0  0  0  0  0  0
   -7.6222    4.2261  -12.7253 N   0  0  0  0  0  0  0  0  0  0  0  0
   -7.8783    4.1894  -11.3583 C   0  0  0  0  0  0  0  0  0  0  0  0
   -7.6816    5.3208  -10.5521 C   0  0  0  0  0  0  0  0  0  0  0  0
   -7.9453    5.2748   -9.1804 C   0  0  0  0  0  0  0  0  0  0  0  0
   -8.3868    4.0825   -8.6383 C   0  0  0  0  0  0  0  0  0  0  0  0
   -8.5825    2.9632   -9.4353 C   0  0  0  0  0  0  0  0  0  0  0  0
   -8.3452    2.9976  -10.7994 C   0  0  0  0  0  0  0  0  0  0  0  0
   -9.0459    1.8256   -8.5941 C   0  0  0  0  0  0  0  0  0  0  0  0
   -9.0373    2.3100   -7.1881 N   0  0  0  0  0  0  0  0  0  0  0  0
   -8.7280    3.7550   -7.2269 C   0  0  0  0  0  0  0  0  0  0  0  0
   -8.4273    4.5635  -15.6056 C   0  0  0  0  0  0  0  0  0  0  0  0
   -8.6008    4.3545  -17.0082 C   0  0  0  0  0  0  0  0  0  0  0  0
  -10.1871    4.0367  -17.5664 Cl  0  0  0  0  0  0  0  0  0  0  0  0
   -7.6024    4.5187  -17.9852 C   0  0  0  0  0  0  0  0  0  0  0  0
   -6.4279    4.9863  -17.4135 C   0  0  0  0  0  0  0  0  0  0  0  0
  1  2  1  0
  2  3  1  0
  3  4  1  0
  4  5  1  0
  5  6  1  0
  5  7  2  0
  7  8  1  0
  8  9  1  0
  9 10  2  0
  9 11  1  0
 11 12  1  0
 12 13  2  0
 13 14  1  0
 14 15  2  0
 15 16  1  0
 16 17  2  0
 16 18  1  0
 18 19  1  0
 19 20  1  0
  8 21  2  0
 21 22  1  0
 22 23  1  0
 22 24  2  0
 24 25  1  0
 25  3  2  0
 25  7  1  0
 17 12  1  0
 20 15  1  0
M  END
>  <smiles>  (759) 
C102568-P140

>  <fragmenstein_outcome>  (759) 
acceptable

>  <inchikey>  (759) 
VZOKRZMHPDPFQK-UHFFFAOYSA-N

>  <fragmenstein_mode>  (759) 
expansion

>  <HIPPO Pose ID>  (759) 
18185

>  <Energy>  (759) 
34.06446

>  <fragmenstein_error>  (759) 


>  <tags>  (759) 
{'openbind_xx01zvns2b_c1_fragmenstein', 'fragmenstein_placed'}

>  <ref_pdb>  (759) 
1

>  <scratch_subdir>  (759) 
/opt/xchem-fragalysis-2/maxwin/BulkDock/SCRATCH/511027/C102568-P140

>  <alias>  (759) 
NCc1[nH]c(N)c2c(C(=O)Nc3ccc4c(c3)CNC4)cc(Cl)cc12

>  <HIPPO Compound ID>  (759) 
102568

>  <fragmenstein_runtime>  (759) 
3.841962

$$$$
CNCc1[nH]c(N)c2c(C(=O)Nc3ccc4c(c3)CNC4)cccc12
     RDKit          3D

 25 28  0  0  0  0  0  0  0  0999 V2000
   -4.0351    6.7000  -21.1684 C   0  0  0  0  0  0  0  0  0  0  0  0
   -4.5091    6.6945  -19.7939 N   0  0  0  0  0  0  0  0  0  0  0  0
   -5.0107    5.3651  -19.4281 C   0  0  0  0  0  0  0  0  0  0  0  0
   -5.5154    5.3580  -18.0273 C   0  0  0  0  0  0  0  0  0  0  0  0
   -4.7312    5.8193  -16.9846 N   0  0  0  0  0  0  0  0  0  0  0  0
   -5.4146    5.7998  -15.7957 C   0  0  0  0  0  0  0  0  0  0  0  0
   -4.8396    6.2994  -14.6814 N   0  0  0  0  0  0  0  0  0  0  0  0
   -6.6345    5.2201  -16.0451 C   0  0  0  0  0  0  0  0  0  0  0  0
   -7.6702    4.9506  -15.1456 C   0  0  0  0  0  0  0  0  0  0  0  0
   -7.6857    5.3783  -13.7368 C   0  0  0  0  0  0  0  0  0  0  0  0
   -7.4585    6.4981  -13.4921 O   0  0  0  0  0  0  0  0  0  0  0  0
   -8.0833    4.2105  -12.8063 N   0  0  0  0  0  0  0  0  0  0  0  0
   -8.1885    4.1549  -11.4201 C   0  0  0  0  0  0  0  0  0  0  0  0
   -7.9687    5.2967  -10.6327 C   0  0  0  0  0  0  0  0  0  0  0  0
   -8.1052    5.2448   -9.2429 C   0  0  0  0  0  0  0  0  0  0  0  0
   -8.4591    4.0398   -8.6657 C   0  0  0  0  0  0  0  0  0  0  0  0
   -8.6626    2.9071   -9.4417 C   0  0  0  0  0  0  0  0  0  0  0  0
   -8.5306    2.9421  -10.8203 C   0  0  0  0  0  0  0  0  0  0  0  0
   -8.9990    1.7534   -8.5625 C   0  0  0  0  0  0  0  0  0  0  0  0
   -9.1207    2.2980   -7.1847 N   0  0  0  0  0  0  0  0  0  0  0  0
   -8.6867    3.7098   -7.2320 C   0  0  0  0  0  0  0  0  0  0  0  0
   -8.7751    4.3325  -15.7786 C   0  0  0  0  0  0  0  0  0  0  0  0
   -8.8197    4.0333  -17.1802 C   0  0  0  0  0  0  0  0  0  0  0  0
   -7.7703    4.3177  -18.0839 C   0  0  0  0  0  0  0  0  0  0  0  0
   -6.6885    4.9216  -17.4449 C   0  0  0  0  0  0  0  0  0  0  0  0
  1  2  1  0
  2  3  1  0
  3  4  1  0
  4  5  1  0
  5  6  1  0
  6  7  1  0
  6  8  2  0
  8  9  1  0
  9 10  1  0
 10 11  2  0
 10 12  1  0
 12 13  1  0
 13 14  2  0
 14 15  1  0
 15 16  2  0
 16 17  1  0
 17 18  2  0
 17 19  1  0
 19 20  1  0
 20 21  1  0
  9 22  2  0
 22 23  1  0
 23 24  2  0
 24 25  1  0
 25  4  2  0
 25  8  1  0
 18 13  1  0
 21 16  1  0
M  END
>  <smiles>  (760) 
C102569-P140

>  <fragmenstein_outcome>  (760) 
acceptable

>  <inchikey>  (760) 
FSQOHRJJSSOJGS-UHFFFAOYSA-N

>  <fragmenstein_mode>  (760) 
expansion

>  <HIPPO Pose ID>  (760) 
18187

>  <Energy>  (760) 
51.852701

>  <fragmenstein_error>  (760) 


>  <tags>  (760) 
{'openbind_xx01zvns2b_c1_fragmenstein', 'fragmenstein_placed'}

>  <ref_pdb>  (760) 
1

>  <scratch_subdir>  (760) 
/opt/xchem-fragalysis-2/maxwin/BulkDock/SCRATCH/511027/C102569-P140

>  <alias>  (760) 
CNCc1[nH]c(N)c2c(C(=O)Nc3ccc4c(c3)CNC4)cccc12

>  <HIPPO Compound ID>  (760) 
94869

>  <fragmenstein_runtime>  (760) 
2.650196

$$$$
CNCc1[nH]c(N)c2c(C(=O)Nc3ccc4c(c3)CNC4)cc(Br)cc12
     RDKit          3D

 26 29  0  0  0  0  0  0  0  0999 V2000
   -2.5867    6.1871  -19.6020 C   0  0  0  0  0  0  0  0  0  0  0  0
   -3.4327    5.0145  -19.6107 N   0  0  0  0  0  0  0  0  0  0  0  0
   -4.8282    5.3086  -19.3001 C   0  0  0  0  0  0  0  0  0  0  0  0
   -5.1295    5.2611  -17.8391 C   0  0  0  0  0  0  0  0  0  0  0  0
   -4.2210    5.5529  -16.8382 N   0  0  0  0  0  0  0  0  0  0  0  0
   -4.8142    5.5240  -15.5971 C   0  0  0  0  0  0  0  0  0  0  0  0
   -4.0973    5.8455  -14.4996 N   0  0  0  0  0  0  0  0  0  0  0  0
   -6.1177    5.1350  -15.7782 C   0  0  0  0  0  0  0  0  0  0  0  0
   -7.1263    4.9454  -14.8281 C   0  0  0  0  0  0  0  0  0  0  0  0
   -7.0252    5.2533  -13.3896 C   0  0  0  0  0  0  0  0  0  0  0  0
   -6.5233    6.2555  -13.0600 O   0  0  0  0  0  0  0  0  0  0  0  0
   -7.6987    4.1447  -12.5470 N   0  0  0  0  0  0  0  0  0  0  0  0
   -7.9694    4.0845  -11.1836 C   0  0  0  0  0  0  0  0  0  0  0  0
   -7.7727    5.2011  -10.3542 C   0  0  0  0  0  0  0  0  0  0  0  0
   -8.0676    5.1414   -8.9879 C   0  0  0  0  0  0  0  0  0  0  0  0
   -8.5508    3.9526   -8.4774 C   0  0  0  0  0  0  0  0  0  0  0  0
   -8.7299    2.8422   -9.2969 C   0  0  0  0  0  0  0  0  0  0  0  0
   -8.4565    2.8888  -10.6527 C   0  0  0  0  0  0  0  0  0  0  0  0
   -9.1825    1.6944   -8.4604 C   0  0  0  0  0  0  0  0  0  0  0  0
   -9.6566    2.3019   -7.1927 N   0  0  0  0  0  0  0  0  0  0  0  0
   -8.9380    3.5915   -7.0809 C   0  0  0  0  0  0  0  0  0  0  0  0
   -8.3463    4.5672  -15.4353 C   0  0  0  0  0  0  0  0  0  0  0  0
   -8.4913    4.4099  -16.8503 C   0  0  0  0  0  0  0  0  0  0  0  0
  -10.2120    4.1308  -17.5346 Br  0  0  0  0  0  0  0  0  0  0  0  0
   -7.4742    4.5740  -17.8036 C   0  0  0  0  0  0  0  0  0  0  0  0
   -6.2984    4.9517  -17.1835 C   0  0  0  0  0  0  0  0  0  0  0  0
  1  2  1  0
  2  3  1  0
  3  4  1  0
  4  5  1  0
  5  6  1  0
  6  7  1  0
  6  8  2  0
  8  9  1  0
  9 10  1  0
 10 11  2  0
 10 12  1  0
 12 13  1  0
 13 14  2  0
 14 15  1  0
 15 16  2  0
 16 17  1  0
 17 18  2  0
 17 19  1  0
 19 20  1  0
 20 21  1  0
  9 22  2  0
 22 23  1  0
 23 24  1  0
 23 25  2  0
 25 26  1  0
 26  4  2  0
 26  8  1  0
 18 13  1  0
 21 16  1  0
M  END
>  <smiles>  (761) 
C102575-P140

>  <fragmenstein_outcome>  (761) 
acceptable

>  <inchikey>  (761) 
UMCBKAPZHUMTQK-UHFFFAOYSA-O

>  <fragmenstein_mode>  (761) 
expansion

>  <HIPPO Pose ID>  (761) 
18188

>  <Energy>  (761) 
43.551253

>  <fragmenstein_error>  (761) 


>  <tags>  (761) 
{'openbind_xx01zvns2b_c1_fragmenstein', 'fragmenstein_placed'}

>  <ref_pdb>  (761) 
1

>  <scratch_subdir>  (761) 
/opt/xchem-fragalysis-2/maxwin/BulkDock/SCRATCH/511027/C102575-P140

>  <alias>  (761) 
CNCc1[nH]c(N)c2c(C(=O)Nc3ccc4c(c3)CNC4)cc(Br)cc12

>  <HIPPO Compound ID>  (761) 
81481

>  <fragmenstein_runtime>  (761) 
5.063292

$$$$
Nc1noc2cc(Cl)cc([C@](O)(Nc3ccc4c(c3)CNC4)C(=O)NCCCF)c12
     RDKit          3D

 30 33  0  0  0  0  0  0  0  0999 V2000
   -4.0130    5.7091  -14.9996 N   0  0  0  0  0  0  0  0  0  0  0  0
   -4.7572    5.4356  -16.0867 C   0  0  0  0  0  0  0  0  0  0  0  0
   -4.2666    5.4493  -17.3266 N   0  0  0  0  0  0  0  0  0  0  0  0
   -5.3158    5.0928  -18.1474 O   0  0  0  0  0  0  0  0  0  0  0  0
   -6.4237    4.8739  -17.3967 C   0  0  0  0  0  0  0  0  0  0  0  0
   -7.6550    4.5047  -17.9056 C   0  0  0  0  0  0  0  0  0  0  0  0
   -8.6691    4.3848  -16.9718 C   0  0  0  0  0  0  0  0  0  0  0  0
  -10.2545    4.1125  -17.5464 Cl  0  0  0  0  0  0  0  0  0  0  0  0
   -8.4464    4.5726  -15.6029 C   0  0  0  0  0  0  0  0  0  0  0  0
   -7.1675    4.9100  -15.0782 C   0  0  0  0  0  0  0  0  0  0  0  0
   -6.9649    5.1392  -13.5648 C   0  0  2  0  0  0  0  0  0  0  0  0
   -5.7001    4.6052  -13.2218 O   0  0  0  0  0  0  0  0  0  0  0  0
   -7.9624    4.3528  -12.8006 N   0  0  0  0  0  0  0  0  0  0  0  0
   -7.9605    4.2366  -11.3979 C   0  0  0  0  0  0  0  0  0  0  0  0
   -7.5311    5.2613  -10.5283 C   0  0  0  0  0  0  0  0  0  0  0  0
   -7.6975    5.1857   -9.1413 C   0  0  0  0  0  0  0  0  0  0  0  0
   -8.2699    4.0511   -8.6159 C   0  0  0  0  0  0  0  0  0  0  0  0
   -8.6615    3.0104   -9.4411 C   0  0  0  0  0  0  0  0  0  0  0  0
   -8.5463    3.0980  -10.8219 C   0  0  0  0  0  0  0  0  0  0  0  0
   -9.2211    1.9099   -8.6079 C   0  0  0  0  0  0  0  0  0  0  0  0
   -9.0170    2.3097   -7.1907 N   0  0  0  0  0  0  0  0  0  0  0  0
   -8.6108    3.7291   -7.2038 C   0  0  0  0  0  0  0  0  0  0  0  0
   -7.0905    6.7422  -13.2997 C   0  0  0  0  0  0  0  0  0  0  0  0
   -6.1796    7.4680  -13.4164 O   0  0  0  0  0  0  0  0  0  0  0  0
   -8.5532    7.0242  -12.8428 N   0  0  0  0  0  0  0  0  0  0  0  0
   -9.2133    8.2690  -12.5294 C   0  0  0  0  0  0  0  0  0  0  0  0
   -9.1216    8.5970  -11.0440 C   0  0  0  0  0  0  0  0  0  0  0  0
   -9.9824    9.7979  -10.7001 C   0  0  0  0  0  0  0  0  0  0  0  0
   -9.5258   10.8807  -11.3856 F   0  0  0  0  0  0  0  0  0  0  0  0
   -6.1409    5.0829  -16.0546 C   0  0  0  0  0  0  0  0  0  0  0  0
  1  2  1  0
  2  3  2  0
  3  4  1  0
  4  5  1  0
  5  6  2  0
  6  7  1  0
  7  8  1  0
  7  9  2  0
  9 10  1  0
 10 11  1  0
 11 12  1  1
 11 13  1  0
 13 14  1  0
 14 15  2  0
 15 16  1  0
 16 17  2  0
 17 18  1  0
 18 19  2  0
 18 20  1  0
 20 21  1  0
 21 22  1  0
 11 23  1  0
 23 24  2  0
 23 25  1  0
 25 26  1  0
 26 27  1  0
 27 28  1  0
 28 29  1  0
 10 30  2  0
 30  2  1  0
 30  5  1  0
 19 14  1  0
 22 17  1  0
M  END
>  <smiles>  (762) 
C102578-P140

>  <fragmenstein_outcome>  (762) 
acceptable

>  <inchikey>  (762) 
OBEGXVFZNVCOHX-UHFFFAOYSA-N

>  <fragmenstein_mode>  (762) 
expansion

>  <HIPPO Pose ID>  (762) 
18189

>  <Energy>  (762) 
43.275175

>  <fragmenstein_error>  (762) 


>  <tags>  (762) 
{'openbind_xx01zvns2b_c1_fragmenstein', 'fragmenstein_placed'}

>  <ref_pdb>  (762) 
1

>  <scratch_subdir>  (762) 
/opt/xchem-fragalysis-2/maxwin/BulkDock/SCRATCH/511027/C102578-P140

>  <alias>  (762) 
Nc1noc2cc(Cl)cc([C@](O)(Nc3ccc4c(c3)CNC4)C(=O)NCCCF)c12

>  <HIPPO Compound ID>  (762) 
102578

>  <fragmenstein_runtime>  (762) 
5.947015

$$$$
N[C@@H]1N[C@@H]2C(=O)N[C@@H]3CC[C@@H](C(=O)Nc4ccc5c(c4)CNC5)[C@H]1[C@H]23
     RDKit          3D

 25 29  0  0  0  0  0  0  0  0999 V2000
   -5.5805    7.5566  -15.2806 N   0  0  0  0  0  0  0  0  0  0  0  0
   -5.0447    6.2395  -15.3904 C   0  0  2  0  0  0  0  0  0  0  0  0
   -4.2869    6.2786  -16.6301 N   0  0  0  0  0  0  0  0  0  0  0  0
   -5.0465    5.5507  -17.6541 C   0  0  2  0  0  0  0  0  0  0  0  0
   -6.0441    6.3389  -18.4832 C   0  0  0  0  0  0  0  0  0  0  0  0
   -5.8519    7.3682  -19.1134 O   0  0  0  0  0  0  0  0  0  0  0  0
   -7.2417    5.6332  -18.4735 N   0  0  0  0  0  0  0  0  0  0  0  0
   -7.1704    4.3993  -17.7537 C   0  0  2  0  0  0  0  0  0  0  0  0
   -8.4460    4.0182  -16.9940 C   0  0  0  0  0  0  0  0  0  0  0  0
   -8.3655    4.1016  -15.4622 C   0  0  0  0  0  0  0  0  0  0  0  0
   -7.4557    5.2187  -14.9573 C   0  0  1  0  0  0  0  0  0  0  0  0
   -7.4793    5.5863  -13.4521 C   0  0  0  0  0  0  0  0  0  0  0  0
   -7.2000    6.6771  -13.1279 O   0  0  0  0  0  0  0  0  0  0  0  0
   -7.8524    4.3439  -12.5932 N   0  0  0  0  0  0  0  0  0  0  0  0
   -8.0438    4.2186  -11.2182 C   0  0  0  0  0  0  0  0  0  0  0  0
   -7.8967    5.3311  -10.3729 C   0  0  0  0  0  0  0  0  0  0  0  0
   -8.1041    5.2208   -8.9951 C   0  0  0  0  0  0  0  0  0  0  0  0
   -8.4696    3.9898   -8.4862 C   0  0  0  0  0  0  0  0  0  0  0  0
   -8.6173    2.8858   -9.3179 C   0  0  0  0  0  0  0  0  0  0  0  0
   -8.4041    2.9774  -10.6864 C   0  0  0  0  0  0  0  0  0  0  0  0
   -9.0016    1.7013   -8.4956 C   0  0  0  0  0  0  0  0  0  0  0  0
   -9.2851    2.2214   -7.1373 N   0  0  0  0  0  0  0  0  0  0  0  0
   -8.7625    3.5980   -7.0780 C   0  0  0  0  0  0  0  0  0  0  0  0
   -6.0239    5.0535  -15.4668 C   0  0  1  0  0  0  0  0  0  0  0  0
   -5.9314    4.5804  -16.9085 C   0  0  2  0  0  0  0  0  0  0  0  0
  2  1  1  6
  2  3  1  0
  4  3  1  1
  4  5  1  0
  5  6  2  0
  5  7  1  0
  7  8  1  0
  8  9  1  1
  9 10  1  0
 10 11  1  0
 11 12  1  1
 12 13  2  0
 12 14  1  0
 14 15  1  0
 15 16  2  0
 16 17  1  0
 17 18  2  0
 18 19  1  0
 19 20  2  0
 19 21  1  0
 21 22  1  0
 22 23  1  0
 24 11  1  6
 24 25  1  0
 24  2  1  0
 25  4  1  6
 25  8  1  0
 20 15  1  0
 23 18  1  0
M  END
>  <smiles>  (763) 
C102570-P142

>  <fragmenstein_outcome>  (763) 
acceptable

>  <inchikey>  (763) 
XGBZZBGVDHLBBY-UHFFFAOYSA-N

>  <fragmenstein_mode>  (763) 
expansion

>  <HIPPO Pose ID>  (763) 
18198

>  <Energy>  (763) 
-0.153325

>  <fragmenstein_error>  (763) 


>  <tags>  (763) 
{'openbind_xx01zvns2b_c1_fragmenstein', 'fragmenstein_placed'}

>  <ref_pdb>  (763) 
1

>  <scratch_subdir>  (763) 
/opt/xchem-fragalysis-2/maxwin/BulkDock/SCRATCH/511027/C102570-P142

>  <alias>  (763) 
N[C@@H]1N[C@@H]2C(=O)N[C@@H]3CC[C@@H](C(=O)Nc4ccc5c(c4)CNC5)[C@H]1[C@H]23

>  <HIPPO Compound ID>  (763) 
39634

>  <fragmenstein_runtime>  (763) 
3.432597

$$$$
Cn1cc2c([C@H](Nc3ccc4c(c3)CNC4)C(=O)NC3CCOCC3)cc(Cl)c3c2c1C=N3
     RDKit          3D

 33 38  0  0  0  0  0  0  0  0999 V2000
   -3.1233    6.6167  -17.2268 C   0  0  0  0  0  0  0  0  0  0  0  0
   -4.3684    6.0059  -16.8598 N   0  0  0  0  0  0  0  0  0  0  0  0
   -4.9208    5.9587  -15.5547 C   0  0  0  0  0  0  0  0  0  0  0  0
   -6.1495    5.3243  -15.6295 C   0  0  0  0  0  0  0  0  0  0  0  0
   -7.1936    5.0426  -14.7353 C   0  0  0  0  0  0  0  0  0  0  0  0
   -7.2328    5.3669  -13.2579 C   0  0  2  0  0  0  0  0  0  0  0  0
   -8.3374    4.6092  -12.6025 N   0  0  0  0  0  0  0  0  0  0  0  0
   -8.2408    4.3909  -11.2034 C   0  0  0  0  0  0  0  0  0  0  0  0
   -7.9401    5.4207  -10.2898 C   0  0  0  0  0  0  0  0  0  0  0  0
   -8.0593    5.2403   -8.9054 C   0  0  0  0  0  0  0  0  0  0  0  0
   -8.4844    4.0147   -8.4395 C   0  0  0  0  0  0  0  0  0  0  0  0
   -8.7344    2.9686   -9.3172 C   0  0  0  0  0  0  0  0  0  0  0  0
   -8.6336    3.1408  -10.6894 C   0  0  0  0  0  0  0  0  0  0  0  0
   -9.1152    1.7606   -8.5275 C   0  0  0  0  0  0  0  0  0  0  0  0
   -9.5118    2.2871   -7.1951 N   0  0  0  0  0  0  0  0  0  0  0  0
   -8.7809    3.5665   -7.0474 C   0  0  0  0  0  0  0  0  0  0  0  0
   -7.3148    6.9361  -13.0869 C   0  0  0  0  0  0  0  0  0  0  0  0
   -6.3646    7.6117  -13.1952 O   0  0  0  0  0  0  0  0  0  0  0  0
   -8.8059    7.3220  -12.8700 N   0  0  0  0  0  0  0  0  0  0  0  0
   -9.4221    8.6201  -12.6458 C   0  0  0  0  0  0  0  0  0  0  0  0
  -10.7924    8.7701  -13.2999 C   0  0  0  0  0  0  0  0  0  0  0  0
  -11.3968   10.1475  -13.0280 C   0  0  0  0  0  0  0  0  0  0  0  0
  -10.7217   10.8516  -11.9835 O   0  0  0  0  0  0  0  0  0  0  0  0
  -10.5169   10.0202  -10.8423 C   0  0  0  0  0  0  0  0  0  0  0  0
   -9.4573    8.9700  -11.1548 C   0  0  0  0  0  0  0  0  0  0  0  0
   -8.2878    4.4433  -15.5157 C   0  0  0  0  0  0  0  0  0  0  0  0
   -8.2775    4.1596  -16.9630 C   0  0  0  0  0  0  0  0  0  0  0  0
   -9.6814    3.5449  -17.7295 Cl  0  0  0  0  0  0  0  0  0  0  0  0
   -7.1772    4.4448  -17.7478 C   0  0  0  0  0  0  0  0  0  0  0  0
   -6.2465    5.0062  -16.9579 C   0  0  0  0  0  0  0  0  0  0  0  0
   -5.2294    5.4101  -17.7258 C   0  0  0  0  0  0  0  0  0  0  0  0
   -5.5466    5.0407  -19.0655 C   0  0  0  0  0  0  0  0  0  0  0  0
   -6.7154    4.4393  -19.0844 N   0  0  0  0  0  0  0  0  0  0  0  0
  1  2  1  0
  2  3  1  0
  3  4  2  0
  4  5  1  0
  5  6  1  0
  6  7  1  6
  7  8  1  0
  8  9  2  0
  9 10  1  0
 10 11  2  0
 11 12  1  0
 12 13  2  0
 12 14  1  0
 14 15  1  0
 15 16  1  0
  6 17  1  0
 17 18  2  0
 17 19  1  0
 19 20  1  0
 20 21  1  0
 21 22  1  0
 22 23  1  0
 23 24  1  0
 24 25  1  0
  5 26  2  0
 26 27  1  0
 27 28  1  0
 27 29  2  0
 29 30  1  0
 30 31  2  0
 31 32  1  0
 32 33  2  0
 31  2  1  0
 30  4  1  0
 13  8  1  0
 25 20  1  0
 33 29  1  0
 16 11  1  0
M  END
>  <smiles>  (764) 
C102633-P142

>  <fragmenstein_outcome>  (764) 
acceptable

>  <inchikey>  (764) 
OSBLKOFQEKOOOH-UHFFFAOYSA-N

>  <fragmenstein_mode>  (764) 
expansion

>  <HIPPO Pose ID>  (764) 
18219

>  <Energy>  (764) 
169.209067

>  <fragmenstein_error>  (764) 


>  <tags>  (764) 
{'openbind_xx01zvns2b_c1_fragmenstein', 'fragmenstein_placed'}

>  <ref_pdb>  (764) 
1

>  <scratch_subdir>  (764) 
/opt/xchem-fragalysis-2/maxwin/BulkDock/SCRATCH/511027/C102633-P142

>  <alias>  (764) 
Cn1cc2c([C@H](Nc3ccc4c(c3)CNC4)C(=O)NC3CCOCC3)cc(Cl)c3c2c1C=N3

>  <HIPPO Compound ID>  (764) 
102633

>  <fragmenstein_runtime>  (764) 
4.723168

$$$$
O=C(NC1CCOCC1)[C@@](O)(Nc1ccc2c(c1)CNC2)c1cc2scnc2c2[nH]ncc12
     RDKit          3D

 33 38  0  0  0  0  0  0  0  0999 V2000
   -6.0834    7.3426  -12.8365 O   0  0  0  0  0  0  0  0  0  0  0  0
   -7.0725    6.7175  -12.9205 C   0  0  0  0  0  0  0  0  0  0  0  0
   -8.5678    7.1727  -12.8491 N   0  0  0  0  0  0  0  0  0  0  0  0
   -9.1474    8.4832  -12.5625 C   0  0  0  0  0  0  0  0  0  0  0  0
  -10.5217    8.6591  -13.2286 C   0  0  0  0  0  0  0  0  0  0  0  0
  -10.6851   10.0254  -13.8803 C   0  0  0  0  0  0  0  0  0  0  0  0
  -10.2407   11.0392  -12.9883 O   0  0  0  0  0  0  0  0  0  0  0  0
   -8.8465   10.9883  -12.7021 C   0  0  0  0  0  0  0  0  0  0  0  0
   -8.1998    9.6261  -12.9225 C   0  0  0  0  0  0  0  0  0  0  0  0
   -7.0551    5.1169  -13.1700 C   0  0  1  0  0  0  0  0  0  0  0  0
   -5.8769    4.4806  -12.7237 O   0  0  0  0  0  0  0  0  0  0  0  0
   -8.1938    4.4185  -12.5398 N   0  0  0  0  0  0  0  0  0  0  0  0
   -8.2340    4.2628  -11.1331 C   0  0  0  0  0  0  0  0  0  0  0  0
   -8.0155    5.3231  -10.2284 C   0  0  0  0  0  0  0  0  0  0  0  0
   -8.1724    5.1649   -8.8455 C   0  0  0  0  0  0  0  0  0  0  0  0
   -8.5716    3.9354   -8.3710 C   0  0  0  0  0  0  0  0  0  0  0  0
   -8.7743    2.8716   -9.2394 C   0  0  0  0  0  0  0  0  0  0  0  0
   -8.6249    3.0180  -10.6095 C   0  0  0  0  0  0  0  0  0  0  0  0
   -9.1490    1.6673   -8.4422 C   0  0  0  0  0  0  0  0  0  0  0  0
   -9.5849    2.2032   -7.1270 N   0  0  0  0  0  0  0  0  0  0  0  0
   -8.8791    3.4953   -6.9785 C   0  0  0  0  0  0  0  0  0  0  0  0
   -7.0683    4.9013  -14.6953 C   0  0  0  0  0  0  0  0  0  0  0  0
   -8.2457    4.4232  -15.3956 C   0  0  0  0  0  0  0  0  0  0  0  0
   -8.2122    4.2082  -16.7890 C   0  0  0  0  0  0  0  0  0  0  0  0
   -9.3413    3.6393  -17.9415 S   0  0  0  0  0  0  0  0  0  0  0  0
   -8.1564    3.8475  -19.1859 C   0  0  0  0  0  0  0  0  0  0  0  0
   -6.9736    4.2949  -18.8240 N   0  0  0  0  0  0  0  0  0  0  0  0
   -7.0515    4.4932  -17.4809 C   0  0  0  0  0  0  0  0  0  0  0  0
   -5.9684    4.9631  -16.8214 C   0  0  0  0  0  0  0  0  0  0  0  0
   -4.8041    5.2520  -17.4024 N   0  0  0  0  0  0  0  0  0  0  0  0
   -3.8975    5.6855  -16.4976 N   0  0  0  0  0  0  0  0  0  0  0  0
   -4.5715    5.6231  -15.3306 C   0  0  0  0  0  0  0  0  0  0  0  0
   -5.9085    5.1756  -15.4763 C   0  0  0  0  0  0  0  0  0  0  0  0
  1  2  2  0
  2  3  1  0
  3  4  1  0
  4  5  1  0
  5  6  1  0
  6  7  1  0
  7  8  1  0
  8  9  1  0
  2 10  1  0
 10 11  1  1
 10 12  1  0
 12 13  1  0
 13 14  2  0
 14 15  1  0
 15 16  2  0
 16 17  1  0
 17 18  2  0
 17 19  1  0
 19 20  1  0
 20 21  1  0
 10 22  1  0
 22 23  2  0
 23 24  1  0
 24 25  1  0
 25 26  1  0
 26 27  2  0
 27 28  1  0
 28 29  1  0
 29 30  1  0
 30 31  1  0
 31 32  2  0
 32 33  1  0
  9  4  1  0
 18 13  1  0
 33 22  1  0
 21 16  1  0
 28 24  2  0
 33 29  2  0
M  END
>  <smiles>  (765) 
C102724-P142

>  <fragmenstein_outcome>  (765) 
acceptable

>  <inchikey>  (765) 
VUEBRSNLGFPZDH-UHFFFAOYSA-N

>  <fragmenstein_mode>  (765) 
expansion

>  <HIPPO Pose ID>  (765) 
18245

>  <Energy>  (765) 
107.876677

>  <fragmenstein_error>  (765) 


>  <tags>  (765) 
{'openbind_xx01zvns2b_c1_fragmenstein', 'fragmenstein_placed'}

>  <ref_pdb>  (765) 
1

>  <scratch_subdir>  (765) 
/opt/xchem-fragalysis-2/maxwin/BulkDock/SCRATCH/511027/C102724-P142

>  <alias>  (765) 
O=C(NC1CCOCC1)[C@@](O)(Nc1ccc2c(c1)CNC2)c1cc2scnc2c2[nH]ncc12

>  <HIPPO Compound ID>  (765) 
102724

>  <fragmenstein_runtime>  (765) 
4.677226

$$$$
O=C(NC1CCOCC1)[C@](O)(Nc1ccc2c(c1)CNC2)c1cc(Cl)c2[nH]c(=O)n3c2c1CN3
     RDKit          3D

 34 39  0  0  0  0  0  0  0  0999 V2000
   -4.6409    4.2283  -12.8905 O   0  0  0  0  0  0  0  0  0  0  0  0
   -5.3321    5.2079  -12.9128 C   0  0  0  0  0  0  0  0  0  0  0  0
   -5.0678    6.5588  -12.4697 N   0  0  0  0  0  0  0  0  0  0  0  0
   -3.8589    7.1696  -11.9509 C   0  0  0  0  0  0  0  0  0  0  0  0
   -3.4894    6.6190  -10.5718 C   0  0  0  0  0  0  0  0  0  0  0  0
   -4.3550    7.2251   -9.4779 C   0  0  0  0  0  0  0  0  0  0  0  0
   -4.2983    8.6514   -9.5216 O   0  0  0  0  0  0  0  0  0  0  0  0
   -4.8096    9.1697  -10.7472 C   0  0  0  0  0  0  0  0  0  0  0  0
   -3.9677    8.6937  -11.9231 C   0  0  0  0  0  0  0  0  0  0  0  0
   -6.8183    5.1619  -13.5385 C   0  0  2  0  0  0  0  0  0  0  0  0
   -7.5150    6.3949  -13.4476 O   0  0  0  0  0  0  0  0  0  0  0  0
   -7.6245    4.1648  -12.8343 N   0  0  0  0  0  0  0  0  0  0  0  0
   -7.8170    4.1730  -11.4382 C   0  0  0  0  0  0  0  0  0  0  0  0
   -7.7367    5.3235  -10.6259 C   0  0  0  0  0  0  0  0  0  0  0  0
   -7.9914    5.2844   -9.2468 C   0  0  0  0  0  0  0  0  0  0  0  0
   -8.3712    4.0854   -8.6838 C   0  0  0  0  0  0  0  0  0  0  0  0
   -8.5128    2.9530   -9.4685 C   0  0  0  0  0  0  0  0  0  0  0  0
   -8.2515    2.9817  -10.8321 C   0  0  0  0  0  0  0  0  0  0  0  0
   -8.9495    1.8099   -8.6144 C   0  0  0  0  0  0  0  0  0  0  0  0
   -9.2471    2.3898   -7.2801 N   0  0  0  0  0  0  0  0  0  0  0  0
   -8.6852    3.7522   -7.2657 C   0  0  0  0  0  0  0  0  0  0  0  0
   -6.7844    4.8747  -15.0415 C   0  0  0  0  0  0  0  0  0  0  0  0
   -7.9374    4.3237  -15.7278 C   0  0  0  0  0  0  0  0  0  0  0  0
   -8.0186    4.1944  -17.1498 C   0  0  0  0  0  0  0  0  0  0  0  0
   -9.4441    3.6218  -17.8997 Cl  0  0  0  0  0  0  0  0  0  0  0  0
   -6.9401    4.5931  -17.8868 C   0  0  0  0  0  0  0  0  0  0  0  0
   -6.6404    4.8732  -19.2309 N   0  0  0  0  0  0  0  0  0  0  0  0
   -5.3746    5.5762  -19.2844 C   0  0  0  0  0  0  0  0  0  0  0  0
   -4.8940    6.1517  -20.2461 O   0  0  0  0  0  0  0  0  0  0  0  0
   -4.8554    5.4866  -17.9613 N   0  0  0  0  0  0  0  0  0  0  0  0
   -5.8570    5.0040  -17.1783 C   0  0  0  0  0  0  0  0  0  0  0  0
   -5.7217    5.2510  -15.8478 C   0  0  0  0  0  0  0  0  0  0  0  0
   -4.4277    6.0115  -15.7473 C   0  0  0  0  0  0  0  0  0  0  0  0
   -4.0181    6.3142  -17.1901 N   0  0  0  0  0  0  0  0  0  0  0  0
  1  2  2  0
  2  3  1  0
  3  4  1  0
  4  5  1  0
  5  6  1  0
  6  7  1  0
  7  8  1  0
  8  9  1  0
  2 10  1  0
 10 11  1  6
 10 12  1  0
 12 13  1  0
 13 14  2  0
 14 15  1  0
 15 16  2  0
 16 17  1  0
 17 18  2  0
 17 19  1  0
 19 20  1  0
 20 21  1  0
 10 22  1  0
 22 23  2  0
 23 24  1  0
 24 25  1  0
 24 26  2  0
 26 27  1  0
 27 28  1  0
 28 29  2  0
 28 30  1  0
 30 31  1  0
 31 32  2  0
 32 33  1  0
 33 34  1  0
  9  4  1  0
 18 13  1  0
 32 22  1  0
 21 16  1  0
 31 26  1  0
 34 30  1  0
M  END
>  <smiles>  (766) 
C102725-P142

>  <fragmenstein_outcome>  (766) 
acceptable

>  <inchikey>  (766) 
GNMFBFLOKAYXRL-UHFFFAOYSA-N

>  <fragmenstein_mode>  (766) 
expansion

>  <HIPPO Pose ID>  (766) 
18248

>  <Energy>  (766) 
134.098192

>  <fragmenstein_error>  (766) 


>  <tags>  (766) 
{'openbind_xx01zvns2b_c1_fragmenstein', 'fragmenstein_placed'}

>  <ref_pdb>  (766) 
1

>  <scratch_subdir>  (766) 
/opt/xchem-fragalysis-2/maxwin/BulkDock/SCRATCH/511027/C102725-P142

>  <alias>  (766) 
O=C(NC1CCOCC1)[C@](O)(Nc1ccc2c(c1)CNC2)c1cc(Cl)c2[nH]c(=O)n3c2c1CN3

>  <HIPPO Compound ID>  (766) 
86858

>  <fragmenstein_runtime>  (766) 
10.139307

$$$$
CNCn1ncc2c([C@@](O)(Nc3ccc4c(c3)CNC4)C(=O)NC3CCOCC3)cc(Cl)cc21
     RDKit          3D

 34 38  0  0  0  0  0  0  0  0999 V2000
   -2.8929    4.8673  -18.1569 C   0  0  0  0  0  0  0  0  0  0  0  0
   -4.1062    5.1578  -18.9077 N   0  0  0  0  0  0  0  0  0  0  0  0
   -4.6656    6.4721  -18.5676 C   0  0  0  0  0  0  0  0  0  0  0  0
   -5.2446    6.4588  -17.2222 N   0  0  0  0  0  0  0  0  0  0  0  0
   -4.5784    7.0418  -16.2010 N   0  0  0  0  0  0  0  0  0  0  0  0
   -5.2358    6.6069  -15.1260 C   0  0  0  0  0  0  0  0  0  0  0  0
   -6.3749    5.8241  -15.4391 C   0  0  0  0  0  0  0  0  0  0  0  0
   -7.3536    5.1083  -14.6968 C   0  0  0  0  0  0  0  0  0  0  0  0
   -7.2389    4.8687  -13.1851 C   0  0  1  0  0  0  0  0  0  0  0  0
   -6.4836    5.9521  -12.6336 O   0  0  0  0  0  0  0  0  0  0  0  0
   -8.5525    4.9516  -12.5354 N   0  0  0  0  0  0  0  0  0  0  0  0
   -8.5690    4.7492  -11.1340 C   0  0  0  0  0  0  0  0  0  0  0  0
   -8.4265    5.8520  -10.2554 C   0  0  0  0  0  0  0  0  0  0  0  0
   -8.4091    5.6875   -8.8678 C   0  0  0  0  0  0  0  0  0  0  0  0
   -8.5878    4.4135   -8.3693 C   0  0  0  0  0  0  0  0  0  0  0  0
   -8.7237    3.3202   -9.2208 C   0  0  0  0  0  0  0  0  0  0  0  0
   -8.6789    3.4627  -10.5988 C   0  0  0  0  0  0  0  0  0  0  0  0
   -8.9475    2.0908   -8.4009 C   0  0  0  0  0  0  0  0  0  0  0  0
   -9.3199    2.6016   -7.0500 N   0  0  0  0  0  0  0  0  0  0  0  0
   -8.7153    3.9452   -6.9586 C   0  0  0  0  0  0  0  0  0  0  0  0
   -6.4879    3.4616  -12.9667 C   0  0  0  0  0  0  0  0  0  0  0  0
   -6.9718    2.4030  -13.1113 O   0  0  0  0  0  0  0  0  0  0  0  0
   -5.0438    3.8637  -12.5031 N   0  0  0  0  0  0  0  0  0  0  0  0
   -3.8872    3.0436  -12.2193 C   0  0  0  0  0  0  0  0  0  0  0  0
   -2.6296    3.8524  -12.5184 C   0  0  0  0  0  0  0  0  0  0  0  0
   -2.4939    4.1257  -14.0175 C   0  0  0  0  0  0  0  0  0  0  0  0
   -3.0998    3.1300  -14.8374 O   0  0  0  0  0  0  0  0  0  0  0  0
   -3.0093    1.8342  -14.2660 C   0  0  0  0  0  0  0  0  0  0  0  0
   -3.8316    1.7326  -12.9921 C   0  0  0  0  0  0  0  0  0  0  0  0
   -8.3959    4.5100  -15.4547 C   0  0  0  0  0  0  0  0  0  0  0  0
   -8.4457    4.6079  -16.8486 C   0  0  0  0  0  0  0  0  0  0  0  0
   -9.7622    3.9382  -17.7328 Cl  0  0  0  0  0  0  0  0  0  0  0  0
   -7.4391    5.2459  -17.5691 C   0  0  0  0  0  0  0  0  0  0  0  0
   -6.4110    5.8380  -16.8320 C   0  0  0  0  0  0  0  0  0  0  0  0
  1  2  1  0
  2  3  1  0
  3  4  1  0
  4  5  1  0
  5  6  2  0
  6  7  1  0
  7  8  2  0
  8  9  1  0
  9 10  1  1
  9 11  1  0
 11 12  1  0
 12 13  2  0
 13 14  1  0
 14 15  2  0
 15 16  1  0
 16 17  2  0
 16 18  1  0
 18 19  1  0
 19 20  1  0
  9 21  1  0
 21 22  2  0
 21 23  1  0
 23 24  1  0
 24 25  1  0
 25 26  1  0
 26 27  1  0
 27 28  1  0
 28 29  1  0
  8 30  1  0
 30 31  2  0
 31 32  1  0
 31 33  1  0
 33 34  2  0
 34  4  1  0
 34  7  1  0
 17 12  1  0
 29 24  1  0
 20 15  1  0
M  END
>  <smiles>  (767) 
C102784-P143

>  <fragmenstein_outcome>  (767) 
acceptable

>  <inchikey>  (767) 
YFOOFDJNYDUSFQ-UHFFFAOYSA-N

>  <fragmenstein_mode>  (767) 
expansion

>  <HIPPO Pose ID>  (767) 
18266

>  <Energy>  (767) 
140.537263

>  <fragmenstein_error>  (767) 


>  <tags>  (767) 
{'openbind_xx01zvns2b_c1_fragmenstein', 'fragmenstein_placed'}

>  <ref_pdb>  (767) 
1

>  <scratch_subdir>  (767) 
/opt/xchem-fragalysis-2/maxwin/BulkDock/SCRATCH/511027/C102784-P143

>  <alias>  (767) 
CNCn1ncc2c([C@@](O)(Nc3ccc4c(c3)CNC4)C(=O)NC3CCOCC3)cc(Cl)cc21

>  <HIPPO Compound ID>  (767) 
18260

>  <fragmenstein_runtime>  (767) 
11.230098

$$$$
O=C(NC1CCOCC1)[C@@](O)(Nc1ccc2c(c1)CNC2)c1cc(Cl)cc2c1cnn2NC1CCC1
     RDKit          3D

 36 41  0  0  0  0  0  0  0  0999 V2000
   -7.2538    1.8620  -13.4627 O   0  0  0  0  0  0  0  0  0  0  0  0
   -7.0077    2.9799  -13.2047 C   0  0  0  0  0  0  0  0  0  0  0  0
   -5.6724    3.6383  -12.7185 N   0  0  0  0  0  0  0  0  0  0  0  0
   -4.4024    3.0371  -12.3618 C   0  0  0  0  0  0  0  0  0  0  0  0
   -3.2751    4.0491  -12.5523 C   0  0  0  0  0  0  0  0  0  0  0  0
   -2.9542    4.2931  -14.0282 C   0  0  0  0  0  0  0  0  0  0  0  0
   -3.2806    3.2018  -14.8816 O   0  0  0  0  0  0  0  0  0  0  0  0
   -3.0762    1.9514  -14.2448 C   0  0  0  0  0  0  0  0  0  0  0  0
   -4.0596    1.7521  -13.1040 C   0  0  0  0  0  0  0  0  0  0  0  0
   -8.0682    4.2024  -13.3636 C   0  0  1  0  0  0  0  0  0  0  0  0
   -9.4389    3.9616  -13.2432 O   0  0  0  0  0  0  0  0  0  0  0  0
   -7.8006    5.2390  -12.3532 N   0  0  0  0  0  0  0  0  0  0  0  0
   -8.0521    4.9333  -10.9848 C   0  0  0  0  0  0  0  0  0  0  0  0
   -7.9225    5.9972  -10.0637 C   0  0  0  0  0  0  0  0  0  0  0  0
   -8.1254    5.8181   -8.6888 C   0  0  0  0  0  0  0  0  0  0  0  0
   -8.4695    4.5597   -8.2373 C   0  0  0  0  0  0  0  0  0  0  0  0
   -8.5890    3.4973   -9.1212 C   0  0  0  0  0  0  0  0  0  0  0  0
   -8.3680    3.6594  -10.4813 C   0  0  0  0  0  0  0  0  0  0  0  0
   -8.9597    2.2619   -8.3649 C   0  0  0  0  0  0  0  0  0  0  0  0
   -9.3861    2.7480   -7.0233 N   0  0  0  0  0  0  0  0  0  0  0  0
   -8.7513    4.0720   -6.8564 C   0  0  0  0  0  0  0  0  0  0  0  0
   -7.8944    4.7567  -14.7925 C   0  0  0  0  0  0  0  0  0  0  0  0
   -8.7470    4.2394  -15.8125 C   0  0  0  0  0  0  0  0  0  0  0  0
   -8.6403    4.5855  -17.1507 C   0  0  0  0  0  0  0  0  0  0  0  0
   -9.7764    3.9837  -18.2842 Cl  0  0  0  0  0  0  0  0  0  0  0  0
   -7.6341    5.4282  -17.5750 C   0  0  0  0  0  0  0  0  0  0  0  0
   -6.7808    5.9455  -16.5931 C   0  0  0  0  0  0  0  0  0  0  0  0
   -6.9077    5.6718  -15.2332 C   0  0  0  0  0  0  0  0  0  0  0  0
   -5.9104    6.4868  -14.6458 C   0  0  0  0  0  0  0  0  0  0  0  0
   -5.1941    7.1762  -15.5402 N   0  0  0  0  0  0  0  0  0  0  0  0
   -5.6711    6.7457  -16.7147 N   0  0  0  0  0  0  0  0  0  0  0  0
   -5.1783    7.1908  -17.9608 N   0  0  0  0  0  0  0  0  0  0  0  0
   -3.9981    6.4157  -18.3763 C   0  0  0  0  0  0  0  0  0  0  0  0
   -4.2915    4.9114  -18.6051 C   0  0  0  0  0  0  0  0  0  0  0  0
   -4.7522    5.2511  -20.0329 C   0  0  0  0  0  0  0  0  0  0  0  0
   -3.9036    6.5378  -19.9209 C   0  0  0  0  0  0  0  0  0  0  0  0
  1  2  2  0
  2  3  1  0
  3  4  1  0
  4  5  1  0
  5  6  1  0
  6  7  1  0
  7  8  1  0
  8  9  1  0
  2 10  1  0
 10 11  1  6
 10 12  1  0
 12 13  1  0
 13 14  2  0
 14 15  1  0
 15 16  2  0
 16 17  1  0
 17 18  2  0
 17 19  1  0
 19 20  1  0
 20 21  1  0
 10 22  1  0
 22 23  2  0
 23 24  1  0
 24 25  1  0
 24 26  2  0
 26 27  1  0
 27 28  2  0
 28 29  1  0
 29 30  2  0
 30 31  1  0
 31 32  1  0
 32 33  1  0
 33 34  1  0
 34 35  1  0
 35 36  1  0
  9  4  1  0
 18 13  1  0
 28 22  1  0
 36 33  1  0
 21 16  1  0
 31 27  1  0
M  END
>  <smiles>  (768) 
C102826-P143

>  <fragmenstein_outcome>  (768) 
acceptable

>  <inchikey>  (768) 
QIIQQSPRQOMISH-UHFFFAOYSA-N

>  <fragmenstein_mode>  (768) 
expansion

>  <HIPPO Pose ID>  (768) 
18275

>  <Energy>  (768) 
80.469002

>  <fragmenstein_error>  (768) 


>  <tags>  (768) 
{'openbind_xx01zvns2b_c1_fragmenstein', 'fragmenstein_placed'}

>  <ref_pdb>  (768) 
1

>  <scratch_subdir>  (768) 
/opt/xchem-fragalysis-2/maxwin/BulkDock/SCRATCH/511027/C102826-P143

>  <alias>  (768) 
O=C(NC1CCOCC1)[C@@](O)(Nc1ccc2c(c1)CNC2)c1cc(Cl)cc2c1cnn2NC1CCC1

>  <HIPPO Compound ID>  (768) 
94516

>  <fragmenstein_runtime>  (768) 
37.475634

$$$$
O=C(NC1CCOCC1)[C@@](O)(Nc1ccc2c(c1)CNC2)c1cc(Cl)cc2c1CN[C@]21CCNC1
     RDKit          3D

 35 40  0  0  0  0  0  0  0  0999 V2000
   -7.4253    1.6864  -13.6123 O   0  0  0  0  0  0  0  0  0  0  0  0
   -7.0742    2.7416  -13.2537 C   0  0  0  0  0  0  0  0  0  0  0  0
   -5.7448    3.1857  -12.5858 N   0  0  0  0  0  0  0  0  0  0  0  0
   -4.5388    2.4392  -12.3093 C   0  0  0  0  0  0  0  0  0  0  0  0
   -3.5973    2.4703  -13.5189 C   0  0  0  0  0  0  0  0  0  0  0  0
   -2.5445    3.5458  -13.3281 C   0  0  0  0  0  0  0  0  0  0  0  0
   -1.7137    3.2920  -12.1911 O   0  0  0  0  0  0  0  0  0  0  0  0
   -2.3678    2.6358  -11.0983 C   0  0  0  0  0  0  0  0  0  0  0  0
   -3.8560    2.9400  -11.0362 C   0  0  0  0  0  0  0  0  0  0  0  0
   -7.9955    4.0754  -13.4389 C   0  0  1  0  0  0  0  0  0  0  0  0
   -9.3813    3.9444  -13.2608 O   0  0  0  0  0  0  0  0  0  0  0  0
   -7.6140    5.1142  -12.4686 N   0  0  0  0  0  0  0  0  0  0  0  0
   -7.9180    4.9006  -11.0906 C   0  0  0  0  0  0  0  0  0  0  0  0
   -7.7109    5.9892  -10.2154 C   0  0  0  0  0  0  0  0  0  0  0  0
   -7.9066    5.8765   -8.8320 C   0  0  0  0  0  0  0  0  0  0  0  0
   -8.3022    4.6556   -8.3213 C   0  0  0  0  0  0  0  0  0  0  0  0
   -8.5159    3.5750   -9.1598 C   0  0  0  0  0  0  0  0  0  0  0  0
   -8.3187    3.6743  -10.5301 C   0  0  0  0  0  0  0  0  0  0  0  0
   -8.9904    2.4041   -8.3648 C   0  0  0  0  0  0  0  0  0  0  0  0
   -8.8578    2.8037   -6.9376 N   0  0  0  0  0  0  0  0  0  0  0  0
   -8.5913    4.2548   -6.9166 C   0  0  0  0  0  0  0  0  0  0  0  0
   -7.8243    4.5448  -14.9011 C   0  0  0  0  0  0  0  0  0  0  0  0
   -8.8301    4.2138  -15.8431 C   0  0  0  0  0  0  0  0  0  0  0  0
   -8.7044    4.4513  -17.2131 C   0  0  0  0  0  0  0  0  0  0  0  0
  -10.0060    4.0804  -18.2636 Cl  0  0  0  0  0  0  0  0  0  0  0  0
   -7.5397    4.9815  -17.7248 C   0  0  0  0  0  0  0  0  0  0  0  0
   -6.5445    5.3290  -16.8256 C   0  0  0  0  0  0  0  0  0  0  0  0
   -6.6994    5.1673  -15.4332 C   0  0  0  0  0  0  0  0  0  0  0  0
   -5.4772    5.7107  -14.7722 C   0  0  0  0  0  0  0  0  0  0  0  0
   -4.7875    6.5163  -15.8166 N   0  0  0  0  0  0  0  0  0  0  0  0
   -5.1816    5.9007  -17.1157 C   0  0  2  0  0  0  0  0  0  0  0  0
   -5.1649    6.8888  -18.2828 C   0  0  0  0  0  0  0  0  0  0  0  0
   -4.6958    6.0480  -19.4613 C   0  0  0  0  0  0  0  0  0  0  0  0
   -3.6299    5.2217  -18.8814 N   0  0  0  0  0  0  0  0  0  0  0  0
   -4.1694    4.8137  -17.5647 C   0  0  0  0  0  0  0  0  0  0  0  0
  1  2  2  0
  2  3  1  0
  3  4  1  0
  4  5  1  0
  5  6  1  0
  6  7  1  0
  7  8  1  0
  8  9  1  0
  2 10  1  0
 10 11  1  1
 10 12  1  0
 12 13  1  0
 13 14  2  0
 14 15  1  0
 15 16  2  0
 16 17  1  0
 17 18  2  0
 17 19  1  0
 19 20  1  0
 20 21  1  0
 10 22  1  0
 22 23  2  0
 23 24  1  0
 24 25  1  0
 24 26  2  0
 26 27  1  0
 27 28  2  0
 28 29  1  0
 29 30  1  0
 30 31  1  0
 31 32  1  6
 32 33  1  0
 33 34  1  0
 34 35  1  0
  9  4  1  0
 18 13  1  0
 28 22  1  0
 35 31  1  0
 21 16  1  0
 31 27  1  0
M  END
>  <smiles>  (769) 
C102846-P143

>  <fragmenstein_outcome>  (769) 
acceptable

>  <inchikey>  (769) 
VTEKMNNXKYHFGM-UHFFFAOYSA-N

>  <fragmenstein_mode>  (769) 
expansion

>  <HIPPO Pose ID>  (769) 
18279

>  <Energy>  (769) 
138.658147

>  <fragmenstein_error>  (769) 


>  <tags>  (769) 
{'openbind_xx01zvns2b_c1_fragmenstein', 'fragmenstein_placed'}

>  <ref_pdb>  (769) 
1

>  <scratch_subdir>  (769) 
/opt/xchem-fragalysis-2/maxwin/BulkDock/SCRATCH/511027/C102846-P143

>  <alias>  (769) 
O=C(NC1CCOCC1)[C@@](O)(Nc1ccc2c(c1)CNC2)c1cc(Cl)cc2c1CN[C@]21CCNC1

>  <HIPPO Compound ID>  (769) 
85870

>  <fragmenstein_runtime>  (769) 
10.58866

$$$$
NCc1cc(Cl)cc(C(=O)Nc2ccc3c(c2)CNC3)c1-n1cncn1
     RDKit          3D

 26 29  0  0  0  0  0  0  0  0999 V2000
   -4.5711    5.2090  -18.4014 N   0  0  0  0  0  0  0  0  0  0  0  0
   -5.4162    6.1729  -17.7097 C   0  0  0  0  0  0  0  0  0  0  0  0
   -6.5269    5.4826  -16.9601 C   0  0  0  0  0  0  0  0  0  0  0  0
   -7.6186    5.0679  -17.7529 C   0  0  0  0  0  0  0  0  0  0  0  0
   -8.7286    4.4588  -17.1886 C   0  0  0  0  0  0  0  0  0  0  0  0
  -10.0629    4.0505  -18.1786 Cl  0  0  0  0  0  0  0  0  0  0  0  0
   -8.7519    4.1864  -15.8335 C   0  0  0  0  0  0  0  0  0  0  0  0
   -7.6734    4.5525  -15.0158 C   0  0  0  0  0  0  0  0  0  0  0  0
   -7.7099    3.9094  -13.6680 C   0  0  0  0  0  0  0  0  0  0  0  0
   -7.5842    2.7502  -13.6279 O   0  0  0  0  0  0  0  0  0  0  0  0
   -8.0158    4.9202  -12.5465 N   0  0  0  0  0  0  0  0  0  0  0  0
   -8.1342    4.7370  -11.1691 C   0  0  0  0  0  0  0  0  0  0  0  0
   -8.0870    5.8677  -10.3338 C   0  0  0  0  0  0  0  0  0  0  0  0
   -8.2482    5.7444   -8.9490 C   0  0  0  0  0  0  0  0  0  0  0  0
   -8.5029    4.4875   -8.4316 C   0  0  0  0  0  0  0  0  0  0  0  0
   -8.5696    3.3703   -9.2587 C   0  0  0  0  0  0  0  0  0  0  0  0
   -8.3589    3.4698  -10.6253 C   0  0  0  0  0  0  0  0  0  0  0  0
   -8.8963    2.1669   -8.4349 C   0  0  0  0  0  0  0  0  0  0  0  0
   -9.3420    2.7102   -7.1188 N   0  0  0  0  0  0  0  0  0  0  0  0
   -8.7471    4.0587   -7.0239 C   0  0  0  0  0  0  0  0  0  0  0  0
   -6.5726    5.2448  -15.5617 C   0  0  0  0  0  0  0  0  0  0  0  0
   -5.5829    5.7522  -14.6896 N   0  0  0  0  0  0  0  0  0  0  0  0
   -4.2254    5.8535  -14.8529 C   0  0  0  0  0  0  0  0  0  0  0  0
   -3.6877    6.5223  -13.8588 N   0  0  0  0  0  0  0  0  0  0  0  0
   -4.7643    6.8145  -13.0811 C   0  0  0  0  0  0  0  0  0  0  0  0
   -5.9424    6.4173  -13.5643 N   0  0  0  0  0  0  0  0  0  0  0  0
  1  2  1  0
  2  3  1  0
  3  4  2  0
  4  5  1  0
  5  6  1  0
  5  7  2  0
  7  8  1  0
  8  9  1  0
  9 10  2  0
  9 11  1  0
 11 12  1  0
 12 13  2  0
 13 14  1  0
 14 15  2  0
 15 16  1  0
 16 17  2  0
 16 18  1  0
 18 19  1  0
 19 20  1  0
  8 21  2  0
 21 22  1  0
 22 23  1  0
 23 24  2  0
 24 25  1  0
 25 26  2  0
 21  3  1  0
 26 22  1  0
 17 12  1  0
 20 15  1  0
M  END
>  <smiles>  (770) 
C102859-P143

>  <fragmenstein_outcome>  (770) 
acceptable

>  <inchikey>  (770) 
KLHGQLBWHNNSQN-UHFFFAOYSA-N

>  <fragmenstein_mode>  (770) 
expansion

>  <HIPPO Pose ID>  (770) 
18284

>  <Energy>  (770) 
60.033032

>  <fragmenstein_error>  (770) 


>  <tags>  (770) 
{'openbind_xx01zvns2b_c1_fragmenstein', 'fragmenstein_placed'}

>  <ref_pdb>  (770) 
1

>  <scratch_subdir>  (770) 
/opt/xchem-fragalysis-2/maxwin/BulkDock/SCRATCH/511027/C102859-P143

>  <alias>  (770) 
NCc1cc(Cl)cc(C(=O)Nc2ccc3c(c2)CNC3)c1-n1cncn1

>  <HIPPO Compound ID>  (770) 
76337

>  <fragmenstein_runtime>  (770) 
4.472115

$$$$
O=C(Nc1ccc2c(c1)CNC2)[C@H]1C[C@@H](Cl)[C@@H]2NCC[C@@H]3[C@H]2[C@@H]1N1NCN[C@@H]31
     RDKit          3D

 28 33  0  0  0  0  0  0  0  0999 V2000
   -7.6591    2.4675  -13.4440 O   0  0  0  0  0  0  0  0  0  0  0  0
   -7.4907    3.6231  -13.5187 C   0  0  0  0  0  0  0  0  0  0  0  0
   -7.6569    4.7333  -12.4506 N   0  0  0  0  0  0  0  0  0  0  0  0
   -7.9615    4.6453  -11.0935 C   0  0  0  0  0  0  0  0  0  0  0  0
   -7.8807    5.8013  -10.2985 C   0  0  0  0  0  0  0  0  0  0  0  0
   -8.1029    5.7363   -8.9170 C   0  0  0  0  0  0  0  0  0  0  0  0
   -8.4343    4.5127   -8.3617 C   0  0  0  0  0  0  0  0  0  0  0  0
   -8.5657    3.3820   -9.1561 C   0  0  0  0  0  0  0  0  0  0  0  0
   -8.3186    3.4246  -10.5184 C   0  0  0  0  0  0  0  0  0  0  0  0
   -8.9606    2.2155   -8.3156 C   0  0  0  0  0  0  0  0  0  0  0  0
   -9.1972    2.7622   -6.9529 N   0  0  0  0  0  0  0  0  0  0  0  0
   -8.6750    4.1397   -6.9384 C   0  0  0  0  0  0  0  0  0  0  0  0
   -7.1432    4.2337  -14.8848 C   0  0  1  0  0  0  0  0  0  0  0  0
   -8.4012    4.2089  -15.7988 C   0  0  0  0  0  0  0  0  0  0  0  0
   -8.0468    4.4141  -17.2915 C   0  0  1  0  0  0  0  0  0  0  0  0
   -9.5560    4.4853  -18.2480 Cl  0  0  0  0  0  0  0  0  0  0  0  0
   -7.1252    5.6413  -17.5418 C   0  0  2  0  0  0  0  0  0  0  0  0
   -6.5343    5.7193  -18.8744 N   0  0  0  0  0  0  0  0  0  0  0  0
   -5.6140    6.8369  -19.0887 C   0  0  0  0  0  0  0  0  0  0  0  0
   -5.1874    7.6046  -17.8258 C   0  0  0  0  0  0  0  0  0  0  0  0
   -4.8923    6.6513  -16.6763 C   0  0  2  0  0  0  0  0  0  0  0  0
   -5.9748    5.5697  -16.5516 C   0  0  1  0  0  0  0  0  0  0  0  0
   -6.5162    5.6159  -15.0939 C   0  0  2  0  0  0  0  0  0  0  0  0
   -5.2948    6.0861  -14.4698 N   0  0  0  0  0  0  0  0  0  0  0  0
   -5.3341    6.6457  -13.1573 N   0  0  0  0  0  0  0  0  0  0  0  0
   -4.1077    7.4764  -13.1656 C   0  0  0  0  0  0  0  0  0  0  0  0
   -3.7290    7.6883  -14.5834 N   0  0  0  0  0  0  0  0  0  0  0  0
   -4.9100    7.2441  -15.2824 C   0  0  1  0  0  0  0  0  0  0  0  0
  1  2  2  0
  2  3  1  0
  3  4  1  0
  4  5  2  0
  5  6  1  0
  6  7  2  0
  7  8  1  0
  8  9  2  0
  8 10  1  0
 10 11  1  0
 11 12  1  0
 13  2  1  1
 13 14  1  0
 14 15  1  0
 15 16  1  6
 15 17  1  0
 17 18  1  6
 18 19  1  0
 19 20  1  0
 21 20  1  6
 22 21  1  6
 22 23  1  0
 23 24  1  1
 24 25  1  0
 25 26  1  0
 26 27  1  0
 28 27  1  1
  9  4  1  0
 23 13  1  0
 28 24  1  0
 12  7  1  0
 22 17  1  0
 28 21  1  0
M  END
>  <smiles>  (771) 
C102862-P143

>  <fragmenstein_outcome>  (771) 
acceptable

>  <inchikey>  (771) 
DJHLRHFBJQEPIR-UHFFFAOYSA-N

>  <fragmenstein_mode>  (771) 
expansion

>  <HIPPO Pose ID>  (771) 
18285

>  <Energy>  (771) 
63.683835

>  <fragmenstein_error>  (771) 


>  <tags>  (771) 
{'openbind_xx01zvns2b_c1_fragmenstein', 'fragmenstein_placed'}

>  <ref_pdb>  (771) 
1

>  <scratch_subdir>  (771) 
/opt/xchem-fragalysis-2/maxwin/BulkDock/SCRATCH/511027/C102862-P143

>  <alias>  (771) 
O=C(Nc1ccc2c(c1)CNC2)[C@H]1C[C@@H](Cl)[C@@H]2NCC[C@@H]3[C@H]2[C@@H]1N1NCN[C@@H]31

>  <HIPPO Compound ID>  (771) 
103228

>  <fragmenstein_runtime>  (771) 
3.516091

$$$$
O=C(Nc1ccc2c(c1)CNC2)c1cc(Cl)ccc1-n1cncn1
     RDKit          3D

 24 27  0  0  0  0  0  0  0  0999 V2000
   -7.5397    2.6460  -13.5495 O   0  0  0  0  0  0  0  0  0  0  0  0
   -7.6573    3.8064  -13.6028 C   0  0  0  0  0  0  0  0  0  0  0  0
   -8.0002    4.8298  -12.4982 N   0  0  0  0  0  0  0  0  0  0  0  0
   -8.1710    4.6574  -11.1260 C   0  0  0  0  0  0  0  0  0  0  0  0
   -8.1296    5.7966  -10.3001 C   0  0  0  0  0  0  0  0  0  0  0  0
   -8.2983    5.6868   -8.9157 C   0  0  0  0  0  0  0  0  0  0  0  0
   -8.5547    4.4343   -8.3901 C   0  0  0  0  0  0  0  0  0  0  0  0
   -8.6186    3.3106   -9.2094 C   0  0  0  0  0  0  0  0  0  0  0  0
   -8.4011    3.3969  -10.5752 C   0  0  0  0  0  0  0  0  0  0  0  0
   -8.9392    2.1130   -8.3763 C   0  0  0  0  0  0  0  0  0  0  0  0
   -9.3949    2.6657   -7.0674 N   0  0  0  0  0  0  0  0  0  0  0  0
   -8.7988    4.0145   -6.9798 C   0  0  0  0  0  0  0  0  0  0  0  0
   -7.5691    4.4559  -14.9440 C   0  0  0  0  0  0  0  0  0  0  0  0
   -8.6382    4.1285  -15.7944 C   0  0  0  0  0  0  0  0  0  0  0  0
   -8.6272    4.5046  -17.1312 C   0  0  0  0  0  0  0  0  0  0  0  0
   -9.9514    4.1122  -18.1484 Cl  0  0  0  0  0  0  0  0  0  0  0  0
   -7.5449    5.2001  -17.6493 C   0  0  0  0  0  0  0  0  0  0  0  0
   -6.4840    5.5542  -16.8133 C   0  0  0  0  0  0  0  0  0  0  0  0
   -6.4935    5.2124  -15.4439 C   0  0  0  0  0  0  0  0  0  0  0  0
   -5.4395    5.6819  -14.6208 N   0  0  0  0  0  0  0  0  0  0  0  0
   -4.2737    6.3158  -14.9922 C   0  0  0  0  0  0  0  0  0  0  0  0
   -3.6001    6.7089  -13.9344 N   0  0  0  0  0  0  0  0  0  0  0  0
   -4.3919    6.2922  -12.9099 C   0  0  0  0  0  0  0  0  0  0  0  0
   -5.5283    5.7074  -13.2783 N   0  0  0  0  0  0  0  0  0  0  0  0
  1  2  2  0
  2  3  1  0
  3  4  1  0
  4  5  2  0
  5  6  1  0
  6  7  2  0
  7  8  1  0
  8  9  2  0
  8 10  1  0
 10 11  1  0
 11 12  1  0
  2 13  1  0
 13 14  2  0
 14 15  1  0
 15 16  1  0
 15 17  2  0
 17 18  1  0
 18 19  2  0
 19 20  1  0
 20 21  1  0
 21 22  2  0
 22 23  1  0
 23 24  2  0
  9  4  1  0
 19 13  1  0
 24 20  1  0
 12  7  1  0
M  END
>  <smiles>  (772) 
C135-P143

>  <fragmenstein_outcome>  (772) 
acceptable

>  <inchikey>  (772) 
BDLJGUFWWKFPSI-UHFFFAOYSA-N

>  <fragmenstein_mode>  (772) 
expansion

>  <HIPPO Pose ID>  (772) 
18289

>  <Energy>  (772) 
63.144084

>  <fragmenstein_error>  (772) 


>  <tags>  (772) 
{'openbind_xx01zvns2b_c1_fragmenstein', 'fragmenstein_placed'}

>  <ref_pdb>  (772) 
1

>  <scratch_subdir>  (772) 
/opt/xchem-fragalysis-2/maxwin/BulkDock/SCRATCH/511027/C135-P143

>  <alias>  (772) 
O=C(Nc1ccc2c(c1)CNC2)c1cc(Cl)ccc1-n1cncn1

>  <HIPPO Compound ID>  (772) 
87483

>  <fragmenstein_runtime>  (772) 
3.819323

$$$$
CN1Cc2ncnn2-c2c(C(=O)Nc3ccc4c(c3)CNC4)cc(Cl)c(Cl)c21
     RDKit          3D

 28 32  0  0  0  0  0  0  0  0999 V2000
   -5.2903    7.0867  -18.3527 C   0  0  0  0  0  0  0  0  0  0  0  0
   -5.0080    5.8308  -17.6457 N   0  0  0  0  0  0  0  0  0  0  0  0
   -3.8032    5.8530  -16.8030 C   0  0  0  0  0  0  0  0  0  0  0  0
   -4.0877    6.2551  -15.4136 C   0  0  0  0  0  0  0  0  0  0  0  0
   -3.3896    6.9344  -14.5308 N   0  0  0  0  0  0  0  0  0  0  0  0
   -4.2424    6.9773  -13.4646 C   0  0  0  0  0  0  0  0  0  0  0  0
   -5.4355    6.4080  -13.6585 N   0  0  0  0  0  0  0  0  0  0  0  0
   -5.2958    5.8869  -14.8883 N   0  0  0  0  0  0  0  0  0  0  0  0
   -6.3152    5.2602  -15.6146 C   0  0  0  0  0  0  0  0  0  0  0  0
   -7.4411    4.6849  -15.0134 C   0  0  0  0  0  0  0  0  0  0  0  0
   -7.4469    4.0714  -13.6578 C   0  0  0  0  0  0  0  0  0  0  0  0
   -7.3506    2.9096  -13.6184 O   0  0  0  0  0  0  0  0  0  0  0  0
   -7.6835    5.0915  -12.5311 N   0  0  0  0  0  0  0  0  0  0  0  0
   -7.9378    4.8994  -11.1745 C   0  0  0  0  0  0  0  0  0  0  0  0
   -7.9125    6.0128  -10.3195 C   0  0  0  0  0  0  0  0  0  0  0  0
   -8.1313    5.8625   -8.9453 C   0  0  0  0  0  0  0  0  0  0  0  0
   -8.4005    4.5958   -8.4559 C   0  0  0  0  0  0  0  0  0  0  0  0
   -8.4701    3.5012   -9.3062 C   0  0  0  0  0  0  0  0  0  0  0  0
   -8.2252    3.6290  -10.6652 C   0  0  0  0  0  0  0  0  0  0  0  0
   -8.8552    2.2852   -8.5334 C   0  0  0  0  0  0  0  0  0  0  0  0
   -8.8714    2.6941   -7.1000 N   0  0  0  0  0  0  0  0  0  0  0  0
   -8.6771    4.1571   -7.0597 C   0  0  0  0  0  0  0  0  0  0  0  0
   -8.5179    4.2908  -15.8166 C   0  0  0  0  0  0  0  0  0  0  0  0
   -8.4149    4.3358  -17.2044 C   0  0  0  0  0  0  0  0  0  0  0  0
   -9.7923    3.8583  -18.1245 Cl  0  0  0  0  0  0  0  0  0  0  0  0
   -7.2079    4.7209  -17.7988 C   0  0  0  0  0  0  0  0  0  0  0  0
   -6.8799    4.3417  -19.4549 Cl  0  0  0  0  0  0  0  0  0  0  0  0
   -6.1658    5.2751  -17.0232 C   0  0  0  0  0  0  0  0  0  0  0  0
  1  2  1  0
  2  3  1  0
  3  4  1  0
  4  5  2  0
  5  6  1  0
  6  7  2  0
  7  8  1  0
  8  9  1  0
  9 10  2  0
 10 11  1  0
 11 12  2  0
 11 13  1  0
 13 14  1  0
 14 15  2  0
 15 16  1  0
 16 17  2  0
 17 18  1  0
 18 19  2  0
 18 20  1  0
 20 21  1  0
 21 22  1  0
 10 23  1  0
 23 24  2  0
 24 25  1  0
 24 26  1  0
 26 27  1  0
 26 28  2  0
 28  2  1  0
  8  4  1  0
 28  9  1  0
 19 14  1  0
 22 17  1  0
M  END
>  <smiles>  (773) 
C102883-P143

>  <fragmenstein_outcome>  (773) 
acceptable

>  <inchikey>  (773) 
YGDRAJUPQMIFQD-UHFFFAOYSA-N

>  <fragmenstein_mode>  (773) 
expansion

>  <HIPPO Pose ID>  (773) 
18295

>  <Energy>  (773) 
88.074189

>  <fragmenstein_error>  (773) 


>  <tags>  (773) 
{'openbind_xx01zvns2b_c1_fragmenstein', 'fragmenstein_placed'}

>  <ref_pdb>  (773) 
1

>  <scratch_subdir>  (773) 
/opt/xchem-fragalysis-2/maxwin/BulkDock/SCRATCH/511027/C102883-P143

>  <alias>  (773) 
CN1Cc2ncnn2-c2c(C(=O)Nc3ccc4c(c3)CNC4)cc(Cl)c(Cl)c21

>  <HIPPO Compound ID>  (773) 
102883

>  <fragmenstein_runtime>  (773) 
4.201647

$$$$
CC(C)N[C@H](N)Nc1cc(Cl)cc(C(=O)Nc2ccc3c(c2)CNC3)c1-n1cncn1
     RDKit          3D

 31 34  0  0  0  0  0  0  0  0999 V2000
   -5.6934   10.6066  -17.7497 C   0  0  0  0  0  0  0  0  0  0  0  0
   -4.9337    9.9135  -18.8803 C   0  0  0  0  0  0  0  0  0  0  0  0
   -5.3619   10.5117  -20.2240 C   0  0  0  0  0  0  0  0  0  0  0  0
   -5.1177    8.4686  -18.9459 N   0  0  0  0  0  0  0  0  0  0  0  0
   -4.8012    7.6551  -17.8003 C   0  0  2  0  0  0  0  0  0  0  0  0
   -3.3861    7.8078  -17.6002 N   0  0  0  0  0  0  0  0  0  0  0  0
   -5.1932    6.2688  -17.9377 N   0  0  0  0  0  0  0  0  0  0  0  0
   -6.2416    5.7516  -17.1586 C   0  0  0  0  0  0  0  0  0  0  0  0
   -7.3092    5.1955  -17.8713 C   0  0  0  0  0  0  0  0  0  0  0  0
   -8.4255    4.6893  -17.2175 C   0  0  0  0  0  0  0  0  0  0  0  0
   -9.6800    3.9987  -18.1431 Cl  0  0  0  0  0  0  0  0  0  0  0  0
   -8.5518    4.8154  -15.8426 C   0  0  0  0  0  0  0  0  0  0  0  0
   -7.4949    5.3708  -15.1130 C   0  0  0  0  0  0  0  0  0  0  0  0
   -7.7947    5.7609  -13.7241 C   0  0  0  0  0  0  0  0  0  0  0  0
   -7.7534    6.9024  -13.4823 O   0  0  0  0  0  0  0  0  0  0  0  0
   -8.0502    4.5515  -12.8010 N   0  0  0  0  0  0  0  0  0  0  0  0
   -8.2092    4.4857  -11.4169 C   0  0  0  0  0  0  0  0  0  0  0  0
   -8.0535    5.6335  -10.6223 C   0  0  0  0  0  0  0  0  0  0  0  0
   -8.1679    5.5660   -9.2304 C   0  0  0  0  0  0  0  0  0  0  0  0
   -8.4494    4.3421   -8.6545 C   0  0  0  0  0  0  0  0  0  0  0  0
   -8.6222    3.2087   -9.4362 C   0  0  0  0  0  0  0  0  0  0  0  0
   -8.5000    3.2582  -10.8189 C   0  0  0  0  0  0  0  0  0  0  0  0
   -8.9516    2.0490   -8.5583 C   0  0  0  0  0  0  0  0  0  0  0  0
   -8.8898    2.5457   -7.1581 N   0  0  0  0  0  0  0  0  0  0  0  0
   -8.6464    3.9989   -7.2190 C   0  0  0  0  0  0  0  0  0  0  0  0
   -6.2830    5.7245  -15.7491 C   0  0  0  0  0  0  0  0  0  0  0  0
   -5.0684    5.9044  -15.0225 N   0  0  0  0  0  0  0  0  0  0  0  0
   -4.8130    6.2471  -13.7179 C   0  0  0  0  0  0  0  0  0  0  0  0
   -3.5303    6.1491  -13.4419 N   0  0  0  0  0  0  0  0  0  0  0  0
   -3.0012    5.7319  -14.6141 C   0  0  0  0  0  0  0  0  0  0  0  0
   -3.8685    5.6078  -15.6147 N   0  0  0  0  0  0  0  0  0  0  0  0
  1  2  1  0
  2  3  1  0
  2  4  1  0
  4  5  1  0
  5  6  1  6
  5  7  1  0
  7  8  1  0
  8  9  2  0
  9 10  1  0
 10 11  1  0
 10 12  2  0
 12 13  1  0
 13 14  1  0
 14 15  2  0
 14 16  1  0
 16 17  1  0
 17 18  2  0
 18 19  1  0
 19 20  2  0
 20 21  1  0
 21 22  2  0
 21 23  1  0
 23 24  1  0
 24 25  1  0
 13 26  2  0
 26 27  1  0
 27 28  1  0
 28 29  2  0
 29 30  1  0
 30 31  2  0
 26  8  1  0
 31 27  1  0
 22 17  1  0
 25 20  1  0
M  END
>  <smiles>  (774) 
C102929-P143

>  <fragmenstein_outcome>  (774) 
acceptable

>  <inchikey>  (774) 
FYDKQYHPFDTEKF-UHFFFAOYSA-N

>  <fragmenstein_mode>  (774) 
expansion

>  <HIPPO Pose ID>  (774) 
18309

>  <Energy>  (774) 
-89.774183

>  <fragmenstein_error>  (774) 


>  <tags>  (774) 
{'openbind_xx01zvns2b_c1_fragmenstein', 'fragmenstein_placed'}

>  <ref_pdb>  (774) 
1

>  <scratch_subdir>  (774) 
/opt/xchem-fragalysis-2/maxwin/BulkDock/SCRATCH/511027/C102929-P143

>  <alias>  (774) 
CC(C)N[C@H](N)Nc1cc(Cl)cc(C(=O)Nc2ccc3c(c2)CNC3)c1-n1cncn1

>  <HIPPO Compound ID>  (774) 
102929

>  <fragmenstein_runtime>  (774) 
4.900848

$$$$
NN1Cc2ccc(NC(=O)c3cc(Cl)cc(NC(=O)OCc4ccccc4)c3-n3cncn3)cc2C1
     RDKit          3D

 36 40  0  0  0  0  0  0  0  0999 V2000
   -9.1311    1.9325   -6.3949 N   0  0  0  0  0  0  0  0  0  0  0  0
   -9.4141    2.8289   -7.4748 N   0  0  0  0  0  0  0  0  0  0  0  0
   -8.6985    4.1207   -7.3702 C   0  0  0  0  0  0  0  0  0  0  0  0
   -8.4281    4.5141   -8.7895 C   0  0  0  0  0  0  0  0  0  0  0  0
   -8.1038    5.7456   -9.3284 C   0  0  0  0  0  0  0  0  0  0  0  0
   -7.8736    5.8268  -10.7077 C   0  0  0  0  0  0  0  0  0  0  0  0
   -7.9037    4.6736  -11.5092 C   0  0  0  0  0  0  0  0  0  0  0  0
   -7.6169    4.7859  -12.8677 N   0  0  0  0  0  0  0  0  0  0  0  0
   -7.2244    3.7083  -13.9027 C   0  0  0  0  0  0  0  0  0  0  0  0
   -7.0046    2.5701  -13.7640 O   0  0  0  0  0  0  0  0  0  0  0  0
   -7.2412    4.2593  -15.2838 C   0  0  0  0  0  0  0  0  0  0  0  0
   -8.4541    4.0942  -15.9635 C   0  0  0  0  0  0  0  0  0  0  0  0
   -8.5325    4.3796  -17.3217 C   0  0  0  0  0  0  0  0  0  0  0  0
  -10.0249    4.1669  -18.1464 Cl  0  0  0  0  0  0  0  0  0  0  0  0
   -7.3967    4.7734  -18.0284 C   0  0  0  0  0  0  0  0  0  0  0  0
   -6.1796    4.9582  -17.3653 C   0  0  0  0  0  0  0  0  0  0  0  0
   -4.9939    5.1301  -18.1127 N   0  0  0  0  0  0  0  0  0  0  0  0
   -4.7633    5.1355  -19.6330 C   0  0  0  0  0  0  0  0  0  0  0  0
   -5.4997    4.9233  -20.5081 O   0  0  0  0  0  0  0  0  0  0  0  0
   -3.4485    5.3817  -19.9211 O   0  0  0  0  0  0  0  0  0  0  0  0
   -2.7154    6.4532  -19.2968 C   0  0  0  0  0  0  0  0  0  0  0  0
   -3.4151    7.7929  -19.2636 C   0  0  0  0  0  0  0  0  0  0  0  0
   -4.2610    8.2069  -20.3029 C   0  0  0  0  0  0  0  0  0  0  0  0
   -4.8634    9.4662  -20.2722 C   0  0  0  0  0  0  0  0  0  0  0  0
   -4.6183   10.3327  -19.2098 C   0  0  0  0  0  0  0  0  0  0  0  0
   -3.7624    9.9439  -18.1816 C   0  0  0  0  0  0  0  0  0  0  0  0
   -3.1561    8.6862  -18.2129 C   0  0  0  0  0  0  0  0  0  0  0  0
   -6.1347    4.8062  -15.9561 C   0  0  0  0  0  0  0  0  0  0  0  0
   -4.9998    5.2413  -15.2442 N   0  0  0  0  0  0  0  0  0  0  0  0
   -4.2454    6.3656  -15.5031 C   0  0  0  0  0  0  0  0  0  0  0  0
   -3.1804    6.3958  -14.7401 N   0  0  0  0  0  0  0  0  0  0  0  0
   -3.3697    5.3078  -13.9432 C   0  0  0  0  0  0  0  0  0  0  0  0
   -4.4828    4.6118  -14.1769 N   0  0  0  0  0  0  0  0  0  0  0  0
   -8.2399    3.4371  -10.9517 C   0  0  0  0  0  0  0  0  0  0  0  0
   -8.5365    3.3859   -9.5993 C   0  0  0  0  0  0  0  0  0  0  0  0
   -8.9930    2.2217   -8.7746 C   0  0  0  0  0  0  0  0  0  0  0  0
  1  2  1  0
  2  3  1  0
  3  4  1  0
  4  5  2  0
  5  6  1  0
  6  7  2  0
  7  8  1  0
  8  9  1  0
  9 10  2  0
  9 11  1  0
 11 12  2  0
 12 13  1  0
 13 14  1  0
 13 15  2  0
 15 16  1  0
 16 17  1  0
 17 18  1  0
 18 19  2  0
 18 20  1  0
 20 21  1  0
 21 22  1  0
 22 23  2  0
 23 24  1  0
 24 25  2  0
 25 26  1  0
 26 27  2  0
 16 28  2  0
 28 29  1  0
 29 30  1  0
 30 31  2  0
 31 32  1  0
 32 33  2  0
  7 34  1  0
 34 35  2  0
 35 36  1  0
 36  2  1  0
 35  4  1  0
 28 11  1  0
 33 29  1  0
 27 22  1  0
M  END
>  <smiles>  (775) 
C102934-P143

>  <fragmenstein_outcome>  (775) 
acceptable

>  <inchikey>  (775) 
LHKBPSHMBLTNCD-UHFFFAOYSA-N

>  <fragmenstein_mode>  (775) 
expansion

>  <HIPPO Pose ID>  (775) 
18312

>  <Energy>  (775) 
135.520477

>  <fragmenstein_error>  (775) 


>  <tags>  (775) 
{'openbind_xx01zvns2b_c1_fragmenstein', 'fragmenstein_placed'}

>  <ref_pdb>  (775) 
1

>  <scratch_subdir>  (775) 
/opt/xchem-fragalysis-2/maxwin/BulkDock/SCRATCH/511027/C102934-P143

>  <alias>  (775) 
NN1Cc2ccc(NC(=O)c3cc(Cl)cc(NC(=O)OCc4ccccc4)c3-n3cncn3)cc2C1

>  <HIPPO Compound ID>  (775) 
70550

>  <fragmenstein_runtime>  (775) 
8.521139

$$$$
O=C(NCC1CCOCC1)[C@](O)(Nc1ccc2c(c1)CNC2)c1cc(Cl)cc2c1[C@]13NCN[C@H]1COCN3N2
     RDKit          3D

 39 45  0  0  0  0  0  0  0  0999 V2000
   -6.8979    2.5085  -13.7119 O   0  0  0  0  0  0  0  0  0  0  0  0
   -6.5456    3.4552  -13.1231 C   0  0  0  0  0  0  0  0  0  0  0  0
   -5.2456    3.7082  -12.3071 N   0  0  0  0  0  0  0  0  0  0  0  0
   -4.0831    2.8888  -12.1317 C   0  0  0  0  0  0  0  0  0  0  0  0
   -3.0196    3.6380  -12.9505 C   0  0  0  0  0  0  0  0  0  0  0  0
   -3.2895    3.6273  -14.4668 C   0  0  0  0  0  0  0  0  0  0  0  0
   -2.3459    4.5893  -15.1812 C   0  0  0  0  0  0  0  0  0  0  0  0
   -1.2922    5.0602  -14.3416 O   0  0  0  0  0  0  0  0  0  0  0  0
   -0.6349    4.0472  -13.5743 C   0  0  0  0  0  0  0  0  0  0  0  0
   -1.5888    3.1836  -12.7378 C   0  0  0  0  0  0  0  0  0  0  0  0
   -7.3242    4.8788  -13.0944 C   0  0  2  0  0  0  0  0  0  0  0  0
   -6.5933    5.8788  -12.4153 O   0  0  0  0  0  0  0  0  0  0  0  0
   -8.6386    4.8386  -12.4627 N   0  0  0  0  0  0  0  0  0  0  0  0
   -8.5788    4.6437  -11.0553 C   0  0  0  0  0  0  0  0  0  0  0  0
   -8.3610    5.7428  -10.1880 C   0  0  0  0  0  0  0  0  0  0  0  0
   -8.3108    5.5840   -8.8021 C   0  0  0  0  0  0  0  0  0  0  0  0
   -8.5146    4.3179   -8.2946 C   0  0  0  0  0  0  0  0  0  0  0  0
   -8.7154    3.2300   -9.1388 C   0  0  0  0  0  0  0  0  0  0  0  0
   -8.7108    3.3639  -10.5187 C   0  0  0  0  0  0  0  0  0  0  0  0
   -8.9389    2.0057   -8.3185 C   0  0  0  0  0  0  0  0  0  0  0  0
   -9.0989    2.4854   -6.9207 N   0  0  0  0  0  0  0  0  0  0  0  0
   -8.5851    3.8636   -6.8775 C   0  0  0  0  0  0  0  0  0  0  0  0
   -7.4387    5.3186  -14.5794 C   0  0  0  0  0  0  0  0  0  0  0  0
   -8.3695    4.6233  -15.4013 C   0  0  0  0  0  0  0  0  0  0  0  0
   -8.3689    4.7548  -16.7968 C   0  0  0  0  0  0  0  0  0  0  0  0
   -9.5594    3.9588  -17.7528 Cl  0  0  0  0  0  0  0  0  0  0  0  0
   -7.4120    5.5363  -17.4288 C   0  0  0  0  0  0  0  0  0  0  0  0
   -6.5337    6.2531  -16.6364 C   0  0  0  0  0  0  0  0  0  0  0  0
   -6.5637    6.2167  -15.2343 C   0  0  0  0  0  0  0  0  0  0  0  0
   -5.5586    7.2920  -14.7799 C   0  0  2  0  0  0  0  0  0  0  0  0
   -4.6227    6.7949  -13.7630 N   0  0  0  0  0  0  0  0  0  0  0  0
   -4.3666    7.9071  -12.8642 C   0  0  0  0  0  0  0  0  0  0  0  0
   -5.6701    8.5187  -12.6890 N   0  0  0  0  0  0  0  0  0  0  0  0
   -6.2421    8.5018  -14.0662 C   0  0  1  0  0  0  0  0  0  0  0  0
   -6.0086    9.8757  -14.7184 C   0  0  0  0  0  0  0  0  0  0  0  0
   -5.6359    9.7845  -16.0897 O   0  0  0  0  0  0  0  0  0  0  0  0
   -4.4665    8.9884  -16.1996 C   0  0  0  0  0  0  0  0  0  0  0  0
   -4.7568    7.5791  -15.9939 N   0  0  0  0  0  0  0  0  0  0  0  0
   -5.4750    7.0455  -17.1151 N   0  0  0  0  0  0  0  0  0  0  0  0
  1  2  2  0
  2  3  1  0
  3  4  1  0
  4  5  1  0
  5  6  1  0
  6  7  1  0
  7  8  1  0
  8  9  1  0
  9 10  1  0
  2 11  1  0
 11 12  1  1
 11 13  1  0
 13 14  1  0
 14 15  2  0
 15 16  1  0
 16 17  2  0
 17 18  1  0
 18 19  2  0
 18 20  1  0
 20 21  1  0
 21 22  1  0
 11 23  1  0
 23 24  2  0
 24 25  1  0
 25 26  1  0
 25 27  2  0
 27 28  1  0
 28 29  2  0
 29 30  1  0
 30 31  1  1
 31 32  1  0
 32 33  1  0
 33 34  1  0
 34 35  1  6
 35 36  1  0
 36 37  1  0
 37 38  1  0
 38 39  1  0
 10  5  1  0
 19 14  1  0
 29 23  1  0
 34 30  1  0
 22 17  1  0
 39 28  1  0
 38 30  1  0
M  END
>  <smiles>  (776) 
C102965-P143

>  <fragmenstein_outcome>  (776) 
acceptable

>  <inchikey>  (776) 
HAHVNTNXFPQAHN-UHFFFAOYSA-N

>  <fragmenstein_mode>  (776) 
expansion

>  <HIPPO Pose ID>  (776) 
18323

>  <Energy>  (776) 
115.291795

>  <fragmenstein_error>  (776) 


>  <tags>  (776) 
{'openbind_xx01zvns2b_c1_fragmenstein', 'fragmenstein_placed'}

>  <ref_pdb>  (776) 
1

>  <scratch_subdir>  (776) 
/opt/xchem-fragalysis-2/maxwin/BulkDock/SCRATCH/511027/C102965-P143

>  <alias>  (776) 
O=C(NCC1CCOCC1)[C@](O)(Nc1ccc2c(c1)CNC2)c1cc(Cl)cc2c1[C@]13NCN[C@H]1COCN3N2

>  <HIPPO Compound ID>  (776) 
103629

>  <fragmenstein_runtime>  (776) 
5.47647

$$$$
O=C(NCC(F)F)[C@](O)(Nc1ccc2c(c1)CNC2)c1cc(Cl)ccc1-n1cncn1
     RDKit          3D

 31 34  0  0  0  0  0  0  0  0999 V2000
   -6.5863    2.2367  -14.0251 O   0  0  0  0  0  0  0  0  0  0  0  0
   -6.4201    3.2799  -13.5297 C   0  0  0  0  0  0  0  0  0  0  0  0
   -5.3030    3.7704  -12.5692 N   0  0  0  0  0  0  0  0  0  0  0  0
   -4.1125    3.1044  -12.1002 C   0  0  0  0  0  0  0  0  0  0  0  0
   -2.9585    3.4139  -13.0555 C   0  0  0  0  0  0  0  0  0  0  0  0
   -3.2871    3.0847  -14.3311 F   0  0  0  0  0  0  0  0  0  0  0  0
   -1.8511    2.7112  -12.7334 F   0  0  0  0  0  0  0  0  0  0  0  0
   -7.3514    4.5521  -13.8717 C   0  0  2  0  0  0  0  0  0  0  0  0
   -6.7668    5.7910  -13.4947 O   0  0  0  0  0  0  0  0  0  0  0  0
   -8.6145    4.3840  -13.1250 N   0  0  0  0  0  0  0  0  0  0  0  0
   -8.4974    4.3744  -11.7096 C   0  0  0  0  0  0  0  0  0  0  0  0
   -8.2077    5.5519  -10.9942 C   0  0  0  0  0  0  0  0  0  0  0  0
   -8.1225    5.5577   -9.5960 C   0  0  0  0  0  0  0  0  0  0  0  0
   -8.3426    4.3732   -8.9181 C   0  0  0  0  0  0  0  0  0  0  0  0
   -8.6262    3.2049   -9.6060 C   0  0  0  0  0  0  0  0  0  0  0  0
   -8.6955    3.1855  -10.9926 C   0  0  0  0  0  0  0  0  0  0  0  0
   -8.8506    2.0940   -8.6360 C   0  0  0  0  0  0  0  0  0  0  0  0
   -8.7488    2.6958   -7.2793 N   0  0  0  0  0  0  0  0  0  0  0  0
   -8.3673    4.1090   -7.4527 C   0  0  0  0  0  0  0  0  0  0  0  0
   -7.5785    4.6308  -15.4188 C   0  0  0  0  0  0  0  0  0  0  0  0
   -8.8495    4.3592  -15.9683 C   0  0  0  0  0  0  0  0  0  0  0  0
   -9.0663    4.2879  -17.3538 C   0  0  0  0  0  0  0  0  0  0  0  0
  -10.6397    4.0971  -17.9965 Cl  0  0  0  0  0  0  0  0  0  0  0  0
   -8.0237    4.4065  -18.2512 C   0  0  0  0  0  0  0  0  0  0  0  0
   -6.7621    4.6752  -17.7674 C   0  0  0  0  0  0  0  0  0  0  0  0
   -6.5521    4.8498  -16.3815 C   0  0  0  0  0  0  0  0  0  0  0  0
   -5.3175    5.4614  -16.0993 N   0  0  0  0  0  0  0  0  0  0  0  0
   -5.1694    6.7676  -15.6837 C   0  0  0  0  0  0  0  0  0  0  0  0
   -3.9405    7.1743  -15.8838 N   0  0  0  0  0  0  0  0  0  0  0  0
   -3.3737    6.1045  -16.5109 C   0  0  0  0  0  0  0  0  0  0  0  0
   -4.1687    5.0549  -16.6842 N   0  0  0  0  0  0  0  0  0  0  0  0
  1  2  2  0
  2  3  1  0
  3  4  1  0
  4  5  1  0
  5  6  1  0
  5  7  1  0
  2  8  1  0
  8  9  1  1
  8 10  1  0
 10 11  1  0
 11 12  2  0
 12 13  1  0
 13 14  2  0
 14 15  1  0
 15 16  2  0
 15 17  1  0
 17 18  1  0
 18 19  1  0
  8 20  1  0
 20 21  2  0
 21 22  1  0
 22 23  1  0
 22 24  2  0
 24 25  1  0
 25 26  2  0
 26 27  1  0
 27 28  1  0
 28 29  2  0
 29 30  1  0
 30 31  2  0
 16 11  1  0
 26 20  1  0
 31 27  1  0
 19 14  1  0
M  END
>  <smiles>  (777) 
C102988-P143

>  <fragmenstein_outcome>  (777) 
acceptable

>  <inchikey>  (777) 
DNAMVCPJJWKGQC-UHFFFAOYSA-N

>  <fragmenstein_mode>  (777) 
expansion

>  <HIPPO Pose ID>  (777) 
18332

>  <Energy>  (777) 
172.449855

>  <fragmenstein_error>  (777) 


>  <tags>  (777) 
{'openbind_xx01zvns2b_c1_fragmenstein', 'fragmenstein_placed'}

>  <ref_pdb>  (777) 
1

>  <scratch_subdir>  (777) 
/opt/xchem-fragalysis-2/maxwin/BulkDock/SCRATCH/511027/C102988-P143

>  <alias>  (777) 
O=C(NCC(F)F)[C@](O)(Nc1ccc2c(c1)CNC2)c1cc(Cl)ccc1-n1cncn1

>  <HIPPO Compound ID>  (777) 
102988

>  <fragmenstein_runtime>  (777) 
3.908914

$$$$
O=C(Nc1ccc2c(c1)CNC2)c1cc(Cl)cc2c1[C@]1(CNCN1)C1=C2CCC1
     RDKit          3D

 29 34  0  0  0  0  0  0  0  0999 V2000
   -7.4863    6.9245  -13.2797 O   0  0  0  0  0  0  0  0  0  0  0  0
   -7.6740    5.8125  -13.5771 C   0  0  0  0  0  0  0  0  0  0  0  0
   -7.9816    4.5812  -12.7003 N   0  0  0  0  0  0  0  0  0  0  0  0
   -8.2086    4.4804  -11.3283 C   0  0  0  0  0  0  0  0  0  0  0  0
   -8.0875    5.6139  -10.5051 C   0  0  0  0  0  0  0  0  0  0  0  0
   -8.2534    5.5227   -9.1206 C   0  0  0  0  0  0  0  0  0  0  0  0
   -8.5642    4.2903   -8.5835 C   0  0  0  0  0  0  0  0  0  0  0  0
   -8.6972    3.1671   -9.3942 C   0  0  0  0  0  0  0  0  0  0  0  0
   -8.5134    3.2390  -10.7681 C   0  0  0  0  0  0  0  0  0  0  0  0
   -9.0193    1.9905   -8.5317 C   0  0  0  0  0  0  0  0  0  0  0  0
   -9.4189    2.5631   -7.2187 N   0  0  0  0  0  0  0  0  0  0  0  0
   -8.7969    3.9005   -7.1625 C   0  0  0  0  0  0  0  0  0  0  0  0
   -7.5078    5.4516  -15.0037 C   0  0  0  0  0  0  0  0  0  0  0  0
   -8.5386    4.8173  -15.7100 C   0  0  0  0  0  0  0  0  0  0  0  0
   -8.3900    4.5694  -17.0836 C   0  0  0  0  0  0  0  0  0  0  0  0
   -9.6583    3.8504  -17.9737 Cl  0  0  0  0  0  0  0  0  0  0  0  0
   -7.2308    4.9167  -17.7698 C   0  0  0  0  0  0  0  0  0  0  0  0
   -6.2136    5.5044  -17.0518 C   0  0  0  0  0  0  0  0  0  0  0  0
   -6.3332    5.7915  -15.6752 C   0  0  0  0  0  0  0  0  0  0  0  0
   -5.0373    6.4363  -15.1786 C   0  0  1  0  0  0  0  0  0  0  0  0
   -5.1349    7.9051  -14.7358 C   0  0  0  0  0  0  0  0  0  0  0  0
   -4.7328    7.8864  -13.3150 N   0  0  0  0  0  0  0  0  0  0  0  0
   -3.8135    6.7673  -13.2433 C   0  0  0  0  0  0  0  0  0  0  0  0
   -4.4061    5.7210  -14.0601 N   0  0  0  0  0  0  0  0  0  0  0  0
   -4.2188    6.3289  -16.4341 C   0  0  0  0  0  0  0  0  0  0  0  0
   -4.8931    5.8606  -17.4815 C   0  0  0  0  0  0  0  0  0  0  0  0
   -4.0881    5.6905  -18.6973 C   0  0  0  0  0  0  0  0  0  0  0  0
   -2.7815    6.4023  -18.2842 C   0  0  0  0  0  0  0  0  0  0  0  0
   -2.7967    6.5749  -16.7478 C   0  0  0  0  0  0  0  0  0  0  0  0
  1  2  2  0
  2  3  1  0
  3  4  1  0
  4  5  2  0
  5  6  1  0
  6  7  2  0
  7  8  1  0
  8  9  2  0
  8 10  1  0
 10 11  1  0
 11 12  1  0
  2 13  1  0
 13 14  2  0
 14 15  1  0
 15 16  1  0
 15 17  2  0
 17 18  1  0
 18 19  2  0
 19 20  1  0
 20 21  1  1
 21 22  1  0
 22 23  1  0
 23 24  1  0
 20 25  1  0
 25 26  2  0
 26 27  1  0
 27 28  1  0
 28 29  1  0
  9  4  1  0
 19 13  1  0
 24 20  1  0
 29 25  1  0
 12  7  1  0
 26 18  1  0
M  END
>  <smiles>  (778) 
C22362-P143

>  <fragmenstein_outcome>  (778) 
acceptable

>  <inchikey>  (778) 
AUWHATJYDZZFSN-UHFFFAOYSA-N

>  <fragmenstein_mode>  (778) 
expansion

>  <HIPPO Pose ID>  (778) 
18334

>  <Energy>  (778) 
29.93236

>  <fragmenstein_error>  (778) 


>  <tags>  (778) 
{'openbind_xx01zvns2b_c1_fragmenstein', 'fragmenstein_placed'}

>  <ref_pdb>  (778) 
1

>  <scratch_subdir>  (778) 
/opt/xchem-fragalysis-2/maxwin/BulkDock/SCRATCH/511027/C22362-P143

>  <alias>  (778) 
O=C(Nc1ccc2c(c1)CNC2)c1cc(Cl)cc2c1[C@]1(CNCN1)C1=C2CCC1

>  <HIPPO Compound ID>  (778) 
95552

>  <fragmenstein_runtime>  (778) 
4.993003

$$$$
O=C(Nc1ccc2c(c1)CNC2)[C@@H]1C[C@@H](Cl)C[C@H]2C[C@]3(O)CCC[C@@H]3[C@H]21
     RDKit          3D

 26 30  0  0  0  0  0  0  0  0999 V2000
   -8.0558    7.2593  -13.1177 O   0  0  0  0  0  0  0  0  0  0  0  0
   -8.0511    6.1361  -13.4497 C   0  0  0  0  0  0  0  0  0  0  0  0
   -8.1874    4.8343  -12.6063 N   0  0  0  0  0  0  0  0  0  0  0  0
   -8.2588    4.6534  -11.2240 C   0  0  0  0  0  0  0  0  0  0  0  0
   -8.1425    5.7533  -10.3585 C   0  0  0  0  0  0  0  0  0  0  0  0
   -8.2295    5.5933   -8.9728 C   0  0  0  0  0  0  0  0  0  0  0  0
   -8.4646    4.3271   -8.4738 C   0  0  0  0  0  0  0  0  0  0  0  0
   -8.5905    3.2368   -9.3238 C   0  0  0  0  0  0  0  0  0  0  0  0
   -8.4675    3.3737  -10.7017 C   0  0  0  0  0  0  0  0  0  0  0  0
   -8.8796    2.0153   -8.5180 C   0  0  0  0  0  0  0  0  0  0  0  0
   -8.9938    2.4588   -7.1026 N   0  0  0  0  0  0  0  0  0  0  0  0
   -8.6456    3.8910   -7.0618 C   0  0  0  0  0  0  0  0  0  0  0  0
   -7.8218    5.7765  -14.9283 C   0  0  2  0  0  0  0  0  0  0  0  0
   -8.9889    5.0075  -15.5570 C   0  0  0  0  0  0  0  0  0  0  0  0
   -8.6186    4.3271  -16.8777 C   0  0  1  0  0  0  0  0  0  0  0  0
  -10.0323    4.1813  -17.9499 Cl  0  0  0  0  0  0  0  0  0  0  0  0
   -7.4716    5.0057  -17.6123 C   0  0  0  0  0  0  0  0  0  0  0  0
   -6.2099    5.0696  -16.7453 C   0  0  1  0  0  0  0  0  0  0  0  0
   -5.3748    6.3131  -17.0452 C   0  0  0  0  0  0  0  0  0  0  0  0
   -4.4451    6.4403  -15.8474 C   0  0  2  0  0  0  0  0  0  0  0  0
   -4.0567    7.7984  -15.7045 O   0  0  0  0  0  0  0  0  0  0  0  0
   -3.1931    5.5464  -15.9103 C   0  0  0  0  0  0  0  0  0  0  0  0
   -3.4102    4.4466  -14.8780 C   0  0  0  0  0  0  0  0  0  0  0  0
   -4.2952    5.1010  -13.8318 C   0  0  0  0  0  0  0  0  0  0  0  0
   -5.2735    5.9559  -14.6412 C   0  0  2  0  0  0  0  0  0  0  0  0
   -6.4589    5.1292  -15.2183 C   0  0  1  0  0  0  0  0  0  0  0  0
  1  2  2  0
  2  3  1  0
  3  4  1  0
  4  5  2  0
  5  6  1  0
  6  7  2  0
  7  8  1  0
  8  9  2  0
  8 10  1  0
 10 11  1  0
 11 12  1  0
 13  2  1  1
 13 14  1  0
 14 15  1  0
 15 16  1  6
 15 17  1  0
 18 17  1  6
 18 19  1  0
 19 20  1  0
 20 21  1  1
 20 22  1  0
 22 23  1  0
 23 24  1  0
 25 24  1  1
 25 26  1  0
  9  4  1  0
 26 13  1  6
 12  7  1  0
 26 18  1  0
 25 20  1  0
M  END
>  <smiles>  (779) 
C102993-P143

>  <fragmenstein_outcome>  (779) 
acceptable

>  <inchikey>  (779) 
PXWCNUFVUHVRGE-UHFFFAOYSA-N

>  <fragmenstein_mode>  (779) 
expansion

>  <HIPPO Pose ID>  (779) 
18336

>  <Energy>  (779) 
71.943845

>  <fragmenstein_error>  (779) 


>  <tags>  (779) 
{'openbind_xx01zvns2b_c1_fragmenstein', 'fragmenstein_placed'}

>  <ref_pdb>  (779) 
1

>  <scratch_subdir>  (779) 
/opt/xchem-fragalysis-2/maxwin/BulkDock/SCRATCH/511027/C102993-P143

>  <alias>  (779) 
O=C(Nc1ccc2c(c1)CNC2)[C@@H]1C[C@@H](Cl)C[C@H]2C[C@]3(O)CCC[C@@H]3[C@H]21

>  <HIPPO Compound ID>  (779) 
75740

>  <fragmenstein_runtime>  (779) 
3.421817

$$$$
NC[C@H]1C[C@@]2(CNCN2)c2c(C(=O)Nc3ccc4c(c3)CNC4)cc(Cl)cc21
     RDKit          3D

 28 32  0  0  0  0  0  0  0  0999 V2000
   -3.8839    6.3138  -19.7807 N   0  0  0  0  0  0  0  0  0  0  0  0
   -5.1793    6.0435  -19.1671 C   0  0  0  0  0  0  0  0  0  0  0  0
   -5.0740    5.4117  -17.7718 C   0  0  1  0  0  0  0  0  0  0  0  0
   -4.4803    6.3468  -16.6961 C   0  0  0  0  0  0  0  0  0  0  0  0
   -5.0387    5.8496  -15.3237 C   0  0  2  0  0  0  0  0  0  0  0  0
   -4.7920    6.8769  -14.2215 C   0  0  0  0  0  0  0  0  0  0  0  0
   -3.3831    6.6220  -13.8679 N   0  0  0  0  0  0  0  0  0  0  0  0
   -3.3275    5.1697  -13.8425 C   0  0  0  0  0  0  0  0  0  0  0  0
   -4.2601    4.6836  -14.8482 N   0  0  0  0  0  0  0  0  0  0  0  0
   -6.4179    5.4245  -15.7632 C   0  0  0  0  0  0  0  0  0  0  0  0
   -7.6046    5.2522  -15.0578 C   0  0  0  0  0  0  0  0  0  0  0  0
   -7.7796    5.7069  -13.6645 C   0  0  0  0  0  0  0  0  0  0  0  0
   -7.6775    6.8473  -13.4368 O   0  0  0  0  0  0  0  0  0  0  0  0
   -8.0784    4.5209  -12.7223 N   0  0  0  0  0  0  0  0  0  0  0  0
   -8.2156    4.4782  -11.3351 C   0  0  0  0  0  0  0  0  0  0  0  0
   -8.0731    5.6318  -10.5493 C   0  0  0  0  0  0  0  0  0  0  0  0
   -8.1891    5.5687   -9.1556 C   0  0  0  0  0  0  0  0  0  0  0  0
   -8.4636    4.3452   -8.5720 C   0  0  0  0  0  0  0  0  0  0  0  0
   -8.6241    3.2071   -9.3480 C   0  0  0  0  0  0  0  0  0  0  0  0
   -8.4943    3.2514  -10.7286 C   0  0  0  0  0  0  0  0  0  0  0  0
   -8.9512    2.0468   -8.4724 C   0  0  0  0  0  0  0  0  0  0  0  0
   -8.9193    2.5512   -7.0733 N   0  0  0  0  0  0  0  0  0  0  0  0
   -8.6612    4.0037   -7.1362 C   0  0  0  0  0  0  0  0  0  0  0  0
   -8.7416    4.7651  -15.7185 C   0  0  0  0  0  0  0  0  0  0  0  0
   -8.7024    4.4876  -17.0852 C   0  0  0  0  0  0  0  0  0  0  0  0
  -10.1220    4.0180  -17.9251 Cl  0  0  0  0  0  0  0  0  0  0  0  0
   -7.5347    4.6615  -17.8078 C   0  0  0  0  0  0  0  0  0  0  0  0
   -6.4108    5.1336  -17.1449 C   0  0  0  0  0  0  0  0  0  0  0  0
  1  2  1  0
  3  2  1  6
  3  4  1  0
  5  4  1  6
  5  6  1  0
  6  7  1  0
  7  8  1  0
  8  9  1  0
  5 10  1  0
 10 11  2  0
 11 12  1  0
 12 13  2  0
 12 14  1  0
 14 15  1  0
 15 16  2  0
 16 17  1  0
 17 18  2  0
 18 19  1  0
 19 20  2  0
 19 21  1  0
 21 22  1  0
 22 23  1  0
 11 24  1  0
 24 25  2  0
 25 26  1  0
 25 27  1  0
 27 28  2  0
 28  3  1  0
  9  5  1  0
 28 10  1  0
 20 15  1  0
 23 18  1  0
M  END
>  <smiles>  (780) 
C27706-P143

>  <fragmenstein_outcome>  (780) 
acceptable

>  <inchikey>  (780) 
OKMOUFBJMDKMQG-UHFFFAOYSA-N

>  <fragmenstein_mode>  (780) 
expansion

>  <HIPPO Pose ID>  (780) 
18340

>  <Energy>  (780) 
52.668739

>  <fragmenstein_error>  (780) 


>  <tags>  (780) 
{'openbind_xx01zvns2b_c1_fragmenstein', 'fragmenstein_placed'}

>  <ref_pdb>  (780) 
1

>  <scratch_subdir>  (780) 
/opt/xchem-fragalysis-2/maxwin/BulkDock/SCRATCH/511027/C27706-P143

>  <alias>  (780) 
NC[C@H]1C[C@@]2(CNCN2)c2c(C(=O)Nc3ccc4c(c3)CNC4)cc(Cl)cc21

>  <HIPPO Compound ID>  (780) 
27706

>  <fragmenstein_runtime>  (780) 
5.846855

$$$$
O=C(Nc1ccc2c(c1)CNC2)c1cc(Cl)cc2c1[C@@]1(CNCN1)N(C1CNC1)N2
     RDKit          3D

 30 35  0  0  0  0  0  0  0  0999 V2000
   -5.5876    5.0818  -12.9859 O   0  0  0  0  0  0  0  0  0  0  0  0
   -6.6803    4.8345  -13.3022 C   0  0  0  0  0  0  0  0  0  0  0  0
   -7.8982    4.4299  -12.4508 N   0  0  0  0  0  0  0  0  0  0  0  0
   -8.0455    4.3404  -11.0738 C   0  0  0  0  0  0  0  0  0  0  0  0
   -7.4630    5.3381  -10.2685 C   0  0  0  0  0  0  0  0  0  0  0  0
   -7.6197    5.3262   -8.8806 C   0  0  0  0  0  0  0  0  0  0  0  0
   -8.2989    4.2647   -8.3196 C   0  0  0  0  0  0  0  0  0  0  0  0
   -8.8066    3.2401   -9.1148 C   0  0  0  0  0  0  0  0  0  0  0  0
   -8.7408    3.2843  -10.4992 C   0  0  0  0  0  0  0  0  0  0  0  0
   -9.2942    2.1488   -8.2233 C   0  0  0  0  0  0  0  0  0  0  0  0
   -9.4723    2.7818   -6.8919 N   0  0  0  0  0  0  0  0  0  0  0  0
   -8.5709    3.9543   -6.8856 C   0  0  0  0  0  0  0  0  0  0  0  0
   -6.9781    5.0377  -14.7610 C   0  0  0  0  0  0  0  0  0  0  0  0
   -8.0071    4.3281  -15.4249 C   0  0  0  0  0  0  0  0  0  0  0  0
   -8.2850    4.5602  -16.7850 C   0  0  0  0  0  0  0  0  0  0  0  0
   -9.6205    3.8104  -17.5668 Cl  0  0  0  0  0  0  0  0  0  0  0  0
   -7.5130    5.4287  -17.5345 C   0  0  0  0  0  0  0  0  0  0  0  0
   -6.4934    6.0934  -16.8906 C   0  0  0  0  0  0  0  0  0  0  0  0
   -6.2296    5.9611  -15.5120 C   0  0  0  0  0  0  0  0  0  0  0  0
   -5.1609    7.0171  -15.2165 C   0  0  2  0  0  0  0  0  0  0  0  0
   -4.0686    6.9607  -14.1275 C   0  0  0  0  0  0  0  0  0  0  0  0
   -4.6363    7.5434  -12.8988 N   0  0  0  0  0  0  0  0  0  0  0  0
   -5.8199    8.2606  -13.3335 C   0  0  0  0  0  0  0  0  0  0  0  0
   -5.8379    8.2656  -14.7828 N   0  0  0  0  0  0  0  0  0  0  0  0
   -4.5893    7.3406  -16.5892 N   0  0  0  0  0  0  0  0  0  0  0  0
   -3.3276    6.5978  -16.8638 C   0  0  0  0  0  0  0  0  0  0  0  0
   -2.7566    6.9383  -18.2571 C   0  0  0  0  0  0  0  0  0  0  0  0
   -2.3698    5.5050  -18.3955 N   0  0  0  0  0  0  0  0  0  0  0  0
   -3.4470    5.1639  -17.4211 C   0  0  0  0  0  0  0  0  0  0  0  0
   -5.6605    7.0531  -17.4969 N   0  0  0  0  0  0  0  0  0  0  0  0
  1  2  2  0
  2  3  1  0
  3  4  1  0
  4  5  2  0
  5  6  1  0
  6  7  2  0
  7  8  1  0
  8  9  2  0
  8 10  1  0
 10 11  1  0
 11 12  1  0
  2 13  1  0
 13 14  2  0
 14 15  1  0
 15 16  1  0
 15 17  2  0
 17 18  1  0
 18 19  2  0
 19 20  1  0
 20 21  1  1
 21 22  1  0
 22 23  1  0
 23 24  1  0
 20 25  1  0
 25 26  1  0
 26 27  1  0
 27 28  1  0
 28 29  1  0
 25 30  1  0
  9  4  1  0
 19 13  1  0
 24 20  1  0
 29 26  1  0
 12  7  1  0
 30 18  1  0
M  END
>  <smiles>  (781) 
C103013-P143

>  <fragmenstein_outcome>  (781) 
acceptable

>  <inchikey>  (781) 
MNFHGXYNHKAYBC-UHFFFAOYSA-N

>  <fragmenstein_mode>  (781) 
expansion

>  <HIPPO Pose ID>  (781) 
18344

>  <Energy>  (781) 
101.097487

>  <fragmenstein_error>  (781) 


>  <tags>  (781) 
{'openbind_xx01zvns2b_c1_fragmenstein', 'fragmenstein_placed'}

>  <ref_pdb>  (781) 
1

>  <scratch_subdir>  (781) 
/opt/xchem-fragalysis-2/maxwin/BulkDock/SCRATCH/511027/C103013-P143

>  <alias>  (781) 
O=C(Nc1ccc2c(c1)CNC2)c1cc(Cl)cc2c1[C@@]1(CNCN1)N(C1CNC1)N2

>  <HIPPO Compound ID>  (781) 
90953

>  <fragmenstein_runtime>  (781) 
2.998886

$$$$
CCc1cc(Cl)cc([C@@](O)(Nc2ccc3c(c2)CNC3)C(=O)NCCCF)c1-n1cncn1
     RDKit          3D

 33 36  0  0  0  0  0  0  0  0999 V2000
   -4.1518    5.4770  -18.3084 C   0  0  0  0  0  0  0  0  0  0  0  0
   -5.3184    6.3621  -17.9021 C   0  0  0  0  0  0  0  0  0  0  0  0
   -6.3316    5.6341  -17.0461 C   0  0  0  0  0  0  0  0  0  0  0  0
   -7.3794    5.0054  -17.7330 C   0  0  0  0  0  0  0  0  0  0  0  0
   -8.4085    4.3868  -17.0399 C   0  0  0  0  0  0  0  0  0  0  0  0
   -9.7532    3.7843  -17.9182 Cl  0  0  0  0  0  0  0  0  0  0  0  0
   -8.3619    4.2718  -15.6525 C   0  0  0  0  0  0  0  0  0  0  0  0
   -7.3179    4.8515  -14.8980 C   0  0  0  0  0  0  0  0  0  0  0  0
   -7.2062    4.4923  -13.3849 C   0  0  1  0  0  0  0  0  0  0  0  0
   -6.3702    5.4213  -12.7134 O   0  0  0  0  0  0  0  0  0  0  0  0
   -8.5306    4.5136  -12.7436 N   0  0  0  0  0  0  0  0  0  0  0  0
   -8.5136    4.4245  -11.3251 C   0  0  0  0  0  0  0  0  0  0  0  0
   -8.3099    5.5761  -10.5367 C   0  0  0  0  0  0  0  0  0  0  0  0
   -8.3242    5.5169   -9.1385 C   0  0  0  0  0  0  0  0  0  0  0  0
   -8.5669    4.2952   -8.5426 C   0  0  0  0  0  0  0  0  0  0  0  0
   -8.7464    3.1489   -9.3080 C   0  0  0  0  0  0  0  0  0  0  0  0
   -8.7004    3.1902  -10.6912 C   0  0  0  0  0  0  0  0  0  0  0  0
   -8.9876    1.9894   -8.3992 C   0  0  0  0  0  0  0  0  0  0  0  0
   -9.3323    2.6008   -7.0855 N   0  0  0  0  0  0  0  0  0  0  0  0
   -8.7048    3.9389   -7.1009 C   0  0  0  0  0  0  0  0  0  0  0  0
   -6.5557    3.0187  -13.2542 C   0  0  0  0  0  0  0  0  0  0  0  0
   -7.0574    2.0336  -13.6377 O   0  0  0  0  0  0  0  0  0  0  0  0
   -5.1494    3.2576  -12.6316 N   0  0  0  0  0  0  0  0  0  0  0  0
   -4.1210    2.3262  -12.2706 C   0  0  0  0  0  0  0  0  0  0  0  0
   -2.9345    2.4722  -13.2096 C   0  0  0  0  0  0  0  0  0  0  0  0
   -2.1677    3.7552  -12.9494 C   0  0  0  0  0  0  0  0  0  0  0  0
   -1.1521    3.8515  -13.8494 F   0  0  0  0  0  0  0  0  0  0  0  0
   -6.3429    5.6045  -15.6232 C   0  0  0  0  0  0  0  0  0  0  0  0
   -5.5155    6.5201  -14.9303 N   0  0  0  0  0  0  0  0  0  0  0  0
   -4.1598    6.6992  -14.9950 C   0  0  0  0  0  0  0  0  0  0  0  0
   -3.8042    7.7736  -14.3281 N   0  0  0  0  0  0  0  0  0  0  0  0
   -4.9936    8.2403  -13.8565 C   0  0  0  0  0  0  0  0  0  0  0  0
   -6.0698    7.5276  -14.1979 N   0  0  0  0  0  0  0  0  0  0  0  0
  1  2  1  0
  2  3  1  0
  3  4  2  0
  4  5  1  0
  5  6  1  0
  5  7  2  0
  7  8  1  0
  8  9  1  0
  9 10  1  1
  9 11  1  0
 11 12  1  0
 12 13  2  0
 13 14  1  0
 14 15  2  0
 15 16  1  0
 16 17  2  0
 16 18  1  0
 18 19  1  0
 19 20  1  0
  9 21  1  0
 21 22  2  0
 21 23  1  0
 23 24  1  0
 24 25  1  0
 25 26  1  0
 26 27  1  0
  8 28  2  0
 28 29  1  0
 29 30  1  0
 30 31  2  0
 31 32  1  0
 32 33  2  0
 28  3  1  0
 33 29  1  0
 17 12  1  0
 20 15  1  0
M  END
>  <smiles>  (782) 
C103016-P143

>  <fragmenstein_outcome>  (782) 
acceptable

>  <inchikey>  (782) 
ILJXAEGNHGWXDP-UHFFFAOYSA-N

>  <fragmenstein_mode>  (782) 
expansion

>  <HIPPO Pose ID>  (782) 
18347

>  <Energy>  (782) 
128.031155

>  <fragmenstein_error>  (782) 


>  <tags>  (782) 
{'openbind_xx01zvns2b_c1_fragmenstein', 'fragmenstein_placed'}

>  <ref_pdb>  (782) 
1

>  <scratch_subdir>  (782) 
/opt/xchem-fragalysis-2/maxwin/BulkDock/SCRATCH/511027/C103016-P143

>  <alias>  (782) 
CCc1cc(Cl)cc([C@@](O)(Nc2ccc3c(c2)CNC3)C(=O)NCCCF)c1-n1cncn1

>  <HIPPO Compound ID>  (782) 
71728

>  <fragmenstein_runtime>  (782) 
6.282147

$$$$
CCc1cc(Cl)cc([C@](O)(Nc2ccc3c(c2)CNC3)C(=O)NCCCF)c1-n1cncn1
     RDKit          3D

 33 36  0  0  0  0  0  0  0  0999 V2000
   -5.2151    7.4812  -18.2482 C   0  0  0  0  0  0  0  0  0  0  0  0
   -5.0194    6.2413  -17.3850 C   0  0  0  0  0  0  0  0  0  0  0  0
   -6.3035    5.7403  -16.7424 C   0  0  0  0  0  0  0  0  0  0  0  0
   -7.2537    5.2361  -17.6518 C   0  0  0  0  0  0  0  0  0  0  0  0
   -8.3745    4.5791  -17.1994 C   0  0  0  0  0  0  0  0  0  0  0  0
   -9.5874    4.0627  -18.2954 Cl  0  0  0  0  0  0  0  0  0  0  0  0
   -8.5067    4.3247  -15.8453 C   0  0  0  0  0  0  0  0  0  0  0  0
   -7.5886    4.7927  -14.8530 C   0  0  0  0  0  0  0  0  0  0  0  0
   -7.8685    4.2464  -13.4188 C   0  0  2  0  0  0  0  0  0  0  0  0
   -9.2664    4.0152  -13.3944 O   0  0  0  0  0  0  0  0  0  0  0  0
   -7.6951    5.2042  -12.3323 N   0  0  0  0  0  0  0  0  0  0  0  0
   -7.9171    4.8766  -10.9850 C   0  0  0  0  0  0  0  0  0  0  0  0
   -7.7461    5.9073  -10.0320 C   0  0  0  0  0  0  0  0  0  0  0  0
   -7.9833    5.7090   -8.6644 C   0  0  0  0  0  0  0  0  0  0  0  0
   -8.4036    4.4618   -8.2494 C   0  0  0  0  0  0  0  0  0  0  0  0
   -8.5854    3.4376   -9.1657 C   0  0  0  0  0  0  0  0  0  0  0  0
   -8.3756    3.6335  -10.5238 C   0  0  0  0  0  0  0  0  0  0  0  0
   -8.9950    2.1948   -8.4453 C   0  0  0  0  0  0  0  0  0  0  0  0
   -9.3812    2.6444   -7.0812 N   0  0  0  0  0  0  0  0  0  0  0  0
   -8.7298    3.9571   -6.8844 C   0  0  0  0  0  0  0  0  0  0  0  0
   -6.9846    2.8852  -13.2293 C   0  0  0  0  0  0  0  0  0  0  0  0
   -7.4337    1.8327  -13.4733 O   0  0  0  0  0  0  0  0  0  0  0  0
   -5.5822    3.2802  -12.6919 N   0  0  0  0  0  0  0  0  0  0  0  0
   -4.4857    2.4613  -12.2574 C   0  0  0  0  0  0  0  0  0  0  0  0
   -3.3008    2.4864  -13.2124 C   0  0  0  0  0  0  0  0  0  0  0  0
   -2.6840    3.8681  -13.3208 C   0  0  0  0  0  0  0  0  0  0  0  0
   -1.4367    3.7603  -13.8544 F   0  0  0  0  0  0  0  0  0  0  0  0
   -6.5177    5.6071  -15.3279 C   0  0  0  0  0  0  0  0  0  0  0  0
   -5.6930    6.3736  -14.4500 N   0  0  0  0  0  0  0  0  0  0  0  0
   -5.1755    7.6342  -14.6623 C   0  0  0  0  0  0  0  0  0  0  0  0
   -4.4555    8.0317  -13.6404 N   0  0  0  0  0  0  0  0  0  0  0  0
   -4.5972    7.0074  -12.7669 C   0  0  0  0  0  0  0  0  0  0  0  0
   -5.3585    5.9937  -13.1908 N   0  0  0  0  0  0  0  0  0  0  0  0
  1  2  1  0
  2  3  1  0
  3  4  2  0
  4  5  1  0
  5  6  1  0
  5  7  2  0
  7  8  1  0
  8  9  1  0
  9 10  1  6
  9 11  1  0
 11 12  1  0
 12 13  2  0
 13 14  1  0
 14 15  2  0
 15 16  1  0
 16 17  2  0
 16 18  1  0
 18 19  1  0
 19 20  1  0
  9 21  1  0
 21 22  2  0
 21 23  1  0
 23 24  1  0
 24 25  1  0
 25 26  1  0
 26 27  1  0
  8 28  2  0
 28 29  1  0
 29 30  1  0
 30 31  2  0
 31 32  1  0
 32 33  2  0
 28  3  1  0
 33 29  1  0
 17 12  1  0
 20 15  1  0
M  END
>  <smiles>  (783) 
C103016-P316

>  <fragmenstein_outcome>  (783) 
acceptable

>  <inchikey>  (783) 
XOOQDKPIEYBJJF-UHFFFAOYSA-N

>  <fragmenstein_mode>  (783) 
expansion

>  <HIPPO Pose ID>  (783) 
18350

>  <Energy>  (783) 
127.000232

>  <fragmenstein_error>  (783) 


>  <tags>  (783) 
{'openbind_xx01zvns2b_c1_fragmenstein', 'fragmenstein_placed'}

>  <ref_pdb>  (783) 
1

>  <scratch_subdir>  (783) 
/opt/xchem-fragalysis-2/maxwin/BulkDock/SCRATCH/511027/C103016-P316

>  <alias>  (783) 
CCc1cc(Cl)cc([C@](O)(Nc2ccc3c(c2)CNC3)C(=O)NCCCF)c1-n1cncn1

>  <HIPPO Compound ID>  (783) 
80783

>  <fragmenstein_runtime>  (783) 
6.958188

$$$$
CCN1CCC(c2c[nH]c3c(Cl)cc(C(=O)Nc4ccc5c(c4)CNC5)c(-n4cncn4)c23)CC1
     RDKit          3D

 35 40  0  0  0  0  0  0  0  0999 V2000
    0.7402    8.0474  -17.4049 C   0  0  0  0  0  0  0  0  0  0  0  0
   -0.1445    8.2992  -18.6228 C   0  0  0  0  0  0  0  0  0  0  0  0
   -1.4587    7.6439  -18.6323 N   0  0  0  0  0  0  0  0  0  0  0  0
   -2.3317    8.1032  -17.5521 C   0  0  0  0  0  0  0  0  0  0  0  0
   -3.7380    7.5481  -17.7514 C   0  0  0  0  0  0  0  0  0  0  0  0
   -3.7286    6.0138  -17.8019 C   0  0  0  0  0  0  0  0  0  0  0  0
   -5.1300    5.4728  -17.9799 C   0  0  0  0  0  0  0  0  0  0  0  0
   -5.6607    5.0710  -19.1922 C   0  0  0  0  0  0  0  0  0  0  0  0
   -6.9559    4.7093  -19.0039 N   0  0  0  0  0  0  0  0  0  0  0  0
   -7.2915    4.8033  -17.6778 C   0  0  0  0  0  0  0  0  0  0  0  0
   -8.5125    4.5001  -17.0713 C   0  0  0  0  0  0  0  0  0  0  0  0
   -9.8193    3.8833  -17.9966 Cl  0  0  0  0  0  0  0  0  0  0  0  0
   -8.6681    4.7627  -15.7193 C   0  0  0  0  0  0  0  0  0  0  0  0
   -7.6448    5.3861  -15.0108 C   0  0  0  0  0  0  0  0  0  0  0  0
   -7.9580    5.7665  -13.6134 C   0  0  0  0  0  0  0  0  0  0  0  0
   -8.0980    6.9001  -13.3776 O   0  0  0  0  0  0  0  0  0  0  0  0
   -8.0405    4.5348  -12.6881 N   0  0  0  0  0  0  0  0  0  0  0  0
   -8.2130    4.4494  -11.3066 C   0  0  0  0  0  0  0  0  0  0  0  0
   -8.1501    5.5958  -10.4981 C   0  0  0  0  0  0  0  0  0  0  0  0
   -8.3051    5.5072   -9.1100 C   0  0  0  0  0  0  0  0  0  0  0  0
   -8.5589    4.2666   -8.5581 C   0  0  0  0  0  0  0  0  0  0  0  0
   -8.6386    3.1310   -9.3567 C   0  0  0  0  0  0  0  0  0  0  0  0
   -8.4432    3.1986  -10.7286 C   0  0  0  0  0  0  0  0  0  0  0  0
   -8.9408    1.9528   -8.4895 C   0  0  0  0  0  0  0  0  0  0  0  0
   -9.3714    2.5256   -7.1850 N   0  0  0  0  0  0  0  0  0  0  0  0
   -8.7814    3.8789   -7.1349 C   0  0  0  0  0  0  0  0  0  0  0  0
   -6.4027    5.6859  -15.6230 C   0  0  0  0  0  0  0  0  0  0  0  0
   -5.4080    6.3652  -14.8956 N   0  0  0  0  0  0  0  0  0  0  0  0
   -5.4713    7.5770  -14.2510 C   0  0  0  0  0  0  0  0  0  0  0  0
   -4.3255    7.8490  -13.6676 N   0  0  0  0  0  0  0  0  0  0  0  0
   -3.5831    6.7467  -13.9504 C   0  0  0  0  0  0  0  0  0  0  0  0
   -4.1814    5.8335  -14.7155 N   0  0  0  0  0  0  0  0  0  0  0  0
   -6.1915    5.3383  -16.9930 C   0  0  0  0  0  0  0  0  0  0  0  0
   -2.7341    5.5507  -18.8818 C   0  0  0  0  0  0  0  0  0  0  0  0
   -1.3588    6.1801  -18.6619 C   0  0  0  0  0  0  0  0  0  0  0  0
  1  2  1  0
  2  3  1  0
  3  4  1  0
  4  5  1  0
  5  6  1  0
  6  7  1  0
  7  8  2  0
  8  9  1  0
  9 10  1  0
 10 11  2  0
 11 12  1  0
 11 13  1  0
 13 14  2  0
 14 15  1  0
 15 16  2  0
 15 17  1  0
 17 18  1  0
 18 19  2  0
 19 20  1  0
 20 21  2  0
 21 22  1  0
 22 23  2  0
 22 24  1  0
 24 25  1  0
 25 26  1  0
 14 27  1  0
 27 28  1  0
 28 29  1  0
 29 30  2  0
 30 31  1  0
 31 32  2  0
 27 33  2  0
  6 34  1  0
 34 35  1  0
 35  3  1  0
 33  7  1  0
 33 10  1  0
 23 18  1  0
 32 28  1  0
 26 21  1  0
M  END
>  <smiles>  (784) 
C103024-P143

>  <fragmenstein_outcome>  (784) 
acceptable

>  <inchikey>  (784) 
ZLIZUPXXTYRMMH-UHFFFAOYSA-N

>  <fragmenstein_mode>  (784) 
expansion

>  <HIPPO Pose ID>  (784) 
18353

>  <Energy>  (784) 
68.389557

>  <fragmenstein_error>  (784) 


>  <tags>  (784) 
{'openbind_xx01zvns2b_c1_fragmenstein', 'fragmenstein_placed'}

>  <ref_pdb>  (784) 
1

>  <scratch_subdir>  (784) 
/opt/xchem-fragalysis-2/maxwin/BulkDock/SCRATCH/511027/C103024-P143

>  <alias>  (784) 
CCN1CCC(c2c[nH]c3c(Cl)cc(C(=O)Nc4ccc5c(c4)CNC5)c(-n4cncn4)c23)CC1

>  <HIPPO Compound ID>  (784) 
89616

>  <fragmenstein_runtime>  (784) 
8.556816

$$$$
O=C(Nc1ccc2c(c1)CNC2)c1cc(Cl)cc2c1[C@@]1(CNCN1)N[C@H]2C1CNC1
     RDKit          3D

 30 35  0  0  0  0  0  0  0  0999 V2000
   -7.7098    6.4765  -13.6765 O   0  0  0  0  0  0  0  0  0  0  0  0
   -7.7955    5.3355  -13.9038 C   0  0  0  0  0  0  0  0  0  0  0  0
   -8.0859    4.1479  -12.9634 N   0  0  0  0  0  0  0  0  0  0  0  0
   -8.2332    4.1049  -11.5746 C   0  0  0  0  0  0  0  0  0  0  0  0
   -8.0771    5.2755  -10.8092 C   0  0  0  0  0  0  0  0  0  0  0  0
   -8.2038    5.2544   -9.4166 C   0  0  0  0  0  0  0  0  0  0  0  0
   -8.4987    4.0509   -8.8073 C   0  0  0  0  0  0  0  0  0  0  0  0
   -8.6585    2.8915   -9.5561 C   0  0  0  0  0  0  0  0  0  0  0  0
   -8.5226    2.8962  -10.9392 C   0  0  0  0  0  0  0  0  0  0  0  0
   -8.9416    1.7508   -8.6368 C   0  0  0  0  0  0  0  0  0  0  0  0
   -9.1479    2.3444   -7.2892 N   0  0  0  0  0  0  0  0  0  0  0  0
   -8.6783    3.7428   -7.3607 C   0  0  0  0  0  0  0  0  0  0  0  0
   -7.5793    4.9117  -15.3093 C   0  0  0  0  0  0  0  0  0  0  0  0
   -8.6440    4.3644  -16.0215 C   0  0  0  0  0  0  0  0  0  0  0  0
   -8.5448    4.2212  -17.4119 C   0  0  0  0  0  0  0  0  0  0  0  0
   -9.9279    3.7083  -18.2816 Cl  0  0  0  0  0  0  0  0  0  0  0  0
   -7.3995    4.6016  -18.1162 C   0  0  0  0  0  0  0  0  0  0  0  0
   -6.3471    5.1386  -17.4038 C   0  0  0  0  0  0  0  0  0  0  0  0
   -6.4205    5.2646  -16.0037 C   0  0  0  0  0  0  0  0  0  0  0  0
   -5.1031    5.8086  -15.5196 C   0  0  2  0  0  0  0  0  0  0  0  0
   -4.5496    5.1401  -14.2523 C   0  0  0  0  0  0  0  0  0  0  0  0
   -4.7538    6.1567  -13.2078 N   0  0  0  0  0  0  0  0  0  0  0  0
   -4.5410    7.3986  -13.9216 C   0  0  0  0  0  0  0  0  0  0  0  0
   -5.1535    7.2252  -15.2168 N   0  0  0  0  0  0  0  0  0  0  0  0
   -4.2061    5.6483  -16.6674 N   0  0  0  0  0  0  0  0  0  0  0  0
   -5.0714    5.7938  -17.8533 C   0  0  1  0  0  0  0  0  0  0  0  0
   -4.4512    5.2630  -19.1272 C   0  0  0  0  0  0  0  0  0  0  0  0
   -2.9978    5.6931  -19.4288 C   0  0  0  0  0  0  0  0  0  0  0  0
   -3.4023    6.1581  -20.7639 N   0  0  0  0  0  0  0  0  0  0  0  0
   -4.8156    6.1118  -20.3682 C   0  0  0  0  0  0  0  0  0  0  0  0
  1  2  2  0
  2  3  1  0
  3  4  1  0
  4  5  2  0
  5  6  1  0
  6  7  2  0
  7  8  1  0
  8  9  2  0
  8 10  1  0
 10 11  1  0
 11 12  1  0
  2 13  1  0
 13 14  2  0
 14 15  1  0
 15 16  1  0
 15 17  2  0
 17 18  1  0
 18 19  2  0
 19 20  1  0
 20 21  1  1
 21 22  1  0
 22 23  1  0
 23 24  1  0
 20 25  1  0
 25 26  1  0
 26 27  1  6
 27 28  1  0
 28 29  1  0
 29 30  1  0
  9  4  1  0
 19 13  1  0
 24 20  1  0
 30 27  1  0
 12  7  1  0
 26 18  1  0
M  END
>  <smiles>  (785) 
C103012-P321

>  <fragmenstein_outcome>  (785) 
acceptable

>  <inchikey>  (785) 
RVFOMODBXYQZKX-UHFFFAOYSA-N

>  <fragmenstein_mode>  (785) 
expansion

>  <HIPPO Pose ID>  (785) 
18354

>  <Energy>  (785) 
8.88622

>  <fragmenstein_error>  (785) 


>  <tags>  (785) 
{'openbind_xx01zvns2b_c1_fragmenstein', 'fragmenstein_placed'}

>  <ref_pdb>  (785) 
1

>  <scratch_subdir>  (785) 
/opt/xchem-fragalysis-2/maxwin/BulkDock/SCRATCH/511027/C103012-P321

>  <alias>  (785) 
O=C(Nc1ccc2c(c1)CNC2)c1cc(Cl)cc2c1[C@@]1(CNCN1)N[C@H]2C1CNC1

>  <HIPPO Compound ID>  (785) 
73756

>  <fragmenstein_runtime>  (785) 
7.954719

$$$$
CN1CCC(c2n[nH]c3c(Cl)cc(C(=O)Nc4ccc5c(c4)CNC5)c(-n4cncn4)c23)CC1
     RDKit          3D

 34 39  0  0  0  0  0  0  0  0999 V2000
   -1.2520    6.9091  -20.5160 C   0  0  0  0  0  0  0  0  0  0  0  0
   -1.1430    6.8844  -19.0569 N   0  0  0  0  0  0  0  0  0  0  0  0
   -2.0113    7.8739  -18.4139 C   0  0  0  0  0  0  0  0  0  0  0  0
   -3.4962    7.5142  -18.4412 C   0  0  0  0  0  0  0  0  0  0  0  0
   -3.7384    6.1219  -17.8372 C   0  0  0  0  0  0  0  0  0  0  0  0
   -5.1979    5.7442  -17.8903 C   0  0  0  0  0  0  0  0  0  0  0  0
   -5.7201    5.4871  -19.0942 N   0  0  0  0  0  0  0  0  0  0  0  0
   -6.9806    5.1169  -18.8490 N   0  0  0  0  0  0  0  0  0  0  0  0
   -7.2869    5.0669  -17.5153 C   0  0  0  0  0  0  0  0  0  0  0  0
   -8.4466    4.6403  -16.8628 C   0  0  0  0  0  0  0  0  0  0  0  0
   -9.7706    4.0296  -17.7662 Cl  0  0  0  0  0  0  0  0  0  0  0  0
   -8.5201    4.7634  -15.4739 C   0  0  0  0  0  0  0  0  0  0  0  0
   -7.4559    5.3258  -14.7678 C   0  0  0  0  0  0  0  0  0  0  0  0
   -7.6854    5.7338  -13.3510 C   0  0  0  0  0  0  0  0  0  0  0  0
   -7.5795    6.8690  -13.0955 O   0  0  0  0  0  0  0  0  0  0  0  0
   -7.9346    4.5180  -12.4293 N   0  0  0  0  0  0  0  0  0  0  0  0
   -8.1917    4.4569  -11.0571 C   0  0  0  0  0  0  0  0  0  0  0  0
   -8.1143    5.5969  -10.2394 C   0  0  0  0  0  0  0  0  0  0  0  0
   -8.3169    5.5086   -8.8540 C   0  0  0  0  0  0  0  0  0  0  0  0
   -8.6245    4.2743   -8.3130 C   0  0  0  0  0  0  0  0  0  0  0  0
   -8.7192    3.1479   -9.1222 C   0  0  0  0  0  0  0  0  0  0  0  0
   -8.4913    3.2167  -10.4887 C   0  0  0  0  0  0  0  0  0  0  0  0
   -9.0505    1.9662   -8.2729 C   0  0  0  0  0  0  0  0  0  0  0  0
   -9.5011    2.5337   -6.9730 N   0  0  0  0  0  0  0  0  0  0  0  0
   -8.8874    3.8777   -6.8982 C   0  0  0  0  0  0  0  0  0  0  0  0
   -6.2788    5.7384  -15.4410 C   0  0  0  0  0  0  0  0  0  0  0  0
   -5.2408    6.3130  -14.6923 N   0  0  0  0  0  0  0  0  0  0  0  0
   -4.5733    7.4833  -14.9314 C   0  0  0  0  0  0  0  0  0  0  0  0
   -3.6155    7.6491  -14.0483 N   0  0  0  0  0  0  0  0  0  0  0  0
   -3.7656    6.5579  -13.2420 C   0  0  0  0  0  0  0  0  0  0  0  0
   -4.7259    5.7036  -13.6015 N   0  0  0  0  0  0  0  0  0  0  0  0
   -6.1761    5.5870  -16.8484 C   0  0  0  0  0  0  0  0  0  0  0  0
   -2.8393    5.0901  -18.5413 C   0  0  0  0  0  0  0  0  0  0  0  0
   -1.3755    5.5365  -18.5229 C   0  0  0  0  0  0  0  0  0  0  0  0
  1  2  1  0
  2  3  1  0
  3  4  1  0
  4  5  1  0
  5  6  1  0
  6  7  2  0
  7  8  1  0
  8  9  1  0
  9 10  2  0
 10 11  1  0
 10 12  1  0
 12 13  2  0
 13 14  1  0
 14 15  2  0
 14 16  1  0
 16 17  1  0
 17 18  2  0
 18 19  1  0
 19 20  2  0
 20 21  1  0
 21 22  2  0
 21 23  1  0
 23 24  1  0
 24 25  1  0
 13 26  1  0
 26 27  1  0
 27 28  1  0
 28 29  2  0
 29 30  1  0
 30 31  2  0
 26 32  2  0
  5 33  1  0
 33 34  1  0
 34  2  1  0
 32  6  1  0
 32  9  1  0
 22 17  1  0
 31 27  1  0
 25 20  1  0
M  END
>  <smiles>  (786) 
C103025-P143

>  <fragmenstein_outcome>  (786) 
acceptable

>  <inchikey>  (786) 
GJAAYAGNTVNRKL-UHFFFAOYSA-N

>  <fragmenstein_mode>  (786) 
expansion

>  <HIPPO Pose ID>  (786) 
18355

>  <Energy>  (786) 
65.764422

>  <fragmenstein_error>  (786) 


>  <tags>  (786) 
{'openbind_xx01zvns2b_c1_fragmenstein', 'fragmenstein_placed'}

>  <ref_pdb>  (786) 
1

>  <scratch_subdir>  (786) 
/opt/xchem-fragalysis-2/maxwin/BulkDock/SCRATCH/511027/C103025-P143

>  <alias>  (786) 
CN1CCC(c2n[nH]c3c(Cl)cc(C(=O)Nc4ccc5c(c4)CNC5)c(-n4cncn4)c23)CC1

>  <HIPPO Compound ID>  (786) 
92872

>  <fragmenstein_runtime>  (786) 
6.349414

$$$$
O=C(Nc1ccc2c(c1)CNC2)c1cc(Cl)c2c(c1-n1cncn1)[C@H](C1CCNCC1)C(=O)N2
     RDKit          3D

 34 39  0  0  0  0  0  0  0  0999 V2000
   -6.5181    6.2119  -13.1760 O   0  0  0  0  0  0  0  0  0  0  0  0
   -6.9833    5.1675  -13.4044 C   0  0  0  0  0  0  0  0  0  0  0  0
   -7.6401    4.1401  -12.4647 N   0  0  0  0  0  0  0  0  0  0  0  0
   -7.9386    4.2175  -11.1077 C   0  0  0  0  0  0  0  0  0  0  0  0
   -7.5974    5.3451  -10.3447 C   0  0  0  0  0  0  0  0  0  0  0  0
   -7.8202    5.3697   -8.9637 C   0  0  0  0  0  0  0  0  0  0  0  0
   -8.3596    4.2459   -8.3692 C   0  0  0  0  0  0  0  0  0  0  0  0
   -8.7148    3.1399   -9.1288 C   0  0  0  0  0  0  0  0  0  0  0  0
   -8.5363    3.1170  -10.5007 C   0  0  0  0  0  0  0  0  0  0  0  0
   -9.2789    2.0902   -8.2379 C   0  0  0  0  0  0  0  0  0  0  0  0
   -8.9967    2.5384   -6.8490 N   0  0  0  0  0  0  0  0  0  0  0  0
   -8.6698    3.9776   -6.9371 C   0  0  0  0  0  0  0  0  0  0  0  0
   -6.9131    4.6834  -14.7983 C   0  0  0  0  0  0  0  0  0  0  0  0
   -8.1654    4.5659  -15.4540 C   0  0  0  0  0  0  0  0  0  0  0  0
   -8.2201    4.4901  -16.8382 C   0  0  0  0  0  0  0  0  0  0  0  0
   -9.7136    4.2519  -17.6495 Cl  0  0  0  0  0  0  0  0  0  0  0  0
   -7.0344    4.6349  -17.5326 C   0  0  0  0  0  0  0  0  0  0  0  0
   -5.7761    4.7111  -16.9015 C   0  0  0  0  0  0  0  0  0  0  0  0
   -5.6821    4.6334  -15.4992 C   0  0  0  0  0  0  0  0  0  0  0  0
   -4.4184    4.4570  -14.8254 N   0  0  0  0  0  0  0  0  0  0  0  0
   -4.0982    4.2888  -13.4876 C   0  0  0  0  0  0  0  0  0  0  0  0
   -2.7940    4.2697  -13.3080 N   0  0  0  0  0  0  0  0  0  0  0  0
   -2.3305    4.3541  -14.5732 C   0  0  0  0  0  0  0  0  0  0  0  0
   -3.2621    4.3192  -15.5223 N   0  0  0  0  0  0  0  0  0  0  0  0
   -4.7257    4.8100  -18.0005 C   0  0  2  0  0  0  0  0  0  0  0  0
   -3.7495    5.9946  -17.9296 C   0  0  0  0  0  0  0  0  0  0  0  0
   -2.5188    5.7529  -18.8146 C   0  0  0  0  0  0  0  0  0  0  0  0
   -1.4151    6.7578  -18.4739 C   0  0  0  0  0  0  0  0  0  0  0  0
   -1.9195    8.0193  -17.9168 N   0  0  0  0  0  0  0  0  0  0  0  0
   -3.1959    8.4019  -18.5126 C   0  0  0  0  0  0  0  0  0  0  0  0
   -4.3177    7.3946  -18.2030 C   0  0  0  0  0  0  0  0  0  0  0  0
   -5.5725    4.8129  -19.2913 C   0  0  0  0  0  0  0  0  0  0  0  0
   -5.1764    4.8808  -20.4441 O   0  0  0  0  0  0  0  0  0  0  0  0
   -6.8952    4.7160  -18.9112 N   0  0  0  0  0  0  0  0  0  0  0  0
  1  2  2  0
  2  3  1  0
  3  4  1  0
  4  5  2  0
  5  6  1  0
  6  7  2  0
  7  8  1  0
  8  9  2  0
  8 10  1  0
 10 11  1  0
 11 12  1  0
  2 13  1  0
 13 14  2  0
 14 15  1  0
 15 16  1  0
 15 17  2  0
 17 18  1  0
 18 19  2  0
 19 20  1  0
 20 21  1  0
 21 22  2  0
 22 23  1  0
 23 24  2  0
 18 25  1  0
 25 26  1  1
 26 27  1  0
 27 28  1  0
 28 29  1  0
 29 30  1  0
 30 31  1  0
 25 32  1  0
 32 33  2  0
 32 34  1  0
  9  4  1  0
 19 13  1  0
 24 20  1  0
 31 26  1  0
 12  7  1  0
 34 17  1  0
M  END
>  <smiles>  (787) 
C103028-P143

>  <fragmenstein_outcome>  (787) 
acceptable

>  <inchikey>  (787) 
MFZCSUSMEHAHMO-UHFFFAOYSA-N

>  <fragmenstein_mode>  (787) 
expansion

>  <HIPPO Pose ID>  (787) 
18357

>  <Energy>  (787) 
82.136386

>  <fragmenstein_error>  (787) 


>  <tags>  (787) 
{'openbind_xx01zvns2b_c1_fragmenstein', 'fragmenstein_placed'}

>  <ref_pdb>  (787) 
1

>  <scratch_subdir>  (787) 
/opt/xchem-fragalysis-2/maxwin/BulkDock/SCRATCH/511027/C103028-P143

>  <alias>  (787) 
O=C(Nc1ccc2c(c1)CNC2)c1cc(Cl)c2c(c1-n1cncn1)[C@H](C1CCNCC1)C(=O)N2

>  <HIPPO Compound ID>  (787) 
97621

>  <fragmenstein_runtime>  (787) 
10.489331

$$$$
O=C1N=c2c(Cl)cc(C(=O)Nc3ccc4c(c3)CNC4)c(-n3cncn3)c2=N1
     RDKit          3D

 28 32  0  0  0  0  0  0  0  0999 V2000
   -4.7453    5.2996  -20.1255 O   0  0  0  0  0  0  0  0  0  0  0  0
   -5.3063    5.0013  -19.0840 C   0  0  0  0  0  0  0  0  0  0  0  0
   -6.6558    4.7304  -18.9890 N   0  0  0  0  0  0  0  0  0  0  0  0
   -6.8603    4.5974  -17.7298 C   0  0  0  0  0  0  0  0  0  0  0  0
   -8.0854    4.3828  -16.9691 C   0  0  0  0  0  0  0  0  0  0  0  0
   -9.5567    4.1262  -17.8028 Cl  0  0  0  0  0  0  0  0  0  0  0  0
   -7.9868    4.4338  -15.6361 C   0  0  0  0  0  0  0  0  0  0  0  0
   -6.7189    4.6206  -14.9222 C   0  0  0  0  0  0  0  0  0  0  0  0
   -6.8026    5.1627  -13.5203 C   0  0  0  0  0  0  0  0  0  0  0  0
   -6.3062    6.1887  -13.2715 O   0  0  0  0  0  0  0  0  0  0  0  0
   -7.6249    4.2063  -12.6293 N   0  0  0  0  0  0  0  0  0  0  0  0
   -7.9177    4.2648  -11.2680 C   0  0  0  0  0  0  0  0  0  0  0  0
   -7.6577    5.4237  -10.5194 C   0  0  0  0  0  0  0  0  0  0  0  0
   -7.8958    5.4568   -9.1408 C   0  0  0  0  0  0  0  0  0  0  0  0
   -8.3700    4.3117   -8.5310 C   0  0  0  0  0  0  0  0  0  0  0  0
   -8.6511    3.1744   -9.2744 C   0  0  0  0  0  0  0  0  0  0  0  0
   -8.4556    3.1402  -10.6465 C   0  0  0  0  0  0  0  0  0  0  0  0
   -9.1563    2.1047   -8.3693 C   0  0  0  0  0  0  0  0  0  0  0  0
   -8.9717    2.6119   -6.9828 N   0  0  0  0  0  0  0  0  0  0  0  0
   -8.6700    4.0543   -7.0952 C   0  0  0  0  0  0  0  0  0  0  0  0
   -5.4948    4.6327  -15.5145 C   0  0  0  0  0  0  0  0  0  0  0  0
   -4.2134    4.6386  -14.8937 N   0  0  0  0  0  0  0  0  0  0  0  0
   -3.8690    4.2544  -13.5930 C   0  0  0  0  0  0  0  0  0  0  0  0
   -2.5738    4.3213  -13.3832 N   0  0  0  0  0  0  0  0  0  0  0  0
   -2.1113    4.7612  -14.5729 C   0  0  0  0  0  0  0  0  0  0  0  0
   -3.0300    4.9221  -15.5166 N   0  0  0  0  0  0  0  0  0  0  0  0
   -5.5697    4.7323  -17.0005 C   0  0  0  0  0  0  0  0  0  0  0  0
   -4.6484    4.9697  -17.8668 N   0  0  0  0  0  0  0  0  0  0  0  0
  1  2  2  0
  2  3  1  0
  3  4  2  0
  4  5  1  0
  5  6  1  0
  5  7  2  0
  7  8  1  0
  8  9  1  0
  9 10  2  0
  9 11  1  0
 11 12  1  0
 12 13  2  0
 13 14  1  0
 14 15  2  0
 15 16  1  0
 16 17  2  0
 16 18  1  0
 18 19  1  0
 19 20  1  0
  8 21  2  0
 21 22  1  0
 22 23  1  0
 23 24  2  0
 24 25  1  0
 25 26  2  0
 21 27  1  0
 27 28  2  0
 28  2  1  0
 27  4  1  0
 17 12  1  0
 26 22  1  0
 20 15  1  0
M  END
>  <smiles>  (788) 
C103030-P143

>  <fragmenstein_outcome>  (788) 
acceptable

>  <inchikey>  (788) 
RRRSJKNQZZWIEP-UHFFFAOYSA-N

>  <fragmenstein_mode>  (788) 
expansion

>  <HIPPO Pose ID>  (788) 
18358

>  <Energy>  (788) 
21.640628

>  <fragmenstein_error>  (788) 


>  <tags>  (788) 
{'openbind_xx01zvns2b_c1_fragmenstein', 'fragmenstein_placed'}

>  <ref_pdb>  (788) 
1

>  <scratch_subdir>  (788) 
/opt/xchem-fragalysis-2/maxwin/BulkDock/SCRATCH/511027/C103030-P143

>  <alias>  (788) 
O=C1N=c2c(Cl)cc(C(=O)Nc3ccc4c(c3)CNC4)c(-n3cncn3)c2=N1

>  <HIPPO Compound ID>  (788) 
103030

>  <fragmenstein_runtime>  (788) 
3.458354

$$$$
O=C1Cc2c(c(Cl)cc(C(=O)Nc3ccc4c(c3)CNC4)c2-n2cncn2)N1
     RDKit          3D

 28 32  0  0  0  0  0  0  0  0999 V2000
   -6.0768    3.7657  -20.9652 O   0  0  0  0  0  0  0  0  0  0  0  0
   -6.3710    4.1799  -19.8622 C   0  0  0  0  0  0  0  0  0  0  0  0
   -5.4746    4.8600  -18.8299 C   0  0  0  0  0  0  0  0  0  0  0  0
   -6.3340    4.8468  -17.5922 C   0  0  0  0  0  0  0  0  0  0  0  0
   -7.5965    4.3918  -17.9806 C   0  0  0  0  0  0  0  0  0  0  0  0
   -8.6588    4.2422  -17.1316 C   0  0  0  0  0  0  0  0  0  0  0  0
  -10.1717    3.8190  -17.7980 Cl  0  0  0  0  0  0  0  0  0  0  0  0
   -8.4416    4.5010  -15.7916 C   0  0  0  0  0  0  0  0  0  0  0  0
   -7.1571    4.9114  -15.3400 C   0  0  0  0  0  0  0  0  0  0  0  0
   -7.1320    5.3653  -13.9231 C   0  0  0  0  0  0  0  0  0  0  0  0
   -6.9108    6.4920  -13.7039 O   0  0  0  0  0  0  0  0  0  0  0  0
   -7.5210    4.2118  -12.9622 N   0  0  0  0  0  0  0  0  0  0  0  0
   -7.8010    4.2267  -11.5948 C   0  0  0  0  0  0  0  0  0  0  0  0
   -7.6551    5.3915  -10.8280 C   0  0  0  0  0  0  0  0  0  0  0  0
   -7.9322    5.3848   -9.4555 C   0  0  0  0  0  0  0  0  0  0  0  0
   -8.3472    4.2012   -8.8715 C   0  0  0  0  0  0  0  0  0  0  0  0
   -8.5119    3.0507   -9.6293 C   0  0  0  0  0  0  0  0  0  0  0  0
   -8.2482    3.0442  -10.9916 C   0  0  0  0  0  0  0  0  0  0  0  0
   -8.9861    1.9412   -8.7536 C   0  0  0  0  0  0  0  0  0  0  0  0
   -8.9954    2.4728   -7.3644 N   0  0  0  0  0  0  0  0  0  0  0  0
   -8.6777    3.9149   -7.4480 C   0  0  0  0  0  0  0  0  0  0  0  0
   -6.0792    5.0925  -16.2444 C   0  0  0  0  0  0  0  0  0  0  0  0
   -4.7685    5.4016  -15.8070 N   0  0  0  0  0  0  0  0  0  0  0  0
   -3.7164    5.9043  -16.5359 C   0  0  0  0  0  0  0  0  0  0  0  0
   -2.6139    5.8958  -15.8308 N   0  0  0  0  0  0  0  0  0  0  0  0
   -3.0396    5.4115  -14.6309 C   0  0  0  0  0  0  0  0  0  0  0  0
   -4.3321    5.0923  -14.5667 N   0  0  0  0  0  0  0  0  0  0  0  0
   -7.6101    4.0383  -19.3118 N   0  0  0  0  0  0  0  0  0  0  0  0
  1  2  2  0
  2  3  1  0
  3  4  1  0
  4  5  2  0
  5  6  1  0
  6  7  1  0
  6  8  2  0
  8  9  1  0
  9 10  1  0
 10 11  2  0
 10 12  1  0
 12 13  1  0
 13 14  2  0
 14 15  1  0
 15 16  2  0
 16 17  1  0
 17 18  2  0
 17 19  1  0
 19 20  1  0
 20 21  1  0
  9 22  2  0
 22 23  1  0
 23 24  1  0
 24 25  2  0
 25 26  1  0
 26 27  2  0
  5 28  1  0
 28  2  1  0
 22  4  1  0
 27 23  1  0
 18 13  1  0
 21 16  1  0
M  END
>  <smiles>  (789) 
C103035-P144

>  <fragmenstein_outcome>  (789) 
acceptable

>  <inchikey>  (789) 
YJXWBHCWFBUJHL-UHFFFAOYSA-N

>  <fragmenstein_mode>  (789) 
expansion

>  <HIPPO Pose ID>  (789) 
18362

>  <Energy>  (789) 
69.99257

>  <fragmenstein_error>  (789) 


>  <tags>  (789) 
{'openbind_xx01zvns2b_c1_fragmenstein', 'fragmenstein_placed'}

>  <ref_pdb>  (789) 
1

>  <scratch_subdir>  (789) 
/opt/xchem-fragalysis-2/maxwin/BulkDock/SCRATCH/511027/C103035-P144

>  <alias>  (789) 
O=C1Cc2c(c(Cl)cc(C(=O)Nc3ccc4c(c3)CNC4)c2-n2cncn2)N1

>  <HIPPO Compound ID>  (789) 
88291

>  <fragmenstein_runtime>  (789) 
4.178148

$$$$
O=C(Nc1ccc2c(c1)CNC2)c1cc(Cl)cc2c1[C@@]1(CNCN1)NN2C1CNC1
     RDKit          3D

 30 35  0  0  0  0  0  0  0  0999 V2000
   -7.4458    6.5106  -13.6062 O   0  0  0  0  0  0  0  0  0  0  0  0
   -7.5649    5.3710  -13.8285 C   0  0  0  0  0  0  0  0  0  0  0  0
   -7.9364    4.2023  -12.8917 N   0  0  0  0  0  0  0  0  0  0  0  0
   -8.1395    4.1766  -11.5136 C   0  0  0  0  0  0  0  0  0  0  0  0
   -7.9827    5.3358  -10.7371 C   0  0  0  0  0  0  0  0  0  0  0  0
   -8.1611    5.2994   -9.3505 C   0  0  0  0  0  0  0  0  0  0  0  0
   -8.4960    4.0928   -8.7640 C   0  0  0  0  0  0  0  0  0  0  0  0
   -8.6566    2.9461   -9.5291 C   0  0  0  0  0  0  0  0  0  0  0  0
   -8.4814    2.9665  -10.9049 C   0  0  0  0  0  0  0  0  0  0  0  0
   -9.0049    1.7998   -8.6433 C   0  0  0  0  0  0  0  0  0  0  0  0
   -9.1042    2.3447   -7.2631 N   0  0  0  0  0  0  0  0  0  0  0  0
   -8.7343    3.7751   -7.3293 C   0  0  0  0  0  0  0  0  0  0  0  0
   -7.3395    4.9109  -15.2135 C   0  0  0  0  0  0  0  0  0  0  0  0
   -8.3964    4.3658  -15.9464 C   0  0  0  0  0  0  0  0  0  0  0  0
   -8.2372    4.1362  -17.3173 C   0  0  0  0  0  0  0  0  0  0  0  0
   -9.5522    3.5133  -18.2259 Cl  0  0  0  0  0  0  0  0  0  0  0  0
   -7.0445    4.4404  -17.9717 C   0  0  0  0  0  0  0  0  0  0  0  0
   -6.0022    4.9559  -17.2244 C   0  0  0  0  0  0  0  0  0  0  0  0
   -6.1338    5.1710  -15.8522 C   0  0  0  0  0  0  0  0  0  0  0  0
   -4.8320    5.7297  -15.3452 C   0  0  2  0  0  0  0  0  0  0  0  0
   -4.2463    5.0269  -14.0920 C   0  0  0  0  0  0  0  0  0  0  0  0
   -4.0368    6.1085  -13.1204 N   0  0  0  0  0  0  0  0  0  0  0  0
   -3.9130    7.2996  -13.9332 C   0  0  0  0  0  0  0  0  0  0  0  0
   -4.9232    7.1421  -14.9610 N   0  0  0  0  0  0  0  0  0  0  0  0
   -3.9025    5.6359  -16.5195 N   0  0  0  0  0  0  0  0  0  0  0  0
   -4.7335    5.3755  -17.6588 N   0  0  0  0  0  0  0  0  0  0  0  0
   -4.2171    5.3748  -18.9938 C   0  0  0  0  0  0  0  0  0  0  0  0
   -3.0764    6.3742  -19.2836 C   0  0  0  0  0  0  0  0  0  0  0  0
   -3.7474    6.7299  -20.5590 N   0  0  0  0  0  0  0  0  0  0  0  0
   -5.0241    6.2538  -19.9746 C   0  0  0  0  0  0  0  0  0  0  0  0
  1  2  2  0
  2  3  1  0
  3  4  1  0
  4  5  2  0
  5  6  1  0
  6  7  2  0
  7  8  1  0
  8  9  2  0
  8 10  1  0
 10 11  1  0
 11 12  1  0
  2 13  1  0
 13 14  2  0
 14 15  1  0
 15 16  1  0
 15 17  2  0
 17 18  1  0
 18 19  2  0
 19 20  1  0
 20 21  1  1
 21 22  1  0
 22 23  1  0
 23 24  1  0
 20 25  1  0
 25 26  1  0
 26 27  1  0
 27 28  1  0
 28 29  1  0
 29 30  1  0
  9  4  1  0
 19 13  1  0
 24 20  1  0
 30 27  1  0
 12  7  1  0
 26 18  1  0
M  END
>  <smiles>  (790) 
C30073-P144

>  <fragmenstein_outcome>  (790) 
acceptable

>  <inchikey>  (790) 
YMAIXOKBYLLCRJ-UHFFFAOYSA-N

>  <fragmenstein_mode>  (790) 
expansion

>  <HIPPO Pose ID>  (790) 
18366

>  <Energy>  (790) 
56.703676

>  <fragmenstein_error>  (790) 


>  <tags>  (790) 
{'openbind_xx01zvns2b_c1_fragmenstein', 'fragmenstein_placed'}

>  <ref_pdb>  (790) 
1

>  <scratch_subdir>  (790) 
/opt/xchem-fragalysis-2/maxwin/BulkDock/SCRATCH/511027/C30073-P144

>  <alias>  (790) 
O=C(Nc1ccc2c(c1)CNC2)c1cc(Cl)cc2c1[C@@]1(CNCN1)NN2C1CNC1

>  <HIPPO Compound ID>  (790) 
30073

>  <fragmenstein_runtime>  (790) 
4.358572

$$$$
O=C(Nc1cc(F)c2c(c1)CNC21CCCC1)c1cc(Cl)cc2c1[C@]1(CNCN1)NN2C1CNC1
     RDKit          3D

 35 41  0  0  0  0  0  0  0  0999 V2000
   -7.1153    6.4602  -13.4061 O   0  0  0  0  0  0  0  0  0  0  0  0
   -7.4144    5.3617  -13.6619 C   0  0  0  0  0  0  0  0  0  0  0  0
   -7.9028    4.2182  -12.7461 N   0  0  0  0  0  0  0  0  0  0  0  0
   -8.2063    4.2147  -11.3811 C   0  0  0  0  0  0  0  0  0  0  0  0
   -8.1168    5.4010  -10.6367 C   0  0  0  0  0  0  0  0  0  0  0  0
   -8.3232    5.3923   -9.2572 C   0  0  0  0  0  0  0  0  0  0  0  0
   -8.2034    6.5336   -8.5691 F   0  0  0  0  0  0  0  0  0  0  0  0
   -8.6080    4.2097   -8.6093 C   0  0  0  0  0  0  0  0  0  0  0  0
   -8.7314    3.0401   -9.3559 C   0  0  0  0  0  0  0  0  0  0  0  0
   -8.5481    3.0219  -10.7389 C   0  0  0  0  0  0  0  0  0  0  0  0
   -9.0340    1.9048   -8.4399 C   0  0  0  0  0  0  0  0  0  0  0  0
   -8.8373    2.4245   -7.0640 N   0  0  0  0  0  0  0  0  0  0  0  0
   -8.6966    3.9044   -7.1469 C   0  0  0  0  0  0  0  0  0  0  0  0
   -9.8195    4.5202   -6.2981 C   0  0  0  0  0  0  0  0  0  0  0  0
   -9.3350    4.4553   -4.8431 C   0  0  0  0  0  0  0  0  0  0  0  0
   -7.8227    4.2805   -4.9070 C   0  0  0  0  0  0  0  0  0  0  0  0
   -7.4818    4.4545   -6.3775 C   0  0  0  0  0  0  0  0  0  0  0  0
   -7.2429    4.9447  -15.0778 C   0  0  0  0  0  0  0  0  0  0  0  0
   -8.3124    4.3822  -15.7860 C   0  0  0  0  0  0  0  0  0  0  0  0
   -8.2124    4.2025  -17.1752 C   0  0  0  0  0  0  0  0  0  0  0  0
   -9.5439    3.5609  -18.0520 Cl  0  0  0  0  0  0  0  0  0  0  0  0
   -7.0709    4.5817  -17.8800 C   0  0  0  0  0  0  0  0  0  0  0  0
   -6.0163    5.1175  -17.1677 C   0  0  0  0  0  0  0  0  0  0  0  0
   -6.0822    5.2772  -15.7760 C   0  0  0  0  0  0  0  0  0  0  0  0
   -4.7583    5.8684  -15.3493 C   0  0  1  0  0  0  0  0  0  0  0  0
   -4.8044    7.3732  -14.9809 C   0  0  0  0  0  0  0  0  0  0  0  0
   -4.3930    7.4188  -13.5650 N   0  0  0  0  0  0  0  0  0  0  0  0
   -3.5052    6.2778  -13.4473 C   0  0  0  0  0  0  0  0  0  0  0  0
   -4.1310    5.2082  -14.2047 N   0  0  0  0  0  0  0  0  0  0  0  0
   -3.8867    5.6340  -16.5356 N   0  0  0  0  0  0  0  0  0  0  0  0
   -4.7825    5.6103  -17.6491 N   0  0  0  0  0  0  0  0  0  0  0  0
   -4.3053    5.5261  -19.0020 C   0  0  0  0  0  0  0  0  0  0  0  0
   -3.1380    6.4716  -19.3574 C   0  0  0  0  0  0  0  0  0  0  0  0
   -3.8621    6.8983  -20.5736 N   0  0  0  0  0  0  0  0  0  0  0  0
   -5.1203    6.4033  -19.9794 C   0  0  0  0  0  0  0  0  0  0  0  0
  1  2  2  0
  2  3  1  0
  3  4  1  0
  4  5  2  0
  5  6  1  0
  6  7  1  0
  6  8  2  0
  8  9  1  0
  9 10  2  0
  9 11  1  0
 11 12  1  0
 12 13  1  0
 13 14  1  0
 14 15  1  0
 15 16  1  0
 16 17  1  0
  2 18  1  0
 18 19  2  0
 19 20  1  0
 20 21  1  0
 20 22  2  0
 22 23  1  0
 23 24  2  0
 24 25  1  0
 25 26  1  1
 26 27  1  0
 27 28  1  0
 28 29  1  0
 25 30  1  0
 30 31  1  0
 31 32  1  0
 32 33  1  0
 33 34  1  0
 34 35  1  0
 10  4  1  0
 17 13  1  0
 24 18  1  0
 29 25  1  0
 35 32  1  0
 13  8  1  0
 31 23  1  0
M  END
>  <smiles>  (791) 
C103043-P144

>  <fragmenstein_outcome>  (791) 
acceptable

>  <inchikey>  (791) 
OVEJFNWUSPCZFS-UHFFFAOYSA-N

>  <fragmenstein_mode>  (791) 
expansion

>  <HIPPO Pose ID>  (791) 
18370

>  <Energy>  (791) 
59.026795

>  <fragmenstein_error>  (791) 


>  <tags>  (791) 
{'openbind_xx01zvns2b_c1_fragmenstein', 'fragmenstein_placed'}

>  <ref_pdb>  (791) 
1

>  <scratch_subdir>  (791) 
/opt/xchem-fragalysis-2/maxwin/BulkDock/SCRATCH/511027/C103043-P144

>  <alias>  (791) 
O=C(Nc1cc(F)c2c(c1)CNC21CCCC1)c1cc(Cl)cc2c1[C@]1(CNCN1)NN2C1CNC1

>  <HIPPO Compound ID>  (791) 
87686

>  <fragmenstein_runtime>  (791) 
8.801033

$$$$
O=C(Nc1ccc2c(c1)CN(F)C2)c1cc(Cl)cc2c1[C@]1(CNCN1)NN2C1CNC1
     RDKit          3D

 31 36  0  0  0  0  0  0  0  0999 V2000
   -7.6655    6.5172  -13.4198 O   0  0  0  0  0  0  0  0  0  0  0  0
   -7.7259    5.3755  -13.6505 C   0  0  0  0  0  0  0  0  0  0  0  0
   -8.0355    4.1849  -12.7245 N   0  0  0  0  0  0  0  0  0  0  0  0
   -8.2360    4.1382  -11.3480 C   0  0  0  0  0  0  0  0  0  0  0  0
   -8.1331    5.3011  -10.5656 C   0  0  0  0  0  0  0  0  0  0  0  0
   -8.2862    5.2467   -9.1784 C   0  0  0  0  0  0  0  0  0  0  0  0
   -8.5730    4.0234   -8.6037 C   0  0  0  0  0  0  0  0  0  0  0  0
   -8.6996    2.8754   -9.3784 C   0  0  0  0  0  0  0  0  0  0  0  0
   -8.5172    2.9084  -10.7510 C   0  0  0  0  0  0  0  0  0  0  0  0
   -9.0176    1.7155   -8.4917 C   0  0  0  0  0  0  0  0  0  0  0  0
   -9.2818    2.2844   -7.1467 N   0  0  0  0  0  0  0  0  0  0  0  0
  -10.6321    2.2646   -6.8623 F   0  0  0  0  0  0  0  0  0  0  0  0
   -8.7838    3.6748   -7.1684 C   0  0  0  0  0  0  0  0  0  0  0  0
   -7.4203    4.9259  -15.0170 C   0  0  0  0  0  0  0  0  0  0  0  0
   -8.4509    4.3536  -15.7764 C   0  0  0  0  0  0  0  0  0  0  0  0
   -8.2555    4.1018  -17.1346 C   0  0  0  0  0  0  0  0  0  0  0  0
   -9.5237    3.4507  -18.0889 Cl  0  0  0  0  0  0  0  0  0  0  0  0
   -7.0498    4.4131  -17.7455 C   0  0  0  0  0  0  0  0  0  0  0  0
   -6.0430    4.9769  -16.9795 C   0  0  0  0  0  0  0  0  0  0  0  0
   -6.1945    5.1986  -15.6078 C   0  0  0  0  0  0  0  0  0  0  0  0
   -4.9000    5.7791  -15.1074 C   0  0  1  0  0  0  0  0  0  0  0  0
   -4.9043    7.2450  -14.6662 C   0  0  0  0  0  0  0  0  0  0  0  0
   -4.9926    7.2085  -13.1984 N   0  0  0  0  0  0  0  0  0  0  0  0
   -4.5853    5.8693  -12.7997 C   0  0  0  0  0  0  0  0  0  0  0  0
   -4.2673    5.0898  -13.9920 N   0  0  0  0  0  0  0  0  0  0  0  0
   -3.9527    5.5854  -16.2377 N   0  0  0  0  0  0  0  0  0  0  0  0
   -4.7684    5.4031  -17.4149 N   0  0  0  0  0  0  0  0  0  0  0  0
   -4.5027    6.3176  -18.5152 C   0  0  0  0  0  0  0  0  0  0  0  0
   -5.6339    6.6312  -19.5136 C   0  0  0  0  0  0  0  0  0  0  0  0
   -5.2111    5.4499  -20.3066 N   0  0  0  0  0  0  0  0  0  0  0  0
   -3.8644    5.5906  -19.7131 C   0  0  0  0  0  0  0  0  0  0  0  0
  1  2  2  0
  2  3  1  0
  3  4  1  0
  4  5  2  0
  5  6  1  0
  6  7  2  0
  7  8  1  0
  8  9  2  0
  8 10  1  0
 10 11  1  0
 11 12  1  0
 11 13  1  0
  2 14  1  0
 14 15  2  0
 15 16  1  0
 16 17  1  0
 16 18  2  0
 18 19  1  0
 19 20  2  0
 20 21  1  0
 21 22  1  1
 22 23  1  0
 23 24  1  0
 24 25  1  0
 21 26  1  0
 26 27  1  0
 27 28  1  0
 28 29  1  0
 29 30  1  0
 30 31  1  0
  9  4  1  0
 20 14  1  0
 25 21  1  0
 31 28  1  0
 13  7  1  0
 27 19  1  0
M  END
>  <smiles>  (792) 
C103045-P144

>  <fragmenstein_outcome>  (792) 
acceptable

>  <inchikey>  (792) 
WESVBOHRKSJNGI-UHFFFAOYSA-N

>  <fragmenstein_mode>  (792) 
expansion

>  <HIPPO Pose ID>  (792) 
18372

>  <Energy>  (792) 
70.634462

>  <fragmenstein_error>  (792) 


>  <tags>  (792) 
{'openbind_xx01zvns2b_c1_fragmenstein', 'fragmenstein_placed'}

>  <ref_pdb>  (792) 
1

>  <scratch_subdir>  (792) 
/opt/xchem-fragalysis-2/maxwin/BulkDock/SCRATCH/511027/C103045-P144

>  <alias>  (792) 
O=C(Nc1ccc2c(c1)CN(F)C2)c1cc(Cl)cc2c1[C@]1(CNCN1)NN2C1CNC1

>  <HIPPO Compound ID>  (792) 
105197

>  <fragmenstein_runtime>  (792) 
6.656233

$$$$
CCCCc1[nH]cnc1Nc1cc(NO)cc(C(=O)Nc2ccc3c(c2)CNC3)c1
     RDKit          3D

 30 33  0  0  0  0  0  0  0  0999 V2000
   -2.7432    4.0384  -12.3590 C   0  0  0  0  0  0  0  0  0  0  0  0
   -2.1266    5.3376  -12.8558 C   0  0  0  0  0  0  0  0  0  0  0  0
   -1.7921    5.3279  -14.3518 C   0  0  0  0  0  0  0  0  0  0  0  0
   -3.0342    5.2027  -15.2408 C   0  0  0  0  0  0  0  0  0  0  0  0
   -2.8079    5.2877  -16.7156 C   0  0  0  0  0  0  0  0  0  0  0  0
   -1.5443    5.4049  -17.2579 N   0  0  0  0  0  0  0  0  0  0  0  0
   -1.6536    5.4327  -18.6137 C   0  0  0  0  0  0  0  0  0  0  0  0
   -2.9061    5.3662  -18.9862 N   0  0  0  0  0  0  0  0  0  0  0  0
   -3.6383    5.2776  -17.8247 C   0  0  0  0  0  0  0  0  0  0  0  0
   -4.9611    5.1525  -18.0317 N   0  0  0  0  0  0  0  0  0  0  0  0
   -6.1387    4.9500  -17.2945 C   0  0  0  0  0  0  0  0  0  0  0  0
   -7.2507    4.3894  -17.9596 C   0  0  0  0  0  0  0  0  0  0  0  0
   -8.4616    4.1188  -17.3021 C   0  0  0  0  0  0  0  0  0  0  0  0
   -9.5841    3.6401  -18.0250 N   0  0  0  0  0  0  0  0  0  0  0  0
  -10.7373    4.4444  -18.0323 O   0  0  0  0  0  0  0  0  0  0  0  0
   -8.5522    4.3712  -15.9349 C   0  0  0  0  0  0  0  0  0  0  0  0
   -7.4729    4.9479  -15.2692 C   0  0  0  0  0  0  0  0  0  0  0  0
   -7.5929    5.3897  -13.8582 C   0  0  0  0  0  0  0  0  0  0  0  0
   -7.3555    6.5051  -13.6078 O   0  0  0  0  0  0  0  0  0  0  0  0
   -8.0387    4.2302  -12.9400 N   0  0  0  0  0  0  0  0  0  0  0  0
   -8.1890    4.1784  -11.5541 C   0  0  0  0  0  0  0  0  0  0  0  0
   -8.0353    5.3298  -10.7630 C   0  0  0  0  0  0  0  0  0  0  0  0
   -8.2139    5.2787   -9.3759 C   0  0  0  0  0  0  0  0  0  0  0  0
   -8.5609    4.0680   -8.8076 C   0  0  0  0  0  0  0  0  0  0  0  0
   -8.7010    2.9228   -9.5864 C   0  0  0  0  0  0  0  0  0  0  0  0
   -8.5102    2.9555  -10.9582 C   0  0  0  0  0  0  0  0  0  0  0  0
   -9.0526    1.7748   -8.6979 C   0  0  0  0  0  0  0  0  0  0  0  0
   -9.5081    2.4001   -7.4273 N   0  0  0  0  0  0  0  0  0  0  0  0
   -8.8383    3.7200   -7.3832 C   0  0  0  0  0  0  0  0  0  0  0  0
   -6.2874    5.2436  -15.9487 C   0  0  0  0  0  0  0  0  0  0  0  0
  1  2  1  0
  2  3  1  0
  3  4  1  0
  4  5  1  0
  5  6  1  0
  6  7  1  0
  7  8  2  0
  8  9  1  0
  9 10  1  0
 10 11  1  0
 11 12  2  0
 12 13  1  0
 13 14  1  0
 14 15  1  0
 13 16  2  0
 16 17  1  0
 17 18  1  0
 18 19  2  0
 18 20  1  0
 20 21  1  0
 21 22  2  0
 22 23  1  0
 23 24  2  0
 24 25  1  0
 25 26  2  0
 25 27  1  0
 27 28  1  0
 28 29  1  0
 17 30  2  0
  9  5  2  0
 30 11  1  0
 26 21  1  0
 29 24  1  0
M  END
>  <smiles>  (793) 
C103047-P144

>  <fragmenstein_outcome>  (793) 
acceptable

>  <inchikey>  (793) 
NBKMXNYCZIWTPZ-UHFFFAOYSA-N

>  <fragmenstein_mode>  (793) 
expansion

>  <HIPPO Pose ID>  (793) 
18377

>  <Energy>  (793) 
26.946219

>  <fragmenstein_error>  (793) 


>  <tags>  (793) 
{'openbind_xx01zvns2b_c1_fragmenstein', 'fragmenstein_placed'}

>  <ref_pdb>  (793) 
1

>  <scratch_subdir>  (793) 
/opt/xchem-fragalysis-2/maxwin/BulkDock/SCRATCH/511027/C103047-P144

>  <alias>  (793) 
CCCCc1[nH]cnc1Nc1cc(NO)cc(C(=O)Nc2ccc3c(c2)CNC3)c1

>  <HIPPO Compound ID>  (793) 
77891

>  <fragmenstein_runtime>  (793) 
6.746263

$$$$
O=C(Nc1ccc2c(c1)CNC2)c1cc(Cl)c2nc(NC3CCC3)[nH]c2c1-n1cncn1
     RDKit          3D

 32 37  0  0  0  0  0  0  0  0999 V2000
   -7.6216    6.4282  -13.5577 O   0  0  0  0  0  0  0  0  0  0  0  0
   -7.6321    5.2782  -13.7575 C   0  0  0  0  0  0  0  0  0  0  0  0
   -7.9302    4.1019  -12.8081 N   0  0  0  0  0  0  0  0  0  0  0  0
   -8.1768    4.0854  -11.4378 C   0  0  0  0  0  0  0  0  0  0  0  0
   -8.1032    5.2597  -10.6696 C   0  0  0  0  0  0  0  0  0  0  0  0
   -8.3134    5.2266   -9.2867 C   0  0  0  0  0  0  0  0  0  0  0  0
   -8.6308    4.0137   -8.7053 C   0  0  0  0  0  0  0  0  0  0  0  0
   -8.7170    2.8524   -9.4679 C   0  0  0  0  0  0  0  0  0  0  0  0
   -8.4731    2.8642  -10.8301 C   0  0  0  0  0  0  0  0  0  0  0  0
   -9.0786    1.7112   -8.5766 C   0  0  0  0  0  0  0  0  0  0  0  0
   -9.5680    2.3435   -7.3227 N   0  0  0  0  0  0  0  0  0  0  0  0
   -8.9250    3.6765   -7.2819 C   0  0  0  0  0  0  0  0  0  0  0  0
   -7.2632    4.8036  -15.1119 C   0  0  0  0  0  0  0  0  0  0  0  0
   -8.2907    4.3179  -15.9251 C   0  0  0  0  0  0  0  0  0  0  0  0
   -8.0599    4.1525  -17.2905 C   0  0  0  0  0  0  0  0  0  0  0  0
   -9.2850    3.6068  -18.3422 Cl  0  0  0  0  0  0  0  0  0  0  0  0
   -6.8189    4.4890  -17.8641 C   0  0  0  0  0  0  0  0  0  0  0  0
   -6.3705    4.4824  -19.1709 N   0  0  0  0  0  0  0  0  0  0  0  0
   -5.1556    4.9664  -19.1378 C   0  0  0  0  0  0  0  0  0  0  0  0
   -4.3585    5.3169  -20.1798 N   0  0  0  0  0  0  0  0  0  0  0  0
   -3.3806    6.3712  -20.0852 C   0  0  0  0  0  0  0  0  0  0  0  0
   -2.5909    6.6117  -21.3952 C   0  0  0  0  0  0  0  0  0  0  0  0
   -1.3401    6.8074  -20.5148 C   0  0  0  0  0  0  0  0  0  0  0  0
   -2.0344    5.9129  -19.4679 C   0  0  0  0  0  0  0  0  0  0  0  0
   -4.7298    5.0945  -17.8483 N   0  0  0  0  0  0  0  0  0  0  0  0
   -5.8056    4.9410  -17.0115 C   0  0  0  0  0  0  0  0  0  0  0  0
   -5.9796    5.0920  -15.6239 C   0  0  0  0  0  0  0  0  0  0  0  0
   -4.9307    5.4944  -14.7675 N   0  0  0  0  0  0  0  0  0  0  0  0
   -3.8396    6.2792  -15.0501 C   0  0  0  0  0  0  0  0  0  0  0  0
   -3.0171    6.3161  -14.0271 N   0  0  0  0  0  0  0  0  0  0  0  0
   -3.6654    5.5542  -13.1025 C   0  0  0  0  0  0  0  0  0  0  0  0
   -4.8160    5.0195  -13.5079 N   0  0  0  0  0  0  0  0  0  0  0  0
  1  2  2  0
  2  3  1  0
  3  4  1  0
  4  5  2  0
  5  6  1  0
  6  7  2  0
  7  8  1  0
  8  9  2  0
  8 10  1  0
 10 11  1  0
 11 12  1  0
  2 13  1  0
 13 14  2  0
 14 15  1  0
 15 16  1  0
 15 17  2  0
 17 18  1  0
 18 19  2  0
 19 20  1  0
 20 21  1  0
 21 22  1  0
 22 23  1  0
 23 24  1  0
 19 25  1  0
 25 26  1  0
 26 27  2  0
 27 28  1  0
 28 29  1  0
 29 30  2  0
 30 31  1  0
 31 32  2  0
  9  4  1  0
 27 13  1  0
 32 28  1  0
 12  7  1  0
 26 17  1  0
 24 21  1  0
M  END
>  <smiles>  (794) 
C103048-P144

>  <fragmenstein_outcome>  (794) 
acceptable

>  <inchikey>  (794) 
PJJPENHKHOAUQK-UHFFFAOYSA-N

>  <fragmenstein_mode>  (794) 
expansion

>  <HIPPO Pose ID>  (794) 
18378

>  <Energy>  (794) 
57.78752

>  <fragmenstein_error>  (794) 


>  <tags>  (794) 
{'openbind_xx01zvns2b_c1_fragmenstein', 'fragmenstein_placed'}

>  <ref_pdb>  (794) 
1

>  <scratch_subdir>  (794) 
/opt/xchem-fragalysis-2/maxwin/BulkDock/SCRATCH/511027/C103048-P144

>  <alias>  (794) 
O=C(Nc1ccc2c(c1)CNC2)c1cc(Cl)c2nc(NC3CCC3)[nH]c2c1-n1cncn1

>  <HIPPO Compound ID>  (794) 
94097

>  <fragmenstein_runtime>  (794) 
4.386945

$$$$
CCCCc1nc[nH]c1Nc1cc(Cl)cc([C@](O)(Nc2ccc3c(c2)CNC3)C(=O)NC(C)C)c1
     RDKit          3D

 35 38  0  0  0  0  0  0  0  0999 V2000
   -1.8998    8.7837  -23.1912 C   0  0  0  0  0  0  0  0  0  0  0  0
   -2.7825    7.8708  -22.3542 C   0  0  0  0  0  0  0  0  0  0  0  0
   -3.8405    8.6682  -21.5875 C   0  0  0  0  0  0  0  0  0  0  0  0
   -4.7504    7.7872  -20.7271 C   0  0  0  0  0  0  0  0  0  0  0  0
   -4.0993    7.1792  -19.5288 C   0  0  0  0  0  0  0  0  0  0  0  0
   -2.9029    7.6494  -19.0396 N   0  0  0  0  0  0  0  0  0  0  0  0
   -2.6262    6.8975  -17.9988 C   0  0  0  0  0  0  0  0  0  0  0  0
   -3.6009    5.9721  -17.7748 N   0  0  0  0  0  0  0  0  0  0  0  0
   -4.5695    6.1653  -18.7155 C   0  0  0  0  0  0  0  0  0  0  0  0
   -5.6817    5.4178  -18.7948 N   0  0  0  0  0  0  0  0  0  0  0  0
   -6.5709    5.0584  -17.7566 C   0  0  0  0  0  0  0  0  0  0  0  0
   -7.7509    4.4646  -18.1900 C   0  0  0  0  0  0  0  0  0  0  0  0
   -8.7607    4.1675  -17.2996 C   0  0  0  0  0  0  0  0  0  0  0  0
  -10.2415    3.6710  -17.9865 Cl  0  0  0  0  0  0  0  0  0  0  0  0
   -8.5946    4.3639  -15.9304 C   0  0  0  0  0  0  0  0  0  0  0  0
   -7.3921    4.8919  -15.4293 C   0  0  0  0  0  0  0  0  0  0  0  0
   -7.1690    5.1778  -13.9221 C   0  0  2  0  0  0  0  0  0  0  0  0
   -5.8714    4.6927  -13.6298 O   0  0  0  0  0  0  0  0  0  0  0  0
   -8.1119    4.3857  -13.0967 N   0  0  0  0  0  0  0  0  0  0  0  0
   -8.0619    4.2705  -11.6933 C   0  0  0  0  0  0  0  0  0  0  0  0
   -7.7001    5.3219  -10.8260 C   0  0  0  0  0  0  0  0  0  0  0  0
   -7.8722    5.2416   -9.4353 C   0  0  0  0  0  0  0  0  0  0  0  0
   -8.3831    4.0785   -8.9037 C   0  0  0  0  0  0  0  0  0  0  0  0
   -8.6773    2.9998   -9.7232 C   0  0  0  0  0  0  0  0  0  0  0  0
   -8.5540    3.0892  -11.1043 C   0  0  0  0  0  0  0  0  0  0  0  0
   -9.1013    1.8524   -8.8664 C   0  0  0  0  0  0  0  0  0  0  0  0
   -9.4683    2.4591   -7.5614 N   0  0  0  0  0  0  0  0  0  0  0  0
   -8.7094    3.7284   -7.4904 C   0  0  0  0  0  0  0  0  0  0  0  0
   -7.2998    6.7888  -13.7014 C   0  0  0  0  0  0  0  0  0  0  0  0
   -6.4148    7.5177  -13.9518 O   0  0  0  0  0  0  0  0  0  0  0  0
   -8.7086    7.0799  -13.0875 N   0  0  0  0  0  0  0  0  0  0  0  0
   -9.2766    8.3170  -12.5681 C   0  0  0  0  0  0  0  0  0  0  0  0
  -10.6109    8.6780  -13.2188 C   0  0  0  0  0  0  0  0  0  0  0  0
   -8.3115    9.4967  -12.6168 C   0  0  0  0  0  0  0  0  0  0  0  0
   -6.3859    5.2337  -16.3751 C   0  0  0  0  0  0  0  0  0  0  0  0
  1  2  1  0
  2  3  1  0
  3  4  1  0
  4  5  1  0
  5  6  1  0
  6  7  2  0
  7  8  1  0
  8  9  1  0
  9 10  1  0
 10 11  1  0
 11 12  2  0
 12 13  1  0
 13 14  1  0
 13 15  2  0
 15 16  1  0
 16 17  1  0
 17 18  1  1
 17 19  1  0
 19 20  1  0
 20 21  2  0
 21 22  1  0
 22 23  2  0
 23 24  1  0
 24 25  2  0
 24 26  1  0
 26 27  1  0
 27 28  1  0
 17 29  1  0
 29 30  2  0
 29 31  1  0
 31 32  1  0
 32 33  1  0
 32 34  1  0
 16 35  2  0
  9  5  2  0
 35 11  1  0
 25 20  1  0
 28 23  1  0
M  END
>  <smiles>  (795) 
C103060-P144

>  <fragmenstein_outcome>  (795) 
acceptable

>  <inchikey>  (795) 
AMCMUUQILTVNAE-UHFFFAOYSA-N

>  <fragmenstein_mode>  (795) 
expansion

>  <HIPPO Pose ID>  (795) 
18390

>  <Energy>  (795) 
98.16801

>  <fragmenstein_error>  (795) 


>  <tags>  (795) 
{'openbind_xx01zvns2b_c1_fragmenstein', 'fragmenstein_placed'}

>  <ref_pdb>  (795) 
1

>  <scratch_subdir>  (795) 
/opt/xchem-fragalysis-2/maxwin/BulkDock/SCRATCH/511027/C103060-P144

>  <alias>  (795) 
CCCCc1nc[nH]c1Nc1cc(Cl)cc([C@](O)(Nc2ccc3c(c2)CNC3)C(=O)NC(C)C)c1

>  <HIPPO Compound ID>  (795) 
103060

>  <fragmenstein_runtime>  (795) 
9.844607

$$$$
O=C(Nc1ccc2c(c1)CNC2)c1cc(Cl)c2[nH]cc([C@@H]3CCNC3)c2c1-n1cncn1
     RDKit          3D

 32 37  0  0  0  0  0  0  0  0999 V2000
   -5.3677    4.8990  -13.3110 O   0  0  0  0  0  0  0  0  0  0  0  0
   -6.4647    4.6487  -13.6292 C   0  0  0  0  0  0  0  0  0  0  0  0
   -7.6819    4.2150  -12.7771 N   0  0  0  0  0  0  0  0  0  0  0  0
   -7.8226    4.0960  -11.4020 C   0  0  0  0  0  0  0  0  0  0  0  0
   -7.1320    5.0099  -10.5867 C   0  0  0  0  0  0  0  0  0  0  0  0
   -7.3192    5.0219   -9.2052 C   0  0  0  0  0  0  0  0  0  0  0  0
   -8.1352    4.0547   -8.6586 C   0  0  0  0  0  0  0  0  0  0  0  0
   -8.7639    3.1046   -9.4592 C   0  0  0  0  0  0  0  0  0  0  0  0
   -8.6673    3.1414  -10.8429 C   0  0  0  0  0  0  0  0  0  0  0  0
   -9.5141    2.1643   -8.5795 C   0  0  0  0  0  0  0  0  0  0  0  0
   -9.0917    2.4707   -7.1874 N   0  0  0  0  0  0  0  0  0  0  0  0
   -8.5116    3.8300   -7.2350 C   0  0  0  0  0  0  0  0  0  0  0  0
   -6.7892    4.8756  -15.0884 C   0  0  0  0  0  0  0  0  0  0  0  0
   -7.8034    4.1951  -15.7694 C   0  0  0  0  0  0  0  0  0  0  0  0
   -7.9209    4.3199  -17.1568 C   0  0  0  0  0  0  0  0  0  0  0  0
   -9.2479    3.6310  -17.9987 Cl  0  0  0  0  0  0  0  0  0  0  0  0
   -6.8662    4.9229  -17.8496 C   0  0  0  0  0  0  0  0  0  0  0  0
   -6.6744    5.1163  -19.1947 N   0  0  0  0  0  0  0  0  0  0  0  0
   -5.3899    5.5222  -19.4279 C   0  0  0  0  0  0  0  0  0  0  0  0
   -4.7643    5.7239  -18.2124 C   0  0  0  0  0  0  0  0  0  0  0  0
   -3.2942    6.0073  -18.0165 C   0  0  2  0  0  0  0  0  0  0  0  0
   -2.7349    7.1439  -18.8861 C   0  0  0  0  0  0  0  0  0  0  0  0
   -1.5956    6.5177  -19.6792 C   0  0  0  0  0  0  0  0  0  0  0  0
   -1.1606    5.4140  -18.8343 N   0  0  0  0  0  0  0  0  0  0  0  0
   -2.3980    4.8060  -18.3543 C   0  0  0  0  0  0  0  0  0  0  0  0
   -5.7796    5.5211  -17.2056 C   0  0  0  0  0  0  0  0  0  0  0  0
   -5.9274    5.7396  -15.8163 C   0  0  0  0  0  0  0  0  0  0  0  0
   -5.5017    6.9685  -15.2139 N   0  0  0  0  0  0  0  0  0  0  0  0
   -4.8104    8.0235  -15.7725 C   0  0  0  0  0  0  0  0  0  0  0  0
   -4.7575    9.0494  -14.9533 N   0  0  0  0  0  0  0  0  0  0  0  0
   -5.5072    8.6225  -13.9064 C   0  0  0  0  0  0  0  0  0  0  0  0
   -6.0627    7.4231  -14.0558 N   0  0  0  0  0  0  0  0  0  0  0  0
  1  2  2  0
  2  3  1  0
  3  4  1  0
  4  5  2  0
  5  6  1  0
  6  7  2  0
  7  8  1  0
  8  9  2  0
  8 10  1  0
 10 11  1  0
 11 12  1  0
  2 13  1  0
 13 14  2  0
 14 15  1  0
 15 16  1  0
 15 17  2  0
 17 18  1  0
 18 19  1  0
 19 20  2  0
 21 20  1  6
 21 22  1  0
 22 23  1  0
 23 24  1  0
 24 25  1  0
 20 26  1  0
 26 27  2  0
 27 28  1  0
 28 29  1  0
 29 30  2  0
 30 31  1  0
 31 32  2  0
  9  4  1  0
 27 13  1  0
 32 28  1  0
 12  7  1  0
 26 17  1  0
 25 21  1  0
M  END
>  <smiles>  (796) 
C103061-P144

>  <fragmenstein_outcome>  (796) 
acceptable

>  <inchikey>  (796) 
IOQQZTJQSCLMRK-UHFFFAOYSA-N

>  <fragmenstein_mode>  (796) 
expansion

>  <HIPPO Pose ID>  (796) 
18392

>  <Energy>  (796) 
106.616587

>  <fragmenstein_error>  (796) 


>  <tags>  (796) 
{'openbind_xx01zvns2b_c1_fragmenstein', 'fragmenstein_placed'}

>  <ref_pdb>  (796) 
1

>  <scratch_subdir>  (796) 
/opt/xchem-fragalysis-2/maxwin/BulkDock/SCRATCH/511027/C103061-P144

>  <alias>  (796) 
O=C(Nc1ccc2c(c1)CNC2)c1cc(Cl)c2[nH]cc([C@@H]3CCNC3)c2c1-n1cncn1

>  <HIPPO Compound ID>  (796) 
77764

>  <fragmenstein_runtime>  (796) 
3.855526

$$$$
Nc1nc2c(-n3cncn3)c(C(=O)Nc3ccc4c(c3)CNC4)cc(Cl)c2s1
     RDKit          3D

 28 32  0  0  0  0  0  0  0  0999 V2000
   -4.3621    5.2809  -20.3738 N   0  0  0  0  0  0  0  0  0  0  0  0
   -5.2140    4.9680  -19.3776 C   0  0  0  0  0  0  0  0  0  0  0  0
   -4.9441    5.2640  -18.1362 N   0  0  0  0  0  0  0  0  0  0  0  0
   -6.0028    4.9384  -17.3022 C   0  0  0  0  0  0  0  0  0  0  0  0
   -6.0648    5.1240  -15.8990 C   0  0  0  0  0  0  0  0  0  0  0  0
   -4.9195    5.5511  -15.1823 N   0  0  0  0  0  0  0  0  0  0  0  0
   -3.7576    6.1313  -15.6389 C   0  0  0  0  0  0  0  0  0  0  0  0
   -2.8956    6.2904  -14.6593 N   0  0  0  0  0  0  0  0  0  0  0  0
   -3.5686    5.7844  -13.5924 C   0  0  0  0  0  0  0  0  0  0  0  0
   -4.7793    5.2995  -13.8584 N   0  0  0  0  0  0  0  0  0  0  0  0
   -7.2766    4.8304  -15.2385 C   0  0  0  0  0  0  0  0  0  0  0  0
   -7.5506    5.3104  -13.8622 C   0  0  0  0  0  0  0  0  0  0  0  0
   -7.5929    6.4633  -13.6807 O   0  0  0  0  0  0  0  0  0  0  0  0
   -7.8102    4.1343  -12.8954 N   0  0  0  0  0  0  0  0  0  0  0  0
   -8.0739    4.1286  -11.5277 C   0  0  0  0  0  0  0  0  0  0  0  0
   -7.9975    5.3042  -10.7634 C   0  0  0  0  0  0  0  0  0  0  0  0
   -8.2338    5.2792   -9.3838 C   0  0  0  0  0  0  0  0  0  0  0  0
   -8.5717    4.0721   -8.8006 C   0  0  0  0  0  0  0  0  0  0  0  0
   -8.6616    2.9086   -9.5586 C   0  0  0  0  0  0  0  0  0  0  0  0
   -8.4002    2.9136  -10.9184 C   0  0  0  0  0  0  0  0  0  0  0  0
   -9.0419    1.7736   -8.6658 C   0  0  0  0  0  0  0  0  0  0  0  0
   -9.5238    2.4127   -7.4129 N   0  0  0  0  0  0  0  0  0  0  0  0
   -8.8763    3.7435   -7.3772 C   0  0  0  0  0  0  0  0  0  0  0  0
   -8.3685    4.3032  -15.9296 C   0  0  0  0  0  0  0  0  0  0  0  0
   -8.2827    4.0606  -17.2971 C   0  0  0  0  0  0  0  0  0  0  0  0
   -9.6481    3.4564  -18.1372 Cl  0  0  0  0  0  0  0  0  0  0  0  0
   -7.0967    4.3773  -17.9699 C   0  0  0  0  0  0  0  0  0  0  0  0
   -6.6887    4.1672  -19.6329 S   0  0  0  0  0  0  0  0  0  0  0  0
  1  2  1  0
  2  3  2  0
  3  4  1  0
  4  5  2  0
  5  6  1  0
  6  7  1  0
  7  8  2  0
  8  9  1  0
  9 10  2  0
  5 11  1  0
 11 12  1  0
 12 13  2  0
 12 14  1  0
 14 15  1  0
 15 16  2  0
 16 17  1  0
 17 18  2  0
 18 19  1  0
 19 20  2  0
 19 21  1  0
 21 22  1  0
 22 23  1  0
 11 24  2  0
 24 25  1  0
 25 26  1  0
 25 27  2  0
 27 28  1  0
 28  2  1  0
 27  4  1  0
 10  6  1  0
 20 15  1  0
 23 18  1  0
M  END
>  <smiles>  (797) 
C103068-P144

>  <fragmenstein_outcome>  (797) 
acceptable

>  <inchikey>  (797) 
RIIUGQAOPGSFJS-UHFFFAOYSA-O

>  <fragmenstein_mode>  (797) 
expansion

>  <HIPPO Pose ID>  (797) 
18396

>  <Energy>  (797) 
2.871895

>  <fragmenstein_error>  (797) 


>  <tags>  (797) 
{'openbind_xx01zvns2b_c1_fragmenstein', 'fragmenstein_placed'}

>  <ref_pdb>  (797) 
1

>  <scratch_subdir>  (797) 
/opt/xchem-fragalysis-2/maxwin/BulkDock/SCRATCH/511027/C103068-P144

>  <alias>  (797) 
Nc1nc2c(-n3cncn3)c(C(=O)Nc3ccc4c(c3)CNC4)cc(Cl)c2s1

>  <HIPPO Compound ID>  (797) 
91675

>  <fragmenstein_runtime>  (797) 
3.220931

$$$$
O=C(Nc1ccc2c(c1)CNC2)c1cccc2nc(C(F)(F)F)[nH]c12
     RDKit          3D

 25 28  0  0  0  0  0  0  0  0999 V2000
   -6.9307    6.1224  -13.7877 O   0  0  0  0  0  0  0  0  0  0  0  0
   -7.4165    5.0838  -14.0142 C   0  0  0  0  0  0  0  0  0  0  0  0
   -7.9845    4.0125  -13.0549 N   0  0  0  0  0  0  0  0  0  0  0  0
   -8.1547    4.0346  -11.6696 C   0  0  0  0  0  0  0  0  0  0  0  0
   -7.8840    5.1920  -10.9194 C   0  0  0  0  0  0  0  0  0  0  0  0
   -8.0671    5.2100   -9.5309 C   0  0  0  0  0  0  0  0  0  0  0  0
   -8.5007    4.0519   -8.9144 C   0  0  0  0  0  0  0  0  0  0  0  0
   -8.7361    2.8946   -9.6497 C   0  0  0  0  0  0  0  0  0  0  0  0
   -8.5853    2.8715  -11.0270 C   0  0  0  0  0  0  0  0  0  0  0  0
   -9.1049    1.7936   -8.7108 C   0  0  0  0  0  0  0  0  0  0  0  0
   -9.4868    2.4772   -7.4483 N   0  0  0  0  0  0  0  0  0  0  0  0
   -8.7719    3.7740   -7.4731 C   0  0  0  0  0  0  0  0  0  0  0  0
   -7.4902    4.6672  -15.4349 C   0  0  0  0  0  0  0  0  0  0  0  0
   -8.6621    4.2118  -16.0462 C   0  0  0  0  0  0  0  0  0  0  0  0
   -8.7106    3.9794  -17.4249 C   0  0  0  0  0  0  0  0  0  0  0  0
   -7.5785    4.1712  -18.2290 C   0  0  0  0  0  0  0  0  0  0  0  0
   -6.3825    4.5720  -17.6201 C   0  0  0  0  0  0  0  0  0  0  0  0
   -5.1364    4.7660  -18.1648 N   0  0  0  0  0  0  0  0  0  0  0  0
   -4.3537    5.0891  -17.1476 C   0  0  0  0  0  0  0  0  0  0  0  0
   -2.8891    5.3039  -17.1187 C   0  0  0  0  0  0  0  0  0  0  0  0
   -2.5579    6.6008  -17.3538 F   0  0  0  0  0  0  0  0  0  0  0  0
   -2.2167    4.5544  -18.0316 F   0  0  0  0  0  0  0  0  0  0  0  0
   -2.3617    4.9933  -15.9018 F   0  0  0  0  0  0  0  0  0  0  0  0
   -5.0842    5.2064  -15.9904 N   0  0  0  0  0  0  0  0  0  0  0  0
   -6.3702    4.8214  -16.2555 C   0  0  0  0  0  0  0  0  0  0  0  0
  1  2  2  0
  2  3  1  0
  3  4  1  0
  4  5  2  0
  5  6  1  0
  6  7  2  0
  7  8  1  0
  8  9  2  0
  8 10  1  0
 10 11  1  0
 11 12  1  0
  2 13  1  0
 13 14  2  0
 14 15  1  0
 15 16  2  0
 16 17  1  0
 17 18  1  0
 18 19  2  0
 19 20  1  0
 20 21  1  0
 20 22  1  0
 20 23  1  0
 19 24  1  0
 24 25  1  0
  9  4  1  0
 25 13  1  0
 12  7  1  0
 25 17  2  0
M  END
>  <smiles>  (798) 
C136-P144

>  <fragmenstein_outcome>  (798) 
acceptable

>  <inchikey>  (798) 
FBGCZXGMNHRGRL-UHFFFAOYSA-N

>  <fragmenstein_mode>  (798) 
expansion

>  <HIPPO Pose ID>  (798) 
18398

>  <Energy>  (798) 
75.839758

>  <fragmenstein_error>  (798) 


>  <tags>  (798) 
{'openbind_xx01zvns2b_c1_fragmenstein', 'fragmenstein_placed'}

>  <ref_pdb>  (798) 
1

>  <scratch_subdir>  (798) 
/opt/xchem-fragalysis-2/maxwin/BulkDock/SCRATCH/511027/C136-P144

>  <alias>  (798) 
O=C(Nc1ccc2c(c1)CNC2)c1cccc2nc(C(F)(F)F)[nH]c12

>  <HIPPO Compound ID>  (798) 
99470

>  <fragmenstein_runtime>  (798) 
3.989781

$$$$
CN1Nn2c(nc3c(C(=O)Nc4ccc5c(c4)CNC5)cccc32)C1(F)F
     RDKit          3D

 27 31  0  0  0  0  0  0  0  0999 V2000
   -2.1517    5.3175  -19.4369 C   0  0  0  0  0  0  0  0  0  0  0  0
   -3.3210    6.0625  -18.9804 N   0  0  0  0  0  0  0  0  0  0  0  0
   -4.5892    5.2387  -19.2517 N   0  0  0  0  0  0  0  0  0  0  0  0
   -5.2344    5.2178  -17.9875 N   0  0  0  0  0  0  0  0  0  0  0  0
   -4.5520    5.7862  -16.9769 C   0  0  0  0  0  0  0  0  0  0  0  0
   -5.2218    5.7500  -15.8470 N   0  0  0  0  0  0  0  0  0  0  0  0
   -6.4198    5.1280  -16.1857 C   0  0  0  0  0  0  0  0  0  0  0  0
   -7.5561    4.8314  -15.4107 C   0  0  0  0  0  0  0  0  0  0  0  0
   -7.6512    5.3203  -14.0167 C   0  0  0  0  0  0  0  0  0  0  0  0
   -7.5180    6.4644  -13.8210 O   0  0  0  0  0  0  0  0  0  0  0  0
   -7.9959    4.1685  -13.0402 N   0  0  0  0  0  0  0  0  0  0  0  0
   -8.1490    4.1715  -11.6536 C   0  0  0  0  0  0  0  0  0  0  0  0
   -7.9665    5.3442  -10.9039 C   0  0  0  0  0  0  0  0  0  0  0  0
   -8.1155    5.3372   -9.5123 C   0  0  0  0  0  0  0  0  0  0  0  0
   -8.4472    4.1461   -8.8923 C   0  0  0  0  0  0  0  0  0  0  0  0
   -8.6329    2.9852   -9.6294 C   0  0  0  0  0  0  0  0  0  0  0  0
   -8.4863    2.9771  -11.0094 C   0  0  0  0  0  0  0  0  0  0  0  0
   -8.9897    1.8648   -8.7138 C   0  0  0  0  0  0  0  0  0  0  0  0
   -9.0117    2.4296   -7.3383 N   0  0  0  0  0  0  0  0  0  0  0  0
   -8.6688    3.8640   -7.4476 C   0  0  0  0  0  0  0  0  0  0  0  0
   -8.6461    4.1848  -16.0157 C   0  0  0  0  0  0  0  0  0  0  0  0
   -8.6300    3.8668  -17.3757 C   0  0  0  0  0  0  0  0  0  0  0  0
   -7.5246    4.1658  -18.1755 C   0  0  0  0  0  0  0  0  0  0  0  0
   -6.4393    4.7811  -17.5477 C   0  0  0  0  0  0  0  0  0  0  0  0
   -3.2590    6.2761  -17.4869 C   0  0  0  0  0  0  0  0  0  0  0  0
   -2.2124    5.6074  -16.9374 F   0  0  0  0  0  0  0  0  0  0  0  0
   -3.0623    7.5972  -17.2528 F   0  0  0  0  0  0  0  0  0  0  0  0
  1  2  1  0
  2  3  1  0
  3  4  1  0
  4  5  1  0
  5  6  2  0
  6  7  1  0
  7  8  2  0
  8  9  1  0
  9 10  2  0
  9 11  1  0
 11 12  1  0
 12 13  2  0
 13 14  1  0
 14 15  2  0
 15 16  1  0
 16 17  2  0
 16 18  1  0
 18 19  1  0
 19 20  1  0
  8 21  1  0
 21 22  2  0
 22 23  1  0
 23 24  2  0
  5 25  1  0
 25 26  1  0
 25 27  1  0
 25  2  1  0
 24  4  1  0
 24  7  1  0
 17 12  1  0
 20 15  1  0
M  END
>  <smiles>  (799) 
C103080-P144

>  <fragmenstein_outcome>  (799) 
acceptable

>  <inchikey>  (799) 
UEMQATHPJHJEPA-UHFFFAOYSA-N

>  <fragmenstein_mode>  (799) 
expansion

>  <HIPPO Pose ID>  (799) 
18403

>  <Energy>  (799) 
137.288238

>  <fragmenstein_error>  (799) 


>  <tags>  (799) 
{'openbind_xx01zvns2b_c1_fragmenstein', 'fragmenstein_placed'}

>  <ref_pdb>  (799) 
1

>  <scratch_subdir>  (799) 
/opt/xchem-fragalysis-2/maxwin/BulkDock/SCRATCH/511027/C103080-P144

>  <alias>  (799) 
CN1Nn2c(nc3c(C(=O)Nc4ccc5c(c4)CNC5)cccc32)C1(F)F

>  <HIPPO Compound ID>  (799) 
99671

>  <fragmenstein_runtime>  (799) 
2.993585

$$$$
C[C@]1(CO)Nn2c(nc3c(C(=O)Nc4ccc5c(c4)CNC5)cc(Cl)cc32)C(F)(F)O1
     RDKit          3D

 31 35  0  0  0  0  0  0  0  0999 V2000
   -4.6732    7.6517  -21.0287 C   0  0  0  0  0  0  0  0  0  0  0  0
   -3.9609    6.6784  -20.0772 C   0  0  2  0  0  0  0  0  0  0  0  0
   -2.7190    6.0654  -20.8038 C   0  0  0  0  0  0  0  0  0  0  0  0
   -2.5355    4.6744  -20.4481 O   0  0  0  0  0  0  0  0  0  0  0  0
   -4.9410    5.6584  -19.6806 N   0  0  0  0  0  0  0  0  0  0  0  0
   -5.2035    5.6451  -18.2947 N   0  0  0  0  0  0  0  0  0  0  0  0
   -4.3938    6.1498  -17.3345 C   0  0  0  0  0  0  0  0  0  0  0  0
   -4.9058    5.9688  -16.1271 N   0  0  0  0  0  0  0  0  0  0  0  0
   -6.1386    5.3719  -16.3330 C   0  0  0  0  0  0  0  0  0  0  0  0
   -7.1796    5.0028  -15.4477 C   0  0  0  0  0  0  0  0  0  0  0  0
   -7.1386    5.3877  -14.0119 C   0  0  0  0  0  0  0  0  0  0  0  0
   -6.8288    6.4828  -13.7449 O   0  0  0  0  0  0  0  0  0  0  0  0
   -7.6159    4.2259  -13.0983 N   0  0  0  0  0  0  0  0  0  0  0  0
   -7.8914    4.2032  -11.7273 C   0  0  0  0  0  0  0  0  0  0  0  0
   -7.7740    5.3610  -10.9407 C   0  0  0  0  0  0  0  0  0  0  0  0
   -8.0497    5.3326   -9.5670 C   0  0  0  0  0  0  0  0  0  0  0  0
   -8.4495    4.1360   -9.0025 C   0  0  0  0  0  0  0  0  0  0  0  0
   -8.5740    2.9865   -9.7758 C   0  0  0  0  0  0  0  0  0  0  0  0
   -8.2992    3.0002  -11.1367 C   0  0  0  0  0  0  0  0  0  0  0  0
   -8.9910    1.8545   -8.8927 C   0  0  0  0  0  0  0  0  0  0  0  0
   -9.4544    2.4914   -7.6320 N   0  0  0  0  0  0  0  0  0  0  0  0
   -8.7791    3.8070   -7.5845 C   0  0  0  0  0  0  0  0  0  0  0  0
   -8.3513    4.4246  -15.9746 C   0  0  0  0  0  0  0  0  0  0  0  0
   -8.4816    4.2299  -17.3484 C   0  0  0  0  0  0  0  0  0  0  0  0
   -9.9367    3.6265  -18.0174 Cl  0  0  0  0  0  0  0  0  0  0  0  0
   -7.4728    4.5744  -18.2391 C   0  0  0  0  0  0  0  0  0  0  0  0
   -6.3244    5.1458  -17.6990 C   0  0  0  0  0  0  0  0  0  0  0  0
   -3.1852    6.8232  -17.8232 C   0  0  0  0  0  0  0  0  0  0  0  0
   -2.1627    5.9689  -18.0876 F   0  0  0  0  0  0  0  0  0  0  0  0
   -2.7017    7.7460  -16.9544 F   0  0  0  0  0  0  0  0  0  0  0  0
   -3.5133    7.5198  -19.0134 O   0  0  0  0  0  0  0  0  0  0  0  0
  2  1  1  6
  2  3  1  0
  3  4  1  0
  2  5  1  0
  5  6  1  0
  6  7  1  0
  7  8  2  0
  8  9  1  0
  9 10  2  0
 10 11  1  0
 11 12  2  0
 11 13  1  0
 13 14  1  0
 14 15  2  0
 15 16  1  0
 16 17  2  0
 17 18  1  0
 18 19  2  0
 18 20  1  0
 20 21  1  0
 21 22  1  0
 10 23  1  0
 23 24  2  0
 24 25  1  0
 24 26  1  0
 26 27  2  0
  7 28  1  0
 28 29  1  0
 28 30  1  0
 28 31  1  0
 31  2  1  0
 27  6  1  0
 27  9  1  0
 19 14  1  0
 22 17  1  0
M  END
>  <smiles>  (800) 
C103081-P144

>  <fragmenstein_outcome>  (800) 
acceptable

>  <inchikey>  (800) 
MHLVESPORXISMR-UHFFFAOYSA-N

>  <fragmenstein_mode>  (800) 
expansion

>  <HIPPO Pose ID>  (800) 
18404

>  <Energy>  (800) 
27.893953

>  <fragmenstein_error>  (800) 


>  <tags>  (800) 
{'openbind_xx01zvns2b_c1_fragmenstein', 'fragmenstein_placed'}

>  <ref_pdb>  (800) 
1

>  <scratch_subdir>  (800) 
/opt/xchem-fragalysis-2/maxwin/BulkDock/SCRATCH/511027/C103081-P144

>  <alias>  (800) 
C[C@]1(CO)Nn2c(nc3c(C(=O)Nc4ccc5c(c4)CNC5)cc(Cl)cc32)C(F)(F)O1

>  <HIPPO Compound ID>  (800) 
103081

>  <fragmenstein_runtime>  (800) 
4.13646

$$$$
O=C(Nc1ccc2c(c1)CNC2)c1cccc2c1N[C@@H](C(F)(F)F)[C@]21CCCN1
     RDKit          3D

 29 33  0  0  0  0  0  0  0  0999 V2000
   -7.4955    6.7416  -13.6735 O   0  0  0  0  0  0  0  0  0  0  0  0
   -7.5804    5.6038  -13.9192 C   0  0  0  0  0  0  0  0  0  0  0  0
   -7.8067    4.3927  -12.9877 N   0  0  0  0  0  0  0  0  0  0  0  0
   -8.0614    4.3389  -11.6203 C   0  0  0  0  0  0  0  0  0  0  0  0
   -8.0544    5.5106  -10.8421 C   0  0  0  0  0  0  0  0  0  0  0  0
   -8.2750    5.4585   -9.4625 C   0  0  0  0  0  0  0  0  0  0  0  0
   -8.5310    4.2264   -8.8925 C   0  0  0  0  0  0  0  0  0  0  0  0
   -8.5621    3.0687   -9.6658 C   0  0  0  0  0  0  0  0  0  0  0  0
   -8.3107    3.1002  -11.0273 C   0  0  0  0  0  0  0  0  0  0  0  0
   -8.8931    1.9050   -8.7901 C   0  0  0  0  0  0  0  0  0  0  0  0
   -9.3683    2.5005   -7.5145 N   0  0  0  0  0  0  0  0  0  0  0  0
   -8.7974    3.8625   -7.4701 C   0  0  0  0  0  0  0  0  0  0  0  0
   -7.4014    5.1668  -15.3298 C   0  0  0  0  0  0  0  0  0  0  0  0
   -8.3695    4.3647  -15.9533 C   0  0  0  0  0  0  0  0  0  0  0  0
   -8.2847    4.0902  -17.3267 C   0  0  0  0  0  0  0  0  0  0  0  0
   -7.2361    4.6099  -18.0893 C   0  0  0  0  0  0  0  0  0  0  0  0
   -6.2671    5.3847  -17.4582 C   0  0  0  0  0  0  0  0  0  0  0  0
   -6.3345    5.6519  -16.0853 C   0  0  0  0  0  0  0  0  0  0  0  0
   -5.3420    6.5784  -15.6694 N   0  0  0  0  0  0  0  0  0  0  0  0
   -4.3212    6.5414  -16.7638 C   0  0  1  0  0  0  0  0  0  0  0  0
   -3.1242    5.6302  -16.4442 C   0  0  0  0  0  0  0  0  0  0  0  0
   -2.1172    5.7730  -17.3351 F   0  0  0  0  0  0  0  0  0  0  0  0
   -3.4438    4.3222  -16.3786 F   0  0  0  0  0  0  0  0  0  0  0  0
   -2.6057    5.9639  -15.2302 F   0  0  0  0  0  0  0  0  0  0  0  0
   -5.1164    6.1543  -18.0609 C   0  0  2  0  0  0  0  0  0  0  0  0
   -5.6468    7.4314  -18.7495 C   0  0  0  0  0  0  0  0  0  0  0  0
   -4.7287    7.5958  -19.9383 C   0  0  0  0  0  0  0  0  0  0  0  0
   -4.5188    6.1588  -20.3491 C   0  0  0  0  0  0  0  0  0  0  0  0
   -4.3592    5.4236  -19.0915 N   0  0  0  0  0  0  0  0  0  0  0  0
  1  2  2  0
  2  3  1  0
  3  4  1  0
  4  5  2  0
  5  6  1  0
  6  7  2  0
  7  8  1  0
  8  9  2  0
  8 10  1  0
 10 11  1  0
 11 12  1  0
  2 13  1  0
 13 14  2  0
 14 15  1  0
 15 16  2  0
 16 17  1  0
 17 18  2  0
 18 19  1  0
 19 20  1  0
 20 21  1  1
 21 22  1  0
 21 23  1  0
 21 24  1  0
 20 25  1  0
 25 26  1  6
 26 27  1  0
 27 28  1  0
 28 29  1  0
  9  4  1  0
 18 13  1  0
 29 25  1  0
 12  7  1  0
 25 17  1  0
M  END
>  <smiles>  (801) 
C103084-P144

>  <fragmenstein_outcome>  (801) 
acceptable

>  <inchikey>  (801) 
RWQONATYJUETFD-UHFFFAOYSA-N

>  <fragmenstein_mode>  (801) 
expansion

>  <HIPPO Pose ID>  (801) 
18406

>  <Energy>  (801) 
169.859154

>  <fragmenstein_error>  (801) 


>  <tags>  (801) 
{'openbind_xx01zvns2b_c1_fragmenstein', 'fragmenstein_placed'}

>  <ref_pdb>  (801) 
1

>  <scratch_subdir>  (801) 
/opt/xchem-fragalysis-2/maxwin/BulkDock/SCRATCH/511027/C103084-P144

>  <alias>  (801) 
O=C(Nc1ccc2c(c1)CNC2)c1cccc2c1N[C@@H](C(F)(F)F)[C@]21CCCN1

>  <HIPPO Compound ID>  (801) 
103543

>  <fragmenstein_runtime>  (801) 
3.687806

$$$$
Cc1ccc(C(=O)Nc2ccc3c(c2)CNC3)c2[nH]c(C(F)(F)F)nc12
     RDKit          3D

 26 29  0  0  0  0  0  0  0  0999 V2000
   -7.0643    4.1144  -19.2260 C   0  0  0  0  0  0  0  0  0  0  0  0
   -7.1776    4.3573  -17.7511 C   0  0  0  0  0  0  0  0  0  0  0  0
   -8.3823    4.0223  -17.0913 C   0  0  0  0  0  0  0  0  0  0  0  0
   -8.5678    4.2657  -15.7274 C   0  0  0  0  0  0  0  0  0  0  0  0
   -7.5612    4.8678  -14.9757 C   0  0  0  0  0  0  0  0  0  0  0  0
   -7.7053    5.3009  -13.5710 C   0  0  0  0  0  0  0  0  0  0  0  0
   -7.3293    6.3727  -13.3011 O   0  0  0  0  0  0  0  0  0  0  0  0
   -8.2562    4.1796  -12.6704 N   0  0  0  0  0  0  0  0  0  0  0  0
   -8.3691    4.1058  -11.2857 C   0  0  0  0  0  0  0  0  0  0  0  0
   -8.1341    5.2415  -10.4912 C   0  0  0  0  0  0  0  0  0  0  0  0
   -8.2475    5.1795   -9.1009 C   0  0  0  0  0  0  0  0  0  0  0  0
   -8.5925    3.9694   -8.5305 C   0  0  0  0  0  0  0  0  0  0  0  0
   -8.8078    2.8416   -9.3135 C   0  0  0  0  0  0  0  0  0  0  0  0
   -8.7049    2.8888  -10.6943 C   0  0  0  0  0  0  0  0  0  0  0  0
   -9.1087    1.6793   -8.4317 C   0  0  0  0  0  0  0  0  0  0  0  0
   -9.2875    2.2324   -7.0650 N   0  0  0  0  0  0  0  0  0  0  0  0
   -8.7964    3.6259   -7.0955 C   0  0  0  0  0  0  0  0  0  0  0  0
   -6.3608    5.1474  -15.6244 C   0  0  0  0  0  0  0  0  0  0  0  0
   -5.2013    5.7110  -15.1621 N   0  0  0  0  0  0  0  0  0  0  0  0
   -4.3041    5.7493  -16.1951 C   0  0  0  0  0  0  0  0  0  0  0  0
   -2.9286    6.2834  -15.9900 C   0  0  0  0  0  0  0  0  0  0  0  0
   -1.9738    5.4980  -16.5523 F   0  0  0  0  0  0  0  0  0  0  0  0
   -2.7775    7.5303  -16.5049 F   0  0  0  0  0  0  0  0  0  0  0  0
   -2.6221    6.3738  -14.6661 F   0  0  0  0  0  0  0  0  0  0  0  0
   -4.8564    5.2774  -17.3039 N   0  0  0  0  0  0  0  0  0  0  0  0
   -6.1377    4.8988  -16.9678 C   0  0  0  0  0  0  0  0  0  0  0  0
  1  2  1  0
  2  3  2  0
  3  4  1  0
  4  5  2  0
  5  6  1  0
  6  7  2  0
  6  8  1  0
  8  9  1  0
  9 10  2  0
 10 11  1  0
 11 12  2  0
 12 13  1  0
 13 14  2  0
 13 15  1  0
 15 16  1  0
 16 17  1  0
  5 18  1  0
 18 19  1  0
 19 20  1  0
 20 21  1  0
 21 22  1  0
 21 23  1  0
 21 24  1  0
 20 25  2  0
 25 26  1  0
 26  2  1  0
 14  9  1  0
 26 18  2  0
 17 12  1  0
M  END
>  <smiles>  (802) 
C103087-P144

>  <fragmenstein_outcome>  (802) 
acceptable

>  <inchikey>  (802) 
NLWADWHZZLLVLP-UHFFFAOYSA-N

>  <fragmenstein_mode>  (802) 
expansion

>  <HIPPO Pose ID>  (802) 
18408

>  <Energy>  (802) 
78.384798

>  <fragmenstein_error>  (802) 


>  <tags>  (802) 
{'openbind_xx01zvns2b_c1_fragmenstein', 'fragmenstein_placed'}

>  <ref_pdb>  (802) 
1

>  <scratch_subdir>  (802) 
/opt/xchem-fragalysis-2/maxwin/BulkDock/SCRATCH/511027/C103087-P144

>  <alias>  (802) 
Cc1ccc(C(=O)Nc2ccc3c(c2)CNC3)c2[nH]c(C(F)(F)F)nc12

>  <HIPPO Compound ID>  (802) 
104506

>  <fragmenstein_runtime>  (802) 
3.188416

$$$$
O=C(Nc1ccc2c(c1)CNC2)c1cc(Br)cc2nc(C(F)(F)F)[nH]c12
     RDKit          3D

 26 29  0  0  0  0  0  0  0  0999 V2000
   -6.8915    6.3090  -13.4373 O   0  0  0  0  0  0  0  0  0  0  0  0
   -7.3533    5.2754  -13.7242 C   0  0  0  0  0  0  0  0  0  0  0  0
   -7.9532    4.1668  -12.8352 N   0  0  0  0  0  0  0  0  0  0  0  0
   -8.1899    4.1363  -11.4624 C   0  0  0  0  0  0  0  0  0  0  0  0
   -7.9812    5.2821  -10.6756 C   0  0  0  0  0  0  0  0  0  0  0  0
   -8.1565    5.2442   -9.2894 C   0  0  0  0  0  0  0  0  0  0  0  0
   -8.5272    4.0451   -8.7112 C   0  0  0  0  0  0  0  0  0  0  0  0
   -8.7329    2.9102   -9.4852 C   0  0  0  0  0  0  0  0  0  0  0  0
   -8.5825    2.9378  -10.8643 C   0  0  0  0  0  0  0  0  0  0  0  0
   -9.0675    1.7608   -8.5968 C   0  0  0  0  0  0  0  0  0  0  0  0
   -9.2161    2.3179   -7.2275 N   0  0  0  0  0  0  0  0  0  0  0  0
   -8.7536    3.7206   -7.2752 C   0  0  0  0  0  0  0  0  0  0  0  0
   -7.2847    4.8862  -15.1485 C   0  0  0  0  0  0  0  0  0  0  0  0
   -8.3713    4.4399  -15.8978 C   0  0  0  0  0  0  0  0  0  0  0  0
   -8.2267    4.2415  -17.2750 C   0  0  0  0  0  0  0  0  0  0  0  0
   -9.7312    3.7458  -18.2920 Br  0  0  0  0  0  0  0  0  0  0  0  0
   -7.0102    4.4411  -17.9411 C   0  0  0  0  0  0  0  0  0  0  0  0
   -5.9090    4.8409  -17.1793 C   0  0  0  0  0  0  0  0  0  0  0  0
   -4.6075    5.0764  -17.5511 N   0  0  0  0  0  0  0  0  0  0  0  0
   -3.9702    5.4136  -16.4379 C   0  0  0  0  0  0  0  0  0  0  0  0
   -2.5300    5.7112  -16.2174 C   0  0  0  0  0  0  0  0  0  0  0  0
   -1.7214    5.1702  -17.1660 F   0  0  0  0  0  0  0  0  0  0  0  0
   -2.2828    7.0459  -16.1955 F   0  0  0  0  0  0  0  0  0  0  0  0
   -2.1015    5.2217  -15.0213 F   0  0  0  0  0  0  0  0  0  0  0  0
   -4.8436    5.4677  -15.3826 N   0  0  0  0  0  0  0  0  0  0  0  0
   -6.0743    5.0616  -15.8222 C   0  0  0  0  0  0  0  0  0  0  0  0
  1  2  2  0
  2  3  1  0
  3  4  1  0
  4  5  2  0
  5  6  1  0
  6  7  2  0
  7  8  1  0
  8  9  2  0
  8 10  1  0
 10 11  1  0
 11 12  1  0
  2 13  1  0
 13 14  2  0
 14 15  1  0
 15 16  1  0
 15 17  2  0
 17 18  1  0
 18 19  1  0
 19 20  2  0
 20 21  1  0
 21 22  1  0
 21 23  1  0
 21 24  1  0
 20 25  1  0
 25 26  1  0
  9  4  1  0
 26 13  1  0
 12  7  1  0
 26 18  2  0
M  END
>  <smiles>  (803) 
C103093-P144

>  <fragmenstein_outcome>  (803) 
acceptable

>  <inchikey>  (803) 
ZEPQGXBPRXMJBX-UHFFFAOYSA-N

>  <fragmenstein_mode>  (803) 
expansion

>  <HIPPO Pose ID>  (803) 
18411

>  <Energy>  (803) 
63.391799

>  <fragmenstein_error>  (803) 


>  <tags>  (803) 
{'openbind_xx01zvns2b_c1_fragmenstein', 'fragmenstein_placed'}

>  <ref_pdb>  (803) 
1

>  <scratch_subdir>  (803) 
/opt/xchem-fragalysis-2/maxwin/BulkDock/SCRATCH/511027/C103093-P144

>  <alias>  (803) 
O=C(Nc1ccc2c(c1)CNC2)c1cc(Br)cc2nc(C(F)(F)F)[nH]c12

>  <HIPPO Compound ID>  (803) 
103093

>  <fragmenstein_runtime>  (803) 
2.705964

$$$$
C=Cc1c(C)cc(C(=O)Nc2ccc3c(c2)CNC3)c2nc(C(F)(F)F)[nH]c12
     RDKit          3D

 28 31  0  0  0  0  0  0  0  0999 V2000
   -6.9620    3.3411  -20.0054 C   0  0  0  0  0  0  0  0  0  0  0  0
   -6.7056    4.4061  -19.2497 C   0  0  0  0  0  0  0  0  0  0  0  0
   -7.0913    4.5156  -17.8520 C   0  0  0  0  0  0  0  0  0  0  0  0
   -8.3653    4.2947  -17.2905 C   0  0  0  0  0  0  0  0  0  0  0  0
   -9.5433    3.8679  -18.1313 C   0  0  0  0  0  0  0  0  0  0  0  0
   -8.5577    4.4908  -15.9112 C   0  0  0  0  0  0  0  0  0  0  0  0
   -7.5215    4.9575  -15.0907 C   0  0  0  0  0  0  0  0  0  0  0  0
   -7.7693    5.3926  -13.7082 C   0  0  0  0  0  0  0  0  0  0  0  0
   -7.6971    6.5313  -13.4632 O   0  0  0  0  0  0  0  0  0  0  0  0
   -8.0686    4.1895  -12.7909 N   0  0  0  0  0  0  0  0  0  0  0  0
   -8.2423    4.1253  -11.4104 C   0  0  0  0  0  0  0  0  0  0  0  0
   -8.1287    5.2778  -10.6134 C   0  0  0  0  0  0  0  0  0  0  0  0
   -8.3082    5.2147   -9.2280 C   0  0  0  0  0  0  0  0  0  0  0  0
   -8.6302    3.9928   -8.6704 C   0  0  0  0  0  0  0  0  0  0  0  0
   -8.7396    2.8495   -9.4579 C   0  0  0  0  0  0  0  0  0  0  0  0
   -8.5310    2.8912  -10.8260 C   0  0  0  0  0  0  0  0  0  0  0  0
   -9.0913    1.6928   -8.5828 C   0  0  0  0  0  0  0  0  0  0  0  0
   -9.5709    2.3033   -7.3149 N   0  0  0  0  0  0  0  0  0  0  0  0
   -8.9186    3.6311   -7.2518 C   0  0  0  0  0  0  0  0  0  0  0  0
   -6.2409    5.1230  -15.6256 C   0  0  0  0  0  0  0  0  0  0  0  0
   -5.0502    5.4672  -15.0280 N   0  0  0  0  0  0  0  0  0  0  0  0
   -4.1399    5.4435  -15.9832 C   0  0  0  0  0  0  0  0  0  0  0  0
   -2.6726    5.6586  -15.8797 C   0  0  0  0  0  0  0  0  0  0  0  0
   -2.0376    5.1919  -16.9968 F   0  0  0  0  0  0  0  0  0  0  0  0
   -2.3416    6.9702  -15.7808 F   0  0  0  0  0  0  0  0  0  0  0  0
   -2.1085    5.0117  -14.8299 F   0  0  0  0  0  0  0  0  0  0  0  0
   -4.7282    5.1578  -17.1904 N   0  0  0  0  0  0  0  0  0  0  0  0
   -6.0613    4.9077  -16.9835 C   0  0  0  0  0  0  0  0  0  0  0  0
  1  2  2  0
  2  3  1  0
  3  4  2  0
  4  5  1  0
  4  6  1  0
  6  7  2  0
  7  8  1  0
  8  9  2  0
  8 10  1  0
 10 11  1  0
 11 12  2  0
 12 13  1  0
 13 14  2  0
 14 15  1  0
 15 16  2  0
 15 17  1  0
 17 18  1  0
 18 19  1  0
  7 20  1  0
 20 21  1  0
 21 22  2  0
 22 23  1  0
 23 24  1  0
 23 25  1  0
 23 26  1  0
 22 27  1  0
 27 28  1  0
 28  3  1  0
 16 11  1  0
 28 20  2  0
 19 14  1  0
M  END
>  <smiles>  (804) 
C103094-P144

>  <fragmenstein_outcome>  (804) 
acceptable

>  <inchikey>  (804) 
TXHRWGQQXBXDDB-UHFFFAOYSA-N

>  <fragmenstein_mode>  (804) 
expansion

>  <HIPPO Pose ID>  (804) 
18412

>  <Energy>  (804) 
104.712434

>  <fragmenstein_error>  (804) 


>  <tags>  (804) 
{'openbind_xx01zvns2b_c1_fragmenstein', 'fragmenstein_placed'}

>  <ref_pdb>  (804) 
1

>  <scratch_subdir>  (804) 
/opt/xchem-fragalysis-2/maxwin/BulkDock/SCRATCH/511027/C103094-P144

>  <alias>  (804) 
C=Cc1c(C)cc(C(=O)Nc2ccc3c(c2)CNC3)c2nc(C(F)(F)F)[nH]c12

>  <HIPPO Compound ID>  (804) 
98173

>  <fragmenstein_runtime>  (804) 
4.123027

$$$$
O=C(Nc1ccc2c(c1)CNC2)c1cc(O)cc2c1C[C@]1(C2)NCS[C@H]1NF
     RDKit          3D

 28 32  0  0  0  0  0  0  0  0999 V2000
   -7.6522    6.4260  -13.7034 O   0  0  0  0  0  0  0  0  0  0  0  0
   -7.7886    5.2862  -13.9154 C   0  0  0  0  0  0  0  0  0  0  0  0
   -8.1242    4.1248  -12.9589 N   0  0  0  0  0  0  0  0  0  0  0  0
   -8.2647    4.1055  -11.5717 C   0  0  0  0  0  0  0  0  0  0  0  0
   -8.0712    5.2735  -10.8136 C   0  0  0  0  0  0  0  0  0  0  0  0
   -8.1923    5.2561   -9.4206 C   0  0  0  0  0  0  0  0  0  0  0  0
   -8.5094    4.0589   -8.8073 C   0  0  0  0  0  0  0  0  0  0  0  0
   -8.6989    2.9023   -9.5517 C   0  0  0  0  0  0  0  0  0  0  0  0
   -8.5781    2.9041  -10.9341 C   0  0  0  0  0  0  0  0  0  0  0  0
   -9.0143    1.7691   -8.6363 C   0  0  0  0  0  0  0  0  0  0  0  0
   -9.1180    2.3461   -7.2704 N   0  0  0  0  0  0  0  0  0  0  0  0
   -8.7063    3.7628   -7.3614 C   0  0  0  0  0  0  0  0  0  0  0  0
   -7.5510    4.8191  -15.2985 C   0  0  0  0  0  0  0  0  0  0  0  0
   -8.5758    4.2865  -16.0784 C   0  0  0  0  0  0  0  0  0  0  0  0
   -8.3666    4.0895  -17.4477 C   0  0  0  0  0  0  0  0  0  0  0  0
   -9.4100    3.6001  -18.1794 O   0  0  0  0  0  0  0  0  0  0  0  0
   -7.1507    4.4013  -18.0575 C   0  0  0  0  0  0  0  0  0  0  0  0
   -6.1266    4.8836  -17.2566 C   0  0  0  0  0  0  0  0  0  0  0  0
   -6.3186    5.0741  -15.8879 C   0  0  0  0  0  0  0  0  0  0  0  0
   -5.0482    5.4997  -15.2214 C   0  0  0  0  0  0  0  0  0  0  0  0
   -4.1940    6.0216  -16.4222 C   0  0  2  0  0  0  0  0  0  0  0  0
   -4.7246    5.2297  -17.6557 C   0  0  0  0  0  0  0  0  0  0  0  0
   -2.7452    5.7571  -16.2107 N   0  0  0  0  0  0  0  0  0  0  0  0
   -2.2601    6.6859  -15.2005 C   0  0  0  0  0  0  0  0  0  0  0  0
   -3.1105    8.2583  -15.4191 S   0  0  0  0  0  0  0  0  0  0  0  0
   -4.3641    7.5720  -16.5568 C   0  0  1  0  0  0  0  0  0  0  0  0
   -4.0899    8.1453  -17.8705 N   0  0  0  0  0  0  0  0  0  0  0  0
   -5.2345    8.1869  -18.6413 F   0  0  0  0  0  0  0  0  0  0  0  0
  1  2  2  0
  2  3  1  0
  3  4  1  0
  4  5  2  0
  5  6  1  0
  6  7  2  0
  7  8  1  0
  8  9  2  0
  8 10  1  0
 10 11  1  0
 11 12  1  0
  2 13  1  0
 13 14  2  0
 14 15  1  0
 15 16  1  0
 15 17  2  0
 17 18  1  0
 18 19  2  0
 19 20  1  0
 21 20  1  1
 21 22  1  0
 21 23  1  0
 23 24  1  0
 24 25  1  0
 25 26  1  0
 26 27  1  6
 27 28  1  0
  9  4  1  0
 19 13  1  0
 26 21  1  0
 12  7  1  0
 22 18  1  0
M  END
>  <smiles>  (805) 
C103096-P144

>  <fragmenstein_outcome>  (805) 
acceptable

>  <inchikey>  (805) 
LAWYMZSPAKYRSO-UHFFFAOYSA-N

>  <fragmenstein_mode>  (805) 
expansion

>  <HIPPO Pose ID>  (805) 
18414

>  <Energy>  (805) 
66.993342

>  <fragmenstein_error>  (805) 


>  <tags>  (805) 
{'openbind_xx01zvns2b_c1_fragmenstein', 'fragmenstein_placed'}

>  <ref_pdb>  (805) 
1

>  <scratch_subdir>  (805) 
/opt/xchem-fragalysis-2/maxwin/BulkDock/SCRATCH/511027/C103096-P144

>  <alias>  (805) 
O=C(Nc1ccc2c(c1)CNC2)c1cc(O)cc2c1C[C@]1(C2)NCS[C@H]1NF

>  <HIPPO Compound ID>  (805) 
103096

>  <fragmenstein_runtime>  (805) 
3.611294

$$$$
CC(=O)N[C@@](O)(Nc1ccc2c(c1)CNC2)c1cccc2[nH]c(C(F)(F)F)nc12
     RDKit          3D

 29 32  0  0  0  0  0  0  0  0999 V2000
   -5.7690    7.9404  -12.1863 C   0  0  0  0  0  0  0  0  0  0  0  0
   -6.7270    7.1890  -13.0840 C   0  0  0  0  0  0  0  0  0  0  0  0
   -7.4727    7.7153  -13.8066 O   0  0  0  0  0  0  0  0  0  0  0  0
   -6.4525    5.6924  -12.8496 N   0  0  0  0  0  0  0  0  0  0  0  0
   -7.0917    4.5493  -13.3759 C   0  0  1  0  0  0  0  0  0  0  0  0
   -6.2553    3.4964  -12.9595 O   0  0  0  0  0  0  0  0  0  0  0  0
   -8.3860    4.3479  -12.7429 N   0  0  0  0  0  0  0  0  0  0  0  0
   -8.4271    4.2214  -11.3345 C   0  0  0  0  0  0  0  0  0  0  0  0
   -8.2918    5.3468  -10.4964 C   0  0  0  0  0  0  0  0  0  0  0  0
   -8.3822    5.2431   -9.1049 C   0  0  0  0  0  0  0  0  0  0  0  0
   -8.6562    4.0024   -8.5667 C   0  0  0  0  0  0  0  0  0  0  0  0
   -8.7825    2.8802   -9.3787 C   0  0  0  0  0  0  0  0  0  0  0  0
   -8.6479    2.9646  -10.7528 C   0  0  0  0  0  0  0  0  0  0  0  0
   -9.0883    1.6954   -8.5257 C   0  0  0  0  0  0  0  0  0  0  0  0
   -9.5521    2.2709   -7.2341 N   0  0  0  0  0  0  0  0  0  0  0  0
   -8.9065    3.6016   -7.1518 C   0  0  0  0  0  0  0  0  0  0  0  0
   -7.2019    4.5794  -14.8954 C   0  0  0  0  0  0  0  0  0  0  0  0
   -8.3989    4.3052  -15.6068 C   0  0  0  0  0  0  0  0  0  0  0  0
   -8.4767    4.3202  -17.0055 C   0  0  0  0  0  0  0  0  0  0  0  0
   -7.3651    4.6271  -17.7858 C   0  0  0  0  0  0  0  0  0  0  0  0
   -6.1913    4.9030  -17.0906 C   0  0  0  0  0  0  0  0  0  0  0  0
   -4.9411    5.2603  -17.5232 N   0  0  0  0  0  0  0  0  0  0  0  0
   -4.1283    5.4003  -16.4248 C   0  0  0  0  0  0  0  0  0  0  0  0
   -2.7022    5.7706  -16.5660 C   0  0  0  0  0  0  0  0  0  0  0  0
   -2.0732    4.9591  -17.4657 F   0  0  0  0  0  0  0  0  0  0  0  0
   -1.9920    5.6910  -15.4140 F   0  0  0  0  0  0  0  0  0  0  0  0
   -2.5532    7.0354  -17.0421 F   0  0  0  0  0  0  0  0  0  0  0  0
   -4.7984    5.1579  -15.3171 N   0  0  0  0  0  0  0  0  0  0  0  0
   -6.0861    4.8743  -15.7040 C   0  0  0  0  0  0  0  0  0  0  0  0
  1  2  1  0
  2  3  2  0
  2  4  1  0
  4  5  1  0
  5  6  1  6
  5  7  1  0
  7  8  1  0
  8  9  2  0
  9 10  1  0
 10 11  2  0
 11 12  1  0
 12 13  2  0
 12 14  1  0
 14 15  1  0
 15 16  1  0
  5 17  1  0
 17 18  2  0
 18 19  1  0
 19 20  2  0
 20 21  1  0
 21 22  1  0
 22 23  1  0
 23 24  1  0
 24 25  1  0
 24 26  1  0
 24 27  1  0
 23 28  2  0
 28 29  1  0
 13  8  1  0
 29 17  1  0
 16 11  1  0
 29 21  2  0
M  END
>  <smiles>  (806) 
C103100-P144

>  <fragmenstein_outcome>  (806) 
acceptable

>  <inchikey>  (806) 
XIJHOHYAAAKIIM-UHFFFAOYSA-N

>  <fragmenstein_mode>  (806) 
expansion

>  <HIPPO Pose ID>  (806) 
18416

>  <Energy>  (806) 
-59.505754

>  <fragmenstein_error>  (806) 


>  <tags>  (806) 
{'openbind_xx01zvns2b_c1_fragmenstein', 'fragmenstein_placed'}

>  <ref_pdb>  (806) 
1

>  <scratch_subdir>  (806) 
/opt/xchem-fragalysis-2/maxwin/BulkDock/SCRATCH/511027/C103100-P144

>  <alias>  (806) 
CC(=O)N[C@@](O)(Nc1ccc2c(c1)CNC2)c1cccc2[nH]c(C(F)(F)F)nc12

>  <HIPPO Compound ID>  (806) 
76325

>  <fragmenstein_runtime>  (806) 
4.097269

$$$$
NCc1ccc(N[C@H](N)C(F)(F)F)c(C(O)(O)Nc2ccc3c(c2)CNC3)c1
     RDKit          3D

 28 30  0  0  0  0  0  0  0  0999 V2000
  -10.1771    4.6892  -19.2789 N   0  0  0  0  0  0  0  0  0  0  0  0
   -9.9038    3.8153  -18.1476 C   0  0  0  0  0  0  0  0  0  0  0  0
   -8.6191    4.1269  -17.4244 C   0  0  0  0  0  0  0  0  0  0  0  0
   -7.4299    4.1661  -18.1422 C   0  0  0  0  0  0  0  0  0  0  0  0
   -6.2301    4.4217  -17.4956 C   0  0  0  0  0  0  0  0  0  0  0  0
   -6.1707    4.6988  -16.1245 C   0  0  0  0  0  0  0  0  0  0  0  0
   -4.9612    4.9883  -15.4755 N   0  0  0  0  0  0  0  0  0  0  0  0
   -3.7428    5.3397  -16.2139 C   0  0  2  0  0  0  0  0  0  0  0  0
   -2.5815    5.3496  -15.3025 N   0  0  0  0  0  0  0  0  0  0  0  0
   -3.8741    6.6685  -17.0739 C   0  0  0  0  0  0  0  0  0  0  0  0
   -2.6945    6.9982  -17.6578 F   0  0  0  0  0  0  0  0  0  0  0  0
   -4.2349    7.7171  -16.2890 F   0  0  0  0  0  0  0  0  0  0  0  0
   -4.7831    6.5729  -18.0700 F   0  0  0  0  0  0  0  0  0  0  0  0
   -7.3491    4.5464  -15.3453 C   0  0  0  0  0  0  0  0  0  0  0  0
   -7.2656    4.6412  -13.8085 C   0  0  0  0  0  0  0  0  0  0  0  0
   -6.8064    5.9412  -13.5118 O   0  0  0  0  0  0  0  0  0  0  0  0
   -6.2869    3.7750  -13.2896 O   0  0  0  0  0  0  0  0  0  0  0  0
   -8.5207    4.3669  -13.1330 N   0  0  0  0  0  0  0  0  0  0  0  0
   -8.4879    4.3053  -11.7135 C   0  0  0  0  0  0  0  0  0  0  0  0
   -8.3286    5.4687  -10.9319 C   0  0  0  0  0  0  0  0  0  0  0  0
   -8.3209    5.4171   -9.5327 C   0  0  0  0  0  0  0  0  0  0  0  0
   -8.5144    4.1926   -8.9211 C   0  0  0  0  0  0  0  0  0  0  0  0
   -8.6876    3.0402   -9.6725 C   0  0  0  0  0  0  0  0  0  0  0  0
   -8.6585    3.0737  -11.0594 C   0  0  0  0  0  0  0  0  0  0  0  0
   -8.9138    1.8795   -8.7648 C   0  0  0  0  0  0  0  0  0  0  0  0
   -8.9823    2.4344   -7.3866 N   0  0  0  0  0  0  0  0  0  0  0  0
   -8.6153    3.8633   -7.4725 C   0  0  0  0  0  0  0  0  0  0  0  0
   -8.5621    4.2855  -16.0269 C   0  0  0  0  0  0  0  0  0  0  0  0
  1  2  1  0
  2  3  1  0
  3  4  2  0
  4  5  1  0
  5  6  2  0
  6  7  1  0
  7  8  1  0
  8  9  1  1
  8 10  1  0
 10 11  1  0
 10 12  1  0
 10 13  1  0
  6 14  1  0
 14 15  1  0
 15 16  1  0
 15 17  1  0
 15 18  1  0
 18 19  1  0
 19 20  2  0
 20 21  1  0
 21 22  2  0
 22 23  1  0
 23 24  2  0
 23 25  1  0
 25 26  1  0
 26 27  1  0
 14 28  2  0
 28  3  1  0
 24 19  1  0
 27 22  1  0
M  END
>  <smiles>  (807) 
C103101-P144

>  <fragmenstein_outcome>  (807) 
acceptable

>  <inchikey>  (807) 
AALBMKYLTACNSE-UHFFFAOYSA-N

>  <fragmenstein_mode>  (807) 
expansion

>  <HIPPO Pose ID>  (807) 
18417

>  <Energy>  (807) 
17.759054

>  <fragmenstein_error>  (807) 


>  <tags>  (807) 
{'openbind_xx01zvns2b_c1_fragmenstein', 'fragmenstein_placed'}

>  <ref_pdb>  (807) 
1

>  <scratch_subdir>  (807) 
/opt/xchem-fragalysis-2/maxwin/BulkDock/SCRATCH/511027/C103101-P144

>  <alias>  (807) 
NCc1ccc(N[C@H](N)C(F)(F)F)c(C(O)(O)Nc2ccc3c(c2)CNC3)c1

>  <HIPPO Compound ID>  (807) 
103101

>  <fragmenstein_runtime>  (807) 
5.626919

$$$$
CCc1ccc(C(=O)Nc2cc3c(cc2C)CNC3)c2[nH]c(C(F)(F)F)nc12
     RDKit          3D

 28 31  0  0  0  0  0  0  0  0999 V2000
   -6.2328    4.2256  -20.0961 C   0  0  0  0  0  0  0  0  0  0  0  0
   -7.4353    3.8912  -19.2397 C   0  0  0  0  0  0  0  0  0  0  0  0
   -7.3276    4.2861  -17.7874 C   0  0  0  0  0  0  0  0  0  0  0  0
   -8.4513    4.0442  -16.9640 C   0  0  0  0  0  0  0  0  0  0  0  0
   -8.4427    4.3297  -15.5975 C   0  0  0  0  0  0  0  0  0  0  0  0
   -7.3105    4.8772  -14.9907 C   0  0  0  0  0  0  0  0  0  0  0  0
   -7.2388    5.2674  -13.5617 C   0  0  0  0  0  0  0  0  0  0  0  0
   -6.6328    6.2319  -13.2982 O   0  0  0  0  0  0  0  0  0  0  0  0
   -7.9736    4.2627  -12.6434 N   0  0  0  0  0  0  0  0  0  0  0  0
   -8.1908    4.2849  -11.2595 C   0  0  0  0  0  0  0  0  0  0  0  0
   -8.5418    3.0377  -10.7103 C   0  0  0  0  0  0  0  0  0  0  0  0
   -8.7294    2.9216   -9.3444 C   0  0  0  0  0  0  0  0  0  0  0  0
   -8.5847    4.0144   -8.5120 C   0  0  0  0  0  0  0  0  0  0  0  0
   -8.2643    5.2567   -9.0246 C   0  0  0  0  0  0  0  0  0  0  0  0
   -8.0916    5.4163  -10.4167 C   0  0  0  0  0  0  0  0  0  0  0  0
   -7.8610    6.8220  -10.8902 C   0  0  0  0  0  0  0  0  0  0  0  0
   -8.8344    3.6080   -7.1019 C   0  0  0  0  0  0  0  0  0  0  0  0
   -9.2624    2.1936   -7.1414 N   0  0  0  0  0  0  0  0  0  0  0  0
   -9.0505    1.7148   -8.5330 C   0  0  0  0  0  0  0  0  0  0  0  0
   -6.2136    5.1318  -15.8160 C   0  0  0  0  0  0  0  0  0  0  0  0
   -4.9834    5.6756  -15.5465 N   0  0  0  0  0  0  0  0  0  0  0  0
   -4.2470    5.6830  -16.7016 C   0  0  0  0  0  0  0  0  0  0  0  0
   -2.8457    6.1856  -16.7127 C   0  0  0  0  0  0  0  0  0  0  0  0
   -2.0177    5.3996  -17.4503 F   0  0  0  0  0  0  0  0  0  0  0  0
   -2.7545    7.4437  -17.2147 F   0  0  0  0  0  0  0  0  0  0  0  0
   -2.3190    6.2306  -15.4586 F   0  0  0  0  0  0  0  0  0  0  0  0
   -4.9646    5.1993  -17.7002 N   0  0  0  0  0  0  0  0  0  0  0  0
   -6.1899    4.8500  -17.1715 C   0  0  0  0  0  0  0  0  0  0  0  0
  1  2  1  0
  2  3  1  0
  3  4  2  0
  4  5  1  0
  5  6  2  0
  6  7  1  0
  7  8  2  0
  7  9  1  0
  9 10  1  0
 10 11  2  0
 11 12  1  0
 12 13  2  0
 13 14  1  0
 14 15  2  0
 15 16  1  0
 13 17  1  0
 17 18  1  0
 18 19  1  0
  6 20  1  0
 20 21  1  0
 21 22  1  0
 22 23  1  0
 23 24  1  0
 23 25  1  0
 23 26  1  0
 22 27  2  0
 27 28  1  0
 28  3  1  0
 15 10  1  0
 28 20  2  0
 19 12  1  0
M  END
>  <smiles>  (808) 
C103121-P144

>  <fragmenstein_outcome>  (808) 
acceptable

>  <inchikey>  (808) 
VRFNYSYODDAZLH-UHFFFAOYSA-N

>  <fragmenstein_mode>  (808) 
expansion

>  <HIPPO Pose ID>  (808) 
18427

>  <Energy>  (808) 
90.03151

>  <fragmenstein_error>  (808) 


>  <tags>  (808) 
{'openbind_xx01zvns2b_c1_fragmenstein', 'fragmenstein_placed'}

>  <ref_pdb>  (808) 
1

>  <scratch_subdir>  (808) 
/opt/xchem-fragalysis-2/maxwin/BulkDock/SCRATCH/511027/C103121-P144

>  <alias>  (808) 
CCc1ccc(C(=O)Nc2cc3c(cc2C)CNC3)c2[nH]c(C(F)(F)F)nc12

>  <HIPPO Compound ID>  (808) 
103121

>  <fragmenstein_runtime>  (808) 
3.973774

$$$$
Nn1c(C(F)(F)F)nc2c(C(=O)N[C@H]3CC4=C(CNC4)C4(C3)NNNN4)cc(Cl)cc21
     RDKit          3D

 31 35  0  0  0  0  0  0  0  0999 V2000
   -5.3978    7.0026  -19.1562 N   0  0  0  0  0  0  0  0  0  0  0  0
   -5.4566    6.5111  -17.8187 N   0  0  0  0  0  0  0  0  0  0  0  0
   -4.7290    6.9407  -16.7393 C   0  0  0  0  0  0  0  0  0  0  0  0
   -3.6860    7.9849  -16.8850 C   0  0  0  0  0  0  0  0  0  0  0  0
   -4.2075    9.1822  -17.2706 F   0  0  0  0  0  0  0  0  0  0  0  0
   -3.0078    8.2214  -15.7307 F   0  0  0  0  0  0  0  0  0  0  0  0
   -2.7476    7.6491  -17.8132 F   0  0  0  0  0  0  0  0  0  0  0  0
   -5.1194    6.3101  -15.6405 N   0  0  0  0  0  0  0  0  0  0  0  0
   -6.1205    5.4471  -16.0232 C   0  0  0  0  0  0  0  0  0  0  0  0
   -6.9309    4.5775  -15.2697 C   0  0  0  0  0  0  0  0  0  0  0  0
   -6.6594    4.4017  -13.8161 C   0  0  0  0  0  0  0  0  0  0  0  0
   -5.5631    4.2376  -13.4604 O   0  0  0  0  0  0  0  0  0  0  0  0
   -7.9701    4.4698  -13.0110 N   0  0  0  0  0  0  0  0  0  0  0  0
   -8.1984    4.4447  -11.5795 C   0  0  1  0  0  0  0  0  0  0  0  0
   -8.3184    3.0146  -11.0205 C   0  0  0  0  0  0  0  0  0  0  0  0
   -8.4742    3.0672   -9.5381 C   0  0  0  0  0  0  0  0  0  0  0  0
   -8.1946    4.1363   -8.7826 C   0  0  0  0  0  0  0  0  0  0  0  0
   -8.5518    3.8471   -7.3696 C   0  0  0  0  0  0  0  0  0  0  0  0
   -9.0891    2.4741   -7.3401 N   0  0  0  0  0  0  0  0  0  0  0  0
   -8.9919    1.9452   -8.7203 C   0  0  0  0  0  0  0  0  0  0  0  0
   -7.6221    5.4306   -9.3016 C   0  0  0  0  0  0  0  0  0  0  0  0
   -7.1694    5.2534  -10.7826 C   0  0  0  0  0  0  0  0  0  0  0  0
   -8.6055    6.5157   -9.1936 N   0  0  0  0  0  0  0  0  0  0  0  0
   -7.8186    7.7080   -9.1301 N   0  0  0  0  0  0  0  0  0  0  0  0
   -6.6017    7.3691   -8.4930 N   0  0  0  0  0  0  0  0  0  0  0  0
   -6.4812    5.9256   -8.5154 N   0  0  0  0  0  0  0  0  0  0  0  0
   -7.9734    3.8911  -15.9210 C   0  0  0  0  0  0  0  0  0  0  0  0
   -8.1619    4.0286  -17.2945 C   0  0  0  0  0  0  0  0  0  0  0  0
   -9.4317    3.1889  -18.0848 Cl  0  0  0  0  0  0  0  0  0  0  0  0
   -7.3394    4.8413  -18.0677 C   0  0  0  0  0  0  0  0  0  0  0  0
   -6.3466    5.5582  -17.3940 C   0  0  0  0  0  0  0  0  0  0  0  0
  1  2  1  0
  2  3  1  0
  3  4  1  0
  4  5  1  0
  4  6  1  0
  4  7  1  0
  3  8  2  0
  8  9  1  0
  9 10  2  0
 10 11  1  0
 11 12  2  0
 11 13  1  0
 14 13  1  6
 14 15  1  0
 15 16  1  0
 16 17  2  0
 17 18  1  0
 18 19  1  0
 19 20  1  0
 17 21  1  0
 21 22  1  0
 21 23  1  0
 23 24  1  0
 24 25  1  0
 25 26  1  0
 10 27  1  0
 27 28  2  0
 28 29  1  0
 28 30  1  0
 30 31  2  0
 31  2  1  0
 31  9  1  0
 22 14  1  0
 20 16  1  0
 26 21  1  0
M  END
>  <smiles>  (809) 
C103162-P144

>  <fragmenstein_outcome>  (809) 
acceptable

>  <inchikey>  (809) 
BAXIFEFSLRDSFG-UHFFFAOYSA-N

>  <fragmenstein_mode>  (809) 
expansion

>  <HIPPO Pose ID>  (809) 
18438

>  <Energy>  (809) 
54.310373

>  <fragmenstein_error>  (809) 


>  <tags>  (809) 
{'openbind_xx01zvns2b_c1_fragmenstein', 'fragmenstein_placed'}

>  <ref_pdb>  (809) 
1

>  <scratch_subdir>  (809) 
/opt/xchem-fragalysis-2/maxwin/BulkDock/SCRATCH/511027/C103162-P144

>  <alias>  (809) 
Nn1c(C(F)(F)F)nc2c(C(=O)N[C@H]3CC4=C(CNC4)C4(C3)NNNN4)cc(Cl)cc21

>  <HIPPO Compound ID>  (809) 
85801

>  <fragmenstein_runtime>  (809) 
4.15714

$$$$
COCCOc1c(C(F)(F)F)n(C)c2c(C(=O)Nc3ccc4c(c3)CNC4)cc(F)cc12
     RDKit          3D

 32 35  0  0  0  0  0  0  0  0999 V2000
   -4.8911    8.3038  -19.7117 C   0  0  0  0  0  0  0  0  0  0  0  0
   -4.8339    7.2412  -20.6490 O   0  0  0  0  0  0  0  0  0  0  0  0
   -3.5559    6.6183  -20.7257 C   0  0  0  0  0  0  0  0  0  0  0  0
   -3.2718    5.7166  -19.5316 C   0  0  0  0  0  0  0  0  0  0  0  0
   -4.3665    4.8344  -19.2459 O   0  0  0  0  0  0  0  0  0  0  0  0
   -4.8724    4.9640  -17.9890 C   0  0  0  0  0  0  0  0  0  0  0  0
   -4.1664    5.1409  -16.8112 C   0  0  0  0  0  0  0  0  0  0  0  0
   -2.7171    5.0914  -16.5051 C   0  0  0  0  0  0  0  0  0  0  0  0
   -2.1846    6.3332  -16.3965 F   0  0  0  0  0  0  0  0  0  0  0  0
   -2.4729    4.4507  -15.3324 F   0  0  0  0  0  0  0  0  0  0  0  0
   -2.0065    4.4297  -17.4496 F   0  0  0  0  0  0  0  0  0  0  0  0
   -5.1013    5.3785  -15.8223 N   0  0  0  0  0  0  0  0  0  0  0  0
   -4.7953    5.8591  -14.4853 C   0  0  0  0  0  0  0  0  0  0  0  0
   -6.3604    5.0062  -16.2664 C   0  0  0  0  0  0  0  0  0  0  0  0
   -7.6020    4.8687  -15.6052 C   0  0  0  0  0  0  0  0  0  0  0  0
   -7.7877    5.3394  -14.2164 C   0  0  0  0  0  0  0  0  0  0  0  0
   -7.7010    6.4864  -14.0210 O   0  0  0  0  0  0  0  0  0  0  0  0
   -7.9721    4.1686  -13.2302 N   0  0  0  0  0  0  0  0  0  0  0  0
   -8.1770    4.1697  -11.8492 C   0  0  0  0  0  0  0  0  0  0  0  0
   -8.0850    5.3631  -11.1099 C   0  0  0  0  0  0  0  0  0  0  0  0
   -8.2418    5.3644   -9.7188 C   0  0  0  0  0  0  0  0  0  0  0  0
   -8.5218    4.1647   -9.0931 C   0  0  0  0  0  0  0  0  0  0  0  0
   -8.6294    2.9835   -9.8214 C   0  0  0  0  0  0  0  0  0  0  0  0
   -8.4405    2.9631  -11.1957 C   0  0  0  0  0  0  0  0  0  0  0  0
   -8.9524    1.8645   -8.8825 C   0  0  0  0  0  0  0  0  0  0  0  0
   -9.3762    2.5267   -7.6206 N   0  0  0  0  0  0  0  0  0  0  0  0
   -8.7482    3.8650   -7.6482 C   0  0  0  0  0  0  0  0  0  0  0  0
   -8.6939    4.3796  -16.3208 C   0  0  0  0  0  0  0  0  0  0  0  0
   -8.5840    4.1446  -17.6812 C   0  0  0  0  0  0  0  0  0  0  0  0
   -9.6663    3.7244  -18.3526 F   0  0  0  0  0  0  0  0  0  0  0  0
   -7.3855    4.3555  -18.3636 C   0  0  0  0  0  0  0  0  0  0  0  0
   -6.2385    4.7499  -17.6405 C   0  0  0  0  0  0  0  0  0  0  0  0
  1  2  1  0
  2  3  1  0
  3  4  1  0
  4  5  1  0
  5  6  1  0
  6  7  2  0
  7  8  1  0
  8  9  1  0
  8 10  1  0
  8 11  1  0
  7 12  1  0
 12 13  1  0
 12 14  1  0
 14 15  2  0
 15 16  1  0
 16 17  2  0
 16 18  1  0
 18 19  1  0
 19 20  2  0
 20 21  1  0
 21 22  2  0
 22 23  1  0
 23 24  2  0
 23 25  1  0
 25 26  1  0
 26 27  1  0
 15 28  1  0
 28 29  2  0
 29 30  1  0
 29 31  1  0
 31 32  2  0
 32  6  1  0
 32 14  1  0
 24 19  1  0
 27 22  1  0
M  END
>  <smiles>  (810) 
C103205-P144

>  <fragmenstein_outcome>  (810) 
acceptable

>  <inchikey>  (810) 
SNUKIXMRQQXLSK-UHFFFAOYSA-N

>  <fragmenstein_mode>  (810) 
expansion

>  <HIPPO Pose ID>  (810) 
18446

>  <Energy>  (810) 
71.548367

>  <fragmenstein_error>  (810) 


>  <tags>  (810) 
{'openbind_xx01zvns2b_c1_fragmenstein', 'fragmenstein_placed'}

>  <ref_pdb>  (810) 
1

>  <scratch_subdir>  (810) 
/opt/xchem-fragalysis-2/maxwin/BulkDock/SCRATCH/511027/C103205-P144

>  <alias>  (810) 
COCCOc1c(C(F)(F)F)n(C)c2c(C(=O)Nc3ccc4c(c3)CNC4)cc(F)cc12

>  <HIPPO Compound ID>  (810) 
71575

>  <fragmenstein_runtime>  (810) 
6.615958

$$$$
CNCn1c(C(F)(F)F)nc2c(C(=O)Nc3ccc4c(c3)CNC4)cc(Cl)cc21
     RDKit          3D

 29 32  0  0  0  0  0  0  0  0999 V2000
   -6.1229    3.8886  -20.1623 C   0  0  0  0  0  0  0  0  0  0  0  0
   -4.9266    4.6309  -19.8060 N   0  0  0  0  0  0  0  0  0  0  0  0
   -5.2148    5.8994  -19.1523 C   0  0  0  0  0  0  0  0  0  0  0  0
   -5.4715    5.6276  -17.7481 N   0  0  0  0  0  0  0  0  0  0  0  0
   -4.5525    5.5768  -16.7221 C   0  0  0  0  0  0  0  0  0  0  0  0
   -3.0792    5.5538  -16.9690 C   0  0  0  0  0  0  0  0  0  0  0  0
   -2.3380    5.5916  -15.8350 F   0  0  0  0  0  0  0  0  0  0  0  0
   -2.6672    6.5863  -17.7474 F   0  0  0  0  0  0  0  0  0  0  0  0
   -2.7240    4.4210  -17.6372 F   0  0  0  0  0  0  0  0  0  0  0  0
   -5.1844    5.4517  -15.5635 N   0  0  0  0  0  0  0  0  0  0  0  0
   -6.4963    5.1793  -15.8697 C   0  0  0  0  0  0  0  0  0  0  0  0
   -7.6035    4.8642  -15.0664 C   0  0  0  0  0  0  0  0  0  0  0  0
   -7.5875    5.2570  -13.6447 C   0  0  0  0  0  0  0  0  0  0  0  0
   -7.2838    6.3573  -13.4002 O   0  0  0  0  0  0  0  0  0  0  0  0
   -8.0874    4.1288  -12.7197 N   0  0  0  0  0  0  0  0  0  0  0  0
   -8.2239    4.0885  -11.3348 C   0  0  0  0  0  0  0  0  0  0  0  0
   -8.0242    5.2469  -10.5618 C   0  0  0  0  0  0  0  0  0  0  0  0
   -8.2011    5.2266   -9.1756 C   0  0  0  0  0  0  0  0  0  0  0  0
   -8.5890    4.0376   -8.5908 C   0  0  0  0  0  0  0  0  0  0  0  0
   -8.7709    2.8858   -9.3530 C   0  0  0  0  0  0  0  0  0  0  0  0
   -8.5904    2.8893  -10.7253 C   0  0  0  0  0  0  0  0  0  0  0  0
   -9.1446    1.7610   -8.4466 C   0  0  0  0  0  0  0  0  0  0  0  0
   -9.5799    2.4181   -7.1855 N   0  0  0  0  0  0  0  0  0  0  0  0
   -8.8752    3.7202   -7.1617 C   0  0  0  0  0  0  0  0  0  0  0  0
   -8.7811    4.3916  -15.6754 C   0  0  0  0  0  0  0  0  0  0  0  0
   -8.9093    4.4245  -17.0595 C   0  0  0  0  0  0  0  0  0  0  0  0
  -10.3233    3.9216  -17.8896 Cl  0  0  0  0  0  0  0  0  0  0  0  0
   -7.9017    4.9479  -17.8508 C   0  0  0  0  0  0  0  0  0  0  0  0
   -6.6855    5.2405  -17.2413 C   0  0  0  0  0  0  0  0  0  0  0  0
  1  2  1  0
  2  3  1  0
  3  4  1  0
  4  5  1  0
  5  6  1  0
  6  7  1  0
  6  8  1  0
  6  9  1  0
  5 10  2  0
 10 11  1  0
 11 12  2  0
 12 13  1  0
 13 14  2  0
 13 15  1  0
 15 16  1  0
 16 17  2  0
 17 18  1  0
 18 19  2  0
 19 20  1  0
 20 21  2  0
 20 22  1  0
 22 23  1  0
 23 24  1  0
 12 25  1  0
 25 26  2  0
 26 27  1  0
 26 28  1  0
 28 29  2  0
 29  4  1  0
 29 11  1  0
 21 16  1  0
 24 19  1  0
M  END
>  <smiles>  (811) 
C103227-P144

>  <fragmenstein_outcome>  (811) 
acceptable

>  <inchikey>  (811) 
PNOPFJAXTFLTHG-UHFFFAOYSA-N

>  <fragmenstein_mode>  (811) 
expansion

>  <HIPPO Pose ID>  (811) 
18452

>  <Energy>  (811) 
103.199073

>  <fragmenstein_error>  (811) 


>  <tags>  (811) 
{'openbind_xx01zvns2b_c1_fragmenstein', 'fragmenstein_placed'}

>  <ref_pdb>  (811) 
1

>  <scratch_subdir>  (811) 
/opt/xchem-fragalysis-2/maxwin/BulkDock/SCRATCH/511027/C103227-P144

>  <alias>  (811) 
CNCn1c(C(F)(F)F)nc2c(C(=O)Nc3ccc4c(c3)CNC4)cc(Cl)cc21

>  <HIPPO Compound ID>  (811) 
74601

>  <fragmenstein_runtime>  (811) 
9.806025

$$$$
CNCn1c(C(F)(F)F)nc2c(C(=O)Nc3cc(F)c4c(c3)CNC4)cc(Cl)cc21
     RDKit          3D

 30 33  0  0  0  0  0  0  0  0999 V2000
   -5.4672    7.6217  -20.1268 C   0  0  0  0  0  0  0  0  0  0  0  0
   -4.4779    6.6076  -19.8459 N   0  0  0  0  0  0  0  0  0  0  0  0
   -5.0776    5.3208  -19.4854 C   0  0  0  0  0  0  0  0  0  0  0  0
   -5.3849    5.2724  -18.0558 N   0  0  0  0  0  0  0  0  0  0  0  0
   -4.4743    5.3977  -17.0260 C   0  0  0  0  0  0  0  0  0  0  0  0
   -3.0104    5.4734  -17.2734 C   0  0  0  0  0  0  0  0  0  0  0  0
   -2.2730    5.3577  -16.1400 F   0  0  0  0  0  0  0  0  0  0  0  0
   -2.6576    6.6564  -17.8464 F   0  0  0  0  0  0  0  0  0  0  0  0
   -2.5842    4.4920  -18.1125 F   0  0  0  0  0  0  0  0  0  0  0  0
   -5.0934    5.4212  -15.8571 N   0  0  0  0  0  0  0  0  0  0  0  0
   -6.4023    5.1118  -16.1117 C   0  0  0  0  0  0  0  0  0  0  0  0
   -7.4883    4.9283  -15.2373 C   0  0  0  0  0  0  0  0  0  0  0  0
   -7.4066    5.3353  -13.8193 C   0  0  0  0  0  0  0  0  0  0  0  0
   -7.1572    6.4509  -13.5782 O   0  0  0  0  0  0  0  0  0  0  0  0
   -7.7822    4.1647  -12.8775 N   0  0  0  0  0  0  0  0  0  0  0  0
   -8.0135    4.1470  -11.5007 C   0  0  0  0  0  0  0  0  0  0  0  0
   -7.8538    5.3009  -10.7185 C   0  0  0  0  0  0  0  0  0  0  0  0
   -8.1076    5.2582   -9.3480 C   0  0  0  0  0  0  0  0  0  0  0  0
   -7.9565    6.3599   -8.6013 F   0  0  0  0  0  0  0  0  0  0  0  0
   -8.5215    4.0788   -8.7718 C   0  0  0  0  0  0  0  0  0  0  0  0
   -8.6748    2.9328   -9.5420 C   0  0  0  0  0  0  0  0  0  0  0  0
   -8.4238    2.9466  -10.9056 C   0  0  0  0  0  0  0  0  0  0  0  0
   -9.0897    1.8071   -8.6532 C   0  0  0  0  0  0  0  0  0  0  0  0
   -9.5240    2.4530   -7.3858 N   0  0  0  0  0  0  0  0  0  0  0  0
   -8.8424    3.7681   -7.3540 C   0  0  0  0  0  0  0  0  0  0  0  0
   -8.7229    4.5230  -15.7519 C   0  0  0  0  0  0  0  0  0  0  0  0
   -8.8761    4.3594  -17.1233 C   0  0  0  0  0  0  0  0  0  0  0  0
  -10.4408    4.0964  -17.7518 Cl  0  0  0  0  0  0  0  0  0  0  0  0
   -7.8258    4.5529  -18.0218 C   0  0  0  0  0  0  0  0  0  0  0  0
   -6.5972    4.9456  -17.4855 C   0  0  0  0  0  0  0  0  0  0  0  0
  1  2  1  0
  2  3  1  0
  3  4  1  0
  4  5  1  0
  5  6  1  0
  6  7  1  0
  6  8  1  0
  6  9  1  0
  5 10  2  0
 10 11  1  0
 11 12  2  0
 12 13  1  0
 13 14  2  0
 13 15  1  0
 15 16  1  0
 16 17  2  0
 17 18  1  0
 18 19  1  0
 18 20  2  0
 20 21  1  0
 21 22  2  0
 21 23  1  0
 23 24  1  0
 24 25  1  0
 12 26  1  0
 26 27  2  0
 27 28  1  0
 27 29  1  0
 29 30  2  0
 30  4  1  0
 30 11  1  0
 22 16  1  0
 25 20  1  0
M  END
>  <smiles>  (812) 
C103253-P145

>  <fragmenstein_outcome>  (812) 
acceptable

>  <inchikey>  (812) 
LYTCQAPQHVEVMI-UHFFFAOYSA-N

>  <fragmenstein_mode>  (812) 
expansion

>  <HIPPO Pose ID>  (812) 
18456

>  <Energy>  (812) 
86.595145

>  <fragmenstein_error>  (812) 


>  <tags>  (812) 
{'openbind_xx01zvns2b_c1_fragmenstein', 'fragmenstein_placed'}

>  <ref_pdb>  (812) 
1

>  <scratch_subdir>  (812) 
/opt/xchem-fragalysis-2/maxwin/BulkDock/SCRATCH/511027/C103253-P145

>  <alias>  (812) 
CNCn1c(C(F)(F)F)nc2c(C(=O)Nc3cc(F)c4c(c3)CNC4)cc(Cl)cc21

>  <HIPPO Compound ID>  (812) 
85589

>  <fragmenstein_runtime>  (812) 
6.27818

$$$$
CNCn1c(C(F)(F)F)nc2c(C(=O)Nc3cc(F)c4c(c3)CNC43CCCC3)cc(Cl)cc21
     RDKit          3D

 34 38  0  0  0  0  0  0  0  0999 V2000
   -2.4889    5.3838  -19.4937 C   0  0  0  0  0  0  0  0  0  0  0  0
   -3.5176    4.7679  -18.6805 N   0  0  0  0  0  0  0  0  0  0  0  0
   -4.7886    5.4779  -18.7623 C   0  0  0  0  0  0  0  0  0  0  0  0
   -5.3322    5.5382  -17.4131 N   0  0  0  0  0  0  0  0  0  0  0  0
   -4.7312    6.1544  -16.3283 C   0  0  0  0  0  0  0  0  0  0  0  0
   -3.4668    6.9482  -16.4156 C   0  0  0  0  0  0  0  0  0  0  0  0
   -2.3752    6.1451  -16.5231 F   0  0  0  0  0  0  0  0  0  0  0  0
   -3.4582    7.7709  -17.5002 F   0  0  0  0  0  0  0  0  0  0  0  0
   -3.2596    7.7445  -15.3363 F   0  0  0  0  0  0  0  0  0  0  0  0
   -5.4342    5.9304  -15.2354 N   0  0  0  0  0  0  0  0  0  0  0  0
   -6.5868    5.3161  -15.6359 C   0  0  0  0  0  0  0  0  0  0  0  0
   -7.7283    4.9843  -14.8913 C   0  0  0  0  0  0  0  0  0  0  0  0
   -7.8492    5.4756  -13.5064 C   0  0  0  0  0  0  0  0  0  0  0  0
   -7.7428    6.6245  -13.3269 O   0  0  0  0  0  0  0  0  0  0  0  0
   -8.0736    4.3215  -12.5032 N   0  0  0  0  0  0  0  0  0  0  0  0
   -8.3006    4.3486  -11.1281 C   0  0  0  0  0  0  0  0  0  0  0  0
   -8.2213    5.5604  -10.4266 C   0  0  0  0  0  0  0  0  0  0  0  0
   -8.3896    5.5862   -9.0453 C   0  0  0  0  0  0  0  0  0  0  0  0
   -8.2823    6.7470   -8.3857 F   0  0  0  0  0  0  0  0  0  0  0  0
   -8.6563    4.4179   -8.3640 C   0  0  0  0  0  0  0  0  0  0  0  0
   -8.7624    3.2194   -9.0665 C   0  0  0  0  0  0  0  0  0  0  0  0
   -8.5784    3.1605  -10.4452 C   0  0  0  0  0  0  0  0  0  0  0  0
   -9.0722    2.1139   -8.1162 C   0  0  0  0  0  0  0  0  0  0  0  0
   -9.0366    2.7168   -6.7624 N   0  0  0  0  0  0  0  0  0  0  0  0
   -8.7753    4.1701   -6.8960 C   0  0  0  0  0  0  0  0  0  0  0  0
   -7.4943    4.5944   -6.1547 C   0  0  0  0  0  0  0  0  0  0  0  0
   -7.8565    4.5314   -4.6785 C   0  0  0  0  0  0  0  0  0  0  0  0
   -9.3348    4.9054   -4.6267 C   0  0  0  0  0  0  0  0  0  0  0  0
   -9.8086    4.9709   -6.0840 C   0  0  0  0  0  0  0  0  0  0  0  0
   -8.8252    4.4230  -15.5398 C   0  0  0  0  0  0  0  0  0  0  0  0
   -8.7935    4.2629  -16.9226 C   0  0  0  0  0  0  0  0  0  0  0  0
  -10.2521    3.9049  -17.7338 Cl  0  0  0  0  0  0  0  0  0  0  0  0
   -7.6587    4.5393  -17.6916 C   0  0  0  0  0  0  0  0  0  0  0  0
   -6.5631    5.0740  -17.0081 C   0  0  0  0  0  0  0  0  0  0  0  0
  1  2  1  0
  2  3  1  0
  3  4  1  0
  4  5  1  0
  5  6  1  0
  6  7  1  0
  6  8  1  0
  6  9  1  0
  5 10  2  0
 10 11  1  0
 11 12  2  0
 12 13  1  0
 13 14  2  0
 13 15  1  0
 15 16  1  0
 16 17  2  0
 17 18  1  0
 18 19  1  0
 18 20  2  0
 20 21  1  0
 21 22  2  0
 21 23  1  0
 23 24  1  0
 24 25  1  0
 25 26  1  0
 26 27  1  0
 27 28  1  0
 28 29  1  0
 12 30  1  0
 30 31  2  0
 31 32  1  0
 31 33  1  0
 33 34  2  0
 34  4  1  0
 34 11  1  0
 22 16  1  0
 29 25  1  0
 25 20  1  0
M  END
>  <smiles>  (813) 
C103255-P145

>  <fragmenstein_outcome>  (813) 
acceptable

>  <inchikey>  (813) 
QMSMITCTSZOWRI-UHFFFAOYSA-N

>  <fragmenstein_mode>  (813) 
expansion

>  <HIPPO Pose ID>  (813) 
18457

>  <Energy>  (813) 
101.680274

>  <fragmenstein_error>  (813) 


>  <tags>  (813) 
{'openbind_xx01zvns2b_c1_fragmenstein', 'fragmenstein_placed'}

>  <ref_pdb>  (813) 
1

>  <scratch_subdir>  (813) 
/opt/xchem-fragalysis-2/maxwin/BulkDock/SCRATCH/511027/C103255-P145

>  <alias>  (813) 
CNCn1c(C(F)(F)F)nc2c(C(=O)Nc3cc(F)c4c(c3)CNC43CCCC3)cc(Cl)cc21

>  <HIPPO Compound ID>  (813) 
91854

>  <fragmenstein_runtime>  (813) 
9.470279

$$$$
CNCn1c(C(F)(F)F)nc2c(C(=O)Nc3cc(C#N)c4c(c3)CNC4)cc(Cl)cc21
     RDKit          3D

 31 34  0  0  0  0  0  0  0  0999 V2000
   -4.6569    7.5879  -21.1898 C   0  0  0  0  0  0  0  0  0  0  0  0
   -4.7169    7.1388  -19.8068 N   0  0  0  0  0  0  0  0  0  0  0  0
   -5.6884    6.0544  -19.6635 C   0  0  0  0  0  0  0  0  0  0  0  0
   -5.6119    5.5022  -18.3197 N   0  0  0  0  0  0  0  0  0  0  0  0
   -4.5178    5.4163  -17.5079 C   0  0  0  0  0  0  0  0  0  0  0  0
   -3.1429    5.4557  -18.1073 C   0  0  0  0  0  0  0  0  0  0  0  0
   -2.2882    4.6454  -17.4415 F   0  0  0  0  0  0  0  0  0  0  0  0
   -3.1057    4.9997  -19.3950 F   0  0  0  0  0  0  0  0  0  0  0  0
   -2.5872    6.6946  -18.0913 F   0  0  0  0  0  0  0  0  0  0  0  0
   -4.9276    5.2932  -16.2435 N   0  0  0  0  0  0  0  0  0  0  0  0
   -6.2896    5.0348  -16.2973 C   0  0  0  0  0  0  0  0  0  0  0  0
   -7.2827    4.8037  -15.3171 C   0  0  0  0  0  0  0  0  0  0  0  0
   -7.0911    5.1693  -13.8893 C   0  0  0  0  0  0  0  0  0  0  0  0
   -6.6209    6.2097  -13.6401 O   0  0  0  0  0  0  0  0  0  0  0  0
   -7.6735    4.0786  -12.9515 N   0  0  0  0  0  0  0  0  0  0  0  0
   -7.8767    4.0847  -11.5697 C   0  0  0  0  0  0  0  0  0  0  0  0
   -7.6504    5.2339  -10.7955 C   0  0  0  0  0  0  0  0  0  0  0  0
   -7.9178    5.2328   -9.4163 C   0  0  0  0  0  0  0  0  0  0  0  0
   -7.6639    6.3938   -8.6195 C   0  0  0  0  0  0  0  0  0  0  0  0
   -7.4624    7.3141   -7.9409 N   0  0  0  0  0  0  0  0  0  0  0  0
   -8.4178    4.0759   -8.8397 C   0  0  0  0  0  0  0  0  0  0  0  0
   -8.6220    2.9318   -9.6030 C   0  0  0  0  0  0  0  0  0  0  0  0
   -8.3631    2.9198  -10.9648 C   0  0  0  0  0  0  0  0  0  0  0  0
   -9.0834    1.8255   -8.7117 C   0  0  0  0  0  0  0  0  0  0  0  0
   -9.5014    2.4917   -7.4532 N   0  0  0  0  0  0  0  0  0  0  0  0
   -8.7793    3.7812   -7.4199 C   0  0  0  0  0  0  0  0  0  0  0  0
   -8.5844    4.4399  -15.7330 C   0  0  0  0  0  0  0  0  0  0  0  0
   -8.8866    4.3327  -17.0857 C   0  0  0  0  0  0  0  0  0  0  0  0
  -10.4865    4.0730  -17.6182 Cl  0  0  0  0  0  0  0  0  0  0  0  0
   -7.9445    4.6000  -18.0644 C   0  0  0  0  0  0  0  0  0  0  0  0
   -6.6826    4.9923  -17.6326 C   0  0  0  0  0  0  0  0  0  0  0  0
  1  2  1  0
  2  3  1  0
  3  4  1  0
  4  5  1  0
  5  6  1  0
  6  7  1  0
  6  8  1  0
  6  9  1  0
  5 10  2  0
 10 11  1  0
 11 12  2  0
 12 13  1  0
 13 14  2  0
 13 15  1  0
 15 16  1  0
 16 17  2  0
 17 18  1  0
 18 19  1  0
 19 20  3  0
 18 21  2  0
 21 22  1  0
 22 23  2  0
 22 24  1  0
 24 25  1  0
 25 26  1  0
 12 27  1  0
 27 28  2  0
 28 29  1  0
 28 30  1  0
 30 31  2  0
 31  4  1  0
 31 11  1  0
 23 16  1  0
 26 21  1  0
M  END
>  <smiles>  (814) 
C103256-P145

>  <fragmenstein_outcome>  (814) 
acceptable

>  <inchikey>  (814) 
HINZQBNWBMWYIL-UHFFFAOYSA-N

>  <fragmenstein_mode>  (814) 
expansion

>  <HIPPO Pose ID>  (814) 
18458

>  <Energy>  (814) 
102.580485

>  <fragmenstein_error>  (814) 


>  <tags>  (814) 
{'openbind_xx01zvns2b_c1_fragmenstein', 'fragmenstein_placed'}

>  <ref_pdb>  (814) 
1

>  <scratch_subdir>  (814) 
/opt/xchem-fragalysis-2/maxwin/BulkDock/SCRATCH/511027/C103256-P145

>  <alias>  (814) 
CNCn1c(C(F)(F)F)nc2c(C(=O)Nc3cc(C#N)c4c(c3)CNC4)cc(Cl)cc21

>  <HIPPO Compound ID>  (814) 
105025

>  <fragmenstein_runtime>  (814) 
4.751089

$$$$
CNCn1c(C(F)(F)F)nc2c(C(=O)Nc3ccc4c(c3)CN(CC(F)F)C4)cc(Cl)cc21
     RDKit          3D

 33 36  0  0  0  0  0  0  0  0999 V2000
   -5.9334    4.3185  -19.6103 C   0  0  0  0  0  0  0  0  0  0  0  0
   -4.7935    5.2124  -19.4887 N   0  0  0  0  0  0  0  0  0  0  0  0
   -5.1954    6.3618  -18.6907 C   0  0  0  0  0  0  0  0  0  0  0  0
   -5.4985    5.9128  -17.3388 N   0  0  0  0  0  0  0  0  0  0  0  0
   -4.6075    5.8631  -16.2890 C   0  0  0  0  0  0  0  0  0  0  0  0
   -3.1423    6.0438  -16.4722 C   0  0  0  0  0  0  0  0  0  0  0  0
   -2.8335    7.3142  -16.8483 F   0  0  0  0  0  0  0  0  0  0  0  0
   -2.6598    5.2319  -17.4568 F   0  0  0  0  0  0  0  0  0  0  0  0
   -2.4122    5.7723  -15.3623 F   0  0  0  0  0  0  0  0  0  0  0  0
   -5.2559    5.6311  -15.1619 N   0  0  0  0  0  0  0  0  0  0  0  0
   -6.5424    5.3242  -15.5189 C   0  0  0  0  0  0  0  0  0  0  0  0
   -7.6601    4.9767  -14.7529 C   0  0  0  0  0  0  0  0  0  0  0  0
   -7.6723    5.3789  -13.3493 C   0  0  0  0  0  0  0  0  0  0  0  0
   -7.4349    6.4905  -13.0938 O   0  0  0  0  0  0  0  0  0  0  0  0
   -8.1076    4.2213  -12.4431 N   0  0  0  0  0  0  0  0  0  0  0  0
   -8.2474    4.1598  -11.0720 C   0  0  0  0  0  0  0  0  0  0  0  0
   -8.0547    5.3181  -10.3000 C   0  0  0  0  0  0  0  0  0  0  0  0
   -8.1705    5.2719   -8.9186 C   0  0  0  0  0  0  0  0  0  0  0  0
   -8.4940    4.0585   -8.3500 C   0  0  0  0  0  0  0  0  0  0  0  0
   -8.7038    2.9174   -9.1161 C   0  0  0  0  0  0  0  0  0  0  0  0
   -8.5769    2.9426  -10.4872 C   0  0  0  0  0  0  0  0  0  0  0  0
   -9.0291    1.7671   -8.2277 C   0  0  0  0  0  0  0  0  0  0  0  0
   -9.1462    2.3369   -6.8562 N   0  0  0  0  0  0  0  0  0  0  0  0
  -10.5202    2.2127   -6.3684 C   0  0  0  0  0  0  0  0  0  0  0  0
  -10.7895    2.7678   -4.9802 C   0  0  0  0  0  0  0  0  0  0  0  0
  -12.0180    2.3586   -4.5644 F   0  0  0  0  0  0  0  0  0  0  0  0
  -10.8497    4.1286   -5.0011 F   0  0  0  0  0  0  0  0  0  0  0  0
   -8.6667    3.7325   -6.9120 C   0  0  0  0  0  0  0  0  0  0  0  0
   -8.8245    4.4841  -15.3590 C   0  0  0  0  0  0  0  0  0  0  0  0
   -8.9207    4.5088  -16.7368 C   0  0  0  0  0  0  0  0  0  0  0  0
  -10.3489    4.0617  -17.5602 Cl  0  0  0  0  0  0  0  0  0  0  0  0
   -7.9070    5.0608  -17.5082 C   0  0  0  0  0  0  0  0  0  0  0  0
   -6.7042    5.4175  -16.8894 C   0  0  0  0  0  0  0  0  0  0  0  0
  1  2  1  0
  2  3  1  0
  3  4  1  0
  4  5  1  0
  5  6  1  0
  6  7  1  0
  6  8  1  0
  6  9  1  0
  5 10  2  0
 10 11  1  0
 11 12  2  0
 12 13  1  0
 13 14  2  0
 13 15  1  0
 15 16  1  0
 16 17  2  0
 17 18  1  0
 18 19  2  0
 19 20  1  0
 20 21  2  0
 20 22  1  0
 22 23  1  0
 23 24  1  0
 24 25  1  0
 25 26  1  0
 25 27  1  0
 23 28  1  0
 12 29  1  0
 29 30  2  0
 30 31  1  0
 30 32  1  0
 32 33  2  0
 33  4  1  0
 33 11  1  0
 21 16  1  0
 28 19  1  0
M  END
>  <smiles>  (815) 
C103258-P145

>  <fragmenstein_outcome>  (815) 
acceptable

>  <inchikey>  (815) 
FLAIPJMNLNFEFP-UHFFFAOYSA-N

>  <fragmenstein_mode>  (815) 
expansion

>  <HIPPO Pose ID>  (815) 
18460

>  <Energy>  (815) 
158.217707

>  <fragmenstein_error>  (815) 


>  <tags>  (815) 
{'openbind_xx01zvns2b_c1_fragmenstein', 'fragmenstein_placed'}

>  <ref_pdb>  (815) 
1

>  <scratch_subdir>  (815) 
/opt/xchem-fragalysis-2/maxwin/BulkDock/SCRATCH/511027/C103258-P145

>  <alias>  (815) 
CNCn1c(C(F)(F)F)nc2c(C(=O)Nc3ccc4c(c3)CN(CC(F)F)C4)cc(Cl)cc21

>  <HIPPO Compound ID>  (815) 
103258

>  <fragmenstein_runtime>  (815) 
4.68721

$$$$
O=C(Nc1ccc2c(c1)CNC2)c1cc(F)cc2c1nc1n([C@H](F)NF)ncn21
     RDKit          3D

 29 33  0  0  0  0  0  0  0  0999 V2000
   -7.2473    6.3568  -13.7558 O   0  0  0  0  0  0  0  0  0  0  0  0
   -7.6079    5.2623  -13.9475 C   0  0  0  0  0  0  0  0  0  0  0  0
   -8.0157    4.1502  -12.9491 N   0  0  0  0  0  0  0  0  0  0  0  0
   -8.1502    4.1838  -11.5618 C   0  0  0  0  0  0  0  0  0  0  0  0
   -7.9235    5.3606  -10.8319 C   0  0  0  0  0  0  0  0  0  0  0  0
   -8.0680    5.3793   -9.4397 C   0  0  0  0  0  0  0  0  0  0  0  0
   -8.4386    4.2097   -8.8008 C   0  0  0  0  0  0  0  0  0  0  0  0
   -8.6713    3.0467   -9.5203 C   0  0  0  0  0  0  0  0  0  0  0  0
   -8.5305    3.0127  -10.8993 C   0  0  0  0  0  0  0  0  0  0  0  0
   -9.0794    1.9558   -8.5918 C   0  0  0  0  0  0  0  0  0  0  0  0
   -9.0188    2.5247   -7.2177 N   0  0  0  0  0  0  0  0  0  0  0  0
   -8.6660    3.9547   -7.3521 C   0  0  0  0  0  0  0  0  0  0  0  0
   -7.7739    4.8104  -15.3500 C   0  0  0  0  0  0  0  0  0  0  0  0
   -8.9886    4.2445  -15.7683 C   0  0  0  0  0  0  0  0  0  0  0  0
   -9.2330    4.0012  -17.1175 C   0  0  0  0  0  0  0  0  0  0  0  0
  -10.4372    3.5697  -17.5009 F   0  0  0  0  0  0  0  0  0  0  0  0
   -8.2916    4.2517  -18.1021 C   0  0  0  0  0  0  0  0  0  0  0  0
   -7.0959    4.8083  -17.6642 C   0  0  0  0  0  0  0  0  0  0  0  0
   -6.7936    5.1005  -16.3188 C   0  0  0  0  0  0  0  0  0  0  0  0
   -5.5259    5.6775  -16.2024 N   0  0  0  0  0  0  0  0  0  0  0  0
   -5.1351    5.7785  -17.4377 C   0  0  0  0  0  0  0  0  0  0  0  0
   -4.1392    6.2513  -18.1951 N   0  0  0  0  0  0  0  0  0  0  0  0
   -2.8348    6.5617  -17.6440 C   0  0  2  0  0  0  0  0  0  0  0  0
   -2.3106    7.5994  -18.3641 F   0  0  0  0  0  0  0  0  0  0  0  0
   -1.7618    5.5702  -17.5555 N   0  0  0  0  0  0  0  0  0  0  0  0
   -1.5042    4.9957  -18.7843 F   0  0  0  0  0  0  0  0  0  0  0  0
   -4.3408    5.9390  -19.5591 N   0  0  0  0  0  0  0  0  0  0  0  0
   -5.5088    5.3594  -19.5886 C   0  0  0  0  0  0  0  0  0  0  0  0
   -6.0016    5.2534  -18.3174 N   0  0  0  0  0  0  0  0  0  0  0  0
  1  2  2  0
  2  3  1  0
  3  4  1  0
  4  5  2  0
  5  6  1  0
  6  7  2  0
  7  8  1  0
  8  9  2  0
  8 10  1  0
 10 11  1  0
 11 12  1  0
  2 13  1  0
 13 14  2  0
 14 15  1  0
 15 16  1  0
 15 17  2  0
 17 18  1  0
 18 19  2  0
 19 20  1  0
 20 21  2  0
 21 22  1  0
 22 23  1  0
 23 24  1  6
 23 25  1  0
 25 26  1  0
 22 27  1  0
 27 28  2  0
 28 29  1  0
  9  4  1  0
 19 13  1  0
 29 21  1  0
 12  7  1  0
 29 18  1  0
M  END
>  <smiles>  (816) 
C103261-P145

>  <fragmenstein_outcome>  (816) 
acceptable

>  <inchikey>  (816) 
RRTWQMLBDYFHQH-UHFFFAOYSA-N

>  <fragmenstein_mode>  (816) 
expansion

>  <HIPPO Pose ID>  (816) 
18462

>  <Energy>  (816) 
78.912138

>  <fragmenstein_error>  (816) 


>  <tags>  (816) 
{'openbind_xx01zvns2b_c1_fragmenstein', 'fragmenstein_placed'}

>  <ref_pdb>  (816) 
1

>  <scratch_subdir>  (816) 
/opt/xchem-fragalysis-2/maxwin/BulkDock/SCRATCH/511027/C103261-P145

>  <alias>  (816) 
O=C(Nc1ccc2c(c1)CNC2)c1cc(F)cc2c1nc1n([C@H](F)NF)ncn21

>  <HIPPO Compound ID>  (816) 
105193

>  <fragmenstein_runtime>  (816) 
5.753089

$$$$
O=C(Nc1ccc2c(c1)CNC2)c1cc(Cl)cc2nc(C(F)(F)F)[nH]c12
     RDKit          3D

 26 29  0  0  0  0  0  0  0  0999 V2000
   -6.7379    6.1676  -13.5150 O   0  0  0  0  0  0  0  0  0  0  0  0
   -7.3403    5.1938  -13.7485 C   0  0  0  0  0  0  0  0  0  0  0  0
   -8.0890    4.2274  -12.8022 N   0  0  0  0  0  0  0  0  0  0  0  0
   -8.1708    4.2050  -11.4124 C   0  0  0  0  0  0  0  0  0  0  0  0
   -7.8058    5.3326  -10.6591 C   0  0  0  0  0  0  0  0  0  0  0  0
   -7.9313    5.3362   -9.2674 C   0  0  0  0  0  0  0  0  0  0  0  0
   -8.4002    4.1918   -8.6515 C   0  0  0  0  0  0  0  0  0  0  0  0
   -8.7453    3.0690   -9.3927 C   0  0  0  0  0  0  0  0  0  0  0  0
   -8.6514    3.0591  -10.7758 C   0  0  0  0  0  0  0  0  0  0  0  0
   -9.2255    1.9987   -8.4754 C   0  0  0  0  0  0  0  0  0  0  0  0
   -9.0182    2.5053   -7.0920 N   0  0  0  0  0  0  0  0  0  0  0  0
   -8.6537    3.9333   -7.2079 C   0  0  0  0  0  0  0  0  0  0  0  0
   -7.5071    4.8262  -15.1724 C   0  0  0  0  0  0  0  0  0  0  0  0
   -8.7418    4.4660  -15.7145 C   0  0  0  0  0  0  0  0  0  0  0  0
   -8.8866    4.3102  -17.0940 C   0  0  0  0  0  0  0  0  0  0  0  0
  -10.4528    4.0693  -17.7345 Cl  0  0  0  0  0  0  0  0  0  0  0  0
   -7.8172    4.4592  -17.9765 C   0  0  0  0  0  0  0  0  0  0  0  0
   -6.5750    4.7977  -17.4369 C   0  0  0  0  0  0  0  0  0  0  0  0
   -5.3758    4.9971  -18.0638 N   0  0  0  0  0  0  0  0  0  0  0  0
   -4.4947    5.2126  -17.1021 C   0  0  0  0  0  0  0  0  0  0  0  0
   -3.0146    5.2938  -17.2039 C   0  0  0  0  0  0  0  0  0  0  0  0
   -2.6036    6.3029  -18.0044 F   0  0  0  0  0  0  0  0  0  0  0  0
   -2.4451    5.5091  -15.9844 F   0  0  0  0  0  0  0  0  0  0  0  0
   -2.4575    4.1615  -17.6947 F   0  0  0  0  0  0  0  0  0  0  0  0
   -5.1278    5.3067  -15.8871 N   0  0  0  0  0  0  0  0  0  0  0  0
   -6.4473    4.9810  -16.0675 C   0  0  0  0  0  0  0  0  0  0  0  0
  1  2  2  0
  2  3  1  0
  3  4  1  0
  4  5  2  0
  5  6  1  0
  6  7  2  0
  7  8  1  0
  8  9  2  0
  8 10  1  0
 10 11  1  0
 11 12  1  0
  2 13  1  0
 13 14  2  0
 14 15  1  0
 15 16  1  0
 15 17  2  0
 17 18  1  0
 18 19  1  0
 19 20  2  0
 20 21  1  0
 21 22  1  0
 21 23  1  0
 21 24  1  0
 20 25  1  0
 25 26  1  0
  9  4  1  0
 26 13  1  0
 12  7  1  0
 26 18  2  0
M  END
>  <smiles>  (817) 
C39542-P145

>  <fragmenstein_outcome>  (817) 
acceptable

>  <inchikey>  (817) 
CNXOBVVHQNSJQZ-UHFFFAOYSA-N

>  <fragmenstein_mode>  (817) 
expansion

>  <HIPPO Pose ID>  (817) 
18463

>  <Energy>  (817) 
60.018628

>  <fragmenstein_error>  (817) 


>  <tags>  (817) 
{'openbind_xx01zvns2b_c1_fragmenstein', 'fragmenstein_placed'}

>  <ref_pdb>  (817) 
1

>  <scratch_subdir>  (817) 
/opt/xchem-fragalysis-2/maxwin/BulkDock/SCRATCH/511027/C39542-P145

>  <alias>  (817) 
O=C(Nc1ccc2c(c1)CNC2)c1cc(Cl)cc2nc(C(F)(F)F)[nH]c12

>  <HIPPO Compound ID>  (817) 
39542

>  <fragmenstein_runtime>  (817) 
3.686684

$$$$
CNCn1c(C(F)(F)F)nc2c(C(=O)Nc3ccc4c(c3)CNC4)cc(F)cc21
     RDKit          3D

 29 32  0  0  0  0  0  0  0  0999 V2000
   -4.0457    6.6990  -21.0246 C   0  0  0  0  0  0  0  0  0  0  0  0
   -4.4196    5.7213  -20.0058 N   0  0  0  0  0  0  0  0  0  0  0  0
   -5.4731    6.2871  -19.1760 C   0  0  0  0  0  0  0  0  0  0  0  0
   -5.5530    5.5325  -17.9315 N   0  0  0  0  0  0  0  0  0  0  0  0
   -4.6591    5.6732  -16.8862 C   0  0  0  0  0  0  0  0  0  0  0  0
   -3.2302    6.0679  -17.0944 C   0  0  0  0  0  0  0  0  0  0  0  0
   -3.1115    7.2466  -17.7660 F   0  0  0  0  0  0  0  0  0  0  0  0
   -2.5340    5.1325  -17.7925 F   0  0  0  0  0  0  0  0  0  0  0  0
   -2.5625    6.2378  -15.9212 F   0  0  0  0  0  0  0  0  0  0  0  0
   -5.2834    5.4738  -15.7355 N   0  0  0  0  0  0  0  0  0  0  0  0
   -6.5579    5.0703  -16.0479 C   0  0  0  0  0  0  0  0  0  0  0  0
   -7.6625    4.7907  -15.2240 C   0  0  0  0  0  0  0  0  0  0  0  0
   -7.6485    5.2433  -13.8188 C   0  0  0  0  0  0  0  0  0  0  0  0
   -7.4907    6.3820  -13.6134 O   0  0  0  0  0  0  0  0  0  0  0  0
   -7.9168    4.0775  -12.8420 N   0  0  0  0  0  0  0  0  0  0  0  0
   -8.1339    4.0816  -11.4649 C   0  0  0  0  0  0  0  0  0  0  0  0
   -7.9858    5.2569  -10.7088 C   0  0  0  0  0  0  0  0  0  0  0  0
   -8.1992    5.2541   -9.3257 C   0  0  0  0  0  0  0  0  0  0  0  0
   -8.5749    4.0669   -8.7268 C   0  0  0  0  0  0  0  0  0  0  0  0
   -8.7213    2.9018   -9.4735 C   0  0  0  0  0  0  0  0  0  0  0  0
   -8.4959    2.8867  -10.8396 C   0  0  0  0  0  0  0  0  0  0  0  0
   -9.1074    1.7845   -8.5622 C   0  0  0  0  0  0  0  0  0  0  0  0
   -9.5450    2.4466   -7.3039 N   0  0  0  0  0  0  0  0  0  0  0  0
   -8.8662    3.7618   -7.2960 C   0  0  0  0  0  0  0  0  0  0  0  0
   -8.8398    4.2897  -15.7927 C   0  0  0  0  0  0  0  0  0  0  0  0
   -8.9280    4.1371  -17.1714 C   0  0  0  0  0  0  0  0  0  0  0  0
  -10.0829    3.7265  -17.7101 F   0  0  0  0  0  0  0  0  0  0  0  0
   -7.8809    4.4855  -18.0248 C   0  0  0  0  0  0  0  0  0  0  0  0
   -6.7076    4.9657  -17.4300 C   0  0  0  0  0  0  0  0  0  0  0  0
  1  2  1  0
  2  3  1  0
  3  4  1  0
  4  5  1  0
  5  6  1  0
  6  7  1  0
  6  8  1  0
  6  9  1  0
  5 10  2  0
 10 11  1  0
 11 12  2  0
 12 13  1  0
 13 14  2  0
 13 15  1  0
 15 16  1  0
 16 17  2  0
 17 18  1  0
 18 19  2  0
 19 20  1  0
 20 21  2  0
 20 22  1  0
 22 23  1  0
 23 24  1  0
 12 25  1  0
 25 26  2  0
 26 27  1  0
 26 28  1  0
 28 29  2  0
 29  4  1  0
 29 11  1  0
 21 16  1  0
 24 19  1  0
M  END
>  <smiles>  (818) 
C103233-P145

>  <fragmenstein_outcome>  (818) 
acceptable

>  <inchikey>  (818) 
OORAGYIRDNPAPX-UHFFFAOYSA-N

>  <fragmenstein_mode>  (818) 
expansion

>  <HIPPO Pose ID>  (818) 
18465

>  <Energy>  (818) 
93.243957

>  <fragmenstein_error>  (818) 


>  <tags>  (818) 
{'openbind_xx01zvns2b_c1_fragmenstein', 'fragmenstein_placed'}

>  <ref_pdb>  (818) 
1

>  <scratch_subdir>  (818) 
/opt/xchem-fragalysis-2/maxwin/BulkDock/SCRATCH/511027/C103233-P145

>  <alias>  (818) 
CNCn1c(C(F)(F)F)nc2c(C(=O)Nc3ccc4c(c3)CNC4)cc(F)cc21

>  <HIPPO Compound ID>  (818) 
103233

>  <fragmenstein_runtime>  (818) 
6.364889

$$$$
O=C(Nc1ccc2c(c1)CNC2)c1cccc2c1nc1n2NCOC1(F)F
     RDKit          3D

 27 31  0  0  0  0  0  0  0  0999 V2000
   -7.4512    6.4412  -13.5728 O   0  0  0  0  0  0  0  0  0  0  0  0
   -7.6724    5.3111  -13.7672 C   0  0  0  0  0  0  0  0  0  0  0  0
   -7.9614    4.1604  -12.7738 N   0  0  0  0  0  0  0  0  0  0  0  0
   -8.1262    4.1792  -11.3918 C   0  0  0  0  0  0  0  0  0  0  0  0
   -7.9187    5.3495  -10.6466 C   0  0  0  0  0  0  0  0  0  0  0  0
   -8.0932    5.3528   -9.2589 C   0  0  0  0  0  0  0  0  0  0  0  0
   -8.4745    4.1746   -8.6426 C   0  0  0  0  0  0  0  0  0  0  0  0
   -8.6880    3.0188   -9.3802 C   0  0  0  0  0  0  0  0  0  0  0  0
   -8.5156    2.9988  -10.7542 C   0  0  0  0  0  0  0  0  0  0  0  0
   -9.1138    1.9166   -8.4753 C   0  0  0  0  0  0  0  0  0  0  0  0
   -9.0657    2.4632   -7.0919 N   0  0  0  0  0  0  0  0  0  0  0  0
   -8.7335    3.9009   -7.2029 C   0  0  0  0  0  0  0  0  0  0  0  0
   -7.8090    4.8421  -15.1615 C   0  0  0  0  0  0  0  0  0  0  0  0
   -9.0153    4.2619  -15.5842 C   0  0  0  0  0  0  0  0  0  0  0  0
   -9.2548    3.9886  -16.9305 C   0  0  0  0  0  0  0  0  0  0  0  0
   -8.2840    4.2348  -17.8934 C   0  0  0  0  0  0  0  0  0  0  0  0
   -7.0847    4.7958  -17.4460 C   0  0  0  0  0  0  0  0  0  0  0  0
   -6.8169    5.1136  -16.1140 C   0  0  0  0  0  0  0  0  0  0  0  0
   -5.5698    5.6934  -15.9940 N   0  0  0  0  0  0  0  0  0  0  0  0
   -5.1070    5.7717  -17.2282 C   0  0  0  0  0  0  0  0  0  0  0  0
   -5.9719    5.2093  -18.1143 N   0  0  0  0  0  0  0  0  0  0  0  0
   -5.8067    5.1598  -19.5056 N   0  0  0  0  0  0  0  0  0  0  0  0
   -4.5742    5.7950  -19.9262 C   0  0  0  0  0  0  0  0  0  0  0  0
   -4.1959    6.8793  -19.0977 O   0  0  0  0  0  0  0  0  0  0  0  0
   -3.8952    6.3946  -17.7890 C   0  0  0  0  0  0  0  0  0  0  0  0
   -2.8459    5.5374  -17.8849 F   0  0  0  0  0  0  0  0  0  0  0  0
   -3.4667    7.4641  -17.0720 F   0  0  0  0  0  0  0  0  0  0  0  0
  1  2  2  0
  2  3  1  0
  3  4  1  0
  4  5  2  0
  5  6  1  0
  6  7  2  0
  7  8  1  0
  8  9  2  0
  8 10  1  0
 10 11  1  0
 11 12  1  0
  2 13  1  0
 13 14  2  0
 14 15  1  0
 15 16  2  0
 16 17  1  0
 17 18  2  0
 18 19  1  0
 19 20  2  0
 20 21  1  0
 21 22  1  0
 22 23  1  0
 23 24  1  0
 24 25  1  0
 25 26  1  0
 25 27  1  0
  9  4  1  0
 18 13  1  0
 25 20  1  0
 12  7  1  0
 21 17  1  0
M  END
>  <smiles>  (819) 
C103263-P145

>  <fragmenstein_outcome>  (819) 
acceptable

>  <inchikey>  (819) 
RJLOVOYTFZBSNC-UHFFFAOYSA-N

>  <fragmenstein_mode>  (819) 
expansion

>  <HIPPO Pose ID>  (819) 
18466

>  <Energy>  (819) 
7.017955

>  <fragmenstein_error>  (819) 


>  <tags>  (819) 
{'openbind_xx01zvns2b_c1_fragmenstein', 'fragmenstein_placed'}

>  <ref_pdb>  (819) 
1

>  <scratch_subdir>  (819) 
/opt/xchem-fragalysis-2/maxwin/BulkDock/SCRATCH/511027/C103263-P145

>  <alias>  (819) 
O=C(Nc1ccc2c(c1)CNC2)c1cccc2c1nc1n2NCOC1(F)F

>  <HIPPO Compound ID>  (819) 
103263

>  <fragmenstein_runtime>  (819) 
3.584093

$$$$
O=C(Nc1ccc2c(c1)CNC2)c1cc(Cl)cc2[nH]c([C@@H](F)NCF)nc12
     RDKit          3D

 27 30  0  0  0  0  0  0  0  0999 V2000
   -7.4010    6.4756  -13.5119 O   0  0  0  0  0  0  0  0  0  0  0  0
   -7.6640    5.3624  -13.7464 C   0  0  0  0  0  0  0  0  0  0  0  0
   -8.0996    4.2153  -12.8046 N   0  0  0  0  0  0  0  0  0  0  0  0
   -8.2065    4.1758  -11.4162 C   0  0  0  0  0  0  0  0  0  0  0  0
   -8.0219    5.3287  -10.6357 C   0  0  0  0  0  0  0  0  0  0  0  0
   -8.1928    5.2893   -9.2474 C   0  0  0  0  0  0  0  0  0  0  0  0
   -8.5635    4.0897   -8.6693 C   0  0  0  0  0  0  0  0  0  0  0  0
   -8.7316    2.9432   -9.4396 C   0  0  0  0  0  0  0  0  0  0  0  0
   -8.5480    2.9633  -10.8112 C   0  0  0  0  0  0  0  0  0  0  0  0
   -9.1087    1.8074   -8.5481 C   0  0  0  0  0  0  0  0  0  0  0  0
   -9.5288    2.4444   -7.2713 N   0  0  0  0  0  0  0  0  0  0  0  0
   -8.8446    3.7570   -7.2425 C   0  0  0  0  0  0  0  0  0  0  0  0
   -7.7035    4.9204  -15.1542 C   0  0  0  0  0  0  0  0  0  0  0  0
   -8.9085    4.4665  -15.6966 C   0  0  0  0  0  0  0  0  0  0  0  0
   -9.0311    4.2782  -17.0706 C   0  0  0  0  0  0  0  0  0  0  0  0
  -10.5829    4.0419  -17.7378 Cl  0  0  0  0  0  0  0  0  0  0  0  0
   -7.9569    4.4266  -17.9425 C   0  0  0  0  0  0  0  0  0  0  0  0
   -6.7642    4.8440  -17.3637 C   0  0  0  0  0  0  0  0  0  0  0  0
   -5.5453    5.1178  -17.9130 N   0  0  0  0  0  0  0  0  0  0  0  0
   -4.7020    5.5055  -16.9012 C   0  0  0  0  0  0  0  0  0  0  0  0
   -3.2729    5.8306  -17.1546 C   0  0  1  0  0  0  0  0  0  0  0  0
   -2.5217    5.5536  -16.0590 F   0  0  0  0  0  0  0  0  0  0  0  0
   -2.7661    5.0083  -18.2459 N   0  0  0  0  0  0  0  0  0  0  0  0
   -1.4878    5.5286  -18.6709 C   0  0  0  0  0  0  0  0  0  0  0  0
   -0.6356    5.5031  -17.6217 F   0  0  0  0  0  0  0  0  0  0  0  0
   -5.3344    5.5371  -15.7467 N   0  0  0  0  0  0  0  0  0  0  0  0
   -6.6086    5.1091  -16.0050 C   0  0  0  0  0  0  0  0  0  0  0  0
  1  2  2  0
  2  3  1  0
  3  4  1  0
  4  5  2  0
  5  6  1  0
  6  7  2  0
  7  8  1  0
  8  9  2  0
  8 10  1  0
 10 11  1  0
 11 12  1  0
  2 13  1  0
 13 14  2  0
 14 15  1  0
 15 16  1  0
 15 17  2  0
 17 18  1  0
 18 19  1  0
 19 20  1  0
 20 21  1  0
 21 22  1  1
 21 23  1  0
 23 24  1  0
 24 25  1  0
 20 26  2  0
 26 27  1  0
  9  4  1  0
 27 13  1  0
 12  7  1  0
 27 18  2  0
M  END
>  <smiles>  (820) 
C103265-P145

>  <fragmenstein_outcome>  (820) 
acceptable

>  <inchikey>  (820) 
LLFZFZJKRHLIJC-UHFFFAOYSA-N

>  <fragmenstein_mode>  (820) 
expansion

>  <HIPPO Pose ID>  (820) 
18467

>  <Energy>  (820) 
15.424447

>  <fragmenstein_error>  (820) 


>  <tags>  (820) 
{'openbind_xx01zvns2b_c1_fragmenstein', 'fragmenstein_placed'}

>  <ref_pdb>  (820) 
1

>  <scratch_subdir>  (820) 
/opt/xchem-fragalysis-2/maxwin/BulkDock/SCRATCH/511027/C103265-P145

>  <alias>  (820) 
O=C(Nc1ccc2c(c1)CNC2)c1cc(Cl)cc2[nH]c([C@@H](F)NCF)nc12

>  <HIPPO Compound ID>  (820) 
107030

>  <fragmenstein_runtime>  (820) 
2.870757

$$$$
CNCn1c(C(F)(F)F)nc2c(C(=O)Nc3cc(C)c4c(c3)CNC4)cc(Cl)cc21
     RDKit          3D

 30 33  0  0  0  0  0  0  0  0999 V2000
   -6.7763    3.7734  -19.8148 C   0  0  0  0  0  0  0  0  0  0  0  0
   -6.1285    5.0736  -19.7471 N   0  0  0  0  0  0  0  0  0  0  0  0
   -5.0005    5.2468  -18.8860 C   0  0  0  0  0  0  0  0  0  0  0  0
   -5.4120    5.3435  -17.4796 N   0  0  0  0  0  0  0  0  0  0  0  0
   -4.5240    5.5537  -16.4371 C   0  0  0  0  0  0  0  0  0  0  0  0
   -3.0738    5.8158  -16.6770 C   0  0  0  0  0  0  0  0  0  0  0  0
   -2.5016    4.8044  -17.3863 F   0  0  0  0  0  0  0  0  0  0  0  0
   -2.8853    6.9443  -17.4135 F   0  0  0  0  0  0  0  0  0  0  0  0
   -2.3461    5.9574  -15.5426 F   0  0  0  0  0  0  0  0  0  0  0  0
   -5.1461    5.4661  -15.2710 N   0  0  0  0  0  0  0  0  0  0  0  0
   -6.4560    5.1691  -15.5480 C   0  0  0  0  0  0  0  0  0  0  0  0
   -7.5671    4.9269  -14.7200 C   0  0  0  0  0  0  0  0  0  0  0  0
   -7.5238    5.3071  -13.2992 C   0  0  0  0  0  0  0  0  0  0  0  0
   -7.1767    6.3853  -13.0210 O   0  0  0  0  0  0  0  0  0  0  0  0
   -8.0681    4.1721  -12.4103 N   0  0  0  0  0  0  0  0  0  0  0  0
   -8.2061    4.0941  -11.0325 C   0  0  0  0  0  0  0  0  0  0  0  0
   -8.0016    5.2236  -10.2213 C   0  0  0  0  0  0  0  0  0  0  0  0
   -8.2247    5.1726   -8.8380 C   0  0  0  0  0  0  0  0  0  0  0  0
   -7.9911    6.3693   -7.9723 C   0  0  0  0  0  0  0  0  0  0  0  0
   -8.6564    3.9640   -8.3112 C   0  0  0  0  0  0  0  0  0  0  0  0
   -8.8323    2.8408   -9.1193 C   0  0  0  0  0  0  0  0  0  0  0  0
   -8.6096    2.8826  -10.4801 C   0  0  0  0  0  0  0  0  0  0  0  0
   -9.2452    1.6872   -8.2723 C   0  0  0  0  0  0  0  0  0  0  0  0
   -9.7201    2.2984   -7.0065 N   0  0  0  0  0  0  0  0  0  0  0  0
   -8.9985    3.5874   -6.9056 C   0  0  0  0  0  0  0  0  0  0  0  0
   -8.7908    4.5011  -15.2773 C   0  0  0  0  0  0  0  0  0  0  0  0
   -8.9471    4.5103  -16.6483 C   0  0  0  0  0  0  0  0  0  0  0  0
  -10.4009    4.1107  -17.4521 Cl  0  0  0  0  0  0  0  0  0  0  0  0
   -7.9255    4.9619  -17.4563 C   0  0  0  0  0  0  0  0  0  0  0  0
   -6.6543    5.1498  -16.9201 C   0  0  0  0  0  0  0  0  0  0  0  0
  1  2  1  0
  2  3  1  0
  3  4  1  0
  4  5  1  0
  5  6  1  0
  6  7  1  0
  6  8  1  0
  6  9  1  0
  5 10  2  0
 10 11  1  0
 11 12  2  0
 12 13  1  0
 13 14  2  0
 13 15  1  0
 15 16  1  0
 16 17  2  0
 17 18  1  0
 18 19  1  0
 18 20  2  0
 20 21  1  0
 21 22  2  0
 21 23  1  0
 23 24  1  0
 24 25  1  0
 12 26  1  0
 26 27  2  0
 27 28  1  0
 27 29  1  0
 29 30  2  0
 30  4  1  0
 30 11  1  0
 22 16  1  0
 25 20  1  0
M  END
>  <smiles>  (821) 
C103266-P145

>  <fragmenstein_outcome>  (821) 
acceptable

>  <inchikey>  (821) 
PHQJRMSKICVPRK-UHFFFAOYSA-N

>  <fragmenstein_mode>  (821) 
expansion

>  <HIPPO Pose ID>  (821) 
18468

>  <Energy>  (821) 
116.219778

>  <fragmenstein_error>  (821) 


>  <tags>  (821) 
{'openbind_xx01zvns2b_c1_fragmenstein', 'fragmenstein_placed'}

>  <ref_pdb>  (821) 
1

>  <scratch_subdir>  (821) 
/opt/xchem-fragalysis-2/maxwin/BulkDock/SCRATCH/511027/C103266-P145

>  <alias>  (821) 
CNCn1c(C(F)(F)F)nc2c(C(=O)Nc3cc(C)c4c(c3)CNC4)cc(Cl)cc21

>  <HIPPO Compound ID>  (821) 
88279

>  <fragmenstein_runtime>  (821) 
5.709698

$$$$
CNCn1c(C(F)(F)F)nc2c(C(=O)Nc3ccc4c(c3)CNC4)cccc21
     RDKit          3D

 28 31  0  0  0  0  0  0  0  0999 V2000
   -4.9454    7.0594  -21.0885 C   0  0  0  0  0  0  0  0  0  0  0  0
   -5.2636    6.7998  -19.6920 N   0  0  0  0  0  0  0  0  0  0  0  0
   -5.3659    5.3575  -19.4565 C   0  0  0  0  0  0  0  0  0  0  0  0
   -5.6296    5.1776  -18.0372 N   0  0  0  0  0  0  0  0  0  0  0  0
   -4.7118    5.2777  -17.0113 C   0  0  0  0  0  0  0  0  0  0  0  0
   -3.2351    5.2141  -17.2074 C   0  0  0  0  0  0  0  0  0  0  0  0
   -2.6666    6.4374  -17.3525 F   0  0  0  0  0  0  0  0  0  0  0  0
   -2.8759    4.4928  -18.3077 F   0  0  0  0  0  0  0  0  0  0  0  0
   -2.6221    4.6115  -16.1580 F   0  0  0  0  0  0  0  0  0  0  0  0
   -5.3445    5.3654  -15.8516 N   0  0  0  0  0  0  0  0  0  0  0  0
   -6.6519    5.0383  -16.1102 C   0  0  0  0  0  0  0  0  0  0  0  0
   -7.7380    4.8575  -15.2415 C   0  0  0  0  0  0  0  0  0  0  0  0
   -7.6483    5.3103  -13.8390 C   0  0  0  0  0  0  0  0  0  0  0  0
   -7.4183    6.4374  -13.6352 O   0  0  0  0  0  0  0  0  0  0  0  0
   -7.9590    4.1567  -12.8562 N   0  0  0  0  0  0  0  0  0  0  0  0
   -8.1388    4.1686  -11.4742 C   0  0  0  0  0  0  0  0  0  0  0  0
   -7.9338    5.3390  -10.7264 C   0  0  0  0  0  0  0  0  0  0  0  0
   -8.1030    5.3424   -9.3380 C   0  0  0  0  0  0  0  0  0  0  0  0
   -8.4749    4.1626   -8.7204 C   0  0  0  0  0  0  0  0  0  0  0  0
   -8.6861    3.0061   -9.4579 C   0  0  0  0  0  0  0  0  0  0  0  0
   -8.5218    2.9875  -10.8345 C   0  0  0  0  0  0  0  0  0  0  0  0
   -9.0924    1.8997   -8.5483 C   0  0  0  0  0  0  0  0  0  0  0  0
   -9.0571    2.4516   -7.1659 N   0  0  0  0  0  0  0  0  0  0  0  0
   -8.7203    3.8878   -7.2787 C   0  0  0  0  0  0  0  0  0  0  0  0
   -8.9424    4.3548  -15.7493 C   0  0  0  0  0  0  0  0  0  0  0  0
   -9.0960    4.1230  -17.1157 C   0  0  0  0  0  0  0  0  0  0  0  0
   -8.0561    4.3853  -18.0117 C   0  0  0  0  0  0  0  0  0  0  0  0
   -6.8398    4.8291  -17.4757 C   0  0  0  0  0  0  0  0  0  0  0  0
  1  2  1  0
  2  3  1  0
  3  4  1  0
  4  5  1  0
  5  6  1  0
  6  7  1  0
  6  8  1  0
  6  9  1  0
  5 10  2  0
 10 11  1  0
 11 12  2  0
 12 13  1  0
 13 14  2  0
 13 15  1  0
 15 16  1  0
 16 17  2  0
 17 18  1  0
 18 19  2  0
 19 20  1  0
 20 21  2  0
 20 22  1  0
 22 23  1  0
 23 24  1  0
 12 25  1  0
 25 26  2  0
 26 27  1  0
 27 28  2  0
 28  4  1  0
 28 11  1  0
 21 16  1  0
 24 19  1  0
M  END
>  <smiles>  (822) 
C103219-P145

>  <fragmenstein_outcome>  (822) 
acceptable

>  <inchikey>  (822) 
SVEYIKQEMBBLDE-UHFFFAOYSA-N

>  <fragmenstein_mode>  (822) 
expansion

>  <HIPPO Pose ID>  (822) 
18469

>  <Energy>  (822) 
106.470275

>  <fragmenstein_error>  (822) 


>  <tags>  (822) 
{'openbind_xx01zvns2b_c1_fragmenstein', 'fragmenstein_placed'}

>  <ref_pdb>  (822) 
1

>  <scratch_subdir>  (822) 
/opt/xchem-fragalysis-2/maxwin/BulkDock/SCRATCH/511027/C103219-P145

>  <alias>  (822) 
CNCn1c(C(F)(F)F)nc2c(C(=O)Nc3ccc4c(c3)CNC4)cccc21

>  <HIPPO Compound ID>  (822) 
92396

>  <fragmenstein_runtime>  (822) 
4.163939

$$$$
NCc1ccc([C@H](N=O)Nc2ccc3c(c2)CNC3)c2nc(C(F)(F)F)[nH]c12
     RDKit          3D

 28 31  0  0  0  0  0  0  0  0999 V2000
   -9.4915    4.4797  -19.4544 N   0  0  0  0  0  0  0  0  0  0  0  0
   -8.3879    3.6991  -18.9558 C   0  0  0  0  0  0  0  0  0  0  0  0
   -8.0455    4.1684  -17.5865 C   0  0  0  0  0  0  0  0  0  0  0  0
   -8.9910    4.0299  -16.5651 C   0  0  0  0  0  0  0  0  0  0  0  0
   -8.6981    4.3727  -15.2616 C   0  0  0  0  0  0  0  0  0  0  0  0
   -7.4294    4.8668  -14.8862 C   0  0  0  0  0  0  0  0  0  0  0  0
   -7.2077    5.1466  -13.4091 C   0  0  2  0  0  0  0  0  0  0  0  0
   -5.7706    5.3262  -13.0629 N   0  0  0  0  0  0  0  0  0  0  0  0
   -5.4521    6.5210  -13.0304 O   0  0  0  0  0  0  0  0  0  0  0  0
   -7.7848    4.0410  -12.6461 N   0  0  0  0  0  0  0  0  0  0  0  0
   -8.0281    4.0920  -11.2761 C   0  0  0  0  0  0  0  0  0  0  0  0
   -7.9854    5.2699  -10.5053 C   0  0  0  0  0  0  0  0  0  0  0  0
   -8.2572    5.2586   -9.1296 C   0  0  0  0  0  0  0  0  0  0  0  0
   -8.6269    4.0641   -8.5448 C   0  0  0  0  0  0  0  0  0  0  0  0
   -8.7301    2.9058   -9.3015 C   0  0  0  0  0  0  0  0  0  0  0  0
   -8.4384    2.9037  -10.6529 C   0  0  0  0  0  0  0  0  0  0  0  0
   -9.1518    1.7769   -8.4238 C   0  0  0  0  0  0  0  0  0  0  0  0
   -9.6331    2.4224   -7.1726 N   0  0  0  0  0  0  0  0  0  0  0  0
   -8.9610    3.7405   -7.1278 C   0  0  0  0  0  0  0  0  0  0  0  0
   -6.5012    5.0918  -15.9296 C   0  0  0  0  0  0  0  0  0  0  0  0
   -5.2267    5.6152  -15.9070 N   0  0  0  0  0  0  0  0  0  0  0  0
   -4.7675    5.5588  -17.1464 C   0  0  0  0  0  0  0  0  0  0  0  0
   -3.4315    5.9443  -17.6792 C   0  0  0  0  0  0  0  0  0  0  0  0
   -3.2982    7.2910  -17.7994 F   0  0  0  0  0  0  0  0  0  0  0  0
   -3.2346    5.4322  -18.9287 F   0  0  0  0  0  0  0  0  0  0  0  0
   -2.4033    5.4998  -16.9156 F   0  0  0  0  0  0  0  0  0  0  0  0
   -5.7319    5.0626  -17.9837 N   0  0  0  0  0  0  0  0  0  0  0  0
   -6.8322    4.7458  -17.2320 C   0  0  0  0  0  0  0  0  0  0  0  0
  1  2  1  0
  2  3  1  0
  3  4  2  0
  4  5  1  0
  5  6  2  0
  6  7  1  0
  7  8  1  0
  8  9  2  0
  7 10  1  1
 10 11  1  0
 11 12  2  0
 12 13  1  0
 13 14  2  0
 14 15  1  0
 15 16  2  0
 15 17  1  0
 17 18  1  0
 18 19  1  0
  6 20  1  0
 20 21  1  0
 21 22  2  0
 22 23  1  0
 23 24  1  0
 23 25  1  0
 23 26  1  0
 22 27  1  0
 27 28  1  0
 28  3  1  0
 16 11  1  0
 28 20  2  0
 19 14  1  0
M  END
>  <smiles>  (823) 
C103271-P145

>  <fragmenstein_outcome>  (823) 
acceptable

>  <inchikey>  (823) 
ICOUZEWTXYBYSG-UHFFFAOYSA-N

>  <fragmenstein_mode>  (823) 
expansion

>  <HIPPO Pose ID>  (823) 
18472

>  <Energy>  (823) 
68.931492

>  <fragmenstein_error>  (823) 


>  <tags>  (823) 
{'openbind_xx01zvns2b_c1_fragmenstein', 'fragmenstein_placed'}

>  <ref_pdb>  (823) 
1

>  <scratch_subdir>  (823) 
/opt/xchem-fragalysis-2/maxwin/BulkDock/SCRATCH/511027/C103271-P145

>  <alias>  (823) 
NCc1ccc([C@H](N=O)Nc2ccc3c(c2)CNC3)c2nc(C(F)(F)F)[nH]c12

>  <HIPPO Compound ID>  (823) 
76620

>  <fragmenstein_runtime>  (823) 
2.019285

$$$$
O=C(Nc1ccc2c(c1)CNC2)c1cc(F)cc2c1N=C1C2=NN=C1N(F)CF
     RDKit          3D

 29 33  0  0  0  0  0  0  0  0999 V2000
   -7.5685    6.4603  -13.7279 O   0  0  0  0  0  0  0  0  0  0  0  0
   -7.7278    5.3208  -13.9295 C   0  0  0  0  0  0  0  0  0  0  0  0
   -8.0730    4.1686  -12.9558 N   0  0  0  0  0  0  0  0  0  0  0  0
   -8.1961    4.1628  -11.5664 C   0  0  0  0  0  0  0  0  0  0  0  0
   -8.0083    5.3302  -10.8086 C   0  0  0  0  0  0  0  0  0  0  0  0
   -8.1714    5.3181   -9.4178 C   0  0  0  0  0  0  0  0  0  0  0  0
   -8.5338    4.1295   -8.8118 C   0  0  0  0  0  0  0  0  0  0  0  0
   -8.7078    2.9684   -9.5578 C   0  0  0  0  0  0  0  0  0  0  0  0
   -8.5349    2.9633  -10.9321 C   0  0  0  0  0  0  0  0  0  0  0  0
   -9.0719    1.8485   -8.6394 C   0  0  0  0  0  0  0  0  0  0  0  0
   -9.4692    2.5075   -7.3665 N   0  0  0  0  0  0  0  0  0  0  0  0
   -8.7918    3.8233   -7.3747 C   0  0  0  0  0  0  0  0  0  0  0  0
   -7.7038    4.8525  -15.3325 C   0  0  0  0  0  0  0  0  0  0  0  0
   -8.8693    4.3242  -15.9060 C   0  0  0  0  0  0  0  0  0  0  0  0
   -8.9276    4.0461  -17.2814 C   0  0  0  0  0  0  0  0  0  0  0  0
  -10.0601    3.5478  -17.7866 F   0  0  0  0  0  0  0  0  0  0  0  0
   -7.8511    4.2747  -18.1262 C   0  0  0  0  0  0  0  0  0  0  0  0
   -6.7145    4.7577  -17.5221 C   0  0  0  0  0  0  0  0  0  0  0  0
   -6.5954    5.0469  -16.1403 C   0  0  0  0  0  0  0  0  0  0  0  0
   -5.2779    5.4565  -15.7493 N   0  0  0  0  0  0  0  0  0  0  0  0
   -4.6141    5.4046  -16.8593 C   0  0  0  0  0  0  0  0  0  0  0  0
   -5.4050    5.0148  -18.0107 C   0  0  0  0  0  0  0  0  0  0  0  0
   -4.6812    5.0030  -19.0745 N   0  0  0  0  0  0  0  0  0  0  0  0
   -3.3034    5.3649  -18.6592 N   0  0  0  0  0  0  0  0  0  0  0  0
   -3.2574    5.5992  -17.3678 C   0  0  0  0  0  0  0  0  0  0  0  0
   -2.1782    5.9192  -16.5922 N   0  0  0  0  0  0  0  0  0  0  0  0
   -2.6420    6.7798  -15.5379 F   0  0  0  0  0  0  0  0  0  0  0  0
   -1.0373    6.5634  -17.1901 C   0  0  0  0  0  0  0  0  0  0  0  0
   -1.3755    7.8207  -17.5833 F   0  0  0  0  0  0  0  0  0  0  0  0
  1  2  2  0
  2  3  1  0
  3  4  1  0
  4  5  2  0
  5  6  1  0
  6  7  2  0
  7  8  1  0
  8  9  2  0
  8 10  1  0
 10 11  1  0
 11 12  1  0
  2 13  1  0
 13 14  2  0
 14 15  1  0
 15 16  1  0
 15 17  2  0
 17 18  1  0
 18 19  2  0
 19 20  1  0
 20 21  2  0
 21 22  1  0
 22 23  2  0
 23 24  1  0
 24 25  2  0
 25 26  1  0
 26 27  1  0
 26 28  1  0
 28 29  1  0
  9  4  1  0
 19 13  1  0
 25 21  1  0
 12  7  1  0
 22 18  1  0
M  END
>  <smiles>  (824) 
C103272-P145

>  <fragmenstein_outcome>  (824) 
acceptable

>  <inchikey>  (824) 
SBWSSYDTQTWLJX-UHFFFAOYSA-N

>  <fragmenstein_mode>  (824) 
expansion

>  <HIPPO Pose ID>  (824) 
18473

>  <Energy>  (824) 
115.492351

>  <fragmenstein_error>  (824) 


>  <tags>  (824) 
{'openbind_xx01zvns2b_c1_fragmenstein', 'fragmenstein_placed'}

>  <ref_pdb>  (824) 
1

>  <scratch_subdir>  (824) 
/opt/xchem-fragalysis-2/maxwin/BulkDock/SCRATCH/511027/C103272-P145

>  <alias>  (824) 
O=C(Nc1ccc2c(c1)CNC2)c1cc(F)cc2c1N=C1C2=NN=C1N(F)CF

>  <HIPPO Compound ID>  (824) 
103272

>  <fragmenstein_runtime>  (824) 
3.264996

$$$$
O=C(Nc1ccc2c(c1)CNC2)c1cc(F)cc2c1nc1n2CNCS1(F)F
     RDKit          3D

 28 32  0  0  0  0  0  0  0  0999 V2000
   -7.3644    6.4028  -13.6888 O   0  0  0  0  0  0  0  0  0  0  0  0
   -7.6385    5.2870  -13.8994 C   0  0  0  0  0  0  0  0  0  0  0  0
   -8.0809    4.1624  -12.9314 N   0  0  0  0  0  0  0  0  0  0  0  0
   -8.1826    4.1526  -11.5402 C   0  0  0  0  0  0  0  0  0  0  0  0
   -7.9933    5.3201  -10.7833 C   0  0  0  0  0  0  0  0  0  0  0  0
   -8.1585    5.3088   -9.3929 C   0  0  0  0  0  0  0  0  0  0  0  0
   -8.5268    4.1217   -8.7875 C   0  0  0  0  0  0  0  0  0  0  0  0
   -8.7022    2.9607   -9.5332 C   0  0  0  0  0  0  0  0  0  0  0  0
   -8.5260    2.9542  -10.9067 C   0  0  0  0  0  0  0  0  0  0  0  0
   -9.0755    1.8429   -8.6162 C   0  0  0  0  0  0  0  0  0  0  0  0
   -9.4759    2.5043   -7.3456 N   0  0  0  0  0  0  0  0  0  0  0  0
   -8.7929    3.8175   -7.3515 C   0  0  0  0  0  0  0  0  0  0  0  0
   -7.6841    4.8280  -15.3085 C   0  0  0  0  0  0  0  0  0  0  0  0
   -8.8573    4.2414  -15.8072 C   0  0  0  0  0  0  0  0  0  0  0  0
   -8.9997    4.0155  -17.1694 C   0  0  0  0  0  0  0  0  0  0  0  0
  -10.1383    3.4890  -17.6299 F   0  0  0  0  0  0  0  0  0  0  0  0
   -8.0157    4.3652  -18.0863 C   0  0  0  0  0  0  0  0  0  0  0  0
   -6.8478    4.9334  -17.5712 C   0  0  0  0  0  0  0  0  0  0  0  0
   -6.6413    5.1419  -16.2029 C   0  0  0  0  0  0  0  0  0  0  0  0
   -5.3852    5.6635  -15.9877 N   0  0  0  0  0  0  0  0  0  0  0  0
   -4.8607    5.8246  -17.1797 C   0  0  0  0  0  0  0  0  0  0  0  0
   -5.7297    5.4632  -18.1690 N   0  0  0  0  0  0  0  0  0  0  0  0
   -5.5859    5.7880  -19.5843 C   0  0  0  0  0  0  0  0  0  0  0  0
   -4.1749    5.8432  -19.9999 N   0  0  0  0  0  0  0  0  0  0  0  0
   -3.3980    6.8197  -19.2411 C   0  0  0  0  0  0  0  0  0  0  0  0
   -3.3003    6.4646  -17.5294 S   0  0  0  0  0  0  0  0  0  0  0  0
   -3.0096    7.7789  -16.7041 F   0  0  0  0  0  0  0  0  0  0  0  0
   -2.1786    5.3856  -17.2560 F   0  0  0  0  0  0  0  0  0  0  0  0
  1  2  2  0
  2  3  1  0
  3  4  1  0
  4  5  2  0
  5  6  1  0
  6  7  2  0
  7  8  1  0
  8  9  2  0
  8 10  1  0
 10 11  1  0
 11 12  1  0
  2 13  1  0
 13 14  2  0
 14 15  1  0
 15 16  1  0
 15 17  2  0
 17 18  1  0
 18 19  2  0
 19 20  1  0
 20 21  2  0
 21 22  1  0
 22 23  1  0
 23 24  1  0
 24 25  1  0
 25 26  1  0
 26 27  1  0
 26 28  1  0
  9  4  1  0
 19 13  1  0
 26 21  1  0
 12  7  1  0
 22 18  1  0
M  END
>  <smiles>  (825) 
C103273-P145

>  <fragmenstein_outcome>  (825) 
acceptable

>  <inchikey>  (825) 
PGQJNRPSGJLREY-UHFFFAOYSA-N

>  <fragmenstein_mode>  (825) 
expansion

>  <HIPPO Pose ID>  (825) 
18474

>  <Energy>  (825) 
92.255111

>  <fragmenstein_error>  (825) 


>  <tags>  (825) 
{'openbind_xx01zvns2b_c1_fragmenstein', 'fragmenstein_placed'}

>  <ref_pdb>  (825) 
1

>  <scratch_subdir>  (825) 
/opt/xchem-fragalysis-2/maxwin/BulkDock/SCRATCH/511027/C103273-P145

>  <alias>  (825) 
O=C(Nc1ccc2c(c1)CNC2)c1cc(F)cc2c1nc1n2CNCS1(F)F

>  <HIPPO Compound ID>  (825) 
103273

>  <fragmenstein_runtime>  (825) 
3.428397

$$$$
O=C(Nc1ccc2c(c1)CNC2)c1cccc2c1NC1(CCN(CF)CC1)N2
     RDKit          3D

 28 32  0  0  0  0  0  0  0  0999 V2000
   -7.3296    6.5892  -13.7565 O   0  0  0  0  0  0  0  0  0  0  0  0
   -7.5860    5.4666  -13.9647 C   0  0  0  0  0  0  0  0  0  0  0  0
   -7.9137    4.3098  -12.9812 N   0  0  0  0  0  0  0  0  0  0  0  0
   -8.0805    4.3182  -11.5954 C   0  0  0  0  0  0  0  0  0  0  0  0
   -7.8672    5.4766  -10.8350 C   0  0  0  0  0  0  0  0  0  0  0  0
   -8.0340    5.4613   -9.4447 C   0  0  0  0  0  0  0  0  0  0  0  0
   -8.4103    4.2761   -8.8373 C   0  0  0  0  0  0  0  0  0  0  0  0
   -8.6319    3.1298   -9.5863 C   0  0  0  0  0  0  0  0  0  0  0  0
   -8.4714    3.1304  -10.9644 C   0  0  0  0  0  0  0  0  0  0  0  0
   -9.0511    2.0175   -8.6875 C   0  0  0  0  0  0  0  0  0  0  0  0
   -8.9951    2.5517   -7.2988 N   0  0  0  0  0  0  0  0  0  0  0  0
   -8.6524    3.9869   -7.3972 C   0  0  0  0  0  0  0  0  0  0  0  0
   -7.6983    5.0062  -15.3719 C   0  0  0  0  0  0  0  0  0  0  0  0
   -8.8764    4.3762  -15.8060 C   0  0  0  0  0  0  0  0  0  0  0  0
   -9.0300    3.9798  -17.1430 C   0  0  0  0  0  0  0  0  0  0  0  0
   -7.9890    4.1571  -18.0480 C   0  0  0  0  0  0  0  0  0  0  0  0
   -6.8360    4.7712  -17.5986 C   0  0  0  0  0  0  0  0  0  0  0  0
   -6.6895    5.2282  -16.2950 C   0  0  0  0  0  0  0  0  0  0  0  0
   -5.4103    5.8049  -16.1178 N   0  0  0  0  0  0  0  0  0  0  0  0
   -4.8213    5.7961  -17.4751 C   0  0  0  0  0  0  0  0  0  0  0  0
   -3.3726    5.3126  -17.3477 C   0  0  0  0  0  0  0  0  0  0  0  0
   -2.6409    5.3201  -18.6838 C   0  0  0  0  0  0  0  0  0  0  0  0
   -2.6656    6.6535  -19.2946 N   0  0  0  0  0  0  0  0  0  0  0  0
   -1.9451    6.6221  -20.5662 C   0  0  0  0  0  0  0  0  0  0  0  0
   -2.4670    5.6653  -21.3881 F   0  0  0  0  0  0  0  0  0  0  0  0
   -4.0458    7.1296  -19.4744 C   0  0  0  0  0  0  0  0  0  0  0  0
   -4.8087    7.1788  -18.1377 C   0  0  0  0  0  0  0  0  0  0  0  0
   -5.6390    4.9235  -18.3400 N   0  0  0  0  0  0  0  0  0  0  0  0
  1  2  2  0
  2  3  1  0
  3  4  1  0
  4  5  2  0
  5  6  1  0
  6  7  2  0
  7  8  1  0
  8  9  2  0
  8 10  1  0
 10 11  1  0
 11 12  1  0
  2 13  1  0
 13 14  2  0
 14 15  1  0
 15 16  2  0
 16 17  1  0
 17 18  2  0
 18 19  1  0
 19 20  1  0
 20 21  1  0
 21 22  1  0
 22 23  1  0
 23 24  1  0
 24 25  1  0
 23 26  1  0
 26 27  1  0
 20 28  1  0
  9  4  1  0
 18 13  1  0
 27 20  1  0
 12  7  1  0
 28 17  1  0
M  END
>  <smiles>  (826) 
C103275-P145

>  <fragmenstein_outcome>  (826) 
acceptable

>  <inchikey>  (826) 
IAADNDSJYDXUNV-UHFFFAOYSA-N

>  <fragmenstein_mode>  (826) 
expansion

>  <HIPPO Pose ID>  (826) 
18475

>  <Energy>  (826) 
22.516625

>  <fragmenstein_error>  (826) 


>  <tags>  (826) 
{'openbind_xx01zvns2b_c1_fragmenstein', 'fragmenstein_placed'}

>  <ref_pdb>  (826) 
1

>  <scratch_subdir>  (826) 
/opt/xchem-fragalysis-2/maxwin/BulkDock/SCRATCH/511027/C103275-P145

>  <alias>  (826) 
O=C(Nc1ccc2c(c1)CNC2)c1cccc2c1NC1(CCN(CF)CC1)N2

>  <HIPPO Compound ID>  (826) 
86459

>  <fragmenstein_runtime>  (826) 
4.449425

$$$$
O=C(Nc1ccc2c(c1)CNC2)c1cc(Cl)cc2c1nc(C(F)(F)F)n2NC1CNC1
     RDKit          3D

 31 35  0  0  0  0  0  0  0  0999 V2000
   -7.0099    6.3809  -13.6136 O   0  0  0  0  0  0  0  0  0  0  0  0
   -7.4050    5.3081  -13.8549 C   0  0  0  0  0  0  0  0  0  0  0  0
   -7.9790    4.2150  -12.9181 N   0  0  0  0  0  0  0  0  0  0  0  0
   -8.0932    4.1816  -11.5281 C   0  0  0  0  0  0  0  0  0  0  0  0
   -7.8767    5.3305  -10.7505 C   0  0  0  0  0  0  0  0  0  0  0  0
   -8.0739    5.3068   -9.3644 C   0  0  0  0  0  0  0  0  0  0  0  0
   -8.4885    4.1233   -8.7821 C   0  0  0  0  0  0  0  0  0  0  0  0
   -8.6825    2.9777   -9.5467 C   0  0  0  0  0  0  0  0  0  0  0  0
   -8.4911    2.9871  -10.9187 C   0  0  0  0  0  0  0  0  0  0  0  0
   -9.0832    1.8544   -8.6481 C   0  0  0  0  0  0  0  0  0  0  0  0
   -9.4861    2.5046   -7.3729 N   0  0  0  0  0  0  0  0  0  0  0  0
   -8.7851    3.8081   -7.3543 C   0  0  0  0  0  0  0  0  0  0  0  0
   -7.4905    4.8906  -15.2727 C   0  0  0  0  0  0  0  0  0  0  0  0
   -8.7397    4.5069  -15.7767 C   0  0  0  0  0  0  0  0  0  0  0  0
   -8.9168    4.3410  -17.1439 C   0  0  0  0  0  0  0  0  0  0  0  0
  -10.4935    4.1124  -17.7540 Cl  0  0  0  0  0  0  0  0  0  0  0  0
   -7.8758    4.5105  -18.0524 C   0  0  0  0  0  0  0  0  0  0  0  0
   -6.6349    4.8864  -17.5306 C   0  0  0  0  0  0  0  0  0  0  0  0
   -6.4127    5.0570  -16.1628 C   0  0  0  0  0  0  0  0  0  0  0  0
   -5.0943    5.3572  -15.9380 N   0  0  0  0  0  0  0  0  0  0  0  0
   -4.5009    5.3210  -17.1245 C   0  0  0  0  0  0  0  0  0  0  0  0
   -3.0480    5.3711  -17.4006 C   0  0  0  0  0  0  0  0  0  0  0  0
   -2.6469    4.4055  -18.2702 F   0  0  0  0  0  0  0  0  0  0  0  0
   -2.2986    5.2073  -16.2786 F   0  0  0  0  0  0  0  0  0  0  0  0
   -2.6708    6.5598  -17.9370 F   0  0  0  0  0  0  0  0  0  0  0  0
   -5.4342    5.2034  -18.1286 N   0  0  0  0  0  0  0  0  0  0  0  0
   -5.2580    5.3259  -19.5565 N   0  0  0  0  0  0  0  0  0  0  0  0
   -4.5637    6.5554  -19.9702 C   0  0  0  0  0  0  0  0  0  0  0  0
   -5.2690    7.8313  -19.4714 C   0  0  0  0  0  0  0  0  0  0  0  0
   -5.0963    8.4176  -20.8236 N   0  0  0  0  0  0  0  0  0  0  0  0
   -5.0082    7.0326  -21.3679 C   0  0  0  0  0  0  0  0  0  0  0  0
  1  2  2  0
  2  3  1  0
  3  4  1  0
  4  5  2  0
  5  6  1  0
  6  7  2  0
  7  8  1  0
  8  9  2  0
  8 10  1  0
 10 11  1  0
 11 12  1  0
  2 13  1  0
 13 14  2  0
 14 15  1  0
 15 16  1  0
 15 17  2  0
 17 18  1  0
 18 19  2  0
 19 20  1  0
 20 21  2  0
 21 22  1  0
 22 23  1  0
 22 24  1  0
 22 25  1  0
 21 26  1  0
 26 27  1  0
 27 28  1  0
 28 29  1  0
 29 30  1  0
 30 31  1  0
  9  4  1  0
 19 13  1  0
 31 28  1  0
 12  7  1  0
 26 18  1  0
M  END
>  <smiles>  (827) 
C103278-P145

>  <fragmenstein_outcome>  (827) 
acceptable

>  <inchikey>  (827) 
KDWWCVQMSMWPMY-UHFFFAOYSA-N

>  <fragmenstein_mode>  (827) 
expansion

>  <HIPPO Pose ID>  (827) 
18478

>  <Energy>  (827) 
115.300744

>  <fragmenstein_error>  (827) 


>  <tags>  (827) 
{'openbind_xx01zvns2b_c1_fragmenstein', 'fragmenstein_placed'}

>  <ref_pdb>  (827) 
1

>  <scratch_subdir>  (827) 
/opt/xchem-fragalysis-2/maxwin/BulkDock/SCRATCH/511027/C103278-P145

>  <alias>  (827) 
O=C(Nc1ccc2c(c1)CNC2)c1cc(Cl)cc2c1nc(C(F)(F)F)n2NC1CNC1

>  <HIPPO Compound ID>  (827) 
85017

>  <fragmenstein_runtime>  (827) 
7.757085

$$$$
O=C(Nc1ccc2c(c1)CNC2)c1cc(Cl)cc2c1N[C@H]1C(F)(F)O[C@@H]3NCC[C@@]231
     RDKit          3D

 30 35  0  0  0  0  0  0  0  0999 V2000
   -7.1957    6.6616  -13.3631 O   0  0  0  0  0  0  0  0  0  0  0  0
   -7.4216    5.5506  -13.6444 C   0  0  0  0  0  0  0  0  0  0  0  0
   -7.8994    4.3700  -12.7642 N   0  0  0  0  0  0  0  0  0  0  0  0
   -8.0999    4.2908  -11.3871 C   0  0  0  0  0  0  0  0  0  0  0  0
   -7.9642    5.4288  -10.5755 C   0  0  0  0  0  0  0  0  0  0  0  0
   -8.1624    5.3532   -9.1939 C   0  0  0  0  0  0  0  0  0  0  0  0
   -8.5052    4.1305   -8.6481 C   0  0  0  0  0  0  0  0  0  0  0  0
   -8.6553    3.0066   -9.4488 C   0  0  0  0  0  0  0  0  0  0  0  0
   -8.4530    3.0636  -10.8202 C   0  0  0  0  0  0  0  0  0  0  0  0
   -9.0429    1.8416   -8.6052 C   0  0  0  0  0  0  0  0  0  0  0  0
   -9.1275    2.3394   -7.2046 N   0  0  0  0  0  0  0  0  0  0  0  0
   -8.7754    3.7751   -7.2283 C   0  0  0  0  0  0  0  0  0  0  0  0
   -7.3247    5.1533  -15.0777 C   0  0  0  0  0  0  0  0  0  0  0  0
   -8.4004    4.4986  -15.6820 C   0  0  0  0  0  0  0  0  0  0  0  0
   -8.3985    4.3064  -17.0672 C   0  0  0  0  0  0  0  0  0  0  0  0
   -9.7777    3.6457  -17.8052 Cl  0  0  0  0  0  0  0  0  0  0  0  0
   -7.3493    4.7345  -17.8770 C   0  0  0  0  0  0  0  0  0  0  0  0
   -6.2950    5.3896  -17.2717 C   0  0  0  0  0  0  0  0  0  0  0  0
   -6.2664    5.5794  -15.8833 C   0  0  0  0  0  0  0  0  0  0  0  0
   -5.1547    6.3589  -15.4852 N   0  0  0  0  0  0  0  0  0  0  0  0
   -4.2747    6.4137  -16.6764 C   0  0  1  0  0  0  0  0  0  0  0  0
   -3.1497    5.3788  -16.7408 C   0  0  0  0  0  0  0  0  0  0  0  0
   -3.3023    4.3917  -15.8318 F   0  0  0  0  0  0  0  0  0  0  0  0
   -1.9511    5.9605  -16.4953 F   0  0  0  0  0  0  0  0  0  0  0  0
   -3.0935    4.7918  -18.0313 O   0  0  0  0  0  0  0  0  0  0  0  0
   -4.1739    5.3010  -18.7895 C   0  0  2  0  0  0  0  0  0  0  0  0
   -3.6512    6.2208  -19.8025 N   0  0  0  0  0  0  0  0  0  0  0  0
   -4.2232    7.5417  -19.5526 C   0  0  0  0  0  0  0  0  0  0  0  0
   -5.4924    7.2868  -18.7542 C   0  0  0  0  0  0  0  0  0  0  0  0
   -5.1257    6.0791  -17.9023 C   0  0  1  0  0  0  0  0  0  0  0  0
  1  2  2  0
  2  3  1  0
  3  4  1  0
  4  5  2  0
  5  6  1  0
  6  7  2  0
  7  8  1  0
  8  9  2  0
  8 10  1  0
 10 11  1  0
 11 12  1  0
  2 13  1  0
 13 14  2  0
 14 15  1  0
 15 16  1  0
 15 17  2  0
 17 18  1  0
 18 19  2  0
 19 20  1  0
 21 20  1  1
 21 22  1  0
 22 23  1  0
 22 24  1  0
 22 25  1  0
 25 26  1  0
 26 27  1  6
 27 28  1  0
 28 29  1  0
 30 29  1  6
  9  4  1  0
 19 13  1  0
 30 21  1  0
 12  7  1  0
 30 18  1  0
 30 26  1  0
M  END
>  <smiles>  (828) 
C103279-P145

>  <fragmenstein_outcome>  (828) 
acceptable

>  <inchikey>  (828) 
ZKJOMRHCSUACFD-UHFFFAOYSA-N

>  <fragmenstein_mode>  (828) 
expansion

>  <HIPPO Pose ID>  (828) 
18479

>  <Energy>  (828) 
107.615339

>  <fragmenstein_error>  (828) 


>  <tags>  (828) 
{'openbind_xx01zvns2b_c1_fragmenstein', 'fragmenstein_placed'}

>  <ref_pdb>  (828) 
1

>  <scratch_subdir>  (828) 
/opt/xchem-fragalysis-2/maxwin/BulkDock/SCRATCH/511027/C103279-P145

>  <alias>  (828) 
O=C(Nc1ccc2c(c1)CNC2)c1cc(Cl)cc2c1N[C@H]1C(F)(F)O[C@@H]3NCC[C@@]231

>  <HIPPO Compound ID>  (828) 
106583

>  <fragmenstein_runtime>  (828) 
6.179491

$$$$
Cc1nc2c(C(=O)Nc3ccc4c(c3)CNC4)cc(Cl)c3ncn1c32
     RDKit          3D

 25 29  0  0  0  0  0  0  0  0999 V2000
   -3.1885    5.8900  -17.4916 C   0  0  0  0  0  0  0  0  0  0  0  0
   -4.5370    5.5666  -16.9896 C   0  0  0  0  0  0  0  0  0  0  0  0
   -4.9895    5.6643  -15.7141 N   0  0  0  0  0  0  0  0  0  0  0  0
   -6.3207    5.2238  -15.7179 C   0  0  0  0  0  0  0  0  0  0  0  0
   -7.4409    5.0362  -14.9044 C   0  0  0  0  0  0  0  0  0  0  0  0
   -7.4672    5.4634  -13.5009 C   0  0  0  0  0  0  0  0  0  0  0  0
   -7.2110    6.5725  -13.2435 O   0  0  0  0  0  0  0  0  0  0  0  0
   -7.9527    4.3100  -12.5925 N   0  0  0  0  0  0  0  0  0  0  0  0
   -8.1264    4.2582  -11.2147 C   0  0  0  0  0  0  0  0  0  0  0  0
   -7.9196    5.3880  -10.4103 C   0  0  0  0  0  0  0  0  0  0  0  0
   -8.1169    5.3235   -9.0282 C   0  0  0  0  0  0  0  0  0  0  0  0
   -8.5161    4.1189   -8.4779 C   0  0  0  0  0  0  0  0  0  0  0  0
   -8.7194    3.0007   -9.2739 C   0  0  0  0  0  0  0  0  0  0  0  0
   -8.5322    3.0490  -10.6448 C   0  0  0  0  0  0  0  0  0  0  0  0
   -9.1246    1.8468   -8.4255 C   0  0  0  0  0  0  0  0  0  0  0  0
   -9.2416    2.3650   -7.0359 N   0  0  0  0  0  0  0  0  0  0  0  0
   -8.7917    3.7741   -7.0562 C   0  0  0  0  0  0  0  0  0  0  0  0
   -8.6441    4.5466  -15.5281 C   0  0  0  0  0  0  0  0  0  0  0  0
   -8.7206    4.2589  -16.9198 C   0  0  0  0  0  0  0  0  0  0  0  0
  -10.1460    3.9058  -17.7315 Cl  0  0  0  0  0  0  0  0  0  0  0  0
   -7.5888    4.4197  -17.7047 C   0  0  0  0  0  0  0  0  0  0  0  0
   -7.1107    4.3043  -19.0077 N   0  0  0  0  0  0  0  0  0  0  0  0
   -5.8501    4.7922  -18.9948 C   0  0  0  0  0  0  0  0  0  0  0  0
   -5.5317    5.0959  -17.7450 N   0  0  0  0  0  0  0  0  0  0  0  0
   -6.5557    4.8828  -16.9920 C   0  0  0  0  0  0  0  0  0  0  0  0
  1  2  1  0
  2  3  2  0
  3  4  1  0
  4  5  1  0
  5  6  1  0
  6  7  2  0
  6  8  1  0
  8  9  1  0
  9 10  2  0
 10 11  1  0
 11 12  2  0
 12 13  1  0
 13 14  2  0
 13 15  1  0
 15 16  1  0
 16 17  1  0
  5 18  2  0
 18 19  1  0
 19 20  1  0
 19 21  2  0
 21 22  1  0
 22 23  2  0
 23 24  1  0
 24 25  1  0
 24  2  1  0
 25  4  2  0
 14  9  1  0
 25 21  1  0
 17 12  1  0
M  END
>  <smiles>  (829) 
C39438-P145

>  <fragmenstein_outcome>  (829) 
acceptable

>  <inchikey>  (829) 
KMRPHCMSBPNGMI-UHFFFAOYSA-N

>  <fragmenstein_mode>  (829) 
expansion

>  <HIPPO Pose ID>  (829) 
18480

>  <Energy>  (829) 
105.19561

>  <fragmenstein_error>  (829) 


>  <tags>  (829) 
{'openbind_xx01zvns2b_c1_fragmenstein', 'fragmenstein_placed'}

>  <ref_pdb>  (829) 
1

>  <scratch_subdir>  (829) 
/opt/xchem-fragalysis-2/maxwin/BulkDock/SCRATCH/511027/C39438-P145

>  <alias>  (829) 
Cc1nc2c(C(=O)Nc3ccc4c(c3)CNC4)cc(Cl)c3ncn1c32

>  <HIPPO Compound ID>  (829) 
30079

>  <fragmenstein_runtime>  (829) 
3.27349

$$$$
CC(C)(N)c1nc2cc(Cl)cc(C(=O)Nc3ccc4c(c3)CNC4)c2[nH]1
     RDKit          3D

 26 29  0  0  0  0  0  0  0  0999 V2000
   -2.5003    5.5239  -17.0212 C   0  0  0  0  0  0  0  0  0  0  0  0
   -3.5849    5.8073  -18.0582 C   0  0  0  0  0  0  0  0  0  0  0  0
   -3.6015    7.2998  -18.4110 C   0  0  0  0  0  0  0  0  0  0  0  0
   -3.2943    5.0554  -19.2974 N   0  0  0  0  0  0  0  0  0  0  0  0
   -4.9414    5.3799  -17.5968 C   0  0  0  0  0  0  0  0  0  0  0  0
   -5.8574    4.9426  -18.4330 N   0  0  0  0  0  0  0  0  0  0  0  0
   -6.9543    4.7014  -17.6804 C   0  0  0  0  0  0  0  0  0  0  0  0
   -8.2136    4.3170  -18.1166 C   0  0  0  0  0  0  0  0  0  0  0  0
   -9.2075    4.2194  -17.1582 C   0  0  0  0  0  0  0  0  0  0  0  0
  -10.8108    4.1075  -17.7248 Cl  0  0  0  0  0  0  0  0  0  0  0  0
   -8.9471    4.3702  -15.7949 C   0  0  0  0  0  0  0  0  0  0  0  0
   -7.6753    4.7439  -15.3493 C   0  0  0  0  0  0  0  0  0  0  0  0
   -7.4222    5.1110  -13.9366 C   0  0  0  0  0  0  0  0  0  0  0  0
   -6.8844    6.1280  -13.7285 O   0  0  0  0  0  0  0  0  0  0  0  0
   -8.0037    4.0635  -12.9549 N   0  0  0  0  0  0  0  0  0  0  0  0
   -8.1249    4.0932  -11.5656 C   0  0  0  0  0  0  0  0  0  0  0  0
   -7.8234    5.2453  -10.8225 C   0  0  0  0  0  0  0  0  0  0  0  0
   -8.0052    5.2697   -9.4335 C   0  0  0  0  0  0  0  0  0  0  0  0
   -8.4667    4.1239   -8.8115 C   0  0  0  0  0  0  0  0  0  0  0  0
   -8.7290    2.9702   -9.5415 C   0  0  0  0  0  0  0  0  0  0  0  0
   -8.5800    2.9408  -10.9177 C   0  0  0  0  0  0  0  0  0  0  0  0
   -9.1250    1.8783   -8.6035 C   0  0  0  0  0  0  0  0  0  0  0  0
   -9.4685    2.5678   -7.3329 N   0  0  0  0  0  0  0  0  0  0  0  0
   -8.7412    3.8564   -7.3692 C   0  0  0  0  0  0  0  0  0  0  0  0
   -6.7068    4.9386  -16.3350 C   0  0  0  0  0  0  0  0  0  0  0  0
   -5.4103    5.3913  -16.3061 N   0  0  0  0  0  0  0  0  0  0  0  0
  1  2  1  0
  2  3  1  0
  2  4  1  0
  2  5  1  0
  5  6  2  0
  6  7  1  0
  7  8  2  0
  8  9  1  0
  9 10  1  0
  9 11  2  0
 11 12  1  0
 12 13  1  0
 13 14  2  0
 13 15  1  0
 15 16  1  0
 16 17  2  0
 17 18  1  0
 18 19  2  0
 19 20  1  0
 20 21  2  0
 20 22  1  0
 22 23  1  0
 23 24  1  0
 12 25  2  0
 25 26  1  0
 26  5  1  0
 25  7  1  0
 21 16  1  0
 24 19  1  0
M  END
>  <smiles>  (830) 
C103285-P145

>  <fragmenstein_outcome>  (830) 
acceptable

>  <inchikey>  (830) 
LLDYSSXGSZQIAR-UHFFFAOYSA-N

>  <fragmenstein_mode>  (830) 
expansion

>  <HIPPO Pose ID>  (830) 
18483

>  <Energy>  (830) 
27.772852

>  <fragmenstein_error>  (830) 


>  <tags>  (830) 
{'openbind_xx01zvns2b_c1_fragmenstein', 'fragmenstein_placed'}

>  <ref_pdb>  (830) 
1

>  <scratch_subdir>  (830) 
/opt/xchem-fragalysis-2/maxwin/BulkDock/SCRATCH/511027/C103285-P145

>  <alias>  (830) 
CC(C)(N)c1nc2cc(Cl)cc(C(=O)Nc3ccc4c(c3)CNC4)c2[nH]1

>  <HIPPO Compound ID>  (830) 
103285

>  <fragmenstein_runtime>  (830) 
4.235152

$$$$
Cc1nc2c(C(=O)Nc3ccc4c(c3)CNC4)cc(Cl)cc2n1CN
     RDKit          3D

 25 28  0  0  0  0  0  0  0  0999 V2000
   -3.1281    5.7244  -17.3275 C   0  0  0  0  0  0  0  0  0  0  0  0
   -4.5542    5.4991  -17.0324 C   0  0  0  0  0  0  0  0  0  0  0  0
   -5.1001    5.3366  -15.8460 N   0  0  0  0  0  0  0  0  0  0  0  0
   -6.4205    5.0336  -16.0794 C   0  0  0  0  0  0  0  0  0  0  0  0
   -7.4950    4.8133  -15.1990 C   0  0  0  0  0  0  0  0  0  0  0  0
   -7.4189    5.2504  -13.7869 C   0  0  0  0  0  0  0  0  0  0  0  0
   -7.0265    6.3280  -13.5644 O   0  0  0  0  0  0  0  0  0  0  0  0
   -7.9942    4.1757  -12.8335 N   0  0  0  0  0  0  0  0  0  0  0  0
   -8.1140    4.1682  -11.4453 C   0  0  0  0  0  0  0  0  0  0  0  0
   -7.8599    5.3266  -10.6936 C   0  0  0  0  0  0  0  0  0  0  0  0
   -8.0225    5.3308   -9.3049 C   0  0  0  0  0  0  0  0  0  0  0  0
   -8.4330    4.1627   -8.6906 C   0  0  0  0  0  0  0  0  0  0  0  0
   -8.6842    3.0158   -9.4310 C   0  0  0  0  0  0  0  0  0  0  0  0
   -8.5341    2.9981  -10.8092 C   0  0  0  0  0  0  0  0  0  0  0  0
   -9.1267    1.9225   -8.5224 C   0  0  0  0  0  0  0  0  0  0  0  0
   -9.0456    2.4627   -7.1377 N   0  0  0  0  0  0  0  0  0  0  0  0
   -8.6966    3.8957   -7.2506 C   0  0  0  0  0  0  0  0  0  0  0  0
   -8.7383    4.4267  -15.7198 C   0  0  0  0  0  0  0  0  0  0  0  0
   -8.9129    4.3239  -17.0956 C   0  0  0  0  0  0  0  0  0  0  0  0
  -10.4824    4.0946  -17.7272 Cl  0  0  0  0  0  0  0  0  0  0  0  0
   -7.8839    4.5847  -17.9967 C   0  0  0  0  0  0  0  0  0  0  0  0
   -6.6593    4.9684  -17.4536 C   0  0  0  0  0  0  0  0  0  0  0  0
   -5.5104    5.4716  -18.0159 N   0  0  0  0  0  0  0  0  0  0  0  0
   -5.4338    6.2347  -19.2506 C   0  0  0  0  0  0  0  0  0  0  0  0
   -4.5164    5.5826  -20.1702 N   0  0  0  0  0  0  0  0  0  0  0  0
  1  2  1  0
  2  3  2  0
  3  4  1  0
  4  5  2  0
  5  6  1  0
  6  7  2  0
  6  8  1  0
  8  9  1  0
  9 10  2  0
 10 11  1  0
 11 12  2  0
 12 13  1  0
 13 14  2  0
 13 15  1  0
 15 16  1  0
 16 17  1  0
  5 18  1  0
 18 19  2  0
 19 20  1  0
 19 21  1  0
 21 22  2  0
 22 23  1  0
 23 24  1  0
 24 25  1  0
 23  2  1  0
 22  4  1  0
 14  9  1  0
 17 12  1  0
M  END
>  <smiles>  (831) 
C103288-P145

>  <fragmenstein_outcome>  (831) 
acceptable

>  <inchikey>  (831) 
ZHPJOCNABPHMJC-UHFFFAOYSA-N

>  <fragmenstein_mode>  (831) 
expansion

>  <HIPPO Pose ID>  (831) 
18486

>  <Energy>  (831) 
66.059535

>  <fragmenstein_error>  (831) 


>  <tags>  (831) 
{'openbind_xx01zvns2b_c1_fragmenstein', 'fragmenstein_placed'}

>  <ref_pdb>  (831) 
1

>  <scratch_subdir>  (831) 
/opt/xchem-fragalysis-2/maxwin/BulkDock/SCRATCH/511027/C103288-P145

>  <alias>  (831) 
Cc1nc2c(C(=O)Nc3ccc4c(c3)CNC4)cc(Cl)cc2n1CN

>  <HIPPO Compound ID>  (831) 
103288

>  <fragmenstein_runtime>  (831) 
3.41623

$$$$
C[C@@H]1Nc2c(C(=O)Nc3ccc4c(c3)CNC4)cc(Cl)cc2[C@]12CCCN2
     RDKit          3D

 27 31  0  0  0  0  0  0  0  0999 V2000
   -3.1385    5.4446  -16.5971 C   0  0  0  0  0  0  0  0  0  0  0  0
   -4.4502    6.2272  -16.6878 C   0  0  2  0  0  0  0  0  0  0  0  0
   -5.2082    5.9353  -15.4503 N   0  0  0  0  0  0  0  0  0  0  0  0
   -6.4206    5.3490  -15.8795 C   0  0  0  0  0  0  0  0  0  0  0  0
   -7.4834    4.9813  -15.0580 C   0  0  0  0  0  0  0  0  0  0  0  0
   -7.5252    5.3987  -13.6342 C   0  0  0  0  0  0  0  0  0  0  0  0
   -7.3110    6.5197  -13.3806 O   0  0  0  0  0  0  0  0  0  0  0  0
   -7.9621    4.2292  -12.7199 N   0  0  0  0  0  0  0  0  0  0  0  0
   -8.1284    4.1746  -11.3390 C   0  0  0  0  0  0  0  0  0  0  0  0
   -7.9498    5.3139  -10.5373 C   0  0  0  0  0  0  0  0  0  0  0  0
   -8.1677    5.2606   -9.1564 C   0  0  0  0  0  0  0  0  0  0  0  0
   -8.5707    4.0588   -8.6061 C   0  0  0  0  0  0  0  0  0  0  0  0
   -8.7325    2.9254   -9.3974 C   0  0  0  0  0  0  0  0  0  0  0  0
   -8.5124    2.9613  -10.7633 C   0  0  0  0  0  0  0  0  0  0  0  0
   -9.1350    1.7800   -8.5302 C   0  0  0  0  0  0  0  0  0  0  0  0
   -9.5816    2.4016   -7.2550 N   0  0  0  0  0  0  0  0  0  0  0  0
   -8.8893    3.7083   -7.1912 C   0  0  0  0  0  0  0  0  0  0  0  0
   -8.6328    4.4410  -15.6371 C   0  0  0  0  0  0  0  0  0  0  0  0
   -8.6979    4.2965  -17.0239 C   0  0  0  0  0  0  0  0  0  0  0  0
  -10.1948    3.9188  -17.7428 Cl  0  0  0  0  0  0  0  0  0  0  0  0
   -7.6311    4.6338  -17.8496 C   0  0  0  0  0  0  0  0  0  0  0  0
   -6.5018    5.1848  -17.2634 C   0  0  0  0  0  0  0  0  0  0  0  0
   -5.3609    5.8904  -17.9337 C   0  0  2  0  0  0  0  0  0  0  0  0
   -4.6866    5.1597  -19.0820 C   0  0  0  0  0  0  0  0  0  0  0  0
   -4.0552    6.2627  -19.9192 C   0  0  0  0  0  0  0  0  0  0  0  0
   -4.7900    7.5318  -19.5263 C   0  0  0  0  0  0  0  0  0  0  0  0
   -5.8664    7.1253  -18.6176 N   0  0  0  0  0  0  0  0  0  0  0  0
  2  1  1  6
  2  3  1  0
  3  4  1  0
  4  5  2  0
  5  6  1  0
  6  7  2  0
  6  8  1  0
  8  9  1  0
  9 10  2  0
 10 11  1  0
 11 12  2  0
 12 13  1  0
 13 14  2  0
 13 15  1  0
 15 16  1  0
 16 17  1  0
  5 18  1  0
 18 19  2  0
 19 20  1  0
 19 21  1  0
 21 22  2  0
 22 23  1  0
 23 24  1  6
 24 25  1  0
 25 26  1  0
 26 27  1  0
 23  2  1  0
 22  4  1  0
 27 23  1  0
 14  9  1  0
 17 12  1  0
M  END
>  <smiles>  (832) 
C103289-P145

>  <fragmenstein_outcome>  (832) 
acceptable

>  <inchikey>  (832) 
KSBFUEQGYATOHP-UHFFFAOYSA-N

>  <fragmenstein_mode>  (832) 
expansion

>  <HIPPO Pose ID>  (832) 
18487

>  <Energy>  (832) 
104.571361

>  <fragmenstein_error>  (832) 


>  <tags>  (832) 
{'openbind_xx01zvns2b_c1_fragmenstein', 'fragmenstein_placed'}

>  <ref_pdb>  (832) 
1

>  <scratch_subdir>  (832) 
/opt/xchem-fragalysis-2/maxwin/BulkDock/SCRATCH/511027/C103289-P145

>  <alias>  (832) 
C[C@@H]1Nc2c(C(=O)Nc3ccc4c(c3)CNC4)cc(Cl)cc2[C@]12CCCN2

>  <HIPPO Compound ID>  (832) 
75484

>  <fragmenstein_runtime>  (832) 
4.811054

$$$$
Cc1nc2c(CN)c(Cl)cc(C(=O)Nc3ccc4c(c3)CNC4)c2[nH]1
     RDKit          3D

 25 28  0  0  0  0  0  0  0  0999 V2000
   -2.9170    6.0204  -16.6485 C   0  0  0  0  0  0  0  0  0  0  0  0
   -4.3283    5.6081  -16.5284 C   0  0  0  0  0  0  0  0  0  0  0  0
   -5.1201    5.2761  -17.5201 N   0  0  0  0  0  0  0  0  0  0  0  0
   -6.3141    4.9231  -16.9397 C   0  0  0  0  0  0  0  0  0  0  0  0
   -7.5068    4.5183  -17.5493 C   0  0  0  0  0  0  0  0  0  0  0  0
   -7.6163    4.5344  -19.0246 C   0  0  0  0  0  0  0  0  0  0  0  0
   -7.4417    3.2498  -19.6729 N   0  0  0  0  0  0  0  0  0  0  0  0
   -8.6101    4.2623  -16.7276 C   0  0  0  0  0  0  0  0  0  0  0  0
  -10.1294    3.9170  -17.4494 Cl  0  0  0  0  0  0  0  0  0  0  0  0
   -8.5434    4.4118  -15.3452 C   0  0  0  0  0  0  0  0  0  0  0  0
   -7.3585    4.8505  -14.7412 C   0  0  0  0  0  0  0  0  0  0  0  0
   -7.2944    5.2106  -13.3117 C   0  0  0  0  0  0  0  0  0  0  0  0
   -6.7847    6.2189  -13.0190 O   0  0  0  0  0  0  0  0  0  0  0  0
   -8.0244    4.1704  -12.4406 N   0  0  0  0  0  0  0  0  0  0  0  0
   -8.1933    4.1058  -11.0659 C   0  0  0  0  0  0  0  0  0  0  0  0
   -7.9520    5.2276  -10.2562 C   0  0  0  0  0  0  0  0  0  0  0  0
   -8.1779    5.1723   -8.8791 C   0  0  0  0  0  0  0  0  0  0  0  0
   -8.6360    3.9833   -8.3451 C   0  0  0  0  0  0  0  0  0  0  0  0
   -8.8453    2.8653   -9.1484 C   0  0  0  0  0  0  0  0  0  0  0  0
   -8.6396    2.9072  -10.5126 C   0  0  0  0  0  0  0  0  0  0  0  0
   -9.2606    1.7209   -8.2897 C   0  0  0  0  0  0  0  0  0  0  0  0
   -9.7059    2.3448   -7.0181 N   0  0  0  0  0  0  0  0  0  0  0  0
   -8.9734    3.6289   -6.9354 C   0  0  0  0  0  0  0  0  0  0  0  0
   -6.2637    5.0901  -15.5694 C   0  0  0  0  0  0  0  0  0  0  0  0
   -4.9897    5.5378  -15.3286 N   0  0  0  0  0  0  0  0  0  0  0  0
  1  2  1  0
  2  3  2  0
  3  4  1  0
  4  5  2  0
  5  6  1  0
  6  7  1  0
  5  8  1  0
  8  9  1  0
  8 10  2  0
 10 11  1  0
 11 12  1  0
 12 13  2  0
 12 14  1  0
 14 15  1  0
 15 16  2  0
 16 17  1  0
 17 18  2  0
 18 19  1  0
 19 20  2  0
 19 21  1  0
 21 22  1  0
 22 23  1  0
 11 24  2  0
 24 25  1  0
 25  2  1  0
 24  4  1  0
 20 15  1  0
 23 18  1  0
M  END
>  <smiles>  (833) 
C103290-P145

>  <fragmenstein_outcome>  (833) 
acceptable

>  <inchikey>  (833) 
RIVLKHWFLRTZKY-UHFFFAOYSA-N

>  <fragmenstein_mode>  (833) 
expansion

>  <HIPPO Pose ID>  (833) 
18488

>  <Energy>  (833) 
26.151849

>  <fragmenstein_error>  (833) 


>  <tags>  (833) 
{'openbind_xx01zvns2b_c1_fragmenstein', 'fragmenstein_placed'}

>  <ref_pdb>  (833) 
1

>  <scratch_subdir>  (833) 
/opt/xchem-fragalysis-2/maxwin/BulkDock/SCRATCH/511027/C103290-P145

>  <alias>  (833) 
Cc1nc2c(CN)c(Cl)cc(C(=O)Nc3ccc4c(c3)CNC4)c2[nH]1

>  <HIPPO Compound ID>  (833) 
103290

>  <fragmenstein_runtime>  (833) 
3.876956

$$$$
Cc1nc2cc(Cl)cc(C(=O)Nc3cc4c(cc3S(C)(=O)=O)CNC4)c2[nH]1
     RDKit          3D

 27 30  0  0  0  0  0  0  0  0999 V2000
   -2.7270    6.1545  -17.0947 C   0  0  0  0  0  0  0  0  0  0  0  0
   -4.1292    5.6930  -17.0013 C   0  0  0  0  0  0  0  0  0  0  0  0
   -4.9287    5.3823  -17.9983 N   0  0  0  0  0  0  0  0  0  0  0  0
   -6.1240    5.0164  -17.4219 C   0  0  0  0  0  0  0  0  0  0  0  0
   -7.3218    4.6087  -18.0140 C   0  0  0  0  0  0  0  0  0  0  0  0
   -8.4035    4.3388  -17.1714 C   0  0  0  0  0  0  0  0  0  0  0  0
   -9.9208    3.9476  -17.8592 Cl  0  0  0  0  0  0  0  0  0  0  0  0
   -8.3143    4.4363  -15.7795 C   0  0  0  0  0  0  0  0  0  0  0  0
   -7.1108    4.8075  -15.1714 C   0  0  0  0  0  0  0  0  0  0  0  0
   -6.9347    5.0282  -13.7052 C   0  0  0  0  0  0  0  0  0  0  0  0
   -6.1409    5.8299  -13.3943 O   0  0  0  0  0  0  0  0  0  0  0  0
   -7.9111    4.1927  -12.8386 N   0  0  0  0  0  0  0  0  0  0  0  0
   -8.1719    4.2367  -11.4649 C   0  0  0  0  0  0  0  0  0  0  0  0
   -8.5127    3.0045  -10.8808 C   0  0  0  0  0  0  0  0  0  0  0  0
   -8.7213    2.9345   -9.5120 C   0  0  0  0  0  0  0  0  0  0  0  0
   -8.5961    4.0555   -8.7050 C   0  0  0  0  0  0  0  0  0  0  0  0
   -8.2956    5.2868   -9.2493 C   0  0  0  0  0  0  0  0  0  0  0  0
   -8.1152    5.3861  -10.6452 C   0  0  0  0  0  0  0  0  0  0  0  0
   -8.1775    7.0541  -11.2833 S   0  0  0  0  0  0  0  0  0  0  0  0
   -6.5066    7.6403  -11.1429 C   0  0  0  0  0  0  0  0  0  0  0  0
   -8.6053    7.0318  -12.6709 O   0  0  0  0  0  0  0  0  0  0  0  0
   -8.9626    7.8372  -10.3419 O   0  0  0  0  0  0  0  0  0  0  0  0
   -8.8911    3.6786   -7.2915 C   0  0  0  0  0  0  0  0  0  0  0  0
   -9.5368    2.3527   -7.3703 N   0  0  0  0  0  0  0  0  0  0  0  0
   -9.0840    1.7633   -8.6578 C   0  0  0  0  0  0  0  0  0  0  0  0
   -6.0503    5.1076  -16.0395 C   0  0  0  0  0  0  0  0  0  0  0  0
   -4.7722    5.5471  -15.8007 N   0  0  0  0  0  0  0  0  0  0  0  0
  1  2  1  0
  2  3  2  0
  3  4  1  0
  4  5  2  0
  5  6  1  0
  6  7  1  0
  6  8  2  0
  8  9  1  0
  9 10  1  0
 10 11  2  0
 10 12  1  0
 12 13  1  0
 13 14  2  0
 14 15  1  0
 15 16  2  0
 16 17  1  0
 17 18  2  0
 18 19  1  0
 19 20  1  0
 19 21  2  0
 19 22  2  0
 16 23  1  0
 23 24  1  0
 24 25  1  0
  9 26  2  0
 26 27  1  0
 27  2  1  0
 26  4  1  0
 18 13  1  0
 25 15  1  0
M  END
>  <smiles>  (834) 
C103291-P145

>  <fragmenstein_outcome>  (834) 
acceptable

>  <inchikey>  (834) 
YJFLDJBNXVRTIP-UHFFFAOYSA-N

>  <fragmenstein_mode>  (834) 
expansion

>  <HIPPO Pose ID>  (834) 
18489

>  <Energy>  (834) 
58.506632

>  <fragmenstein_error>  (834) 


>  <tags>  (834) 
{'openbind_xx01zvns2b_c1_fragmenstein', 'fragmenstein_placed'}

>  <ref_pdb>  (834) 
1

>  <scratch_subdir>  (834) 
/opt/xchem-fragalysis-2/maxwin/BulkDock/SCRATCH/511027/C103291-P145

>  <alias>  (834) 
Cc1nc2cc(Cl)cc(C(=O)Nc3cc4c(cc3S(C)(=O)=O)CNC4)c2[nH]1

>  <HIPPO Compound ID>  (834) 
77908

>  <fragmenstein_runtime>  (834) 
3.802049

$$$$
Cc1nc2c(C(=O)Nc3ccc4c(c3)CNC4)cc(Cl)cc2[nH]1
     RDKit          3D

 23 26  0  0  0  0  0  0  0  0999 V2000
   -3.0575    5.7416  -17.3927 C   0  0  0  0  0  0  0  0  0  0  0  0
   -4.4798    5.4491  -17.1034 C   0  0  0  0  0  0  0  0  0  0  0  0
   -5.0700    5.4854  -15.9268 N   0  0  0  0  0  0  0  0  0  0  0  0
   -6.3764    5.1048  -16.1394 C   0  0  0  0  0  0  0  0  0  0  0  0
   -7.4683    4.9572  -15.2651 C   0  0  0  0  0  0  0  0  0  0  0  0
   -7.4063    5.3997  -13.8545 C   0  0  0  0  0  0  0  0  0  0  0  0
   -7.0487    6.4874  -13.6204 O   0  0  0  0  0  0  0  0  0  0  0  0
   -7.9532    4.2967  -12.9114 N   0  0  0  0  0  0  0  0  0  0  0  0
   -8.0789    4.2732  -11.5223 C   0  0  0  0  0  0  0  0  0  0  0  0
   -7.8481    5.4237  -10.7532 C   0  0  0  0  0  0  0  0  0  0  0  0
   -8.0154    5.4034   -9.3642 C   0  0  0  0  0  0  0  0  0  0  0  0
   -8.4102    4.2203   -8.7668 C   0  0  0  0  0  0  0  0  0  0  0  0
   -8.6424    3.0806   -9.5238 C   0  0  0  0  0  0  0  0  0  0  0  0
   -8.4837    3.0865  -10.9020 C   0  0  0  0  0  0  0  0  0  0  0  0
   -9.0765    1.9691   -8.6319 C   0  0  0  0  0  0  0  0  0  0  0  0
   -9.0190    2.4947   -7.2397 N   0  0  0  0  0  0  0  0  0  0  0  0
   -8.6708    3.9293   -7.3308 C   0  0  0  0  0  0  0  0  0  0  0  0
   -8.7080    4.5533  -15.7841 C   0  0  0  0  0  0  0  0  0  0  0  0
   -8.8576    4.3404  -17.1509 C   0  0  0  0  0  0  0  0  0  0  0  0
  -10.4225    4.1194  -17.7946 Cl  0  0  0  0  0  0  0  0  0  0  0  0
   -7.7931    4.4496  -18.0398 C   0  0  0  0  0  0  0  0  0  0  0  0
   -6.5746    4.8408  -17.4936 C   0  0  0  0  0  0  0  0  0  0  0  0
   -5.3644    5.0851  -18.0848 N   0  0  0  0  0  0  0  0  0  0  0  0
  1  2  1  0
  2  3  2  0
  3  4  1  0
  4  5  2  0
  5  6  1  0
  6  7  2  0
  6  8  1  0
  8  9  1  0
  9 10  2  0
 10 11  1  0
 11 12  2  0
 12 13  1  0
 13 14  2  0
 13 15  1  0
 15 16  1  0
 16 17  1  0
  5 18  1  0
 18 19  2  0
 19 20  1  0
 19 21  1  0
 21 22  2  0
 22 23  1  0
 23  2  1  0
 22  4  1  0
 14  9  1  0
 17 12  1  0
M  END
>  <smiles>  (835) 
C137-P145

>  <fragmenstein_outcome>  (835) 
acceptable

>  <inchikey>  (835) 
UDLJCSBFJHWTRB-UHFFFAOYSA-N

>  <fragmenstein_mode>  (835) 
expansion

>  <HIPPO Pose ID>  (835) 
18491

>  <Energy>  (835) 
48.57746

>  <fragmenstein_error>  (835) 


>  <tags>  (835) 
{'openbind_xx01zvns2b_c1_fragmenstein', 'fragmenstein_placed'}

>  <ref_pdb>  (835) 
1

>  <scratch_subdir>  (835) 
/opt/xchem-fragalysis-2/maxwin/BulkDock/SCRATCH/511027/C137-P145

>  <alias>  (835) 
Cc1nc2c(C(=O)Nc3ccc4c(c3)CNC4)cc(Cl)cc2[nH]1

>  <HIPPO Compound ID>  (835) 
137

>  <fragmenstein_runtime>  (835) 
2.25623

$$$$
CC[C@@H](N)c1nc2cc(Cl)cc(C(=O)Nc3ccc4c(c3)CNC4)c2[nH]1
     RDKit          3D

 26 29  0  0  0  0  0  0  0  0999 V2000
   -2.5490    7.3940  -15.7989 C   0  0  0  0  0  0  0  0  0  0  0  0
   -2.3514    6.1060  -16.5926 C   0  0  0  0  0  0  0  0  0  0  0  0
   -3.3346    5.9672  -17.7629 C   0  0  1  0  0  0  0  0  0  0  0  0
   -2.7987    4.9913  -18.7189 N   0  0  0  0  0  0  0  0  0  0  0  0
   -4.7189    5.5290  -17.3983 C   0  0  0  0  0  0  0  0  0  0  0  0
   -5.6238    5.1840  -18.2927 N   0  0  0  0  0  0  0  0  0  0  0  0
   -6.7389    4.8452  -17.5883 C   0  0  0  0  0  0  0  0  0  0  0  0
   -7.9843    4.4458  -18.0635 C   0  0  0  0  0  0  0  0  0  0  0  0
   -8.9997    4.2715  -17.1296 C   0  0  0  0  0  0  0  0  0  0  0  0
  -10.5925    4.0938  -17.7181 Cl  0  0  0  0  0  0  0  0  0  0  0  0
   -8.7836    4.3969  -15.7555 C   0  0  0  0  0  0  0  0  0  0  0  0
   -7.5274    4.7723  -15.2713 C   0  0  0  0  0  0  0  0  0  0  0  0
   -7.2979    5.1299  -13.8512 C   0  0  0  0  0  0  0  0  0  0  0  0
   -6.7257    6.1274  -13.6393 O   0  0  0  0  0  0  0  0  0  0  0  0
   -7.9303    4.1087  -12.8743 N   0  0  0  0  0  0  0  0  0  0  0  0
   -8.0687    4.1481  -11.4875 C   0  0  0  0  0  0  0  0  0  0  0  0
   -7.6888    5.2844  -10.7553 C   0  0  0  0  0  0  0  0  0  0  0  0
   -7.8447    5.3293   -9.3662 C   0  0  0  0  0  0  0  0  0  0  0  0
   -8.3533    4.2140   -8.7291 C   0  0  0  0  0  0  0  0  0  0  0  0
   -8.7195    3.0839   -9.4483 C   0  0  0  0  0  0  0  0  0  0  0  0
   -8.6017    3.0370  -10.8293 C   0  0  0  0  0  0  0  0  0  0  0  0
   -9.2412    2.0503   -8.5108 C   0  0  0  0  0  0  0  0  0  0  0  0
   -8.9991    2.5698   -7.1377 N   0  0  0  0  0  0  0  0  0  0  0  0
   -8.6221    3.9923   -7.2817 C   0  0  0  0  0  0  0  0  0  0  0  0
   -6.5322    5.0006  -16.2259 C   0  0  0  0  0  0  0  0  0  0  0  0
   -5.2273    5.4155  -16.1287 N   0  0  0  0  0  0  0  0  0  0  0  0
  1  2  1  0
  2  3  1  0
  3  4  1  6
  3  5  1  0
  5  6  2  0
  6  7  1  0
  7  8  2  0
  8  9  1  0
  9 10  1  0
  9 11  2  0
 11 12  1  0
 12 13  1  0
 13 14  2  0
 13 15  1  0
 15 16  1  0
 16 17  2  0
 17 18  1  0
 18 19  2  0
 19 20  1  0
 20 21  2  0
 20 22  1  0
 22 23  1  0
 23 24  1  0
 12 25  2  0
 25 26  1  0
 26  5  1  0
 25  7  1  0
 21 16  1  0
 24 19  1  0
M  END
>  <smiles>  (836) 
C103295-P145

>  <fragmenstein_outcome>  (836) 
acceptable

>  <inchikey>  (836) 
BPOBVXGNTVHDKT-UHFFFAOYSA-N

>  <fragmenstein_mode>  (836) 
expansion

>  <HIPPO Pose ID>  (836) 
18492

>  <Energy>  (836) 
25.49107

>  <fragmenstein_error>  (836) 


>  <tags>  (836) 
{'openbind_xx01zvns2b_c1_fragmenstein', 'fragmenstein_placed'}

>  <ref_pdb>  (836) 
1

>  <scratch_subdir>  (836) 
/opt/xchem-fragalysis-2/maxwin/BulkDock/SCRATCH/511027/C103295-P145

>  <alias>  (836) 
CC[C@@H](N)c1nc2cc(Cl)cc(C(=O)Nc3ccc4c(c3)CNC4)c2[nH]1

>  <HIPPO Compound ID>  (836) 
71451

>  <fragmenstein_runtime>  (836) 
3.85021

$$$$
CNc1cc(C(=O)Nc2ccc3c(c2)CNC3)c2nc(C)[nH]c2c1
     RDKit          3D

 24 27  0  0  0  0  0  0  0  0999 V2000
  -10.7914    4.4400  -17.9648 C   0  0  0  0  0  0  0  0  0  0  0  0
   -9.8568    3.3863  -17.5871 N   0  0  0  0  0  0  0  0  0  0  0  0
   -8.6644    3.9637  -17.1226 C   0  0  0  0  0  0  0  0  0  0  0  0
   -8.5519    4.3296  -15.7790 C   0  0  0  0  0  0  0  0  0  0  0  0
   -7.3874    4.9482  -15.2990 C   0  0  0  0  0  0  0  0  0  0  0  0
   -7.3288    5.4047  -13.8914 C   0  0  0  0  0  0  0  0  0  0  0  0
   -7.0566    6.5192  -13.6671 O   0  0  0  0  0  0  0  0  0  0  0  0
   -7.7364    4.2563  -12.9307 N   0  0  0  0  0  0  0  0  0  0  0  0
   -7.9765    4.2670  -11.5565 C   0  0  0  0  0  0  0  0  0  0  0  0
   -7.8351    5.4373  -10.7965 C   0  0  0  0  0  0  0  0  0  0  0  0
   -8.0564    5.4258   -9.4141 C   0  0  0  0  0  0  0  0  0  0  0  0
   -8.4240    4.2340   -8.8151 C   0  0  0  0  0  0  0  0  0  0  0  0
   -8.5915    3.0801   -9.5668 C   0  0  0  0  0  0  0  0  0  0  0  0
   -8.3695    3.0752  -10.9364 C   0  0  0  0  0  0  0  0  0  0  0  0
   -9.0243    1.9639   -8.6796 C   0  0  0  0  0  0  0  0  0  0  0  0
   -9.0225    2.5011   -7.2908 N   0  0  0  0  0  0  0  0  0  0  0  0
   -8.6994    3.9418   -7.3817 C   0  0  0  0  0  0  0  0  0  0  0  0
   -6.3333    5.1901  -16.1974 C   0  0  0  0  0  0  0  0  0  0  0  0
   -5.0654    5.7013  -16.0226 N   0  0  0  0  0  0  0  0  0  0  0  0
   -4.4911    5.6627  -17.2065 C   0  0  0  0  0  0  0  0  0  0  0  0
   -3.0984    6.0184  -17.5313 C   0  0  0  0  0  0  0  0  0  0  0  0
   -5.3596    5.2172  -18.1636 N   0  0  0  0  0  0  0  0  0  0  0  0
   -6.5177    4.8591  -17.5365 C   0  0  0  0  0  0  0  0  0  0  0  0
   -7.6650    4.2730  -18.0437 C   0  0  0  0  0  0  0  0  0  0  0  0
  1  2  1  0
  2  3  1  0
  3  4  2  0
  4  5  1  0
  5  6  1  0
  6  7  2  0
  6  8  1  0
  8  9  1  0
  9 10  2  0
 10 11  1  0
 11 12  2  0
 12 13  1  0
 13 14  2  0
 13 15  1  0
 15 16  1  0
 16 17  1  0
  5 18  2  0
 18 19  1  0
 19 20  2  0
 20 21  1  0
 20 22  1  0
 22 23  1  0
 23 24  2  0
 24  3  1  0
 14  9  1  0
 23 18  1  0
 17 12  1  0
M  END
>  <smiles>  (837) 
C103297-P145

>  <fragmenstein_outcome>  (837) 
acceptable

>  <inchikey>  (837) 
AKODQACOQZDRQP-UHFFFAOYSA-N

>  <fragmenstein_mode>  (837) 
expansion

>  <HIPPO Pose ID>  (837) 
18493

>  <Energy>  (837) 
50.475284

>  <fragmenstein_error>  (837) 


>  <tags>  (837) 
{'openbind_xx01zvns2b_c1_fragmenstein', 'fragmenstein_placed'}

>  <ref_pdb>  (837) 
1

>  <scratch_subdir>  (837) 
/opt/xchem-fragalysis-2/maxwin/BulkDock/SCRATCH/511027/C103297-P145

>  <alias>  (837) 
CNc1cc(C(=O)Nc2ccc3c(c2)CNC3)c2nc(C)[nH]c2c1

>  <HIPPO Compound ID>  (837) 
101011

>  <fragmenstein_runtime>  (837) 
3.902788

$$$$
CNc1cc(C(=O)Nc2ccc3c(c2)CNC3)c2[nH]c(C)nc2c1C
     RDKit          3D

 25 28  0  0  0  0  0  0  0  0999 V2000
  -10.7742    4.4199  -17.8948 C   0  0  0  0  0  0  0  0  0  0  0  0
   -9.8449    3.3722  -17.4819 N   0  0  0  0  0  0  0  0  0  0  0  0
   -8.6801    3.9430  -16.9292 C   0  0  0  0  0  0  0  0  0  0  0  0
   -8.6945    4.2818  -15.5705 C   0  0  0  0  0  0  0  0  0  0  0  0
   -7.6059    4.9140  -14.9742 C   0  0  0  0  0  0  0  0  0  0  0  0
   -7.5892    5.3321  -13.5558 C   0  0  0  0  0  0  0  0  0  0  0  0
   -7.1639    6.3885  -13.2956 O   0  0  0  0  0  0  0  0  0  0  0  0
   -8.1794    4.2374  -12.6407 N   0  0  0  0  0  0  0  0  0  0  0  0
   -8.2797    4.1756  -11.2553 C   0  0  0  0  0  0  0  0  0  0  0  0
   -8.0402    5.3061  -10.4575 C   0  0  0  0  0  0  0  0  0  0  0  0
   -8.2019    5.2476   -9.0699 C   0  0  0  0  0  0  0  0  0  0  0  0
   -8.6041    4.0491   -8.5113 C   0  0  0  0  0  0  0  0  0  0  0  0
   -8.8113    2.9214   -9.3004 C   0  0  0  0  0  0  0  0  0  0  0  0
   -8.6550    2.9635  -10.6732 C   0  0  0  0  0  0  0  0  0  0  0  0
   -9.1870    1.7756   -8.4231 C   0  0  0  0  0  0  0  0  0  0  0  0
   -9.5962    2.3990   -7.1378 N   0  0  0  0  0  0  0  0  0  0  0  0
   -8.8899    3.6993   -7.0890 C   0  0  0  0  0  0  0  0  0  0  0  0
   -6.5285    5.2125  -15.8004 C   0  0  0  0  0  0  0  0  0  0  0  0
   -5.3274    5.8166  -15.5490 N   0  0  0  0  0  0  0  0  0  0  0  0
   -4.6251    5.8636  -16.7205 C   0  0  0  0  0  0  0  0  0  0  0  0
   -3.2810    6.4549  -16.7956 C   0  0  0  0  0  0  0  0  0  0  0  0
   -5.3116    5.3355  -17.7075 N   0  0  0  0  0  0  0  0  0  0  0  0
   -6.4946    4.9131  -17.1522 C   0  0  0  0  0  0  0  0  0  0  0  0
   -7.5869    4.2716  -17.7547 C   0  0  0  0  0  0  0  0  0  0  0  0
   -7.5933    3.9238  -19.2056 C   0  0  0  0  0  0  0  0  0  0  0  0
  1  2  1  0
  2  3  1  0
  3  4  2  0
  4  5  1  0
  5  6  1  0
  6  7  2  0
  6  8  1  0
  8  9  1  0
  9 10  2  0
 10 11  1  0
 11 12  2  0
 12 13  1  0
 13 14  2  0
 13 15  1  0
 15 16  1  0
 16 17  1  0
  5 18  2  0
 18 19  1  0
 19 20  1  0
 20 21  1  0
 20 22  2  0
 22 23  1  0
 23 24  2  0
 24 25  1  0
 24  3  1  0
 14  9  1  0
 23 18  1  0
 17 12  1  0
M  END
>  <smiles>  (838) 
C103298-P145

>  <fragmenstein_outcome>  (838) 
acceptable

>  <inchikey>  (838) 
QMHWWCUNLLMGMK-UHFFFAOYSA-N

>  <fragmenstein_mode>  (838) 
expansion

>  <HIPPO Pose ID>  (838) 
18494

>  <Energy>  (838) 
35.574967

>  <fragmenstein_error>  (838) 


>  <tags>  (838) 
{'openbind_xx01zvns2b_c1_fragmenstein', 'fragmenstein_placed'}

>  <ref_pdb>  (838) 
1

>  <scratch_subdir>  (838) 
/opt/xchem-fragalysis-2/maxwin/BulkDock/SCRATCH/511027/C103298-P145

>  <alias>  (838) 
CNc1cc(C(=O)Nc2ccc3c(c2)CNC3)c2[nH]c(C)nc2c1C

>  <HIPPO Compound ID>  (838) 
71393

>  <fragmenstein_runtime>  (838) 
4.457205

$$$$
Cc1nc2cc(Cl)cc(C(=O)Nc3ccc4c(c3)CNC4)c2n1O
     RDKit          3D

 24 27  0  0  0  0  0  0  0  0999 V2000
   -3.0646    5.7740  -17.6373 C   0  0  0  0  0  0  0  0  0  0  0  0
   -4.4813    5.4334  -17.3827 C   0  0  0  0  0  0  0  0  0  0  0  0
   -5.3937    5.1481  -18.2852 N   0  0  0  0  0  0  0  0  0  0  0  0
   -6.5307    4.8521  -17.5773 C   0  0  0  0  0  0  0  0  0  0  0  0
   -7.7875    4.4802  -18.0585 C   0  0  0  0  0  0  0  0  0  0  0  0
   -8.8157    4.3050  -17.1363 C   0  0  0  0  0  0  0  0  0  0  0  0
  -10.4046    4.0863  -17.7234 Cl  0  0  0  0  0  0  0  0  0  0  0  0
   -8.6125    4.4376  -15.7635 C   0  0  0  0  0  0  0  0  0  0  0  0
   -7.3525    4.7927  -15.2682 C   0  0  0  0  0  0  0  0  0  0  0  0
   -7.1570    5.1376  -13.8411 C   0  0  0  0  0  0  0  0  0  0  0  0
   -6.5349    6.1008  -13.6085 O   0  0  0  0  0  0  0  0  0  0  0  0
   -7.8642    4.1451  -12.8869 N   0  0  0  0  0  0  0  0  0  0  0  0
   -8.0287    4.1806  -11.5034 C   0  0  0  0  0  0  0  0  0  0  0  0
   -7.6865    5.3231  -10.7630 C   0  0  0  0  0  0  0  0  0  0  0  0
   -7.8612    5.3581   -9.3756 C   0  0  0  0  0  0  0  0  0  0  0  0
   -8.3549    4.2297   -8.7487 C   0  0  0  0  0  0  0  0  0  0  0  0
   -8.6914    3.0965   -9.4770 C   0  0  0  0  0  0  0  0  0  0  0  0
   -8.5517    3.0574  -10.8564 C   0  0  0  0  0  0  0  0  0  0  0  0
   -9.2056    2.0485   -8.5512 C   0  0  0  0  0  0  0  0  0  0  0  0
   -9.0003    2.5694   -7.1724 N   0  0  0  0  0  0  0  0  0  0  0  0
   -8.6315    3.9951   -7.3048 C   0  0  0  0  0  0  0  0  0  0  0  0
   -6.3296    4.9992  -16.2063 C   0  0  0  0  0  0  0  0  0  0  0  0
   -5.0104    5.3585  -16.1243 N   0  0  0  0  0  0  0  0  0  0  0  0
   -4.2736    5.5675  -14.9686 O   0  0  0  0  0  0  0  0  0  0  0  0
  1  2  1  0
  2  3  2  0
  3  4  1  0
  4  5  2  0
  5  6  1  0
  6  7  1  0
  6  8  2  0
  8  9  1  0
  9 10  1  0
 10 11  2  0
 10 12  1  0
 12 13  1  0
 13 14  2  0
 14 15  1  0
 15 16  2  0
 16 17  1  0
 17 18  2  0
 17 19  1  0
 19 20  1  0
 20 21  1  0
  9 22  2  0
 22 23  1  0
 23 24  1  0
 23  2  1  0
 22  4  1  0
 18 13  1  0
 21 16  1  0
M  END
>  <smiles>  (839) 
C103305-P145

>  <fragmenstein_outcome>  (839) 
acceptable

>  <inchikey>  (839) 
XMHQEMWFWXCMGA-UHFFFAOYSA-N

>  <fragmenstein_mode>  (839) 
expansion

>  <HIPPO Pose ID>  (839) 
18500

>  <Energy>  (839) 
13.232834

>  <fragmenstein_error>  (839) 


>  <tags>  (839) 
{'openbind_xx01zvns2b_c1_fragmenstein', 'fragmenstein_placed'}

>  <ref_pdb>  (839) 
1

>  <scratch_subdir>  (839) 
/opt/xchem-fragalysis-2/maxwin/BulkDock/SCRATCH/511027/C103305-P145

>  <alias>  (839) 
Cc1nc2cc(Cl)cc(C(=O)Nc3ccc4c(c3)CNC4)c2n1O

>  <HIPPO Compound ID>  (839) 
80602

>  <fragmenstein_runtime>  (839) 
3.18471

$$$$
Cc1cc(NC(=O)c2cc(Cl)cc3nc(C)n(F)c23)cc2c1CNC2
     RDKit          3D

 25 28  0  0  0  0  0  0  0  0999 V2000
   -7.9384    6.5385   -8.3961 C   0  0  0  0  0  0  0  0  0  0  0  0
   -8.1752    5.2944   -9.1914 C   0  0  0  0  0  0  0  0  0  0  0  0
   -7.9967    5.2901  -10.5838 C   0  0  0  0  0  0  0  0  0  0  0  0
   -8.2257    4.1317  -11.3437 C   0  0  0  0  0  0  0  0  0  0  0  0
   -8.0775    4.1412  -12.7270 N   0  0  0  0  0  0  0  0  0  0  0  0
   -7.5330    5.2347  -13.6689 C   0  0  0  0  0  0  0  0  0  0  0  0
   -7.1945    6.3286  -13.4427 O   0  0  0  0  0  0  0  0  0  0  0  0
   -7.5538    4.8089  -15.0782 C   0  0  0  0  0  0  0  0  0  0  0  0
   -8.7457    4.4497  -15.7008 C   0  0  0  0  0  0  0  0  0  0  0  0
   -8.7986    4.3314  -17.0882 C   0  0  0  0  0  0  0  0  0  0  0  0
  -10.3254    4.1047  -17.8168 Cl  0  0  0  0  0  0  0  0  0  0  0  0
   -7.6783    4.5295  -17.9003 C   0  0  0  0  0  0  0  0  0  0  0  0
   -6.4725    4.8643  -17.2750 C   0  0  0  0  0  0  0  0  0  0  0  0
   -5.2400    5.1485  -17.8242 N   0  0  0  0  0  0  0  0  0  0  0  0
   -4.4394    5.3638  -16.7965 C   0  0  0  0  0  0  0  0  0  0  0  0
   -2.9928    5.6592  -16.8346 C   0  0  0  0  0  0  0  0  0  0  0  0
   -5.1338    5.2506  -15.6296 N   0  0  0  0  0  0  0  0  0  0  0  0
   -4.5711    5.2314  -14.3759 F   0  0  0  0  0  0  0  0  0  0  0  0
   -6.4362    4.9765  -15.8894 C   0  0  0  0  0  0  0  0  0  0  0  0
   -8.6184    2.9490  -10.7199 C   0  0  0  0  0  0  0  0  0  0  0  0
   -8.7604    2.9506   -9.3423 C   0  0  0  0  0  0  0  0  0  0  0  0
   -8.5427    4.0982   -8.5888 C   0  0  0  0  0  0  0  0  0  0  0  0
   -8.7684    3.7858   -7.1477 C   0  0  0  0  0  0  0  0  0  0  0  0
   -9.2195    2.3798   -7.0742 N   0  0  0  0  0  0  0  0  0  0  0  0
   -9.1217    1.8179   -8.4463 C   0  0  0  0  0  0  0  0  0  0  0  0
  1  2  1  0
  2  3  2  0
  3  4  1  0
  4  5  1  0
  5  6  1  0
  6  7  2  0
  6  8  1  0
  8  9  2  0
  9 10  1  0
 10 11  1  0
 10 12  2  0
 12 13  1  0
 13 14  1  0
 14 15  2  0
 15 16  1  0
 15 17  1  0
 17 18  1  0
 17 19  1  0
  4 20  2  0
 20 21  1  0
 21 22  2  0
 22 23  1  0
 23 24  1  0
 24 25  1  0
 22  2  1  0
 19  8  1  0
 25 21  1  0
 19 13  2  0
M  END
>  <smiles>  (840) 
C103321-P145

>  <fragmenstein_outcome>  (840) 
acceptable

>  <inchikey>  (840) 
RGKZJQKRTXUIHV-UHFFFAOYSA-N

>  <fragmenstein_mode>  (840) 
expansion

>  <HIPPO Pose ID>  (840) 
18507

>  <Energy>  (840) 
28.443237

>  <fragmenstein_error>  (840) 


>  <tags>  (840) 
{'openbind_xx01zvns2b_c1_fragmenstein', 'fragmenstein_placed'}

>  <ref_pdb>  (840) 
1

>  <scratch_subdir>  (840) 
/opt/xchem-fragalysis-2/maxwin/BulkDock/SCRATCH/511027/C103321-P145

>  <alias>  (840) 
Cc1cc(NC(=O)c2cc(Cl)cc3nc(C)n(F)c23)cc2c1CNC2

>  <HIPPO Compound ID>  (840) 
99661

>  <fragmenstein_runtime>  (840) 
2.523354

$$$$
Cc1cc2c(cc1NC(=O)c1cc(Cl)cc3c1N[C@H](C)[C@@]31NCCS1)CNC2
     RDKit          3D

 28 32  0  0  0  0  0  0  0  0999 V2000
   -7.9407    6.7792  -10.7645 C   0  0  0  0  0  0  0  0  0  0  0  0
   -8.1588    5.3609  -10.3517 C   0  0  0  0  0  0  0  0  0  0  0  0
   -8.3263    5.1725   -8.9607 C   0  0  0  0  0  0  0  0  0  0  0  0
   -8.6372    3.9241   -8.4718 C   0  0  0  0  0  0  0  0  0  0  0  0
   -8.7630    2.8495   -9.3270 C   0  0  0  0  0  0  0  0  0  0  0  0
   -8.5698    2.9931  -10.6931 C   0  0  0  0  0  0  0  0  0  0  0  0
   -8.2499    4.2553  -11.2312 C   0  0  0  0  0  0  0  0  0  0  0  0
   -8.0707    4.2543  -12.6307 N   0  0  0  0  0  0  0  0  0  0  0  0
   -7.5161    5.3525  -13.5770 C   0  0  0  0  0  0  0  0  0  0  0  0
   -7.1942    6.4554  -13.3530 O   0  0  0  0  0  0  0  0  0  0  0  0
   -7.4973    4.9241  -15.0024 C   0  0  0  0  0  0  0  0  0  0  0  0
   -8.6610    4.4555  -15.6160 C   0  0  0  0  0  0  0  0  0  0  0  0
   -8.7168    4.3640  -17.0140 C   0  0  0  0  0  0  0  0  0  0  0  0
  -10.2142    4.0163  -17.7659 Cl  0  0  0  0  0  0  0  0  0  0  0  0
   -7.6350    4.7224  -17.8181 C   0  0  0  0  0  0  0  0  0  0  0  0
   -6.4865    5.1921  -17.1998 C   0  0  0  0  0  0  0  0  0  0  0  0
   -6.3993    5.2438  -15.8029 C   0  0  0  0  0  0  0  0  0  0  0  0
   -5.1418    5.7167  -15.3283 N   0  0  0  0  0  0  0  0  0  0  0  0
   -4.3234    5.8275  -16.5568 C   0  0  2  0  0  0  0  0  0  0  0  0
   -3.3119    6.9592  -16.3993 C   0  0  0  0  0  0  0  0  0  0  0  0
   -5.2858    5.8559  -17.8142 C   0  0  1  0  0  0  0  0  0  0  0  0
   -4.7672    5.1478  -18.9823 N   0  0  0  0  0  0  0  0  0  0  0  0
   -4.0892    6.0980  -19.8513 C   0  0  0  0  0  0  0  0  0  0  0  0
   -5.0219    7.2780  -20.0484 C   0  0  0  0  0  0  0  0  0  0  0  0
   -5.6946    7.5597  -18.3991 S   0  0  0  0  0  0  0  0  0  0  0  0
   -9.0844    1.6294   -8.5372 C   0  0  0  0  0  0  0  0  0  0  0  0
   -9.3126    2.0813   -7.1373 N   0  0  0  0  0  0  0  0  0  0  0  0
   -8.9019    3.4981   -7.0719 C   0  0  0  0  0  0  0  0  0  0  0  0
  1  2  1  0
  2  3  2  0
  3  4  1  0
  4  5  2  0
  5  6  1  0
  6  7  2  0
  7  8  1  0
  8  9  1  0
  9 10  2  0
  9 11  1  0
 11 12  2  0
 12 13  1  0
 13 14  1  0
 13 15  2  0
 15 16  1  0
 16 17  2  0
 17 18  1  0
 18 19  1  0
 19 20  1  1
 19 21  1  0
 21 22  1  6
 22 23  1  0
 23 24  1  0
 24 25  1  0
  5 26  1  0
 26 27  1  0
 27 28  1  0
  7  2  1  0
 17 11  1  0
 25 21  1  0
 28  4  1  0
 21 16  1  0
M  END
>  <smiles>  (841) 
C103327-P145

>  <fragmenstein_outcome>  (841) 
acceptable

>  <inchikey>  (841) 
CFNVVQJCPCSFGT-UHFFFAOYSA-N

>  <fragmenstein_mode>  (841) 
expansion

>  <HIPPO Pose ID>  (841) 
18509

>  <Energy>  (841) 
120.837971

>  <fragmenstein_error>  (841) 


>  <tags>  (841) 
{'openbind_xx01zvns2b_c1_fragmenstein', 'fragmenstein_placed'}

>  <ref_pdb>  (841) 
1

>  <scratch_subdir>  (841) 
/opt/xchem-fragalysis-2/maxwin/BulkDock/SCRATCH/511027/C103327-P145

>  <alias>  (841) 
Cc1cc2c(cc1NC(=O)c1cc(Cl)cc3c1N[C@H](C)[C@@]31NCCS1)CNC2

>  <HIPPO Compound ID>  (841) 
95861

>  <fragmenstein_runtime>  (841) 
4.219939

$$$$
Cc1c(NC(C)(C)CO)c2cc(Cl)cc(C(=O)Nc3ccc4c(c3)[C@@H](C)NC4)c2n1O
     RDKit          3D

 31 34  0  0  0  0  0  0  0  0999 V2000
   -2.7965    5.4864  -16.1853 C   0  0  0  0  0  0  0  0  0  0  0  0
   -4.2437    5.3805  -16.5073 C   0  0  0  0  0  0  0  0  0  0  0  0
   -5.0223    5.2712  -17.6476 C   0  0  0  0  0  0  0  0  0  0  0  0
   -4.6704    5.3871  -18.9495 N   0  0  0  0  0  0  0  0  0  0  0  0
   -3.5474    6.1562  -19.5178 C   0  0  0  0  0  0  0  0  0  0  0  0
   -3.9710    6.6550  -20.9195 C   0  0  0  0  0  0  0  0  0  0  0  0
   -3.2807    7.4624  -18.7592 C   0  0  0  0  0  0  0  0  0  0  0  0
   -2.2766    5.2534  -19.5902 C   0  0  0  0  0  0  0  0  0  0  0  0
   -2.0052    4.7006  -20.8963 O   0  0  0  0  0  0  0  0  0  0  0  0
   -6.3572    4.9324  -17.2300 C   0  0  0  0  0  0  0  0  0  0  0  0
   -7.5577    4.5818  -17.8822 C   0  0  0  0  0  0  0  0  0  0  0  0
   -8.7065    4.3687  -17.1088 C   0  0  0  0  0  0  0  0  0  0  0  0
  -10.1985    4.0814  -17.8815 Cl  0  0  0  0  0  0  0  0  0  0  0  0
   -8.7157    4.5269  -15.7287 C   0  0  0  0  0  0  0  0  0  0  0  0
   -7.5567    4.9329  -15.0861 C   0  0  0  0  0  0  0  0  0  0  0  0
   -7.5655    5.4392  -13.7018 C   0  0  0  0  0  0  0  0  0  0  0  0
   -7.0703    6.4833  -13.5295 O   0  0  0  0  0  0  0  0  0  0  0  0
   -8.1801    4.4478  -12.6973 N   0  0  0  0  0  0  0  0  0  0  0  0
   -8.2304    4.4837  -11.3088 C   0  0  0  0  0  0  0  0  0  0  0  0
   -7.7279    5.6031  -10.6212 C   0  0  0  0  0  0  0  0  0  0  0  0
   -7.7456    5.6604   -9.2279 C   0  0  0  0  0  0  0  0  0  0  0  0
   -8.2839    4.5918   -8.5456 C   0  0  0  0  0  0  0  0  0  0  0  0
   -8.8208    3.5001   -9.2238 C   0  0  0  0  0  0  0  0  0  0  0  0
   -8.7787    3.4125  -10.6078 C   0  0  0  0  0  0  0  0  0  0  0  0
   -9.4657    2.6102   -8.2114 C   0  0  1  0  0  0  0  0  0  0  0  0
   -9.3346    1.1414   -8.4676 C   0  0  0  0  0  0  0  0  0  0  0  0
   -8.8711    2.9937   -6.9078 N   0  0  0  0  0  0  0  0  0  0  0  0
   -8.4451    4.3973   -7.0767 C   0  0  0  0  0  0  0  0  0  0  0  0
   -6.3863    5.0694  -15.8440 C   0  0  0  0  0  0  0  0  0  0  0  0
   -5.1097    5.3582  -15.4553 N   0  0  0  0  0  0  0  0  0  0  0  0
   -4.6859    5.4954  -14.1346 O   0  0  0  0  0  0  0  0  0  0  0  0
  1  2  1  0
  2  3  2  0
  3  4  1  0
  4  5  1  0
  5  6  1  0
  5  7  1  0
  5  8  1  0
  8  9  1  0
  3 10  1  0
 10 11  2  0
 11 12  1  0
 12 13  1  0
 12 14  2  0
 14 15  1  0
 15 16  1  0
 16 17  2  0
 16 18  1  0
 18 19  1  0
 19 20  2  0
 20 21  1  0
 21 22  2  0
 22 23  1  0
 23 24  2  0
 23 25  1  0
 25 26  1  6
 25 27  1  0
 27 28  1  0
 15 29  2  0
 29 30  1  0
 30 31  1  0
 30  2  1  0
 29 10  1  0
 24 19  1  0
 28 22  1  0
M  END
>  <smiles>  (842) 
C103329-P145

>  <fragmenstein_outcome>  (842) 
acceptable

>  <inchikey>  (842) 
VTMSIYPDXCYZJX-UHFFFAOYSA-N

>  <fragmenstein_mode>  (842) 
expansion

>  <HIPPO Pose ID>  (842) 
18510

>  <Energy>  (842) 
49.992458

>  <fragmenstein_error>  (842) 


>  <tags>  (842) 
{'openbind_xx01zvns2b_c1_fragmenstein', 'fragmenstein_placed'}

>  <ref_pdb>  (842) 
1

>  <scratch_subdir>  (842) 
/opt/xchem-fragalysis-2/maxwin/BulkDock/SCRATCH/511027/C103329-P145

>  <alias>  (842) 
Cc1c(NC(C)(C)CO)c2cc(Cl)cc(C(=O)Nc3ccc4c(c3)[C@@H](C)NC4)c2n1O

>  <HIPPO Compound ID>  (842) 
94859

>  <fragmenstein_runtime>  (842) 
8.630533

$$$$
CN[C@@H]1NCc2c(O)cc(NC(=O)c3cc(Cl)cc4c3nc(C)n4NC(C)(C)CO)cc21
     RDKit          3D

 32 35  0  0  0  0  0  0  0  0999 V2000
  -10.2311    1.0280   -6.9835 C   0  0  0  0  0  0  0  0  0  0  0  0
  -10.1623    2.0829   -7.9889 N   0  0  0  0  0  0  0  0  0  0  0  0
   -8.7997    2.4849   -8.1962 C   0  0  2  0  0  0  0  0  0  0  0  0
   -8.4659    3.1831   -6.9344 N   0  0  0  0  0  0  0  0  0  0  0  0
   -8.3829    4.6163   -7.2091 C   0  0  0  0  0  0  0  0  0  0  0  0
   -8.3260    4.7375   -8.6815 C   0  0  0  0  0  0  0  0  0  0  0  0
   -8.0589    5.8585   -9.4262 C   0  0  0  0  0  0  0  0  0  0  0  0
   -7.8557    7.0475   -8.7964 O   0  0  0  0  0  0  0  0  0  0  0  0
   -7.9797    5.7363  -10.8042 C   0  0  0  0  0  0  0  0  0  0  0  0
   -8.1827    4.4913  -11.4262 C   0  0  0  0  0  0  0  0  0  0  0  0
   -8.0232    4.4076  -12.8111 N   0  0  0  0  0  0  0  0  0  0  0  0
   -7.4627    5.4410  -13.8257 C   0  0  0  0  0  0  0  0  0  0  0  0
   -7.1203    6.5489  -13.6687 O   0  0  0  0  0  0  0  0  0  0  0  0
   -7.4682    4.9391  -15.2120 C   0  0  0  0  0  0  0  0  0  0  0  0
   -8.6761    4.5273  -15.7746 C   0  0  0  0  0  0  0  0  0  0  0  0
   -8.7684    4.3665  -17.1514 C   0  0  0  0  0  0  0  0  0  0  0  0
  -10.3100    4.0904  -17.8268 Cl  0  0  0  0  0  0  0  0  0  0  0  0
   -7.6844    4.5757  -18.0101 C   0  0  0  0  0  0  0  0  0  0  0  0
   -6.4752    4.9605  -17.4208 C   0  0  0  0  0  0  0  0  0  0  0  0
   -6.3400    5.1126  -16.0380 C   0  0  0  0  0  0  0  0  0  0  0  0
   -5.0395    5.4056  -15.7171 N   0  0  0  0  0  0  0  0  0  0  0  0
   -4.3728    5.3652  -16.8523 C   0  0  0  0  0  0  0  0  0  0  0  0
   -2.8985    5.3669  -16.9542 C   0  0  0  0  0  0  0  0  0  0  0  0
   -5.2338    5.2919  -17.9276 N   0  0  0  0  0  0  0  0  0  0  0  0
   -4.8943    5.3613  -19.3313 N   0  0  0  0  0  0  0  0  0  0  0  0
   -4.3697    6.6667  -19.8413 C   0  0  0  0  0  0  0  0  0  0  0  0
   -5.1422    7.0360  -21.1246 C   0  0  0  0  0  0  0  0  0  0  0  0
   -4.4948    7.8853  -18.9079 C   0  0  0  0  0  0  0  0  0  0  0  0
   -2.8874    6.4368  -20.2624 C   0  0  0  0  0  0  0  0  0  0  0  0
   -2.7724    5.1876  -20.9703 O   0  0  0  0  0  0  0  0  0  0  0  0
   -8.5200    3.3623  -10.6632 C   0  0  0  0  0  0  0  0  0  0  0  0
   -8.5827    3.5032   -9.2784 C   0  0  0  0  0  0  0  0  0  0  0  0
  1  2  1  0
  3  2  1  1
  3  4  1  0
  4  5  1  0
  5  6  1  0
  6  7  2  0
  7  8  1  0
  7  9  1  0
  9 10  2  0
 10 11  1  0
 11 12  1  0
 12 13  2  0
 12 14  1  0
 14 15  2  0
 15 16  1  0
 16 17  1  0
 16 18  2  0
 18 19  1  0
 19 20  2  0
 20 21  1  0
 21 22  2  0
 22 23  1  0
 22 24  1  0
 24 25  1  0
 25 26  1  0
 26 27  1  0
 26 28  1  0
 26 29  1  0
 29 30  1  0
 10 31  1  0
 31 32  2  0
 32  3  1  0
 32  6  1  0
 20 14  1  0
 24 19  1  0
M  END
>  <smiles>  (843) 
C103331-P145

>  <fragmenstein_outcome>  (843) 
acceptable

>  <inchikey>  (843) 
JGGDHDIBCSJUFS-UHFFFAOYSA-N

>  <fragmenstein_mode>  (843) 
expansion

>  <HIPPO Pose ID>  (843) 
18511

>  <Energy>  (843) 
10.434181

>  <fragmenstein_error>  (843) 


>  <tags>  (843) 
{'openbind_xx01zvns2b_c1_fragmenstein', 'fragmenstein_placed'}

>  <ref_pdb>  (843) 
1

>  <scratch_subdir>  (843) 
/opt/xchem-fragalysis-2/maxwin/BulkDock/SCRATCH/511027/C103331-P145

>  <alias>  (843) 
CN[C@@H]1NCc2c(O)cc(NC(=O)c3cc(Cl)cc4c3nc(C)n4NC(C)(C)CO)cc21

>  <HIPPO Compound ID>  (843) 
105148

>  <fragmenstein_runtime>  (843) 
10.371803

$$$$
Cc1nc2c(C(=O)Nc3ccc4c(c3)CNC4)cc(Cl)cc2n1N
     RDKit          3D

 24 27  0  0  0  0  0  0  0  0999 V2000
   -3.1731    5.9847  -17.5792 C   0  0  0  0  0  0  0  0  0  0  0  0
   -4.5599    5.5815  -17.2480 C   0  0  0  0  0  0  0  0  0  0  0  0
   -5.0801    5.4990  -16.0367 N   0  0  0  0  0  0  0  0  0  0  0  0
   -6.3846    5.0921  -16.2097 C   0  0  0  0  0  0  0  0  0  0  0  0
   -7.4327    4.8871  -15.2898 C   0  0  0  0  0  0  0  0  0  0  0  0
   -7.3404    5.3293  -13.8772 C   0  0  0  0  0  0  0  0  0  0  0  0
   -6.9348    6.4020  -13.6523 O   0  0  0  0  0  0  0  0  0  0  0  0
   -7.9247    4.2548  -12.9224 N   0  0  0  0  0  0  0  0  0  0  0  0
   -8.0380    4.2437  -11.5321 C   0  0  0  0  0  0  0  0  0  0  0  0
   -7.7786    5.3952  -10.7737 C   0  0  0  0  0  0  0  0  0  0  0  0
   -7.9507    5.3932   -9.3850 C   0  0  0  0  0  0  0  0  0  0  0  0
   -8.3753    4.2261   -8.7768 C   0  0  0  0  0  0  0  0  0  0  0  0
   -8.6329    3.0847   -9.5228 C   0  0  0  0  0  0  0  0  0  0  0  0
   -8.4738    3.0738  -10.9009 C   0  0  0  0  0  0  0  0  0  0  0  0
   -9.0976    1.9941   -8.6203 C   0  0  0  0  0  0  0  0  0  0  0  0
   -9.0050    2.5247   -7.2323 N   0  0  0  0  0  0  0  0  0  0  0  0
   -8.6492    3.9564   -7.3389 C   0  0  0  0  0  0  0  0  0  0  0  0
   -8.6832    4.4649  -15.7670 C   0  0  0  0  0  0  0  0  0  0  0  0
   -8.8828    4.2782  -17.1289 C   0  0  0  0  0  0  0  0  0  0  0  0
  -10.4562    4.0117  -17.7147 Cl  0  0  0  0  0  0  0  0  0  0  0  0
   -7.8698    4.4520  -18.0611 C   0  0  0  0  0  0  0  0  0  0  0  0
   -6.6409    4.8830  -17.5671 C   0  0  0  0  0  0  0  0  0  0  0  0
   -5.4921    5.2637  -18.2043 N   0  0  0  0  0  0  0  0  0  0  0  0
   -5.3552    5.4208  -19.6114 N   0  0  0  0  0  0  0  0  0  0  0  0
  1  2  1  0
  2  3  2  0
  3  4  1  0
  4  5  2  0
  5  6  1  0
  6  7  2  0
  6  8  1  0
  8  9  1  0
  9 10  2  0
 10 11  1  0
 11 12  2  0
 12 13  1  0
 13 14  2  0
 13 15  1  0
 15 16  1  0
 16 17  1  0
  5 18  1  0
 18 19  2  0
 19 20  1  0
 19 21  1  0
 21 22  2  0
 22 23  1  0
 23 24  1  0
 23  2  1  0
 22  4  1  0
 14  9  1  0
 17 12  1  0
M  END
>  <smiles>  (844) 
C103294-P145

>  <fragmenstein_outcome>  (844) 
acceptable

>  <inchikey>  (844) 
YGBLFSSAPKDWER-UHFFFAOYSA-N

>  <fragmenstein_mode>  (844) 
expansion

>  <HIPPO Pose ID>  (844) 
18513

>  <Energy>  (844) 
46.109234

>  <fragmenstein_error>  (844) 


>  <tags>  (844) 
{'openbind_xx01zvns2b_c1_fragmenstein', 'fragmenstein_placed'}

>  <ref_pdb>  (844) 
1

>  <scratch_subdir>  (844) 
/opt/xchem-fragalysis-2/maxwin/BulkDock/SCRATCH/511027/C103294-P145

>  <alias>  (844) 
Cc1nc2c(C(=O)Nc3ccc4c(c3)CNC4)cc(Cl)cc2n1N

>  <HIPPO Compound ID>  (844) 
103294

>  <fragmenstein_runtime>  (844) 
2.991465

$$$$
Cc1cc2c(cc1C(=O)C(=O)c1cc(Cl)cc3c1nc(C)n3NC(C)(C)CO)CNC2
     RDKit          3D

 31 34  0  0  0  0  0  0  0  0999 V2000
   -7.8404    7.3464  -11.2892 C   0  0  0  0  0  0  0  0  0  0  0  0
   -8.1076    5.9885  -10.7036 C   0  0  0  0  0  0  0  0  0  0  0  0
   -8.0741    5.8186   -9.3135 C   0  0  0  0  0  0  0  0  0  0  0  0
   -8.3569    4.5682   -8.7878 C   0  0  0  0  0  0  0  0  0  0  0  0
   -8.6485    3.4822   -9.6049 C   0  0  0  0  0  0  0  0  0  0  0  0
   -8.6593    3.6042  -10.9830 C   0  0  0  0  0  0  0  0  0  0  0  0
   -8.3969    4.8691  -11.5222 C   0  0  0  0  0  0  0  0  0  0  0  0
   -8.4649    5.0404  -12.9840 C   0  0  0  0  0  0  0  0  0  0  0  0
   -9.5094    5.3560  -13.5402 O   0  0  0  0  0  0  0  0  0  0  0  0
   -7.1644    4.9385  -13.7565 C   0  0  0  0  0  0  0  0  0  0  0  0
   -6.1204    4.8800  -13.1201 O   0  0  0  0  0  0  0  0  0  0  0  0
   -7.1747    4.9487  -15.2304 C   0  0  0  0  0  0  0  0  0  0  0  0
   -8.2584    4.4535  -15.9581 C   0  0  0  0  0  0  0  0  0  0  0  0
   -8.2238    4.4565  -17.3453 C   0  0  0  0  0  0  0  0  0  0  0  0
   -9.6196    3.9259  -18.1643 Cl  0  0  0  0  0  0  0  0  0  0  0  0
   -7.1143    4.9001  -18.0684 C   0  0  0  0  0  0  0  0  0  0  0  0
   -6.0308    5.3828  -17.3273 C   0  0  0  0  0  0  0  0  0  0  0  0
   -6.0499    5.4303  -15.9309 C   0  0  0  0  0  0  0  0  0  0  0  0
   -4.8812    5.9760  -15.4603 N   0  0  0  0  0  0  0  0  0  0  0  0
   -4.0910    6.0985  -16.5035 C   0  0  0  0  0  0  0  0  0  0  0  0
   -2.6464    6.4328  -16.4333 C   0  0  0  0  0  0  0  0  0  0  0  0
   -4.7814    5.8536  -17.6708 N   0  0  0  0  0  0  0  0  0  0  0  0
   -4.2101    5.9016  -18.9752 N   0  0  0  0  0  0  0  0  0  0  0  0
   -4.2698    7.2098  -19.6722 C   0  0  0  0  0  0  0  0  0  0  0  0
   -2.9696    7.2651  -20.5006 C   0  0  0  0  0  0  0  0  0  0  0  0
   -5.4552    7.2026  -20.6380 C   0  0  0  0  0  0  0  0  0  0  0  0
   -4.3312    8.5096  -18.8109 C   0  0  0  0  0  0  0  0  0  0  0  0
   -5.5937    8.7071  -18.1727 O   0  0  0  0  0  0  0  0  0  0  0  0
   -8.9810    2.2977   -8.7627 C   0  0  0  0  0  0  0  0  0  0  0  0
   -8.8320    2.7345   -7.3519 N   0  0  0  0  0  0  0  0  0  0  0  0
   -8.4613    4.1612   -7.3591 C   0  0  0  0  0  0  0  0  0  0  0  0
  1  2  1  0
  2  3  2  0
  3  4  1  0
  4  5  2  0
  5  6  1  0
  6  7  2  0
  7  8  1  0
  8  9  2  0
  8 10  1  0
 10 11  2  0
 10 12  1  0
 12 13  2  0
 13 14  1  0
 14 15  1  0
 14 16  2  0
 16 17  1  0
 17 18  2  0
 18 19  1  0
 19 20  2  0
 20 21  1  0
 20 22  1  0
 22 23  1  0
 23 24  1  0
 24 25  1  0
 24 26  1  0
 24 27  1  0
 27 28  1  0
  5 29  1  0
 29 30  1  0
 30 31  1  0
  7  2  1  0
 18 12  1  0
 31  4  1  0
 22 17  1  0
M  END
>  <smiles>  (845) 
C103353-P145

>  <fragmenstein_outcome>  (845) 
acceptable

>  <inchikey>  (845) 
NZJPJFZMZWSGLT-UHFFFAOYSA-N

>  <fragmenstein_mode>  (845) 
expansion

>  <HIPPO Pose ID>  (845) 
18521

>  <Energy>  (845) 
126.241452

>  <fragmenstein_error>  (845) 


>  <tags>  (845) 
{'openbind_xx01zvns2b_c1_fragmenstein', 'fragmenstein_placed'}

>  <ref_pdb>  (845) 
1

>  <scratch_subdir>  (845) 
/opt/xchem-fragalysis-2/maxwin/BulkDock/SCRATCH/511027/C103353-P145

>  <alias>  (845) 
Cc1cc2c(cc1C(=O)C(=O)c1cc(Cl)cc3c1nc(C)n3NC(C)(C)CO)CNC2

>  <HIPPO Compound ID>  (845) 
103353

>  <fragmenstein_runtime>  (845) 
3.663906

$$$$
O=C(Nc1ccc2c(c1)CNC2)c1cc(Cl)cc2[nH]c(CN3CCCC3)nc12
     RDKit          3D

 28 32  0  0  0  0  0  0  0  0999 V2000
   -6.9848    6.3868  -13.6937 O   0  0  0  0  0  0  0  0  0  0  0  0
   -7.3597    5.3008  -13.9063 C   0  0  0  0  0  0  0  0  0  0  0  0
   -7.8277    4.1902  -12.9303 N   0  0  0  0  0  0  0  0  0  0  0  0
   -8.0141    4.2185  -11.5486 C   0  0  0  0  0  0  0  0  0  0  0  0
   -7.8036    5.3887  -10.8044 C   0  0  0  0  0  0  0  0  0  0  0  0
   -7.9990    5.4015   -9.4183 C   0  0  0  0  0  0  0  0  0  0  0  0
   -8.4016    4.2319   -8.7990 C   0  0  0  0  0  0  0  0  0  0  0  0
   -8.6248    3.0761   -9.5335 C   0  0  0  0  0  0  0  0  0  0  0  0
   -8.4379    3.0492  -10.9075 C   0  0  0  0  0  0  0  0  0  0  0  0
   -9.0771    1.9859   -8.6245 C   0  0  0  0  0  0  0  0  0  0  0  0
   -9.0092    2.5332   -7.2413 N   0  0  0  0  0  0  0  0  0  0  0  0
   -8.6714    3.9687   -7.3591 C   0  0  0  0  0  0  0  0  0  0  0  0
   -7.5388    4.8593  -15.3080 C   0  0  0  0  0  0  0  0  0  0  0  0
   -8.8179    4.4644  -15.7274 C   0  0  0  0  0  0  0  0  0  0  0  0
   -9.0741    4.2429  -17.0777 C   0  0  0  0  0  0  0  0  0  0  0  0
  -10.6743    4.1018  -17.6300 Cl  0  0  0  0  0  0  0  0  0  0  0  0
   -8.0828    4.2869  -18.0436 C   0  0  0  0  0  0  0  0  0  0  0  0
   -6.8349    4.6806  -17.5947 C   0  0  0  0  0  0  0  0  0  0  0  0
   -5.6885    4.9019  -18.2941 N   0  0  0  0  0  0  0  0  0  0  0  0
   -4.7955    5.4920  -17.4436 C   0  0  0  0  0  0  0  0  0  0  0  0
   -3.5468    6.1056  -17.9654 C   0  0  0  0  0  0  0  0  0  0  0  0
   -3.7569    7.4957  -18.4233 N   0  0  0  0  0  0  0  0  0  0  0  0
   -4.6258    7.6381  -19.5990 C   0  0  0  0  0  0  0  0  0  0  0  0
   -3.7337    7.3440  -20.7942 C   0  0  0  0  0  0  0  0  0  0  0  0
   -2.3302    7.7105  -20.3268 C   0  0  0  0  0  0  0  0  0  0  0  0
   -2.4842    8.0900  -18.8581 C   0  0  0  0  0  0  0  0  0  0  0  0
   -5.2341    5.4621  -16.2000 N   0  0  0  0  0  0  0  0  0  0  0  0
   -6.5295    5.0040  -16.2745 C   0  0  0  0  0  0  0  0  0  0  0  0
  1  2  2  0
  2  3  1  0
  3  4  1  0
  4  5  2  0
  5  6  1  0
  6  7  2  0
  7  8  1  0
  8  9  2  0
  8 10  1  0
 10 11  1  0
 11 12  1  0
  2 13  1  0
 13 14  2  0
 14 15  1  0
 15 16  1  0
 15 17  2  0
 17 18  1  0
 18 19  1  0
 19 20  1  0
 20 21  1  0
 21 22  1  0
 22 23  1  0
 23 24  1  0
 24 25  1  0
 25 26  1  0
 20 27  2  0
 27 28  1  0
  9  4  1  0
 28 13  1  0
 12  7  1  0
 28 18  2  0
 26 22  1  0
M  END
>  <smiles>  (846) 
C103364-P145

>  <fragmenstein_outcome>  (846) 
acceptable

>  <inchikey>  (846) 
CTTPBHLRXORGSG-UHFFFAOYSA-N

>  <fragmenstein_mode>  (846) 
expansion

>  <HIPPO Pose ID>  (846) 
18524

>  <Energy>  (846) 
71.504523

>  <fragmenstein_error>  (846) 


>  <tags>  (846) 
{'openbind_xx01zvns2b_c1_fragmenstein', 'fragmenstein_placed'}

>  <ref_pdb>  (846) 
1

>  <scratch_subdir>  (846) 
/opt/xchem-fragalysis-2/maxwin/BulkDock/SCRATCH/511027/C103364-P145

>  <alias>  (846) 
O=C(Nc1ccc2c(c1)CNC2)c1cc(Cl)cc2[nH]c(CN3CCCC3)nc12

>  <HIPPO Compound ID>  (846) 
103364

>  <fragmenstein_runtime>  (846) 
5.371721

$$$$
Cc1nc2cc(Cl)cc([C@](O)(Nc3ccc4c(c3)CNC4)C(=O)NC(C)C)c2[nH]1
     RDKit          3D

 29 32  0  0  0  0  0  0  0  0999 V2000
   -3.1393    5.7808  -16.9948 C   0  0  0  0  0  0  0  0  0  0  0  0
   -4.5734    5.4276  -16.9187 C   0  0  0  0  0  0  0  0  0  0  0  0
   -5.3757    5.1671  -17.9258 N   0  0  0  0  0  0  0  0  0  0  0  0
   -6.5898    4.8478  -17.3660 C   0  0  0  0  0  0  0  0  0  0  0  0
   -7.7894    4.4996  -17.9868 C   0  0  0  0  0  0  0  0  0  0  0  0
   -8.8923    4.2866  -17.1669 C   0  0  0  0  0  0  0  0  0  0  0  0
  -10.4418    4.1261  -17.8611 Cl  0  0  0  0  0  0  0  0  0  0  0  0
   -8.8122    4.3578  -15.7778 C   0  0  0  0  0  0  0  0  0  0  0  0
   -7.6338    4.7370  -15.1159 C   0  0  0  0  0  0  0  0  0  0  0  0
   -7.6471    5.0569  -13.6269 C   0  0  2  0  0  0  0  0  0  0  0  0
   -6.2971    5.2752  -13.2558 O   0  0  0  0  0  0  0  0  0  0  0  0
   -8.0789    3.9290  -12.8070 N   0  0  0  0  0  0  0  0  0  0  0  0
   -8.2528    4.0012  -11.4143 C   0  0  0  0  0  0  0  0  0  0  0  0
   -7.8898    5.1065  -10.6165 C   0  0  0  0  0  0  0  0  0  0  0  0
   -8.0464    5.1182   -9.2243 C   0  0  0  0  0  0  0  0  0  0  0  0
   -8.5127    3.9771   -8.6138 C   0  0  0  0  0  0  0  0  0  0  0  0
   -8.8057    2.8510   -9.3632 C   0  0  0  0  0  0  0  0  0  0  0  0
   -8.6875    2.8478  -10.7475 C   0  0  0  0  0  0  0  0  0  0  0  0
   -9.1780    1.7359   -8.4499 C   0  0  0  0  0  0  0  0  0  0  0  0
   -9.2894    2.3268   -7.0885 N   0  0  0  0  0  0  0  0  0  0  0  0
   -8.7523    3.7008   -7.1716 C   0  0  0  0  0  0  0  0  0  0  0  0
   -8.6023    6.3433  -13.4183 C   0  0  0  0  0  0  0  0  0  0  0  0
   -9.7670    6.3196  -13.5524 O   0  0  0  0  0  0  0  0  0  0  0  0
   -7.6518    7.5223  -13.0313 N   0  0  0  0  0  0  0  0  0  0  0  0
   -7.9534    8.8808  -12.6399 C   0  0  0  0  0  0  0  0  0  0  0  0
   -8.2559    8.9473  -11.1469 C   0  0  0  0  0  0  0  0  0  0  0  0
   -6.8099    9.8124  -13.0163 C   0  0  0  0  0  0  0  0  0  0  0  0
   -6.5423    4.9560  -15.9812 C   0  0  0  0  0  0  0  0  0  0  0  0
   -5.2423    5.3254  -15.7303 N   0  0  0  0  0  0  0  0  0  0  0  0
  1  2  1  0
  2  3  2  0
  3  4  1  0
  4  5  2  0
  5  6  1  0
  6  7  1  0
  6  8  2  0
  8  9  1  0
  9 10  1  0
 10 11  1  1
 10 12  1  0
 12 13  1  0
 13 14  2  0
 14 15  1  0
 15 16  2  0
 16 17  1  0
 17 18  2  0
 17 19  1  0
 19 20  1  0
 20 21  1  0
 10 22  1  0
 22 23  2  0
 22 24  1  0
 24 25  1  0
 25 26  1  0
 25 27  1  0
  9 28  2  0
 28 29  1  0
 29  2  1  0
 28  4  1  0
 18 13  1  0
 21 16  1  0
M  END
>  <smiles>  (847) 
C103368-P145

>  <fragmenstein_outcome>  (847) 
acceptable

>  <inchikey>  (847) 
DTAITAZGBYIYIQ-UHFFFAOYSA-N

>  <fragmenstein_mode>  (847) 
expansion

>  <HIPPO Pose ID>  (847) 
18525

>  <Energy>  (847) 
73.028657

>  <fragmenstein_error>  (847) 


>  <tags>  (847) 
{'openbind_xx01zvns2b_c1_fragmenstein', 'fragmenstein_placed'}

>  <ref_pdb>  (847) 
1

>  <scratch_subdir>  (847) 
/opt/xchem-fragalysis-2/maxwin/BulkDock/SCRATCH/511027/C103368-P145

>  <alias>  (847) 
Cc1nc2cc(Cl)cc([C@](O)(Nc3ccc4c(c3)CNC4)C(=O)NC(C)C)c2[nH]1

>  <HIPPO Compound ID>  (847) 
94431

>  <fragmenstein_runtime>  (847) 
6.387121

$$$$
CC1=Nc2c(C(=O)Nc3ccc4c(c3)CNC4)cc(Cl)cc2[N@H+]1[O-]
     RDKit          3D

 24 27  0  0  0  0  0  0  0  0999 V2000
   -3.1006    5.9138  -17.1092 C   0  0  0  0  0  0  0  0  0  0  0  0
   -4.5361    5.5497  -16.9436 C   0  0  0  0  0  0  0  0  0  0  0  0
   -5.1141    5.4095  -15.7804 N   0  0  0  0  0  0  0  0  0  0  0  0
   -6.4501    5.0749  -16.0602 C   0  0  0  0  0  0  0  0  0  0  0  0
   -7.5117    4.8704  -15.1934 C   0  0  0  0  0  0  0  0  0  0  0  0
   -7.4651    5.3104  -13.7796 C   0  0  0  0  0  0  0  0  0  0  0  0
   -7.1385    6.4100  -13.5584 O   0  0  0  0  0  0  0  0  0  0  0  0
   -7.9765    4.2041  -12.8245 N   0  0  0  0  0  0  0  0  0  0  0  0
   -8.0975    4.1918  -11.4369 C   0  0  0  0  0  0  0  0  0  0  0  0
   -7.8212    5.3401  -10.6779 C   0  0  0  0  0  0  0  0  0  0  0  0
   -7.9868    5.3397   -9.2895 C   0  0  0  0  0  0  0  0  0  0  0  0
   -8.4167    4.1752   -8.6821 C   0  0  0  0  0  0  0  0  0  0  0  0
   -8.6849    3.0361   -9.4289 C   0  0  0  0  0  0  0  0  0  0  0  0
   -8.5372    3.0248  -10.8075 C   0  0  0  0  0  0  0  0  0  0  0  0
   -9.1449    1.9459   -8.5250 C   0  0  0  0  0  0  0  0  0  0  0  0
   -9.0355    2.4719   -7.1369 N   0  0  0  0  0  0  0  0  0  0  0  0
   -8.6892    3.9059   -7.2442 C   0  0  0  0  0  0  0  0  0  0  0  0
   -8.7448    4.4767  -15.7288 C   0  0  0  0  0  0  0  0  0  0  0  0
   -8.9000    4.3438  -17.1155 C   0  0  0  0  0  0  0  0  0  0  0  0
  -10.4566    4.0857  -17.7601 Cl  0  0  0  0  0  0  0  0  0  0  0  0
   -7.8492    4.5723  -17.9917 C   0  0  0  0  0  0  0  0  0  0  0  0
   -6.6486    4.9575  -17.4351 C   0  0  0  0  0  0  0  0  0  0  0  0
   -5.4245    5.3380  -18.1283 N   0  0  1  0  0  0  0  0  0  0  0  0
   -5.5949    6.5081  -18.7984 O   0  0  0  0  0  0  0  0  0  0  0  0
  1  2  1  0
  2  3  2  0
  3  4  1  0
  4  5  2  0
  5  6  1  0
  6  7  2  0
  6  8  1  0
  8  9  1  0
  9 10  2  0
 10 11  1  0
 11 12  2  0
 12 13  1  0
 13 14  2  0
 13 15  1  0
 15 16  1  0
 16 17  1  0
  5 18  1  0
 18 19  2  0
 19 20  1  0
 19 21  1  0
 21 22  2  0
 22 23  1  0
 23 24  1  1
 23  2  1  0
 22  4  1  0
 14  9  1  0
 17 12  1  0
M  CHG  2  23   1  24  -1
M  END
>  <smiles>  (848) 
C103370-P145

>  <fragmenstein_outcome>  (848) 
acceptable

>  <inchikey>  (848) 
WYNATDLHHRKGFW-UHFFFAOYSA-N

>  <fragmenstein_mode>  (848) 
expansion

>  <HIPPO Pose ID>  (848) 
18532

>  <Energy>  (848) 
76.813522

>  <fragmenstein_error>  (848) 


>  <tags>  (848) 
{'openbind_xx01zvns2b_c1_fragmenstein', 'fragmenstein_placed'}

>  <ref_pdb>  (848) 
1

>  <scratch_subdir>  (848) 
/opt/xchem-fragalysis-2/maxwin/BulkDock/SCRATCH/511027/C103370-P145

>  <alias>  (848) 
CC1=Nc2c(C(=O)Nc3ccc4c(c3)CNC4)cc(Cl)cc2[N@H+]1[O-]

>  <HIPPO Compound ID>  (848) 
103370

>  <fragmenstein_runtime>  (848) 
2.248354

$$$$
Cc1nc2c(C(=O)Nc3ccc4c(c3)CNC4)cc(Cl)cc2n1C
     RDKit          3D

 24 27  0  0  0  0  0  0  0  0999 V2000
   -3.0981    5.9959  -17.1629 C   0  0  0  0  0  0  0  0  0  0  0  0
   -4.5148    5.6088  -16.9490 C   0  0  0  0  0  0  0  0  0  0  0  0
   -5.1201    5.5444  -15.7816 N   0  0  0  0  0  0  0  0  0  0  0  0
   -6.4103    5.1418  -16.0336 C   0  0  0  0  0  0  0  0  0  0  0  0
   -7.5071    4.9410  -15.1765 C   0  0  0  0  0  0  0  0  0  0  0  0
   -7.4648    5.3805  -13.7652 C   0  0  0  0  0  0  0  0  0  0  0  0
   -7.1362    6.4764  -13.5295 O   0  0  0  0  0  0  0  0  0  0  0  0
   -7.9874    4.2654  -12.8262 N   0  0  0  0  0  0  0  0  0  0  0  0
   -8.1193    4.2384  -11.4393 C   0  0  0  0  0  0  0  0  0  0  0  0
   -7.9022    5.3910  -10.6685 C   0  0  0  0  0  0  0  0  0  0  0  0
   -8.0688    5.3663   -9.2802 C   0  0  0  0  0  0  0  0  0  0  0  0
   -8.4516    4.1775   -8.6868 C   0  0  0  0  0  0  0  0  0  0  0  0
   -8.6705    3.0371   -9.4467 C   0  0  0  0  0  0  0  0  0  0  0  0
   -8.5095    3.0460  -10.8237 C   0  0  0  0  0  0  0  0  0  0  0  0
   -9.0915    1.9180   -8.5593 C   0  0  0  0  0  0  0  0  0  0  0  0
   -9.0561    2.4438   -7.1668 N   0  0  0  0  0  0  0  0  0  0  0  0
   -8.7116    3.8799   -7.2521 C   0  0  0  0  0  0  0  0  0  0  0  0
   -8.7286    4.5070  -15.7118 C   0  0  0  0  0  0  0  0  0  0  0  0
   -8.8606    4.3282  -17.0835 C   0  0  0  0  0  0  0  0  0  0  0  0
  -10.4069    4.0502  -17.7531 Cl  0  0  0  0  0  0  0  0  0  0  0  0
   -7.7958    4.5168  -17.9596 C   0  0  0  0  0  0  0  0  0  0  0  0
   -6.5854    4.9325  -17.4014 C   0  0  0  0  0  0  0  0  0  0  0  0
   -5.3821    5.2825  -17.9625 N   0  0  0  0  0  0  0  0  0  0  0  0
   -5.1117    5.3561  -19.3774 C   0  0  0  0  0  0  0  0  0  0  0  0
  1  2  1  0
  2  3  2  0
  3  4  1  0
  4  5  2  0
  5  6  1  0
  6  7  2  0
  6  8  1  0
  8  9  1  0
  9 10  2  0
 10 11  1  0
 11 12  2  0
 12 13  1  0
 13 14  2  0
 13 15  1  0
 15 16  1  0
 16 17  1  0
  5 18  1  0
 18 19  2  0
 19 20  1  0
 19 21  1  0
 21 22  2  0
 22 23  1  0
 23 24  1  0
 23  2  1  0
 22  4  1  0
 14  9  1  0
 17 12  1  0
M  END
>  <smiles>  (849) 
C39578-P145

>  <fragmenstein_outcome>  (849) 
acceptable

>  <inchikey>  (849) 
TYGNGLHQLFLFIJ-UHFFFAOYSA-N

>  <fragmenstein_mode>  (849) 
expansion

>  <HIPPO Pose ID>  (849) 
18535

>  <Energy>  (849) 
53.62627

>  <fragmenstein_error>  (849) 


>  <tags>  (849) 
{'openbind_xx01zvns2b_c1_fragmenstein', 'fragmenstein_placed'}

>  <ref_pdb>  (849) 
1

>  <scratch_subdir>  (849) 
/opt/xchem-fragalysis-2/maxwin/BulkDock/SCRATCH/511027/C39578-P145

>  <alias>  (849) 
Cc1nc2c(C(=O)Nc3ccc4c(c3)CNC4)cc(Cl)cc2n1C

>  <HIPPO Compound ID>  (849) 
90376

>  <fragmenstein_runtime>  (849) 
3.694552

$$$$
COn1c(C)c(C)c2c(C(=O)Nc3ccc4c(c3)CNC4)cc(Cl)cc21
     RDKit          3D

 26 29  0  0  0  0  0  0  0  0999 V2000
   -5.1530    6.3199  -19.9442 C   0  0  0  0  0  0  0  0  0  0  0  0
   -4.9277    5.0622  -19.3172 O   0  0  0  0  0  0  0  0  0  0  0  0
   -5.1994    5.1841  -17.9475 N   0  0  0  0  0  0  0  0  0  0  0  0
   -4.2564    5.4855  -17.0031 C   0  0  0  0  0  0  0  0  0  0  0  0
   -2.8346    5.7216  -17.3694 C   0  0  0  0  0  0  0  0  0  0  0  0
   -4.8964    5.5098  -15.7701 C   0  0  0  0  0  0  0  0  0  0  0  0
   -4.2682    5.8153  -14.4521 C   0  0  0  0  0  0  0  0  0  0  0  0
   -6.2733    5.1510  -15.9947 C   0  0  0  0  0  0  0  0  0  0  0  0
   -7.4189    4.9858  -15.1779 C   0  0  0  0  0  0  0  0  0  0  0  0
   -7.4263    5.4046  -13.7564 C   0  0  0  0  0  0  0  0  0  0  0  0
   -7.1330    6.5052  -13.4980 O   0  0  0  0  0  0  0  0  0  0  0  0
   -7.9432    4.2648  -12.8472 N   0  0  0  0  0  0  0  0  0  0  0  0
   -8.1108    4.2153  -11.4637 C   0  0  0  0  0  0  0  0  0  0  0  0
   -7.9484    5.3620  -10.6691 C   0  0  0  0  0  0  0  0  0  0  0  0
   -8.1571    5.3130   -9.2861 C   0  0  0  0  0  0  0  0  0  0  0  0
   -8.5399    4.1090   -8.7255 C   0  0  0  0  0  0  0  0  0  0  0  0
   -8.6942    2.9694   -9.5088 C   0  0  0  0  0  0  0  0  0  0  0  0
   -8.4792    3.0007  -10.8769 C   0  0  0  0  0  0  0  0  0  0  0  0
   -9.0869    1.8261   -8.6322 C   0  0  0  0  0  0  0  0  0  0  0  0
   -9.5220    2.4510   -7.3545 N   0  0  0  0  0  0  0  0  0  0  0  0
   -8.8417    3.7641   -7.3057 C   0  0  0  0  0  0  0  0  0  0  0  0
   -8.6291    4.5617  -15.7401 C   0  0  0  0  0  0  0  0  0  0  0  0
   -8.7173    4.3471  -17.1069 C   0  0  0  0  0  0  0  0  0  0  0  0
  -10.2444    4.0208  -17.7949 Cl  0  0  0  0  0  0  0  0  0  0  0  0
   -7.6215    4.5078  -17.9490 C   0  0  0  0  0  0  0  0  0  0  0  0
   -6.4134    4.9140  -17.3679 C   0  0  0  0  0  0  0  0  0  0  0  0
  1  2  1  0
  2  3  1  0
  3  4  1  0
  4  5  1  0
  4  6  2  0
  6  7  1  0
  6  8  1  0
  8  9  2  0
  9 10  1  0
 10 11  2  0
 10 12  1  0
 12 13  1  0
 13 14  2  0
 14 15  1  0
 15 16  2  0
 16 17  1  0
 17 18  2  0
 17 19  1  0
 19 20  1  0
 20 21  1  0
  9 22  1  0
 22 23  2  0
 23 24  1  0
 23 25  1  0
 25 26  2  0
 26  3  1  0
 26  8  1  0
 18 13  1  0
 21 16  1  0
M  END
>  <smiles>  (850) 
C103405-P145

>  <fragmenstein_outcome>  (850) 
acceptable

>  <inchikey>  (850) 
IYSCDDUNHXTHCH-UHFFFAOYSA-N

>  <fragmenstein_mode>  (850) 
expansion

>  <HIPPO Pose ID>  (850) 
18536

>  <Energy>  (850) 
43.923544

>  <fragmenstein_error>  (850) 


>  <tags>  (850) 
{'openbind_xx01zvns2b_c1_fragmenstein', 'fragmenstein_placed'}

>  <ref_pdb>  (850) 
1

>  <scratch_subdir>  (850) 
/opt/xchem-fragalysis-2/maxwin/BulkDock/SCRATCH/511027/C103405-P145

>  <alias>  (850) 
COn1c(C)c(C)c2c(C(=O)Nc3ccc4c(c3)CNC4)cc(Cl)cc21

>  <HIPPO Compound ID>  (850) 
103405

>  <fragmenstein_runtime>  (850) 
4.40647

$$$$
Cc1nc2c([C@](Nc3ccc4c(c3)CNC4)(OCc3ccccn3)C(=O)NCC(F)F)cc(Cl)cc2[nH]1
     RDKit          3D

 37 41  0  0  0  0  0  0  0  0999 V2000
   -3.1379    6.3041  -17.2296 C   0  0  0  0  0  0  0  0  0  0  0  0
   -4.4893    5.7930  -16.9268 C   0  0  0  0  0  0  0  0  0  0  0  0
   -5.0562    5.7368  -15.7408 N   0  0  0  0  0  0  0  0  0  0  0  0
   -6.3002    5.1880  -15.9393 C   0  0  0  0  0  0  0  0  0  0  0  0
   -7.3088    4.8990  -14.9953 C   0  0  0  0  0  0  0  0  0  0  0  0
   -7.1307    5.1245  -13.4709 C   0  0  2  0  0  0  0  0  0  0  0  0
   -8.1424    4.2510  -12.7930 N   0  0  0  0  0  0  0  0  0  0  0  0
   -8.2833    4.2259  -11.3963 C   0  0  0  0  0  0  0  0  0  0  0  0
   -8.2845    5.3811  -10.5912 C   0  0  0  0  0  0  0  0  0  0  0  0
   -8.4036    5.3190   -9.1972 C   0  0  0  0  0  0  0  0  0  0  0  0
   -8.6172    4.0874   -8.6149 C   0  0  0  0  0  0  0  0  0  0  0  0
   -8.7212    2.9488   -9.3954 C   0  0  0  0  0  0  0  0  0  0  0  0
   -8.5576    2.9990  -10.7723 C   0  0  0  0  0  0  0  0  0  0  0  0
   -9.0332    1.7757   -8.5338 C   0  0  0  0  0  0  0  0  0  0  0  0
   -9.1450    2.2929   -7.1414 N   0  0  0  0  0  0  0  0  0  0  0  0
   -8.8212    3.7343   -7.1844 C   0  0  0  0  0  0  0  0  0  0  0  0
   -7.5087    6.4708  -13.2362 O   0  0  0  0  0  0  0  0  0  0  0  0
   -6.5117    7.4495  -13.4941 C   0  0  0  0  0  0  0  0  0  0  0  0
   -6.6392    8.4958  -12.4103 C   0  0  0  0  0  0  0  0  0  0  0  0
   -7.5421    9.5479  -12.5433 C   0  0  0  0  0  0  0  0  0  0  0  0
   -7.6973   10.4391  -11.4854 C   0  0  0  0  0  0  0  0  0  0  0  0
   -6.9569   10.2550  -10.3247 C   0  0  0  0  0  0  0  0  0  0  0  0
   -6.0891    9.1789  -10.2673 C   0  0  0  0  0  0  0  0  0  0  0  0
   -5.9198    8.2948  -11.2747 N   0  0  0  0  0  0  0  0  0  0  0  0
   -5.6450    4.5798  -12.9347 C   0  0  0  0  0  0  0  0  0  0  0  0
   -5.0526    3.7416  -13.4923 O   0  0  0  0  0  0  0  0  0  0  0  0
   -5.3193    5.3350  -11.6135 N   0  0  0  0  0  0  0  0  0  0  0  0
   -4.2502    5.1442  -10.6663 C   0  0  0  0  0  0  0  0  0  0  0  0
   -2.8619    5.0916  -11.2943 C   0  0  0  0  0  0  0  0  0  0  0  0
   -2.4892    6.3308  -11.7127 F   0  0  0  0  0  0  0  0  0  0  0  0
   -1.9549    4.7305  -10.3443 F   0  0  0  0  0  0  0  0  0  0  0  0
   -8.5545    4.4989  -15.5619 C   0  0  0  0  0  0  0  0  0  0  0  0
   -8.7366    4.3424  -16.9420 C   0  0  0  0  0  0  0  0  0  0  0  0
  -10.2868    4.0299  -17.5909 Cl  0  0  0  0  0  0  0  0  0  0  0  0
   -7.7038    4.5370  -17.8462 C   0  0  0  0  0  0  0  0  0  0  0  0
   -6.5107    4.9794  -17.2985 C   0  0  0  0  0  0  0  0  0  0  0  0
   -5.3290    5.3182  -17.8988 N   0  0  0  0  0  0  0  0  0  0  0  0
  1  2  1  0
  2  3  2  0
  3  4  1  0
  4  5  2  0
  5  6  1  0
  6  7  1  1
  7  8  1  0
  8  9  2  0
  9 10  1  0
 10 11  2  0
 11 12  1  0
 12 13  2  0
 12 14  1  0
 14 15  1  0
 15 16  1  0
  6 17  1  0
 17 18  1  0
 18 19  1  0
 19 20  2  0
 20 21  1  0
 21 22  2  0
 22 23  1  0
 23 24  2  0
  6 25  1  0
 25 26  2  0
 25 27  1  0
 27 28  1  0
 28 29  1  0
 29 30  1  0
 29 31  1  0
  5 32  1  0
 32 33  2  0
 33 34  1  0
 33 35  1  0
 35 36  2  0
 36 37  1  0
 37  2  1  0
 36  4  1  0
 13  8  1  0
 24 19  1  0
 16 11  1  0
M  END
>  <smiles>  (851) 
C103411-P145

>  <fragmenstein_outcome>  (851) 
acceptable

>  <inchikey>  (851) 
ZOLALAXGEYAJKE-UHFFFAOYSA-N

>  <fragmenstein_mode>  (851) 
expansion

>  <HIPPO Pose ID>  (851) 
18538

>  <Energy>  (851) 
143.598684

>  <fragmenstein_error>  (851) 


>  <tags>  (851) 
{'openbind_xx01zvns2b_c1_fragmenstein', 'fragmenstein_placed'}

>  <ref_pdb>  (851) 
1

>  <scratch_subdir>  (851) 
/opt/xchem-fragalysis-2/maxwin/BulkDock/SCRATCH/511027/C103411-P145

>  <alias>  (851) 
Cc1nc2c([C@](Nc3ccc4c(c3)CNC4)(OCc3ccccn3)C(=O)NCC(F)F)cc(Cl)cc2[nH]1

>  <HIPPO Compound ID>  (851) 
85535

>  <fragmenstein_runtime>  (851) 
7.472393

$$$$
Cc1nc2c([C@](O)(Nc3ccc4c(c3)CNC4)C(=O)NCCCF)cc(Cl)cc2[nH]1
     RDKit          3D

 30 33  0  0  0  0  0  0  0  0999 V2000
   -3.0993    5.6421  -17.5511 C   0  0  0  0  0  0  0  0  0  0  0  0
   -4.5077    5.3780  -17.1764 C   0  0  0  0  0  0  0  0  0  0  0  0
   -5.0488    5.3787  -15.9718 N   0  0  0  0  0  0  0  0  0  0  0  0
   -6.3616    4.9640  -16.1252 C   0  0  0  0  0  0  0  0  0  0  0  0
   -7.3964    4.7290  -15.1756 C   0  0  0  0  0  0  0  0  0  0  0  0
   -7.2973    4.9933  -13.6670 C   0  0  2  0  0  0  0  0  0  0  0  0
   -5.9439    5.0013  -13.2692 O   0  0  0  0  0  0  0  0  0  0  0  0
   -7.8970    3.9269  -12.8505 N   0  0  0  0  0  0  0  0  0  0  0  0
   -8.1098    3.9944  -11.4666 C   0  0  0  0  0  0  0  0  0  0  0  0
   -7.7482    5.0826  -10.6452 C   0  0  0  0  0  0  0  0  0  0  0  0
   -7.9790    5.0940   -9.2609 C   0  0  0  0  0  0  0  0  0  0  0  0
   -8.5141    3.9666   -8.6817 C   0  0  0  0  0  0  0  0  0  0  0  0
   -8.7836    2.8443   -9.4505 C   0  0  0  0  0  0  0  0  0  0  0  0
   -8.6003    2.8463  -10.8263 C   0  0  0  0  0  0  0  0  0  0  0  0
   -9.2061    1.7360   -8.5460 C   0  0  0  0  0  0  0  0  0  0  0  0
   -9.6039    2.4043   -7.2781 N   0  0  0  0  0  0  0  0  0  0  0  0
   -8.8477    3.6771   -7.2574 C   0  0  0  0  0  0  0  0  0  0  0  0
   -8.0508    6.3995  -13.4184 C   0  0  0  0  0  0  0  0  0  0  0  0
   -9.2156    6.5359  -13.4467 O   0  0  0  0  0  0  0  0  0  0  0  0
   -6.9177    7.4336  -13.1220 N   0  0  0  0  0  0  0  0  0  0  0  0
   -6.9846    8.8521  -12.8966 C   0  0  0  0  0  0  0  0  0  0  0  0
   -7.4967    9.1536  -11.4937 C   0  0  0  0  0  0  0  0  0  0  0  0
   -7.7034   10.6412  -11.2942 C   0  0  0  0  0  0  0  0  0  0  0  0
   -6.5234   11.2876  -11.4938 F   0  0  0  0  0  0  0  0  0  0  0  0
   -8.6609    4.3884  -15.7284 C   0  0  0  0  0  0  0  0  0  0  0  0
   -8.8713    4.2761  -17.1011 C   0  0  0  0  0  0  0  0  0  0  0  0
  -10.4514    4.0661  -17.7047 Cl  0  0  0  0  0  0  0  0  0  0  0  0
   -7.8483    4.4424  -18.0158 C   0  0  0  0  0  0  0  0  0  0  0  0
   -6.6198    4.7989  -17.4852 C   0  0  0  0  0  0  0  0  0  0  0  0
   -5.4420    5.0704  -18.1241 N   0  0  0  0  0  0  0  0  0  0  0  0
  1  2  1  0
  2  3  2  0
  3  4  1  0
  4  5  2  0
  5  6  1  0
  6  7  1  1
  6  8  1  0
  8  9  1  0
  9 10  2  0
 10 11  1  0
 11 12  2  0
 12 13  1  0
 13 14  2  0
 13 15  1  0
 15 16  1  0
 16 17  1  0
  6 18  1  0
 18 19  2  0
 18 20  1  0
 20 21  1  0
 21 22  1  0
 22 23  1  0
 23 24  1  0
  5 25  1  0
 25 26  2  0
 26 27  1  0
 26 28  1  0
 28 29  2  0
 29 30  1  0
 30  2  1  0
 29  4  1  0
 14  9  1  0
 17 12  1  0
M  END
>  <smiles>  (852) 
C103421-P145

>  <fragmenstein_outcome>  (852) 
acceptable

>  <inchikey>  (852) 
JMGRIVJMLYPVJQ-UHFFFAOYSA-N

>  <fragmenstein_mode>  (852) 
expansion

>  <HIPPO Pose ID>  (852) 
18539

>  <Energy>  (852) 
70.704992

>  <fragmenstein_error>  (852) 


>  <tags>  (852) 
{'openbind_xx01zvns2b_c1_fragmenstein', 'fragmenstein_placed'}

>  <ref_pdb>  (852) 
1

>  <scratch_subdir>  (852) 
/opt/xchem-fragalysis-2/maxwin/BulkDock/SCRATCH/511027/C103421-P145

>  <alias>  (852) 
Cc1nc2c([C@](O)(Nc3ccc4c(c3)CNC4)C(=O)NCCCF)cc(Cl)cc2[nH]1

>  <HIPPO Compound ID>  (852) 
88657

>  <fragmenstein_runtime>  (852) 
4.149782

$$$$
CN1CCc2nc3c(C(=O)Nc4ccc5c(c4)CNC5)cc(Cl)cc3n2CC1
     RDKit          3D

 28 32  0  0  0  0  0  0  0  0999 V2000
   -1.9741    6.2684  -20.1829 C   0  0  0  0  0  0  0  0  0  0  0  0
   -2.9854    7.0790  -19.5123 N   0  0  0  0  0  0  0  0  0  0  0  0
   -2.7359    7.2116  -18.0651 C   0  0  0  0  0  0  0  0  0  0  0  0
   -2.8696    5.9450  -17.2071 C   0  0  0  0  0  0  0  0  0  0  0  0
   -4.2911    5.5903  -16.9462 C   0  0  0  0  0  0  0  0  0  0  0  0
   -4.8864    5.5538  -15.7713 N   0  0  0  0  0  0  0  0  0  0  0  0
   -6.1888    5.1751  -16.0092 C   0  0  0  0  0  0  0  0  0  0  0  0
   -7.2832    4.9870  -15.1424 C   0  0  0  0  0  0  0  0  0  0  0  0
   -7.2254    5.4057  -13.7259 C   0  0  0  0  0  0  0  0  0  0  0  0
   -6.9640    6.5188  -13.4840 O   0  0  0  0  0  0  0  0  0  0  0  0
   -7.6404    4.2440  -12.7865 N   0  0  0  0  0  0  0  0  0  0  0  0
   -7.9026    4.2365  -11.4156 C   0  0  0  0  0  0  0  0  0  0  0  0
   -7.7319    5.3906  -10.6356 C   0  0  0  0  0  0  0  0  0  0  0  0
   -7.9872    5.3727   -9.2597 C   0  0  0  0  0  0  0  0  0  0  0  0
   -8.4069    4.1875   -8.6846 C   0  0  0  0  0  0  0  0  0  0  0  0
   -8.5934    3.0480   -9.4546 C   0  0  0  0  0  0  0  0  0  0  0  0
   -8.3498    3.0521  -10.8208 C   0  0  0  0  0  0  0  0  0  0  0  0
   -9.0742    1.9352   -8.5883 C   0  0  0  0  0  0  0  0  0  0  0  0
   -9.0516    2.4470   -7.1897 N   0  0  0  0  0  0  0  0  0  0  0  0
   -8.7305    3.8893   -7.2625 C   0  0  0  0  0  0  0  0  0  0  0  0
   -8.5142    4.5610  -15.6636 C   0  0  0  0  0  0  0  0  0  0  0  0
   -8.6513    4.3592  -17.0315 C   0  0  0  0  0  0  0  0  0  0  0  0
  -10.1920    4.0064  -17.6782 Cl  0  0  0  0  0  0  0  0  0  0  0  0
   -7.5949    4.5480  -17.9194 C   0  0  0  0  0  0  0  0  0  0  0  0
   -6.3776    4.9643  -17.3770 C   0  0  0  0  0  0  0  0  0  0  0  0
   -5.1734    5.2870  -17.9488 N   0  0  0  0  0  0  0  0  0  0  0  0
   -4.8663    5.3295  -19.3612 C   0  0  0  0  0  0  0  0  0  0  0  0
   -4.3693    6.6940  -19.8448 C   0  0  0  0  0  0  0  0  0  0  0  0
  1  2  1  0
  2  3  1  0
  3  4  1  0
  4  5  1  0
  5  6  2  0
  6  7  1  0
  7  8  2  0
  8  9  1  0
  9 10  2  0
  9 11  1  0
 11 12  1  0
 12 13  2  0
 13 14  1  0
 14 15  2  0
 15 16  1  0
 16 17  2  0
 16 18  1  0
 18 19  1  0
 19 20  1  0
  8 21  1  0
 21 22  2  0
 22 23  1  0
 22 24  1  0
 24 25  2  0
 25 26  1  0
 26 27  1  0
 27 28  1  0
 28  2  1  0
 26  5  1  0
 25  7  1  0
 17 12  1  0
 20 15  1  0
M  END
>  <smiles>  (853) 
C103422-P145

>  <fragmenstein_outcome>  (853) 
acceptable

>  <inchikey>  (853) 
RDKNXJMQPUOJKW-UHFFFAOYSA-N

>  <fragmenstein_mode>  (853) 
expansion

>  <HIPPO Pose ID>  (853) 
18540

>  <Energy>  (853) 
86.060738

>  <fragmenstein_error>  (853) 


>  <tags>  (853) 
{'openbind_xx01zvns2b_c1_fragmenstein', 'fragmenstein_placed'}

>  <ref_pdb>  (853) 
1

>  <scratch_subdir>  (853) 
/opt/xchem-fragalysis-2/maxwin/BulkDock/SCRATCH/511027/C103422-P145

>  <alias>  (853) 
CN1CCc2nc3c(C(=O)Nc4ccc5c(c4)CNC5)cc(Cl)cc3n2CC1

>  <HIPPO Compound ID>  (853) 
93595

>  <fragmenstein_runtime>  (853) 
4.16803

$$$$
CC1=Nc2c(C(=O)Nc3ccc4c(c3)CNC4)cc(Cl)c3[nH]c(=O)cc1c23
     RDKit          3D

 27 31  0  0  0  0  0  0  0  0999 V2000
   -3.0794    5.9414  -17.2644 C   0  0  0  0  0  0  0  0  0  0  0  0
   -4.4815    5.5839  -16.9116 C   0  0  0  0  0  0  0  0  0  0  0  0
   -4.9907    5.6749  -15.6913 N   0  0  0  0  0  0  0  0  0  0  0  0
   -6.3439    5.2384  -15.7930 C   0  0  0  0  0  0  0  0  0  0  0  0
   -7.3878    5.1118  -14.8889 C   0  0  0  0  0  0  0  0  0  0  0  0
   -7.2659    5.4831  -13.4622 C   0  0  0  0  0  0  0  0  0  0  0  0
   -6.9304    6.5623  -13.1692 O   0  0  0  0  0  0  0  0  0  0  0  0
   -7.7350    4.3017  -12.5755 N   0  0  0  0  0  0  0  0  0  0  0  0
   -7.9699    4.2376  -11.2045 C   0  0  0  0  0  0  0  0  0  0  0  0
   -7.8226    5.3604  -10.3765 C   0  0  0  0  0  0  0  0  0  0  0  0
   -8.1053    5.2811   -9.0074 C   0  0  0  0  0  0  0  0  0  0  0  0
   -8.5429    4.0727   -8.4968 C   0  0  0  0  0  0  0  0  0  0  0  0
   -8.6839    2.9577   -9.3162 C   0  0  0  0  0  0  0  0  0  0  0  0
   -8.3996    3.0183  -10.6694 C   0  0  0  0  0  0  0  0  0  0  0  0
   -9.1430    1.8005   -8.4934 C   0  0  0  0  0  0  0  0  0  0  0  0
   -9.6101    2.3934   -7.2145 N   0  0  0  0  0  0  0  0  0  0  0  0
   -8.9196    3.6978   -7.1019 C   0  0  0  0  0  0  0  0  0  0  0  0
   -8.6712    4.6902  -15.3502 C   0  0  0  0  0  0  0  0  0  0  0  0
   -8.8837    4.3796  -16.6981 C   0  0  0  0  0  0  0  0  0  0  0  0
  -10.4087    4.0505  -17.3905 Cl  0  0  0  0  0  0  0  0  0  0  0  0
   -7.8280    4.4376  -17.5614 C   0  0  0  0  0  0  0  0  0  0  0  0
   -7.8906    4.0532  -18.8818 N   0  0  0  0  0  0  0  0  0  0  0  0
   -6.7881    4.0012  -19.6696 C   0  0  0  0  0  0  0  0  0  0  0  0
   -6.8539    3.3115  -20.6795 O   0  0  0  0  0  0  0  0  0  0  0  0
   -5.5432    4.7248  -19.1889 C   0  0  0  0  0  0  0  0  0  0  0  0
   -5.4604    5.0586  -17.8970 C   0  0  0  0  0  0  0  0  0  0  0  0
   -6.6272    4.8727  -17.0925 C   0  0  0  0  0  0  0  0  0  0  0  0
  1  2  1  0
  2  3  2  0
  3  4  1  0
  4  5  2  0
  5  6  1  0
  6  7  2  0
  6  8  1  0
  8  9  1  0
  9 10  2  0
 10 11  1  0
 11 12  2  0
 12 13  1  0
 13 14  2  0
 13 15  1  0
 15 16  1  0
 16 17  1  0
  5 18  1  0
 18 19  2  0
 19 20  1  0
 19 21  1  0
 21 22  1  0
 22 23  1  0
 23 24  2  0
 23 25  1  0
 25 26  2  0
 26 27  1  0
 26  2  1  0
 27  4  1  0
 14  9  1  0
 27 21  2  0
 17 12  1  0
M  END
>  <smiles>  (854) 
C103424-P145

>  <fragmenstein_outcome>  (854) 
acceptable

>  <inchikey>  (854) 
BISJWFSHTKKTNO-UHFFFAOYSA-N

>  <fragmenstein_mode>  (854) 
expansion

>  <HIPPO Pose ID>  (854) 
18541

>  <Energy>  (854) 
67.768834

>  <fragmenstein_error>  (854) 


>  <tags>  (854) 
{'openbind_xx01zvns2b_c1_fragmenstein', 'fragmenstein_placed'}

>  <ref_pdb>  (854) 
1

>  <scratch_subdir>  (854) 
/opt/xchem-fragalysis-2/maxwin/BulkDock/SCRATCH/511027/C103424-P145

>  <alias>  (854) 
CC1=Nc2c(C(=O)Nc3ccc4c(c3)CNC4)cc(Cl)c3[nH]c(=O)cc1c23

>  <HIPPO Compound ID>  (854) 
28513

>  <fragmenstein_runtime>  (854) 
5.460178

$$$$
Cc1nc2cc(Cl)cc(C(=NC(=O)O)Nc3ccc4c(c3)CNC4)c2[nH]1
     RDKit          3D

 26 29  0  0  0  0  0  0  0  0999 V2000
   -2.9539    5.8718  -17.2687 C   0  0  0  0  0  0  0  0  0  0  0  0
   -4.3755    5.4977  -17.1048 C   0  0  0  0  0  0  0  0  0  0  0  0
   -5.2468    5.2686  -18.0624 N   0  0  0  0  0  0  0  0  0  0  0  0
   -6.4188    4.9343  -17.4305 C   0  0  0  0  0  0  0  0  0  0  0  0
   -7.6546    4.5835  -17.9722 C   0  0  0  0  0  0  0  0  0  0  0  0
   -8.7023    4.3411  -17.0856 C   0  0  0  0  0  0  0  0  0  0  0  0
  -10.2626    4.0656  -17.7310 Cl  0  0  0  0  0  0  0  0  0  0  0  0
   -8.5402    4.3994  -15.6967 C   0  0  0  0  0  0  0  0  0  0  0  0
   -7.2957    4.7123  -15.1362 C   0  0  0  0  0  0  0  0  0  0  0  0
   -7.0250    4.8009  -13.6483 C   0  0  0  0  0  0  0  0  0  0  0  0
   -6.0505    5.4763  -13.3397 N   0  0  0  0  0  0  0  0  0  0  0  0
   -5.5743    5.4972  -12.0748 C   0  0  0  0  0  0  0  0  0  0  0  0
   -5.4786    6.4725  -11.3477 O   0  0  0  0  0  0  0  0  0  0  0  0
   -5.1001    4.2983  -11.6961 O   0  0  0  0  0  0  0  0  0  0  0  0
   -8.1147    4.0704  -12.7329 N   0  0  0  0  0  0  0  0  0  0  0  0
   -8.2952    4.0859  -11.3539 C   0  0  0  0  0  0  0  0  0  0  0  0
   -8.1740    5.2633  -10.5940 C   0  0  0  0  0  0  0  0  0  0  0  0
   -8.3041    5.2576   -9.2008 C   0  0  0  0  0  0  0  0  0  0  0  0
   -8.5973    4.0598   -8.5797 C   0  0  0  0  0  0  0  0  0  0  0  0
   -8.7584    2.8982   -9.3193 C   0  0  0  0  0  0  0  0  0  0  0  0
   -8.6001    2.8906  -10.6955 C   0  0  0  0  0  0  0  0  0  0  0  0
   -9.0867    1.7651   -8.4110 C   0  0  0  0  0  0  0  0  0  0  0  0
   -9.2522    2.3550   -7.0556 N   0  0  0  0  0  0  0  0  0  0  0  0
   -8.7994    3.7599   -7.1352 C   0  0  0  0  0  0  0  0  0  0  0  0
   -6.2707    4.9905  -16.0526 C   0  0  0  0  0  0  0  0  0  0  0  0
   -4.9561    5.3450  -15.8761 N   0  0  0  0  0  0  0  0  0  0  0  0
  1  2  1  0
  2  3  2  0
  3  4  1  0
  4  5  2  0
  5  6  1  0
  6  7  1  0
  6  8  2  0
  8  9  1  0
  9 10  1  0
 10 11  2  3
 11 12  1  0
 12 13  2  0
 12 14  1  0
 10 15  1  0
 15 16  1  0
 16 17  2  0
 17 18  1  0
 18 19  2  0
 19 20  1  0
 20 21  2  0
 20 22  1  0
 22 23  1  0
 23 24  1  0
  9 25  2  0
 25 26  1  0
 26  2  1  0
 25  4  1  0
 21 16  1  0
 24 19  1  0
M  END
>  <smiles>  (855) 
C103425-P145

>  <fragmenstein_outcome>  (855) 
acceptable

>  <inchikey>  (855) 
DKMGITYUFPXOPF-UHFFFAOYSA-N

>  <fragmenstein_mode>  (855) 
expansion

>  <HIPPO Pose ID>  (855) 
18542

>  <Energy>  (855) 
-28.237674

>  <fragmenstein_error>  (855) 


>  <tags>  (855) 
{'openbind_xx01zvns2b_c1_fragmenstein', 'fragmenstein_placed'}

>  <ref_pdb>  (855) 
1

>  <scratch_subdir>  (855) 
/opt/xchem-fragalysis-2/maxwin/BulkDock/SCRATCH/511027/C103425-P145

>  <alias>  (855) 
Cc1nc2cc(Cl)cc(C(=NC(=O)O)Nc3ccc4c(c3)CNC4)c2[nH]1

>  <HIPPO Compound ID>  (855) 
103425

>  <fragmenstein_runtime>  (855) 
2.475532

$$$$
Cc1nc2c(C(=O)Nc3ccc4c(c3)CNC4)cc(Cl)cc2n1CN(C)C
     RDKit          3D

 27 30  0  0  0  0  0  0  0  0999 V2000
   -2.9038    6.2691  -16.8264 C   0  0  0  0  0  0  0  0  0  0  0  0
   -4.2858    5.7382  -16.7365 C   0  0  0  0  0  0  0  0  0  0  0  0
   -4.9251    5.5911  -15.5917 N   0  0  0  0  0  0  0  0  0  0  0  0
   -6.1924    5.1755  -15.8922 C   0  0  0  0  0  0  0  0  0  0  0  0
   -7.3149    4.9504  -15.0721 C   0  0  0  0  0  0  0  0  0  0  0  0
   -7.3274    5.3736  -13.6532 C   0  0  0  0  0  0  0  0  0  0  0  0
   -7.0145    6.4690  -13.3944 O   0  0  0  0  0  0  0  0  0  0  0  0
   -7.8769    4.2450  -12.7445 N   0  0  0  0  0  0  0  0  0  0  0  0
   -8.0589    4.2028  -11.3622 C   0  0  0  0  0  0  0  0  0  0  0  0
   -7.8801    5.3488  -10.5722 C   0  0  0  0  0  0  0  0  0  0  0  0
   -8.0872    5.3067   -9.1891 C   0  0  0  0  0  0  0  0  0  0  0  0
   -8.4750    4.1081   -8.6188 C   0  0  0  0  0  0  0  0  0  0  0  0
   -8.6592    2.9743   -9.3973 C   0  0  0  0  0  0  0  0  0  0  0  0
   -8.4564    3.0004  -10.7697 C   0  0  0  0  0  0  0  0  0  0  0  0
   -9.0761    1.8365   -8.5308 C   0  0  0  0  0  0  0  0  0  0  0  0
   -9.1912    2.3743   -7.1482 N   0  0  0  0  0  0  0  0  0  0  0  0
   -8.7599    3.7886   -7.1928 C   0  0  0  0  0  0  0  0  0  0  0  0
   -8.5106    4.5059  -15.6518 C   0  0  0  0  0  0  0  0  0  0  0  0
   -8.5850    4.3300  -17.0277 C   0  0  0  0  0  0  0  0  0  0  0  0
  -10.0931    3.9576  -17.7344 Cl  0  0  0  0  0  0  0  0  0  0  0  0
   -7.4972    4.5592  -17.8698 C   0  0  0  0  0  0  0  0  0  0  0  0
   -6.3103    4.9874  -17.2680 C   0  0  0  0  0  0  0  0  0  0  0  0
   -5.0890    5.3802  -17.7980 N   0  0  0  0  0  0  0  0  0  0  0  0
   -4.8908    5.5340  -19.2470 C   0  0  0  0  0  0  0  0  0  0  0  0
   -3.5041    5.8649  -19.5828 N   0  0  0  0  0  0  0  0  0  0  0  0
   -2.6269    4.7032  -19.6622 C   0  0  0  0  0  0  0  0  0  0  0  0
   -3.4378    6.6777  -20.7917 C   0  0  0  0  0  0  0  0  0  0  0  0
  1  2  1  0
  2  3  2  0
  3  4  1  0
  4  5  2  0
  5  6  1  0
  6  7  2  0
  6  8  1  0
  8  9  1  0
  9 10  2  0
 10 11  1  0
 11 12  2  0
 12 13  1  0
 13 14  2  0
 13 15  1  0
 15 16  1  0
 16 17  1  0
  5 18  1  0
 18 19  2  0
 19 20  1  0
 19 21  1  0
 21 22  2  0
 22 23  1  0
 23 24  1  0
 24 25  1  0
 25 26  1  0
 25 27  1  0
 23  2  1  0
 22  4  1  0
 14  9  1  0
 17 12  1  0
M  END
>  <smiles>  (856) 
C103435-P145

>  <fragmenstein_outcome>  (856) 
acceptable

>  <inchikey>  (856) 
FFNSTKJJIWDOBS-UHFFFAOYSA-N

>  <fragmenstein_mode>  (856) 
expansion

>  <HIPPO Pose ID>  (856) 
18545

>  <Energy>  (856) 
77.221844

>  <fragmenstein_error>  (856) 


>  <tags>  (856) 
{'openbind_xx01zvns2b_c1_fragmenstein', 'fragmenstein_placed'}

>  <ref_pdb>  (856) 
1

>  <scratch_subdir>  (856) 
/opt/xchem-fragalysis-2/maxwin/BulkDock/SCRATCH/511027/C103435-P145

>  <alias>  (856) 
Cc1nc2c(C(=O)Nc3ccc4c(c3)CNC4)cc(Cl)cc2n1CN(C)C

>  <HIPPO Compound ID>  (856) 
83808

>  <fragmenstein_runtime>  (856) 
3.954607

$$$$
CNCn1c(C)nc2c(C(=O)Nc3cc(F)c4c(c3)CN[C@@]43CCCC3=O)cc(Cl)cc21
     RDKit          3D

 32 36  0  0  0  0  0  0  0  0999 V2000
   -4.2316    6.8381  -21.0089 C   0  0  0  0  0  0  0  0  0  0  0  0
   -4.7639    6.7644  -19.6575 N   0  0  0  0  0  0  0  0  0  0  0  0
   -4.9583    5.3642  -19.2731 C   0  0  0  0  0  0  0  0  0  0  0  0
   -5.3015    5.3174  -17.8560 N   0  0  0  0  0  0  0  0  0  0  0  0
   -4.4355    5.5269  -16.8020 C   0  0  0  0  0  0  0  0  0  0  0  0
   -2.9789    5.7828  -16.9422 C   0  0  0  0  0  0  0  0  0  0  0  0
   -5.0773    5.4768  -15.6543 N   0  0  0  0  0  0  0  0  0  0  0  0
   -6.3741    5.1348  -15.9476 C   0  0  0  0  0  0  0  0  0  0  0  0
   -7.4889    4.9446  -15.1060 C   0  0  0  0  0  0  0  0  0  0  0  0
   -7.4502    5.4188  -13.7035 C   0  0  0  0  0  0  0  0  0  0  0  0
   -7.1237    6.5263  -13.5203 O   0  0  0  0  0  0  0  0  0  0  0  0
   -7.9193    4.3305  -12.7024 N   0  0  0  0  0  0  0  0  0  0  0  0
   -8.1657    4.4067  -11.3283 C   0  0  0  0  0  0  0  0  0  0  0  0
   -8.0096    5.6255  -10.6516 C   0  0  0  0  0  0  0  0  0  0  0  0
   -8.1852    5.6988   -9.2714 C   0  0  0  0  0  0  0  0  0  0  0  0
   -8.0098    6.8684   -8.6449 F   0  0  0  0  0  0  0  0  0  0  0  0
   -8.5145    4.5669   -8.5606 C   0  0  0  0  0  0  0  0  0  0  0  0
   -8.7239    3.3645   -9.2378 C   0  0  0  0  0  0  0  0  0  0  0  0
   -8.5473    3.2619  -10.6174 C   0  0  0  0  0  0  0  0  0  0  0  0
   -9.1030    2.3039   -8.2551 C   0  0  0  0  0  0  0  0  0  0  0  0
   -9.2495    2.9953   -6.9423 N   0  0  0  0  0  0  0  0  0  0  0  0
   -8.6131    4.3368   -7.0854 C   0  0  1  0  0  0  0  0  0  0  0  0
   -7.2412    4.3903   -6.3898 C   0  0  0  0  0  0  0  0  0  0  0  0
   -7.0394    5.8315   -5.9405 C   0  0  0  0  0  0  0  0  0  0  0  0
   -8.4110    6.2851   -5.4822 C   0  0  0  0  0  0  0  0  0  0  0  0
   -9.3500    5.3930   -6.2577 C   0  0  0  0  0  0  0  0  0  0  0  0
  -10.5683    5.5079   -6.1477 O   0  0  0  0  0  0  0  0  0  0  0  0
   -8.7002    4.5158  -15.6616 C   0  0  0  0  0  0  0  0  0  0  0  0
   -8.8058    4.3496  -17.0403 C   0  0  0  0  0  0  0  0  0  0  0  0
  -10.3359    4.0406  -17.7377 Cl  0  0  0  0  0  0  0  0  0  0  0  0
   -7.7307    4.5652  -17.9037 C   0  0  0  0  0  0  0  0  0  0  0  0
   -6.5239    4.9644  -17.3249 C   0  0  0  0  0  0  0  0  0  0  0  0
  1  2  1  0
  2  3  1  0
  3  4  1  0
  4  5  1  0
  5  6  1  0
  5  7  2  0
  7  8  1  0
  8  9  2  0
  9 10  1  0
 10 11  2  0
 10 12  1  0
 12 13  1  0
 13 14  2  0
 14 15  1  0
 15 16  1  0
 15 17  2  0
 17 18  1  0
 18 19  2  0
 18 20  1  0
 20 21  1  0
 21 22  1  0
 22 23  1  1
 23 24  1  0
 24 25  1  0
 25 26  1  0
 26 27  2  0
  9 28  1  0
 28 29  2  0
 29 30  1  0
 29 31  1  0
 31 32  2  0
 32  4  1  0
 32  8  1  0
 19 13  1  0
 26 22  1  0
 22 17  1  0
M  END
>  <smiles>  (857) 
C103436-P145

>  <fragmenstein_outcome>  (857) 
acceptable

>  <inchikey>  (857) 
GYRXUEPWNYSCAJ-UHFFFAOYSA-N

>  <fragmenstein_mode>  (857) 
expansion

>  <HIPPO Pose ID>  (857) 
18547

>  <Energy>  (857) 
96.735598

>  <fragmenstein_error>  (857) 


>  <tags>  (857) 
{'openbind_xx01zvns2b_c1_fragmenstein', 'fragmenstein_placed'}

>  <ref_pdb>  (857) 
1

>  <scratch_subdir>  (857) 
/opt/xchem-fragalysis-2/maxwin/BulkDock/SCRATCH/511027/C103436-P145

>  <alias>  (857) 
CNCn1c(C)nc2c(C(=O)Nc3cc(F)c4c(c3)CN[C@@]43CCCC3=O)cc(Cl)cc21

>  <HIPPO Compound ID>  (857) 
76842

>  <fragmenstein_runtime>  (857) 
6.371515

$$$$
CNCn1c(C)nc2c(C(=O)Nc3cc4c(c5c3OC(C)(C)C5)CNC4)cc(Cl)cc21
     RDKit          3D

 31 35  0  0  0  0  0  0  0  0999 V2000
   -6.1449    4.1312  -19.6957 C   0  0  0  0  0  0  0  0  0  0  0  0
   -5.0260    5.0700  -19.7204 N   0  0  0  0  0  0  0  0  0  0  0  0
   -5.3672    6.2482  -18.9530 C   0  0  0  0  0  0  0  0  0  0  0  0
   -5.5067    5.8686  -17.5596 N   0  0  0  0  0  0  0  0  0  0  0  0
   -4.4973    5.7946  -16.6362 C   0  0  0  0  0  0  0  0  0  0  0  0
   -3.0636    5.9400  -16.9985 C   0  0  0  0  0  0  0  0  0  0  0  0
   -4.9949    5.5505  -15.4392 N   0  0  0  0  0  0  0  0  0  0  0  0
   -6.3360    5.2752  -15.6241 C   0  0  0  0  0  0  0  0  0  0  0  0
   -7.3776    4.9186  -14.7434 C   0  0  0  0  0  0  0  0  0  0  0  0
   -7.2414    5.2404  -13.3082 C   0  0  0  0  0  0  0  0  0  0  0  0
   -6.7617    6.2665  -13.0249 O   0  0  0  0  0  0  0  0  0  0  0  0
   -7.8768    4.1507  -12.4149 N   0  0  0  0  0  0  0  0  0  0  0  0
   -8.1314    4.1383  -11.0453 C   0  0  0  0  0  0  0  0  0  0  0  0
   -8.5342    2.9242  -10.4790 C   0  0  0  0  0  0  0  0  0  0  0  0
   -8.7743    2.8683   -9.1103 C   0  0  0  0  0  0  0  0  0  0  0  0
   -8.6253    3.9805   -8.2926 C   0  0  0  0  0  0  0  0  0  0  0  0
   -8.2524    5.1790   -8.8464 C   0  0  0  0  0  0  0  0  0  0  0  0
   -8.0253    5.2554  -10.2131 C   0  0  0  0  0  0  0  0  0  0  0  0
   -7.7517    6.5323  -10.6213 O   0  0  0  0  0  0  0  0  0  0  0  0
   -7.6628    7.3465   -9.4272 C   0  0  0  0  0  0  0  0  0  0  0  0
   -8.6093    8.5340   -9.6152 C   0  0  0  0  0  0  0  0  0  0  0  0
   -6.2176    7.8415   -9.3158 C   0  0  0  0  0  0  0  0  0  0  0  0
   -8.0630    6.4956   -8.2055 C   0  0  0  0  0  0  0  0  0  0  0  0
   -8.9225    3.6118   -6.8850 C   0  0  0  0  0  0  0  0  0  0  0  0
   -9.4096    2.2161   -6.9106 N   0  0  0  0  0  0  0  0  0  0  0  0
   -9.1623    1.6944   -8.2813 C   0  0  0  0  0  0  0  0  0  0  0  0
   -8.6182    4.4765  -15.2646 C   0  0  0  0  0  0  0  0  0  0  0  0
   -8.8414    4.5192  -16.6309 C   0  0  0  0  0  0  0  0  0  0  0  0
  -10.2987    4.0454  -17.3846 Cl  0  0  0  0  0  0  0  0  0  0  0  0
   -7.9066    5.0833  -17.4746 C   0  0  0  0  0  0  0  0  0  0  0  0
   -6.6536    5.4048  -16.9655 C   0  0  0  0  0  0  0  0  0  0  0  0
  1  2  1  0
  2  3  1  0
  3  4  1  0
  4  5  1  0
  5  6  1  0
  5  7  2  0
  7  8  1  0
  8  9  2  0
  9 10  1  0
 10 11  2  0
 10 12  1  0
 12 13  1  0
 13 14  2  0
 14 15  1  0
 15 16  2  0
 16 17  1  0
 17 18  2  0
 18 19  1  0
 19 20  1  0
 20 21  1  0
 20 22  1  0
 20 23  1  0
 16 24  1  0
 24 25  1  0
 25 26  1  0
  9 27  1  0
 27 28  2  0
 28 29  1  0
 28 30  1  0
 30 31  2  0
 31  4  1  0
 31  8  1  0
 18 13  1  0
 26 15  1  0
 23 17  1  0
M  END
>  <smiles>  (858) 
C103440-P145

>  <fragmenstein_outcome>  (858) 
acceptable

>  <inchikey>  (858) 
NQOXCJGQSPCLGJ-UHFFFAOYSA-N

>  <fragmenstein_mode>  (858) 
expansion

>  <HIPPO Pose ID>  (858) 
18551

>  <Energy>  (858) 
115.381557

>  <fragmenstein_error>  (858) 


>  <tags>  (858) 
{'openbind_xx01zvns2b_c1_fragmenstein', 'fragmenstein_placed'}

>  <ref_pdb>  (858) 
1

>  <scratch_subdir>  (858) 
/opt/xchem-fragalysis-2/maxwin/BulkDock/SCRATCH/511027/C103440-P145

>  <alias>  (858) 
CNCn1c(C)nc2c(C(=O)Nc3cc4c(c5c3OC(C)(C)C5)CNC4)cc(Cl)cc21

>  <HIPPO Compound ID>  (858) 
103440

>  <fragmenstein_runtime>  (858) 
7.756395

$$$$
CC(C)NC(=O)[C@](O)(Nc1ccc2c(c1)CNC2)c1cc(Cl)cc2c1NC1(CCCCC1)N2
     RDKit          3D

 33 37  0  0  0  0  0  0  0  0999 V2000
   -3.1540    1.8046  -13.2421 C   0  0  0  0  0  0  0  0  0  0  0  0
   -4.1965    2.0172  -12.1558 C   0  0  0  0  0  0  0  0  0  0  0  0
   -3.5626    2.5236  -10.8672 C   0  0  0  0  0  0  0  0  0  0  0  0
   -5.2106    2.9350  -12.6122 N   0  0  0  0  0  0  0  0  0  0  0  0
   -6.5970    2.6646  -13.2712 C   0  0  0  0  0  0  0  0  0  0  0  0
   -7.1574    1.6564  -13.4721 O   0  0  0  0  0  0  0  0  0  0  0  0
   -7.2485    4.1213  -13.5643 C   0  0  2  0  0  0  0  0  0  0  0  0
   -6.4347    5.1988  -13.0826 O   0  0  0  0  0  0  0  0  0  0  0  0
   -8.5680    4.2058  -12.8876 N   0  0  0  0  0  0  0  0  0  0  0  0
   -8.5836    4.1894  -11.4744 C   0  0  0  0  0  0  0  0  0  0  0  0
   -8.3806    5.3806  -10.7435 C   0  0  0  0  0  0  0  0  0  0  0  0
   -8.3942    5.3898   -9.3451 C   0  0  0  0  0  0  0  0  0  0  0  0
   -8.6495    4.1987   -8.6934 C   0  0  0  0  0  0  0  0  0  0  0  0
   -8.8434    3.0190   -9.4036 C   0  0  0  0  0  0  0  0  0  0  0  0
   -8.7894    2.9903  -10.7844 C   0  0  0  0  0  0  0  0  0  0  0  0
   -9.1091    1.9037   -8.4494 C   0  0  0  0  0  0  0  0  0  0  0  0
   -9.4227    2.5742   -7.1581 N   0  0  0  0  0  0  0  0  0  0  0  0
   -8.7942    3.9102   -7.2374 C   0  0  0  0  0  0  0  0  0  0  0  0
   -7.4122    4.3372  -15.0676 C   0  0  0  0  0  0  0  0  0  0  0  0
   -8.6373    4.1572  -15.7414 C   0  0  0  0  0  0  0  0  0  0  0  0
   -8.7505    4.3414  -17.1302 C   0  0  0  0  0  0  0  0  0  0  0  0
  -10.2839    4.1973  -17.8751 Cl  0  0  0  0  0  0  0  0  0  0  0  0
   -7.6597    4.7053  -17.9054 C   0  0  0  0  0  0  0  0  0  0  0  0
   -6.4756    4.9262  -17.2450 C   0  0  0  0  0  0  0  0  0  0  0  0
   -6.3451    4.7322  -15.8702 C   0  0  0  0  0  0  0  0  0  0  0  0
   -5.0025    4.9572  -15.4667 N   0  0  0  0  0  0  0  0  0  0  0  0
   -4.3891    5.5692  -16.6628 C   0  0  0  0  0  0  0  0  0  0  0  0
   -3.0040    4.9283  -16.8795 C   0  0  0  0  0  0  0  0  0  0  0  0
   -1.9625    5.8637  -17.5057 C   0  0  0  0  0  0  0  0  0  0  0  0
   -2.5859    6.9230  -18.4006 C   0  0  0  0  0  0  0  0  0  0  0  0
   -3.5810    7.7988  -17.6397 C   0  0  0  0  0  0  0  0  0  0  0  0
   -4.2425    7.0913  -16.4520 C   0  0  0  0  0  0  0  0  0  0  0  0
   -5.2567    5.3386  -17.8397 N   0  0  0  0  0  0  0  0  0  0  0  0
  1  2  1  0
  2  3  1  0
  2  4  1  0
  4  5  1  0
  5  6  2  0
  5  7  1  0
  7  8  1  1
  7  9  1  0
  9 10  1  0
 10 11  2  0
 11 12  1  0
 12 13  2  0
 13 14  1  0
 14 15  2  0
 14 16  1  0
 16 17  1  0
 17 18  1  0
  7 19  1  0
 19 20  2  0
 20 21  1  0
 21 22  1  0
 21 23  2  0
 23 24  1  0
 24 25  2  0
 25 26  1  0
 26 27  1  0
 27 28  1  0
 28 29  1  0
 29 30  1  0
 30 31  1  0
 31 32  1  0
 27 33  1  0
 15 10  1  0
 25 19  1  0
 32 27  1  0
 18 13  1  0
 33 24  1  0
M  END
>  <smiles>  (859) 
C39633-P146

>  <fragmenstein_outcome>  (859) 
acceptable

>  <inchikey>  (859) 
VNURJTODJVIMMC-UHFFFAOYSA-N

>  <fragmenstein_mode>  (859) 
expansion

>  <HIPPO Pose ID>  (859) 
18569

>  <Energy>  (859) 
68.791247

>  <fragmenstein_error>  (859) 


>  <tags>  (859) 
{'openbind_xx01zvns2b_c1_fragmenstein', 'fragmenstein_placed'}

>  <ref_pdb>  (859) 
1

>  <scratch_subdir>  (859) 
/opt/xchem-fragalysis-2/maxwin/BulkDock/SCRATCH/511027/C39633-P146

>  <alias>  (859) 
CC(C)NC(=O)[C@](O)(Nc1ccc2c(c1)CNC2)c1cc(Cl)cc2c1NC1(CCCCC1)N2

>  <HIPPO Compound ID>  (859) 
39633

>  <fragmenstein_runtime>  (859) 
7.898062

$$$$
N#Cc1cc(C(=O)Nc2ccc3c(c2)CNC3)c2c(c1)=NC(=O)N=2
     RDKit          3D

 24 27  0  0  0  0  0  0  0  0999 V2000
   -4.0868    7.3172  -18.5640 N   0  0  0  0  0  0  0  0  0  0  0  0
   -4.8759    6.6173  -18.0882 C   0  0  0  0  0  0  0  0  0  0  0  0
   -5.9283    5.8254  -17.5755 C   0  0  0  0  0  0  0  0  0  0  0  0
   -6.2305    5.8312  -16.1520 C   0  0  0  0  0  0  0  0  0  0  0  0
   -7.2969    5.2250  -15.5807 C   0  0  0  0  0  0  0  0  0  0  0  0
   -7.5673    5.6365  -14.1619 C   0  0  0  0  0  0  0  0  0  0  0  0
   -7.3017    6.7390  -13.8714 O   0  0  0  0  0  0  0  0  0  0  0  0
   -8.0729    4.4612  -13.2869 N   0  0  0  0  0  0  0  0  0  0  0  0
   -8.2606    4.3732  -11.8966 C   0  0  0  0  0  0  0  0  0  0  0  0
   -8.0946    5.5218  -11.0957 C   0  0  0  0  0  0  0  0  0  0  0  0
   -8.2336    5.4741   -9.7030 C   0  0  0  0  0  0  0  0  0  0  0  0
   -8.5540    4.2647   -9.1226 C   0  0  0  0  0  0  0  0  0  0  0  0
   -8.7236    3.1223   -9.8996 C   0  0  0  0  0  0  0  0  0  0  0  0
   -8.5761    3.1553  -11.2851 C   0  0  0  0  0  0  0  0  0  0  0  0
   -9.0387    1.9758   -8.9900 C   0  0  0  0  0  0  0  0  0  0  0  0
   -9.3996    2.5925   -7.6853 N   0  0  0  0  0  0  0  0  0  0  0  0
   -8.7572    3.9214   -7.6847 C   0  0  0  0  0  0  0  0  0  0  0  0
   -8.1464    4.4648  -16.5019 C   0  0  0  0  0  0  0  0  0  0  0  0
   -7.8376    4.5394  -17.9592 C   0  0  0  0  0  0  0  0  0  0  0  0
   -6.6972    5.2256  -18.4807 C   0  0  0  0  0  0  0  0  0  0  0  0
   -8.7045    3.9143  -18.6469 N   0  0  0  0  0  0  0  0  0  0  0  0
   -9.4516    3.3279  -17.6741 C   0  0  0  0  0  0  0  0  0  0  0  0
  -10.1540    2.3836  -17.9627 O   0  0  0  0  0  0  0  0  0  0  0  0
   -9.1768    3.7185  -16.3621 N   0  0  0  0  0  0  0  0  0  0  0  0
  1  2  3  0
  2  3  1  0
  3  4  1  0
  4  5  2  0
  5  6  1  0
  6  7  2  0
  6  8  1  0
  8  9  1  0
  9 10  2  0
 10 11  1  0
 11 12  2  0
 12 13  1  0
 13 14  2  0
 13 15  1  0
 15 16  1  0
 16 17  1  0
  5 18  1  0
 18 19  1  0
 19 20  1  0
 19 21  2  0
 21 22  1  0
 22 23  2  0
 22 24  1  0
 20  3  2  0
 14  9  1  0
 24 18  2  0
 17 12  1  0
M  END
>  <smiles>  (860) 
C102049-P146

>  <fragmenstein_outcome>  (860) 
acceptable

>  <inchikey>  (860) 
BLSXXXRRCKUIAZ-UHFFFAOYSA-O

>  <fragmenstein_mode>  (860) 
expansion

>  <HIPPO Pose ID>  (860) 
18589

>  <Energy>  (860) 
12.802378

>  <fragmenstein_error>  (860) 


>  <tags>  (860) 
{'openbind_xx01zvns2b_c1_fragmenstein', 'fragmenstein_placed'}

>  <ref_pdb>  (860) 
1

>  <scratch_subdir>  (860) 
/opt/xchem-fragalysis-2/maxwin/BulkDock/SCRATCH/511027/C102049-P146

>  <alias>  (860) 
N#Cc1cc(C(=O)Nc2ccc3c(c2)CNC3)c2c(c1)=NC(=O)N=2

>  <HIPPO Compound ID>  (860) 
92319

>  <fragmenstein_runtime>  (860) 
3.315143

$$$$
CCc1ccc(C(=O)Nc2cc3c(cc2C)CNC3)c2c1=NC(=O)N=2
     RDKit          3D

 25 28  0  0  0  0  0  0  0  0999 V2000
   -6.5736    4.1592  -19.9730 C   0  0  0  0  0  0  0  0  0  0  0  0
   -7.9020    4.1350  -19.2214 C   0  0  0  0  0  0  0  0  0  0  0  0
   -7.8218    4.5005  -17.7803 C   0  0  0  0  0  0  0  0  0  0  0  0
   -8.7057    4.0660  -16.8682 C   0  0  0  0  0  0  0  0  0  0  0  0
   -8.6602    4.4275  -15.4700 C   0  0  0  0  0  0  0  0  0  0  0  0
   -7.6752    5.1651  -14.9286 C   0  0  0  0  0  0  0  0  0  0  0  0
   -7.7822    5.6879  -13.5420 C   0  0  0  0  0  0  0  0  0  0  0  0
   -7.6221    6.8247  -13.3276 O   0  0  0  0  0  0  0  0  0  0  0  0
   -8.1365    4.5230  -12.5795 N   0  0  0  0  0  0  0  0  0  0  0  0
   -8.2692    4.5030  -11.1792 C   0  0  0  0  0  0  0  0  0  0  0  0
   -8.5991    3.2254  -10.6775 C   0  0  0  0  0  0  0  0  0  0  0  0
   -8.8129    3.0523   -9.3232 C   0  0  0  0  0  0  0  0  0  0  0  0
   -8.6877    4.1102   -8.4428 C   0  0  0  0  0  0  0  0  0  0  0  0
   -8.3365    5.3650   -8.8946 C   0  0  0  0  0  0  0  0  0  0  0  0
   -8.1296    5.5851  -10.2764 C   0  0  0  0  0  0  0  0  0  0  0  0
   -7.7701    6.9926  -10.6496 C   0  0  0  0  0  0  0  0  0  0  0  0
   -8.9845    3.6367   -7.0605 C   0  0  0  0  0  0  0  0  0  0  0  0
   -9.6247    2.3150   -7.2318 N   0  0  0  0  0  0  0  0  0  0  0  0
   -9.1736    1.8239   -8.5592 C   0  0  0  0  0  0  0  0  0  0  0  0
   -6.6361    5.6548  -15.8423 C   0  0  0  0  0  0  0  0  0  0  0  0
   -6.7452    5.3633  -17.2911 C   0  0  0  0  0  0  0  0  0  0  0  0
   -5.7955    5.9637  -17.9148 N   0  0  0  0  0  0  0  0  0  0  0  0
   -5.0778    6.5818  -16.9153 C   0  0  0  0  0  0  0  0  0  0  0  0
   -4.0922    7.2690  -17.1313 O   0  0  0  0  0  0  0  0  0  0  0  0
   -5.5837    6.3660  -15.6447 N   0  0  0  0  0  0  0  0  0  0  0  0
  1  2  1  0
  2  3  1  0
  3  4  2  0
  4  5  1  0
  5  6  2  0
  6  7  1  0
  7  8  2  0
  7  9  1  0
  9 10  1  0
 10 11  2  0
 11 12  1  0
 12 13  2  0
 13 14  1  0
 14 15  2  0
 15 16  1  0
 13 17  1  0
 17 18  1  0
 18 19  1  0
  6 20  1  0
 20 21  1  0
 21 22  2  0
 22 23  1  0
 23 24  2  0
 23 25  1  0
 21  3  1  0
 15 10  1  0
 25 20  2  0
 19 12  1  0
M  END
>  <smiles>  (861) 
C103504-P146

>  <fragmenstein_outcome>  (861) 
acceptable

>  <inchikey>  (861) 
ZGHIQZASZDWXIZ-UHFFFAOYSA-N

>  <fragmenstein_mode>  (861) 
expansion

>  <HIPPO Pose ID>  (861) 
18600

>  <Energy>  (861) 
29.484133

>  <fragmenstein_error>  (861) 


>  <tags>  (861) 
{'openbind_xx01zvns2b_c1_fragmenstein', 'fragmenstein_placed'}

>  <ref_pdb>  (861) 
1

>  <scratch_subdir>  (861) 
/opt/xchem-fragalysis-2/maxwin/BulkDock/SCRATCH/511027/C103504-P146

>  <alias>  (861) 
CCc1ccc(C(=O)Nc2cc3c(cc2C)CNC3)c2c1=NC(=O)N=2

>  <HIPPO Compound ID>  (861) 
81550

>  <fragmenstein_runtime>  (861) 
4.324487

$$$$
Cc1cc(NC(=O)c2cccc3c2=NC(=O)N=3)cc2c1CNC2
     RDKit          3D

 23 26  0  0  0  0  0  0  0  0999 V2000
   -7.9585    6.6686   -8.7081 C   0  0  0  0  0  0  0  0  0  0  0  0
   -8.1682    5.4284   -9.5184 C   0  0  0  0  0  0  0  0  0  0  0  0
   -8.0277    5.4503  -10.9176 C   0  0  0  0  0  0  0  0  0  0  0  0
   -8.2485    4.3015  -11.7003 C   0  0  0  0  0  0  0  0  0  0  0  0
   -8.0662    4.3352  -13.0867 N   0  0  0  0  0  0  0  0  0  0  0  0
   -7.5495    5.4716  -14.0073 C   0  0  0  0  0  0  0  0  0  0  0  0
   -7.2695    6.5799  -13.7593 O   0  0  0  0  0  0  0  0  0  0  0  0
   -7.3180    4.9526  -15.3822 C   0  0  0  0  0  0  0  0  0  0  0  0
   -6.0881    5.1247  -15.9021 C   0  0  0  0  0  0  0  0  0  0  0  0
   -5.7550    4.8806  -17.2928 C   0  0  0  0  0  0  0  0  0  0  0  0
   -6.6632    4.5485  -18.2176 C   0  0  0  0  0  0  0  0  0  0  0  0
   -8.0290    4.3729  -17.7515 C   0  0  0  0  0  0  0  0  0  0  0  0
   -8.3617    4.5310  -16.3122 C   0  0  0  0  0  0  0  0  0  0  0  0
   -9.6067    4.2838  -16.1508 N   0  0  0  0  0  0  0  0  0  0  0  0
  -10.0682    4.0668  -17.4497 C   0  0  0  0  0  0  0  0  0  0  0  0
  -11.2325    3.8346  -17.7207 O   0  0  0  0  0  0  0  0  0  0  0  0
   -9.0817    4.0754  -18.4137 N   0  0  0  0  0  0  0  0  0  0  0  0
   -8.6214    3.1050  -11.0840 C   0  0  0  0  0  0  0  0  0  0  0  0
   -8.7657    3.0885   -9.7035 C   0  0  0  0  0  0  0  0  0  0  0  0
   -8.5554    4.2311   -8.9341 C   0  0  0  0  0  0  0  0  0  0  0  0
   -8.7942    3.8927   -7.4975 C   0  0  0  0  0  0  0  0  0  0  0  0
   -9.4626    2.5751   -7.4984 N   0  0  0  0  0  0  0  0  0  0  0  0
   -9.1098    1.9498   -8.7983 C   0  0  0  0  0  0  0  0  0  0  0  0
  1  2  1  0
  2  3  2  0
  3  4  1  0
  4  5  1  0
  5  6  1  0
  6  7  2  0
  6  8  1  0
  8  9  2  0
  9 10  1  0
 10 11  2  0
 11 12  1  0
 12 13  1  0
 13 14  2  0
 14 15  1  0
 15 16  2  0
 15 17  1  0
  4 18  2  0
 18 19  1  0
 19 20  2  0
 20 21  1  0
 21 22  1  0
 22 23  1  0
 20  2  1  0
 13  8  1  0
 23 19  1  0
 17 12  2  0
M  END
>  <smiles>  (862) 
C101505-P146

>  <fragmenstein_outcome>  (862) 
acceptable

>  <inchikey>  (862) 
KNUXTMWUYGJHOT-UHFFFAOYSA-N

>  <fragmenstein_mode>  (862) 
expansion

>  <HIPPO Pose ID>  (862) 
18606

>  <Energy>  (862) 
12.788855

>  <fragmenstein_error>  (862) 


>  <tags>  (862) 
{'openbind_xx01zvns2b_c1_fragmenstein', 'fragmenstein_placed'}

>  <ref_pdb>  (862) 
1

>  <scratch_subdir>  (862) 
/opt/xchem-fragalysis-2/maxwin/BulkDock/SCRATCH/511027/C101505-P146

>  <alias>  (862) 
Cc1cc(NC(=O)c2cccc3c2=NC(=O)N=3)cc2c1CNC2

>  <HIPPO Compound ID>  (862) 
77582

>  <fragmenstein_runtime>  (862) 
4.040164

$$$$
O=N[C@@H](Nc1ccc2c(c1)CNC2)c1cccc2c1=NC(=O)N=2
     RDKit          3D

 23 26  0  0  0  0  0  0  0  0999 V2000
   -6.4472    6.9877  -13.4340 O   0  0  0  0  0  0  0  0  0  0  0  0
   -7.5119    6.4560  -13.7765 N   0  0  0  0  0  0  0  0  0  0  0  0
   -7.4287    4.9525  -13.8134 C   0  0  1  0  0  0  0  0  0  0  0  0
   -8.5674    4.3335  -13.1414 N   0  0  0  0  0  0  0  0  0  0  0  0
   -8.5079    4.2722  -11.7246 C   0  0  0  0  0  0  0  0  0  0  0  0
   -8.2427    5.4104  -10.9273 C   0  0  0  0  0  0  0  0  0  0  0  0
   -8.2661    5.3683   -9.5267 C   0  0  0  0  0  0  0  0  0  0  0  0
   -8.5790    4.1732   -8.9190 C   0  0  0  0  0  0  0  0  0  0  0  0
   -8.8250    3.0350   -9.6757 C   0  0  0  0  0  0  0  0  0  0  0  0
   -8.7938    3.0663  -11.0653 C   0  0  0  0  0  0  0  0  0  0  0  0
   -9.1124    1.8986   -8.7488 C   0  0  0  0  0  0  0  0  0  0  0  0
   -9.4146    2.5331   -7.4382 N   0  0  0  0  0  0  0  0  0  0  0  0
   -8.7461    3.8505   -7.4728 C   0  0  0  0  0  0  0  0  0  0  0  0
   -7.2484    4.5939  -15.2735 C   0  0  0  0  0  0  0  0  0  0  0  0
   -6.0225    4.6418  -15.8438 C   0  0  0  0  0  0  0  0  0  0  0  0
   -5.7546    4.5703  -17.2652 C   0  0  0  0  0  0  0  0  0  0  0  0
   -6.7137    4.4732  -18.1895 C   0  0  0  0  0  0  0  0  0  0  0  0
   -8.0699    4.3591  -17.6884 C   0  0  0  0  0  0  0  0  0  0  0  0
   -8.3538    4.3870  -16.2237 C   0  0  0  0  0  0  0  0  0  0  0  0
   -9.6145    4.2210  -16.0689 N   0  0  0  0  0  0  0  0  0  0  0  0
  -10.1125    4.1354  -17.3713 C   0  0  0  0  0  0  0  0  0  0  0  0
  -11.2805    3.9296  -17.6500 O   0  0  0  0  0  0  0  0  0  0  0  0
   -9.1549    4.2194  -18.3520 N   0  0  0  0  0  0  0  0  0  0  0  0
  1  2  2  0
  2  3  1  0
  3  4  1  6
  4  5  1  0
  5  6  2  0
  6  7  1  0
  7  8  2  0
  8  9  1  0
  9 10  2  0
  9 11  1  0
 11 12  1  0
 12 13  1  0
  3 14  1  0
 14 15  2  0
 15 16  1  0
 16 17  2  0
 17 18  1  0
 18 19  1  0
 19 20  2  0
 20 21  1  0
 21 22  2  0
 21 23  1  0
 10  5  1  0
 19 14  1  0
 13  8  1  0
 23 18  2  0
M  END
>  <smiles>  (863) 
C103515-P146

>  <fragmenstein_outcome>  (863) 
acceptable

>  <inchikey>  (863) 
RKVBUCFSOHZSFD-UHFFFAOYSA-N

>  <fragmenstein_mode>  (863) 
expansion

>  <HIPPO Pose ID>  (863) 
18609

>  <Energy>  (863) 
9.302561

>  <fragmenstein_error>  (863) 


>  <tags>  (863) 
{'openbind_xx01zvns2b_c1_fragmenstein', 'fragmenstein_placed'}

>  <ref_pdb>  (863) 
1

>  <scratch_subdir>  (863) 
/opt/xchem-fragalysis-2/maxwin/BulkDock/SCRATCH/511027/C103515-P146

>  <alias>  (863) 
O=N[C@@H](Nc1ccc2c(c1)CNC2)c1cccc2c1=NC(=O)N=2

>  <HIPPO Compound ID>  (863) 
103515

>  <fragmenstein_runtime>  (863) 
2.07947

$$$$
C[C@H]1NCc2cc(NC(=O)c3cc(Cl)cc4c3=NC(=NOCc3ccccc3)N=4)ccc21
     RDKit          3D

 32 36  0  0  0  0  0  0  0  0999 V2000
   -8.9998    4.9666   -6.6126 C   0  0  0  0  0  0  0  0  0  0  0  0
   -8.3515    3.9225   -7.4841 C   0  0  1  0  0  0  0  0  0  0  0  0
   -9.0558    2.6286   -7.3626 N   0  0  0  0  0  0  0  0  0  0  0  0
   -9.0384    2.0129   -8.7137 C   0  0  0  0  0  0  0  0  0  0  0  0
   -8.6917    3.1143   -9.6591 C   0  0  0  0  0  0  0  0  0  0  0  0
   -8.6244    3.0950  -11.0414 C   0  0  0  0  0  0  0  0  0  0  0  0
   -8.1755    4.2445  -11.6946 C   0  0  0  0  0  0  0  0  0  0  0  0
   -7.9783    4.2074  -13.0701 N   0  0  0  0  0  0  0  0  0  0  0  0
   -7.3873    5.2706  -14.0315 C   0  0  0  0  0  0  0  0  0  0  0  0
   -6.9047    6.3103  -13.8060 O   0  0  0  0  0  0  0  0  0  0  0  0
   -7.4738    4.7730  -15.4228 C   0  0  0  0  0  0  0  0  0  0  0  0
   -8.6756    4.5343  -15.9687 C   0  0  0  0  0  0  0  0  0  0  0  0
   -8.8721    4.3330  -17.3888 C   0  0  0  0  0  0  0  0  0  0  0  0
  -10.4997    4.2012  -17.9054 Cl  0  0  0  0  0  0  0  0  0  0  0  0
   -7.8907    4.3721  -18.2979 C   0  0  0  0  0  0  0  0  0  0  0  0
   -6.5450    4.6130  -17.7899 C   0  0  0  0  0  0  0  0  0  0  0  0
   -6.3262    4.8042  -16.3279 C   0  0  0  0  0  0  0  0  0  0  0  0
   -5.0728    4.9792  -16.1081 N   0  0  0  0  0  0  0  0  0  0  0  0
   -4.5364    4.9638  -17.3823 C   0  0  0  0  0  0  0  0  0  0  0  0
   -3.2987    5.2232  -17.6486 N   0  0  0  0  0  0  0  0  0  0  0  0
   -2.5850    5.5126  -16.4651 O   0  0  0  0  0  0  0  0  0  0  0  0
   -1.8871    6.7521  -16.6217 C   0  0  0  0  0  0  0  0  0  0  0  0
   -2.7931    7.9460  -16.4106 C   0  0  0  0  0  0  0  0  0  0  0  0
   -2.6981    9.0668  -17.2473 C   0  0  0  0  0  0  0  0  0  0  0  0
   -3.5195   10.1782  -17.0416 C   0  0  0  0  0  0  0  0  0  0  0  0
   -4.4424   10.1828  -15.9967 C   0  0  0  0  0  0  0  0  0  0  0  0
   -4.5424    9.0781  -15.1544 C   0  0  0  0  0  0  0  0  0  0  0  0
   -3.7162    7.9712  -15.3544 C   0  0  0  0  0  0  0  0  0  0  0  0
   -5.4219    4.7099  -18.4084 N   0  0  0  0  0  0  0  0  0  0  0  0
   -7.8645    5.4028  -10.9655 C   0  0  0  0  0  0  0  0  0  0  0  0
   -7.9433    5.4102   -9.5747 C   0  0  0  0  0  0  0  0  0  0  0  0
   -8.3353    4.2483   -8.9385 C   0  0  0  0  0  0  0  0  0  0  0  0
  2  1  1  1
  2  3  1  0
  3  4  1  0
  4  5  1  0
  5  6  2  0
  6  7  1  0
  7  8  1  0
  8  9  1  0
  9 10  2  0
  9 11  1  0
 11 12  2  0
 12 13  1  0
 13 14  1  0
 13 15  2  0
 15 16  1  0
 16 17  1  0
 17 18  2  0
 18 19  1  0
 19 20  2  3
 20 21  1  0
 21 22  1  0
 22 23  1  0
 23 24  2  0
 24 25  1  0
 25 26  2  0
 26 27  1  0
 27 28  2  0
 19 29  1  0
  7 30  2  0
 30 31  1  0
 31 32  2  0
 32  2  1  0
 32  5  1  0
 17 11  1  0
 28 23  1  0
 29 16  2  0
M  END
>  <smiles>  (864) 
C103549-P146

>  <fragmenstein_outcome>  (864) 
acceptable

>  <inchikey>  (864) 
GLLAKKNDRWXHRN-UHFFFAOYSA-N

>  <fragmenstein_mode>  (864) 
expansion

>  <HIPPO Pose ID>  (864) 
18625

>  <Energy>  (864) 
46.882834

>  <fragmenstein_error>  (864) 


>  <tags>  (864) 
{'openbind_xx01zvns2b_c1_fragmenstein', 'fragmenstein_placed'}

>  <ref_pdb>  (864) 
1

>  <scratch_subdir>  (864) 
/opt/xchem-fragalysis-2/maxwin/BulkDock/SCRATCH/511027/C103549-P146

>  <alias>  (864) 
C[C@H]1NCc2cc(NC(=O)c3cc(Cl)cc4c3=NC(=NOCc3ccccc3)N=4)ccc21

>  <HIPPO Compound ID>  (864) 
103017

>  <fragmenstein_runtime>  (864) 
6.628051

$$$$
O=C1N=c2cc(Cl)cc([C@@H](Nc3ccc4c(c3)CNC4)C(=O)NC[C@H]3CCCO3)c2=N1
     RDKit          3D

 31 35  0  0  0  0  0  0  0  0999 V2000
   -3.4003    6.5628  -17.1946 O   0  0  0  0  0  0  0  0  0  0  0  0
   -4.5063    6.0635  -17.0765 C   0  0  0  0  0  0  0  0  0  0  0  0
   -5.2384    5.5951  -18.1548 N   0  0  0  0  0  0  0  0  0  0  0  0
   -6.3258    5.1785  -17.6154 C   0  0  0  0  0  0  0  0  0  0  0  0
   -7.5299    4.6497  -18.2252 C   0  0  0  0  0  0  0  0  0  0  0  0
   -8.5282    4.3694  -17.3835 C   0  0  0  0  0  0  0  0  0  0  0  0
  -10.0420    3.9503  -18.0291 Cl  0  0  0  0  0  0  0  0  0  0  0  0
   -8.4438    4.4631  -15.9425 C   0  0  0  0  0  0  0  0  0  0  0  0
   -7.3691    4.9353  -15.2842 C   0  0  0  0  0  0  0  0  0  0  0  0
   -7.2010    5.0866  -13.7919 C   0  0  1  0  0  0  0  0  0  0  0  0
   -8.2451    4.3139  -13.0883 N   0  0  0  0  0  0  0  0  0  0  0  0
   -8.2622    4.3884  -11.6825 C   0  0  0  0  0  0  0  0  0  0  0  0
   -7.9384    5.5651  -10.9759 C   0  0  0  0  0  0  0  0  0  0  0  0
   -7.9873    5.6197   -9.5795 C   0  0  0  0  0  0  0  0  0  0  0  0
   -8.3855    4.4896   -8.8964 C   0  0  0  0  0  0  0  0  0  0  0  0
   -8.7523    3.3377   -9.5756 C   0  0  0  0  0  0  0  0  0  0  0  0
   -8.7120    3.2747  -10.9582 C   0  0  0  0  0  0  0  0  0  0  0  0
   -9.2114    2.3095   -8.6006 C   0  0  0  0  0  0  0  0  0  0  0  0
   -8.8688    2.8422   -7.2545 N   0  0  0  0  0  0  0  0  0  0  0  0
   -8.5542    4.2777   -7.4335 C   0  0  0  0  0  0  0  0  0  0  0  0
   -5.7509    4.6948  -13.3092 C   0  0  0  0  0  0  0  0  0  0  0  0
   -5.0458    5.4776  -12.7997 O   0  0  0  0  0  0  0  0  0  0  0  0
   -5.4828    3.2201  -13.7312 N   0  0  0  0  0  0  0  0  0  0  0  0
   -4.3275    2.3843  -13.5265 C   0  0  0  0  0  0  0  0  0  0  0  0
   -3.7676    2.3872  -12.1093 C   0  0  1  0  0  0  0  0  0  0  0  0
   -4.7033    1.7386  -11.1012 C   0  0  0  0  0  0  0  0  0  0  0  0
   -3.7380    1.1073  -10.1352 C   0  0  0  0  0  0  0  0  0  0  0  0
   -2.6132    0.6642  -11.0406 C   0  0  0  0  0  0  0  0  0  0  0  0
   -2.5393    1.6240  -12.1020 O   0  0  0  0  0  0  0  0  0  0  0  0
   -6.2573    5.3693  -16.1444 C   0  0  0  0  0  0  0  0  0  0  0  0
   -5.1443    5.9366  -15.8552 N   0  0  0  0  0  0  0  0  0  0  0  0
  1  2  2  0
  2  3  1  0
  3  4  2  0
  4  5  1  0
  5  6  2  0
  6  7  1  0
  6  8  1  0
  8  9  2  0
  9 10  1  0
 10 11  1  1
 11 12  1  0
 12 13  2  0
 13 14  1  0
 14 15  2  0
 15 16  1  0
 16 17  2  0
 16 18  1  0
 18 19  1  0
 19 20  1  0
 10 21  1  0
 21 22  2  0
 21 23  1  0
 23 24  1  0
 25 24  1  6
 25 26  1  0
 26 27  1  0
 27 28  1  0
 28 29  1  0
  9 30  1  0
 30 31  2  0
 31  2  1  0
 30  4  1  0
 17 12  1  0
 29 25  1  0
 20 15  1  0
M  END
>  <smiles>  (865) 
C103574-P146

>  <fragmenstein_outcome>  (865) 
acceptable

>  <inchikey>  (865) 
YUUUWZSITAHKSX-UHFFFAOYSA-N

>  <fragmenstein_mode>  (865) 
expansion

>  <HIPPO Pose ID>  (865) 
18630

>  <Energy>  (865) 
67.26156

>  <fragmenstein_error>  (865) 


>  <tags>  (865) 
{'openbind_xx01zvns2b_c1_fragmenstein', 'fragmenstein_placed'}

>  <ref_pdb>  (865) 
1

>  <scratch_subdir>  (865) 
/opt/xchem-fragalysis-2/maxwin/BulkDock/SCRATCH/511027/C103574-P146

>  <alias>  (865) 
O=C1N=c2cc(Cl)cc([C@@H](Nc3ccc4c(c3)CNC4)C(=O)NC[C@H]3CCCO3)c2=N1

>  <HIPPO Compound ID>  (865) 
103574

>  <fragmenstein_runtime>  (865) 
10.79448

$$$$
O=C1N=c2cccc(C(=O)Nc3cc4c(c(-c5ccncc5)c3)CNC4)c2=N1
     RDKit          3D

 28 32  0  0  0  0  0  0  0  0999 V2000
  -11.3238    3.8730  -17.7043 O   0  0  0  0  0  0  0  0  0  0  0  0
  -10.1518    4.0841  -17.4501 C   0  0  0  0  0  0  0  0  0  0  0  0
   -9.1954    4.1120  -18.4384 N   0  0  0  0  0  0  0  0  0  0  0  0
   -8.1189    4.3723  -17.7969 C   0  0  0  0  0  0  0  0  0  0  0  0
   -6.7626    4.5351  -18.2945 C   0  0  0  0  0  0  0  0  0  0  0  0
   -5.8262    4.8348  -17.3870 C   0  0  0  0  0  0  0  0  0  0  0  0
   -6.1207    5.0628  -15.9852 C   0  0  0  0  0  0  0  0  0  0  0  0
   -7.3386    4.9001  -15.4334 C   0  0  0  0  0  0  0  0  0  0  0  0
   -7.5211    5.4205  -14.0485 C   0  0  0  0  0  0  0  0  0  0  0  0
   -7.1541    6.5025  -13.7977 O   0  0  0  0  0  0  0  0  0  0  0  0
   -8.1129    4.3213  -13.1282 N   0  0  0  0  0  0  0  0  0  0  0  0
   -8.2815    4.2928  -11.7381 C   0  0  0  0  0  0  0  0  0  0  0  0
   -8.6381    3.0977  -11.1110 C   0  0  0  0  0  0  0  0  0  0  0  0
   -8.7693    3.0877   -9.7293 C   0  0  0  0  0  0  0  0  0  0  0  0
   -8.5595    4.2368   -8.9674 C   0  0  0  0  0  0  0  0  0  0  0  0
   -8.1958    5.4428   -9.5580 C   0  0  0  0  0  0  0  0  0  0  0  0
   -7.9590    6.6605   -8.7743 C   0  0  0  0  0  0  0  0  0  0  0  0
   -8.7612    7.7938   -8.9403 C   0  0  0  0  0  0  0  0  0  0  0  0
   -8.5088    8.9154   -8.1671 C   0  0  0  0  0  0  0  0  0  0  0  0
   -7.5178    8.9924   -7.2538 N   0  0  0  0  0  0  0  0  0  0  0  0
   -6.7458    7.8947   -7.1130 C   0  0  0  0  0  0  0  0  0  0  0  0
   -6.9236    6.7257   -7.8364 C   0  0  0  0  0  0  0  0  0  0  0  0
   -8.0644    5.4482  -10.9627 C   0  0  0  0  0  0  0  0  0  0  0  0
   -8.7925    3.9029   -7.5274 C   0  0  0  0  0  0  0  0  0  0  0  0
   -9.4498    2.5797   -7.5190 N   0  0  0  0  0  0  0  0  0  0  0  0
   -9.1038    1.9514   -8.8172 C   0  0  0  0  0  0  0  0  0  0  0  0
   -8.4108    4.5038  -16.3444 C   0  0  0  0  0  0  0  0  0  0  0  0
   -9.6552    4.2689  -16.1594 N   0  0  0  0  0  0  0  0  0  0  0  0
  1  2  2  0
  2  3  1  0
  3  4  2  0
  4  5  1  0
  5  6  2  0
  6  7  1  0
  7  8  2  0
  8  9  1  0
  9 10  2  0
  9 11  1  0
 11 12  1  0
 12 13  2  0
 13 14  1  0
 14 15  2  0
 15 16  1  0
 16 17  1  0
 17 18  2  0
 18 19  1  0
 19 20  2  0
 20 21  1  0
 21 22  2  0
 16 23  2  0
 15 24  1  0
 24 25  1  0
 25 26  1  0
  8 27  1  0
 27 28  2  0
 28  2  1  0
 27  4  1  0
 23 12  1  0
 26 14  1  0
 22 17  1  0
M  END
>  <smiles>  (866) 
C101516-P146

>  <fragmenstein_outcome>  (866) 
acceptable

>  <inchikey>  (866) 
GFGKFKCTPRYLLJ-UHFFFAOYSA-N

>  <fragmenstein_mode>  (866) 
expansion

>  <HIPPO Pose ID>  (866) 
18639

>  <Energy>  (866) 
22.707903

>  <fragmenstein_error>  (866) 


>  <tags>  (866) 
{'openbind_xx01zvns2b_c1_fragmenstein', 'fragmenstein_placed'}

>  <ref_pdb>  (866) 
1

>  <scratch_subdir>  (866) 
/opt/xchem-fragalysis-2/maxwin/BulkDock/SCRATCH/511027/C101516-P146

>  <alias>  (866) 
O=C1N=c2cccc(C(=O)Nc3cc4c(c(-c5ccncc5)c3)CNC4)c2=N1

>  <HIPPO Compound ID>  (866) 
89368

>  <fragmenstein_runtime>  (866) 
3.041652

$$$$
O=C(Nc1ccc2c(c1)CNC2)c1cccc2c1=NC(=O)[N+]=2[O-]
     RDKit          3D

 23 26  0  0  0  0  0  0  0  0999 V2000
   -7.1176    6.6909  -13.7987 O   0  0  0  0  0  0  0  0  0  0  0  0
   -7.4488    5.6030  -14.0717 C   0  0  0  0  0  0  0  0  0  0  0  0
   -8.0271    4.4757  -13.1797 N   0  0  0  0  0  0  0  0  0  0  0  0
   -8.2224    4.4225  -11.7970 C   0  0  0  0  0  0  0  0  0  0  0  0
   -8.0621    5.5773  -11.0099 C   0  0  0  0  0  0  0  0  0  0  0  0
   -8.2187    5.5322   -9.6201 C   0  0  0  0  0  0  0  0  0  0  0  0
   -8.5431    4.3215   -9.0390 C   0  0  0  0  0  0  0  0  0  0  0  0
   -8.7074    3.1758   -9.8119 C   0  0  0  0  0  0  0  0  0  0  0  0
   -8.5514    3.2062  -11.1913 C   0  0  0  0  0  0  0  0  0  0  0  0
   -9.0268    2.0265   -8.9088 C   0  0  0  0  0  0  0  0  0  0  0  0
   -9.3907    2.6425   -7.6042 N   0  0  0  0  0  0  0  0  0  0  0  0
   -8.7531    3.9751   -7.6024 C   0  0  0  0  0  0  0  0  0  0  0  0
   -7.2378    5.1050  -15.4607 C   0  0  0  0  0  0  0  0  0  0  0  0
   -6.0231    5.3207  -16.0044 C   0  0  0  0  0  0  0  0  0  0  0  0
   -5.7030    5.1266  -17.4077 C   0  0  0  0  0  0  0  0  0  0  0  0
   -6.6159    4.8240  -18.3366 C   0  0  0  0  0  0  0  0  0  0  0  0
   -7.9546    4.6099  -17.8256 C   0  0  0  0  0  0  0  0  0  0  0  0
   -8.2990    4.6687  -16.3757 C   0  0  0  0  0  0  0  0  0  0  0  0
   -9.5314    4.3556  -16.1494 N   0  0  0  0  0  0  0  0  0  0  0  0
  -10.0810    4.1521  -17.4254 C   0  0  0  0  0  0  0  0  0  0  0  0
  -11.2422    3.8278  -17.6297 O   0  0  0  0  0  0  0  0  0  0  0  0
   -9.0413    4.3252  -18.4561 N   0  0  0  0  0  0  0  0  0  0  0  0
   -9.1771    4.1656  -19.6969 O   0  0  0  0  0  0  0  0  0  0  0  0
  1  2  2  0
  2  3  1  0
  3  4  1  0
  4  5  2  0
  5  6  1  0
  6  7  2  0
  7  8  1  0
  8  9  2  0
  8 10  1  0
 10 11  1  0
 11 12  1  0
  2 13  1  0
 13 14  2  0
 14 15  1  0
 15 16  2  0
 16 17  1  0
 17 18  1  0
 18 19  2  0
 19 20  1  0
 20 21  2  0
 20 22  1  0
 22 23  1  0
  9  4  1  0
 18 13  1  0
 12  7  1  0
 22 17  2  0
M  CHG  2  22   1  23  -1
M  END
>  <smiles>  (867) 
C103559-P146

>  <fragmenstein_outcome>  (867) 
acceptable

>  <inchikey>  (867) 
YIFQCIOIMBEKLM-UHFFFAOYSA-N

>  <fragmenstein_mode>  (867) 
expansion

>  <HIPPO Pose ID>  (867) 
18640

>  <Energy>  (867) 
93.190612

>  <fragmenstein_error>  (867) 


>  <tags>  (867) 
{'openbind_xx01zvns2b_c1_fragmenstein', 'fragmenstein_placed'}

>  <ref_pdb>  (867) 
1

>  <scratch_subdir>  (867) 
/opt/xchem-fragalysis-2/maxwin/BulkDock/SCRATCH/511027/C103559-P146

>  <alias>  (867) 
O=C(Nc1ccc2c(c1)CNC2)c1cccc2c1=NC(=O)[N+]=2[O-]

>  <HIPPO Compound ID>  (867) 
103559

>  <fragmenstein_runtime>  (867) 
3.947675

$$$$
O=C1N=c2c(C(=O)Nc3ccc4c(c3)CNC4)ccc3c2=C1C(=O)N3
     RDKit          3D

 25 29  0  0  0  0  0  0  0  0999 V2000
   -3.6377    5.1679  -18.0260 O   0  0  0  0  0  0  0  0  0  0  0  0
   -4.7752    5.0126  -17.6187 C   0  0  0  0  0  0  0  0  0  0  0  0
   -5.2019    5.1250  -16.2697 N   0  0  0  0  0  0  0  0  0  0  0  0
   -6.4689    4.8635  -16.2660 C   0  0  0  0  0  0  0  0  0  0  0  0
   -7.5951    4.7667  -15.2918 C   0  0  0  0  0  0  0  0  0  0  0  0
   -7.4746    5.2680  -13.8942 C   0  0  0  0  0  0  0  0  0  0  0  0
   -7.0386    6.3321  -13.6847 O   0  0  0  0  0  0  0  0  0  0  0  0
   -8.0805    4.2186  -12.9211 N   0  0  0  0  0  0  0  0  0  0  0  0
   -8.1823    4.2263  -11.5306 C   0  0  0  0  0  0  0  0  0  0  0  0
   -7.8859    5.3805  -10.7887 C   0  0  0  0  0  0  0  0  0  0  0  0
   -8.0140    5.3898   -9.3957 C   0  0  0  0  0  0  0  0  0  0  0  0
   -8.4279    4.2304   -8.7672 C   0  0  0  0  0  0  0  0  0  0  0  0
   -8.7198    3.0868   -9.4976 C   0  0  0  0  0  0  0  0  0  0  0  0
   -8.6105    3.0662  -10.8797 C   0  0  0  0  0  0  0  0  0  0  0  0
   -9.1597    2.0057   -8.5718 C   0  0  0  0  0  0  0  0  0  0  0  0
   -8.9752    2.5327   -7.1934 N   0  0  0  0  0  0  0  0  0  0  0  0
   -8.6647    3.9723   -7.3201 C   0  0  0  0  0  0  0  0  0  0  0  0
   -8.8272    4.4204  -15.7678 C   0  0  0  0  0  0  0  0  0  0  0  0
   -9.1366    4.1177  -17.1862 C   0  0  0  0  0  0  0  0  0  0  0  0
   -8.1409    4.2180  -18.0606 C   0  0  0  0  0  0  0  0  0  0  0  0
   -6.8962    4.5854  -17.5858 C   0  0  0  0  0  0  0  0  0  0  0  0
   -5.9154    4.6706  -18.4446 C   0  0  0  0  0  0  0  0  0  0  0  0
   -6.5571    4.3010  -19.7074 C   0  0  0  0  0  0  0  0  0  0  0  0
   -6.0504    4.1856  -20.8083 O   0  0  0  0  0  0  0  0  0  0  0  0
   -7.9260    4.0479  -19.3866 N   0  0  0  0  0  0  0  0  0  0  0  0
  1  2  2  0
  2  3  1  0
  3  4  2  0
  4  5  1  0
  5  6  1  0
  6  7  2  0
  6  8  1  0
  8  9  1  0
  9 10  2  0
 10 11  1  0
 11 12  2  0
 12 13  1  0
 13 14  2  0
 13 15  1  0
 15 16  1  0
 16 17  1  0
  5 18  2  0
 18 19  1  0
 19 20  2  0
 20 21  1  0
 21 22  2  0
 22 23  1  0
 23 24  2  0
 23 25  1  0
 22  2  1  0
 21  4  1  0
 14  9  1  0
 25 20  1  0
 17 12  1  0
M  END
>  <smiles>  (868) 
C103624-P146

>  <fragmenstein_outcome>  (868) 
acceptable

>  <inchikey>  (868) 
URRCSYVMWRLAMA-UHFFFAOYSA-N

>  <fragmenstein_mode>  (868) 
expansion

>  <HIPPO Pose ID>  (868) 
18647

>  <Energy>  (868) 
31.932473

>  <fragmenstein_error>  (868) 


>  <tags>  (868) 
{'openbind_xx01zvns2b_c1_fragmenstein', 'fragmenstein_placed'}

>  <ref_pdb>  (868) 
1

>  <scratch_subdir>  (868) 
/opt/xchem-fragalysis-2/maxwin/BulkDock/SCRATCH/511027/C103624-P146

>  <alias>  (868) 
O=C1N=c2c(C(=O)Nc3ccc4c(c3)CNC4)ccc3c2=C1C(=O)N3

>  <HIPPO Compound ID>  (868) 
100132

>  <fragmenstein_runtime>  (868) 
2.957902

$$$$
CNCC1=c2cc(Cl)cc(C(=O)Nc3cc4c(c5c3OC(C)(C)C5)CNC4)c2=NC1=O
     RDKit          3D

 31 35  0  0  0  0  0  0  0  0999 V2000
   -4.8024    7.0471  -19.9777 C   0  0  0  0  0  0  0  0  0  0  0  0
   -3.6566    6.2691  -19.5339 N   0  0  0  0  0  0  0  0  0  0  0  0
   -4.0265    4.9901  -18.9280 C   0  0  0  0  0  0  0  0  0  0  0  0
   -4.7234    5.0926  -17.6238 C   0  0  0  0  0  0  0  0  0  0  0  0
   -5.9958    4.8842  -17.2936 C   0  0  0  0  0  0  0  0  0  0  0  0
   -7.1566    4.5305  -18.0370 C   0  0  0  0  0  0  0  0  0  0  0  0
   -8.3175    4.4154  -17.3805 C   0  0  0  0  0  0  0  0  0  0  0  0
   -9.7279    4.0576  -18.2562 Cl  0  0  0  0  0  0  0  0  0  0  0  0
   -8.4358    4.6922  -15.9612 C   0  0  0  0  0  0  0  0  0  0  0  0
   -7.3760    5.0356  -15.2041 C   0  0  0  0  0  0  0  0  0  0  0  0
   -7.6024    5.5773  -13.8430 C   0  0  0  0  0  0  0  0  0  0  0  0
   -7.4467    6.7161  -13.6302 O   0  0  0  0  0  0  0  0  0  0  0  0
   -8.0280    4.4238  -12.8924 N   0  0  0  0  0  0  0  0  0  0  0  0
   -8.2495    4.4201  -11.5087 C   0  0  0  0  0  0  0  0  0  0  0  0
   -8.5700    3.1917  -10.9084 C   0  0  0  0  0  0  0  0  0  0  0  0
   -8.7240    3.1259   -9.5230 C   0  0  0  0  0  0  0  0  0  0  0  0
   -8.5662    4.2437   -8.7165 C   0  0  0  0  0  0  0  0  0  0  0  0
   -8.2745    5.4522   -9.2962 C   0  0  0  0  0  0  0  0  0  0  0  0
   -8.1302    5.5359  -10.6774 C   0  0  0  0  0  0  0  0  0  0  0  0
   -7.8902    6.8185  -11.0905 O   0  0  0  0  0  0  0  0  0  0  0  0
   -7.6667    7.6030   -9.8931 C   0  0  0  0  0  0  0  0  0  0  0  0
   -6.1710    7.9328   -9.8268 C   0  0  0  0  0  0  0  0  0  0  0  0
   -8.4802    8.8915  -10.0288 C   0  0  0  0  0  0  0  0  0  0  0  0
   -8.1231    6.7827   -8.6719 C   0  0  0  0  0  0  0  0  0  0  0  0
   -8.7893    3.8820   -7.2939 C   0  0  0  0  0  0  0  0  0  0  0  0
   -9.0547    2.4292   -7.2634 N   0  0  0  0  0  0  0  0  0  0  0  0
   -9.0666    1.9507   -8.6720 C   0  0  0  0  0  0  0  0  0  0  0  0
   -6.0465    5.1264  -15.8486 C   0  0  0  0  0  0  0  0  0  0  0  0
   -4.8973    5.3942  -15.3260 N   0  0  0  0  0  0  0  0  0  0  0  0
   -4.0012    5.3852  -16.3675 C   0  0  0  0  0  0  0  0  0  0  0  0
   -2.8007    5.5882  -16.3062 O   0  0  0  0  0  0  0  0  0  0  0  0
  1  2  1  0
  2  3  1  0
  3  4  1  0
  4  5  2  0
  5  6  1  0
  6  7  2  0
  7  8  1  0
  7  9  1  0
  9 10  2  0
 10 11  1  0
 11 12  2  0
 11 13  1  0
 13 14  1  0
 14 15  2  0
 15 16  1  0
 16 17  2  0
 17 18  1  0
 18 19  2  0
 19 20  1  0
 20 21  1  0
 21 22  1  0
 21 23  1  0
 21 24  1  0
 17 25  1  0
 25 26  1  0
 26 27  1  0
 10 28  1  0
 28 29  2  0
 29 30  1  0
 30 31  2  0
 30  4  1  0
 28  5  1  0
 19 14  1  0
 27 16  1  0
 24 18  1  0
M  END
>  <smiles>  (869) 
C103629-P146

>  <fragmenstein_outcome>  (869) 
acceptable

>  <inchikey>  (869) 
CZNFEYMHVOQBLD-UHFFFAOYSA-N

>  <fragmenstein_mode>  (869) 
expansion

>  <HIPPO Pose ID>  (869) 
18649

>  <Energy>  (869) 
47.439721

>  <fragmenstein_error>  (869) 


>  <tags>  (869) 
{'openbind_xx01zvns2b_c1_fragmenstein', 'fragmenstein_placed'}

>  <ref_pdb>  (869) 
1

>  <scratch_subdir>  (869) 
/opt/xchem-fragalysis-2/maxwin/BulkDock/SCRATCH/511027/C103629-P146

>  <alias>  (869) 
CNCC1=c2cc(Cl)cc(C(=O)Nc3cc4c(c5c3OC(C)(C)C5)CNC4)c2=NC1=O

>  <HIPPO Compound ID>  (869) 
106236

>  <fragmenstein_runtime>  (869) 
3.798223

$$$$
CNCC1=c2cc(Cl)cc(C(=O)Nc3ccc4c(c3)CNC4)c2=NC1=O
     RDKit          3D

 26 29  0  0  0  0  0  0  0  0999 V2000
   -5.1225    7.1741  -21.4253 C   0  0  0  0  0  0  0  0  0  0  0  0
   -5.7138    6.7735  -20.1549 N   0  0  0  0  0  0  0  0  0  0  0  0
   -5.2706    5.4270  -19.7585 C   0  0  0  0  0  0  0  0  0  0  0  0
   -5.5197    5.2506  -18.3155 C   0  0  0  0  0  0  0  0  0  0  0  0
   -6.6238    4.8740  -17.6784 C   0  0  0  0  0  0  0  0  0  0  0  0
   -7.9204    4.5090  -18.1282 C   0  0  0  0  0  0  0  0  0  0  0  0
   -8.8888    4.3522  -17.2207 C   0  0  0  0  0  0  0  0  0  0  0  0
  -10.4949    4.1717  -17.7781 Cl  0  0  0  0  0  0  0  0  0  0  0  0
   -8.6396    4.5285  -15.8005 C   0  0  0  0  0  0  0  0  0  0  0  0
   -7.4265    4.8593  -15.3073 C   0  0  0  0  0  0  0  0  0  0  0  0
   -7.3537    5.3421  -13.9013 C   0  0  0  0  0  0  0  0  0  0  0  0
   -7.1061    6.4620  -13.6758 O   0  0  0  0  0  0  0  0  0  0  0  0
   -7.7279    4.1815  -12.9408 N   0  0  0  0  0  0  0  0  0  0  0  0
   -7.9588    4.1831  -11.5646 C   0  0  0  0  0  0  0  0  0  0  0  0
   -7.7801    5.3499  -10.8044 C   0  0  0  0  0  0  0  0  0  0  0  0
   -7.9968    5.3472   -9.4226 C   0  0  0  0  0  0  0  0  0  0  0  0
   -8.3857    4.1648   -8.8215 C   0  0  0  0  0  0  0  0  0  0  0  0
   -8.5714    3.0108   -9.5694 C   0  0  0  0  0  0  0  0  0  0  0  0
   -8.3660    2.9997  -10.9420 C   0  0  0  0  0  0  0  0  0  0  0  0
   -8.9835    1.8960   -8.6698 C   0  0  0  0  0  0  0  0  0  0  0  0
   -9.0073    2.4499   -7.2900 N   0  0  0  0  0  0  0  0  0  0  0  0
   -8.6608    3.8829   -7.3856 C   0  0  0  0  0  0  0  0  0  0  0  0
   -6.3038    5.0410  -16.2603 C   0  0  0  0  0  0  0  0  0  0  0  0
   -5.0691    5.3526  -16.0480 N   0  0  0  0  0  0  0  0  0  0  0  0
   -4.4861    5.4390  -17.2853 C   0  0  0  0  0  0  0  0  0  0  0  0
   -3.3001    5.5943  -17.5124 O   0  0  0  0  0  0  0  0  0  0  0  0
  1  2  1  0
  2  3  1  0
  3  4  1  0
  4  5  2  0
  5  6  1  0
  6  7  2  0
  7  8  1  0
  7  9  1  0
  9 10  2  0
 10 11  1  0
 11 12  2  0
 11 13  1  0
 13 14  1  0
 14 15  2  0
 15 16  1  0
 16 17  2  0
 17 18  1  0
 18 19  2  0
 18 20  1  0
 20 21  1  0
 21 22  1  0
 10 23  1  0
 23 24  2  0
 24 25  1  0
 25 26  2  0
 25  4  1  0
 23  5  1  0
 19 14  1  0
 22 17  1  0
M  END
>  <smiles>  (870) 
C103609-P147

>  <fragmenstein_outcome>  (870) 
acceptable

>  <inchikey>  (870) 
SMSNBHPFEQVAAL-UHFFFAOYSA-N

>  <fragmenstein_mode>  (870) 
expansion

>  <HIPPO Pose ID>  (870) 
18658

>  <Energy>  (870) 
17.87602

>  <fragmenstein_error>  (870) 


>  <tags>  (870) 
{'openbind_xx01zvns2b_c1_fragmenstein', 'fragmenstein_placed'}

>  <ref_pdb>  (870) 
1

>  <scratch_subdir>  (870) 
/opt/xchem-fragalysis-2/maxwin/BulkDock/SCRATCH/511027/C103609-P147

>  <alias>  (870) 
CNCC1=c2cc(Cl)cc(C(=O)Nc3ccc4c(c3)CNC4)c2=NC1=O

>  <HIPPO Compound ID>  (870) 
103609

>  <fragmenstein_runtime>  (870) 
4.457731

$$$$
CC(C)CNC(=O)[C@@H](Nc1ccc2c(c1)CNC2)[C@@]1(O)C[C@H](Cl)[C@H](NC(=O)OCc2ccccc2)c2n[nH]cc21
     RDKit          3D

 40 44  0  0  0  0  0  0  0  0999 V2000
   -3.3864    3.2335  -14.1885 C   0  0  0  0  0  0  0  0  0  0  0  0
   -3.0832    2.8023  -12.7561 C   0  0  0  0  0  0  0  0  0  0  0  0
   -2.2964    3.9021  -12.0515 C   0  0  0  0  0  0  0  0  0  0  0  0
   -4.3250    2.4203  -11.9379 C   0  0  0  0  0  0  0  0  0  0  0  0
   -5.5034    3.1478  -12.3054 N   0  0  0  0  0  0  0  0  0  0  0  0
   -6.7905    2.6784  -13.0274 C   0  0  0  0  0  0  0  0  0  0  0  0
   -7.1221    1.6103  -13.3656 O   0  0  0  0  0  0  0  0  0  0  0  0
   -7.6385    3.9463  -13.3474 C   0  0  1  0  0  0  0  0  0  0  0  0
   -7.5218    5.0025  -12.2971 N   0  0  0  0  0  0  0  0  0  0  0  0
   -7.9487    4.7673  -10.9773 C   0  0  0  0  0  0  0  0  0  0  0  0
   -7.8337    5.8434  -10.0661 C   0  0  0  0  0  0  0  0  0  0  0  0
   -8.0913    5.6930   -8.6972 C   0  0  0  0  0  0  0  0  0  0  0  0
   -8.4681    4.4472   -8.2401 C   0  0  0  0  0  0  0  0  0  0  0  0
   -8.5859    3.3776   -9.1159 C   0  0  0  0  0  0  0  0  0  0  0  0
   -8.3291    3.5169  -10.4724 C   0  0  0  0  0  0  0  0  0  0  0  0
   -8.9624    2.1504   -8.3510 C   0  0  0  0  0  0  0  0  0  0  0  0
   -9.3958    2.6461   -7.0149 N   0  0  0  0  0  0  0  0  0  0  0  0
   -8.7687    3.9749   -6.8579 C   0  0  0  0  0  0  0  0  0  0  0  0
   -7.2813    4.4376  -14.8230 C   0  0  1  0  0  0  0  0  0  0  0  0
   -6.3193    3.5648  -15.4028 O   0  0  0  0  0  0  0  0  0  0  0  0
   -8.5582    4.2469  -15.6811 C   0  0  0  0  0  0  0  0  0  0  0  0
   -8.5911    4.8962  -17.0784 C   0  0  2  0  0  0  0  0  0  0  0  0
   -9.1866    3.8283  -18.3725 Cl  0  0  0  0  0  0  0  0  0  0  0  0
   -7.4308    5.8265  -17.5043 C   0  0  2  0  0  0  0  0  0  0  0  0
   -6.4126    5.3493  -18.4064 N   0  0  0  0  0  0  0  0  0  0  0  0
   -4.9992    4.8387  -18.1288 C   0  0  0  0  0  0  0  0  0  0  0  0
   -4.4507    4.6464  -17.1205 O   0  0  0  0  0  0  0  0  0  0  0  0
   -4.2661    4.6786  -19.2700 O   0  0  0  0  0  0  0  0  0  0  0  0
   -4.6580    4.9771  -20.6244 C   0  0  0  0  0  0  0  0  0  0  0  0
   -4.7145    6.4496  -20.9726 C   0  0  0  0  0  0  0  0  0  0  0  0
   -4.2854    7.4580  -20.0993 C   0  0  0  0  0  0  0  0  0  0  0  0
   -4.3469    8.8020  -20.4771 C   0  0  0  0  0  0  0  0  0  0  0  0
   -4.8245    9.1555  -21.7372 C   0  0  0  0  0  0  0  0  0  0  0  0
   -5.2412    8.1645  -22.6220 C   0  0  0  0  0  0  0  0  0  0  0  0
   -5.1834    6.8220  -22.2428 C   0  0  0  0  0  0  0  0  0  0  0  0
   -6.7808    6.4505  -16.3015 C   0  0  0  0  0  0  0  0  0  0  0  0
   -6.0771    7.5895  -16.3407 N   0  0  0  0  0  0  0  0  0  0  0  0
   -5.5188    7.6506  -15.1193 N   0  0  0  0  0  0  0  0  0  0  0  0
   -5.9026    6.6369  -14.2894 C   0  0  0  0  0  0  0  0  0  0  0  0
   -6.7371    5.8269  -15.0251 C   0  0  0  0  0  0  0  0  0  0  0  0
  1  2  1  0
  2  3  1  0
  2  4  1  0
  4  5  1  0
  5  6  1  0
  6  7  2  0
  6  8  1  0
  8  9  1  1
  9 10  1  0
 10 11  2  0
 11 12  1  0
 12 13  2  0
 13 14  1  0
 14 15  2  0
 14 16  1  0
 16 17  1  0
 17 18  1  0
  8 19  1  0
 19 20  1  6
 19 21  1  0
 21 22  1  0
 22 23  1  6
 22 24  1  0
 24 25  1  1
 25 26  1  0
 26 27  2  0
 26 28  1  0
 28 29  1  0
 29 30  1  0
 30 31  2  0
 31 32  1  0
 32 33  2  0
 33 34  1  0
 34 35  2  0
 24 36  1  0
 36 37  2  0
 37 38  1  0
 38 39  1  0
 39 40  2  0
 15 10  1  0
 40 19  1  0
 18 13  1  0
 35 30  1  0
 40 36  1  0
M  END
>  <smiles>  (871) 
C103739-P156

>  <fragmenstein_outcome>  (871) 
acceptable

>  <inchikey>  (871) 
SBZQOXHLRUBTJD-UHFFFAOYSA-N

>  <fragmenstein_mode>  (871) 
expansion

>  <HIPPO Pose ID>  (871) 
18716

>  <Energy>  (871) 
137.170591

>  <fragmenstein_error>  (871) 


>  <tags>  (871) 
{'openbind_xx01zvns2b_c1_fragmenstein', 'fragmenstein_placed'}

>  <ref_pdb>  (871) 
1

>  <scratch_subdir>  (871) 
/opt/xchem-fragalysis-2/maxwin/BulkDock/SCRATCH/511027/C103739-P156

>  <alias>  (871) 
CC(C)CNC(=O)[C@@H](Nc1ccc2c(c1)CNC2)[C@@]1(O)C[C@H](Cl)[C@H](NC(=O)OCc2ccccc2)c2n[nH]cc21

>  <HIPPO Compound ID>  (871) 
85716

>  <fragmenstein_runtime>  (871) 
9.687261

$$$$
CC(C)CNC(=O)[C@@](O)(Nc1ccc2c(c1)CNC2)c1cc(Cl)cc2nn(CCN)cc12
     RDKit          3D

 32 35  0  0  0  0  0  0  0  0999 V2000
   -4.4365    5.3797   -9.4033 C   0  0  0  0  0  0  0  0  0  0  0  0
   -4.5802    6.7046  -10.1565 C   0  0  0  0  0  0  0  0  0  0  0  0
   -3.6978    7.7709   -9.5065 C   0  0  0  0  0  0  0  0  0  0  0  0
   -4.2186    6.5542  -11.6387 C   0  0  0  0  0  0  0  0  0  0  0  0
   -5.1330    5.6970  -12.3419 N   0  0  0  0  0  0  0  0  0  0  0  0
   -6.3797    6.0450  -13.2181 C   0  0  0  0  0  0  0  0  0  0  0  0
   -6.8010    7.0843  -13.5603 O   0  0  0  0  0  0  0  0  0  0  0  0
   -6.9923    4.6227  -13.6652 C   0  0  1  0  0  0  0  0  0  0  0  0
   -6.0933    3.5507  -13.3793 O   0  0  0  0  0  0  0  0  0  0  0  0
   -8.2595    4.2955  -12.9755 N   0  0  0  0  0  0  0  0  0  0  0  0
   -8.2842    4.2618  -11.5657 C   0  0  0  0  0  0  0  0  0  0  0  0
   -8.1519    5.4306  -10.7937 C   0  0  0  0  0  0  0  0  0  0  0  0
   -8.2280    5.4017   -9.3950 C   0  0  0  0  0  0  0  0  0  0  0  0
   -8.4683    4.1916   -8.7743 C   0  0  0  0  0  0  0  0  0  0  0  0
   -8.6244    3.0330   -9.5174 C   0  0  0  0  0  0  0  0  0  0  0  0
   -8.5225    3.0468  -10.9015 C   0  0  0  0  0  0  0  0  0  0  0  0
   -8.9267    1.8913   -8.6084 C   0  0  0  0  0  0  0  0  0  0  0  0
   -9.0076    2.4585   -7.2357 N   0  0  0  0  0  0  0  0  0  0  0  0
   -8.6383    3.8863   -7.3277 C   0  0  0  0  0  0  0  0  0  0  0  0
   -7.2019    4.6533  -15.1803 C   0  0  0  0  0  0  0  0  0  0  0  0
   -8.4636    4.4246  -15.8100 C   0  0  0  0  0  0  0  0  0  0  0  0
   -8.6798    4.3855  -17.2213 C   0  0  0  0  0  0  0  0  0  0  0  0
  -10.2776    4.1705  -17.8120 Cl  0  0  0  0  0  0  0  0  0  0  0  0
   -7.6752    4.5573  -18.1722 C   0  0  0  0  0  0  0  0  0  0  0  0
   -6.4360    4.8492  -17.6120 C   0  0  0  0  0  0  0  0  0  0  0  0
   -5.2889    5.1219  -18.2452 N   0  0  0  0  0  0  0  0  0  0  0  0
   -4.4062    5.3656  -17.2714 N   0  0  0  0  0  0  0  0  0  0  0  0
   -3.0562    5.7283  -17.6561 C   0  0  0  0  0  0  0  0  0  0  0  0
   -2.9896    7.1236  -18.2760 C   0  0  0  0  0  0  0  0  0  0  0  0
   -1.6098    7.5183  -18.5835 N   0  0  0  0  0  0  0  0  0  0  0  0
   -4.9106    5.2151  -16.0077 C   0  0  0  0  0  0  0  0  0  0  0  0
   -6.2344    4.8927  -16.1795 C   0  0  0  0  0  0  0  0  0  0  0  0
  1  2  1  0
  2  3  1  0
  2  4  1  0
  4  5  1  0
  5  6  1  0
  6  7  2  0
  6  8  1  0
  8  9  1  6
  8 10  1  0
 10 11  1  0
 11 12  2  0
 12 13  1  0
 13 14  2  0
 14 15  1  0
 15 16  2  0
 15 17  1  0
 17 18  1  0
 18 19  1  0
  8 20  1  0
 20 21  2  0
 21 22  1  0
 22 23  1  0
 22 24  2  0
 24 25  1  0
 25 26  2  0
 26 27  1  0
 27 28  1  0
 28 29  1  0
 29 30  1  0
 27 31  1  0
 31 32  2  0
 16 11  1  0
 32 20  1  0
 19 14  1  0
 32 25  1  0
M  END
>  <smiles>  (872) 
C103833-P147

>  <fragmenstein_outcome>  (872) 
acceptable

>  <inchikey>  (872) 
GYZVXNPYOMHYIO-UHFFFAOYSA-N

>  <fragmenstein_mode>  (872) 
expansion

>  <HIPPO Pose ID>  (872) 
18759

>  <Energy>  (872) 
103.988667

>  <fragmenstein_error>  (872) 


>  <tags>  (872) 
{'openbind_xx01zvns2b_c1_fragmenstein', 'fragmenstein_placed'}

>  <ref_pdb>  (872) 
1

>  <scratch_subdir>  (872) 
/opt/xchem-fragalysis-2/maxwin/BulkDock/SCRATCH/511027/C103833-P147

>  <alias>  (872) 
CC(C)CNC(=O)[C@@](O)(Nc1ccc2c(c1)CNC2)c1cc(Cl)cc2nn(CCN)cc12

>  <HIPPO Compound ID>  (872) 
103833

>  <fragmenstein_runtime>  (872) 
7.6816

$$$$
CC(C)CNC(=O)[C@@H](Nc1ccc2c(c1)CNC2)c1cc(Cl)c(C(F)(F)F)c2[nH]ncc12
     RDKit          3D

 32 35  0  0  0  0  0  0  0  0999 V2000
   -4.4235    5.3516   -9.4507 C   0  0  0  0  0  0  0  0  0  0  0  0
   -4.5579    6.6371  -10.2713 C   0  0  0  0  0  0  0  0  0  0  0  0
   -3.5769    7.6887   -9.7515 C   0  0  0  0  0  0  0  0  0  0  0  0
   -4.3141    6.3818  -11.7633 C   0  0  0  0  0  0  0  0  0  0  0  0
   -5.3495    5.5777  -12.3573 N   0  0  0  0  0  0  0  0  0  0  0  0
   -6.5078    5.9723  -13.3312 C   0  0  0  0  0  0  0  0  0  0  0  0
   -6.8367    7.0228  -13.7327 O   0  0  0  0  0  0  0  0  0  0  0  0
   -7.1949    4.6300  -13.7691 C   0  0  1  0  0  0  0  0  0  0  0  0
   -8.4033    4.2682  -12.9809 N   0  0  0  0  0  0  0  0  0  0  0  0
   -8.3475    4.2057  -11.5805 C   0  0  0  0  0  0  0  0  0  0  0  0
   -8.1630    5.3634  -10.8001 C   0  0  0  0  0  0  0  0  0  0  0  0
   -8.2212    5.3273   -9.4018 C   0  0  0  0  0  0  0  0  0  0  0  0
   -8.4959    4.1202   -8.7934 C   0  0  0  0  0  0  0  0  0  0  0  0
   -8.6661    2.9639   -9.5446 C   0  0  0  0  0  0  0  0  0  0  0  0
   -8.5811    2.9853  -10.9276 C   0  0  0  0  0  0  0  0  0  0  0  0
   -8.9501    1.8235   -8.6223 C   0  0  0  0  0  0  0  0  0  0  0  0
   -9.3296    2.4623   -7.3325 N   0  0  0  0  0  0  0  0  0  0  0  0
   -8.6906    3.7966   -7.3508 C   0  0  0  0  0  0  0  0  0  0  0  0
   -7.5172    4.6514  -15.2724 C   0  0  0  0  0  0  0  0  0  0  0  0
   -8.8333    4.4452  -15.7454 C   0  0  0  0  0  0  0  0  0  0  0  0
   -9.1264    4.2509  -17.0901 C   0  0  0  0  0  0  0  0  0  0  0  0
  -10.7540    4.1111  -17.6340 Cl  0  0  0  0  0  0  0  0  0  0  0  0
   -8.1235    4.2012  -18.0429 C   0  0  0  0  0  0  0  0  0  0  0  0
   -8.4755    3.5550  -19.3453 C   0  0  0  0  0  0  0  0  0  0  0  0
   -9.4692    4.1358  -20.0599 F   0  0  0  0  0  0  0  0  0  0  0  0
   -8.8827    2.2675  -19.1327 F   0  0  0  0  0  0  0  0  0  0  0  0
   -7.4107    3.4331  -20.1661 F   0  0  0  0  0  0  0  0  0  0  0  0
   -6.8486    4.6089  -17.6146 C   0  0  0  0  0  0  0  0  0  0  0  0
   -5.6805    4.8045  -18.3090 N   0  0  0  0  0  0  0  0  0  0  0  0
   -4.6386    5.1737  -17.5356 N   0  0  0  0  0  0  0  0  0  0  0  0
   -5.1525    5.1634  -16.3022 C   0  0  0  0  0  0  0  0  0  0  0  0
   -6.5310    4.8342  -16.2754 C   0  0  0  0  0  0  0  0  0  0  0  0
  1  2  1  0
  2  3  1  0
  2  4  1  0
  4  5  1  0
  5  6  1  0
  6  7  2  0
  6  8  1  0
  8  9  1  1
  9 10  1  0
 10 11  2  0
 11 12  1  0
 12 13  2  0
 13 14  1  0
 14 15  2  0
 14 16  1  0
 16 17  1  0
 17 18  1  0
  8 19  1  0
 19 20  2  0
 20 21  1  0
 21 22  1  0
 21 23  2  0
 23 24  1  0
 24 25  1  0
 24 26  1  0
 24 27  1  0
 23 28  1  0
 28 29  1  0
 29 30  1  0
 30 31  2  0
 31 32  1  0
 15 10  1  0
 32 19  1  0
 18 13  1  0
 32 28  2  0
M  END
>  <smiles>  (873) 
C103866-P148

>  <fragmenstein_outcome>  (873) 
acceptable

>  <inchikey>  (873) 
LZLMSKDRZNFGKH-UHFFFAOYSA-N

>  <fragmenstein_mode>  (873) 
expansion

>  <HIPPO Pose ID>  (873) 
18776

>  <Energy>  (873) 
120.733119

>  <fragmenstein_error>  (873) 


>  <tags>  (873) 
{'openbind_xx01zvns2b_c1_fragmenstein', 'fragmenstein_placed'}

>  <ref_pdb>  (873) 
1

>  <scratch_subdir>  (873) 
/opt/xchem-fragalysis-2/maxwin/BulkDock/SCRATCH/511027/C103866-P148

>  <alias>  (873) 
CC(C)CNC(=O)[C@@H](Nc1ccc2c(c1)CNC2)c1cc(Cl)c(C(F)(F)F)c2[nH]ncc12

>  <HIPPO Compound ID>  (873) 
72308

>  <fragmenstein_runtime>  (873) 
4.557792

$$$$
CCCNC(=O)[C@@H](Nc1ccc2c(c1)CNC2)c1cc(NN)c(C)c2[nH]ncc12
     RDKit          3D

 29 32  0  0  0  0  0  0  0  0999 V2000
   -9.4595   10.0747  -10.6743 C   0  0  0  0  0  0  0  0  0  0  0  0
   -8.8229    8.7476  -11.0518 C   0  0  0  0  0  0  0  0  0  0  0  0
   -9.1161    8.3800  -12.5016 C   0  0  0  0  0  0  0  0  0  0  0  0
   -8.5634    7.0974  -12.8507 N   0  0  0  0  0  0  0  0  0  0  0  0
   -7.1294    6.7061  -13.3005 C   0  0  0  0  0  0  0  0  0  0  0  0
   -6.1982    7.3757  -13.5308 O   0  0  0  0  0  0  0  0  0  0  0  0
   -7.1156    5.1471  -13.5124 C   0  0  1  0  0  0  0  0  0  0  0  0
   -8.1460    4.3962  -12.7315 N   0  0  0  0  0  0  0  0  0  0  0  0
   -8.0575    4.2303  -11.3390 C   0  0  0  0  0  0  0  0  0  0  0  0
   -7.6526    5.2540  -10.4621 C   0  0  0  0  0  0  0  0  0  0  0  0
   -7.8325    5.1604   -9.0760 C   0  0  0  0  0  0  0  0  0  0  0  0
   -8.3864    4.0078   -8.5660 C   0  0  0  0  0  0  0  0  0  0  0  0
   -8.7069    2.9483   -9.4017 C   0  0  0  0  0  0  0  0  0  0  0  0
   -8.5835    3.0533  -10.7775 C   0  0  0  0  0  0  0  0  0  0  0  0
   -9.1330    1.7926   -8.5616 C   0  0  0  0  0  0  0  0  0  0  0  0
   -9.5122    2.3913   -7.2552 N   0  0  0  0  0  0  0  0  0  0  0  0
   -8.7265    3.6435   -7.1599 C   0  0  0  0  0  0  0  0  0  0  0  0
   -7.3345    4.8746  -15.0031 C   0  0  0  0  0  0  0  0  0  0  0  0
   -8.6210    4.5556  -15.4945 C   0  0  0  0  0  0  0  0  0  0  0  0
   -8.9214    4.2904  -16.8418 C   0  0  0  0  0  0  0  0  0  0  0  0
  -10.2891    4.0070  -17.1205 N   0  0  0  0  0  0  0  0  0  0  0  0
  -10.8055    4.1372  -18.4071 N   0  0  0  0  0  0  0  0  0  0  0  0
   -7.8684    4.2392  -17.7694 C   0  0  0  0  0  0  0  0  0  0  0  0
   -8.0617    3.7072  -19.1523 C   0  0  0  0  0  0  0  0  0  0  0  0
   -6.6127    4.6902  -17.3083 C   0  0  0  0  0  0  0  0  0  0  0  0
   -5.4362    4.9042  -17.9854 N   0  0  0  0  0  0  0  0  0  0  0  0
   -4.4112    5.3105  -17.2064 N   0  0  0  0  0  0  0  0  0  0  0  0
   -4.9615    5.3627  -15.9904 C   0  0  0  0  0  0  0  0  0  0  0  0
   -6.3289    4.9954  -15.9815 C   0  0  0  0  0  0  0  0  0  0  0  0
  1  2  1  0
  2  3  1  0
  3  4  1  0
  4  5  1  0
  5  6  2  0
  5  7  1  0
  7  8  1  1
  8  9  1  0
  9 10  2  0
 10 11  1  0
 11 12  2  0
 12 13  1  0
 13 14  2  0
 13 15  1  0
 15 16  1  0
 16 17  1  0
  7 18  1  0
 18 19  2  0
 19 20  1  0
 20 21  1  0
 21 22  1  0
 20 23  2  0
 23 24  1  0
 23 25  1  0
 25 26  1  0
 26 27  1  0
 27 28  2  0
 28 29  1  0
 14  9  1  0
 29 18  1  0
 17 12  1  0
 29 25  2  0
M  END
>  <smiles>  (874) 
C103897-P148

>  <fragmenstein_outcome>  (874) 
acceptable

>  <inchikey>  (874) 
QXDBAYBLFWOWCE-UHFFFAOYSA-N

>  <fragmenstein_mode>  (874) 
expansion

>  <HIPPO Pose ID>  (874) 
18792

>  <Energy>  (874) 
137.860562

>  <fragmenstein_error>  (874) 


>  <tags>  (874) 
{'openbind_xx01zvns2b_c1_fragmenstein', 'fragmenstein_placed'}

>  <ref_pdb>  (874) 
1

>  <scratch_subdir>  (874) 
/opt/xchem-fragalysis-2/maxwin/BulkDock/SCRATCH/511027/C103897-P148

>  <alias>  (874) 
CCCNC(=O)[C@@H](Nc1ccc2c(c1)CNC2)c1cc(NN)c(C)c2[nH]ncc12

>  <HIPPO Compound ID>  (874) 
71561

>  <fragmenstein_runtime>  (874) 
5.465498

$$$$
CCCNC(=O)[C@H](Nc1ccc2c(c1)CNC2)c1cc(Cl)cc2[nH]nc(CC(=O)O)c12
     RDKit          3D

 31 34  0  0  0  0  0  0  0  0999 V2000
   -3.7719    7.8371  -11.0747 C   0  0  0  0  0  0  0  0  0  0  0  0
   -3.0975    6.4961  -11.3248 C   0  0  0  0  0  0  0  0  0  0  0  0
   -3.9967    5.3109  -10.9937 C   0  0  0  0  0  0  0  0  0  0  0  0
   -5.1754    5.2593  -11.8166 N   0  0  0  0  0  0  0  0  0  0  0  0
   -5.4456    4.4995  -13.1461 C   0  0  0  0  0  0  0  0  0  0  0  0
   -4.7790    3.7410  -13.7322 O   0  0  0  0  0  0  0  0  0  0  0  0
   -6.8965    4.9409  -13.6628 C   0  0  2  0  0  0  0  0  0  0  0  0
   -7.9247    4.0866  -13.0146 N   0  0  0  0  0  0  0  0  0  0  0  0
   -8.1472    4.1306  -11.6323 C   0  0  0  0  0  0  0  0  0  0  0  0
   -8.2091    5.3366  -10.9069 C   0  0  0  0  0  0  0  0  0  0  0  0
   -8.3746    5.3517   -9.5151 C   0  0  0  0  0  0  0  0  0  0  0  0
   -8.5828    4.1492   -8.8697 C   0  0  0  0  0  0  0  0  0  0  0  0
   -8.6335    2.9591   -9.5825 C   0  0  0  0  0  0  0  0  0  0  0  0
   -8.4140    2.9326  -10.9502 C   0  0  0  0  0  0  0  0  0  0  0  0
   -8.9218    1.8342   -8.6422 C   0  0  0  0  0  0  0  0  0  0  0  0
   -9.3753    2.4927   -7.3851 N   0  0  0  0  0  0  0  0  0  0  0  0
   -8.7986    3.8531   -7.4238 C   0  0  0  0  0  0  0  0  0  0  0  0
   -7.0474    4.8411  -15.2103 C   0  0  0  0  0  0  0  0  0  0  0  0
   -8.3017    4.4286  -15.7731 C   0  0  0  0  0  0  0  0  0  0  0  0
   -8.5011    4.2655  -17.1478 C   0  0  0  0  0  0  0  0  0  0  0  0
  -10.0373    3.8596  -17.8052 Cl  0  0  0  0  0  0  0  0  0  0  0  0
   -7.4717    4.4777  -18.0440 C   0  0  0  0  0  0  0  0  0  0  0  0
   -6.2728    4.9412  -17.5198 C   0  0  0  0  0  0  0  0  0  0  0  0
   -5.1203    5.2400  -18.1833 N   0  0  0  0  0  0  0  0  0  0  0  0
   -4.1674    5.7720  -17.4021 N   0  0  0  0  0  0  0  0  0  0  0  0
   -4.7292    5.7809  -16.1768 C   0  0  0  0  0  0  0  0  0  0  0  0
   -3.9633    6.4168  -15.0611 C   0  0  0  0  0  0  0  0  0  0  0  0
   -3.2551    7.7086  -15.4157 C   0  0  0  0  0  0  0  0  0  0  0  0
   -3.0720    8.6052  -14.5990 O   0  0  0  0  0  0  0  0  0  0  0  0
   -2.7702    7.7988  -16.6755 O   0  0  0  0  0  0  0  0  0  0  0  0
   -6.0369    5.1813  -16.1663 C   0  0  0  0  0  0  0  0  0  0  0  0
  1  2  1  0
  2  3  1  0
  3  4  1  0
  4  5  1  0
  5  6  2  0
  5  7  1  0
  7  8  1  1
  8  9  1  0
  9 10  2  0
 10 11  1  0
 11 12  2  0
 12 13  1  0
 13 14  2  0
 13 15  1  0
 15 16  1  0
 16 17  1  0
  7 18  1  0
 18 19  2  0
 19 20  1  0
 20 21  1  0
 20 22  2  0
 22 23  1  0
 23 24  1  0
 24 25  1  0
 25 26  2  0
 26 27  1  0
 27 28  1  0
 28 29  2  0
 28 30  1  0
 26 31  1  0
 14  9  1  0
 31 18  1  0
 17 12  1  0
 31 23  2  0
M  END
>  <smiles>  (875) 
C103904-P148

>  <fragmenstein_outcome>  (875) 
acceptable

>  <inchikey>  (875) 
GNXPHKRJZLFAAB-UHFFFAOYSA-N

>  <fragmenstein_mode>  (875) 
expansion

>  <HIPPO Pose ID>  (875) 
18797

>  <Energy>  (875) 
92.554774

>  <fragmenstein_error>  (875) 


>  <tags>  (875) 
{'openbind_xx01zvns2b_c1_fragmenstein', 'fragmenstein_placed'}

>  <ref_pdb>  (875) 
1

>  <scratch_subdir>  (875) 
/opt/xchem-fragalysis-2/maxwin/BulkDock/SCRATCH/511027/C103904-P148

>  <alias>  (875) 
CCCNC(=O)[C@H](Nc1ccc2c(c1)CNC2)c1cc(Cl)cc2[nH]nc(CC(=O)O)c12

>  <HIPPO Compound ID>  (875) 
105710

>  <fragmenstein_runtime>  (875) 
3.721723

$$$$
CCCNC(=O)[C@@H](Nc1ccc2c(c1)CNC2)[C@@]1(O)C[C@H](Cl)Cc2nn(C)c(F)c21
     RDKit          3D

 30 33  0  0  0  0  0  0  0  0999 V2000
   -8.5047   10.5099  -10.8843 C   0  0  0  0  0  0  0  0  0  0  0  0
   -8.2515    9.0578  -11.2519 C   0  0  0  0  0  0  0  0  0  0  0  0
   -7.9791    8.8973  -12.7427 C   0  0  0  0  0  0  0  0  0  0  0  0
   -7.7549    7.5149  -13.0826 N   0  0  0  0  0  0  0  0  0  0  0  0
   -8.7662    6.3918  -13.4830 C   0  0  0  0  0  0  0  0  0  0  0  0
   -9.9208    6.4432  -13.6709 O   0  0  0  0  0  0  0  0  0  0  0  0
   -7.9747    5.0667  -13.5880 C   0  0  1  0  0  0  0  0  0  0  0  0
   -8.5164    4.0194  -12.6944 N   0  0  0  0  0  0  0  0  0  0  0  0
   -8.4919    4.0370  -11.3131 C   0  0  0  0  0  0  0  0  0  0  0  0
   -8.0491    5.1333  -10.5491 C   0  0  0  0  0  0  0  0  0  0  0  0
   -8.0770    5.1309   -9.1498 C   0  0  0  0  0  0  0  0  0  0  0  0
   -8.5030    3.9879   -8.5123 C   0  0  0  0  0  0  0  0  0  0  0  0
   -8.8548    2.8638   -9.2414 C   0  0  0  0  0  0  0  0  0  0  0  0
   -8.8545    2.8714  -10.6274 C   0  0  0  0  0  0  0  0  0  0  0  0
   -9.1389    1.7432   -8.3047 C   0  0  0  0  0  0  0  0  0  0  0  0
   -9.2518    2.3602   -6.9563 N   0  0  0  0  0  0  0  0  0  0  0  0
   -8.6476    3.7054   -7.0580 C   0  0  0  0  0  0  0  0  0  0  0  0
   -7.8521    4.5038  -15.0620 C   0  0  1  0  0  0  0  0  0  0  0  0
   -7.8769    3.0935  -14.9091 O   0  0  0  0  0  0  0  0  0  0  0  0
   -9.0494    4.6819  -16.0096 C   0  0  0  0  0  0  0  0  0  0  0  0
   -8.8215    4.4308  -17.5363 C   0  0  2  0  0  0  0  0  0  0  0  0
   -9.3173    2.8048  -18.0657 Cl  0  0  0  0  0  0  0  0  0  0  0  0
   -7.4564    4.8243  -18.1318 C   0  0  0  0  0  0  0  0  0  0  0  0
   -6.3946    5.0325  -17.1150 C   0  0  0  0  0  0  0  0  0  0  0  0
   -5.1502    5.4144  -17.4470 N   0  0  0  0  0  0  0  0  0  0  0  0
   -4.5001    5.4057  -16.2696 N   0  0  0  0  0  0  0  0  0  0  0  0
   -3.0864    5.6680  -16.2029 C   0  0  0  0  0  0  0  0  0  0  0  0
   -5.3140    5.1462  -15.2157 C   0  0  0  0  0  0  0  0  0  0  0  0
   -4.9317    5.1083  -13.9328 F   0  0  0  0  0  0  0  0  0  0  0  0
   -6.5704    4.9045  -15.7176 C   0  0  0  0  0  0  0  0  0  0  0  0
  1  2  1  0
  2  3  1  0
  3  4  1  0
  4  5  1  0
  5  6  2  0
  5  7  1  0
  7  8  1  1
  8  9  1  0
  9 10  2  0
 10 11  1  0
 11 12  2  0
 12 13  1  0
 13 14  2  0
 13 15  1  0
 15 16  1  0
 16 17  1  0
  7 18  1  0
 18 19  1  1
 18 20  1  0
 20 21  1  0
 21 22  1  1
 21 23  1  0
 23 24  1  0
 24 25  2  0
 25 26  1  0
 26 27  1  0
 26 28  1  0
 28 29  1  0
 28 30  2  0
 14  9  1  0
 30 18  1  0
 17 12  1  0
 30 24  1  0
M  END
>  <smiles>  (876) 
C103929-P148

>  <fragmenstein_outcome>  (876) 
acceptable

>  <inchikey>  (876) 
IXPJLDVWDRSHCX-UHFFFAOYSA-N

>  <fragmenstein_mode>  (876) 
expansion

>  <HIPPO Pose ID>  (876) 
18809

>  <Energy>  (876) 
122.015636

>  <fragmenstein_error>  (876) 


>  <tags>  (876) 
{'openbind_xx01zvns2b_c1_fragmenstein', 'fragmenstein_placed'}

>  <ref_pdb>  (876) 
1

>  <scratch_subdir>  (876) 
/opt/xchem-fragalysis-2/maxwin/BulkDock/SCRATCH/511027/C103929-P148

>  <alias>  (876) 
CCCNC(=O)[C@@H](Nc1ccc2c(c1)CNC2)[C@@]1(O)C[C@H](Cl)Cc2nn(C)c(F)c21

>  <HIPPO Compound ID>  (876) 
103929

>  <fragmenstein_runtime>  (876) 
5.417553

$$$$
CCCNC(=O)[C@](O)(Nc1ccc2c(c1)CNC2)c1cc(Cl)cc2nn(OC)cc12
     RDKit          3D

 30 33  0  0  0  0  0  0  0  0999 V2000
   -3.0709    9.5695  -12.9693 C   0  0  0  0  0  0  0  0  0  0  0  0
   -4.0969    8.5549  -13.4463 C   0  0  0  0  0  0  0  0  0  0  0  0
   -4.9614    8.0534  -12.2969 C   0  0  0  0  0  0  0  0  0  0  0  0
   -5.9812    7.1499  -12.7556 N   0  0  0  0  0  0  0  0  0  0  0  0
   -5.9557    5.5958  -12.9323 C   0  0  0  0  0  0  0  0  0  0  0  0
   -5.1268    4.8145  -12.6572 O   0  0  0  0  0  0  0  0  0  0  0  0
   -7.3665    5.2214  -13.6042 C   0  0  2  0  0  0  0  0  0  0  0  0
   -8.2870    6.3091  -13.5486 O   0  0  0  0  0  0  0  0  0  0  0  0
   -8.0104    4.1244  -12.8767 N   0  0  0  0  0  0  0  0  0  0  0  0
   -8.1376    4.1138  -11.4718 C   0  0  0  0  0  0  0  0  0  0  0  0
   -8.0638    5.2665  -10.6569 C   0  0  0  0  0  0  0  0  0  0  0  0
   -8.2577    5.2186   -9.2704 C   0  0  0  0  0  0  0  0  0  0  0  0
   -8.5811    4.0080   -8.7017 C   0  0  0  0  0  0  0  0  0  0  0  0
   -8.6959    2.8663   -9.4830 C   0  0  0  0  0  0  0  0  0  0  0  0
   -8.4846    2.9017  -10.8538 C   0  0  0  0  0  0  0  0  0  0  0  0
   -9.0269    1.7115   -8.5969 C   0  0  0  0  0  0  0  0  0  0  0  0
   -9.4986    2.3265   -7.3250 N   0  0  0  0  0  0  0  0  0  0  0  0
   -8.8537    3.6564   -7.2785 C   0  0  0  0  0  0  0  0  0  0  0  0
   -7.2691    4.9075  -15.0940 C   0  0  0  0  0  0  0  0  0  0  0  0
   -8.4221    4.4631  -15.8330 C   0  0  0  0  0  0  0  0  0  0  0  0
   -8.4797    4.2721  -17.2529 C   0  0  0  0  0  0  0  0  0  0  0  0
   -9.9770    3.8197  -17.9881 Cl  0  0  0  0  0  0  0  0  0  0  0  0
   -7.4000    4.5054  -18.1091 C   0  0  0  0  0  0  0  0  0  0  0  0
   -6.2484    4.9335  -17.4461 C   0  0  0  0  0  0  0  0  0  0  0  0
   -5.0673    5.2795  -17.9825 N   0  0  0  0  0  0  0  0  0  0  0  0
   -4.2796    5.4945  -16.9333 N   0  0  0  0  0  0  0  0  0  0  0  0
   -2.9709    5.9427  -17.1082 O   0  0  0  0  0  0  0  0  0  0  0  0
   -2.3307    5.1729  -18.1217 C   0  0  0  0  0  0  0  0  0  0  0  0
   -4.9125    5.4615  -15.7297 C   0  0  0  0  0  0  0  0  0  0  0  0
   -6.2066    5.0982  -15.9997 C   0  0  0  0  0  0  0  0  0  0  0  0
  1  2  1  0
  2  3  1  0
  3  4  1  0
  4  5  1  0
  5  6  2  0
  5  7  1  0
  7  8  1  6
  7  9  1  0
  9 10  1  0
 10 11  2  0
 11 12  1  0
 12 13  2  0
 13 14  1  0
 14 15  2  0
 14 16  1  0
 16 17  1  0
 17 18  1  0
  7 19  1  0
 19 20  2  0
 20 21  1  0
 21 22  1  0
 21 23  2  0
 23 24  1  0
 24 25  2  0
 25 26  1  0
 26 27  1  0
 27 28  1  0
 26 29  1  0
 29 30  2  0
 15 10  1  0
 30 19  1  0
 18 13  1  0
 30 24  1  0
M  END
>  <smiles>  (877) 
C103932-P148

>  <fragmenstein_outcome>  (877) 
acceptable

>  <inchikey>  (877) 
WIDJTPHUKXUIQS-UHFFFAOYSA-N

>  <fragmenstein_mode>  (877) 
expansion

>  <HIPPO Pose ID>  (877) 
18810

>  <Energy>  (877) 
48.831502

>  <fragmenstein_error>  (877) 


>  <tags>  (877) 
{'openbind_xx01zvns2b_c1_fragmenstein', 'fragmenstein_placed'}

>  <ref_pdb>  (877) 
1

>  <scratch_subdir>  (877) 
/opt/xchem-fragalysis-2/maxwin/BulkDock/SCRATCH/511027/C103932-P148

>  <alias>  (877) 
CCCNC(=O)[C@](O)(Nc1ccc2c(c1)CNC2)c1cc(Cl)cc2nn(OC)cc12

>  <HIPPO Compound ID>  (877) 
93945

>  <fragmenstein_runtime>  (877) 
4.625376

$$$$
CCCNC(=O)[C@H](Nc1ccc2c(c1)CNC2)[C@@]1(O)C[C@@H](Cl)Cc2nn(C)cc21
     RDKit          3D

 29 32  0  0  0  0  0  0  0  0999 V2000
   -4.1367   10.0356  -13.9773 C   0  0  0  0  0  0  0  0  0  0  0  0
   -4.9316    8.7574  -14.1817 C   0  0  0  0  0  0  0  0  0  0  0  0
   -6.1090    8.6706  -13.2182 C   0  0  0  0  0  0  0  0  0  0  0  0
   -6.8666    7.4685  -13.4401 N   0  0  0  0  0  0  0  0  0  0  0  0
   -6.6265    6.0164  -12.9371 C   0  0  0  0  0  0  0  0  0  0  0  0
   -5.7356    5.5627  -12.3307 O   0  0  0  0  0  0  0  0  0  0  0  0
   -7.8577    5.1615  -13.4189 C   0  0  2  0  0  0  0  0  0  0  0  0
   -8.0965    4.0150  -12.4956 N   0  0  0  0  0  0  0  0  0  0  0  0
   -8.3496    4.1132  -11.1318 C   0  0  0  0  0  0  0  0  0  0  0  0
   -8.2615    5.2921  -10.3750 C   0  0  0  0  0  0  0  0  0  0  0  0
   -8.3940    5.2727   -8.9810 C   0  0  0  0  0  0  0  0  0  0  0  0
   -8.6667    4.0683   -8.3621 C   0  0  0  0  0  0  0  0  0  0  0  0
   -8.8069    2.9067   -9.1022 C   0  0  0  0  0  0  0  0  0  0  0  0
   -8.6382    2.9094  -10.4723 C   0  0  0  0  0  0  0  0  0  0  0  0
   -9.0766    1.7598   -8.1947 C   0  0  0  0  0  0  0  0  0  0  0  0
   -9.3241    2.3562   -6.8556 N   0  0  0  0  0  0  0  0  0  0  0  0
   -8.8344    3.7497   -6.9170 C   0  0  0  0  0  0  0  0  0  0  0  0
   -7.7043    4.5217  -14.8690 C   0  0  1  0  0  0  0  0  0  0  0  0
   -7.8619    3.1090  -14.7037 O   0  0  0  0  0  0  0  0  0  0  0  0
   -8.9137    4.7646  -15.7883 C   0  0  0  0  0  0  0  0  0  0  0  0
   -8.6822    4.1679  -17.2074 C   0  0  1  0  0  0  0  0  0  0  0  0
  -10.1721    4.2261  -18.1953 Cl  0  0  0  0  0  0  0  0  0  0  0  0
   -7.4894    4.7927  -17.9546 C   0  0  0  0  0  0  0  0  0  0  0  0
   -6.3482    4.9921  -17.0184 C   0  0  0  0  0  0  0  0  0  0  0  0
   -5.1238    5.3567  -17.4208 N   0  0  0  0  0  0  0  0  0  0  0  0
   -4.3906    5.2609  -16.2990 N   0  0  0  0  0  0  0  0  0  0  0  0
   -2.9742    5.5228  -16.3215 C   0  0  0  0  0  0  0  0  0  0  0  0
   -5.1191    4.9112  -15.2053 C   0  0  0  0  0  0  0  0  0  0  0  0
   -6.4330    4.8293  -15.6093 C   0  0  0  0  0  0  0  0  0  0  0  0
  1  2  1  0
  2  3  1  0
  3  4  1  0
  4  5  1  0
  5  6  2  0
  5  7  1  0
  7  8  1  1
  8  9  1  0
  9 10  2  0
 10 11  1  0
 11 12  2  0
 12 13  1  0
 13 14  2  0
 13 15  1  0
 15 16  1  0
 16 17  1  0
  7 18  1  0
 18 19  1  1
 18 20  1  0
 20 21  1  0
 21 22  1  6
 21 23  1  0
 23 24  1  0
 24 25  2  0
 25 26  1  0
 26 27  1  0
 26 28  1  0
 28 29  2  0
 14  9  1  0
 29 18  1  0
 17 12  1  0
 29 24  1  0
M  END
>  <smiles>  (878) 
C103935-P148

>  <fragmenstein_outcome>  (878) 
acceptable

>  <inchikey>  (878) 
SEUJZBYIVQDDIO-UHFFFAOYSA-N

>  <fragmenstein_mode>  (878) 
expansion

>  <HIPPO Pose ID>  (878) 
18811

>  <Energy>  (878) 
120.642261

>  <fragmenstein_error>  (878) 


>  <tags>  (878) 
{'openbind_xx01zvns2b_c1_fragmenstein', 'fragmenstein_placed'}

>  <ref_pdb>  (878) 
1

>  <scratch_subdir>  (878) 
/opt/xchem-fragalysis-2/maxwin/BulkDock/SCRATCH/511027/C103935-P148

>  <alias>  (878) 
CCCNC(=O)[C@H](Nc1ccc2c(c1)CNC2)[C@@]1(O)C[C@@H](Cl)Cc2nn(C)cc21

>  <HIPPO Compound ID>  (878) 
103935

>  <fragmenstein_runtime>  (878) 
5.686461

$$$$
CCCNC(=O)[C@@](O)(Nc1ccc2c(c1)CNC2)c1cc(CC)cc2c1cnn2C
     RDKit          3D

 30 33  0  0  0  0  0  0  0  0999 V2000
   -9.6385   10.4439  -12.0690 C   0  0  0  0  0  0  0  0  0  0  0  0
   -9.4179    8.9593  -12.3042 C   0  0  0  0  0  0  0  0  0  0  0  0
   -8.0147    8.6754  -12.8156 C   0  0  0  0  0  0  0  0  0  0  0  0
   -7.8260    7.2899  -13.1661 N   0  0  0  0  0  0  0  0  0  0  0  0
   -6.5361    6.4179  -13.1815 C   0  0  0  0  0  0  0  0  0  0  0  0
   -5.4194    6.7121  -12.9866 O   0  0  0  0  0  0  0  0  0  0  0  0
   -6.9745    4.9108  -13.5540 C   0  0  1  0  0  0  0  0  0  0  0  0
   -5.9558    3.9804  -13.2571 O   0  0  0  0  0  0  0  0  0  0  0  0
   -8.1892    4.4656  -12.8275 N   0  0  0  0  0  0  0  0  0  0  0  0
   -8.1797    4.3336  -11.4192 C   0  0  0  0  0  0  0  0  0  0  0  0
   -7.9108    5.4069  -10.5483 C   0  0  0  0  0  0  0  0  0  0  0  0
   -8.0268    5.2872   -9.1577 C   0  0  0  0  0  0  0  0  0  0  0  0
   -8.4153    4.0739   -8.6344 C   0  0  0  0  0  0  0  0  0  0  0  0
   -8.6624    2.9937   -9.4648 C   0  0  0  0  0  0  0  0  0  0  0  0
   -8.5648    3.1075  -10.8461 C   0  0  0  0  0  0  0  0  0  0  0  0
   -8.9951    1.8026   -8.6321 C   0  0  0  0  0  0  0  0  0  0  0  0
   -9.1687    2.3034   -7.2418 N   0  0  0  0  0  0  0  0  0  0  0  0
   -8.6478    3.6861   -7.2161 C   0  0  0  0  0  0  0  0  0  0  0  0
   -7.1866    4.8237  -15.0844 C   0  0  0  0  0  0  0  0  0  0  0  0
   -8.4175    4.4170  -15.6708 C   0  0  0  0  0  0  0  0  0  0  0  0
   -8.6123    4.2860  -17.0602 C   0  0  0  0  0  0  0  0  0  0  0  0
   -9.9090    3.7472  -17.5968 C   0  0  0  0  0  0  0  0  0  0  0  0
  -10.6024    4.5127  -18.6957 C   0  0  0  0  0  0  0  0  0  0  0  0
   -7.5745    4.5845  -17.9350 C   0  0  0  0  0  0  0  0  0  0  0  0
   -6.3659    5.0067  -17.3829 C   0  0  0  0  0  0  0  0  0  0  0  0
   -6.1485    5.1135  -16.0113 C   0  0  0  0  0  0  0  0  0  0  0  0
   -4.7889    5.5088  -15.9192 C   0  0  0  0  0  0  0  0  0  0  0  0
   -4.2082    5.6907  -17.1092 N   0  0  0  0  0  0  0  0  0  0  0  0
   -5.1837    5.3669  -17.9771 N   0  0  0  0  0  0  0  0  0  0  0  0
   -4.9235    5.4536  -19.3931 C   0  0  0  0  0  0  0  0  0  0  0  0
  1  2  1  0
  2  3  1  0
  3  4  1  0
  4  5  1  0
  5  6  2  0
  5  7  1  0
  7  8  1  1
  7  9  1  0
  9 10  1  0
 10 11  2  0
 11 12  1  0
 12 13  2  0
 13 14  1  0
 14 15  2  0
 14 16  1  0
 16 17  1  0
 17 18  1  0
  7 19  1  0
 19 20  2  0
 20 21  1  0
 21 22  1  0
 22 23  1  0
 21 24  2  0
 24 25  1  0
 25 26  2  0
 26 27  1  0
 27 28  2  0
 28 29  1  0
 29 30  1  0
 15 10  1  0
 26 19  1  0
 18 13  1  0
 29 25  1  0
M  END
>  <smiles>  (879) 
C103994-P148

>  <fragmenstein_outcome>  (879) 
acceptable

>  <inchikey>  (879) 
RCFOHQVHPFNLFH-UHFFFAOYSA-M

>  <fragmenstein_mode>  (879) 
expansion

>  <HIPPO Pose ID>  (879) 
18824

>  <Energy>  (879) 
105.311104

>  <fragmenstein_error>  (879) 


>  <tags>  (879) 
{'openbind_xx01zvns2b_c1_fragmenstein', 'fragmenstein_placed'}

>  <ref_pdb>  (879) 
1

>  <scratch_subdir>  (879) 
/opt/xchem-fragalysis-2/maxwin/BulkDock/SCRATCH/511027/C103994-P148

>  <alias>  (879) 
CCCNC(=O)[C@@](O)(Nc1ccc2c(c1)CNC2)c1cc(CC)cc2c1cnn2C

>  <HIPPO Compound ID>  (879) 
93107

>  <fragmenstein_runtime>  (879) 
5.569712

$$$$
CCCNC(=O)[C@](O)(N[C@H](C)Cc1cn(C)c2cscc12)c1cc(Cl)c2c3c1CNN3OC2
     RDKit          3D

 33 37  0  0  0  0  0  0  0  0999 V2000
   -2.7936    1.7768  -10.2144 C   0  0  0  0  0  0  0  0  0  0  0  0
   -4.1008    2.4064  -10.6662 C   0  0  0  0  0  0  0  0  0  0  0  0
   -4.1056    2.6575  -12.1682 C   0  0  0  0  0  0  0  0  0  0  0  0
   -5.3373    3.2528  -12.6170 N   0  0  0  0  0  0  0  0  0  0  0  0
   -5.7622    4.7468  -12.7102 C   0  0  0  0  0  0  0  0  0  0  0  0
   -5.2045    5.7182  -12.3638 O   0  0  0  0  0  0  0  0  0  0  0  0
   -7.1922    4.8268  -13.4452 C   0  0  2  0  0  0  0  0  0  0  0  0
   -7.7129    6.1489  -13.4058 O   0  0  0  0  0  0  0  0  0  0  0  0
   -8.1041    3.8754  -12.8057 N   0  0  0  0  0  0  0  0  0  0  0  0
   -8.4735    4.0947  -11.3845 C   0  0  2  0  0  0  0  0  0  0  0  0
   -8.4010    5.5382  -10.8661 C   0  0  0  0  0  0  0  0  0  0  0  0
   -7.7712    3.1091  -10.4294 C   0  0  0  0  0  0  0  0  0  0  0  0
   -8.3681    3.0909   -9.0533 C   0  0  0  0  0  0  0  0  0  0  0  0
   -9.2681    2.1307   -8.5293 C   0  0  0  0  0  0  0  0  0  0  0  0
   -9.6189    2.4116   -7.2137 N   0  0  0  0  0  0  0  0  0  0  0  0
  -10.5229    1.7266   -6.3402 C   0  0  0  0  0  0  0  0  0  0  0  0
   -8.9036    3.5477   -6.9695 C   0  0  0  0  0  0  0  0  0  0  0  0
   -8.8506    4.2703   -5.8295 C   0  0  0  0  0  0  0  0  0  0  0  0
   -7.7639    5.5992   -6.0850 S   0  0  0  0  0  0  0  0  0  0  0  0
   -7.4085    5.1314   -7.7216 C   0  0  0  0  0  0  0  0  0  0  0  0
   -8.1236    4.0213   -7.9981 C   0  0  0  0  0  0  0  0  0  0  0  0
   -7.0927    4.6443  -14.9579 C   0  0  0  0  0  0  0  0  0  0  0  0
   -8.2401    4.3435  -15.7834 C   0  0  0  0  0  0  0  0  0  0  0  0
   -8.1906    4.3132  -17.2078 C   0  0  0  0  0  0  0  0  0  0  0  0
   -9.5960    3.8845  -18.1028 Cl  0  0  0  0  0  0  0  0  0  0  0  0
   -7.0137    4.6584  -17.8147 C   0  0  0  0  0  0  0  0  0  0  0  0
   -6.0036    5.0416  -16.9936 C   0  0  0  0  0  0  0  0  0  0  0  0
   -5.9330    4.9580  -15.6402 C   0  0  0  0  0  0  0  0  0  0  0  0
   -4.4857    5.2413  -15.3704 C   0  0  0  0  0  0  0  0  0  0  0  0
   -3.7943    5.1502  -16.7243 N   0  0  0  0  0  0  0  0  0  0  0  0
   -4.8322    5.4011  -17.6450 N   0  0  0  0  0  0  0  0  0  0  0  0
   -4.8948    4.8200  -18.9164 O   0  0  0  0  0  0  0  0  0  0  0  0
   -6.3832    4.7505  -19.1635 C   0  0  0  0  0  0  0  0  0  0  0  0
  1  2  1  0
  2  3  1  0
  3  4  1  0
  4  5  1  0
  5  6  2  0
  5  7  1  0
  7  8  1  6
  7  9  1  0
  9 10  1  0
 10 11  1  1
 10 12  1  0
 12 13  1  0
 13 14  2  0
 14 15  1  0
 15 16  1  0
 15 17  1  0
 17 18  2  0
 18 19  1  0
 19 20  1  0
 20 21  2  0
  7 22  1  0
 22 23  2  0
 23 24  1  0
 24 25  1  0
 24 26  2  0
 26 27  1  0
 27 28  2  0
 28 29  1  0
 29 30  1  0
 30 31  1  0
 31 32  1  0
 32 33  1  0
 21 13  1  0
 28 22  1  0
 21 17  1  0
 33 26  1  0
 31 27  1  0
M  END
>  <smiles>  (880) 
C104004-P148

>  <fragmenstein_outcome>  (880) 
acceptable

>  <inchikey>  (880) 
CFZHNKUOGKRQTM-UHFFFAOYSA-N

>  <fragmenstein_mode>  (880) 
expansion

>  <HIPPO Pose ID>  (880) 
18825

>  <Energy>  (880) 
148.922978

>  <fragmenstein_error>  (880) 


>  <tags>  (880) 
{'openbind_xx01zvns2b_c1_fragmenstein', 'fragmenstein_placed'}

>  <ref_pdb>  (880) 
1

>  <scratch_subdir>  (880) 
/opt/xchem-fragalysis-2/maxwin/BulkDock/SCRATCH/511027/C104004-P148

>  <alias>  (880) 
CCCNC(=O)[C@](O)(N[C@H](C)Cc1cn(C)c2cscc12)c1cc(Cl)c2c3c1CNN3OC2

>  <HIPPO Compound ID>  (880) 
71735

>  <fragmenstein_runtime>  (880) 
5.657146

$$$$
CCn1ncc2c([C@@H](Nc3ccc4c(c3)CNC4)C(=O)NC[C@H](C)F)cc(Cl)cc21
     RDKit          3D

 30 33  0  0  0  0  0  0  0  0999 V2000
   -6.6890    3.6924  -19.9290 C   0  0  0  0  0  0  0  0  0  0  0  0
   -5.7496    4.8355  -19.5093 C   0  0  0  0  0  0  0  0  0  0  0  0
   -5.8274    5.1308  -18.0830 N   0  0  0  0  0  0  0  0  0  0  0  0
   -4.7455    5.4092  -17.3294 N   0  0  0  0  0  0  0  0  0  0  0  0
   -5.2333    5.3462  -16.0790 C   0  0  0  0  0  0  0  0  0  0  0  0
   -6.6138    5.0101  -16.0156 C   0  0  0  0  0  0  0  0  0  0  0  0
   -7.6341    4.7924  -15.0504 C   0  0  0  0  0  0  0  0  0  0  0  0
   -7.5344    5.0610  -13.5486 C   0  0  1  0  0  0  0  0  0  0  0  0
   -7.8872    3.8614  -12.7596 N   0  0  0  0  0  0  0  0  0  0  0  0
   -8.2380    3.9762  -11.4013 C   0  0  0  0  0  0  0  0  0  0  0  0
   -8.0853    5.1577  -10.6423 C   0  0  0  0  0  0  0  0  0  0  0  0
   -8.2669    5.1781   -9.2537 C   0  0  0  0  0  0  0  0  0  0  0  0
   -8.6011    3.9997   -8.6220 C   0  0  0  0  0  0  0  0  0  0  0  0
   -8.7628    2.8306   -9.3477 C   0  0  0  0  0  0  0  0  0  0  0  0
   -8.5803    2.8002  -10.7217 C   0  0  0  0  0  0  0  0  0  0  0  0
   -9.0422    1.7045   -8.4138 C   0  0  0  0  0  0  0  0  0  0  0  0
   -9.2843    2.3259   -7.0849 N   0  0  0  0  0  0  0  0  0  0  0  0
   -8.7908    3.7162   -7.1719 C   0  0  0  0  0  0  0  0  0  0  0  0
   -6.1595    5.6857  -13.1051 C   0  0  0  0  0  0  0  0  0  0  0  0
   -5.8990    6.8108  -13.2938 O   0  0  0  0  0  0  0  0  0  0  0  0
   -5.3576    4.5767  -12.3698 N   0  0  0  0  0  0  0  0  0  0  0  0
   -4.1184    4.6478  -11.6358 C   0  0  0  0  0  0  0  0  0  0  0  0
   -2.9534    5.2620  -12.4051 C   0  0  2  0  0  0  0  0  0  0  0  0
   -2.3771    4.3093  -13.4321 C   0  0  0  0  0  0  0  0  0  0  0  0
   -1.9583    5.5542  -11.5149 F   0  0  0  0  0  0  0  0  0  0  0  0
   -8.9122    4.3853  -15.5630 C   0  0  0  0  0  0  0  0  0  0  0  0
   -9.2031    4.3601  -16.9185 C   0  0  0  0  0  0  0  0  0  0  0  0
  -10.7115    4.0281  -17.6551 Cl  0  0  0  0  0  0  0  0  0  0  0  0
   -8.2508    4.7594  -17.8042 C   0  0  0  0  0  0  0  0  0  0  0  0
   -6.9657    4.9760  -17.3517 C   0  0  0  0  0  0  0  0  0  0  0  0
  1  2  1  0
  2  3  1  0
  3  4  1  0
  4  5  2  0
  5  6  1  0
  6  7  2  0
  7  8  1  0
  8  9  1  1
  9 10  1  0
 10 11  2  0
 11 12  1  0
 12 13  2  0
 13 14  1  0
 14 15  2  0
 14 16  1  0
 16 17  1  0
 17 18  1  0
  8 19  1  0
 19 20  2  0
 19 21  1  0
 21 22  1  0
 22 23  1  0
 23 24  1  6
 23 25  1  0
  7 26  1  0
 26 27  2  0
 27 28  1  0
 27 29  1  0
 29 30  2  0
 30  3  1  0
 30  6  1  0
 15 10  1  0
 18 13  1  0
M  END
>  <smiles>  (881) 
C104012-P148

>  <fragmenstein_outcome>  (881) 
acceptable

>  <inchikey>  (881) 
IOZKBSNLBXCLON-UHFFFAOYSA-N

>  <fragmenstein_mode>  (881) 
expansion

>  <HIPPO Pose ID>  (881) 
18827

>  <Energy>  (881) 
137.249933

>  <fragmenstein_error>  (881) 


>  <tags>  (881) 
{'openbind_xx01zvns2b_c1_fragmenstein', 'fragmenstein_placed'}

>  <ref_pdb>  (881) 
1

>  <scratch_subdir>  (881) 
/opt/xchem-fragalysis-2/maxwin/BulkDock/SCRATCH/511027/C104012-P148

>  <alias>  (881) 
CCn1ncc2c([C@@H](Nc3ccc4c(c3)CNC4)C(=O)NC[C@H](C)F)cc(Cl)cc21

>  <HIPPO Compound ID>  (881) 
75341

>  <fragmenstein_runtime>  (881) 
7.264473

$$$$
CCCNC(=O)[C@](O)(Nc1ccc2c(c1)CNC2)c1cc(Cl)cc2c1cnn2C#N
     RDKit          3D

 30 33  0  0  0  0  0  0  0  0999 V2000
   -3.2417    8.0407  -12.9366 C   0  0  0  0  0  0  0  0  0  0  0  0
   -3.7147    7.6875  -11.5338 C   0  0  0  0  0  0  0  0  0  0  0  0
   -4.1517    6.2333  -11.4104 C   0  0  0  0  0  0  0  0  0  0  0  0
   -5.3154    5.9421  -12.2017 N   0  0  0  0  0  0  0  0  0  0  0  0
   -5.7106    4.6523  -12.9833 C   0  0  0  0  0  0  0  0  0  0  0  0
   -5.1133    3.6631  -13.1633 O   0  0  0  0  0  0  0  0  0  0  0  0
   -7.1706    4.9541  -13.6191 C   0  0  2  0  0  0  0  0  0  0  0  0
   -7.5336    6.3317  -13.4630 O   0  0  0  0  0  0  0  0  0  0  0  0
   -8.1801    4.1228  -12.9517 N   0  0  0  0  0  0  0  0  0  0  0  0
   -8.2627    4.1170  -11.5425 C   0  0  0  0  0  0  0  0  0  0  0  0
   -8.1952    5.2878  -10.7586 C   0  0  0  0  0  0  0  0  0  0  0  0
   -8.3163    5.2629   -9.3631 C   0  0  0  0  0  0  0  0  0  0  0  0
   -8.5797    4.0546   -8.7567 C   0  0  0  0  0  0  0  0  0  0  0  0
   -8.7047    2.8949   -9.5100 C   0  0  0  0  0  0  0  0  0  0  0  0
   -8.5526    2.9085  -10.8884 C   0  0  0  0  0  0  0  0  0  0  0  0
   -8.9931    1.7523   -8.5929 C   0  0  0  0  0  0  0  0  0  0  0  0
   -9.4251    2.3873   -7.3163 N   0  0  0  0  0  0  0  0  0  0  0  0
   -8.7998    3.7273   -7.3188 C   0  0  0  0  0  0  0  0  0  0  0  0
   -7.1749    4.7197  -15.1519 C   0  0  0  0  0  0  0  0  0  0  0  0
   -8.3712    4.3401  -15.8259 C   0  0  0  0  0  0  0  0  0  0  0  0
   -8.4511    4.2587  -17.2196 C   0  0  0  0  0  0  0  0  0  0  0  0
   -9.9277    3.8241  -17.9923 Cl  0  0  0  0  0  0  0  0  0  0  0  0
   -7.3703    4.6014  -18.0246 C   0  0  0  0  0  0  0  0  0  0  0  0
   -6.1977    5.0108  -17.3840 C   0  0  0  0  0  0  0  0  0  0  0  0
   -6.0682    5.0360  -15.9933 C   0  0  0  0  0  0  0  0  0  0  0  0
   -4.7256    5.4376  -15.7944 C   0  0  0  0  0  0  0  0  0  0  0  0
   -4.0824    5.7177  -16.9237 N   0  0  0  0  0  0  0  0  0  0  0  0
   -5.0060    5.4980  -17.8938 N   0  0  0  0  0  0  0  0  0  0  0  0
   -4.7929    5.9877  -19.2856 C   0  0  0  0  0  0  0  0  0  0  0  0
   -4.5516    6.4748  -20.3150 N   0  0  0  0  0  0  0  0  0  0  0  0
  1  2  1  0
  2  3  1  0
  3  4  1  0
  4  5  1  0
  5  6  2  0
  5  7  1  0
  7  8  1  6
  7  9  1  0
  9 10  1  0
 10 11  2  0
 11 12  1  0
 12 13  2  0
 13 14  1  0
 14 15  2  0
 14 16  1  0
 16 17  1  0
 17 18  1  0
  7 19  1  0
 19 20  2  0
 20 21  1  0
 21 22  1  0
 21 23  2  0
 23 24  1  0
 24 25  2  0
 25 26  1  0
 26 27  2  0
 27 28  1  0
 28 29  1  0
 29 30  3  0
 15 10  1  0
 25 19  1  0
 18 13  1  0
 28 24  1  0
M  END
>  <smiles>  (882) 
C104025-P148

>  <fragmenstein_outcome>  (882) 
acceptable

>  <inchikey>  (882) 
DHJPMJFNCZNQLK-UHFFFAOYSA-N

>  <fragmenstein_mode>  (882) 
expansion

>  <HIPPO Pose ID>  (882) 
18834

>  <Energy>  (882) 
131.853093

>  <fragmenstein_error>  (882) 


>  <tags>  (882) 
{'openbind_xx01zvns2b_c1_fragmenstein', 'fragmenstein_placed'}

>  <ref_pdb>  (882) 
1

>  <scratch_subdir>  (882) 
/opt/xchem-fragalysis-2/maxwin/BulkDock/SCRATCH/511027/C104025-P148

>  <alias>  (882) 
CCCNC(=O)[C@](O)(Nc1ccc2c(c1)CNC2)c1cc(Cl)cc2c1cnn2C#N

>  <HIPPO Compound ID>  (882) 
70958

>  <fragmenstein_runtime>  (882) 
4.562534

$$$$
CCCNC(=O)[C@@](O)(Nc1ccc2c(c1)CNC2)c1cc(Cl)cc2c1C=N[N@@H+]2[O-]
     RDKit          3D

 29 32  0  0  0  0  0  0  0  0999 V2000
   -9.2358    8.7635  -10.1654 C   0  0  0  0  0  0  0  0  0  0  0  0
   -8.4413    9.1565  -11.3997 C   0  0  0  0  0  0  0  0  0  0  0  0
   -8.9970    8.5537  -12.6880 C   0  0  0  0  0  0  0  0  0  0  0  0
   -8.4935    7.2259  -12.9687 N   0  0  0  0  0  0  0  0  0  0  0  0
   -7.1282    6.7664  -13.5655 C   0  0  0  0  0  0  0  0  0  0  0  0
   -6.1759    7.3880  -13.8479 O   0  0  0  0  0  0  0  0  0  0  0  0
   -7.1772    5.1521  -13.7993 C   0  0  1  0  0  0  0  0  0  0  0  0
   -5.9591    4.5120  -13.4897 O   0  0  0  0  0  0  0  0  0  0  0  0
   -8.2301    4.4680  -13.0145 N   0  0  0  0  0  0  0  0  0  0  0  0
   -8.1376    4.3127  -11.6100 C   0  0  0  0  0  0  0  0  0  0  0  0
   -7.7026    5.3326  -10.7394 C   0  0  0  0  0  0  0  0  0  0  0  0
   -7.8254    5.2356   -9.3473 C   0  0  0  0  0  0  0  0  0  0  0  0
   -8.3546    4.0827   -8.8178 C   0  0  0  0  0  0  0  0  0  0  0  0
   -8.7007    3.0228   -9.6422 C   0  0  0  0  0  0  0  0  0  0  0  0
   -8.6339    3.1325  -11.0258 C   0  0  0  0  0  0  0  0  0  0  0  0
   -9.0821    1.8637   -8.7796 C   0  0  0  0  0  0  0  0  0  0  0  0
   -9.4020    2.4574   -7.4570 N   0  0  0  0  0  0  0  0  0  0  0  0
   -8.6377    3.7231   -7.3975 C   0  0  0  0  0  0  0  0  0  0  0  0
   -7.3766    4.9075  -15.3093 C   0  0  0  0  0  0  0  0  0  0  0  0
   -8.5962    4.4862  -15.8900 C   0  0  0  0  0  0  0  0  0  0  0  0
   -8.7254    4.2896  -17.2869 C   0  0  0  0  0  0  0  0  0  0  0  0
  -10.2431    3.8846  -17.9871 Cl  0  0  0  0  0  0  0  0  0  0  0  0
   -7.6589    4.5052  -18.1491 C   0  0  0  0  0  0  0  0  0  0  0  0
   -6.4776    4.9441  -17.5961 C   0  0  0  0  0  0  0  0  0  0  0  0
   -6.3418    5.1210  -16.2258 C   0  0  0  0  0  0  0  0  0  0  0  0
   -4.9464    5.5013  -16.0656 C   0  0  0  0  0  0  0  0  0  0  0  0
   -4.2620    5.5443  -17.1719 N   0  0  0  0  0  0  0  0  0  0  0  0
   -5.2309    5.2529  -18.2971 N   0  0  2  0  0  0  0  0  0  0  0  0
   -5.3575    6.3907  -19.0060 O   0  0  0  0  0  0  0  0  0  0  0  0
  1  2  1  0
  2  3  1  0
  3  4  1  0
  4  5  1  0
  5  6  2  0
  5  7  1  0
  7  8  1  1
  7  9  1  0
  9 10  1  0
 10 11  2  0
 11 12  1  0
 12 13  2  0
 13 14  1  0
 14 15  2  0
 14 16  1  0
 16 17  1  0
 17 18  1  0
  7 19  1  0
 19 20  2  0
 20 21  1  0
 21 22  1  0
 21 23  2  0
 23 24  1  0
 24 25  2  0
 25 26  1  0
 26 27  2  0
 27 28  1  0
 28 29  1  6
 15 10  1  0
 25 19  1  0
 18 13  1  0
 28 24  1  0
M  CHG  2  28   1  29  -1
M  END
>  <smiles>  (883) 
C104028-P148

>  <fragmenstein_outcome>  (883) 
acceptable

>  <inchikey>  (883) 
KRXVJDAIBQHLKG-UHFFFAOYSA-N

>  <fragmenstein_mode>  (883) 
expansion

>  <HIPPO Pose ID>  (883) 
18835

>  <Energy>  (883) 
83.770759

>  <fragmenstein_error>  (883) 


>  <tags>  (883) 
{'openbind_xx01zvns2b_c1_fragmenstein', 'fragmenstein_placed'}

>  <ref_pdb>  (883) 
1

>  <scratch_subdir>  (883) 
/opt/xchem-fragalysis-2/maxwin/BulkDock/SCRATCH/511027/C104028-P148

>  <alias>  (883) 
CCCNC(=O)[C@@](O)(Nc1ccc2c(c1)CNC2)c1cc(Cl)cc2c1C=N[N@@H+]2[O-]

>  <HIPPO Compound ID>  (883) 
92990

>  <fragmenstein_runtime>  (883) 
5.270982

$$$$
CCCNC(=O)[C@](O)(Nc1ccc2c(c1)CNC2)[C@H]1C[C@]2(Cc3[nH]ncc31)C[C@H](C#N)CS2
     RDKit          3D

 33 37  0  0  0  0  0  0  0  0999 V2000
   -3.1582    5.2594   -8.7809 C   0  0  0  0  0  0  0  0  0  0  0  0
   -4.3404    5.2472   -9.7350 C   0  0  0  0  0  0  0  0  0  0  0  0
   -4.0057    5.9353  -11.0529 C   0  0  0  0  0  0  0  0  0  0  0  0
   -5.1019    5.8539  -11.9800 N   0  0  0  0  0  0  0  0  0  0  0  0
   -5.5575    4.6887  -12.9053 C   0  0  0  0  0  0  0  0  0  0  0  0
   -5.0661    3.6490  -13.1100 O   0  0  0  0  0  0  0  0  0  0  0  0
   -6.8895    5.2050  -13.6441 C   0  0  2  0  0  0  0  0  0  0  0  0
   -7.0051    6.6291  -13.6284 O   0  0  0  0  0  0  0  0  0  0  0  0
   -8.1033    4.6338  -13.0050 N   0  0  0  0  0  0  0  0  0  0  0  0
   -8.1951    4.5777  -11.6074 C   0  0  0  0  0  0  0  0  0  0  0  0
   -8.0896    5.7253  -10.8030 C   0  0  0  0  0  0  0  0  0  0  0  0
   -8.1847    5.6486   -9.4084 C   0  0  0  0  0  0  0  0  0  0  0  0
   -8.4181    4.4130   -8.8324 C   0  0  0  0  0  0  0  0  0  0  0  0
   -8.5733    3.2815   -9.6164 C   0  0  0  0  0  0  0  0  0  0  0  0
   -8.4672    3.3446  -10.9947 C   0  0  0  0  0  0  0  0  0  0  0  0
   -8.8757    2.1036   -8.7575 C   0  0  0  0  0  0  0  0  0  0  0  0
   -8.8301    2.5895   -7.3516 N   0  0  0  0  0  0  0  0  0  0  0  0
   -8.5870    4.0477   -7.3988 C   0  0  0  0  0  0  0  0  0  0  0  0
   -6.8740    4.6901  -15.1229 C   0  0  1  0  0  0  0  0  0  0  0  0
   -8.1780    5.0612  -15.8958 C   0  0  0  0  0  0  0  0  0  0  0  0
   -8.2421    4.4988  -17.3386 C   0  0  2  0  0  0  0  0  0  0  0  0
   -6.9555    4.6631  -18.1838 C   0  0  0  0  0  0  0  0  0  0  0  0
   -5.8049    5.0586  -17.3602 C   0  0  0  0  0  0  0  0  0  0  0  0
   -4.6102    5.4541  -17.8644 N   0  0  0  0  0  0  0  0  0  0  0  0
   -3.7483    5.8218  -16.9039 N   0  0  0  0  0  0  0  0  0  0  0  0
   -4.4033    5.5549  -15.7660 C   0  0  0  0  0  0  0  0  0  0  0  0
   -5.7203    5.1133  -15.9909 C   0  0  0  0  0  0  0  0  0  0  0  0
   -9.4188    4.8850  -18.2165 C   0  0  0  0  0  0  0  0  0  0  0  0
   -9.9092    3.7896  -19.1077 C   0  0  2  0  0  0  0  0  0  0  0  0
  -11.2816    3.6267  -18.7183 C   0  0  0  0  0  0  0  0  0  0  0  0
  -12.3388    3.3555  -18.3695 N   0  0  0  0  0  0  0  0  0  0  0  0
   -9.1854    2.5354  -18.7609 C   0  0  0  0  0  0  0  0  0  0  0  0
   -8.8667    2.8801  -17.0407 S   0  0  0  0  0  0  0  0  0  0  0  0
  1  2  1  0
  2  3  1  0
  3  4  1  0
  4  5  1  0
  5  6  2  0
  5  7  1  0
  7  8  1  6
  7  9  1  0
  9 10  1  0
 10 11  2  0
 11 12  1  0
 12 13  2  0
 13 14  1  0
 14 15  2  0
 14 16  1  0
 16 17  1  0
 17 18  1  0
  7 19  1  0
 19 20  1  6
 21 20  1  1
 21 22  1  0
 22 23  1  0
 23 24  1  0
 24 25  1  0
 25 26  2  0
 26 27  1  0
 21 28  1  0
 28 29  1  0
 29 30  1  1
 30 31  3  0
 29 32  1  0
 32 33  1  0
 15 10  1  0
 27 19  1  0
 18 13  1  0
 33 21  1  0
 27 23  2  0
M  END
>  <smiles>  (884) 
C104030-P148

>  <fragmenstein_outcome>  (884) 
acceptable

>  <inchikey>  (884) 
DCQCEFNQTDYUQZ-UHFFFAOYSA-N

>  <fragmenstein_mode>  (884) 
expansion

>  <HIPPO Pose ID>  (884) 
18836

>  <Energy>  (884) 
143.966885

>  <fragmenstein_error>  (884) 


>  <tags>  (884) 
{'openbind_xx01zvns2b_c1_fragmenstein', 'fragmenstein_placed'}

>  <ref_pdb>  (884) 
1

>  <scratch_subdir>  (884) 
/opt/xchem-fragalysis-2/maxwin/BulkDock/SCRATCH/511027/C104030-P148

>  <alias>  (884) 
CCCNC(=O)[C@](O)(Nc1ccc2c(c1)CNC2)[C@H]1C[C@]2(Cc3[nH]ncc31)C[C@H](C#N)CS2

>  <HIPPO Compound ID>  (884) 
78464

>  <fragmenstein_runtime>  (884) 
9.077142

$$$$
CCCNC(=O)[C@H](Nc1ccc2c(c1)CNC2)c1cc(Cl)cc2c1cnn2CNC
     RDKit          3D

 30 33  0  0  0  0  0  0  0  0999 V2000
   -2.8336    3.3890   -8.6327 C   0  0  0  0  0  0  0  0  0  0  0  0
   -4.0422    3.5309   -9.5424 C   0  0  0  0  0  0  0  0  0  0  0  0
   -3.8988    4.7314  -10.4690 C   0  0  0  0  0  0  0  0  0  0  0  0
   -5.0407    4.8597  -11.3301 N   0  0  0  0  0  0  0  0  0  0  0  0
   -5.3288    4.2338  -12.7258 C   0  0  0  0  0  0  0  0  0  0  0  0
   -4.6490    3.5830  -13.4177 O   0  0  0  0  0  0  0  0  0  0  0  0
   -6.7914    4.7044  -13.1478 C   0  0  2  0  0  0  0  0  0  0  0  0
   -7.8063    3.8461  -12.5177 N   0  0  0  0  0  0  0  0  0  0  0  0
   -8.1116    3.9540  -11.1636 C   0  0  0  0  0  0  0  0  0  0  0  0
   -8.1578    5.1798  -10.4730 C   0  0  0  0  0  0  0  0  0  0  0  0
   -8.3763    5.2321   -9.0917 C   0  0  0  0  0  0  0  0  0  0  0  0
   -8.6432    4.0509   -8.4286 C   0  0  0  0  0  0  0  0  0  0  0  0
   -8.7288    2.8555   -9.1221 C   0  0  0  0  0  0  0  0  0  0  0  0
   -8.4713    2.7903  -10.4776 C   0  0  0  0  0  0  0  0  0  0  0  0
   -9.0571    1.7485   -8.1848 C   0  0  0  0  0  0  0  0  0  0  0  0
   -9.3423    2.3940   -6.8764 N   0  0  0  0  0  0  0  0  0  0  0  0
   -8.8762    3.7923   -6.9801 C   0  0  0  0  0  0  0  0  0  0  0  0
   -7.0387    4.7272  -14.6619 C   0  0  0  0  0  0  0  0  0  0  0  0
   -8.3117    4.3289  -15.2012 C   0  0  0  0  0  0  0  0  0  0  0  0
   -8.6266    4.4775  -16.5407 C   0  0  0  0  0  0  0  0  0  0  0  0
  -10.0803    3.9809  -17.2950 Cl  0  0  0  0  0  0  0  0  0  0  0  0
   -7.7456    5.1202  -17.3660 C   0  0  0  0  0  0  0  0  0  0  0  0
   -6.4740    5.4053  -16.9046 C   0  0  0  0  0  0  0  0  0  0  0  0
   -6.0896    5.2290  -15.5907 C   0  0  0  0  0  0  0  0  0  0  0  0
   -4.7470    5.6913  -15.5901 C   0  0  0  0  0  0  0  0  0  0  0  0
   -4.3207    6.1097  -16.7900 N   0  0  0  0  0  0  0  0  0  0  0  0
   -5.3770    5.8491  -17.5897 N   0  0  0  0  0  0  0  0  0  0  0  0
   -5.3591    6.1181  -19.0250 C   0  0  0  0  0  0  0  0  0  0  0  0
   -5.2614    4.8811  -19.7804 N   0  0  0  0  0  0  0  0  0  0  0  0
   -6.3847    3.9695  -19.6579 C   0  0  0  0  0  0  0  0  0  0  0  0
  1  2  1  0
  2  3  1  0
  3  4  1  0
  4  5  1  0
  5  6  2  0
  5  7  1  0
  7  8  1  1
  8  9  1  0
  9 10  2  0
 10 11  1  0
 11 12  2  0
 12 13  1  0
 13 14  2  0
 13 15  1  0
 15 16  1  0
 16 17  1  0
  7 18  1  0
 18 19  2  0
 19 20  1  0
 20 21  1  0
 20 22  2  0
 22 23  1  0
 23 24  2  0
 24 25  1  0
 25 26  2  0
 26 27  1  0
 27 28  1  0
 28 29  1  0
 29 30  1  0
 14  9  1  0
 24 18  1  0
 17 12  1  0
 27 23  1  0
M  END
>  <smiles>  (885) 
C104031-P148

>  <fragmenstein_outcome>  (885) 
acceptable

>  <inchikey>  (885) 
IEXZDSVJYPKQKL-UHFFFAOYSA-N

>  <fragmenstein_mode>  (885) 
expansion

>  <HIPPO Pose ID>  (885) 
18837

>  <Energy>  (885) 
153.815849

>  <fragmenstein_error>  (885) 


>  <tags>  (885) 
{'openbind_xx01zvns2b_c1_fragmenstein', 'fragmenstein_placed'}

>  <ref_pdb>  (885) 
1

>  <scratch_subdir>  (885) 
/opt/xchem-fragalysis-2/maxwin/BulkDock/SCRATCH/511027/C104031-P148

>  <alias>  (885) 
CCCNC(=O)[C@H](Nc1ccc2c(c1)CNC2)c1cc(Cl)cc2c1cnn2CNC

>  <HIPPO Compound ID>  (885) 
104031

>  <fragmenstein_runtime>  (885) 
5.736801

$$$$
CCCNC(=O)[C@](O)(Nc1ccc2c(c1)CNC2)c1cc(Cl)cc2c1cnn2CNC
     RDKit          3D

 31 34  0  0  0  0  0  0  0  0999 V2000
   -3.0612    7.2762   -9.9197 C   0  0  0  0  0  0  0  0  0  0  0  0
   -4.3085    6.7784  -10.6299 C   0  0  0  0  0  0  0  0  0  0  0  0
   -4.1969    6.9466  -12.1401 C   0  0  0  0  0  0  0  0  0  0  0  0
   -5.3783    6.4651  -12.8008 N   0  0  0  0  0  0  0  0  0  0  0  0
   -5.7765    5.0202  -13.2390 C   0  0  0  0  0  0  0  0  0  0  0  0
   -5.1689    4.0211  -13.1965 O   0  0  0  0  0  0  0  0  0  0  0  0
   -7.2575    5.1527  -13.8520 C   0  0  2  0  0  0  0  0  0  0  0  0
   -7.7870    6.4686  -13.7706 O   0  0  0  0  0  0  0  0  0  0  0  0
   -8.1946    4.3030  -13.1053 N   0  0  0  0  0  0  0  0  0  0  0  0
   -8.2014    4.2956  -11.6934 C   0  0  0  0  0  0  0  0  0  0  0  0
   -8.0021    5.4469  -10.9029 C   0  0  0  0  0  0  0  0  0  0  0  0
   -8.0905    5.4113   -9.5055 C   0  0  0  0  0  0  0  0  0  0  0  0
   -8.4065    4.2140   -8.8979 C   0  0  0  0  0  0  0  0  0  0  0  0
   -8.6390    3.0773   -9.6526 C   0  0  0  0  0  0  0  0  0  0  0  0
   -8.5614    3.1056  -11.0381 C   0  0  0  0  0  0  0  0  0  0  0  0
   -8.9383    1.9292   -8.7493 C   0  0  0  0  0  0  0  0  0  0  0  0
   -8.9692    2.4793   -7.3659 N   0  0  0  0  0  0  0  0  0  0  0  0
   -8.5643    3.8979   -7.4519 C   0  0  0  0  0  0  0  0  0  0  0  0
   -7.2983    4.8390  -15.3549 C   0  0  0  0  0  0  0  0  0  0  0  0
   -8.5207    4.4055  -15.9552 C   0  0  0  0  0  0  0  0  0  0  0  0
   -8.6554    4.2159  -17.3295 C   0  0  0  0  0  0  0  0  0  0  0  0
  -10.1726    3.8241  -18.0351 Cl  0  0  0  0  0  0  0  0  0  0  0  0
   -7.5893    4.4347  -18.1829 C   0  0  0  0  0  0  0  0  0  0  0  0
   -6.3987    4.8961  -17.6206 C   0  0  0  0  0  0  0  0  0  0  0  0
   -6.2237    5.0957  -16.2536 C   0  0  0  0  0  0  0  0  0  0  0  0
   -4.8853    5.5649  -16.1607 C   0  0  0  0  0  0  0  0  0  0  0  0
   -4.2770    5.6930  -17.3421 N   0  0  0  0  0  0  0  0  0  0  0  0
   -5.2136    5.2580  -18.2134 N   0  0  0  0  0  0  0  0  0  0  0  0
   -4.9641    5.2632  -19.6589 C   0  0  0  0  0  0  0  0  0  0  0  0
   -3.5137    5.1542  -19.9242 N   0  0  0  0  0  0  0  0  0  0  0  0
   -3.0434    6.3550  -20.5923 C   0  0  0  0  0  0  0  0  0  0  0  0
  1  2  1  0
  2  3  1  0
  3  4  1  0
  4  5  1  0
  5  6  2  0
  5  7  1  0
  7  8  1  6
  7  9  1  0
  9 10  1  0
 10 11  2  0
 11 12  1  0
 12 13  2  0
 13 14  1  0
 14 15  2  0
 14 16  1  0
 16 17  1  0
 17 18  1  0
  7 19  1  0
 19 20  2  0
 20 21  1  0
 21 22  1  0
 21 23  2  0
 23 24  1  0
 24 25  2  0
 25 26  1  0
 26 27  2  0
 27 28  1  0
 28 29  1  0
 29 30  1  0
 30 31  1  0
 15 10  1  0
 25 19  1  0
 18 13  1  0
 28 24  1  0
M  END
>  <smiles>  (886) 
C104036-P148

>  <fragmenstein_outcome>  (886) 
acceptable

>  <inchikey>  (886) 
VVJZYJPDVQVTDA-UHFFFAOYSA-N

>  <fragmenstein_mode>  (886) 
expansion

>  <HIPPO Pose ID>  (886) 
18838

>  <Energy>  (886) 
120.782163

>  <fragmenstein_error>  (886) 


>  <tags>  (886) 
{'openbind_xx01zvns2b_c1_fragmenstein', 'fragmenstein_placed'}

>  <ref_pdb>  (886) 
1

>  <scratch_subdir>  (886) 
/opt/xchem-fragalysis-2/maxwin/BulkDock/SCRATCH/511027/C104036-P148

>  <alias>  (886) 
CCCNC(=O)[C@](O)(Nc1ccc2c(c1)CNC2)c1cc(Cl)cc2c1cnn2CNC

>  <HIPPO Compound ID>  (886) 
99316

>  <fragmenstein_runtime>  (886) 
7.004952

$$$$
CCn1ncc2c([C@H](C(=O)NC[C@@H](C)F)N(C)c3ccc4c(c3)CNC4)cc(Cl)cc21
     RDKit          3D

 31 34  0  0  0  0  0  0  0  0999 V2000
   -3.0077    4.9614  -19.4473 C   0  0  0  0  0  0  0  0  0  0  0  0
   -4.4613    5.3100  -19.1606 C   0  0  0  0  0  0  0  0  0  0  0  0
   -4.8221    5.2574  -17.7554 N   0  0  0  0  0  0  0  0  0  0  0  0
   -3.9140    5.5821  -16.8224 N   0  0  0  0  0  0  0  0  0  0  0  0
   -4.6074    5.5415  -15.6850 C   0  0  0  0  0  0  0  0  0  0  0  0
   -5.9837    5.2485  -15.8650 C   0  0  0  0  0  0  0  0  0  0  0  0
   -7.1437    5.1814  -15.0406 C   0  0  0  0  0  0  0  0  0  0  0  0
   -7.2085    5.4544  -13.4958 C   0  0  2  0  0  0  0  0  0  0  0  0
   -5.9029    6.1595  -12.9755 C   0  0  0  0  0  0  0  0  0  0  0  0
   -5.7082    7.3102  -13.0600 O   0  0  0  0  0  0  0  0  0  0  0  0
   -4.9986    5.0228  -12.4187 N   0  0  0  0  0  0  0  0  0  0  0  0
   -3.7151    5.0829  -11.7683 C   0  0  0  0  0  0  0  0  0  0  0  0
   -2.9280    3.7713  -11.8134 C   0  0  1  0  0  0  0  0  0  0  0  0
   -3.6543    2.5889  -11.1946 C   0  0  0  0  0  0  0  0  0  0  0  0
   -2.6374    3.4651  -13.1102 F   0  0  0  0  0  0  0  0  0  0  0  0
   -7.4715    4.2117  -12.6596 N   0  0  0  0  0  0  0  0  0  0  0  0
   -8.4236    3.3028  -13.2494 C   0  0  0  0  0  0  0  0  0  0  0  0
   -7.7832    4.2983  -11.2665 C   0  0  0  0  0  0  0  0  0  0  0  0
   -7.8758    5.5089  -10.5552 C   0  0  0  0  0  0  0  0  0  0  0  0
   -8.2090    5.5387   -9.1876 C   0  0  0  0  0  0  0  0  0  0  0  0
   -8.5090    4.3521   -8.5434 C   0  0  0  0  0  0  0  0  0  0  0  0
   -8.4434    3.1516   -9.2199 C   0  0  0  0  0  0  0  0  0  0  0  0
   -8.0063    3.1062  -10.5277 C   0  0  0  0  0  0  0  0  0  0  0  0
   -8.8870    2.0339   -8.3374 C   0  0  0  0  0  0  0  0  0  0  0  0
   -9.4268    2.6959   -7.1188 N   0  0  0  0  0  0  0  0  0  0  0  0
   -8.8837    4.0730   -7.1283 C   0  0  0  0  0  0  0  0  0  0  0  0
   -8.3501    4.8572  -15.7460 C   0  0  0  0  0  0  0  0  0  0  0  0
   -8.3843    4.5012  -17.0986 C   0  0  0  0  0  0  0  0  0  0  0  0
   -9.8536    3.9864  -17.8435 Cl  0  0  0  0  0  0  0  0  0  0  0  0
   -7.2507    4.6077  -17.8817 C   0  0  0  0  0  0  0  0  0  0  0  0
   -6.0746    5.0099  -17.2425 C   0  0  0  0  0  0  0  0  0  0  0  0
  1  2  1  0
  2  3  1  0
  3  4  1  0
  4  5  2  0
  5  6  1  0
  6  7  2  0
  7  8  1  0
  8  9  1  0
  9 10  2  0
  9 11  1  0
 11 12  1  0
 12 13  1  0
 13 14  1  6
 13 15  1  0
  8 16  1  1
 16 17  1  0
 16 18  1  0
 18 19  2  0
 19 20  1  0
 20 21  2  0
 21 22  1  0
 22 23  2  0
 22 24  1  0
 24 25  1  0
 25 26  1  0
  7 27  1  0
 27 28  2  0
 28 29  1  0
 28 30  1  0
 30 31  2  0
 31  3  1  0
 31  6  1  0
 23 18  1  0
 26 21  1  0
M  END
>  <smiles>  (887) 
C104040-P148

>  <fragmenstein_outcome>  (887) 
acceptable

>  <inchikey>  (887) 
QMOHKQNRMZFMAC-UHFFFAOYSA-N

>  <fragmenstein_mode>  (887) 
expansion

>  <HIPPO Pose ID>  (887) 
18840

>  <Energy>  (887) 
140.454735

>  <fragmenstein_error>  (887) 


>  <tags>  (887) 
{'openbind_xx01zvns2b_c1_fragmenstein', 'fragmenstein_placed'}

>  <ref_pdb>  (887) 
1

>  <scratch_subdir>  (887) 
/opt/xchem-fragalysis-2/maxwin/BulkDock/SCRATCH/511027/C104040-P148

>  <alias>  (887) 
CCn1ncc2c([C@H](C(=O)NC[C@@H](C)F)N(C)c3ccc4c(c3)CNC4)cc(Cl)cc21

>  <HIPPO Compound ID>  (887) 
101225

>  <fragmenstein_runtime>  (887) 
10.627753

$$$$
CCCNC(=O)[C@@](O)(Nc1ccc2c(c1)CNC2)c1cc(Cl)c2c3c1CNN3NN2
     RDKit          3D

 30 34  0  0  0  0  0  0  0  0999 V2000
   -8.1949   10.5035  -11.0115 C   0  0  0  0  0  0  0  0  0  0  0  0
   -7.9398    9.0322  -11.2912 C   0  0  0  0  0  0  0  0  0  0  0  0
   -7.6166    8.7893  -12.7607 C   0  0  0  0  0  0  0  0  0  0  0  0
   -7.3841    7.3922  -13.0081 N   0  0  0  0  0  0  0  0  0  0  0  0
   -8.3739    6.2581  -13.4331 C   0  0  0  0  0  0  0  0  0  0  0  0
   -9.5385    6.2784  -13.5695 O   0  0  0  0  0  0  0  0  0  0  0  0
   -7.4708    4.9332  -13.6125 C   0  0  1  0  0  0  0  0  0  0  0  0
   -6.1534    5.0691  -13.0945 O   0  0  0  0  0  0  0  0  0  0  0  0
   -8.0337    3.8144  -12.8610 N   0  0  0  0  0  0  0  0  0  0  0  0
   -8.2476    3.8907  -11.4654 C   0  0  0  0  0  0  0  0  0  0  0  0
   -7.9003    4.9989  -10.6579 C   0  0  0  0  0  0  0  0  0  0  0  0
   -8.0740    5.0188   -9.2690 C   0  0  0  0  0  0  0  0  0  0  0  0
   -8.5402    3.8792   -8.6626 C   0  0  0  0  0  0  0  0  0  0  0  0
   -8.8234    2.7516   -9.4157 C   0  0  0  0  0  0  0  0  0  0  0  0
   -8.7018    2.7454  -10.8019 C   0  0  0  0  0  0  0  0  0  0  0  0
   -9.1333    1.6259   -8.4911 C   0  0  0  0  0  0  0  0  0  0  0  0
   -9.3207    2.2320   -7.1456 N   0  0  0  0  0  0  0  0  0  0  0  0
   -8.7611    3.5966   -7.2182 C   0  0  0  0  0  0  0  0  0  0  0  0
   -7.3320    4.7134  -15.1159 C   0  0  0  0  0  0  0  0  0  0  0  0
   -8.4152    4.2936  -15.9592 C   0  0  0  0  0  0  0  0  0  0  0  0
   -8.3094    4.2348  -17.3901 C   0  0  0  0  0  0  0  0  0  0  0  0
   -9.6362    3.6624  -18.3170 Cl  0  0  0  0  0  0  0  0  0  0  0  0
   -7.1517    4.6723  -17.9812 C   0  0  0  0  0  0  0  0  0  0  0  0
   -6.2176    5.1778  -17.1365 C   0  0  0  0  0  0  0  0  0  0  0  0
   -6.1782    5.0979  -15.7805 C   0  0  0  0  0  0  0  0  0  0  0  0
   -4.7568    5.4693  -15.4761 C   0  0  0  0  0  0  0  0  0  0  0  0
   -4.0415    5.4725  -16.8342 N   0  0  0  0  0  0  0  0  0  0  0  0
   -5.0847    5.7013  -17.7530 N   0  0  0  0  0  0  0  0  0  0  0  0
   -5.1456    5.2080  -19.0798 N   0  0  0  0  0  0  0  0  0  0  0  0
   -6.5404    4.6386  -19.2483 N   0  0  0  0  0  0  0  0  0  0  0  0
  1  2  1  0
  2  3  1  0
  3  4  1  0
  4  5  1  0
  5  6  2  0
  5  7  1  0
  7  8  1  1
  7  9  1  0
  9 10  1  0
 10 11  2  0
 11 12  1  0
 12 13  2  0
 13 14  1  0
 14 15  2  0
 14 16  1  0
 16 17  1  0
 17 18  1  0
  7 19  1  0
 19 20  2  0
 20 21  1  0
 21 22  1  0
 21 23  2  0
 23 24  1  0
 24 25  2  0
 25 26  1  0
 26 27  1  0
 27 28  1  0
 28 29  1  0
 29 30  1  0
 15 10  1  0
 25 19  1  0
 18 13  1  0
 30 23  1  0
 28 24  1  0
M  END
>  <smiles>  (888) 
C104051-P148

>  <fragmenstein_outcome>  (888) 
acceptable

>  <inchikey>  (888) 
RHZQNTWLGDNLPE-UHFFFAOYSA-N

>  <fragmenstein_mode>  (888) 
expansion

>  <HIPPO Pose ID>  (888) 
18843

>  <Energy>  (888) 
151.895252

>  <fragmenstein_error>  (888) 


>  <tags>  (888) 
{'openbind_xx01zvns2b_c1_fragmenstein', 'fragmenstein_placed'}

>  <ref_pdb>  (888) 
1

>  <scratch_subdir>  (888) 
/opt/xchem-fragalysis-2/maxwin/BulkDock/SCRATCH/511027/C104051-P148

>  <alias>  (888) 
CCCNC(=O)[C@@](O)(Nc1ccc2c(c1)CNC2)c1cc(Cl)c2c3c1CNN3NN2

>  <HIPPO Compound ID>  (888) 
104051

>  <fragmenstein_runtime>  (888) 
5.258953

$$$$
CCCNC(=O)[C@](O)(Nc1cc2c(cc1F)CNC2)c1cc(Cl)cc2c1cnn2CNC
     RDKit          3D

 32 35  0  0  0  0  0  0  0  0999 V2000
   -2.8361    6.6687   -9.6922 C   0  0  0  0  0  0  0  0  0  0  0  0
   -4.1429    6.2286  -10.3298 C   0  0  0  0  0  0  0  0  0  0  0  0
   -4.2029    6.6115  -11.8035 C   0  0  0  0  0  0  0  0  0  0  0  0
   -5.4417    6.1864  -12.3939 N   0  0  0  0  0  0  0  0  0  0  0  0
   -5.8802    4.7892  -12.9309 C   0  0  0  0  0  0  0  0  0  0  0  0
   -5.3268    3.7589  -12.9022 O   0  0  0  0  0  0  0  0  0  0  0  0
   -7.3411    5.0094  -13.5767 C   0  0  2  0  0  0  0  0  0  0  0  0
   -7.7743    6.3602  -13.5404 O   0  0  0  0  0  0  0  0  0  0  0  0
   -8.3366    4.2026  -12.8508 N   0  0  0  0  0  0  0  0  0  0  0  0
   -8.3269    4.1496  -11.4337 C   0  0  0  0  0  0  0  0  0  0  0  0
   -8.6422    2.9292  -10.8136 C   0  0  0  0  0  0  0  0  0  0  0  0
   -8.7555    2.8743   -9.4310 C   0  0  0  0  0  0  0  0  0  0  0  0
   -8.5786    4.0018   -8.6372 C   0  0  0  0  0  0  0  0  0  0  0  0
   -8.2647    5.2165   -9.2009 C   0  0  0  0  0  0  0  0  0  0  0  0
   -8.1671    5.2792  -10.5908 C   0  0  0  0  0  0  0  0  0  0  0  0
   -7.9763    6.4970  -11.1219 F   0  0  0  0  0  0  0  0  0  0  0  0
   -8.8085    3.6381   -7.2095 C   0  0  0  0  0  0  0  0  0  0  0  0
   -9.4602    2.3127   -7.2493 N   0  0  0  0  0  0  0  0  0  0  0  0
   -9.0487    1.7084   -8.5447 C   0  0  0  0  0  0  0  0  0  0  0  0
   -7.3682    4.7008  -15.0820 C   0  0  0  0  0  0  0  0  0  0  0  0
   -8.6014    4.3653  -15.7235 C   0  0  0  0  0  0  0  0  0  0  0  0
   -8.7187    4.2189  -17.1063 C   0  0  0  0  0  0  0  0  0  0  0  0
  -10.2315    3.9277  -17.8716 Cl  0  0  0  0  0  0  0  0  0  0  0  0
   -7.6248    4.3959  -17.9306 C   0  0  0  0  0  0  0  0  0  0  0  0
   -6.4169    4.7349  -17.3234 C   0  0  0  0  0  0  0  0  0  0  0  0
   -6.2575    4.8896  -15.9489 C   0  0  0  0  0  0  0  0  0  0  0  0
   -4.8896    5.2512  -15.8121 C   0  0  0  0  0  0  0  0  0  0  0  0
   -4.2402    5.3372  -16.9751 N   0  0  0  0  0  0  0  0  0  0  0  0
   -5.1971    5.0169  -17.8766 N   0  0  0  0  0  0  0  0  0  0  0  0
   -4.9236    5.1515  -19.2997 C   0  0  0  0  0  0  0  0  0  0  0  0
   -4.5095    6.5284  -19.5668 N   0  0  0  0  0  0  0  0  0  0  0  0
   -5.5719    7.4812  -19.3166 C   0  0  0  0  0  0  0  0  0  0  0  0
  1  2  1  0
  2  3  1  0
  3  4  1  0
  4  5  1  0
  5  6  2  0
  5  7  1  0
  7  8  1  6
  7  9  1  0
  9 10  1  0
 10 11  2  0
 11 12  1  0
 12 13  2  0
 13 14  1  0
 14 15  2  0
 15 16  1  0
 13 17  1  0
 17 18  1  0
 18 19  1  0
  7 20  1  0
 20 21  2  0
 21 22  1  0
 22 23  1  0
 22 24  2  0
 24 25  1  0
 25 26  2  0
 26 27  1  0
 27 28  2  0
 28 29  1  0
 29 30  1  0
 30 31  1  0
 31 32  1  0
 15 10  1  0
 26 20  1  0
 19 12  1  0
 29 25  1  0
M  END
>  <smiles>  (889) 
C104067-P148

>  <fragmenstein_outcome>  (889) 
acceptable

>  <inchikey>  (889) 
JEURSNRZVGMUIZ-UHFFFAOYSA-N

>  <fragmenstein_mode>  (889) 
expansion

>  <HIPPO Pose ID>  (889) 
18846

>  <Energy>  (889) 
135.499325

>  <fragmenstein_error>  (889) 


>  <tags>  (889) 
{'openbind_xx01zvns2b_c1_fragmenstein', 'fragmenstein_placed'}

>  <ref_pdb>  (889) 
1

>  <scratch_subdir>  (889) 
/opt/xchem-fragalysis-2/maxwin/BulkDock/SCRATCH/511027/C104067-P148

>  <alias>  (889) 
CCCNC(=O)[C@](O)(Nc1cc2c(cc1F)CNC2)c1cc(Cl)cc2c1cnn2CNC

>  <HIPPO Compound ID>  (889) 
92553

>  <fragmenstein_runtime>  (889) 
5.995692

$$$$
CCCNC(=O)[C@](O)(Nc1cc(C#N)c2c(c1)CNC2)c1cc(Cl)cc2c1cnn2CNC
     RDKit          3D

 33 36  0  0  0  0  0  0  0  0999 V2000
   -1.5426    3.7078  -12.2747 C   0  0  0  0  0  0  0  0  0  0  0  0
   -2.8524    4.0823  -12.9482 C   0  0  0  0  0  0  0  0  0  0  0  0
   -4.0442    3.4965  -12.2039 C   0  0  0  0  0  0  0  0  0  0  0  0
   -5.2948    3.8244  -12.8298 N   0  0  0  0  0  0  0  0  0  0  0  0
   -5.9527    5.2078  -13.1115 C   0  0  0  0  0  0  0  0  0  0  0  0
   -5.5402    6.2933  -12.9458 O   0  0  0  0  0  0  0  0  0  0  0  0
   -7.4177    4.9565  -13.7112 C   0  0  2  0  0  0  0  0  0  0  0  0
   -8.2048    6.1367  -13.5956 O   0  0  0  0  0  0  0  0  0  0  0  0
   -8.0581    3.8833  -12.9377 N   0  0  0  0  0  0  0  0  0  0  0  0
   -8.2621    3.9703  -11.5506 C   0  0  0  0  0  0  0  0  0  0  0  0
   -8.0084    5.1221  -10.7738 C   0  0  0  0  0  0  0  0  0  0  0  0
   -8.1446    5.1311   -9.3750 C   0  0  0  0  0  0  0  0  0  0  0  0
   -7.8795    6.3206   -8.6249 C   0  0  0  0  0  0  0  0  0  0  0  0
   -7.6640    7.2765   -8.0015 N   0  0  0  0  0  0  0  0  0  0  0  0
   -8.5227    3.9635   -8.7458 C   0  0  0  0  0  0  0  0  0  0  0  0
   -8.7552    2.8140   -9.4847 C   0  0  0  0  0  0  0  0  0  0  0  0
   -8.6371    2.8037  -10.8693 C   0  0  0  0  0  0  0  0  0  0  0  0
   -9.0396    1.6843   -8.5545 C   0  0  0  0  0  0  0  0  0  0  0  0
   -9.2451    2.3006   -7.2190 N   0  0  0  0  0  0  0  0  0  0  0  0
   -8.7108    3.6742   -7.2953 C   0  0  0  0  0  0  0  0  0  0  0  0
   -7.3995    4.6798  -15.2268 C   0  0  0  0  0  0  0  0  0  0  0  0
   -8.6180    4.2953  -15.8680 C   0  0  0  0  0  0  0  0  0  0  0  0
   -8.7402    4.1701  -17.2512 C   0  0  0  0  0  0  0  0  0  0  0  0
  -10.2521    3.8440  -17.9999 Cl  0  0  0  0  0  0  0  0  0  0  0  0
   -7.6653    4.4147  -18.0826 C   0  0  0  0  0  0  0  0  0  0  0  0
   -6.4792    4.8387  -17.4876 C   0  0  0  0  0  0  0  0  0  0  0  0
   -6.3110    4.9690  -16.1084 C   0  0  0  0  0  0  0  0  0  0  0  0
   -4.9738    5.4453  -15.9992 C   0  0  0  0  0  0  0  0  0  0  0  0
   -4.3703    5.6457  -17.1741 N   0  0  0  0  0  0  0  0  0  0  0  0
   -5.3061    5.2592  -18.0699 N   0  0  0  0  0  0  0  0  0  0  0  0
   -5.1367    5.5143  -19.5109 C   0  0  0  0  0  0  0  0  0  0  0  0
   -3.7034    5.6030  -19.8347 N   0  0  0  0  0  0  0  0  0  0  0  0
   -3.4731    6.6885  -20.7720 C   0  0  0  0  0  0  0  0  0  0  0  0
  1  2  1  0
  2  3  1  0
  3  4  1  0
  4  5  1  0
  5  6  2  0
  5  7  1  0
  7  8  1  6
  7  9  1  0
  9 10  1  0
 10 11  2  0
 11 12  1  0
 12 13  1  0
 13 14  3  0
 12 15  2  0
 15 16  1  0
 16 17  2  0
 16 18  1  0
 18 19  1  0
 19 20  1  0
  7 21  1  0
 21 22  2  0
 22 23  1  0
 23 24  1  0
 23 25  2  0
 25 26  1  0
 26 27  2  0
 27 28  1  0
 28 29  2  0
 29 30  1  0
 30 31  1  0
 31 32  1  0
 32 33  1  0
 17 10  1  0
 27 21  1  0
 20 15  1  0
 30 26  1  0
M  END
>  <smiles>  (890) 
C104069-P148

>  <fragmenstein_outcome>  (890) 
acceptable

>  <inchikey>  (890) 
WAJWYSJMRQEEHI-UHFFFAOYSA-N

>  <fragmenstein_mode>  (890) 
expansion

>  <HIPPO Pose ID>  (890) 
18847

>  <Energy>  (890) 
131.761421

>  <fragmenstein_error>  (890) 


>  <tags>  (890) 
{'openbind_xx01zvns2b_c1_fragmenstein', 'fragmenstein_placed'}

>  <ref_pdb>  (890) 
1

>  <scratch_subdir>  (890) 
/opt/xchem-fragalysis-2/maxwin/BulkDock/SCRATCH/511027/C104069-P148

>  <alias>  (890) 
CCCNC(=O)[C@](O)(Nc1cc(C#N)c2c(c1)CNC2)c1cc(Cl)cc2c1cnn2CNC

>  <HIPPO Compound ID>  (890) 
104069

>  <fragmenstein_runtime>  (890) 
8.39114

$$$$
CCCNC(=O)[C@@](O)(Nc1ccc2c(c1)[C@H](F)N(F)C2)c1cc(Cl)cc2c1cnn2CNC
     RDKit          3D

 33 36  0  0  0  0  0  0  0  0999 V2000
   -8.2411   10.3032  -10.8459 C   0  0  0  0  0  0  0  0  0  0  0  0
   -7.9282    8.8854  -11.2931 C   0  0  0  0  0  0  0  0  0  0  0  0
   -7.7718    8.7971  -12.8064 C   0  0  0  0  0  0  0  0  0  0  0  0
   -7.4790    7.4503  -13.2216 N   0  0  0  0  0  0  0  0  0  0  0  0
   -8.4380    6.2685  -13.5840 C   0  0  0  0  0  0  0  0  0  0  0  0
   -9.6071    6.2391  -13.6731 O   0  0  0  0  0  0  0  0  0  0  0  0
   -7.4912    4.9945  -13.8539 C   0  0  1  0  0  0  0  0  0  0  0  0
   -6.1468    5.1970  -13.4527 O   0  0  0  0  0  0  0  0  0  0  0  0
   -7.9341    3.8511  -13.0523 N   0  0  0  0  0  0  0  0  0  0  0  0
   -8.0901    3.9379  -11.6522 C   0  0  0  0  0  0  0  0  0  0  0  0
   -7.7078    5.0526  -10.8704 C   0  0  0  0  0  0  0  0  0  0  0  0
   -7.8815    5.1088   -9.4836 C   0  0  0  0  0  0  0  0  0  0  0  0
   -8.3725    3.9915   -8.8578 C   0  0  0  0  0  0  0  0  0  0  0  0
   -8.6499    2.8366   -9.5829 C   0  0  0  0  0  0  0  0  0  0  0  0
   -8.5340    2.8007  -10.9663 C   0  0  0  0  0  0  0  0  0  0  0  0
   -9.0236    1.7592   -8.6107 C   0  0  2  0  0  0  0  0  0  0  0  0
  -10.0560    0.9863   -9.0097 F   0  0  0  0  0  0  0  0  0  0  0  0
   -9.4324    2.4948   -7.3993 N   0  0  0  0  0  0  0  0  0  0  0  0
   -9.2440    1.7677   -6.2512 F   0  0  0  0  0  0  0  0  0  0  0  0
   -8.6668    3.7484   -7.4139 C   0  0  0  0  0  0  0  0  0  0  0  0
   -7.4824    4.7267  -15.3671 C   0  0  0  0  0  0  0  0  0  0  0  0
   -8.6603    4.2734  -16.0201 C   0  0  0  0  0  0  0  0  0  0  0  0
   -8.7389    4.1440  -17.4066 C   0  0  0  0  0  0  0  0  0  0  0  0
  -10.2219    3.7422  -18.1737 Cl  0  0  0  0  0  0  0  0  0  0  0  0
   -7.6528    4.4285  -18.2195 C   0  0  0  0  0  0  0  0  0  0  0  0
   -6.4993    4.9136  -17.6059 C   0  0  0  0  0  0  0  0  0  0  0  0
   -6.3868    5.0540  -16.2229 C   0  0  0  0  0  0  0  0  0  0  0  0
   -5.0697    5.5570  -16.0504 C   0  0  0  0  0  0  0  0  0  0  0  0
   -4.4119    5.7445  -17.1952 N   0  0  0  0  0  0  0  0  0  0  0  0
   -5.3126    5.3636  -18.1330 N   0  0  0  0  0  0  0  0  0  0  0  0
   -4.9422    5.4520  -19.5468 C   0  0  0  0  0  0  0  0  0  0  0  0
   -4.4809    6.8263  -19.8070 N   0  0  0  0  0  0  0  0  0  0  0  0
   -3.7232    6.8686  -21.0435 C   0  0  0  0  0  0  0  0  0  0  0  0
  1  2  1  0
  2  3  1  0
  3  4  1  0
  4  5  1  0
  5  6  2  0
  5  7  1  0
  7  8  1  1
  7  9  1  0
  9 10  1  0
 10 11  2  0
 11 12  1  0
 12 13  2  0
 13 14  1  0
 14 15  2  0
 14 16  1  0
 16 17  1  6
 16 18  1  0
 18 19  1  0
 18 20  1  0
  7 21  1  0
 21 22  2  0
 22 23  1  0
 23 24  1  0
 23 25  2  0
 25 26  1  0
 26 27  2  0
 27 28  1  0
 28 29  2  0
 29 30  1  0
 30 31  1  0
 31 32  1  0
 32 33  1  0
 15 10  1  0
 27 21  1  0
 20 13  1  0
 30 26  1  0
M  END
>  <smiles>  (891) 
C104070-P148

>  <fragmenstein_outcome>  (891) 
acceptable

>  <inchikey>  (891) 
JHTWOBWYUHFVIM-UHFFFAOYSA-N

>  <fragmenstein_mode>  (891) 
expansion

>  <HIPPO Pose ID>  (891) 
18848

>  <Energy>  (891) 
132.544432

>  <fragmenstein_error>  (891) 


>  <tags>  (891) 
{'openbind_xx01zvns2b_c1_fragmenstein', 'fragmenstein_placed'}

>  <ref_pdb>  (891) 
1

>  <scratch_subdir>  (891) 
/opt/xchem-fragalysis-2/maxwin/BulkDock/SCRATCH/511027/C104070-P148

>  <alias>  (891) 
CCCNC(=O)[C@@](O)(Nc1ccc2c(c1)[C@H](F)N(F)C2)c1cc(Cl)cc2c1cnn2CNC

>  <HIPPO Compound ID>  (891) 
84043

>  <fragmenstein_runtime>  (891) 
4.713943

$$$$
C[C@H](F)CNC(=O)[C@@H](Nc1ccc2c(c1)CNC2)c1cc(Cl)cc2c1cnn2F
     RDKit          3D

 29 32  0  0  0  0  0  0  0  0999 V2000
   -5.4364    9.0869  -14.4734 C   0  0  0  0  0  0  0  0  0  0  0  0
   -6.0025    9.2697  -13.0790 C   0  0  2  0  0  0  0  0  0  0  0  0
   -5.0864    8.8437  -12.1693 F   0  0  0  0  0  0  0  0  0  0  0  0
   -7.3447    8.5739  -12.8300 C   0  0  0  0  0  0  0  0  0  0  0  0
   -7.4362    7.1646  -13.1533 N   0  0  0  0  0  0  0  0  0  0  0  0
   -6.3984    6.0162  -12.9736 C   0  0  0  0  0  0  0  0  0  0  0  0
   -5.2867    6.0495  -12.6095 O   0  0  0  0  0  0  0  0  0  0  0  0
   -7.0959    4.6816  -13.4358 C   0  0  1  0  0  0  0  0  0  0  0  0
   -8.4309    4.4840  -12.7892 N   0  0  0  0  0  0  0  0  0  0  0  0
   -8.3886    4.3196  -11.3737 C   0  0  0  0  0  0  0  0  0  0  0  0
   -8.1834    5.4161  -10.5130 C   0  0  0  0  0  0  0  0  0  0  0  0
   -8.2295    5.2868   -9.1214 C   0  0  0  0  0  0  0  0  0  0  0  0
   -8.5046    4.0446   -8.5926 C   0  0  0  0  0  0  0  0  0  0  0  0
   -8.6883    2.9462   -9.4182 C   0  0  0  0  0  0  0  0  0  0  0  0
   -8.6187    3.0588  -10.8018 C   0  0  0  0  0  0  0  0  0  0  0  0
   -8.9657    1.7440   -8.5815 C   0  0  0  0  0  0  0  0  0  0  0  0
   -9.0981    2.2273   -7.1799 N   0  0  0  0  0  0  0  0  0  0  0  0
   -8.6833    3.6451   -7.1706 C   0  0  0  0  0  0  0  0  0  0  0  0
   -7.2117    4.6654  -14.9741 C   0  0  0  0  0  0  0  0  0  0  0  0
   -8.4288    4.3919  -15.6510 C   0  0  0  0  0  0  0  0  0  0  0  0
   -8.5143    4.3373  -17.0470 C   0  0  0  0  0  0  0  0  0  0  0  0
  -10.0195    4.0138  -17.7970 Cl  0  0  0  0  0  0  0  0  0  0  0  0
   -7.4139    4.5722  -17.8595 C   0  0  0  0  0  0  0  0  0  0  0  0
   -6.2150    4.8419  -17.2038 C   0  0  0  0  0  0  0  0  0  0  0  0
   -6.0863    4.8851  -15.8159 C   0  0  0  0  0  0  0  0  0  0  0  0
   -4.7042    5.1522  -15.6169 C   0  0  0  0  0  0  0  0  0  0  0  0
   -4.0261    5.2996  -16.7560 N   0  0  0  0  0  0  0  0  0  0  0  0
   -4.9604    5.0816  -17.6871 N   0  0  0  0  0  0  0  0  0  0  0  0
   -4.6610    5.1420  -19.0229 F   0  0  0  0  0  0  0  0  0  0  0  0
  2  1  1  6
  2  3  1  0
  2  4  1  0
  4  5  1  0
  5  6  1  0
  6  7  2  0
  6  8  1  0
  8  9  1  1
  9 10  1  0
 10 11  2  0
 11 12  1  0
 12 13  2  0
 13 14  1  0
 14 15  2  0
 14 16  1  0
 16 17  1  0
 17 18  1  0
  8 19  1  0
 19 20  2  0
 20 21  1  0
 21 22  1  0
 21 23  2  0
 23 24  1  0
 24 25  2  0
 25 26  1  0
 26 27  2  0
 27 28  1  0
 28 29  1  0
 15 10  1  0
 25 19  1  0
 18 13  1  0
 28 24  1  0
M  END
>  <smiles>  (892) 
C104083-P149

>  <fragmenstein_outcome>  (892) 
acceptable

>  <inchikey>  (892) 
NTYNBNVXFKTJII-UHFFFAOYSA-N

>  <fragmenstein_mode>  (892) 
expansion

>  <HIPPO Pose ID>  (892) 
18851

>  <Energy>  (892) 
121.413814

>  <fragmenstein_error>  (892) 


>  <tags>  (892) 
{'openbind_xx01zvns2b_c1_fragmenstein', 'fragmenstein_placed'}

>  <ref_pdb>  (892) 
1

>  <scratch_subdir>  (892) 
/opt/xchem-fragalysis-2/maxwin/BulkDock/SCRATCH/511027/C104083-P149

>  <alias>  (892) 
C[C@H](F)CNC(=O)[C@@H](Nc1ccc2c(c1)CNC2)c1cc(Cl)cc2c1cnn2F

>  <HIPPO Compound ID>  (892) 
100079

>  <fragmenstein_runtime>  (892) 
5.233018

$$$$
COc1cnc(C)c(-c2ccccc2C)c1
     RDKit          3D

 16 17  0  0  0  0  0  0  0  0999 V2000
   -9.2490    2.5603   -6.9880 C   0  0  0  0  0  0  0  0  0  0  0  0
   -8.7185    3.7899   -7.4824 O   0  0  0  0  0  0  0  0  0  0  0  0
   -8.5420    3.8566   -8.8369 C   0  0  0  0  0  0  0  0  0  0  0  0
   -8.7445    2.8377   -9.7542 C   0  0  0  0  0  0  0  0  0  0  0  0
   -8.5735    2.9777  -11.0910 N   0  0  0  0  0  0  0  0  0  0  0  0
   -8.1621    4.1828  -11.5546 C   0  0  0  0  0  0  0  0  0  0  0  0
   -8.0131    4.2820  -13.0446 C   0  0  0  0  0  0  0  0  0  0  0  0
   -7.8984    5.2741  -10.7125 C   0  0  0  0  0  0  0  0  0  0  0  0
   -7.3900    6.5631  -11.2148 C   0  0  0  0  0  0  0  0  0  0  0  0
   -8.2888    7.6011  -11.5095 C   0  0  0  0  0  0  0  0  0  0  0  0
   -7.8452    8.8293  -12.0015 C   0  0  0  0  0  0  0  0  0  0  0  0
   -6.4871    9.0443  -12.2030 C   0  0  0  0  0  0  0  0  0  0  0  0
   -5.5731    8.0350  -11.9046 C   0  0  0  0  0  0  0  0  0  0  0  0
   -6.0071    6.7952  -11.4042 C   0  0  0  0  0  0  0  0  0  0  0  0
   -4.9817    5.7377  -11.0845 C   0  0  0  0  0  0  0  0  0  0  0  0
   -8.1093    5.0855   -9.3359 C   0  0  0  0  0  0  0  0  0  0  0  0
  1  2  1  0
  2  3  1  0
  3  4  2  0
  4  5  1  0
  5  6  2  0
  6  7  1  0
  6  8  1  0
  8  9  1  0
  9 10  2  0
 10 11  1  0
 11 12  2  0
 12 13  1  0
 13 14  2  0
 14 15  1  0
  8 16  2  0
 16  3  1  0
 14  9  1  0
M  END
>  <smiles>  (893) 
C104131-P149

>  <fragmenstein_outcome>  (893) 
acceptable

>  <inchikey>  (893) 
COSDODUXKQCGRG-UHFFFAOYSA-N

>  <fragmenstein_mode>  (893) 
expansion

>  <HIPPO Pose ID>  (893) 
18881

>  <Energy>  (893) 
67.999976

>  <fragmenstein_error>  (893) 


>  <tags>  (893) 
{'openbind_xx01zvns2b_c1_fragmenstein', 'fragmenstein_placed'}

>  <ref_pdb>  (893) 
1

>  <scratch_subdir>  (893) 
/opt/xchem-fragalysis-2/maxwin/BulkDock/SCRATCH/511027/C104131-P149

>  <alias>  (893) 
COc1cnc(C)c(-c2ccccc2C)c1

>  <HIPPO Compound ID>  (893) 
72280

>  <fragmenstein_runtime>  (893) 
1.516775

$$$$
Cc1c(C(=O)[C@H](C#N)c2cnc(C)c3ccccc23)ccc2c1CNC2
     RDKit          3D

 26 29  0  0  0  0  0  0  0  0999 V2000
   -0.4053    6.5538  -17.1380 C   0  0  0  0  0  0  0  0  0  0  0  0
   -1.0062    6.3472  -18.5002 C   0  0  0  0  0  0  0  0  0  0  0  0
   -2.3020    5.8121  -18.7005 C   0  0  0  0  0  0  0  0  0  0  0  0
   -3.1419    5.3823  -17.5225 C   0  0  0  0  0  0  0  0  0  0  0  0
   -2.5719    4.9212  -16.5361 O   0  0  0  0  0  0  0  0  0  0  0  0
   -4.6535    5.4438  -17.6459 C   0  0  2  0  0  0  0  0  0  0  0  0
   -5.0815    6.7505  -18.1800 C   0  0  0  0  0  0  0  0  0  0  0  0
   -5.4211    7.7819  -18.5975 N   0  0  0  0  0  0  0  0  0  0  0  0
   -5.5067    5.1330  -16.4292 C   0  0  0  0  0  0  0  0  0  0  0  0
   -5.0868    5.3532  -15.1211 C   0  0  0  0  0  0  0  0  0  0  0  0
   -5.8555    5.1602  -14.0268 N   0  0  0  0  0  0  0  0  0  0  0  0
   -7.1189    4.7116  -14.2180 C   0  0  0  0  0  0  0  0  0  0  0  0
   -7.8990    4.4241  -12.9632 C   0  0  0  0  0  0  0  0  0  0  0  0
   -7.6749    4.5237  -15.5015 C   0  0  0  0  0  0  0  0  0  0  0  0
   -9.0184    4.1727  -15.7239 C   0  0  0  0  0  0  0  0  0  0  0  0
   -9.5487    4.0428  -17.0085 C   0  0  0  0  0  0  0  0  0  0  0  0
   -8.7387    4.1982  -18.1090 C   0  0  0  0  0  0  0  0  0  0  0  0
   -7.4091    4.5335  -17.9179 C   0  0  0  0  0  0  0  0  0  0  0  0
   -6.8490    4.7248  -16.6265 C   0  0  0  0  0  0  0  0  0  0  0  0
   -2.8118    5.6685  -20.0166 C   0  0  0  0  0  0  0  0  0  0  0  0
   -2.0706    6.0664  -21.1306 C   0  0  0  0  0  0  0  0  0  0  0  0
   -0.7924    6.5379  -20.9233 C   0  0  0  0  0  0  0  0  0  0  0  0
   -0.2642    6.6663  -19.6390 C   0  0  0  0  0  0  0  0  0  0  0  0
    1.1292    7.2021  -19.7563 C   0  0  0  0  0  0  0  0  0  0  0  0
    1.5004    7.0411  -21.1862 N   0  0  0  0  0  0  0  0  0  0  0  0
    0.2155    6.9936  -21.9243 C   0  0  0  0  0  0  0  0  0  0  0  0
  1  2  1  0
  2  3  2  0
  3  4  1  0
  4  5  2  0
  4  6  1  0
  6  7  1  1
  7  8  3  0
  6  9  1  0
  9 10  2  0
 10 11  1  0
 11 12  2  0
 12 13  1  0
 12 14  1  0
 14 15  2  0
 15 16  1  0
 16 17  2  0
 17 18  1  0
 18 19  2  0
  3 20  1  0
 20 21  2  0
 21 22  1  0
 22 23  2  0
 23 24  1  0
 24 25  1  0
 25 26  1  0
 23  2  1  0
 19  9  1  0
 26 22  1  0
 19 14  1  0
M  END
>  <smiles>  (894) 
C104132-P149

>  <fragmenstein_outcome>  (894) 
acceptable

>  <inchikey>  (894) 
ZGMYFLZLFFICGK-UHFFFAOYSA-O

>  <fragmenstein_mode>  (894) 
expansion

>  <HIPPO Pose ID>  (894) 
18882

>  <Energy>  (894) 
101.834103

>  <fragmenstein_error>  (894) 


>  <tags>  (894) 
{'openbind_xx01zvns2b_c1_fragmenstein', 'fragmenstein_placed'}

>  <ref_pdb>  (894) 
1

>  <scratch_subdir>  (894) 
/opt/xchem-fragalysis-2/maxwin/BulkDock/SCRATCH/511027/C104132-P149

>  <alias>  (894) 
Cc1c(C(=O)[C@H](C#N)c2cnc(C)c3ccccc23)ccc2c1CNC2

>  <HIPPO Compound ID>  (894) 
91503

>  <fragmenstein_runtime>  (894) 
1.642848

$$$$
N#C[C@@]1(c2cncc3ccccc23)Nc2cc3c(cc2C1=O)CNC3
     RDKit          3D

 25 29  0  0  0  0  0  0  0  0999 V2000
   -4.5034    4.7690  -12.6833 N   0  0  0  0  0  0  0  0  0  0  0  0
   -5.6210    4.7823  -13.0095 C   0  0  0  0  0  0  0  0  0  0  0  0
   -7.0682    4.7680  -13.3681 C   0  0  1  0  0  0  0  0  0  0  0  0
   -7.3754    4.8668  -14.8755 C   0  0  0  0  0  0  0  0  0  0  0  0
   -8.6391    4.4213  -15.2861 C   0  0  0  0  0  0  0  0  0  0  0  0
   -9.0227    4.1873  -16.5593 N   0  0  0  0  0  0  0  0  0  0  0  0
   -8.1053    4.4074  -17.5177 C   0  0  0  0  0  0  0  0  0  0  0  0
   -6.8252    4.8880  -17.2721 C   0  0  0  0  0  0  0  0  0  0  0  0
   -5.9366    5.0726  -18.3487 C   0  0  0  0  0  0  0  0  0  0  0  0
   -4.6491    5.5531  -18.1414 C   0  0  0  0  0  0  0  0  0  0  0  0
   -4.2645    5.9013  -16.8610 C   0  0  0  0  0  0  0  0  0  0  0  0
   -5.1509    5.7380  -15.7876 C   0  0  0  0  0  0  0  0  0  0  0  0
   -6.4459    5.1734  -15.9312 C   0  0  0  0  0  0  0  0  0  0  0  0
   -7.6444    3.4566  -12.8989 N   0  0  0  0  0  0  0  0  0  0  0  0
   -8.0356    3.6921  -11.5635 C   0  0  0  0  0  0  0  0  0  0  0  0
   -8.3941    2.6995  -10.6792 C   0  0  0  0  0  0  0  0  0  0  0  0
   -8.6334    3.0781   -9.3736 C   0  0  0  0  0  0  0  0  0  0  0  0
   -8.5108    4.4086   -8.9574 C   0  0  0  0  0  0  0  0  0  0  0  0
   -8.2815    5.4350   -9.8694 C   0  0  0  0  0  0  0  0  0  0  0  0
   -8.0767    5.0362  -11.1830 C   0  0  0  0  0  0  0  0  0  0  0  0
   -7.7259    5.7914  -12.3939 C   0  0  0  0  0  0  0  0  0  0  0  0
   -7.8853    6.9959  -12.5110 O   0  0  0  0  0  0  0  0  0  0  0  0
   -8.6582    4.4485   -7.4711 C   0  0  0  0  0  0  0  0  0  0  0  0
   -8.7742    3.0421   -7.0156 N   0  0  0  0  0  0  0  0  0  0  0  0
   -9.0479    2.2236   -8.2255 C   0  0  0  0  0  0  0  0  0  0  0  0
  1  2  3  0
  3  2  1  6
  3  4  1  0
  4  5  2  0
  5  6  1  0
  6  7  2  0
  7  8  1  0
  8  9  2  0
  9 10  1  0
 10 11  2  0
 11 12  1  0
 12 13  2  0
  3 14  1  0
 14 15  1  0
 15 16  2  0
 16 17  1  0
 17 18  2  0
 18 19  1  0
 19 20  2  0
 20 21  1  0
 21 22  2  0
 18 23  1  0
 23 24  1  0
 24 25  1  0
 21  3  1  0
 13  4  1  0
 20 15  1  0
 13  8  1  0
 25 17  1  0
M  END
>  <smiles>  (895) 
C104158-P149

>  <fragmenstein_outcome>  (895) 
acceptable

>  <inchikey>  (895) 
XEPGALJHXGXZIM-UHFFFAOYSA-N

>  <fragmenstein_mode>  (895) 
expansion

>  <HIPPO Pose ID>  (895) 
18895

>  <Energy>  (895) 
146.75261

>  <fragmenstein_error>  (895) 


>  <tags>  (895) 
{'openbind_xx01zvns2b_c1_fragmenstein', 'fragmenstein_placed'}

>  <ref_pdb>  (895) 
1

>  <scratch_subdir>  (895) 
/opt/xchem-fragalysis-2/maxwin/BulkDock/SCRATCH/511027/C104158-P149

>  <alias>  (895) 
N#C[C@@]1(c2cncc3ccccc23)Nc2cc3c(cc2C1=O)CNC3

>  <HIPPO Compound ID>  (895) 
104158

>  <fragmenstein_runtime>  (895) 
2.613369

$$$$
Cc1cc([C@@H](C#N)C(=O)c2ccc3c(c2)CNC3)c2ccccc2c1CO
     RDKit          3D

 27 30  0  0  0  0  0  0  0  0999 V2000
   -9.8025    3.9081  -17.4607 C   0  0  0  0  0  0  0  0  0  0  0  0
   -8.4479    4.2162  -16.8754 C   0  0  0  0  0  0  0  0  0  0  0  0
   -8.2834    4.2748  -15.4971 C   0  0  0  0  0  0  0  0  0  0  0  0
   -7.0554    4.6261  -14.9029 C   0  0  0  0  0  0  0  0  0  0  0  0
   -6.9459    4.7331  -13.3657 C   0  0  1  0  0  0  0  0  0  0  0  0
   -6.2729    5.9857  -12.9542 C   0  0  0  0  0  0  0  0  0  0  0  0
   -5.7340    6.9546  -12.6031 N   0  0  0  0  0  0  0  0  0  0  0  0
   -8.2584    4.7764  -12.5995 C   0  0  0  0  0  0  0  0  0  0  0  0
   -9.2944    5.2610  -13.0473 O   0  0  0  0  0  0  0  0  0  0  0  0
   -8.2519    4.4427  -11.1619 C   0  0  0  0  0  0  0  0  0  0  0  0
   -8.1272    5.5190  -10.2597 C   0  0  0  0  0  0  0  0  0  0  0  0
   -8.2434    5.3074   -8.8889 C   0  0  0  0  0  0  0  0  0  0  0  0
   -8.5183    4.0245   -8.4541 C   0  0  0  0  0  0  0  0  0  0  0  0
   -8.6420    2.9626   -9.3476 C   0  0  0  0  0  0  0  0  0  0  0  0
   -8.5032    3.1445  -10.7165 C   0  0  0  0  0  0  0  0  0  0  0  0
   -8.9588    1.7192   -8.5854 C   0  0  0  0  0  0  0  0  0  0  0  0
   -9.1722    2.1326   -7.1742 N   0  0  0  0  0  0  0  0  0  0  0  0
   -8.7695    3.5474   -7.0649 C   0  0  0  0  0  0  0  0  0  0  0  0
   -5.9156    4.8365  -15.7523 C   0  0  0  0  0  0  0  0  0  0  0  0
   -4.6006    5.0688  -15.2691 C   0  0  0  0  0  0  0  0  0  0  0  0
   -3.5088    5.3174  -16.1027 C   0  0  0  0  0  0  0  0  0  0  0  0
   -3.6758    5.3104  -17.4671 C   0  0  0  0  0  0  0  0  0  0  0  0
   -4.9354    5.0275  -17.9827 C   0  0  0  0  0  0  0  0  0  0  0  0
   -6.0697    4.7790  -17.1608 C   0  0  0  0  0  0  0  0  0  0  0  0
   -7.3391    4.4548  -17.7023 C   0  0  0  0  0  0  0  0  0  0  0  0
   -7.5596    4.3471  -19.1768 C   0  0  0  0  0  0  0  0  0  0  0  0
   -7.6030    3.0086  -19.6208 O   0  0  0  0  0  0  0  0  0  0  0  0
  1  2  1  0
  2  3  2  0
  3  4  1  0
  4  5  1  0
  5  6  1  6
  6  7  3  0
  5  8  1  0
  8  9  2  0
  8 10  1  0
 10 11  2  0
 11 12  1  0
 12 13  2  0
 13 14  1  0
 14 15  2  0
 14 16  1  0
 16 17  1  0
 17 18  1  0
  4 19  2  0
 19 20  1  0
 20 21  2  0
 21 22  1  0
 22 23  2  0
 23 24  1  0
 24 25  2  0
 25 26  1  0
 26 27  1  0
 25  2  1  0
 15 10  1  0
 24 19  1  0
 18 13  1  0
M  END
>  <smiles>  (896) 
C104161-P149

>  <fragmenstein_outcome>  (896) 
acceptable

>  <inchikey>  (896) 
IVJJKJKYUGRQRT-UHFFFAOYSA-N

>  <fragmenstein_mode>  (896) 
expansion

>  <HIPPO Pose ID>  (896) 
18898

>  <Energy>  (896) 
123.295449

>  <fragmenstein_error>  (896) 


>  <tags>  (896) 
{'openbind_xx01zvns2b_c1_fragmenstein', 'fragmenstein_placed'}

>  <ref_pdb>  (896) 
1

>  <scratch_subdir>  (896) 
/opt/xchem-fragalysis-2/maxwin/BulkDock/SCRATCH/511027/C104161-P149

>  <alias>  (896) 
Cc1cc([C@@H](C#N)C(=O)c2ccc3c(c2)CNC3)c2ccccc2c1CO

>  <HIPPO Compound ID>  (896) 
73976

>  <fragmenstein_runtime>  (896) 
5.850012

$$$$
Cc1cc([C@@H](C(=O)c2ccc3c(c2)CNC3)c2ccccc2)c2ccccc2c1CO
     RDKit          3D

 31 35  0  0  0  0  0  0  0  0999 V2000
   -9.8654    3.9954  -17.2777 C   0  0  0  0  0  0  0  0  0  0  0  0
   -8.5003    4.3552  -16.7547 C   0  0  0  0  0  0  0  0  0  0  0  0
   -8.3003    4.5614  -15.3915 C   0  0  0  0  0  0  0  0  0  0  0  0
   -7.0364    4.8887  -14.8433 C   0  0  0  0  0  0  0  0  0  0  0  0
   -6.9975    5.0039  -13.2833 C   0  0  1  0  0  0  0  0  0  0  0  0
   -7.8142    3.8992  -12.5590 C   0  0  0  0  0  0  0  0  0  0  0  0
   -8.1317    2.8439  -13.1031 O   0  0  0  0  0  0  0  0  0  0  0  0
   -8.1569    4.0278  -11.1107 C   0  0  0  0  0  0  0  0  0  0  0  0
   -8.0883    5.2372  -10.3940 C   0  0  0  0  0  0  0  0  0  0  0  0
   -8.3269    5.2626   -9.0140 C   0  0  0  0  0  0  0  0  0  0  0  0
   -8.6721    4.0798   -8.3849 C   0  0  0  0  0  0  0  0  0  0  0  0
   -8.7806    2.8926   -9.0969 C   0  0  0  0  0  0  0  0  0  0  0  0
   -8.5182    2.8457  -10.4488 C   0  0  0  0  0  0  0  0  0  0  0  0
   -9.1615    1.7860   -8.1746 C   0  0  0  0  0  0  0  0  0  0  0  0
   -9.6224    2.4694   -6.9372 N   0  0  0  0  0  0  0  0  0  0  0  0
   -8.9685    3.7968   -6.9503 C   0  0  0  0  0  0  0  0  0  0  0  0
   -5.6358    5.0512  -12.5898 C   0  0  0  0  0  0  0  0  0  0  0  0
   -5.1770    6.2409  -11.9924 C   0  0  0  0  0  0  0  0  0  0  0  0
   -3.9536    6.2731  -11.3201 C   0  0  0  0  0  0  0  0  0  0  0  0
   -3.1751    5.1207  -11.2306 C   0  0  0  0  0  0  0  0  0  0  0  0
   -3.6172    3.9342  -11.8116 C   0  0  0  0  0  0  0  0  0  0  0  0
   -4.8384    3.8979  -12.4851 C   0  0  0  0  0  0  0  0  0  0  0  0
   -5.9500    5.1236  -15.7614 C   0  0  0  0  0  0  0  0  0  0  0  0
   -4.6630    5.6055  -15.4093 C   0  0  0  0  0  0  0  0  0  0  0  0
   -3.6014    5.7542  -16.3064 C   0  0  0  0  0  0  0  0  0  0  0  0
   -3.7790    5.4410  -17.6289 C   0  0  0  0  0  0  0  0  0  0  0  0
   -5.0351    5.0179  -18.0398 C   0  0  0  0  0  0  0  0  0  0  0  0
   -6.1396    4.8770  -17.1530 C   0  0  0  0  0  0  0  0  0  0  0  0
   -7.4188    4.5024  -17.6321 C   0  0  0  0  0  0  0  0  0  0  0  0
   -7.7008    4.3086  -19.0920 C   0  0  0  0  0  0  0  0  0  0  0  0
   -7.8579    2.9503  -19.4244 O   0  0  0  0  0  0  0  0  0  0  0  0
  1  2  1  0
  2  3  2  0
  3  4  1  0
  4  5  1  0
  5  6  1  1
  6  7  2  0
  6  8  1  0
  8  9  2  0
  9 10  1  0
 10 11  2  0
 11 12  1  0
 12 13  2  0
 12 14  1  0
 14 15  1  0
 15 16  1  0
  5 17  1  0
 17 18  2  0
 18 19  1  0
 19 20  2  0
 20 21  1  0
 21 22  2  0
  4 23  2  0
 23 24  1  0
 24 25  2  0
 25 26  1  0
 26 27  2  0
 27 28  1  0
 28 29  2  0
 29 30  1  0
 30 31  1  0
 29  2  1  0
 13  8  1  0
 22 17  1  0
 28 23  1  0
 16 11  1  0
M  END
>  <smiles>  (897) 
C104164-P149

>  <fragmenstein_outcome>  (897) 
acceptable

>  <inchikey>  (897) 
GHKDFOTYVPUBFV-UHFFFAOYSA-N

>  <fragmenstein_mode>  (897) 
expansion

>  <HIPPO Pose ID>  (897) 
18900

>  <Energy>  (897) 
157.681198

>  <fragmenstein_error>  (897) 


>  <tags>  (897) 
{'openbind_xx01zvns2b_c1_fragmenstein', 'fragmenstein_placed'}

>  <ref_pdb>  (897) 
1

>  <scratch_subdir>  (897) 
/opt/xchem-fragalysis-2/maxwin/BulkDock/SCRATCH/511027/C104164-P149

>  <alias>  (897) 
Cc1cc([C@@H](C(=O)c2ccc3c(c2)CNC3)c2ccccc2)c2ccccc2c1CO

>  <HIPPO Compound ID>  (897) 
104164

>  <fragmenstein_runtime>  (897) 
4.244844

$$$$
Cc1c(C(=O)[C@H](C#N)c2cncc3c(C(=O)NC(C)(C)CO)cc(Cl)cc23)ccc2c1CNC2
     RDKit          3D

 34 37  0  0  0  0  0  0  0  0999 V2000
   -4.3216    8.6461  -18.8525 C   0  0  0  0  0  0  0  0  0  0  0  0
   -4.8607    8.5137  -20.2458 C   0  0  0  0  0  0  0  0  0  0  0  0
   -4.9781    7.2669  -20.9016 C   0  0  0  0  0  0  0  0  0  0  0  0
   -4.3035    6.0649  -20.3689 C   0  0  0  0  0  0  0  0  0  0  0  0
   -3.0939    5.9776  -20.6266 O   0  0  0  0  0  0  0  0  0  0  0  0
   -4.9931    5.0131  -19.5275 C   0  0  2  0  0  0  0  0  0  0  0  0
   -6.0303    4.2196  -20.1898 C   0  0  0  0  0  0  0  0  0  0  0  0
   -6.7804    3.4450  -20.6289 N   0  0  0  0  0  0  0  0  0  0  0  0
   -5.1424    5.2883  -18.0392 C   0  0  0  0  0  0  0  0  0  0  0  0
   -3.9516    5.6032  -17.3730 C   0  0  0  0  0  0  0  0  0  0  0  0
   -3.8365    5.7579  -16.0507 N   0  0  0  0  0  0  0  0  0  0  0  0
   -4.9501    5.5521  -15.3198 C   0  0  0  0  0  0  0  0  0  0  0  0
   -6.2027    5.2006  -15.8363 C   0  0  0  0  0  0  0  0  0  0  0  0
   -7.3321    4.9516  -15.0113 C   0  0  0  0  0  0  0  0  0  0  0  0
   -7.2743    5.2786  -13.5627 C   0  0  0  0  0  0  0  0  0  0  0  0
   -6.9975    6.3664  -13.2572 O   0  0  0  0  0  0  0  0  0  0  0  0
   -7.5801    4.0510  -12.6980 N   0  0  0  0  0  0  0  0  0  0  0  0
   -7.5173    3.8699  -11.2447 C   0  0  0  0  0  0  0  0  0  0  0  0
   -8.3891    2.6703  -10.8654 C   0  0  0  0  0  0  0  0  0  0  0  0
   -6.0589    3.5662  -10.8638 C   0  0  0  0  0  0  0  0  0  0  0  0
   -7.9902    5.1571  -10.5141 C   0  0  0  0  0  0  0  0  0  0  0  0
   -8.2364    4.9944   -9.1191 O   0  0  0  0  0  0  0  0  0  0  0  0
   -8.5453    4.5123  -15.5437 C   0  0  0  0  0  0  0  0  0  0  0  0
   -8.6575    4.4123  -16.9169 C   0  0  0  0  0  0  0  0  0  0  0  0
  -10.1364    4.0050  -17.6771 Cl  0  0  0  0  0  0  0  0  0  0  0  0
   -7.5851    4.7423  -17.7410 C   0  0  0  0  0  0  0  0  0  0  0  0
   -6.3090    5.0803  -17.2420 C   0  0  0  0  0  0  0  0  0  0  0  0
   -5.4155    7.1927  -22.2407 C   0  0  0  0  0  0  0  0  0  0  0  0
   -5.7458    8.3476  -22.9527 C   0  0  0  0  0  0  0  0  0  0  0  0
   -5.6336    9.5647  -22.3065 C   0  0  0  0  0  0  0  0  0  0  0  0
   -5.2219    9.6486  -20.9743 C   0  0  0  0  0  0  0  0  0  0  0  0
   -5.1538   11.0959  -20.5921 C   0  0  0  0  0  0  0  0  0  0  0  0
   -5.8494   11.8311  -21.6746 N   0  0  0  0  0  0  0  0  0  0  0  0
   -5.8181   10.9404  -22.8570 C   0  0  0  0  0  0  0  0  0  0  0  0
  1  2  1  0
  2  3  2  0
  3  4  1  0
  4  5  2  0
  4  6  1  0
  6  7  1  6
  7  8  3  0
  6  9  1  0
  9 10  2  0
 10 11  1  0
 11 12  2  0
 12 13  1  0
 13 14  2  0
 14 15  1  0
 15 16  2  0
 15 17  1  0
 17 18  1  0
 18 19  1  0
 18 20  1  0
 18 21  1  0
 21 22  1  0
 14 23  1  0
 23 24  2  0
 24 25  1  0
 24 26  1  0
 26 27  2  0
  3 28  1  0
 28 29  2  0
 29 30  1  0
 30 31  2  0
 31 32  1  0
 32 33  1  0
 33 34  1  0
 31  2  1  0
 27  9  1  0
 34 30  1  0
 27 13  1  0
M  END
>  <smiles>  (898) 
C104170-P149

>  <fragmenstein_outcome>  (898) 
acceptable

>  <inchikey>  (898) 
KMBCBITYVHYWPU-UHFFFAOYSA-N

>  <fragmenstein_mode>  (898) 
expansion

>  <HIPPO Pose ID>  (898) 
18905

>  <Energy>  (898) 
137.464873

>  <fragmenstein_error>  (898) 


>  <tags>  (898) 
{'openbind_xx01zvns2b_c1_fragmenstein', 'fragmenstein_placed'}

>  <ref_pdb>  (898) 
1

>  <scratch_subdir>  (898) 
/opt/xchem-fragalysis-2/maxwin/BulkDock/SCRATCH/511027/C104170-P149

>  <alias>  (898) 
Cc1c(C(=O)[C@H](C#N)c2cncc3c(C(=O)NC(C)(C)CO)cc(Cl)cc23)ccc2c1CNC2

>  <HIPPO Compound ID>  (898) 
89458

>  <fragmenstein_runtime>  (898) 
5.969702

$$$$
Cc1cc(C2(C#N)Nc3cc4c(cc3N2)CNC4)c2cc(Cl)ccc2c1
     RDKit          3D

 26 30  0  0  0  0  0  0  0  0999 V2000
  -10.4494    4.3425  -17.7925 C   0  0  0  0  0  0  0  0  0  0  0  0
   -9.0767    4.3709  -17.1904 C   0  0  0  0  0  0  0  0  0  0  0  0
   -8.8179    4.4433  -15.8134 C   0  0  0  0  0  0  0  0  0  0  0  0
   -7.5111    4.6481  -15.2876 C   0  0  0  0  0  0  0  0  0  0  0  0
   -7.2881    4.4414  -13.7425 C   0  0  0  0  0  0  0  0  0  0  0  0
   -5.8311    4.1690  -13.3915 C   0  0  0  0  0  0  0  0  0  0  0  0
   -4.7199    4.0232  -13.0667 N   0  0  0  0  0  0  0  0  0  0  0  0
   -8.0712    3.2610  -13.2619 N   0  0  0  0  0  0  0  0  0  0  0  0
   -8.2878    3.5916  -11.9019 C   0  0  0  0  0  0  0  0  0  0  0  0
   -8.7083    2.7201  -10.9241 C   0  0  0  0  0  0  0  0  0  0  0  0
   -8.7239    3.2089   -9.6376 C   0  0  0  0  0  0  0  0  0  0  0  0
   -8.3756    4.5353   -9.3552 C   0  0  0  0  0  0  0  0  0  0  0  0
   -8.0814    5.4524  -10.3711 C   0  0  0  0  0  0  0  0  0  0  0  0
   -8.0256    4.9436  -11.6598 C   0  0  0  0  0  0  0  0  0  0  0  0
   -7.7542    5.6142  -12.9101 N   0  0  0  0  0  0  0  0  0  0  0  0
   -8.3991    4.7095   -7.8707 C   0  0  0  0  0  0  0  0  0  0  0  0
   -8.6148    3.3629   -7.2821 N   0  0  0  0  0  0  0  0  0  0  0  0
   -9.1009    2.4944   -8.3862 C   0  0  0  0  0  0  0  0  0  0  0  0
   -6.4610    4.9344  -16.2550 C   0  0  0  0  0  0  0  0  0  0  0  0
   -5.1337    5.3748  -16.0047 C   0  0  0  0  0  0  0  0  0  0  0  0
   -4.1822    5.5146  -17.0266 C   0  0  0  0  0  0  0  0  0  0  0  0
   -2.5667    5.9515  -16.6544 Cl  0  0  0  0  0  0  0  0  0  0  0  0
   -4.5092    5.2968  -18.3493 C   0  0  0  0  0  0  0  0  0  0  0  0
   -5.8030    4.9419  -18.6564 C   0  0  0  0  0  0  0  0  0  0  0  0
   -6.7520    4.7693  -17.6436 C   0  0  0  0  0  0  0  0  0  0  0  0
   -8.0201    4.4488  -18.0780 C   0  0  0  0  0  0  0  0  0  0  0  0
  1  2  1  0
  2  3  2  0
  3  4  1  0
  4  5  1  0
  5  6  1  0
  6  7  3  0
  5  8  1  0
  8  9  1  0
  9 10  2  0
 10 11  1  0
 11 12  2  0
 12 13  1  0
 13 14  2  0
 14 15  1  0
 12 16  1  0
 16 17  1  0
 17 18  1  0
  4 19  2  0
 19 20  1  0
 20 21  2  0
 21 22  1  0
 21 23  1  0
 23 24  2  0
 24 25  1  0
 25 26  2  0
 26  2  1  0
 15  5  1  0
 25 19  1  0
 14  9  1  0
 18 11  1  0
M  END
>  <smiles>  (899) 
C104202-P149

>  <fragmenstein_outcome>  (899) 
acceptable

>  <inchikey>  (899) 
SKDMGWFITUXDEH-UHFFFAOYSA-N

>  <fragmenstein_mode>  (899) 
expansion

>  <HIPPO Pose ID>  (899) 
18908

>  <Energy>  (899) 
111.489068

>  <fragmenstein_error>  (899) 


>  <tags>  (899) 
{'openbind_xx01zvns2b_c1_fragmenstein', 'fragmenstein_placed'}

>  <ref_pdb>  (899) 
1

>  <scratch_subdir>  (899) 
/opt/xchem-fragalysis-2/maxwin/BulkDock/SCRATCH/511027/C104202-P149

>  <alias>  (899) 
Cc1cc(C2(C#N)Nc3cc4c(cc3N2)CNC4)c2cc(Cl)ccc2c1

>  <HIPPO Compound ID>  (899) 
96880

>  <fragmenstein_runtime>  (899) 
7.816499

$$$$
N#C[C@@H](C(=O)c1ccc2c(c1)CNC2)c1cncc2ccccc12
     RDKit          3D

 24 27  0  0  0  0  0  0  0  0999 V2000
   -5.7585    6.8158  -13.0751 N   0  0  0  0  0  0  0  0  0  0  0  0
   -6.3622    5.8785  -13.4051 C   0  0  0  0  0  0  0  0  0  0  0  0
   -7.1236    4.6732  -13.7975 C   0  0  1  0  0  0  0  0  0  0  0  0
   -8.4040    4.7745  -12.9730 C   0  0  0  0  0  0  0  0  0  0  0  0
   -9.4574    5.2391  -13.4105 O   0  0  0  0  0  0  0  0  0  0  0  0
   -8.3282    4.4872  -11.5190 C   0  0  0  0  0  0  0  0  0  0  0  0
   -8.1574    5.5905  -10.6563 C   0  0  0  0  0  0  0  0  0  0  0  0
   -8.2162    5.4268   -9.2732 C   0  0  0  0  0  0  0  0  0  0  0  0
   -8.4887    4.1637   -8.7848 C   0  0  0  0  0  0  0  0  0  0  0  0
   -8.6460    3.0686   -9.6367 C   0  0  0  0  0  0  0  0  0  0  0  0
   -8.5538    3.2028  -11.0156 C   0  0  0  0  0  0  0  0  0  0  0  0
   -8.9586    1.8642   -8.8047 C   0  0  0  0  0  0  0  0  0  0  0  0
   -9.3645    2.4040   -7.4797 N   0  0  0  0  0  0  0  0  0  0  0  0
   -8.7134    3.7257   -7.3751 C   0  0  0  0  0  0  0  0  0  0  0  0
   -7.3263    4.5693  -15.3209 C   0  0  0  0  0  0  0  0  0  0  0  0
   -8.5502    4.1290  -15.8400 C   0  0  0  0  0  0  0  0  0  0  0  0
   -8.8501    4.0009  -17.1481 N   0  0  0  0  0  0  0  0  0  0  0  0
   -7.8909    4.3505  -18.0234 C   0  0  0  0  0  0  0  0  0  0  0  0
   -6.6119    4.7566  -17.6576 C   0  0  0  0  0  0  0  0  0  0  0  0
   -5.6533    5.0515  -18.6440 C   0  0  0  0  0  0  0  0  0  0  0  0
   -4.3482    5.3889  -18.2969 C   0  0  0  0  0  0  0  0  0  0  0  0
   -3.9910    5.4201  -16.9606 C   0  0  0  0  0  0  0  0  0  0  0  0
   -4.9412    5.1391  -15.9729 C   0  0  0  0  0  0  0  0  0  0  0  0
   -6.2931    4.8314  -16.2784 C   0  0  0  0  0  0  0  0  0  0  0  0
  1  2  3  0
  3  2  1  6
  3  4  1  0
  4  5  2  0
  4  6  1  0
  6  7  2  0
  7  8  1  0
  8  9  2  0
  9 10  1  0
 10 11  2  0
 10 12  1  0
 12 13  1  0
 13 14  1  0
  3 15  1  0
 15 16  2  0
 16 17  1  0
 17 18  2  0
 18 19  1  0
 19 20  2  0
 20 21  1  0
 21 22  2  0
 22 23  1  0
 23 24  2  0
 11  6  1  0
 24 15  1  0
 14  9  1  0
 24 19  1  0
M  END
>  <smiles>  (900) 
C104206-P149

>  <fragmenstein_outcome>  (900) 
acceptable

>  <inchikey>  (900) 
GOKCUZWOIOZNNX-UHFFFAOYSA-N

>  <fragmenstein_mode>  (900) 
expansion

>  <HIPPO Pose ID>  (900) 
18909

>  <Energy>  (900) 
98.023873

>  <fragmenstein_error>  (900) 


>  <tags>  (900) 
{'openbind_xx01zvns2b_c1_fragmenstein', 'fragmenstein_placed'}

>  <ref_pdb>  (900) 
1

>  <scratch_subdir>  (900) 
/opt/xchem-fragalysis-2/maxwin/BulkDock/SCRATCH/511027/C104206-P149

>  <alias>  (900) 
N#C[C@@H](C(=O)c1ccc2c(c1)CNC2)c1cncc2ccccc12

>  <HIPPO Compound ID>  (900) 
104206

>  <fragmenstein_runtime>  (900) 
2.370409

$$$$
N#C[C@@H](C(=O)c1ccc2c(c1)CNC2)c1cncc2c(CCN)cccc12
     RDKit          3D

 27 30  0  0  0  0  0  0  0  0999 V2000
   -5.6446    6.7534  -12.7494 N   0  0  0  0  0  0  0  0  0  0  0  0
   -6.2703    5.8452  -13.1174 C   0  0  0  0  0  0  0  0  0  0  0  0
   -7.0650    4.6739  -13.5551 C   0  0  1  0  0  0  0  0  0  0  0  0
   -8.3740    4.8364  -12.7891 C   0  0  0  0  0  0  0  0  0  0  0  0
   -9.3983    5.3066  -13.2823 O   0  0  0  0  0  0  0  0  0  0  0  0
   -8.3464    4.5923  -11.3234 C   0  0  0  0  0  0  0  0  0  0  0  0
   -8.1603    5.7030  -10.4732 C   0  0  0  0  0  0  0  0  0  0  0  0
   -8.1920    5.5479   -9.0872 C   0  0  0  0  0  0  0  0  0  0  0  0
   -8.4439    4.2855   -8.5811 C   0  0  0  0  0  0  0  0  0  0  0  0
   -8.6366    3.1918   -9.4216 C   0  0  0  0  0  0  0  0  0  0  0  0
   -8.5789    3.3174  -10.8036 C   0  0  0  0  0  0  0  0  0  0  0  0
   -8.9662    1.9904   -8.5990 C   0  0  0  0  0  0  0  0  0  0  0  0
   -8.8744    2.4134   -7.1767 N   0  0  0  0  0  0  0  0  0  0  0  0
   -8.6327    3.8692   -7.1626 C   0  0  0  0  0  0  0  0  0  0  0  0
   -7.1862    4.5995  -15.0873 C   0  0  0  0  0  0  0  0  0  0  0  0
   -8.3925    4.2402  -15.6913 C   0  0  0  0  0  0  0  0  0  0  0  0
   -8.6103    4.2123  -17.0175 N   0  0  0  0  0  0  0  0  0  0  0  0
   -7.5888    4.6002  -17.8071 C   0  0  0  0  0  0  0  0  0  0  0  0
   -6.3033    4.9419  -17.3601 C   0  0  0  0  0  0  0  0  0  0  0  0
   -5.2426    5.3521  -18.2338 C   0  0  0  0  0  0  0  0  0  0  0  0
   -5.5402    5.6447  -19.6911 C   0  0  0  0  0  0  0  0  0  0  0  0
   -4.4616    6.3685  -20.5135 C   0  0  0  0  0  0  0  0  0  0  0  0
   -4.9197    6.6388  -21.8813 N   0  0  0  0  0  0  0  0  0  0  0  0
   -3.9455    5.5084  -17.7305 C   0  0  0  0  0  0  0  0  0  0  0  0
   -3.6984    5.3113  -16.3872 C   0  0  0  0  0  0  0  0  0  0  0  0
   -4.7456    5.0013  -15.5246 C   0  0  0  0  0  0  0  0  0  0  0  0
   -6.0823    4.8516  -15.9641 C   0  0  0  0  0  0  0  0  0  0  0  0
  1  2  3  0
  3  2  1  6
  3  4  1  0
  4  5  2  0
  4  6  1  0
  6  7  2  0
  7  8  1  0
  8  9  2  0
  9 10  1  0
 10 11  2  0
 10 12  1  0
 12 13  1  0
 13 14  1  0
  3 15  1  0
 15 16  2  0
 16 17  1  0
 17 18  2  0
 18 19  1  0
 19 20  2  0
 20 21  1  0
 21 22  1  0
 22 23  1  0
 20 24  1  0
 24 25  2  0
 25 26  1  0
 26 27  2  0
 11  6  1  0
 27 15  1  0
 14  9  1  0
 27 19  1  0
M  END
>  <smiles>  (901) 
C104221-P149

>  <fragmenstein_outcome>  (901) 
acceptable

>  <inchikey>  (901) 
NIRGQXTWEWLQKT-UHFFFAOYSA-N

>  <fragmenstein_mode>  (901) 
expansion

>  <HIPPO Pose ID>  (901) 
18914

>  <Energy>  (901) 
117.004543

>  <fragmenstein_error>  (901) 


>  <tags>  (901) 
{'openbind_xx01zvns2b_c1_fragmenstein', 'fragmenstein_placed'}

>  <ref_pdb>  (901) 
1

>  <scratch_subdir>  (901) 
/opt/xchem-fragalysis-2/maxwin/BulkDock/SCRATCH/511027/C104221-P149

>  <alias>  (901) 
N#C[C@@H](C(=O)c1ccc2c(c1)CNC2)c1cncc2c(CCN)cccc12

>  <HIPPO Compound ID>  (901) 
77186

>  <fragmenstein_runtime>  (901) 
2.660587

$$$$
COc1c(C2(C#N)Nc3cc4c(cc3N2)CNC4)c2ccccc2c(=O)n1C
     RDKit          3D

 28 32  0  0  0  0  0  0  0  0999 V2000
   -9.4562    6.0834  -13.9676 C   0  0  0  0  0  0  0  0  0  0  0  0
   -9.3723    4.7803  -14.5515 O   0  0  0  0  0  0  0  0  0  0  0  0
   -8.2312    4.6931  -15.3299 C   0  0  0  0  0  0  0  0  0  0  0  0
   -7.0006    4.7695  -14.7644 C   0  0  0  0  0  0  0  0  0  0  0  0
   -6.7580    4.3693  -13.2655 C   0  0  0  0  0  0  0  0  0  0  0  0
   -5.3648    3.8108  -13.0870 C   0  0  0  0  0  0  0  0  0  0  0  0
   -4.2616    3.4669  -12.9243 N   0  0  0  0  0  0  0  0  0  0  0  0
   -7.7406    3.3138  -12.8874 N   0  0  0  0  0  0  0  0  0  0  0  0
   -7.9697    3.5790  -11.5245 C   0  0  0  0  0  0  0  0  0  0  0  0
   -8.6420    2.7485  -10.6564 C   0  0  0  0  0  0  0  0  0  0  0  0
   -8.6980    3.1623   -9.3449 C   0  0  0  0  0  0  0  0  0  0  0  0
   -8.1790    4.4002   -8.9435 C   0  0  0  0  0  0  0  0  0  0  0  0
   -7.5955    5.2857   -9.8502 C   0  0  0  0  0  0  0  0  0  0  0  0
   -7.4601    4.8269  -11.1493 C   0  0  0  0  0  0  0  0  0  0  0  0
   -6.8634    5.4987  -12.2732 N   0  0  0  0  0  0  0  0  0  0  0  0
   -8.3582    4.5182   -7.4660 C   0  0  0  0  0  0  0  0  0  0  0  0
   -8.7439    3.1691   -6.9822 N   0  0  0  0  0  0  0  0  0  0  0  0
   -9.2581    2.4364   -8.1708 C   0  0  0  0  0  0  0  0  0  0  0  0
   -5.8970    5.0705  -15.7258 C   0  0  0  0  0  0  0  0  0  0  0  0
   -4.6726    5.6296  -15.3419 C   0  0  0  0  0  0  0  0  0  0  0  0
   -3.6501    5.8600  -16.2738 C   0  0  0  0  0  0  0  0  0  0  0  0
   -3.8364    5.5834  -17.6217 C   0  0  0  0  0  0  0  0  0  0  0  0
   -5.0650    5.0978  -18.0439 C   0  0  0  0  0  0  0  0  0  0  0  0
   -6.0790    4.8547  -17.1037 C   0  0  0  0  0  0  0  0  0  0  0  0
   -7.3863    4.4053  -17.6016 C   0  0  0  0  0  0  0  0  0  0  0  0
   -7.5097    4.0312  -18.7627 O   0  0  0  0  0  0  0  0  0  0  0  0
   -8.4313    4.4760  -16.6885 N   0  0  0  0  0  0  0  0  0  0  0  0
   -9.7082    4.0576  -17.2285 C   0  0  0  0  0  0  0  0  0  0  0  0
  1  2  1  0
  2  3  1  0
  3  4  2  0
  4  5  1  0
  5  6  1  0
  6  7  3  0
  5  8  1  0
  8  9  1  0
  9 10  2  0
 10 11  1  0
 11 12  2  0
 12 13  1  0
 13 14  2  0
 14 15  1  0
 12 16  1  0
 16 17  1  0
 17 18  1  0
  4 19  1  0
 19 20  2  0
 20 21  1  0
 21 22  2  0
 22 23  1  0
 23 24  2  0
 24 25  1  0
 25 26  2  0
 25 27  1  0
 27 28  1  0
 27  3  1  0
 15  5  1  0
 24 19  1  0
 14  9  1  0
 18 11  1  0
M  END
>  <smiles>  (902) 
C104244-P149

>  <fragmenstein_outcome>  (902) 
acceptable

>  <inchikey>  (902) 
VTWWIBBZVLTSCH-UHFFFAOYSA-N

>  <fragmenstein_mode>  (902) 
expansion

>  <HIPPO Pose ID>  (902) 
18921

>  <Energy>  (902) 
95.114666

>  <fragmenstein_error>  (902) 


>  <tags>  (902) 
{'openbind_xx01zvns2b_c1_fragmenstein', 'fragmenstein_placed'}

>  <ref_pdb>  (902) 
1

>  <scratch_subdir>  (902) 
/opt/xchem-fragalysis-2/maxwin/BulkDock/SCRATCH/511027/C104244-P149

>  <alias>  (902) 
COc1c(C2(C#N)Nc3cc4c(cc3N2)CNC4)c2ccccc2c(=O)n1C

>  <HIPPO Compound ID>  (902) 
104244

>  <fragmenstein_runtime>  (902) 
2.980488

$$$$
N#C[C@](Nc1ccc2c(c1)CNC2)(C(=O)NCC(F)F)c1cc(OCF)c(F)c2ccccc12
     RDKit          3D

 34 37  0  0  0  0  0  0  0  0999 V2000
   -7.1082    7.6799  -13.1675 N   0  0  0  0  0  0  0  0  0  0  0  0
   -7.0597    6.5263  -13.3160 C   0  0  0  0  0  0  0  0  0  0  0  0
   -6.9577    5.0520  -13.4908 C   0  0  2  0  0  0  0  0  0  0  0  0
   -8.0524    4.2877  -12.7848 N   0  0  0  0  0  0  0  0  0  0  0  0
   -8.2001    4.2657  -11.3899 C   0  0  0  0  0  0  0  0  0  0  0  0
   -8.2259    5.4228  -10.5885 C   0  0  0  0  0  0  0  0  0  0  0  0
   -8.3592    5.3556   -9.1945 C   0  0  0  0  0  0  0  0  0  0  0  0
   -8.5522    4.1198   -8.6115 C   0  0  0  0  0  0  0  0  0  0  0  0
   -8.6245    2.9786   -9.3902 C   0  0  0  0  0  0  0  0  0  0  0  0
   -8.4480    3.0321  -10.7646 C   0  0  0  0  0  0  0  0  0  0  0  0
   -8.9336    1.8005   -8.5323 C   0  0  0  0  0  0  0  0  0  0  0  0
   -9.0206    2.3093   -7.1364 N   0  0  0  0  0  0  0  0  0  0  0  0
   -8.7686    3.7645   -7.1822 C   0  0  0  0  0  0  0  0  0  0  0  0
   -5.5405    4.4932  -12.9190 C   0  0  0  0  0  0  0  0  0  0  0  0
   -4.9831    3.6335  -13.4830 O   0  0  0  0  0  0  0  0  0  0  0  0
   -5.1758    5.2351  -11.5970 N   0  0  0  0  0  0  0  0  0  0  0  0
   -4.0033    5.1328  -10.7555 C   0  0  0  0  0  0  0  0  0  0  0  0
   -2.7186    4.7739  -11.4981 C   0  0  0  0  0  0  0  0  0  0  0  0
   -2.4305    5.7458  -12.4069 F   0  0  0  0  0  0  0  0  0  0  0  0
   -1.6815    4.7602  -10.6191 F   0  0  0  0  0  0  0  0  0  0  0  0
   -7.1143    4.8073  -15.0446 C   0  0  0  0  0  0  0  0  0  0  0  0
   -8.3443    4.3060  -15.5336 C   0  0  0  0  0  0  0  0  0  0  0  0
   -8.5432    4.0785  -16.8889 C   0  0  0  0  0  0  0  0  0  0  0  0
   -9.6997    3.4834  -17.2805 O   0  0  0  0  0  0  0  0  0  0  0  0
  -10.5394    4.3940  -17.9697 C   0  0  0  0  0  0  0  0  0  0  0  0
  -11.7303    3.7686  -18.1224 F   0  0  0  0  0  0  0  0  0  0  0  0
   -7.5421    4.3400  -17.8031 C   0  0  0  0  0  0  0  0  0  0  0  0
   -7.7580    4.0420  -19.0943 F   0  0  0  0  0  0  0  0  0  0  0  0
   -6.3256    4.8762  -17.3922 C   0  0  0  0  0  0  0  0  0  0  0  0
   -5.3424    5.1360  -18.3622 C   0  0  0  0  0  0  0  0  0  0  0  0
   -4.1046    5.6560  -18.0077 C   0  0  0  0  0  0  0  0  0  0  0  0
   -3.8560    5.9504  -16.6799 C   0  0  0  0  0  0  0  0  0  0  0  0
   -4.8320    5.7124  -15.7051 C   0  0  0  0  0  0  0  0  0  0  0  0
   -6.0902    5.1374  -16.0089 C   0  0  0  0  0  0  0  0  0  0  0  0
  1  2  3  0
  3  2  1  6
  3  4  1  0
  4  5  1  0
  5  6  2  0
  6  7  1  0
  7  8  2  0
  8  9  1  0
  9 10  2  0
  9 11  1  0
 11 12  1  0
 12 13  1  0
  3 14  1  0
 14 15  2  0
 14 16  1  0
 16 17  1  0
 17 18  1  0
 18 19  1  0
 18 20  1  0
  3 21  1  0
 21 22  2  0
 22 23  1  0
 23 24  1  0
 24 25  1  0
 25 26  1  0
 23 27  2  0
 27 28  1  0
 27 29  1  0
 29 30  2  0
 30 31  1  0
 31 32  2  0
 32 33  1  0
 33 34  2  0
 10  5  1  0
 34 21  1  0
 13  8  1  0
 34 29  1  0
M  END
>  <smiles>  (903) 
C104247-P149

>  <fragmenstein_outcome>  (903) 
acceptable

>  <inchikey>  (903) 
SUNGCYDMHSJMKM-UHFFFAOYSA-N

>  <fragmenstein_mode>  (903) 
expansion

>  <HIPPO Pose ID>  (903) 
18924

>  <Energy>  (903) 
218.618636

>  <fragmenstein_error>  (903) 


>  <tags>  (903) 
{'openbind_xx01zvns2b_c1_fragmenstein', 'fragmenstein_placed'}

>  <ref_pdb>  (903) 
1

>  <scratch_subdir>  (903) 
/opt/xchem-fragalysis-2/maxwin/BulkDock/SCRATCH/511027/C104247-P149

>  <alias>  (903) 
N#C[C@](Nc1ccc2c(c1)CNC2)(C(=O)NCC(F)F)c1cc(OCF)c(F)c2ccccc12

>  <HIPPO Compound ID>  (903) 
74617

>  <fragmenstein_runtime>  (903) 
6.420335

$$$$
CN1CC(CCc2cccc3c(C4(C#N)Nc5cc6c(cc5N4)CNC6)cncc23)C1
     RDKit          3D

 31 36  0  0  0  0  0  0  0  0999 V2000
   -3.3955    7.6849  -23.9723 C   0  0  0  0  0  0  0  0  0  0  0  0
   -3.3806    7.9531  -22.5384 N   0  0  0  0  0  0  0  0  0  0  0  0
   -4.5122    7.2607  -21.8709 C   0  0  0  0  0  0  0  0  0  0  0  0
   -3.5229    6.8577  -20.7498 C   0  0  0  0  0  0  0  0  0  0  0  0
   -3.6689    5.4659  -20.1496 C   0  0  0  0  0  0  0  0  0  0  0  0
   -5.0476    5.3098  -19.4843 C   0  0  0  0  0  0  0  0  0  0  0  0
   -5.1416    5.6930  -18.0194 C   0  0  0  0  0  0  0  0  0  0  0  0
   -4.0954    6.4003  -17.4094 C   0  0  0  0  0  0  0  0  0  0  0  0
   -4.1556    6.7369  -16.0739 C   0  0  0  0  0  0  0  0  0  0  0  0
   -5.2272    6.3119  -15.3054 C   0  0  0  0  0  0  0  0  0  0  0  0
   -6.2671    5.5232  -15.8366 C   0  0  0  0  0  0  0  0  0  0  0  0
   -7.2662    4.9248  -15.0200 C   0  0  0  0  0  0  0  0  0  0  0  0
   -7.0700    4.6601  -13.5120 C   0  0  0  0  0  0  0  0  0  0  0  0
   -5.6100    4.3246  -13.2118 C   0  0  0  0  0  0  0  0  0  0  0  0
   -4.4993    4.0625  -12.9739 N   0  0  0  0  0  0  0  0  0  0  0  0
   -7.8903    3.4845  -13.1357 N   0  0  0  0  0  0  0  0  0  0  0  0
   -8.1525    3.7325  -11.7731 C   0  0  0  0  0  0  0  0  0  0  0  0
   -8.6006    2.8094  -10.8569 C   0  0  0  0  0  0  0  0  0  0  0  0
   -8.6722    3.2406   -9.5510 C   0  0  0  0  0  0  0  0  0  0  0  0
   -8.3478    4.5565   -9.1924 C   0  0  0  0  0  0  0  0  0  0  0  0
   -8.0082    5.5196  -10.1462 C   0  0  0  0  0  0  0  0  0  0  0  0
   -7.8812    5.0654  -11.4468 C   0  0  0  0  0  0  0  0  0  0  0  0
   -7.5117    5.8047  -12.6348 N   0  0  0  0  0  0  0  0  0  0  0  0
   -8.4346    4.6621   -7.7037 C   0  0  0  0  0  0  0  0  0  0  0  0
   -8.6452    3.2859   -7.1877 N   0  0  0  0  0  0  0  0  0  0  0  0
   -9.0944    2.4696   -8.3467 C   0  0  0  0  0  0  0  0  0  0  0  0
   -8.3616    4.3682  -15.6848 C   0  0  0  0  0  0  0  0  0  0  0  0
   -8.4769    4.2611  -17.0242 N   0  0  0  0  0  0  0  0  0  0  0  0
   -7.4242    4.6838  -17.7590 C   0  0  0  0  0  0  0  0  0  0  0  0
   -6.2766    5.3045  -17.2379 C   0  0  0  0  0  0  0  0  0  0  0  0
   -2.4410    7.0388  -21.8429 C   0  0  0  0  0  0  0  0  0  0  0  0
  1  2  1  0
  2  3  1  0
  3  4  1  0
  4  5  1  0
  5  6  1  0
  6  7  1  0
  7  8  2  0
  8  9  1  0
  9 10  2  0
 10 11  1  0
 11 12  2  0
 12 13  1  0
 13 14  1  0
 14 15  3  0
 13 16  1  0
 16 17  1  0
 17 18  2  0
 18 19  1  0
 19 20  2  0
 20 21  1  0
 21 22  2  0
 22 23  1  0
 20 24  1  0
 24 25  1  0
 25 26  1  0
 12 27  1  0
 27 28  2  0
 28 29  1  0
 29 30  2  0
  4 31  1  0
 31  2  1  0
 30  7  1  0
 30 11  1  0
 23 13  1  0
 22 17  1  0
 26 19  1  0
M  END
>  <smiles>  (904) 
C104290-P149

>  <fragmenstein_outcome>  (904) 
acceptable

>  <inchikey>  (904) 
TYLOARDJZQFNGE-UHFFFAOYSA-N

>  <fragmenstein_mode>  (904) 
expansion

>  <HIPPO Pose ID>  (904) 
18939

>  <Energy>  (904) 
121.093152

>  <fragmenstein_error>  (904) 


>  <tags>  (904) 
{'openbind_xx01zvns2b_c1_fragmenstein', 'fragmenstein_placed'}

>  <ref_pdb>  (904) 
1

>  <scratch_subdir>  (904) 
/opt/xchem-fragalysis-2/maxwin/BulkDock/SCRATCH/511027/C104290-P149

>  <alias>  (904) 
CN1CC(CCc2cccc3c(C4(C#N)Nc5cc6c(cc5N4)CNC6)cncc23)C1

>  <HIPPO Compound ID>  (904) 
96539

>  <fragmenstein_runtime>  (904) 
7.870121

$$$$
N#CC1(c2cncc3c(NNC4CCNCC4)cccc23)Nc2cc3c(cc2N1)CNC3
     RDKit          3D

 32 37  0  0  0  0  0  0  0  0999 V2000
  -10.0029    6.5356  -13.6680 N   0  0  0  0  0  0  0  0  0  0  0  0
   -9.0933    5.8103  -13.6495 C   0  0  0  0  0  0  0  0  0  0  0  0
   -7.9638    4.8059  -13.6807 C   0  0  0  0  0  0  0  0  0  0  0  0
   -7.6052    4.6810  -15.1728 C   0  0  0  0  0  0  0  0  0  0  0  0
   -8.5654    4.0109  -15.9553 C   0  0  0  0  0  0  0  0  0  0  0  0
   -8.5689    3.8823  -17.2893 N   0  0  0  0  0  0  0  0  0  0  0  0
   -7.5810    4.5161  -17.9387 C   0  0  0  0  0  0  0  0  0  0  0  0
   -6.5887    5.2949  -17.3302 C   0  0  0  0  0  0  0  0  0  0  0  0
   -5.6631    6.0644  -18.0933 C   0  0  0  0  0  0  0  0  0  0  0  0
   -5.6942    6.0523  -19.5208 N   0  0  0  0  0  0  0  0  0  0  0  0
   -4.9572    7.0058  -20.2733 N   0  0  0  0  0  0  0  0  0  0  0  0
   -3.5613    6.5531  -20.5075 C   0  0  0  0  0  0  0  0  0  0  0  0
   -3.1768    6.7672  -21.9803 C   0  0  0  0  0  0  0  0  0  0  0  0
   -1.7571    6.2790  -22.2573 C   0  0  0  0  0  0  0  0  0  0  0  0
   -1.5969    4.8655  -21.8912 N   0  0  0  0  0  0  0  0  0  0  0  0
   -1.8651    4.6943  -20.4524 C   0  0  0  0  0  0  0  0  0  0  0  0
   -3.2546    5.1219  -20.0661 C   0  0  0  0  0  0  0  0  0  0  0  0
   -4.6497    6.7542  -17.4127 C   0  0  0  0  0  0  0  0  0  0  0  0
   -4.5749    6.7461  -16.0329 C   0  0  0  0  0  0  0  0  0  0  0  0
   -5.5350    6.0711  -15.2898 C   0  0  0  0  0  0  0  0  0  0  0  0
   -6.5717    5.3339  -15.8962 C   0  0  0  0  0  0  0  0  0  0  0  0
   -8.3685    3.4696  -13.1746 N   0  0  0  0  0  0  0  0  0  0  0  0
   -8.2932    3.6384  -11.7773 C   0  0  0  0  0  0  0  0  0  0  0  0
   -8.8293    2.8204  -10.8085 C   0  0  0  0  0  0  0  0  0  0  0  0
   -8.6095    3.2057   -9.5011 C   0  0  0  0  0  0  0  0  0  0  0  0
   -7.8471    4.3381   -9.1853 C   0  0  0  0  0  0  0  0  0  0  0  0
   -7.2263    5.1050  -10.1705 C   0  0  0  0  0  0  0  0  0  0  0  0
   -7.4839    4.7372  -11.4769 C   0  0  0  0  0  0  0  0  0  0  0  0
   -6.9117    5.2597  -12.7058 N   0  0  0  0  0  0  0  0  0  0  0  0
   -7.8134    4.4785   -7.6989 C   0  0  0  0  0  0  0  0  0  0  0  0
   -8.8263    3.5366   -7.1681 N   0  0  0  0  0  0  0  0  0  0  0  0
   -9.0597    2.5352   -8.2443 C   0  0  0  0  0  0  0  0  0  0  0  0
  1  2  3  0
  2  3  1  0
  3  4  1  0
  4  5  2  0
  5  6  1  0
  6  7  2  0
  7  8  1  0
  8  9  2  0
  9 10  1  0
 10 11  1  0
 11 12  1  0
 12 13  1  0
 13 14  1  0
 14 15  1  0
 15 16  1  0
 16 17  1  0
  9 18  1  0
 18 19  2  0
 19 20  1  0
 20 21  2  0
  3 22  1  0
 22 23  1  0
 23 24  2  0
 24 25  1  0
 25 26  2  0
 26 27  1  0
 27 28  2  0
 28 29  1  0
 26 30  1  0
 30 31  1  0
 31 32  1  0
 29  3  1  0
 21  4  1  0
 28 23  1  0
 21  8  1  0
 32 25  1  0
 17 12  1  0
M  END
>  <smiles>  (905) 
C104322-P149

>  <fragmenstein_outcome>  (905) 
acceptable

>  <inchikey>  (905) 
LBWKDEPFKNTUEO-UHFFFAOYSA-N

>  <fragmenstein_mode>  (905) 
expansion

>  <HIPPO Pose ID>  (905) 
18951

>  <Energy>  (905) 
133.994686

>  <fragmenstein_error>  (905) 


>  <tags>  (905) 
{'openbind_xx01zvns2b_c1_fragmenstein', 'fragmenstein_placed'}

>  <ref_pdb>  (905) 
1

>  <scratch_subdir>  (905) 
/opt/xchem-fragalysis-2/maxwin/BulkDock/SCRATCH/511027/C104322-P149

>  <alias>  (905) 
N#CC1(c2cncc3c(NNC4CCNCC4)cccc23)Nc2cc3c(cc2N1)CNC3

>  <HIPPO Compound ID>  (905) 
104322

>  <fragmenstein_runtime>  (905) 
7.289783

$$$$
Cc1cc2c(cc1NC(=O)c1cc(Cl)nc3c1CC[C@@]31NCCS1)CNC2
     RDKit          3D

 27 31  0  0  0  0  0  0  0  0999 V2000
   -7.8326    7.1222  -11.1397 C   0  0  0  0  0  0  0  0  0  0  0  0
   -8.0558    5.7724  -10.5183 C   0  0  0  0  0  0  0  0  0  0  0  0
   -8.1985    5.6840   -9.1210 C   0  0  0  0  0  0  0  0  0  0  0  0
   -8.4358    4.4471   -8.5448 C   0  0  0  0  0  0  0  0  0  0  0  0
   -8.5401    3.3054   -9.3226 C   0  0  0  0  0  0  0  0  0  0  0  0
   -8.3574    3.3535  -10.6924 C   0  0  0  0  0  0  0  0  0  0  0  0
   -8.1141    4.5924  -11.2963 C   0  0  0  0  0  0  0  0  0  0  0  0
   -7.9802    4.6518  -12.6836 N   0  0  0  0  0  0  0  0  0  0  0  0
   -7.5997    3.5575  -13.7005 C   0  0  0  0  0  0  0  0  0  0  0  0
   -7.4129    2.4169  -13.5490 O   0  0  0  0  0  0  0  0  0  0  0  0
   -7.5837    4.1181  -15.0639 C   0  0  0  0  0  0  0  0  0  0  0  0
   -8.7528    4.0417  -15.8159 C   0  0  0  0  0  0  0  0  0  0  0  0
   -8.6933    4.4092  -17.1464 C   0  0  0  0  0  0  0  0  0  0  0  0
  -10.0697    4.2616  -18.1529 Cl  0  0  0  0  0  0  0  0  0  0  0  0
   -7.5902    4.8856  -17.7562 N   0  0  0  0  0  0  0  0  0  0  0  0
   -6.4870    4.9642  -16.9878 C   0  0  0  0  0  0  0  0  0  0  0  0
   -6.4317    4.6015  -15.6490 C   0  0  0  0  0  0  0  0  0  0  0  0
   -5.0692    4.8122  -15.0845 C   0  0  0  0  0  0  0  0  0  0  0  0
   -4.2117    4.8821  -16.3590 C   0  0  0  0  0  0  0  0  0  0  0  0
   -5.1207    5.4109  -17.4902 C   0  0  1  0  0  0  0  0  0  0  0  0
   -4.7246    4.8313  -18.7785 N   0  0  0  0  0  0  0  0  0  0  0  0
   -5.1911    5.7440  -19.8263 C   0  0  0  0  0  0  0  0  0  0  0  0
   -4.7593    7.1495  -19.4394 C   0  0  0  0  0  0  0  0  0  0  0  0
   -5.0255    7.2271  -17.6512 S   0  0  0  0  0  0  0  0  0  0  0  0
   -8.9125    2.1435   -8.4671 C   0  0  0  0  0  0  0  0  0  0  0  0
   -8.7845    2.6204   -7.0601 N   0  0  0  0  0  0  0  0  0  0  0  0
   -8.6697    4.0926   -7.1171 C   0  0  0  0  0  0  0  0  0  0  0  0
  1  2  1  0
  2  3  2  0
  3  4  1  0
  4  5  2  0
  5  6  1  0
  6  7  2  0
  7  8  1  0
  8  9  1  0
  9 10  2  0
  9 11  1  0
 11 12  2  0
 12 13  1  0
 13 14  1  0
 13 15  2  0
 15 16  1  0
 16 17  2  0
 17 18  1  0
 18 19  1  0
 20 19  1  1
 20 21  1  0
 21 22  1  0
 22 23  1  0
 23 24  1  0
  5 25  1  0
 25 26  1  0
 26 27  1  0
  7  2  1  0
 17 11  1  0
 24 20  1  0
 27  4  1  0
 20 16  1  0
M  END
>  <smiles>  (906) 
C104592-P151

>  <fragmenstein_outcome>  (906) 
acceptable

>  <inchikey>  (906) 
LZQWVXHNWHTRNN-UHFFFAOYSA-N

>  <fragmenstein_mode>  (906) 
expansion

>  <HIPPO Pose ID>  (906) 
19043

>  <Energy>  (906) 
55.325614

>  <fragmenstein_error>  (906) 


>  <tags>  (906) 
{'openbind_xx01zvns2b_c1_fragmenstein', 'fragmenstein_placed'}

>  <ref_pdb>  (906) 
1

>  <scratch_subdir>  (906) 
/opt/xchem-fragalysis-2/maxwin/BulkDock/SCRATCH/511027/C104592-P151

>  <alias>  (906) 
Cc1cc2c(cc1NC(=O)c1cc(Cl)nc3c1CC[C@@]31NCCS1)CNC2

>  <HIPPO Compound ID>  (906) 
104592

>  <fragmenstein_runtime>  (906) 
3.807992

$$$$
CNc1cc2c(C(=O)Nc3cc(C)c4c(c3)CNC4)cc(Cl)[nH]c-2n1
     RDKit          3D

 25 28  0  0  0  0  0  0  0  0999 V2000
   -2.1033    5.7991  -16.0417 C   0  0  0  0  0  0  0  0  0  0  0  0
   -3.0247    5.3158  -17.0447 N   0  0  0  0  0  0  0  0  0  0  0  0
   -4.3618    5.0857  -16.8202 C   0  0  0  0  0  0  0  0  0  0  0  0
   -4.9109    4.6654  -15.6585 C   0  0  0  0  0  0  0  0  0  0  0  0
   -6.3070    4.5331  -15.9019 C   0  0  0  0  0  0  0  0  0  0  0  0
   -7.4068    4.1225  -15.2506 C   0  0  0  0  0  0  0  0  0  0  0  0
   -7.3270    3.5219  -13.8805 C   0  0  0  0  0  0  0  0  0  0  0  0
   -7.0875    2.3912  -13.7162 O   0  0  0  0  0  0  0  0  0  0  0  0
   -7.7093    4.6259  -12.8619 N   0  0  0  0  0  0  0  0  0  0  0  0
   -7.9596    4.5468  -11.4915 C   0  0  0  0  0  0  0  0  0  0  0  0
   -7.9727    5.7315  -10.7349 C   0  0  0  0  0  0  0  0  0  0  0  0
   -8.1684    5.7038   -9.3417 C   0  0  0  0  0  0  0  0  0  0  0  0
   -8.1479    6.9704   -8.5439 C   0  0  0  0  0  0  0  0  0  0  0  0
   -8.4359    4.4721   -8.7544 C   0  0  0  0  0  0  0  0  0  0  0  0
   -8.4812    3.3065   -9.5140 C   0  0  0  0  0  0  0  0  0  0  0  0
   -8.2128    3.3197  -10.8746 C   0  0  0  0  0  0  0  0  0  0  0  0
   -8.8356    2.1485   -8.6377 C   0  0  0  0  0  0  0  0  0  0  0  0
   -9.2220    2.7412   -7.3274 N   0  0  0  0  0  0  0  0  0  0  0  0
   -8.6816    4.1148   -7.3242 C   0  0  0  0  0  0  0  0  0  0  0  0
   -8.6986    4.0952  -15.9459 C   0  0  0  0  0  0  0  0  0  0  0  0
   -8.7640    4.4286  -17.2455 C   0  0  0  0  0  0  0  0  0  0  0  0
  -10.1959    4.3181  -18.1641 Cl  0  0  0  0  0  0  0  0  0  0  0  0
   -7.6753    4.8790  -17.9457 N   0  0  0  0  0  0  0  0  0  0  0  0
   -6.4504    4.9207  -17.3388 C   0  0  0  0  0  0  0  0  0  0  0  0
   -5.2925    5.2604  -17.8405 N   0  0  0  0  0  0  0  0  0  0  0  0
  1  2  1  0
  2  3  1  0
  3  4  2  0
  4  5  1  0
  5  6  2  0
  6  7  1  0
  7  8  2  0
  7  9  1  0
  9 10  1  0
 10 11  2  0
 11 12  1  0
 12 13  1  0
 12 14  2  0
 14 15  1  0
 15 16  2  0
 15 17  1  0
 17 18  1  0
 18 19  1  0
  6 20  1  0
 20 21  2  0
 21 22  1  0
 21 23  1  0
 23 24  1  0
 24 25  2  0
 25  3  1  0
 24  5  1  0
 16 10  1  0
 19 14  1  0
M  END
>  <smiles>  (907) 
C104600-P151

>  <fragmenstein_outcome>  (907) 
acceptable

>  <inchikey>  (907) 
UFJBKPZKYAZEIB-UHFFFAOYSA-N

>  <fragmenstein_mode>  (907) 
expansion

>  <HIPPO Pose ID>  (907) 
19047

>  <Energy>  (907) 
-27.564661

>  <fragmenstein_error>  (907) 


>  <tags>  (907) 
{'openbind_xx01zvns2b_c1_fragmenstein', 'fragmenstein_placed'}

>  <ref_pdb>  (907) 
1

>  <scratch_subdir>  (907) 
/opt/xchem-fragalysis-2/maxwin/BulkDock/SCRATCH/511027/C104600-P151

>  <alias>  (907) 
CNc1cc2c(C(=O)Nc3cc(C)c4c(c3)CNC4)cc(Cl)[nH]c-2n1

>  <HIPPO Compound ID>  (907) 
99240

>  <fragmenstein_runtime>  (907) 
4.427126

$$$$
CC[C@@H]1NN2[C@@H]3[C@H](CCN13)[C@@H](C(=O)Nc1cc3c(cc1C)CNC3)C[C@@H]2Cl
     RDKit          3D

 27 31  0  0  0  0  0  0  0  0999 V2000
   -5.6506    7.3790  -19.4638 C   0  0  0  0  0  0  0  0  0  0  0  0
   -5.2419    5.9950  -19.9381 C   0  0  0  0  0  0  0  0  0  0  0  0
   -5.7917    4.8037  -19.1513 C   0  0  2  0  0  0  0  0  0  0  0  0
   -7.2739    4.7127  -19.0990 N   0  0  0  0  0  0  0  0  0  0  0  0
   -7.6157    5.1265  -17.7770 N   0  0  0  0  0  0  0  0  0  0  0  0
   -8.8993    4.7237  -17.1842 C   0  0  1  0  0  0  0  0  0  0  0  0
   -9.5954    3.2575  -17.8226 Cl  0  0  0  0  0  0  0  0  0  0  0  0
   -8.8854    4.8063  -15.6086 C   0  0  0  0  0  0  0  0  0  0  0  0
   -7.4963    4.6924  -14.8805 C   0  0  2  0  0  0  0  0  0  0  0  0
   -7.5042    5.4191  -13.5418 C   0  0  0  0  0  0  0  0  0  0  0  0
   -6.9906    6.4568  -13.3727 O   0  0  0  0  0  0  0  0  0  0  0  0
   -8.2142    4.4667  -12.5316 N   0  0  0  0  0  0  0  0  0  0  0  0
   -8.3465    4.5527  -11.1399 C   0  0  0  0  0  0  0  0  0  0  0  0
   -8.6780    3.3294  -10.5287 C   0  0  0  0  0  0  0  0  0  0  0  0
   -8.7439    3.2498   -9.1514 C   0  0  0  0  0  0  0  0  0  0  0  0
   -8.4900    4.3554   -8.3632 C   0  0  0  0  0  0  0  0  0  0  0  0
   -8.1993    5.5792   -8.9343 C   0  0  0  0  0  0  0  0  0  0  0  0
   -8.1550    5.7024  -10.3406 C   0  0  0  0  0  0  0  0  0  0  0  0
   -7.9412    7.0889  -10.8721 C   0  0  0  0  0  0  0  0  0  0  0  0
   -8.6583    3.9909   -6.9306 C   0  0  0  0  0  0  0  0  0  0  0  0
   -8.8255    2.5226   -6.8936 N   0  0  0  0  0  0  0  0  0  0  0  0
   -9.0958    2.0876   -8.2909 C   0  0  0  0  0  0  0  0  0  0  0  0
   -6.4062    5.2777  -15.7712 C   0  0  1  0  0  0  0  0  0  0  0  0
   -4.9133    5.0992  -15.5483 C   0  0  0  0  0  0  0  0  0  0  0  0
   -4.3823    5.3014  -16.9954 C   0  0  0  0  0  0  0  0  0  0  0  0
   -5.3509    4.5819  -17.7879 N   0  0  0  0  0  0  0  0  0  0  0  0
   -6.5673    4.5090  -17.0341 C   0  0  2  0  0  0  0  0  0  0  0  0
  1  2  1  0
  3  2  1  1
  3  4  1  0
  4  5  1  0
  5  6  1  0
  6  7  1  1
  6  8  1  0
  8  9  1  0
  9 10  1  1
 10 11  2  0
 10 12  1  0
 12 13  1  0
 13 14  2  0
 14 15  1  0
 15 16  2  0
 16 17  1  0
 17 18  2  0
 18 19  1  0
 16 20  1  0
 20 21  1  0
 21 22  1  0
  9 23  1  0
 23 24  1  1
 24 25  1  0
 25 26  1  0
 27 26  1  6
 26  3  1  0
 27  5  1  0
 18 13  1  0
 27 23  1  0
 22 15  1  0
M  END
>  <smiles>  (908) 
C104603-P151

>  <fragmenstein_outcome>  (908) 
acceptable

>  <inchikey>  (908) 
GXWLWFAOOHCTOW-UHFFFAOYSA-N

>  <fragmenstein_mode>  (908) 
expansion

>  <HIPPO Pose ID>  (908) 
19050

>  <Energy>  (908) 
63.380185

>  <fragmenstein_error>  (908) 


>  <tags>  (908) 
{'openbind_xx01zvns2b_c1_fragmenstein', 'fragmenstein_placed'}

>  <ref_pdb>  (908) 
1

>  <scratch_subdir>  (908) 
/opt/xchem-fragalysis-2/maxwin/BulkDock/SCRATCH/511027/C104603-P151

>  <alias>  (908) 
CC[C@@H]1NN2[C@@H]3[C@H](CCN13)[C@@H](C(=O)Nc1cc3c(cc1C)CNC3)C[C@@H]2Cl

>  <HIPPO Compound ID>  (908) 
90225

>  <fragmenstein_runtime>  (908) 
4.291095

$$$$
Cc1cc2c(C(=O)Nc3ccc4c(c3)CNC4)c(Cl)c(Cl)nc2n1N
     RDKit          3D

 25 28  0  0  0  0  0  0  0  0999 V2000
   -2.3779    5.5541  -17.0787 C   0  0  0  0  0  0  0  0  0  0  0  0
   -3.7717    5.1499  -16.7830 C   0  0  0  0  0  0  0  0  0  0  0  0
   -4.3350    4.7320  -15.5889 C   0  0  0  0  0  0  0  0  0  0  0  0
   -5.7304    4.5978  -15.7940 C   0  0  0  0  0  0  0  0  0  0  0  0
   -6.8467    4.3098  -15.0085 C   0  0  0  0  0  0  0  0  0  0  0  0
   -6.7561    3.7693  -13.6335 C   0  0  0  0  0  0  0  0  0  0  0  0
   -6.3865    2.6694  -13.5023 O   0  0  0  0  0  0  0  0  0  0  0  0
   -7.2862    4.7808  -12.5887 N   0  0  0  0  0  0  0  0  0  0  0  0
   -7.5518    4.6231  -11.2301 C   0  0  0  0  0  0  0  0  0  0  0  0
   -7.6730    5.7709  -10.4297 C   0  0  0  0  0  0  0  0  0  0  0  0
   -8.0336    5.6673   -9.0817 C   0  0  0  0  0  0  0  0  0  0  0  0
   -8.3424    4.4157   -8.5801 C   0  0  0  0  0  0  0  0  0  0  0  0
   -8.2906    3.2866   -9.3886 C   0  0  0  0  0  0  0  0  0  0  0  0
   -7.8567    3.3627  -10.7046 C   0  0  0  0  0  0  0  0  0  0  0  0
   -8.7774    2.1024   -8.6175 C   0  0  0  0  0  0  0  0  0  0  0  0
   -9.2784    2.6397   -7.3198 N   0  0  0  0  0  0  0  0  0  0  0  0
   -8.7428    4.0090   -7.2030 C   0  0  0  0  0  0  0  0  0  0  0  0
   -8.1039    4.3732  -15.6125 C   0  0  0  0  0  0  0  0  0  0  0  0
   -9.4716    4.4530  -14.6070 Cl  0  0  0  0  0  0  0  0  0  0  0  0
   -8.1908    4.5149  -16.9903 C   0  0  0  0  0  0  0  0  0  0  0  0
   -9.6749    4.3129  -17.8566 Cl  0  0  0  0  0  0  0  0  0  0  0  0
   -7.1480    4.7858  -17.7975 N   0  0  0  0  0  0  0  0  0  0  0  0
   -5.9678    4.8476  -17.1453 C   0  0  0  0  0  0  0  0  0  0  0  0
   -4.7665    5.1633  -17.7276 N   0  0  0  0  0  0  0  0  0  0  0  0
   -4.6068    5.5164  -19.0956 N   0  0  0  0  0  0  0  0  0  0  0  0
  1  2  1  0
  2  3  2  0
  3  4  1  0
  4  5  2  0
  5  6  1  0
  6  7  2  0
  6  8  1  0
  8  9  1  0
  9 10  2  0
 10 11  1  0
 11 12  2  0
 12 13  1  0
 13 14  2  0
 13 15  1  0
 15 16  1  0
 16 17  1  0
  5 18  1  0
 18 19  1  0
 18 20  2  0
 20 21  1  0
 20 22  1  0
 22 23  2  0
 23 24  1  0
 24 25  1  0
 24  2  1  0
 23  4  1  0
 14  9  1  0
 17 12  1  0
M  END
>  <smiles>  (909) 
C104605-P151

>  <fragmenstein_outcome>  (909) 
acceptable

>  <inchikey>  (909) 
MDQXBYPKYXMBRK-UHFFFAOYSA-N

>  <fragmenstein_mode>  (909) 
expansion

>  <HIPPO Pose ID>  (909) 
19051

>  <Energy>  (909) 
51.841841

>  <fragmenstein_error>  (909) 


>  <tags>  (909) 
{'openbind_xx01zvns2b_c1_fragmenstein', 'fragmenstein_placed'}

>  <ref_pdb>  (909) 
1

>  <scratch_subdir>  (909) 
/opt/xchem-fragalysis-2/maxwin/BulkDock/SCRATCH/511027/C104605-P151

>  <alias>  (909) 
Cc1cc2c(C(=O)Nc3ccc4c(c3)CNC4)c(Cl)c(Cl)nc2n1N

>  <HIPPO Compound ID>  (909) 
93827

>  <fragmenstein_runtime>  (909) 
3.32198

$$$$
CC(=O)NCC(=O)[C@H](Nc1ccc2c(c1)CNC2)c1cc(Cl)n(Cl)c2nccc1-2
     RDKit          3D

 29 32  0  0  0  0  0  0  0  0999 V2000
   -2.2881    1.3768  -12.5838 C   0  0  0  0  0  0  0  0  0  0  0  0
   -3.2244    2.5224  -12.2804 C   0  0  0  0  0  0  0  0  0  0  0  0
   -2.8872    3.6379  -12.3019 O   0  0  0  0  0  0  0  0  0  0  0  0
   -4.6122    1.9017  -12.0113 N   0  0  0  0  0  0  0  0  0  0  0  0
   -5.8533    2.5195  -11.6194 C   0  0  0  0  0  0  0  0  0  0  0  0
   -6.7222    2.7045  -12.8580 C   0  0  0  0  0  0  0  0  0  0  0  0
   -7.0337    1.7146  -13.5292 O   0  0  0  0  0  0  0  0  0  0  0  0
   -7.1160    4.1607  -13.2134 C   0  0  2  0  0  0  0  0  0  0  0  0
   -8.3953    4.6156  -12.6189 N   0  0  0  0  0  0  0  0  0  0  0  0
   -8.4501    4.5261  -11.2151 C   0  0  0  0  0  0  0  0  0  0  0  0
   -8.0617    5.6182  -10.4145 C   0  0  0  0  0  0  0  0  0  0  0  0
   -8.0634    5.5260   -9.0192 C   0  0  0  0  0  0  0  0  0  0  0  0
   -8.4439    4.3277   -8.4446 C   0  0  0  0  0  0  0  0  0  0  0  0
   -8.7922    3.2343   -9.2283 C   0  0  0  0  0  0  0  0  0  0  0  0
   -8.8063    3.3167  -10.6082 C   0  0  0  0  0  0  0  0  0  0  0  0
   -9.1002    2.0713   -8.3469 C   0  0  0  0  0  0  0  0  0  0  0  0
   -9.2700    2.6515   -6.9893 N   0  0  0  0  0  0  0  0  0  0  0  0
   -8.5628    3.9496   -7.0067 C   0  0  0  0  0  0  0  0  0  0  0  0
   -7.1909    4.3531  -14.7222 C   0  0  0  0  0  0  0  0  0  0  0  0
   -8.4766    4.1695  -15.4278 C   0  0  0  0  0  0  0  0  0  0  0  0
   -8.5708    4.3249  -16.7637 C   0  0  0  0  0  0  0  0  0  0  0  0
  -10.0923    4.1540  -17.5669 Cl  0  0  0  0  0  0  0  0  0  0  0  0
   -7.4820    4.7040  -17.5330 N   0  0  0  0  0  0  0  0  0  0  0  0
   -7.4712    4.1918  -19.1627 Cl  0  0  0  0  0  0  0  0  0  0  0  0
   -6.2474    4.8592  -16.9394 C   0  0  0  0  0  0  0  0  0  0  0  0
   -5.0733    5.1574  -17.4570 N   0  0  0  0  0  0  0  0  0  0  0  0
   -4.1923    5.1807  -16.3893 C   0  0  0  0  0  0  0  0  0  0  0  0
   -4.7353    4.9257  -15.1907 C   0  0  0  0  0  0  0  0  0  0  0  0
   -6.1157    4.6917  -15.4553 C   0  0  0  0  0  0  0  0  0  0  0  0
  1  2  1  0
  2  3  2  0
  2  4  1  0
  4  5  1  0
  5  6  1  0
  6  7  2  0
  6  8  1  0
  8  9  1  1
  9 10  1  0
 10 11  2  0
 11 12  1  0
 12 13  2  0
 13 14  1  0
 14 15  2  0
 14 16  1  0
 16 17  1  0
 17 18  1  0
  8 19  1  0
 19 20  1  0
 20 21  2  0
 21 22  1  0
 21 23  1  0
 23 24  1  0
 23 25  1  0
 25 26  2  0
 26 27  1  0
 27 28  2  0
 28 29  1  0
 15 10  1  0
 29 19  2  0
 18 13  1  0
 29 25  1  0
M  END
>  <smiles>  (910) 
C104610-P151

>  <fragmenstein_outcome>  (910) 
acceptable

>  <inchikey>  (910) 
QHYURVUSPYHOCX-UHFFFAOYSA-N

>  <fragmenstein_mode>  (910) 
expansion

>  <HIPPO Pose ID>  (910) 
19054

>  <Energy>  (910) 
110.796871

>  <fragmenstein_error>  (910) 


>  <tags>  (910) 
{'openbind_xx01zvns2b_c1_fragmenstein', 'fragmenstein_placed'}

>  <ref_pdb>  (910) 
1

>  <scratch_subdir>  (910) 
/opt/xchem-fragalysis-2/maxwin/BulkDock/SCRATCH/511027/C104610-P151

>  <alias>  (910) 
CC(=O)NCC(=O)[C@H](Nc1ccc2c(c1)CNC2)c1cc(Cl)n(Cl)c2nccc1-2

>  <HIPPO Compound ID>  (910) 
72001

>  <fragmenstein_runtime>  (910) 
7.036937

$$$$
Cc1cc2c(C(=O)C(=O)c3ccc4c(c3)CNC4)cc(Cl)nc2n1CO
     RDKit          3D

 26 29  0  0  0  0  0  0  0  0999 V2000
   -2.9597    5.9538  -16.2819 C   0  0  0  0  0  0  0  0  0  0  0  0
   -4.3454    5.4139  -16.2478 C   0  0  0  0  0  0  0  0  0  0  0  0
   -5.0740    4.9719  -15.1609 C   0  0  0  0  0  0  0  0  0  0  0  0
   -6.3845    4.6658  -15.6069 C   0  0  0  0  0  0  0  0  0  0  0  0
   -7.5801    4.2402  -15.0128 C   0  0  0  0  0  0  0  0  0  0  0  0
   -7.5889    3.9300  -13.5809 C   0  0  0  0  0  0  0  0  0  0  0  0
   -6.8021    3.1134  -13.1229 O   0  0  0  0  0  0  0  0  0  0  0  0
   -8.5104    4.7324  -12.6834 C   0  0  0  0  0  0  0  0  0  0  0  0
   -9.2181    5.6107  -13.1682 O   0  0  0  0  0  0  0  0  0  0  0  0
   -8.4591    4.5286  -11.2256 C   0  0  0  0  0  0  0  0  0  0  0  0
   -8.2559    5.6600  -10.4099 C   0  0  0  0  0  0  0  0  0  0  0  0
   -8.2627    5.5383   -9.0195 C   0  0  0  0  0  0  0  0  0  0  0  0
   -8.5178    4.2900   -8.4796 C   0  0  0  0  0  0  0  0  0  0  0  0
   -8.7185    3.1735   -9.2900 C   0  0  0  0  0  0  0  0  0  0  0  0
   -8.6715    3.2648  -10.6701 C   0  0  0  0  0  0  0  0  0  0  0  0
   -8.9860    1.9837   -8.4273 C   0  0  0  0  0  0  0  0  0  0  0  0
   -9.2742    2.5415   -7.0781 N   0  0  0  0  0  0  0  0  0  0  0  0
   -8.6497    3.8798   -7.0510 C   0  0  0  0  0  0  0  0  0  0  0  0
   -8.7231    4.1197  -15.7963 C   0  0  0  0  0  0  0  0  0  0  0  0
   -8.6042    4.3803  -17.1470 C   0  0  0  0  0  0  0  0  0  0  0  0
   -9.9725    4.1956  -18.1681 Cl  0  0  0  0  0  0  0  0  0  0  0  0
   -7.4816    4.7728  -17.7874 N   0  0  0  0  0  0  0  0  0  0  0  0
   -6.4158    4.8972  -16.9749 C   0  0  0  0  0  0  0  0  0  0  0  0
   -5.1499    5.2591  -17.3636 N   0  0  0  0  0  0  0  0  0  0  0  0
   -4.7620    5.4261  -18.7517 C   0  0  0  0  0  0  0  0  0  0  0  0
   -3.4278    4.9565  -18.9134 O   0  0  0  0  0  0  0  0  0  0  0  0
  1  2  1  0
  2  3  2  0
  3  4  1  0
  4  5  2  0
  5  6  1  0
  6  7  2  0
  6  8  1  0
  8  9  2  0
  8 10  1  0
 10 11  2  0
 11 12  1  0
 12 13  2  0
 13 14  1  0
 14 15  2  0
 14 16  1  0
 16 17  1  0
 17 18  1  0
  5 19  1  0
 19 20  2  0
 20 21  1  0
 20 22  1  0
 22 23  2  0
 23 24  1  0
 24 25  1  0
 25 26  1  0
 24  2  1  0
 23  4  1  0
 15 10  1  0
 18 13  1  0
M  END
>  <smiles>  (911) 
C104614-P151

>  <fragmenstein_outcome>  (911) 
acceptable

>  <inchikey>  (911) 
OHRSSZKSUHGQQC-UHFFFAOYSA-N

>  <fragmenstein_mode>  (911) 
expansion

>  <HIPPO Pose ID>  (911) 
19057

>  <Energy>  (911) 
97.195243

>  <fragmenstein_error>  (911) 


>  <tags>  (911) 
{'openbind_xx01zvns2b_c1_fragmenstein', 'fragmenstein_placed'}

>  <ref_pdb>  (911) 
1

>  <scratch_subdir>  (911) 
/opt/xchem-fragalysis-2/maxwin/BulkDock/SCRATCH/511027/C104614-P151

>  <alias>  (911) 
Cc1cc2c(C(=O)C(=O)c3ccc4c(c3)CNC4)cc(Cl)nc2n1CO

>  <HIPPO Compound ID>  (911) 
80641

>  <fragmenstein_runtime>  (911) 
7.098941

$$$$
Nn1ccc2c(C(=O)Nc3ccc4c(c3)CNC4)cc(Cl)nc21
     RDKit          3D

 23 26  0  0  0  0  0  0  0  0999 V2000
   -5.0363    5.4841  -18.9948 N   0  0  0  0  0  0  0  0  0  0  0  0
   -5.3001    5.1450  -17.6407 N   0  0  0  0  0  0  0  0  0  0  0  0
   -4.3560    5.0564  -16.6578 C   0  0  0  0  0  0  0  0  0  0  0  0
   -4.9888    4.6465  -15.4983 C   0  0  0  0  0  0  0  0  0  0  0  0
   -6.3746    4.5004  -15.7915 C   0  0  0  0  0  0  0  0  0  0  0  0
   -7.5357    4.0855  -15.1205 C   0  0  0  0  0  0  0  0  0  0  0  0
   -7.4922    3.5308  -13.7569 C   0  0  0  0  0  0  0  0  0  0  0  0
   -7.3266    2.3852  -13.6157 O   0  0  0  0  0  0  0  0  0  0  0  0
   -7.7732    4.6362  -12.7181 N   0  0  0  0  0  0  0  0  0  0  0  0
   -7.9956    4.5525  -11.3466 C   0  0  0  0  0  0  0  0  0  0  0  0
   -7.9559    5.7285  -10.5799 C   0  0  0  0  0  0  0  0  0  0  0  0
   -8.1449    5.6816   -9.1940 C   0  0  0  0  0  0  0  0  0  0  0  0
   -8.4098    4.4560   -8.6080 C   0  0  0  0  0  0  0  0  0  0  0  0
   -8.5044    3.3025   -9.3749 C   0  0  0  0  0  0  0  0  0  0  0  0
   -8.2792    3.3264  -10.7413 C   0  0  0  0  0  0  0  0  0  0  0  0
   -8.9003    2.1550   -8.5094 C   0  0  0  0  0  0  0  0  0  0  0  0
   -8.7909    2.6487   -7.1065 N   0  0  0  0  0  0  0  0  0  0  0  0
   -8.6663    4.1195   -7.1796 C   0  0  0  0  0  0  0  0  0  0  0  0
   -8.7502    4.0634  -15.8052 C   0  0  0  0  0  0  0  0  0  0  0  0
   -8.7479    4.4076  -17.1407 C   0  0  0  0  0  0  0  0  0  0  0  0
  -10.1885    4.2826  -18.0644 Cl  0  0  0  0  0  0  0  0  0  0  0  0
   -7.6810    4.8266  -17.8456 N   0  0  0  0  0  0  0  0  0  0  0  0
   -6.5364    4.8371  -17.1339 C   0  0  0  0  0  0  0  0  0  0  0  0
  1  2  1  0
  2  3  1  0
  3  4  2  0
  4  5  1  0
  5  6  2  0
  6  7  1  0
  7  8  2  0
  7  9  1  0
  9 10  1  0
 10 11  2  0
 11 12  1  0
 12 13  2  0
 13 14  1  0
 14 15  2  0
 14 16  1  0
 16 17  1  0
 17 18  1  0
  6 19  1  0
 19 20  2  0
 20 21  1  0
 20 22  1  0
 22 23  2  0
 23  2  1  0
 23  5  1  0
 15 10  1  0
 18 13  1  0
M  END
>  <smiles>  (912) 
C104559-P151

>  <fragmenstein_outcome>  (912) 
acceptable

>  <inchikey>  (912) 
CVPVNUIQGSBJTD-UHFFFAOYSA-N

>  <fragmenstein_mode>  (912) 
expansion

>  <HIPPO Pose ID>  (912) 
19058

>  <Energy>  (912) 
26.067318

>  <fragmenstein_error>  (912) 


>  <tags>  (912) 
{'openbind_xx01zvns2b_c1_fragmenstein', 'fragmenstein_placed'}

>  <ref_pdb>  (912) 
1

>  <scratch_subdir>  (912) 
/opt/xchem-fragalysis-2/maxwin/BulkDock/SCRATCH/511027/C104559-P151

>  <alias>  (912) 
Nn1ccc2c(C(=O)Nc3ccc4c(c3)CNC4)cc(Cl)nc21

>  <HIPPO Compound ID>  (912) 
79591

>  <fragmenstein_runtime>  (912) 
3.272561

$$$$
CC(C)Nn1ccc2c(C(=O)Nc3ccc4c(c3)CNC4)cc(Cl)nc21
     RDKit          3D

 26 29  0  0  0  0  0  0  0  0999 V2000
   -3.3905    6.2808  -20.7936 C   0  0  0  0  0  0  0  0  0  0  0  0
   -3.4295    5.7033  -19.3762 C   0  0  0  0  0  0  0  0  0  0  0  0
   -2.5323    4.4697  -19.3262 C   0  0  0  0  0  0  0  0  0  0  0  0
   -4.8267    5.4868  -19.0054 N   0  0  0  0  0  0  0  0  0  0  0  0
   -5.1107    5.1767  -17.6235 N   0  0  0  0  0  0  0  0  0  0  0  0
   -4.2403    5.1740  -16.5596 C   0  0  0  0  0  0  0  0  0  0  0  0
   -4.9177    4.7465  -15.4350 C   0  0  0  0  0  0  0  0  0  0  0  0
   -6.2736    4.5471  -15.8002 C   0  0  0  0  0  0  0  0  0  0  0  0
   -7.4504    4.1128  -15.1664 C   0  0  0  0  0  0  0  0  0  0  0  0
   -7.4404    3.5609  -13.7987 C   0  0  0  0  0  0  0  0  0  0  0  0
   -7.2751    2.4153  -13.6559 O   0  0  0  0  0  0  0  0  0  0  0  0
   -7.7357    4.6655  -12.7631 N   0  0  0  0  0  0  0  0  0  0  0  0
   -7.9752    4.5809  -11.3933 C   0  0  0  0  0  0  0  0  0  0  0  0
   -7.9434    5.7560  -10.6250 C   0  0  0  0  0  0  0  0  0  0  0  0
   -8.1372    5.7070   -9.2395 C   0  0  0  0  0  0  0  0  0  0  0  0
   -8.3987    4.4801   -8.6544 C   0  0  0  0  0  0  0  0  0  0  0  0
   -8.4890    3.3272   -9.4225 C   0  0  0  0  0  0  0  0  0  0  0  0
   -8.2599    3.3535  -10.7891 C   0  0  0  0  0  0  0  0  0  0  0  0
   -8.8830    2.1781   -8.5575 C   0  0  0  0  0  0  0  0  0  0  0  0
   -8.7780    2.6714   -7.1540 N   0  0  0  0  0  0  0  0  0  0  0  0
   -8.6528    4.1420   -7.2259 C   0  0  0  0  0  0  0  0  0  0  0  0
   -8.6388    4.0640  -15.8893 C   0  0  0  0  0  0  0  0  0  0  0  0
   -8.5879    4.3872  -17.2292 C   0  0  0  0  0  0  0  0  0  0  0  0
  -10.0071    4.2449  -18.1857 Cl  0  0  0  0  0  0  0  0  0  0  0  0
   -7.4964    4.7902  -17.9115 N   0  0  0  0  0  0  0  0  0  0  0  0
   -6.3741    4.8484  -17.1601 C   0  0  0  0  0  0  0  0  0  0  0  0
  1  2  1  0
  2  3  1  0
  2  4  1  0
  4  5  1  0
  5  6  1  0
  6  7  2  0
  7  8  1  0
  8  9  2  0
  9 10  1  0
 10 11  2  0
 10 12  1  0
 12 13  1  0
 13 14  2  0
 14 15  1  0
 15 16  2  0
 16 17  1  0
 17 18  2  0
 17 19  1  0
 19 20  1  0
 20 21  1  0
  9 22  1  0
 22 23  2  0
 23 24  1  0
 23 25  1  0
 25 26  2  0
 26  5  1  0
 26  8  1  0
 18 13  1  0
 21 16  1  0
M  END
>  <smiles>  (913) 
C104623-P151

>  <fragmenstein_outcome>  (913) 
acceptable

>  <inchikey>  (913) 
XNKRTIQTIPHLRV-UHFFFAOYSA-N

>  <fragmenstein_mode>  (913) 
expansion

>  <HIPPO Pose ID>  (913) 
19062

>  <Energy>  (913) 
36.087816

>  <fragmenstein_error>  (913) 


>  <tags>  (913) 
{'openbind_xx01zvns2b_c1_fragmenstein', 'fragmenstein_placed'}

>  <ref_pdb>  (913) 
1

>  <scratch_subdir>  (913) 
/opt/xchem-fragalysis-2/maxwin/BulkDock/SCRATCH/511027/C104623-P151

>  <alias>  (913) 
CC(C)Nn1ccc2c(C(=O)Nc3ccc4c(c3)CNC4)cc(Cl)nc21

>  <HIPPO Compound ID>  (913) 
75071

>  <fragmenstein_runtime>  (913) 
6.952328

$$$$
CC(C)NC(=O)[C@](O)(Nc1ccc2c(c1)CNC2)c1cc(Cl)nc2[nH]ccc12
     RDKit          3D

 28 31  0  0  0  0  0  0  0  0999 V2000
   -4.6648    1.7963  -10.7083 C   0  0  0  0  0  0  0  0  0  0  0  0
   -4.1103    2.6822  -11.8157 C   0  0  0  0  0  0  0  0  0  0  0  0
   -3.3653    1.8786  -12.8725 C   0  0  0  0  0  0  0  0  0  0  0  0
   -5.1520    3.4541  -12.4457 N   0  0  0  0  0  0  0  0  0  0  0  0
   -6.4696    2.9956  -13.1480 C   0  0  0  0  0  0  0  0  0  0  0  0
   -6.8673    1.9193  -13.3877 O   0  0  0  0  0  0  0  0  0  0  0  0
   -7.2226    4.3556  -13.5542 C   0  0  2  0  0  0  0  0  0  0  0  0
   -6.5016    5.5308  -13.1940 O   0  0  0  0  0  0  0  0  0  0  0  0
   -8.5345    4.4367  -12.8744 N   0  0  0  0  0  0  0  0  0  0  0  0
   -8.4801    4.4224  -11.4523 C   0  0  0  0  0  0  0  0  0  0  0  0
   -8.1668    5.5874  -10.7218 C   0  0  0  0  0  0  0  0  0  0  0  0
   -8.1182    5.5837   -9.3232 C   0  0  0  0  0  0  0  0  0  0  0  0
   -8.3982    4.4038   -8.6629 C   0  0  0  0  0  0  0  0  0  0  0  0
   -8.7100    3.2500   -9.3667 C   0  0  0  0  0  0  0  0  0  0  0  0
   -8.7426    3.2366  -10.7521 C   0  0  0  0  0  0  0  0  0  0  0  0
   -9.0402    2.1548   -8.4119 C   0  0  0  0  0  0  0  0  0  0  0  0
   -8.7178    2.6816   -7.0562 N   0  0  0  0  0  0  0  0  0  0  0  0
   -8.4997    4.1356   -7.2025 C   0  0  0  0  0  0  0  0  0  0  0  0
   -7.3611    4.4429  -15.0740 C   0  0  0  0  0  0  0  0  0  0  0  0
   -8.5989    4.2863  -15.7402 C   0  0  0  0  0  0  0  0  0  0  0  0
   -8.6690    4.3772  -17.1248 C   0  0  0  0  0  0  0  0  0  0  0  0
  -10.1666    4.1768  -17.9400 Cl  0  0  0  0  0  0  0  0  0  0  0  0
   -7.6408    4.6311  -17.9473 N   0  0  0  0  0  0  0  0  0  0  0  0
   -6.4759    4.7524  -17.3003 C   0  0  0  0  0  0  0  0  0  0  0  0
   -5.2816    4.9535  -17.9328 N   0  0  0  0  0  0  0  0  0  0  0  0
   -4.2785    5.0467  -17.0036 C   0  0  0  0  0  0  0  0  0  0  0  0
   -4.8470    4.8806  -15.7577 C   0  0  0  0  0  0  0  0  0  0  0  0
   -6.2504    4.6800  -15.9302 C   0  0  0  0  0  0  0  0  0  0  0  0
  1  2  1  0
  2  3  1  0
  2  4  1  0
  4  5  1  0
  5  6  2  0
  5  7  1  0
  7  8  1  1
  7  9  1  0
  9 10  1  0
 10 11  2  0
 11 12  1  0
 12 13  2  0
 13 14  1  0
 14 15  2  0
 14 16  1  0
 16 17  1  0
 17 18  1  0
  7 19  1  0
 19 20  2  0
 20 21  1  0
 21 22  1  0
 21 23  2  0
 23 24  1  0
 24 25  1  0
 25 26  1  0
 26 27  2  0
 27 28  1  0
 15 10  1  0
 28 19  1  0
 18 13  1  0
 28 24  2  0
M  END
>  <smiles>  (914) 
C104634-P151

>  <fragmenstein_outcome>  (914) 
acceptable

>  <inchikey>  (914) 
WLSNEHZNURHQQW-UHFFFAOYSA-N

>  <fragmenstein_mode>  (914) 
expansion

>  <HIPPO Pose ID>  (914) 
19065

>  <Energy>  (914) 
76.594127

>  <fragmenstein_error>  (914) 


>  <tags>  (914) 
{'openbind_xx01zvns2b_c1_fragmenstein', 'fragmenstein_placed'}

>  <ref_pdb>  (914) 
1

>  <scratch_subdir>  (914) 
/opt/xchem-fragalysis-2/maxwin/BulkDock/SCRATCH/511027/C104634-P151

>  <alias>  (914) 
CC(C)NC(=O)[C@](O)(Nc1ccc2c(c1)CNC2)c1cc(Cl)nc2[nH]ccc12

>  <HIPPO Compound ID>  (914) 
99751

>  <fragmenstein_runtime>  (914) 
3.94224

$$$$
O=C1CN2CC[C@@H]3[C@@H]2[C@@H](N1)[C@@H](Cl)C[C@H]3C(=O)Nc1ccc2c(c1)CNC2
     RDKit          3D

 26 30  0  0  0  0  0  0  0  0999 V2000
   -5.4169    4.4021  -20.2687 O   0  0  0  0  0  0  0  0  0  0  0  0
   -5.6831    4.5779  -19.0860 C   0  0  0  0  0  0  0  0  0  0  0  0
   -4.6161    4.9364  -18.0567 C   0  0  0  0  0  0  0  0  0  0  0  0
   -5.0645    5.9633  -17.0897 N   0  0  0  0  0  0  0  0  0  0  0  0
   -4.1951    5.9420  -15.8921 C   0  0  0  0  0  0  0  0  0  0  0  0
   -5.0225    5.3692  -14.7336 C   0  0  0  0  0  0  0  0  0  0  0  0
   -6.2105    4.7290  -15.4233 C   0  0  1  0  0  0  0  0  0  0  0  0
   -7.5178    4.6306  -14.6545 C   0  0  2  0  0  0  0  0  0  0  0  0
   -7.4298    3.8018  -13.3709 C   0  0  0  0  0  0  0  0  0  0  0  0
   -7.2503    2.6460  -13.3538 O   0  0  0  0  0  0  0  0  0  0  0  0
   -7.7270    4.7961  -12.2049 N   0  0  0  0  0  0  0  0  0  0  0  0
   -7.9473    4.5616  -10.8577 C   0  0  0  0  0  0  0  0  0  0  0  0
   -7.9281    5.6667   -9.9902 C   0  0  0  0  0  0  0  0  0  0  0  0
   -8.1767    5.5019   -8.6275 C   0  0  0  0  0  0  0  0  0  0  0  0
   -8.4938    4.2352   -8.1730 C   0  0  0  0  0  0  0  0  0  0  0  0
   -8.5566    3.1534   -9.0425 C   0  0  0  0  0  0  0  0  0  0  0  0
   -8.2570    3.2884  -10.3867 C   0  0  0  0  0  0  0  0  0  0  0  0
   -8.9758    1.9330   -8.2975 C   0  0  0  0  0  0  0  0  0  0  0  0
   -9.2708    2.3801   -6.9085 N   0  0  0  0  0  0  0  0  0  0  0  0
   -8.8073    3.7755   -6.7917 C   0  0  0  0  0  0  0  0  0  0  0  0
   -8.5505    3.9654  -15.5693 C   0  0  0  0  0  0  0  0  0  0  0  0
   -8.7595    4.7100  -16.8721 C   0  0  2  0  0  0  0  0  0  0  0  0
   -9.8840    3.8727  -17.9685 Cl  0  0  0  0  0  0  0  0  0  0  0  0
   -7.4842    5.2136  -17.6000 C   0  0  2  0  0  0  0  0  0  0  0  0
   -6.9463    4.3268  -18.6058 N   0  0  0  0  0  0  0  0  0  0  0  0
   -6.4200    5.6794  -16.5925 C   0  0  2  0  0  0  0  0  0  0  0  0
  1  2  2  0
  2  3  1  0
  3  4  1  0
  4  5  1  0
  5  6  1  0
  7  6  1  1
  7  8  1  0
  8  9  1  1
  9 10  2  0
  9 11  1  0
 11 12  1  0
 12 13  2  0
 13 14  1  0
 14 15  2  0
 15 16  1  0
 16 17  2  0
 16 18  1  0
 18 19  1  0
 19 20  1  0
  8 21  1  0
 21 22  1  0
 22 23  1  6
 22 24  1  0
 24 25  1  1
 24 26  1  0
 25  2  1  0
 26  4  1  6
 26  7  1  0
 17 12  1  0
 20 15  1  0
M  END
>  <smiles>  (915) 
C104637-P151

>  <fragmenstein_outcome>  (915) 
acceptable

>  <inchikey>  (915) 
BNMNDJRRFCAORY-UHFFFAOYSA-N

>  <fragmenstein_mode>  (915) 
expansion

>  <HIPPO Pose ID>  (915) 
19067

>  <Energy>  (915) 
121.395797

>  <fragmenstein_error>  (915) 


>  <tags>  (915) 
{'openbind_xx01zvns2b_c1_fragmenstein', 'fragmenstein_placed'}

>  <ref_pdb>  (915) 
1

>  <scratch_subdir>  (915) 
/opt/xchem-fragalysis-2/maxwin/BulkDock/SCRATCH/511027/C104637-P151

>  <alias>  (915) 
O=C1CN2CC[C@@H]3[C@@H]2[C@@H](N1)[C@@H](Cl)C[C@H]3C(=O)Nc1ccc2c(c1)CNC2

>  <HIPPO Compound ID>  (915) 
76042

>  <fragmenstein_runtime>  (915) 
6.179473

$$$$
O=C(Nc1ccc2c(c1)CNC2)c1cc2scnn2c2nccc1-2
     RDKit          3D

 24 28  0  0  0  0  0  0  0  0999 V2000
   -7.1485    2.2860  -13.2621 O   0  0  0  0  0  0  0  0  0  0  0  0
   -7.3140    3.4321  -13.4072 C   0  0  0  0  0  0  0  0  0  0  0  0
   -7.6546    4.5344  -12.3771 N   0  0  0  0  0  0  0  0  0  0  0  0
   -7.9442    4.4438  -11.0234 C   0  0  0  0  0  0  0  0  0  0  0  0
   -7.9495    5.6111  -10.2443 C   0  0  0  0  0  0  0  0  0  0  0  0
   -8.2186    5.5433   -8.8736 C   0  0  0  0  0  0  0  0  0  0  0  0
   -8.5349    4.3108   -8.3282 C   0  0  0  0  0  0  0  0  0  0  0  0
   -8.5792    3.1670   -9.1154 C   0  0  0  0  0  0  0  0  0  0  0  0
   -8.2590    3.2087  -10.4578 C   0  0  0  0  0  0  0  0  0  0  0  0
   -8.9867    1.9974   -8.2850 C   0  0  0  0  0  0  0  0  0  0  0  0
   -9.4345    2.5763   -6.9881 N   0  0  0  0  0  0  0  0  0  0  0  0
   -8.8512    3.9326   -6.9213 C   0  0  0  0  0  0  0  0  0  0  0  0
   -7.3218    4.0629  -14.7490 C   0  0  0  0  0  0  0  0  0  0  0  0
   -8.5849    4.0847  -15.4780 C   0  0  0  0  0  0  0  0  0  0  0  0
   -8.5647    4.3112  -16.7968 C   0  0  0  0  0  0  0  0  0  0  0  0
   -9.9230    4.0911  -17.8386 S   0  0  0  0  0  0  0  0  0  0  0  0
   -8.7499    4.2002  -19.1546 C   0  0  0  0  0  0  0  0  0  0  0  0
   -7.5190    4.4948  -18.8501 N   0  0  0  0  0  0  0  0  0  0  0  0
   -7.4023    4.6215  -17.4893 N   0  0  0  0  0  0  0  0  0  0  0  0
   -6.2073    4.7436  -16.8032 C   0  0  0  0  0  0  0  0  0  0  0  0
   -5.0007    5.0691  -17.2116 N   0  0  0  0  0  0  0  0  0  0  0  0
   -4.1853    4.9319  -16.0997 C   0  0  0  0  0  0  0  0  0  0  0  0
   -4.8039    4.5427  -14.9747 C   0  0  0  0  0  0  0  0  0  0  0  0
   -6.1760    4.4335  -15.3347 C   0  0  0  0  0  0  0  0  0  0  0  0
  1  2  2  0
  2  3  1  0
  3  4  1  0
  4  5  2  0
  5  6  1  0
  6  7  2  0
  7  8  1  0
  8  9  2  0
  8 10  1  0
 10 11  1  0
 11 12  1  0
  2 13  1  0
 13 14  1  0
 14 15  2  0
 15 16  1  0
 16 17  1  0
 17 18  2  0
 18 19  1  0
 19 20  1  0
 20 21  2  0
 21 22  1  0
 22 23  2  0
 23 24  1  0
  9  4  1  0
 24 13  2  0
 12  7  1  0
 19 15  1  0
 24 20  1  0
M  END
>  <smiles>  (916) 
C104638-P151

>  <fragmenstein_outcome>  (916) 
acceptable

>  <inchikey>  (916) 
QZNGDGOENLQGRZ-UHFFFAOYSA-N

>  <fragmenstein_mode>  (916) 
expansion

>  <HIPPO Pose ID>  (916) 
19068

>  <Energy>  (916) 
83.243886

>  <fragmenstein_error>  (916) 


>  <tags>  (916) 
{'openbind_xx01zvns2b_c1_fragmenstein', 'fragmenstein_placed'}

>  <ref_pdb>  (916) 
1

>  <scratch_subdir>  (916) 
/opt/xchem-fragalysis-2/maxwin/BulkDock/SCRATCH/511027/C104638-P151

>  <alias>  (916) 
O=C(Nc1ccc2c(c1)CNC2)c1cc2scnn2c2nccc1-2

>  <HIPPO Compound ID>  (916) 
80283

>  <fragmenstein_runtime>  (916) 
3.857672

$$$$
O=C(Nc1ccc2c(c1)CNC2)c1cc2cnsn2c2nccc1-2
     RDKit          3D

 24 28  0  0  0  0  0  0  0  0999 V2000
   -7.1331    2.3521  -13.1997 O   0  0  0  0  0  0  0  0  0  0  0  0
   -7.3181    3.4944  -13.3459 C   0  0  0  0  0  0  0  0  0  0  0  0
   -7.6618    4.5936  -12.3154 N   0  0  0  0  0  0  0  0  0  0  0  0
   -7.9317    4.5029  -10.9600 C   0  0  0  0  0  0  0  0  0  0  0  0
   -7.9308    5.6692  -10.1811 C   0  0  0  0  0  0  0  0  0  0  0  0
   -8.1882    5.5983   -8.8092 C   0  0  0  0  0  0  0  0  0  0  0  0
   -8.4872    4.3627   -8.2606 C   0  0  0  0  0  0  0  0  0  0  0  0
   -8.5445    3.2233   -9.0504 C   0  0  0  0  0  0  0  0  0  0  0  0
   -8.2458    3.2675  -10.3967 C   0  0  0  0  0  0  0  0  0  0  0  0
   -8.9882    2.0595   -8.2364 C   0  0  0  0  0  0  0  0  0  0  0  0
   -8.9688    2.5263   -6.8229 N   0  0  0  0  0  0  0  0  0  0  0  0
   -8.8233    3.9978   -6.8563 C   0  0  0  0  0  0  0  0  0  0  0  0
   -7.3540    4.1229  -14.6857 C   0  0  0  0  0  0  0  0  0  0  0  0
   -8.6505    4.1776  -15.3627 C   0  0  0  0  0  0  0  0  0  0  0  0
   -8.6536    4.3943  -16.6807 C   0  0  0  0  0  0  0  0  0  0  0  0
   -9.7928    4.1964  -17.5963 C   0  0  0  0  0  0  0  0  0  0  0  0
   -9.5059    4.0934  -18.8552 N   0  0  0  0  0  0  0  0  0  0  0  0
   -7.8165    4.3134  -18.9690 S   0  0  0  0  0  0  0  0  0  0  0  0
   -7.5170    4.6863  -17.3983 N   0  0  0  0  0  0  0  0  0  0  0  0
   -6.2883    4.7283  -16.7914 C   0  0  0  0  0  0  0  0  0  0  0  0
   -5.0858    4.9744  -17.2598 N   0  0  0  0  0  0  0  0  0  0  0  0
   -4.2325    4.8110  -16.1784 C   0  0  0  0  0  0  0  0  0  0  0  0
   -4.8232    4.4749  -15.0212 C   0  0  0  0  0  0  0  0  0  0  0  0
   -6.2135    4.4314  -15.3207 C   0  0  0  0  0  0  0  0  0  0  0  0
  1  2  2  0
  2  3  1  0
  3  4  1  0
  4  5  2  0
  5  6  1  0
  6  7  2  0
  7  8  1  0
  8  9  2  0
  8 10  1  0
 10 11  1  0
 11 12  1  0
  2 13  1  0
 13 14  1  0
 14 15  2  0
 15 16  1  0
 16 17  2  0
 17 18  1  0
 18 19  1  0
 19 20  1  0
 20 21  2  0
 21 22  1  0
 22 23  2  0
 23 24  1  0
  9  4  1  0
 24 13  2  0
 12  7  1  0
 19 15  1  0
 24 20  1  0
M  END
>  <smiles>  (917) 
C104652-P151

>  <fragmenstein_outcome>  (917) 
acceptable

>  <inchikey>  (917) 
KLYACIRUHJRAMT-UHFFFAOYSA-N

>  <fragmenstein_mode>  (917) 
expansion

>  <HIPPO Pose ID>  (917) 
19071

>  <Energy>  (917) 
72.91153

>  <fragmenstein_error>  (917) 


>  <tags>  (917) 
{'openbind_xx01zvns2b_c1_fragmenstein', 'fragmenstein_placed'}

>  <ref_pdb>  (917) 
1

>  <scratch_subdir>  (917) 
/opt/xchem-fragalysis-2/maxwin/BulkDock/SCRATCH/511027/C104652-P151

>  <alias>  (917) 
O=C(Nc1ccc2c(c1)CNC2)c1cc2cnsn2c2nccc1-2

>  <HIPPO Compound ID>  (917) 
104652

>  <fragmenstein_runtime>  (917) 
2.414805

$$$$
Cn1ccc2c(C(=O)Nc3ccc4c(c3)CNC4)cc(Cl)nc21
     RDKit          3D

 23 26  0  0  0  0  0  0  0  0999 V2000
   -5.3188    5.0824  -19.5393 C   0  0  0  0  0  0  0  0  0  0  0  0
   -5.4395    5.0873  -18.0976 N   0  0  0  0  0  0  0  0  0  0  0  0
   -4.4480    5.3908  -17.1980 C   0  0  0  0  0  0  0  0  0  0  0  0
   -5.0112    5.3959  -15.9366 C   0  0  0  0  0  0  0  0  0  0  0  0
   -6.3873    5.0578  -16.0728 C   0  0  0  0  0  0  0  0  0  0  0  0
   -7.5060    4.9257  -15.2277 C   0  0  0  0  0  0  0  0  0  0  0  0
   -7.4250    5.3762  -13.8214 C   0  0  0  0  0  0  0  0  0  0  0  0
   -7.0003    6.4474  -13.6261 O   0  0  0  0  0  0  0  0  0  0  0  0
   -8.0156    4.3364  -12.8383 N   0  0  0  0  0  0  0  0  0  0  0  0
   -8.1158    4.3598  -11.4476 C   0  0  0  0  0  0  0  0  0  0  0  0
   -7.7209    5.4934  -10.7167 C   0  0  0  0  0  0  0  0  0  0  0  0
   -7.8111    5.5190   -9.3214 C   0  0  0  0  0  0  0  0  0  0  0  0
   -8.2816    4.3914   -8.6777 C   0  0  0  0  0  0  0  0  0  0  0  0
   -8.6752    3.2681   -9.3955 C   0  0  0  0  0  0  0  0  0  0  0  0
   -8.6123    3.2377  -10.7811 C   0  0  0  0  0  0  0  0  0  0  0  0
   -9.1599    2.2244   -8.4469 C   0  0  0  0  0  0  0  0  0  0  0  0
   -8.7906    2.7068   -7.0863 N   0  0  0  0  0  0  0  0  0  0  0  0
   -8.4884    4.1475   -7.2236 C   0  0  0  0  0  0  0  0  0  0  0  0
   -8.7297    4.5495  -15.7837 C   0  0  0  0  0  0  0  0  0  0  0  0
   -8.7903    4.3781  -17.1540 C   0  0  0  0  0  0  0  0  0  0  0  0
  -10.2842    4.0625  -17.9307 Cl  0  0  0  0  0  0  0  0  0  0  0  0
   -7.7704    4.5178  -18.0129 N   0  0  0  0  0  0  0  0  0  0  0  0
   -6.6093    4.8484  -17.4287 C   0  0  0  0  0  0  0  0  0  0  0  0
  1  2  1  0
  2  3  1  0
  3  4  2  0
  4  5  1  0
  5  6  2  0
  6  7  1  0
  7  8  2  0
  7  9  1  0
  9 10  1  0
 10 11  2  0
 11 12  1  0
 12 13  2  0
 13 14  1  0
 14 15  2  0
 14 16  1  0
 16 17  1  0
 17 18  1  0
  6 19  1  0
 19 20  2  0
 20 21  1  0
 20 22  1  0
 22 23  2  0
 23  2  1  0
 23  5  1  0
 15 10  1  0
 18 13  1  0
M  END
>  <smiles>  (918) 
C104657-P151

>  <fragmenstein_outcome>  (918) 
acceptable

>  <inchikey>  (918) 
JKQGFPUQYHEORW-UHFFFAOYSA-N

>  <fragmenstein_mode>  (918) 
expansion

>  <HIPPO Pose ID>  (918) 
19072

>  <Energy>  (918) 
34.745568

>  <fragmenstein_error>  (918) 


>  <tags>  (918) 
{'openbind_xx01zvns2b_c1_fragmenstein', 'fragmenstein_placed'}

>  <ref_pdb>  (918) 
1

>  <scratch_subdir>  (918) 
/opt/xchem-fragalysis-2/maxwin/BulkDock/SCRATCH/511027/C104657-P151

>  <alias>  (918) 
Cn1ccc2c(C(=O)Nc3ccc4c(c3)CNC4)cc(Cl)nc21

>  <HIPPO Compound ID>  (918) 
104657

>  <fragmenstein_runtime>  (918) 
3.479925

$$$$
O=C(Nc1ccc2c(c1)CNC2)c1cc(Cl)nc2c1CC1(CCCCC1)N2
     RDKit          3D

 27 31  0  0  0  0  0  0  0  0999 V2000
   -7.5266    2.3423  -13.5849 O   0  0  0  0  0  0  0  0  0  0  0  0
   -7.5911    3.4997  -13.7066 C   0  0  0  0  0  0  0  0  0  0  0  0
   -7.7727    4.6078  -12.6492 N   0  0  0  0  0  0  0  0  0  0  0  0
   -7.9998    4.5212  -11.2789 C   0  0  0  0  0  0  0  0  0  0  0  0
   -7.9603    5.6980  -10.5128 C   0  0  0  0  0  0  0  0  0  0  0  0
   -8.1547    5.6524   -9.1281 C   0  0  0  0  0  0  0  0  0  0  0  0
   -8.4247    4.4274   -8.5436 C   0  0  0  0  0  0  0  0  0  0  0  0
   -8.5172    3.2739   -9.3110 C   0  0  0  0  0  0  0  0  0  0  0  0
   -8.2855    3.2960  -10.6755 C   0  0  0  0  0  0  0  0  0  0  0  0
   -8.9216    2.1272   -8.4490 C   0  0  0  0  0  0  0  0  0  0  0  0
   -8.8116    2.6191   -7.0459 N   0  0  0  0  0  0  0  0  0  0  0  0
   -8.6927    4.0905   -7.1175 C   0  0  0  0  0  0  0  0  0  0  0  0
   -7.5757    4.0898  -15.0576 C   0  0  0  0  0  0  0  0  0  0  0  0
   -8.7187    4.0094  -15.8399 C   0  0  0  0  0  0  0  0  0  0  0  0
   -8.6246    4.4321  -17.1521 C   0  0  0  0  0  0  0  0  0  0  0  0
   -9.9650    4.2597  -18.2055 Cl  0  0  0  0  0  0  0  0  0  0  0  0
   -7.5223    4.9849  -17.7041 N   0  0  0  0  0  0  0  0  0  0  0  0
   -6.4674    5.1007  -16.8997 C   0  0  0  0  0  0  0  0  0  0  0  0
   -6.4356    4.6474  -15.5949 C   0  0  0  0  0  0  0  0  0  0  0  0
   -5.0605    4.7510  -15.0488 C   0  0  0  0  0  0  0  0  0  0  0  0
   -4.3928    5.6827  -16.1011 C   0  0  0  0  0  0  0  0  0  0  0  0
   -2.9604    5.2462  -16.4394 C   0  0  0  0  0  0  0  0  0  0  0  0
   -1.9877    5.4744  -15.2813 C   0  0  0  0  0  0  0  0  0  0  0  0
   -1.9858    6.9279  -14.8238 C   0  0  0  0  0  0  0  0  0  0  0  0
   -3.3866    7.4060  -14.4700 C   0  0  0  0  0  0  0  0  0  0  0  0
   -4.3709    7.1511  -15.6099 C   0  0  0  0  0  0  0  0  0  0  0  0
   -5.2252    5.6436  -17.3309 N   0  0  0  0  0  0  0  0  0  0  0  0
  1  2  2  0
  2  3  1  0
  3  4  1  0
  4  5  2  0
  5  6  1  0
  6  7  2  0
  7  8  1  0
  8  9  2  0
  8 10  1  0
 10 11  1  0
 11 12  1  0
  2 13  1  0
 13 14  2  0
 14 15  1  0
 15 16  1  0
 15 17  2  0
 17 18  1  0
 18 19  2  0
 19 20  1  0
 20 21  1  0
 21 22  1  0
 22 23  1  0
 23 24  1  0
 24 25  1  0
 25 26  1  0
 21 27  1  0
  9  4  1  0
 19 13  1  0
 26 21  1  0
 12  7  1  0
 27 18  1  0
M  END
>  <smiles>  (919) 
C104660-P151

>  <fragmenstein_outcome>  (919) 
acceptable

>  <inchikey>  (919) 
UFABRALYAJOTNQ-UHFFFAOYSA-N

>  <fragmenstein_mode>  (919) 
expansion

>  <HIPPO Pose ID>  (919) 
19073

>  <Energy>  (919) 
3.841894

>  <fragmenstein_error>  (919) 


>  <tags>  (919) 
{'openbind_xx01zvns2b_c1_fragmenstein', 'fragmenstein_placed'}

>  <ref_pdb>  (919) 
1

>  <scratch_subdir>  (919) 
/opt/xchem-fragalysis-2/maxwin/BulkDock/SCRATCH/511027/C104660-P151

>  <alias>  (919) 
O=C(Nc1ccc2c(c1)CNC2)c1cc(Cl)nc2c1CC1(CCCCC1)N2

>  <HIPPO Compound ID>  (919) 
104660

>  <fragmenstein_runtime>  (919) 
6.38298

$$$$
CC(C)[C@@H]1NN[C@@]2(Cc3c(C(=O)Nc4ccc5c(c4)CNC5)cc(Cl)nc3N2)S1
     RDKit          3D

 29 33  0  0  0  0  0  0  0  0999 V2000
   -1.0666    8.6490  -19.7890 C   0  0  0  0  0  0  0  0  0  0  0  0
   -1.0424    7.2414  -19.1810 C   0  0  0  0  0  0  0  0  0  0  0  0
   -1.3590    6.2049  -20.2647 C   0  0  0  0  0  0  0  0  0  0  0  0
   -1.9276    7.1441  -17.9012 C   0  0  2  0  0  0  0  0  0  0  0  0
   -1.7094    5.8983  -17.1614 N   0  0  0  0  0  0  0  0  0  0  0  0
   -2.7752    4.9494  -17.4631 N   0  0  0  0  0  0  0  0  0  0  0  0
   -4.0770    5.6270  -17.4560 C   0  0  2  0  0  0  0  0  0  0  0  0
   -4.6767    5.6275  -15.9894 C   0  0  0  0  0  0  0  0  0  0  0  0
   -6.0890    5.1782  -16.2106 C   0  0  0  0  0  0  0  0  0  0  0  0
   -7.1728    5.0186  -15.3550 C   0  0  0  0  0  0  0  0  0  0  0  0
   -7.1367    5.4358  -13.9274 C   0  0  0  0  0  0  0  0  0  0  0  0
   -6.7258    6.5046  -13.6873 O   0  0  0  0  0  0  0  0  0  0  0  0
   -7.7692    4.3664  -12.9930 N   0  0  0  0  0  0  0  0  0  0  0  0
   -7.9328    4.3566  -11.6033 C   0  0  0  0  0  0  0  0  0  0  0  0
   -7.6621    5.4931  -10.8260 C   0  0  0  0  0  0  0  0  0  0  0  0
   -7.8591    5.4817   -9.4377 C   0  0  0  0  0  0  0  0  0  0  0  0
   -8.3149    4.3187   -8.8444 C   0  0  0  0  0  0  0  0  0  0  0  0
   -8.5730    3.1857   -9.6049 C   0  0  0  0  0  0  0  0  0  0  0  0
   -8.4018    3.1908  -10.9842 C   0  0  0  0  0  0  0  0  0  0  0  0
   -8.9818    2.0724   -8.6946 C   0  0  0  0  0  0  0  0  0  0  0  0
   -9.2649    2.7112   -7.3806 N   0  0  0  0  0  0  0  0  0  0  0  0
   -8.5683    4.0143   -7.4059 C   0  0  0  0  0  0  0  0  0  0  0  0
   -8.3944    4.6137  -15.8982 C   0  0  0  0  0  0  0  0  0  0  0  0
   -8.4530    4.4106  -17.2666 C   0  0  0  0  0  0  0  0  0  0  0  0
   -9.9331    4.0002  -18.0254 Cl  0  0  0  0  0  0  0  0  0  0  0  0
   -7.4172    4.5614  -18.1098 N   0  0  0  0  0  0  0  0  0  0  0  0
   -6.2589    4.9139  -17.5568 C   0  0  0  0  0  0  0  0  0  0  0  0
   -5.0830    5.0266  -18.3009 N   0  0  0  0  0  0  0  0  0  0  0  0
   -3.7267    7.3050  -18.1249 S   0  0  0  0  0  0  0  0  0  0  0  0
  1  2  1  0
  2  3  1  0
  4  2  1  6
  4  5  1  0
  5  6  1  0
  6  7  1  0
  7  8  1  1
  8  9  1  0
  9 10  2  0
 10 11  1  0
 11 12  2  0
 11 13  1  0
 13 14  1  0
 14 15  2  0
 15 16  1  0
 16 17  2  0
 17 18  1  0
 18 19  2  0
 18 20  1  0
 20 21  1  0
 21 22  1  0
 10 23  1  0
 23 24  2  0
 24 25  1  0
 24 26  1  0
 26 27  2  0
 27 28  1  0
  7 29  1  0
 29  4  1  0
 28  7  1  0
 27  9  1  0
 19 14  1  0
 22 17  1  0
M  END
>  <smiles>  (920) 
C104672-P151

>  <fragmenstein_outcome>  (920) 
acceptable

>  <inchikey>  (920) 
AEYJSYSVOYFEDG-UHFFFAOYSA-N

>  <fragmenstein_mode>  (920) 
expansion

>  <HIPPO Pose ID>  (920) 
19076

>  <Energy>  (920) 
-21.48817

>  <fragmenstein_error>  (920) 


>  <tags>  (920) 
{'openbind_xx01zvns2b_c1_fragmenstein', 'fragmenstein_placed'}

>  <ref_pdb>  (920) 
1

>  <scratch_subdir>  (920) 
/opt/xchem-fragalysis-2/maxwin/BulkDock/SCRATCH/511027/C104672-P151

>  <alias>  (920) 
CC(C)[C@@H]1NN[C@@]2(Cc3c(C(=O)Nc4ccc5c(c4)CNC5)cc(Cl)nc3N2)S1

>  <HIPPO Compound ID>  (920) 
104672

>  <fragmenstein_runtime>  (920) 
6.84658

$$$$
O=C(NCC(F)F)[C@](O)(Nc1ccc2c(c1)CNC2)c1cc(Cl)nc2[nH]ccc12
     RDKit          3D

 29 32  0  0  0  0  0  0  0  0999 V2000
   -7.0895    1.7444  -13.4090 O   0  0  0  0  0  0  0  0  0  0  0  0
   -6.5835    2.7756  -13.1862 C   0  0  0  0  0  0  0  0  0  0  0  0
   -5.2647    3.1088  -12.4292 N   0  0  0  0  0  0  0  0  0  0  0  0
   -4.2524    2.2344  -11.8755 C   0  0  0  0  0  0  0  0  0  0  0  0
   -4.5036    1.8169  -10.4272 C   0  0  0  0  0  0  0  0  0  0  0  0
   -3.2994    1.7193   -9.7937 F   0  0  0  0  0  0  0  0  0  0  0  0
   -5.0692    0.5878  -10.3537 F   0  0  0  0  0  0  0  0  0  0  0  0
   -7.2251    4.2035  -13.5840 C   0  0  2  0  0  0  0  0  0  0  0  0
   -6.4138    5.3115  -13.2092 O   0  0  0  0  0  0  0  0  0  0  0  0
   -8.5260    4.3819  -12.8995 N   0  0  0  0  0  0  0  0  0  0  0  0
   -8.4721    4.3837  -11.4784 C   0  0  0  0  0  0  0  0  0  0  0  0
   -8.1408    5.5549  -10.7665 C   0  0  0  0  0  0  0  0  0  0  0  0
   -8.0858    5.5696   -9.3680 C   0  0  0  0  0  0  0  0  0  0  0  0
   -8.3749    4.4015   -8.6900 C   0  0  0  0  0  0  0  0  0  0  0  0
   -8.7023    3.2417   -9.3765 C   0  0  0  0  0  0  0  0  0  0  0  0
   -8.7427    3.2106  -10.7612 C   0  0  0  0  0  0  0  0  0  0  0  0
   -9.0433    2.1629   -8.4062 C   0  0  0  0  0  0  0  0  0  0  0  0
   -8.7132    2.7058   -7.0592 N   0  0  0  0  0  0  0  0  0  0  0  0
   -8.4749    4.1541   -7.2254 C   0  0  0  0  0  0  0  0  0  0  0  0
   -7.3625    4.3369  -15.0992 C   0  0  0  0  0  0  0  0  0  0  0  0
   -8.6035    4.2129  -15.7661 C   0  0  0  0  0  0  0  0  0  0  0  0
   -8.6787    4.3569  -17.1456 C   0  0  0  0  0  0  0  0  0  0  0  0
  -10.1803    4.1899  -17.9603 Cl  0  0  0  0  0  0  0  0  0  0  0  0
   -7.6526    4.6380  -17.9617 N   0  0  0  0  0  0  0  0  0  0  0  0
   -6.4846    4.7297  -17.3155 C   0  0  0  0  0  0  0  0  0  0  0  0
   -5.2923    4.9518  -17.9447 N   0  0  0  0  0  0  0  0  0  0  0  0
   -4.2853    5.0077  -17.0164 C   0  0  0  0  0  0  0  0  0  0  0  0
   -4.8488    4.7923  -15.7758 C   0  0  0  0  0  0  0  0  0  0  0  0
   -6.2538    4.6020  -15.9503 C   0  0  0  0  0  0  0  0  0  0  0  0
  1  2  2  0
  2  3  1  0
  3  4  1  0
  4  5  1  0
  5  6  1  0
  5  7  1  0
  2  8  1  0
  8  9  1  1
  8 10  1  0
 10 11  1  0
 11 12  2  0
 12 13  1  0
 13 14  2  0
 14 15  1  0
 15 16  2  0
 15 17  1  0
 17 18  1  0
 18 19  1  0
  8 20  1  0
 20 21  2  0
 21 22  1  0
 22 23  1  0
 22 24  2  0
 24 25  1  0
 25 26  1  0
 26 27  1  0
 27 28  2  0
 28 29  1  0
 16 11  1  0
 29 20  1  0
 19 14  1  0
 29 25  2  0
M  END
>  <smiles>  (921) 
C104635-P151

>  <fragmenstein_outcome>  (921) 
acceptable

>  <inchikey>  (921) 
DHKUENUDVQPLCB-UHFFFAOYSA-N

>  <fragmenstein_mode>  (921) 
expansion

>  <HIPPO Pose ID>  (921) 
19077

>  <Energy>  (921) 
107.443823

>  <fragmenstein_error>  (921) 


>  <tags>  (921) 
{'openbind_xx01zvns2b_c1_fragmenstein', 'fragmenstein_placed'}

>  <ref_pdb>  (921) 
1

>  <scratch_subdir>  (921) 
/opt/xchem-fragalysis-2/maxwin/BulkDock/SCRATCH/511027/C104635-P151

>  <alias>  (921) 
O=C(NCC(F)F)[C@](O)(Nc1ccc2c(c1)CNC2)c1cc(Cl)nc2[nH]ccc12

>  <HIPPO Compound ID>  (921) 
104891

>  <fragmenstein_runtime>  (921) 
5.539785

$$$$
Cc1cc(NC(=O)c2cc(Cl)[nH]c3[n+]([O-])ccc2-3)cc2c1CNC2
     RDKit          3D

 24 27  0  0  0  0  0  0  0  0999 V2000
   -8.1078    6.9805   -8.4797 C   0  0  0  0  0  0  0  0  0  0  0  0
   -8.1970    5.7162   -9.2765 C   0  0  0  0  0  0  0  0  0  0  0  0
   -8.0227    5.7274  -10.6718 C   0  0  0  0  0  0  0  0  0  0  0  0
   -8.0555    4.5355  -11.4150 C   0  0  0  0  0  0  0  0  0  0  0  0
   -7.8502    4.5908  -12.7912 N   0  0  0  0  0  0  0  0  0  0  0  0
   -7.5341    3.4651  -13.8067 C   0  0  0  0  0  0  0  0  0  0  0  0
   -7.3210    2.3303  -13.6360 O   0  0  0  0  0  0  0  0  0  0  0  0
   -7.5972    4.0634  -15.1713 C   0  0  0  0  0  0  0  0  0  0  0  0
   -8.8609    4.0768  -15.9002 C   0  0  0  0  0  0  0  0  0  0  0  0
   -8.9293    4.4191  -17.1956 C   0  0  0  0  0  0  0  0  0  0  0  0
  -10.3609    4.3521  -18.1149 Cl  0  0  0  0  0  0  0  0  0  0  0  0
   -7.8362    4.8470  -17.9076 N   0  0  0  0  0  0  0  0  0  0  0  0
   -6.6525    4.8507  -17.3175 C   0  0  0  0  0  0  0  0  0  0  0  0
   -5.2692    5.1508  -17.7445 N   0  0  0  0  0  0  0  0  0  0  0  0
   -4.9562    5.5352  -18.9108 O   0  0  0  0  0  0  0  0  0  0  0  0
   -4.3873    4.9476  -16.5833 C   0  0  0  0  0  0  0  0  0  0  0  0
   -5.0924    4.5497  -15.5003 C   0  0  0  0  0  0  0  0  0  0  0  0
   -6.4967    4.4575  -15.8239 C   0  0  0  0  0  0  0  0  0  0  0  0
   -8.3100    3.3187  -10.7819 C   0  0  0  0  0  0  0  0  0  0  0  0
   -8.5144    3.3184   -9.4123 C   0  0  0  0  0  0  0  0  0  0  0  0
   -8.4253    4.4876   -8.6655 C   0  0  0  0  0  0  0  0  0  0  0  0
   -8.6496    4.1590   -7.2266 C   0  0  0  0  0  0  0  0  0  0  0  0
   -8.7558    2.6878   -7.1332 N   0  0  0  0  0  0  0  0  0  0  0  0
   -8.8847    2.1775   -8.5265 C   0  0  0  0  0  0  0  0  0  0  0  0
  1  2  1  0
  2  3  2  0
  3  4  1  0
  4  5  1  0
  5  6  1  0
  6  7  2  0
  6  8  1  0
  8  9  1  0
  9 10  2  0
 10 11  1  0
 10 12  1  0
 12 13  1  0
 13 14  2  0
 14 15  1  0
 14 16  1  0
 16 17  2  0
 17 18  1  0
  4 19  2  0
 19 20  1  0
 20 21  2  0
 21 22  1  0
 22 23  1  0
 23 24  1  0
 21  2  1  0
 18  8  2  0
 24 20  1  0
 18 13  1  0
M  CHG  2  14   1  15  -1
M  END
>  <smiles>  (922) 
C104681-P151

>  <fragmenstein_outcome>  (922) 
acceptable

>  <inchikey>  (922) 
LZGMDUHFPZMMDH-UHFFFAOYSA-N

>  <fragmenstein_mode>  (922) 
expansion

>  <HIPPO Pose ID>  (922) 
19079

>  <Energy>  (922) 
87.896357

>  <fragmenstein_error>  (922) 


>  <tags>  (922) 
{'openbind_xx01zvns2b_c1_fragmenstein', 'fragmenstein_placed'}

>  <ref_pdb>  (922) 
1

>  <scratch_subdir>  (922) 
/opt/xchem-fragalysis-2/maxwin/BulkDock/SCRATCH/511027/C104681-P151

>  <alias>  (922) 
Cc1cc(NC(=O)c2cc(Cl)[nH]c3[n+]([O-])ccc2-3)cc2c1CNC2

>  <HIPPO Compound ID>  (922) 
86552

>  <fragmenstein_runtime>  (922) 
3.73448

$$$$
Cc1c[nH]c2nc(Cl)cc([C@@](O)(Nc3ccc4c(c3)CNC4)C(=O)NCC(F)F)c12
     RDKit          3D

 30 33  0  0  0  0  0  0  0  0999 V2000
   -3.8627    4.8132  -14.7606 C   0  0  0  0  0  0  0  0  0  0  0  0
   -4.7832    4.8546  -15.9243 C   0  0  0  0  0  0  0  0  0  0  0  0
   -4.3325    5.0772  -17.2165 C   0  0  0  0  0  0  0  0  0  0  0  0
   -5.3970    5.0070  -18.0625 N   0  0  0  0  0  0  0  0  0  0  0  0
   -6.5312    4.7704  -17.3481 C   0  0  0  0  0  0  0  0  0  0  0  0
   -7.7221    4.6620  -17.9447 N   0  0  0  0  0  0  0  0  0  0  0  0
   -8.7095    4.3693  -17.0988 C   0  0  0  0  0  0  0  0  0  0  0  0
  -10.2314    4.1831  -17.8679 Cl  0  0  0  0  0  0  0  0  0  0  0  0
   -8.5739    4.2325  -15.7269 C   0  0  0  0  0  0  0  0  0  0  0  0
   -7.3064    4.3735  -15.0957 C   0  0  0  0  0  0  0  0  0  0  0  0
   -7.1859    4.2341  -13.5676 C   0  0  1  0  0  0  0  0  0  0  0  0
   -6.4328    5.3622  -13.1608 O   0  0  0  0  0  0  0  0  0  0  0  0
   -8.5049    4.3687  -12.8958 N   0  0  0  0  0  0  0  0  0  0  0  0
   -8.4767    4.3500  -11.4730 C   0  0  0  0  0  0  0  0  0  0  0  0
   -8.1836    5.5151  -10.7341 C   0  0  0  0  0  0  0  0  0  0  0  0
   -8.1536    5.5058   -9.3342 C   0  0  0  0  0  0  0  0  0  0  0  0
   -8.4400    4.3221   -8.6832 C   0  0  0  0  0  0  0  0  0  0  0  0
   -8.7201    3.1644   -9.3968 C   0  0  0  0  0  0  0  0  0  0  0  0
   -8.7289    3.1569  -10.7816 C   0  0  0  0  0  0  0  0  0  0  0  0
   -8.9886    2.0483   -8.4425 C   0  0  0  0  0  0  0  0  0  0  0  0
   -9.1800    2.7048   -7.1211 N   0  0  0  0  0  0  0  0  0  0  0  0
   -8.5240    4.0261   -7.2246 C   0  0  0  0  0  0  0  0  0  0  0  0
   -6.5328    2.8120  -13.1650 C   0  0  0  0  0  0  0  0  0  0  0  0
   -6.9914    1.7744  -13.4517 O   0  0  0  0  0  0  0  0  0  0  0  0
   -5.2336    3.1576  -12.3834 N   0  0  0  0  0  0  0  0  0  0  0  0
   -4.2860    2.2987  -11.7148 C   0  0  0  0  0  0  0  0  0  0  0  0
   -4.4575    2.2270  -10.2075 C   0  0  0  0  0  0  0  0  0  0  0  0
   -3.4760    1.4354   -9.6960 F   0  0  0  0  0  0  0  0  0  0  0  0
   -4.2474    3.4646   -9.6769 F   0  0  0  0  0  0  0  0  0  0  0  0
   -6.2179    4.6512  -15.9911 C   0  0  0  0  0  0  0  0  0  0  0  0
  1  2  1  0
  2  3  2  0
  3  4  1  0
  4  5  1  0
  5  6  2  0
  6  7  1  0
  7  8  1  0
  7  9  2  0
  9 10  1  0
 10 11  1  0
 11 12  1  1
 11 13  1  0
 13 14  1  0
 14 15  2  0
 15 16  1  0
 16 17  2  0
 17 18  1  0
 18 19  2  0
 18 20  1  0
 20 21  1  0
 21 22  1  0
 11 23  1  0
 23 24  2  0
 23 25  1  0
 25 26  1  0
 26 27  1  0
 27 28  1  0
 27 29  1  0
 10 30  2  0
 30  2  1  0
 30  5  1  0
 19 14  1  0
 22 17  1  0
M  END
>  <smiles>  (923) 
C104683-P151

>  <fragmenstein_outcome>  (923) 
acceptable

>  <inchikey>  (923) 
HCWLOUKSLZPXKU-UHFFFAOYSA-N

>  <fragmenstein_mode>  (923) 
expansion

>  <HIPPO Pose ID>  (923) 
19080

>  <Energy>  (923) 
110.443162

>  <fragmenstein_error>  (923) 


>  <tags>  (923) 
{'openbind_xx01zvns2b_c1_fragmenstein', 'fragmenstein_placed'}

>  <ref_pdb>  (923) 
1

>  <scratch_subdir>  (923) 
/opt/xchem-fragalysis-2/maxwin/BulkDock/SCRATCH/511027/C104683-P151

>  <alias>  (923) 
Cc1c[nH]c2nc(Cl)cc([C@@](O)(Nc3ccc4c(c3)CNC4)C(=O)NCC(F)F)c12

>  <HIPPO Compound ID>  (923) 
95089

>  <fragmenstein_runtime>  (923) 
5.117698

$$$$
O=C1C=c2c(C(=O)Nc3ccc4c(c3)CNC4)cc(Cl)nc2=N1
     RDKit          3D

 23 26  0  0  0  0  0  0  0  0999 V2000
   -3.1502    5.4070  -16.5638 O   0  0  0  0  0  0  0  0  0  0  0  0
   -4.3424    5.1544  -16.5569 C   0  0  0  0  0  0  0  0  0  0  0  0
   -5.0512    4.6337  -15.3689 C   0  0  0  0  0  0  0  0  0  0  0  0
   -6.3282    4.4887  -15.7106 C   0  0  0  0  0  0  0  0  0  0  0  0
   -7.5133    4.0355  -15.0722 C   0  0  0  0  0  0  0  0  0  0  0  0
   -7.5334    3.4239  -13.7193 C   0  0  0  0  0  0  0  0  0  0  0  0
   -7.3878    2.2774  -13.5603 O   0  0  0  0  0  0  0  0  0  0  0  0
   -7.7981    4.5534  -12.6942 N   0  0  0  0  0  0  0  0  0  0  0  0
   -8.0243    4.4938  -11.3229 C   0  0  0  0  0  0  0  0  0  0  0  0
   -7.9704    5.6801  -10.5728 C   0  0  0  0  0  0  0  0  0  0  0  0
   -8.1525    5.6528   -9.1856 C   0  0  0  0  0  0  0  0  0  0  0  0
   -8.4232    4.4369   -8.5825 C   0  0  0  0  0  0  0  0  0  0  0  0
   -8.5314    3.2746   -9.3340 C   0  0  0  0  0  0  0  0  0  0  0  0
   -8.3153    3.2788  -10.7012 C   0  0  0  0  0  0  0  0  0  0  0  0
   -8.9281    2.1399   -8.4524 C   0  0  0  0  0  0  0  0  0  0  0  0
   -8.8025    2.6496   -7.0576 N   0  0  0  0  0  0  0  0  0  0  0  0
   -8.6736    4.1192   -7.1485 C   0  0  0  0  0  0  0  0  0  0  0  0
   -8.6587    4.0265  -15.7645 C   0  0  0  0  0  0  0  0  0  0  0  0
   -8.5842    4.4290  -17.1932 C   0  0  0  0  0  0  0  0  0  0  0  0
  -10.0129    4.2955  -18.1498 Cl  0  0  0  0  0  0  0  0  0  0  0  0
   -7.5261    4.8708  -17.7958 N   0  0  0  0  0  0  0  0  0  0  0  0
   -6.3585    4.9107  -17.1049 C   0  0  0  0  0  0  0  0  0  0  0  0
   -5.2327    5.3091  -17.5878 N   0  0  0  0  0  0  0  0  0  0  0  0
  1  2  2  0
  2  3  1  0
  3  4  2  0
  4  5  1  0
  5  6  1  0
  6  7  2  0
  6  8  1  0
  8  9  1  0
  9 10  2  0
 10 11  1  0
 11 12  2  0
 12 13  1  0
 13 14  2  0
 13 15  1  0
 15 16  1  0
 16 17  1  0
  5 18  2  0
 18 19  1  0
 19 20  1  0
 19 21  2  0
 21 22  1  0
 22 23  2  0
 23  2  1  0
 22  4  1  0
 14  9  1  0
 17 12  1  0
M  END
>  <smiles>  (924) 
C104644-P151

>  <fragmenstein_outcome>  (924) 
acceptable

>  <inchikey>  (924) 
GIWKPDQMOKSSIJ-UHFFFAOYSA-N

>  <fragmenstein_mode>  (924) 
expansion

>  <HIPPO Pose ID>  (924) 
19081

>  <Energy>  (924) 
-33.317105

>  <fragmenstein_error>  (924) 


>  <tags>  (924) 
{'openbind_xx01zvns2b_c1_fragmenstein', 'fragmenstein_placed'}

>  <ref_pdb>  (924) 
1

>  <scratch_subdir>  (924) 
/opt/xchem-fragalysis-2/maxwin/BulkDock/SCRATCH/511027/C104644-P151

>  <alias>  (924) 
O=C1C=c2c(C(=O)Nc3ccc4c(c3)CNC4)cc(Cl)nc2=N1

>  <HIPPO Compound ID>  (924) 
104644

>  <fragmenstein_runtime>  (924) 
2.518498

$$$$
CC1=c2c(C(=O)Nc3ccc4c(c3)CNC4)cc(Cl)nc2=C(OC(C)C)C1=O
     RDKit          3D

 28 31  0  0  0  0  0  0  0  0999 V2000
   -4.2859    4.1102  -14.0419 C   0  0  0  0  0  0  0  0  0  0  0  0
   -4.9912    4.5755  -15.2583 C   0  0  0  0  0  0  0  0  0  0  0  0
   -6.2587    4.5200  -15.6940 C   0  0  0  0  0  0  0  0  0  0  0  0
   -7.4389    3.9849  -15.0603 C   0  0  0  0  0  0  0  0  0  0  0  0
   -7.4907    3.3634  -13.7114 C   0  0  0  0  0  0  0  0  0  0  0  0
   -7.3913    2.2117  -13.5491 O   0  0  0  0  0  0  0  0  0  0  0  0
   -7.7272    4.5053  -12.6898 N   0  0  0  0  0  0  0  0  0  0  0  0
   -7.9753    4.4563  -11.3220 C   0  0  0  0  0  0  0  0  0  0  0  0
   -7.9113    5.6469  -10.5789 C   0  0  0  0  0  0  0  0  0  0  0  0
   -8.1120    5.6334   -9.1942 C   0  0  0  0  0  0  0  0  0  0  0  0
   -8.4066    4.4258   -8.5859 C   0  0  0  0  0  0  0  0  0  0  0  0
   -8.5242    3.2601   -9.3310 C   0  0  0  0  0  0  0  0  0  0  0  0
   -8.2952    3.2515  -10.6962 C   0  0  0  0  0  0  0  0  0  0  0  0
   -8.9409    2.1366   -8.4446 C   0  0  0  0  0  0  0  0  0  0  0  0
   -8.8089    2.6518   -7.0520 N   0  0  0  0  0  0  0  0  0  0  0  0
   -8.6720    4.1203   -7.1521 C   0  0  0  0  0  0  0  0  0  0  0  0
   -8.5947    3.9903  -15.7374 C   0  0  0  0  0  0  0  0  0  0  0  0
   -8.5564    4.4909  -17.1326 C   0  0  0  0  0  0  0  0  0  0  0  0
   -9.9779    4.3208  -18.0997 Cl  0  0  0  0  0  0  0  0  0  0  0  0
   -7.5402    5.0611  -17.7059 N   0  0  0  0  0  0  0  0  0  0  0  0
   -6.3545    5.1069  -17.0238 C   0  0  0  0  0  0  0  0  0  0  0  0
   -5.1812    5.6186  -17.4217 C   0  0  0  0  0  0  0  0  0  0  0  0
   -4.7417    6.2880  -18.5162 O   0  0  0  0  0  0  0  0  0  0  0  0
   -5.5747    6.3283  -19.6725 C   0  0  0  0  0  0  0  0  0  0  0  0
   -5.0276    7.4460  -20.5584 C   0  0  0  0  0  0  0  0  0  0  0  0
   -5.4741    4.9985  -20.4010 C   0  0  0  0  0  0  0  0  0  0  0  0
   -4.2442    5.2458  -16.3475 C   0  0  0  0  0  0  0  0  0  0  0  0
   -3.0420    5.4413  -16.3673 O   0  0  0  0  0  0  0  0  0  0  0  0
  1  2  1  0
  2  3  2  0
  3  4  1  0
  4  5  1  0
  5  6  2  0
  5  7  1  0
  7  8  1  0
  8  9  2  0
  9 10  1  0
 10 11  2  0
 11 12  1  0
 12 13  2  0
 12 14  1  0
 14 15  1  0
 15 16  1  0
  4 17  2  0
 17 18  1  0
 18 19  1  0
 18 20  2  0
 20 21  1  0
 21 22  2  0
 22 23  1  0
 23 24  1  0
 24 25  1  0
 24 26  1  0
 22 27  1  0
 27 28  2  0
 27  2  1  0
 21  3  1  0
 13  8  1  0
 16 11  1  0
M  END
>  <smiles>  (925) 
C104686-P151

>  <fragmenstein_outcome>  (925) 
acceptable

>  <inchikey>  (925) 
BQEGYFKZPQGSCT-UHFFFAOYSA-N

>  <fragmenstein_mode>  (925) 
expansion

>  <HIPPO Pose ID>  (925) 
19082

>  <Energy>  (925) 
56.693146

>  <fragmenstein_error>  (925) 


>  <tags>  (925) 
{'openbind_xx01zvns2b_c1_fragmenstein', 'fragmenstein_placed'}

>  <ref_pdb>  (925) 
1

>  <scratch_subdir>  (925) 
/opt/xchem-fragalysis-2/maxwin/BulkDock/SCRATCH/511027/C104686-P151

>  <alias>  (925) 
CC1=c2c(C(=O)Nc3ccc4c(c3)CNC4)cc(Cl)nc2=C(OC(C)C)C1=O

>  <HIPPO Compound ID>  (925) 
104686

>  <fragmenstein_runtime>  (925) 
3.394829

$$$$
CNCn1ccc2c(C(=O)Nc3ccc4c(c3)CNC4)cc(Cl)nc21
     RDKit          3D

 25 28  0  0  0  0  0  0  0  0999 V2000
   -5.2252    6.2052  -21.6314 C   0  0  0  0  0  0  0  0  0  0  0  0
   -5.7041    6.0698  -20.2675 N   0  0  0  0  0  0  0  0  0  0  0  0
   -5.4206    4.7501  -19.7198 C   0  0  0  0  0  0  0  0  0  0  0  0
   -5.5473    4.8689  -18.2725 N   0  0  0  0  0  0  0  0  0  0  0  0
   -4.5287    5.1748  -17.3954 C   0  0  0  0  0  0  0  0  0  0  0  0
   -5.0621    5.2229  -16.1240 C   0  0  0  0  0  0  0  0  0  0  0  0
   -6.4486    4.9175  -16.2247 C   0  0  0  0  0  0  0  0  0  0  0  0
   -7.5435    4.8225  -15.3440 C   0  0  0  0  0  0  0  0  0  0  0  0
   -7.3969    5.2549  -13.9355 C   0  0  0  0  0  0  0  0  0  0  0  0
   -6.8617    6.2748  -13.7382 O   0  0  0  0  0  0  0  0  0  0  0  0
   -7.9894    4.2245  -12.9438 N   0  0  0  0  0  0  0  0  0  0  0  0
   -8.1266    4.2774  -11.5565 C   0  0  0  0  0  0  0  0  0  0  0  0
   -7.7895    5.4404  -10.8455 C   0  0  0  0  0  0  0  0  0  0  0  0
   -7.8959    5.4890   -9.4518 C   0  0  0  0  0  0  0  0  0  0  0  0
   -8.3219    4.3549   -8.7879 C   0  0  0  0  0  0  0  0  0  0  0  0
   -8.6620    3.2033   -9.4854 C   0  0  0  0  0  0  0  0  0  0  0  0
   -8.5855    3.1508  -10.8705 C   0  0  0  0  0  0  0  0  0  0  0  0
   -9.1040    2.1564   -8.5193 C   0  0  0  0  0  0  0  0  0  0  0  0
   -8.7950    2.6893   -7.1623 N   0  0  0  0  0  0  0  0  0  0  0  0
   -8.5216    4.1321   -7.3295 C   0  0  0  0  0  0  0  0  0  0  0  0
   -8.7926    4.4824  -15.8617 C   0  0  0  0  0  0  0  0  0  0  0  0
   -8.8976    4.3061  -17.2293 C   0  0  0  0  0  0  0  0  0  0  0  0
  -10.4252    4.0812  -17.9669 Cl  0  0  0  0  0  0  0  0  0  0  0  0
   -7.8965    4.3838  -18.1208 N   0  0  0  0  0  0  0  0  0  0  0  0
   -6.7103    4.6889  -17.5720 C   0  0  0  0  0  0  0  0  0  0  0  0
  1  2  1  0
  2  3  1  0
  3  4  1  0
  4  5  1  0
  5  6  2  0
  6  7  1  0
  7  8  2  0
  8  9  1  0
  9 10  2  0
  9 11  1  0
 11 12  1  0
 12 13  2  0
 13 14  1  0
 14 15  2  0
 15 16  1  0
 16 17  2  0
 16 18  1  0
 18 19  1  0
 19 20  1  0
  8 21  1  0
 21 22  2  0
 22 23  1  0
 22 24  1  0
 24 25  2  0
 25  4  1  0
 25  7  1  0
 17 12  1  0
 20 15  1  0
M  END
>  <smiles>  (926) 
C104693-P151

>  <fragmenstein_outcome>  (926) 
acceptable

>  <inchikey>  (926) 
SNVBWROZMUSZOK-UHFFFAOYSA-N

>  <fragmenstein_mode>  (926) 
expansion

>  <HIPPO Pose ID>  (926) 
19084

>  <Energy>  (926) 
45.51716

>  <fragmenstein_error>  (926) 


>  <tags>  (926) 
{'openbind_xx01zvns2b_c1_fragmenstein', 'fragmenstein_placed'}

>  <ref_pdb>  (926) 
1

>  <scratch_subdir>  (926) 
/opt/xchem-fragalysis-2/maxwin/BulkDock/SCRATCH/511027/C104693-P151

>  <alias>  (926) 
CNCn1ccc2c(C(=O)Nc3ccc4c(c3)CNC4)cc(Cl)nc21

>  <HIPPO Compound ID>  (926) 
97445

>  <fragmenstein_runtime>  (926) 
5.803736

$$$$
O=C(NCCCF)[C@](O)(Nc1ccc2c(c1)CNC2)c1cc(Cl)nc2[nH]ccc12
     RDKit          3D

 29 32  0  0  0  0  0  0  0  0999 V2000
   -7.1710    1.8732  -13.3072 O   0  0  0  0  0  0  0  0  0  0  0  0
   -6.5702    2.8770  -13.2561 C   0  0  0  0  0  0  0  0  0  0  0  0
   -5.0646    3.1398  -12.9258 N   0  0  0  0  0  0  0  0  0  0  0  0
   -4.0340    2.2378  -12.5043 C   0  0  0  0  0  0  0  0  0  0  0  0
   -4.1170    1.9591  -11.0105 C   0  0  0  0  0  0  0  0  0  0  0  0
   -2.9447    1.0976  -10.5928 C   0  0  0  0  0  0  0  0  0  0  0  0
   -1.7926    1.7569  -10.9054 F   0  0  0  0  0  0  0  0  0  0  0  0
   -7.1775    4.3456  -13.5649 C   0  0  2  0  0  0  0  0  0  0  0  0
   -6.2969    5.3900  -13.1471 O   0  0  0  0  0  0  0  0  0  0  0  0
   -8.4464    4.6357  -12.8744 N   0  0  0  0  0  0  0  0  0  0  0  0
   -8.4751    4.5290  -11.4698 C   0  0  0  0  0  0  0  0  0  0  0  0
   -8.2617    5.6743  -10.6677 C   0  0  0  0  0  0  0  0  0  0  0  0
   -8.2478    5.5988   -9.2711 C   0  0  0  0  0  0  0  0  0  0  0  0
   -8.4818    4.3703   -8.6858 C   0  0  0  0  0  0  0  0  0  0  0  0
   -8.6904    3.2357   -9.4612 C   0  0  0  0  0  0  0  0  0  0  0  0
   -8.6662    3.2926  -10.8466 C   0  0  0  0  0  0  0  0  0  0  0  0
   -8.9430    2.0673   -8.5655 C   0  0  0  0  0  0  0  0  0  0  0  0
   -9.1861    2.6532   -7.2173 N   0  0  0  0  0  0  0  0  0  0  0  0
   -8.5819    4.0005   -7.2448 C   0  0  0  0  0  0  0  0  0  0  0  0
   -7.3362    4.4957  -15.0789 C   0  0  0  0  0  0  0  0  0  0  0  0
   -8.5825    4.2695  -15.7112 C   0  0  0  0  0  0  0  0  0  0  0  0
   -8.6983    4.3749  -17.0906 C   0  0  0  0  0  0  0  0  0  0  0  0
  -10.2056    4.1372  -17.8750 Cl  0  0  0  0  0  0  0  0  0  0  0  0
   -7.7048    4.6790  -17.9385 N   0  0  0  0  0  0  0  0  0  0  0  0
   -6.5271    4.8402  -17.3258 C   0  0  0  0  0  0  0  0  0  0  0  0
   -5.3603    5.0718  -17.9974 N   0  0  0  0  0  0  0  0  0  0  0  0
   -4.3331    5.2053  -17.1013 C   0  0  0  0  0  0  0  0  0  0  0  0
   -4.8590    5.0359  -15.8374 C   0  0  0  0  0  0  0  0  0  0  0  0
   -6.2590    4.7819  -15.9624 C   0  0  0  0  0  0  0  0  0  0  0  0
  1  2  2  0
  2  3  1  0
  3  4  1  0
  4  5  1  0
  5  6  1  0
  6  7  1  0
  2  8  1  0
  8  9  1  1
  8 10  1  0
 10 11  1  0
 11 12  2  0
 12 13  1  0
 13 14  2  0
 14 15  1  0
 15 16  2  0
 15 17  1  0
 17 18  1  0
 18 19  1  0
  8 20  1  0
 20 21  2  0
 21 22  1  0
 22 23  1  0
 22 24  2  0
 24 25  1  0
 25 26  1  0
 26 27  1  0
 27 28  2  0
 28 29  1  0
 16 11  1  0
 29 20  1  0
 19 14  1  0
 29 25  2  0
M  END
>  <smiles>  (927) 
C104702-P151

>  <fragmenstein_outcome>  (927) 
acceptable

>  <inchikey>  (927) 
PBVHILNKFVPIEK-UHFFFAOYSA-N

>  <fragmenstein_mode>  (927) 
expansion

>  <HIPPO Pose ID>  (927) 
19085

>  <Energy>  (927) 
72.405267

>  <fragmenstein_error>  (927) 


>  <tags>  (927) 
{'openbind_xx01zvns2b_c1_fragmenstein', 'fragmenstein_placed'}

>  <ref_pdb>  (927) 
1

>  <scratch_subdir>  (927) 
/opt/xchem-fragalysis-2/maxwin/BulkDock/SCRATCH/511027/C104702-P151

>  <alias>  (927) 
O=C(NCCCF)[C@](O)(Nc1ccc2c(c1)CNC2)c1cc(Cl)nc2[nH]ccc12

>  <HIPPO Compound ID>  (927) 
104702

>  <fragmenstein_runtime>  (927) 
5.826299

$$$$
CC(C)NC(=O)[C@](O)(Nc1ccc2c(c1)CNC2)c1cc(Cl)nc2c1cc(F)n2F
     RDKit          3D

 30 33  0  0  0  0  0  0  0  0999 V2000
   -4.0217    2.4592  -10.4027 C   0  0  0  0  0  0  0  0  0  0  0  0
   -4.4952    2.0369  -11.7824 C   0  0  0  0  0  0  0  0  0  0  0  0
   -3.3424    1.8656  -12.7624 C   0  0  0  0  0  0  0  0  0  0  0  0
   -5.4403    2.9807  -12.3187 N   0  0  0  0  0  0  0  0  0  0  0  0
   -6.7239    2.7533  -13.1597 C   0  0  0  0  0  0  0  0  0  0  0  0
   -7.2528    1.7618  -13.4808 O   0  0  0  0  0  0  0  0  0  0  0  0
   -7.2861    4.2178  -13.5178 C   0  0  2  0  0  0  0  0  0  0  0  0
   -6.4420    5.2864  -13.1107 O   0  0  0  0  0  0  0  0  0  0  0  0
   -8.5922    4.4386  -12.8542 N   0  0  0  0  0  0  0  0  0  0  0  0
   -8.5564    4.3952  -11.4291 C   0  0  0  0  0  0  0  0  0  0  0  0
   -8.2881    5.5606  -10.6794 C   0  0  0  0  0  0  0  0  0  0  0  0
   -8.2361    5.5341   -9.2807 C   0  0  0  0  0  0  0  0  0  0  0  0
   -8.4821    4.3345   -8.6421 C   0  0  0  0  0  0  0  0  0  0  0  0
   -8.7405    3.1784   -9.3673 C   0  0  0  0  0  0  0  0  0  0  0  0
   -8.7632    3.1860  -10.7515 C   0  0  0  0  0  0  0  0  0  0  0  0
   -8.9772    2.0452   -8.4252 C   0  0  0  0  0  0  0  0  0  0  0  0
   -9.1772    2.6837   -7.0951 N   0  0  0  0  0  0  0  0  0  0  0  0
   -8.5472    4.0179   -7.1869 C   0  0  0  0  0  0  0  0  0  0  0  0
   -7.3850    4.3707  -15.0378 C   0  0  0  0  0  0  0  0  0  0  0  0
   -8.6064    4.2490  -15.7374 C   0  0  0  0  0  0  0  0  0  0  0  0
   -8.6453    4.3928  -17.1180 C   0  0  0  0  0  0  0  0  0  0  0  0
  -10.1240    4.2038  -17.9703 Cl  0  0  0  0  0  0  0  0  0  0  0  0
   -7.5994    4.6838  -17.9054 N   0  0  0  0  0  0  0  0  0  0  0  0
   -6.4364    4.7584  -17.2369 C   0  0  0  0  0  0  0  0  0  0  0  0
   -6.2475    4.6127  -15.8584 C   0  0  0  0  0  0  0  0  0  0  0  0
   -4.8415    4.7614  -15.6232 C   0  0  0  0  0  0  0  0  0  0  0  0
   -4.2434    4.9927  -16.8379 C   0  0  0  0  0  0  0  0  0  0  0  0
   -2.9337    5.1958  -17.0356 F   0  0  0  0  0  0  0  0  0  0  0  0
   -5.2084    4.9845  -17.7906 N   0  0  0  0  0  0  0  0  0  0  0  0
   -4.9715    5.2372  -19.1199 F   0  0  0  0  0  0  0  0  0  0  0  0
  1  2  1  0
  2  3  1  0
  2  4  1  0
  4  5  1  0
  5  6  2  0
  5  7  1  0
  7  8  1  1
  7  9  1  0
  9 10  1  0
 10 11  2  0
 11 12  1  0
 12 13  2  0
 13 14  1  0
 14 15  2  0
 14 16  1  0
 16 17  1  0
 17 18  1  0
  7 19  1  0
 19 20  2  0
 20 21  1  0
 21 22  1  0
 21 23  2  0
 23 24  1  0
 24 25  2  0
 25 26  1  0
 26 27  2  0
 27 28  1  0
 27 29  1  0
 29 30  1  0
 15 10  1  0
 25 19  1  0
 18 13  1  0
 29 24  1  0
M  END
>  <smiles>  (928) 
C104716-P151

>  <fragmenstein_outcome>  (928) 
acceptable

>  <inchikey>  (928) 
CBYHCEJIKQZBBG-UHFFFAOYSA-N

>  <fragmenstein_mode>  (928) 
expansion

>  <HIPPO Pose ID>  (928) 
19087

>  <Energy>  (928) 
99.61359

>  <fragmenstein_error>  (928) 


>  <tags>  (928) 
{'openbind_xx01zvns2b_c1_fragmenstein', 'fragmenstein_placed'}

>  <ref_pdb>  (928) 
1

>  <scratch_subdir>  (928) 
/opt/xchem-fragalysis-2/maxwin/BulkDock/SCRATCH/511027/C104716-P151

>  <alias>  (928) 
CC(C)NC(=O)[C@](O)(Nc1ccc2c(c1)CNC2)c1cc(Cl)nc2c1cc(F)n2F

>  <HIPPO Compound ID>  (928) 
82496

>  <fragmenstein_runtime>  (928) 
6.597425

$$$$
CNCn1ccc2c(C(=O)Nc3ccc4c(c3)CN(CC(F)F)C4)cc(Cl)nc21
     RDKit          3D

 29 32  0  0  0  0  0  0  0  0999 V2000
   -3.3482    6.3524  -20.5531 C   0  0  0  0  0  0  0  0  0  0  0  0
   -3.7944    5.0057  -20.2189 N   0  0  0  0  0  0  0  0  0  0  0  0
   -5.1976    5.0082  -19.7800 C   0  0  0  0  0  0  0  0  0  0  0  0
   -5.2874    5.1086  -18.3260 N   0  0  0  0  0  0  0  0  0  0  0  0
   -4.3100    5.4398  -17.4175 C   0  0  0  0  0  0  0  0  0  0  0  0
   -4.9036    5.5959  -16.1850 C   0  0  0  0  0  0  0  0  0  0  0  0
   -6.2824    5.3018  -16.3361 C   0  0  0  0  0  0  0  0  0  0  0  0
   -7.4131    5.2910  -15.5114 C   0  0  0  0  0  0  0  0  0  0  0  0
   -7.2969    5.7672  -14.1155 C   0  0  0  0  0  0  0  0  0  0  0  0
   -6.6918    6.7296  -13.8654 O   0  0  0  0  0  0  0  0  0  0  0  0
   -8.0038    4.7683  -13.1908 N   0  0  0  0  0  0  0  0  0  0  0  0
   -8.1905    4.7888  -11.8246 C   0  0  0  0  0  0  0  0  0  0  0  0
   -7.5708    5.6924  -10.9518 C   0  0  0  0  0  0  0  0  0  0  0  0
   -7.6428    5.4960   -9.5625 C   0  0  0  0  0  0  0  0  0  0  0  0
   -8.3707    4.4188   -9.0990 C   0  0  0  0  0  0  0  0  0  0  0  0
   -9.0994    3.6338   -9.9789 C   0  0  0  0  0  0  0  0  0  0  0  0
   -8.9798    3.7657  -11.3365 C   0  0  0  0  0  0  0  0  0  0  0  0
   -9.8086    2.5642   -9.2433 C   0  0  0  0  0  0  0  0  0  0  0  0
   -9.0295    2.4091   -8.0195 N   0  0  0  0  0  0  0  0  0  0  0  0
   -8.0326    1.3842   -8.4080 C   0  0  0  0  0  0  0  0  0  0  0  0
   -6.8700    1.6446   -9.4450 C   0  0  0  0  0  0  0  0  0  0  0  0
   -7.2970    1.7741  -10.7263 F   0  0  0  0  0  0  0  0  0  0  0  0
   -5.9957    0.5993   -9.4916 F   0  0  0  0  0  0  0  0  0  0  0  0
   -8.4483    3.7599   -7.7576 C   0  0  0  0  0  0  0  0  0  0  0  0
   -8.6305    4.8493  -16.0362 C   0  0  0  0  0  0  0  0  0  0  0  0
   -8.6666    4.4898  -17.3680 C   0  0  0  0  0  0  0  0  0  0  0  0
  -10.1505    4.0363  -18.0913 Cl  0  0  0  0  0  0  0  0  0  0  0  0
   -7.6311    4.5272  -18.2220 N   0  0  0  0  0  0  0  0  0  0  0  0
   -6.4790    4.9363  -17.6607 C   0  0  0  0  0  0  0  0  0  0  0  0
  1  2  1  0
  2  3  1  0
  3  4  1  0
  4  5  1  0
  5  6  2  0
  6  7  1  0
  7  8  2  0
  8  9  1  0
  9 10  2  0
  9 11  1  0
 11 12  1  0
 12 13  2  0
 13 14  1  0
 14 15  2  0
 15 16  1  0
 16 17  2  0
 16 18  1  0
 18 19  1  0
 19 20  1  0
 20 21  1  0
 21 22  1  0
 21 23  1  0
 19 24  1  0
  8 25  1  0
 25 26  2  0
 26 27  1  0
 26 28  1  0
 28 29  2  0
 29  4  1  0
 29  7  1  0
 17 12  1  0
 24 15  1  0
M  END
>  <smiles>  (929) 
C104731-P151

>  <fragmenstein_outcome>  (929) 
acceptable

>  <inchikey>  (929) 
FTJGFEZBPTXWOH-UHFFFAOYSA-N

>  <fragmenstein_mode>  (929) 
expansion

>  <HIPPO Pose ID>  (929) 
19089

>  <Energy>  (929) 
114.082415

>  <fragmenstein_error>  (929) 


>  <tags>  (929) 
{'openbind_xx01zvns2b_c1_fragmenstein', 'fragmenstein_placed'}

>  <ref_pdb>  (929) 
1

>  <scratch_subdir>  (929) 
/opt/xchem-fragalysis-2/maxwin/BulkDock/SCRATCH/511027/C104731-P151

>  <alias>  (929) 
CNCn1ccc2c(C(=O)Nc3ccc4c(c3)CN(CC(F)F)C4)cc(Cl)nc21

>  <HIPPO Compound ID>  (929) 
77334

>  <fragmenstein_runtime>  (929) 
5.03493

$$$$
O=C(Nc1ccc2c(c1)CNC2)c1cc(Cl)nc2c1ccn2NC1CCC1
     RDKit          3D

 27 31  0  0  0  0  0  0  0  0999 V2000
   -7.1350    2.4587  -13.6728 O   0  0  0  0  0  0  0  0  0  0  0  0
   -7.3883    3.5886  -13.8118 C   0  0  0  0  0  0  0  0  0  0  0  0
   -7.7656    4.6649  -12.7714 N   0  0  0  0  0  0  0  0  0  0  0  0
   -7.9949    4.5580  -11.4007 C   0  0  0  0  0  0  0  0  0  0  0  0
   -8.0086    5.7278  -10.6226 C   0  0  0  0  0  0  0  0  0  0  0  0
   -8.2154    5.6626   -9.2394 C   0  0  0  0  0  0  0  0  0  0  0  0
   -8.4668    4.4263   -8.6707 C   0  0  0  0  0  0  0  0  0  0  0  0
   -8.5073    3.2750   -9.4479 C   0  0  0  0  0  0  0  0  0  0  0  0
   -8.2413    3.3162  -10.8080 C   0  0  0  0  0  0  0  0  0  0  0  0
   -8.8590    2.1055   -8.5869 C   0  0  0  0  0  0  0  0  0  0  0  0
   -9.2532    2.6843   -7.2703 N   0  0  0  0  0  0  0  0  0  0  0  0
   -8.7098    4.0566   -7.2467 C   0  0  0  0  0  0  0  0  0  0  0  0
   -7.4773    4.1378  -15.1794 C   0  0  0  0  0  0  0  0  0  0  0  0
   -8.7285    4.1269  -15.7994 C   0  0  0  0  0  0  0  0  0  0  0  0
   -8.7888    4.4290  -17.1436 C   0  0  0  0  0  0  0  0  0  0  0  0
  -10.2728    4.3102  -17.9969 Cl  0  0  0  0  0  0  0  0  0  0  0  0
   -7.7526    4.7972  -17.9157 N   0  0  0  0  0  0  0  0  0  0  0  0
   -6.5640    4.7678  -17.2779 C   0  0  0  0  0  0  0  0  0  0  0  0
   -6.3396    4.4793  -15.9330 C   0  0  0  0  0  0  0  0  0  0  0  0
   -4.9329    4.5618  -15.7352 C   0  0  0  0  0  0  0  0  0  0  0  0
   -4.3484    4.8375  -16.9601 C   0  0  0  0  0  0  0  0  0  0  0  0
   -5.3453    4.9361  -17.8980 N   0  0  0  0  0  0  0  0  0  0  0  0
   -5.2251    5.0535  -19.3192 N   0  0  0  0  0  0  0  0  0  0  0  0
   -4.0142    5.6776  -19.8446 C   0  0  0  0  0  0  0  0  0  0  0  0
   -4.3205    6.1772  -21.2825 C   0  0  0  0  0  0  0  0  0  0  0  0
   -4.7294    7.5325  -20.6841 C   0  0  0  0  0  0  0  0  0  0  0  0
   -3.9087    7.1620  -19.4398 C   0  0  0  0  0  0  0  0  0  0  0  0
  1  2  2  0
  2  3  1  0
  3  4  1  0
  4  5  2  0
  5  6  1  0
  6  7  2  0
  7  8  1  0
  8  9  2  0
  8 10  1  0
 10 11  1  0
 11 12  1  0
  2 13  1  0
 13 14  2  0
 14 15  1  0
 15 16  1  0
 15 17  2  0
 17 18  1  0
 18 19  2  0
 19 20  1  0
 20 21  2  0
 21 22  1  0
 22 23  1  0
 23 24  1  0
 24 25  1  0
 25 26  1  0
 26 27  1  0
  9  4  1  0
 19 13  1  0
 27 24  1  0
 12  7  1  0
 22 18  1  0
M  END
>  <smiles>  (930) 
C104735-P151

>  <fragmenstein_outcome>  (930) 
acceptable

>  <inchikey>  (930) 
NCSDXSPAKWGJMJ-UHFFFAOYSA-N

>  <fragmenstein_mode>  (930) 
expansion

>  <HIPPO Pose ID>  (930) 
19092

>  <Energy>  (930) 
55.381079

>  <fragmenstein_error>  (930) 


>  <tags>  (930) 
{'openbind_xx01zvns2b_c1_fragmenstein', 'fragmenstein_placed'}

>  <ref_pdb>  (930) 
1

>  <scratch_subdir>  (930) 
/opt/xchem-fragalysis-2/maxwin/BulkDock/SCRATCH/511027/C104735-P151

>  <alias>  (930) 
O=C(Nc1ccc2c(c1)CNC2)c1cc(Cl)nc2c1ccn2NC1CCC1

>  <HIPPO Compound ID>  (930) 
92155

>  <fragmenstein_runtime>  (930) 
4.77613

$$$$
NNCn1ccc2c(C(=O)Nc3ccc4c(c3)CNC4)cc(Cl)nc21
     RDKit          3D

 25 28  0  0  0  0  0  0  0  0999 V2000
   -5.0937    5.6652  -20.9582 N   0  0  0  0  0  0  0  0  0  0  0  0
   -5.0257    5.0890  -19.6204 N   0  0  0  0  0  0  0  0  0  0  0  0
   -5.0879    6.1700  -18.6341 C   0  0  0  0  0  0  0  0  0  0  0  0
   -5.3058    5.5428  -17.3378 N   0  0  0  0  0  0  0  0  0  0  0  0
   -4.3849    5.3961  -16.3302 C   0  0  0  0  0  0  0  0  0  0  0  0
   -5.0253    4.8137  -15.2534 C   0  0  0  0  0  0  0  0  0  0  0  0
   -6.3815    4.5973  -15.6210 C   0  0  0  0  0  0  0  0  0  0  0  0
   -7.5353    4.0527  -15.0395 C   0  0  0  0  0  0  0  0  0  0  0  0
   -7.5273    3.4754  -13.6865 C   0  0  0  0  0  0  0  0  0  0  0  0
   -7.4348    2.3206  -13.5536 O   0  0  0  0  0  0  0  0  0  0  0  0
   -7.7402    4.5890  -12.6397 N   0  0  0  0  0  0  0  0  0  0  0  0
   -7.9706    4.5095  -11.2704 C   0  0  0  0  0  0  0  0  0  0  0  0
   -7.9032    5.6846  -10.5036 C   0  0  0  0  0  0  0  0  0  0  0  0
   -8.1064    5.6441   -9.1201 C   0  0  0  0  0  0  0  0  0  0  0  0
   -8.4062    4.4256   -8.5368 C   0  0  0  0  0  0  0  0  0  0  0  0
   -8.5226    3.2743   -9.3044 C   0  0  0  0  0  0  0  0  0  0  0  0
   -8.2916    3.2921  -10.6690 C   0  0  0  0  0  0  0  0  0  0  0  0
   -8.9439    2.1347   -8.4414 C   0  0  0  0  0  0  0  0  0  0  0  0
   -8.8185    2.6240   -7.0383 N   0  0  0  0  0  0  0  0  0  0  0  0
   -8.6828    4.0941   -7.1111 C   0  0  0  0  0  0  0  0  0  0  0  0
   -8.7141    3.9957  -15.7805 C   0  0  0  0  0  0  0  0  0  0  0  0
   -8.6803    4.4325  -17.0858 C   0  0  0  0  0  0  0  0  0  0  0  0
  -10.0689    4.2739  -18.0826 Cl  0  0  0  0  0  0  0  0  0  0  0  0
   -7.6213    4.9958  -17.6993 N   0  0  0  0  0  0  0  0  0  0  0  0
   -6.5175    5.0460  -16.9304 C   0  0  0  0  0  0  0  0  0  0  0  0
  1  2  1  0
  2  3  1  0
  3  4  1  0
  4  5  1  0
  5  6  2  0
  6  7  1  0
  7  8  2  0
  8  9  1  0
  9 10  2  0
  9 11  1  0
 11 12  1  0
 12 13  2  0
 13 14  1  0
 14 15  2  0
 15 16  1  0
 16 17  2  0
 16 18  1  0
 18 19  1  0
 19 20  1  0
  8 21  1  0
 21 22  2  0
 22 23  1  0
 22 24  1  0
 24 25  2  0
 25  4  1  0
 25  7  1  0
 17 12  1  0
 20 15  1  0
M  END
>  <smiles>  (931) 
C104736-P151

>  <fragmenstein_outcome>  (931) 
acceptable

>  <inchikey>  (931) 
GVVVZTCSIJLCRX-UHFFFAOYSA-N

>  <fragmenstein_mode>  (931) 
expansion

>  <HIPPO Pose ID>  (931) 
19093

>  <Energy>  (931) 
102.381919

>  <fragmenstein_error>  (931) 


>  <tags>  (931) 
{'openbind_xx01zvns2b_c1_fragmenstein', 'fragmenstein_placed'}

>  <ref_pdb>  (931) 
1

>  <scratch_subdir>  (931) 
/opt/xchem-fragalysis-2/maxwin/BulkDock/SCRATCH/511027/C104736-P151

>  <alias>  (931) 
NNCn1ccc2c(C(=O)Nc3ccc4c(c3)CNC4)cc(Cl)nc21

>  <HIPPO Compound ID>  (931) 
99416

>  <fragmenstein_runtime>  (931) 
3.055432

$$$$
Cc1cc2c(C(=O)Nc3ccc4c(c3)CNC4)cc(Cl)[nH]c-2n1
     RDKit          3D

 23 26  0  0  0  0  0  0  0  0999 V2000
   -3.3127    5.5300  -17.5760 C   0  0  0  0  0  0  0  0  0  0  0  0
   -4.6917    5.2234  -17.1323 C   0  0  0  0  0  0  0  0  0  0  0  0
   -5.1078    4.7761  -15.9302 C   0  0  0  0  0  0  0  0  0  0  0  0
   -6.5151    4.5903  -16.0749 C   0  0  0  0  0  0  0  0  0  0  0  0
   -7.5601    4.1536  -15.3536 C   0  0  0  0  0  0  0  0  0  0  0  0
   -7.3939    3.5758  -13.9787 C   0  0  0  0  0  0  0  0  0  0  0  0
   -7.0669    2.4675  -13.8130 O   0  0  0  0  0  0  0  0  0  0  0  0
   -7.8248    4.6595  -12.9573 N   0  0  0  0  0  0  0  0  0  0  0  0
   -8.0264    4.5763  -11.5784 C   0  0  0  0  0  0  0  0  0  0  0  0
   -8.0549    5.7601  -10.8221 C   0  0  0  0  0  0  0  0  0  0  0  0
   -8.2311    5.7177   -9.4326 C   0  0  0  0  0  0  0  0  0  0  0  0
   -8.4433    4.4886   -8.8330 C   0  0  0  0  0  0  0  0  0  0  0  0
   -8.4754    3.3217   -9.5865 C   0  0  0  0  0  0  0  0  0  0  0  0
   -8.2324    3.3415  -10.9531 C   0  0  0  0  0  0  0  0  0  0  0  0
   -8.7968    2.1651   -8.6951 C   0  0  0  0  0  0  0  0  0  0  0  0
   -9.1673    2.7632   -7.3800 N   0  0  0  0  0  0  0  0  0  0  0  0
   -8.6479    4.1440   -7.3964 C   0  0  0  0  0  0  0  0  0  0  0  0
   -8.8922    4.0928  -15.9712 C   0  0  0  0  0  0  0  0  0  0  0  0
   -9.0499    4.4092  -17.2672 C   0  0  0  0  0  0  0  0  0  0  0  0
  -10.5299    4.3071  -18.0964 Cl  0  0  0  0  0  0  0  0  0  0  0  0
   -8.0213    4.8654  -18.0388 N   0  0  0  0  0  0  0  0  0  0  0  0
   -6.7764    4.9675  -17.5036 C   0  0  0  0  0  0  0  0  0  0  0  0
   -5.6838    5.3718  -18.0862 N   0  0  0  0  0  0  0  0  0  0  0  0
  1  2  1  0
  2  3  2  0
  3  4  1  0
  4  5  2  0
  5  6  1  0
  6  7  2  0
  6  8  1  0
  8  9  1  0
  9 10  2  0
 10 11  1  0
 11 12  2  0
 12 13  1  0
 13 14  2  0
 13 15  1  0
 15 16  1  0
 16 17  1  0
  5 18  1  0
 18 19  2  0
 19 20  1  0
 19 21  1  0
 21 22  1  0
 22 23  2  0
 23  2  1  0
 22  4  1  0
 14  9  1  0
 17 12  1  0
M  END
>  <smiles>  (932) 
C104598-P151

>  <fragmenstein_outcome>  (932) 
acceptable

>  <inchikey>  (932) 
NRNXDLBJHJKWEU-UHFFFAOYSA-N

>  <fragmenstein_mode>  (932) 
expansion

>  <HIPPO Pose ID>  (932) 
19094

>  <Energy>  (932) 
17.680123

>  <fragmenstein_error>  (932) 


>  <tags>  (932) 
{'openbind_xx01zvns2b_c1_fragmenstein', 'fragmenstein_placed'}

>  <ref_pdb>  (932) 
1

>  <scratch_subdir>  (932) 
/opt/xchem-fragalysis-2/maxwin/BulkDock/SCRATCH/511027/C104598-P151

>  <alias>  (932) 
Cc1cc2c(C(=O)Nc3ccc4c(c3)CNC4)cc(Cl)[nH]c-2n1

>  <HIPPO Compound ID>  (932) 
97490

>  <fragmenstein_runtime>  (932) 
3.272519

$$$$
O=C(Nc1ccc2c(c1)CNC2)c1cc(Cl)c2c3c1CCN3CN2
     RDKit          3D

 24 28  0  0  0  0  0  0  0  0999 V2000
   -7.5521    2.3415  -13.5358 O   0  0  0  0  0  0  0  0  0  0  0  0
   -7.5921    3.4987  -13.6699 C   0  0  0  0  0  0  0  0  0  0  0  0
   -7.8689    4.6146  -12.6434 N   0  0  0  0  0  0  0  0  0  0  0  0
   -8.0544    4.5498  -11.2673 C   0  0  0  0  0  0  0  0  0  0  0  0
   -7.9998    5.7291  -10.5086 C   0  0  0  0  0  0  0  0  0  0  0  0
   -8.1660    5.6864   -9.1195 C   0  0  0  0  0  0  0  0  0  0  0  0
   -8.4265    4.4632   -8.5250 C   0  0  0  0  0  0  0  0  0  0  0  0
   -8.5346    3.3073   -9.2858 C   0  0  0  0  0  0  0  0  0  0  0  0
   -8.3278    3.3261  -10.6529 C   0  0  0  0  0  0  0  0  0  0  0  0
   -8.9332    2.1645   -8.4167 C   0  0  0  0  0  0  0  0  0  0  0  0
   -8.7906    2.6583   -7.0169 N   0  0  0  0  0  0  0  0  0  0  0  0
   -8.6769    4.1304   -7.0946 C   0  0  0  0  0  0  0  0  0  0  0  0
   -7.4610    4.0635  -15.0255 C   0  0  0  0  0  0  0  0  0  0  0  0
   -8.5804    4.0037  -15.8962 C   0  0  0  0  0  0  0  0  0  0  0  0
   -8.4727    4.3488  -17.2631 C   0  0  0  0  0  0  0  0  0  0  0  0
   -9.8594    4.2437  -18.2668 Cl  0  0  0  0  0  0  0  0  0  0  0  0
   -7.2509    4.7659  -17.7377 C   0  0  0  0  0  0  0  0  0  0  0  0
   -6.2039    4.7516  -16.8538 C   0  0  0  0  0  0  0  0  0  0  0  0
   -6.2588    4.5182  -15.5085 C   0  0  0  0  0  0  0  0  0  0  0  0
   -4.9013    4.8192  -14.9938 C   0  0  0  0  0  0  0  0  0  0  0  0
   -4.3331    5.6668  -16.2035 C   0  0  0  0  0  0  0  0  0  0  0  0
   -4.9331    5.1149  -17.4156 N   0  0  0  0  0  0  0  0  0  0  0  0
   -5.4557    5.8126  -18.5937 C   0  0  0  0  0  0  0  0  0  0  0  0
   -6.7349    5.1673  -18.9753 N   0  0  0  0  0  0  0  0  0  0  0  0
  1  2  2  0
  2  3  1  0
  3  4  1  0
  4  5  2  0
  5  6  1  0
  6  7  2  0
  7  8  1  0
  8  9  2  0
  8 10  1  0
 10 11  1  0
 11 12  1  0
  2 13  1  0
 13 14  2  0
 14 15  1  0
 15 16  1  0
 15 17  2  0
 17 18  1  0
 18 19  2  0
 19 20  1  0
 20 21  1  0
 21 22  1  0
 22 23  1  0
 23 24  1  0
  9  4  1  0
 19 13  1  0
 12  7  1  0
 24 17  1  0
 22 18  1  0
M  END
>  <smiles>  (933) 
C104739-P151

>  <fragmenstein_outcome>  (933) 
acceptable

>  <inchikey>  (933) 
ILDFKLDGHGJTGY-UHFFFAOYSA-N

>  <fragmenstein_mode>  (933) 
expansion

>  <HIPPO Pose ID>  (933) 
19095

>  <Energy>  (933) 
69.851464

>  <fragmenstein_error>  (933) 


>  <tags>  (933) 
{'openbind_xx01zvns2b_c1_fragmenstein', 'fragmenstein_placed'}

>  <ref_pdb>  (933) 
1

>  <scratch_subdir>  (933) 
/opt/xchem-fragalysis-2/maxwin/BulkDock/SCRATCH/511027/C104739-P151

>  <alias>  (933) 
O=C(Nc1ccc2c(c1)CNC2)c1cc(Cl)c2c3c1CCN3CN2

>  <HIPPO Compound ID>  (933) 
104739

>  <fragmenstein_runtime>  (933) 
2.362556

$$$$
CCNn1ccc2c(C(=O)Nc3ccc4c(c3)CNC4)cc(Cl)nc21
     RDKit          3D

 25 28  0  0  0  0  0  0  0  0999 V2000
   -2.6494    7.4682  -18.0373 C   0  0  0  0  0  0  0  0  0  0  0  0
   -4.1574    7.3075  -18.1721 C   0  0  0  0  0  0  0  0  0  0  0  0
   -4.5767    5.9249  -18.3254 N   0  0  0  0  0  0  0  0  0  0  0  0
   -5.0000    5.3106  -17.1239 N   0  0  0  0  0  0  0  0  0  0  0  0
   -4.1656    4.9966  -16.0834 C   0  0  0  0  0  0  0  0  0  0  0  0
   -4.9309    4.5021  -15.0511 C   0  0  0  0  0  0  0  0  0  0  0  0
   -6.2743    4.4464  -15.5075 C   0  0  0  0  0  0  0  0  0  0  0  0
   -7.4977    4.0010  -14.9879 C   0  0  0  0  0  0  0  0  0  0  0  0
   -7.5725    3.4081  -13.6433 C   0  0  0  0  0  0  0  0  0  0  0  0
   -7.4900    2.2518  -13.5164 O   0  0  0  0  0  0  0  0  0  0  0  0
   -7.7877    4.5174  -12.5917 N   0  0  0  0  0  0  0  0  0  0  0  0
   -8.0323    4.4315  -11.2251 C   0  0  0  0  0  0  0  0  0  0  0  0
   -7.9774    5.6031  -10.4511 C   0  0  0  0  0  0  0  0  0  0  0  0
   -8.1899    5.5539   -9.0688 C   0  0  0  0  0  0  0  0  0  0  0  0
   -8.4994    4.3323   -8.4973 C   0  0  0  0  0  0  0  0  0  0  0  0
   -8.5919    3.1817   -9.2711 C   0  0  0  0  0  0  0  0  0  0  0  0
   -8.3405    3.2078  -10.6314 C   0  0  0  0  0  0  0  0  0  0  0  0
   -8.9633    2.0240   -8.4058 C   0  0  0  0  0  0  0  0  0  0  0  0
   -9.3519    2.6210   -7.0969 N   0  0  0  0  0  0  0  0  0  0  0  0
   -8.7602    3.9746   -7.0735 C   0  0  0  0  0  0  0  0  0  0  0  0
   -8.6336    4.0239  -15.7885 C   0  0  0  0  0  0  0  0  0  0  0  0
   -8.4922    4.4640  -17.0879 C   0  0  0  0  0  0  0  0  0  0  0  0
   -9.8324    4.3359  -18.1602 Cl  0  0  0  0  0  0  0  0  0  0  0  0
   -7.3690    4.9764  -17.6358 N   0  0  0  0  0  0  0  0  0  0  0  0
   -6.2912    4.9239  -16.8188 C   0  0  0  0  0  0  0  0  0  0  0  0
  1  2  1  0
  2  3  1  0
  3  4  1  0
  4  5  1  0
  5  6  2  0
  6  7  1  0
  7  8  2  0
  8  9  1  0
  9 10  2  0
  9 11  1  0
 11 12  1  0
 12 13  2  0
 13 14  1  0
 14 15  2  0
 15 16  1  0
 16 17  2  0
 16 18  1  0
 18 19  1  0
 19 20  1  0
  8 21  1  0
 21 22  2  0
 22 23  1  0
 22 24  1  0
 24 25  2  0
 25  4  1  0
 25  7  1  0
 17 12  1  0
 20 15  1  0
M  END
>  <smiles>  (934) 
C104740-P151

>  <fragmenstein_outcome>  (934) 
acceptable

>  <inchikey>  (934) 
HMIFVEHMLSGPPG-UHFFFAOYSA-N

>  <fragmenstein_mode>  (934) 
expansion

>  <HIPPO Pose ID>  (934) 
19096

>  <Energy>  (934) 
32.320996

>  <fragmenstein_error>  (934) 


>  <tags>  (934) 
{'openbind_xx01zvns2b_c1_fragmenstein', 'fragmenstein_placed'}

>  <ref_pdb>  (934) 
1

>  <scratch_subdir>  (934) 
/opt/xchem-fragalysis-2/maxwin/BulkDock/SCRATCH/511027/C104740-P151

>  <alias>  (934) 
CCNn1ccc2c(C(=O)Nc3ccc4c(c3)CNC4)cc(Cl)nc21

>  <HIPPO Compound ID>  (934) 
73636

>  <fragmenstein_runtime>  (934) 
3.297196

$$$$
CNCn1ccc2c(C(=O)Nc3cc(C)c4c(c3)CNC4)cc(Cl)nc21
     RDKit          3D

 26 29  0  0  0  0  0  0  0  0999 V2000
   -3.7948    6.2453  -20.8251 C   0  0  0  0  0  0  0  0  0  0  0  0
   -3.9159    5.5845  -19.5323 N   0  0  0  0  0  0  0  0  0  0  0  0
   -5.3187    5.6130  -19.1066 C   0  0  0  0  0  0  0  0  0  0  0  0
   -5.4200    5.1917  -17.7079 N   0  0  0  0  0  0  0  0  0  0  0  0
   -4.4456    5.1171  -16.7403 C   0  0  0  0  0  0  0  0  0  0  0  0
   -5.0318    4.6701  -15.5703 C   0  0  0  0  0  0  0  0  0  0  0  0
   -6.4204    4.5023  -15.8184 C   0  0  0  0  0  0  0  0  0  0  0  0
   -7.5574    4.0716  -15.1166 C   0  0  0  0  0  0  0  0  0  0  0  0
   -7.4852    3.5119  -13.7555 C   0  0  0  0  0  0  0  0  0  0  0  0
   -7.3057    2.3672  -13.6207 O   0  0  0  0  0  0  0  0  0  0  0  0
   -7.7753    4.6092  -12.7095 N   0  0  0  0  0  0  0  0  0  0  0  0
   -7.9917    4.5159  -11.3366 C   0  0  0  0  0  0  0  0  0  0  0  0
   -7.9655    5.6895  -10.5635 C   0  0  0  0  0  0  0  0  0  0  0  0
   -8.1573    5.6460   -9.1710 C   0  0  0  0  0  0  0  0  0  0  0  0
   -8.1032    6.8976   -8.3518 C   0  0  0  0  0  0  0  0  0  0  0  0
   -8.4547    4.4123   -8.6028 C   0  0  0  0  0  0  0  0  0  0  0  0
   -8.5258    3.2587   -9.3786 C   0  0  0  0  0  0  0  0  0  0  0  0
   -8.2670    3.2859  -10.7387 C   0  0  0  0  0  0  0  0  0  0  0  0
   -8.8959    2.0942   -8.5196 C   0  0  0  0  0  0  0  0  0  0  0  0
   -9.2891    2.6784   -7.2076 N   0  0  0  0  0  0  0  0  0  0  0  0
   -8.7172    4.0400   -7.1797 C   0  0  0  0  0  0  0  0  0  0  0  0
   -8.7925    4.0497  -15.7658 C   0  0  0  0  0  0  0  0  0  0  0  0
   -8.8333    4.4043  -17.0958 C   0  0  0  0  0  0  0  0  0  0  0  0
  -10.2916    4.2832  -17.9902 Cl  0  0  0  0  0  0  0  0  0  0  0  0
   -7.7912    4.8384  -17.8215 N   0  0  0  0  0  0  0  0  0  0  0  0
   -6.6273    4.8511  -17.1498 C   0  0  0  0  0  0  0  0  0  0  0  0
  1  2  1  0
  2  3  1  0
  3  4  1  0
  4  5  1  0
  5  6  2  0
  6  7  1  0
  7  8  2  0
  8  9  1  0
  9 10  2  0
  9 11  1  0
 11 12  1  0
 12 13  2  0
 13 14  1  0
 14 15  1  0
 14 16  2  0
 16 17  1  0
 17 18  2  0
 17 19  1  0
 19 20  1  0
 20 21  1  0
  8 22  1  0
 22 23  2  0
 23 24  1  0
 23 25  1  0
 25 26  2  0
 26  4  1  0
 26  7  1  0
 18 12  1  0
 21 16  1  0
M  END
>  <smiles>  (935) 
C104742-P151

>  <fragmenstein_outcome>  (935) 
acceptable

>  <inchikey>  (935) 
HDXWUJNMNVGLLY-UHFFFAOYSA-N

>  <fragmenstein_mode>  (935) 
expansion

>  <HIPPO Pose ID>  (935) 
19097

>  <Energy>  (935) 
48.660686

>  <fragmenstein_error>  (935) 


>  <tags>  (935) 
{'openbind_xx01zvns2b_c1_fragmenstein', 'fragmenstein_placed'}

>  <ref_pdb>  (935) 
1

>  <scratch_subdir>  (935) 
/opt/xchem-fragalysis-2/maxwin/BulkDock/SCRATCH/511027/C104742-P151

>  <alias>  (935) 
CNCn1ccc2c(C(=O)Nc3cc(C)c4c(c3)CNC4)cc(Cl)nc21

>  <HIPPO Compound ID>  (935) 
84470

>  <fragmenstein_runtime>  (935) 
4.088075

$$$$
O=C(Nc1ccc2c(c1)CNC2)c1cc(Cl)nc2c1C[C@@]1(CCNC1)N2
     RDKit          3D

 26 30  0  0  0  0  0  0  0  0999 V2000
   -6.8357    6.4469  -13.5340 O   0  0  0  0  0  0  0  0  0  0  0  0
   -7.2663    5.3850  -13.7662 C   0  0  0  0  0  0  0  0  0  0  0  0
   -7.8062    4.2890  -12.8117 N   0  0  0  0  0  0  0  0  0  0  0  0
   -8.0093    4.3092  -11.4281 C   0  0  0  0  0  0  0  0  0  0  0  0
   -7.7091    5.4494  -10.6660 C   0  0  0  0  0  0  0  0  0  0  0  0
   -7.8846    5.4564   -9.2766 C   0  0  0  0  0  0  0  0  0  0  0  0
   -8.3380    4.3031   -8.6652 C   0  0  0  0  0  0  0  0  0  0  0  0
   -8.6396    3.1723   -9.4121 C   0  0  0  0  0  0  0  0  0  0  0  0
   -8.4991    3.1625  -10.7945 C   0  0  0  0  0  0  0  0  0  0  0  0
   -9.1132    2.0932   -8.4971 C   0  0  0  0  0  0  0  0  0  0  0  0
   -8.8661    2.5855   -7.1127 N   0  0  0  0  0  0  0  0  0  0  0  0
   -8.6039    4.0355   -7.2243 C   0  0  0  0  0  0  0  0  0  0  0  0
   -7.3428    4.9760  -15.1898 C   0  0  0  0  0  0  0  0  0  0  0  0
   -8.5592    4.5862  -15.7467 C   0  0  0  0  0  0  0  0  0  0  0  0
   -8.6000    4.3925  -17.1206 C   0  0  0  0  0  0  0  0  0  0  0  0
  -10.0753    4.0402  -17.9175 Cl  0  0  0  0  0  0  0  0  0  0  0  0
   -7.5483    4.5226  -17.9500 N   0  0  0  0  0  0  0  0  0  0  0  0
   -6.3978    4.8534  -17.3774 C   0  0  0  0  0  0  0  0  0  0  0  0
   -6.2481    5.1192  -16.0283 C   0  0  0  0  0  0  0  0  0  0  0  0
   -4.8341    5.5273  -15.7702 C   0  0  0  0  0  0  0  0  0  0  0  0
   -4.3016    5.7411  -17.2245 C   0  0  2  0  0  0  0  0  0  0  0  0
   -2.8652    5.2496  -17.3986 C   0  0  0  0  0  0  0  0  0  0  0  0
   -2.2626    6.2204  -18.3957 C   0  0  0  0  0  0  0  0  0  0  0  0
   -2.8269    7.5216  -18.0053 N   0  0  0  0  0  0  0  0  0  0  0  0
   -4.2381    7.2219  -17.6766 C   0  0  0  0  0  0  0  0  0  0  0  0
   -5.1908    4.9609  -18.0860 N   0  0  0  0  0  0  0  0  0  0  0  0
  1  2  2  0
  2  3  1  0
  3  4  1  0
  4  5  2  0
  5  6  1  0
  6  7  2  0
  7  8  1  0
  8  9  2  0
  8 10  1  0
 10 11  1  0
 11 12  1  0
  2 13  1  0
 13 14  2  0
 14 15  1  0
 15 16  1  0
 15 17  2  0
 17 18  1  0
 18 19  2  0
 19 20  1  0
 21 20  1  1
 21 22  1  0
 22 23  1  0
 23 24  1  0
 24 25  1  0
 21 26  1  0
  9  4  1  0
 19 13  1  0
 25 21  1  0
 12  7  1  0
 26 18  1  0
M  END
>  <smiles>  (936) 
C104745-P151

>  <fragmenstein_outcome>  (936) 
acceptable

>  <inchikey>  (936) 
SPAYXYBKWYIHTI-UHFFFAOYSA-N

>  <fragmenstein_mode>  (936) 
expansion

>  <HIPPO Pose ID>  (936) 
19100

>  <Energy>  (936) 
20.524376

>  <fragmenstein_error>  (936) 


>  <tags>  (936) 
{'openbind_xx01zvns2b_c1_fragmenstein', 'fragmenstein_placed'}

>  <ref_pdb>  (936) 
1

>  <scratch_subdir>  (936) 
/opt/xchem-fragalysis-2/maxwin/BulkDock/SCRATCH/511027/C104745-P151

>  <alias>  (936) 
O=C(Nc1ccc2c(c1)CNC2)c1cc(Cl)nc2c1C[C@@]1(CCNC1)N2

>  <HIPPO Compound ID>  (936) 
98616

>  <fragmenstein_runtime>  (936) 
4.146286

$$$$
COCn1ccc2c(C(=O)Nc3ccc4c(c3)CNC4)cc(Cl)nc21
     RDKit          3D

 25 28  0  0  0  0  0  0  0  0999 V2000
   -3.7428    6.1843  -20.7950 C   0  0  0  0  0  0  0  0  0  0  0  0
   -3.8581    5.5500  -19.5272 O   0  0  0  0  0  0  0  0  0  0  0  0
   -5.2362    5.4195  -19.1678 C   0  0  0  0  0  0  0  0  0  0  0  0
   -5.3693    5.1094  -17.7479 N   0  0  0  0  0  0  0  0  0  0  0  0
   -4.3955    5.0331  -16.7834 C   0  0  0  0  0  0  0  0  0  0  0  0
   -4.9953    4.6434  -15.5990 C   0  0  0  0  0  0  0  0  0  0  0  0
   -6.3886    4.4988  -15.8435 C   0  0  0  0  0  0  0  0  0  0  0  0
   -7.5334    4.0933  -15.1376 C   0  0  0  0  0  0  0  0  0  0  0  0
   -7.4782    3.5288  -13.7767 C   0  0  0  0  0  0  0  0  0  0  0  0
   -7.3222    2.3800  -13.6497 O   0  0  0  0  0  0  0  0  0  0  0  0
   -7.7499    4.6241  -12.7236 N   0  0  0  0  0  0  0  0  0  0  0  0
   -7.9733    4.5251  -11.3512 C   0  0  0  0  0  0  0  0  0  0  0  0
   -7.9858    5.6990  -10.5795 C   0  0  0  0  0  0  0  0  0  0  0  0
   -8.2026    5.6417   -9.1975 C   0  0  0  0  0  0  0  0  0  0  0  0
   -8.4653    4.4095   -8.6248 C   0  0  0  0  0  0  0  0  0  0  0  0
   -8.5045    3.2548   -9.3964 C   0  0  0  0  0  0  0  0  0  0  0  0
   -8.2273    3.2878  -10.7536 C   0  0  0  0  0  0  0  0  0  0  0  0
   -8.8712    2.0905   -8.5355 C   0  0  0  0  0  0  0  0  0  0  0  0
   -9.2712    2.6761   -7.2241 N   0  0  0  0  0  0  0  0  0  0  0  0
   -8.7231    4.0468   -7.2016 C   0  0  0  0  0  0  0  0  0  0  0  0
   -8.7662    4.0717  -15.7927 C   0  0  0  0  0  0  0  0  0  0  0  0
   -8.7977    4.4079  -17.1283 C   0  0  0  0  0  0  0  0  0  0  0  0
  -10.2557    4.2872  -18.0236 Cl  0  0  0  0  0  0  0  0  0  0  0  0
   -7.7475    4.8178  -17.8606 N   0  0  0  0  0  0  0  0  0  0  0  0
   -6.5862    4.8232  -17.1834 C   0  0  0  0  0  0  0  0  0  0  0  0
  1  2  1  0
  2  3  1  0
  3  4  1  0
  4  5  1  0
  5  6  2  0
  6  7  1  0
  7  8  2  0
  8  9  1  0
  9 10  2  0
  9 11  1  0
 11 12  1  0
 12 13  2  0
 13 14  1  0
 14 15  2  0
 15 16  1  0
 16 17  2  0
 16 18  1  0
 18 19  1  0
 19 20  1  0
  8 21  1  0
 21 22  2  0
 22 23  1  0
 22 24  1  0
 24 25  2  0
 25  4  1  0
 25  7  1  0
 17 12  1  0
 20 15  1  0
M  END
>  <smiles>  (937) 
C104747-P151

>  <fragmenstein_outcome>  (937) 
acceptable

>  <inchikey>  (937) 
AGZHZNUQNVNHQR-UHFFFAOYSA-N

>  <fragmenstein_mode>  (937) 
expansion

>  <HIPPO Pose ID>  (937) 
19102

>  <Energy>  (937) 
50.976929

>  <fragmenstein_error>  (937) 


>  <tags>  (937) 
{'openbind_xx01zvns2b_c1_fragmenstein', 'fragmenstein_placed'}

>  <ref_pdb>  (937) 
1

>  <scratch_subdir>  (937) 
/opt/xchem-fragalysis-2/maxwin/BulkDock/SCRATCH/511027/C104747-P151

>  <alias>  (937) 
COCn1ccc2c(C(=O)Nc3ccc4c(c3)CNC4)cc(Cl)nc21

>  <HIPPO Compound ID>  (937) 
73807

>  <fragmenstein_runtime>  (937) 
7.77089

$$$$
CNNn1ccc2c(C(=O)Nc3ccc4c(c3)CNC4)cc(Cl)nc21
     RDKit          3D

 25 28  0  0  0  0  0  0  0  0999 V2000
   -4.8381    8.0983  -19.8981 C   0  0  0  0  0  0  0  0  0  0  0  0
   -5.2330    7.5365  -18.6116 N   0  0  0  0  0  0  0  0  0  0  0  0
   -5.1630    6.0733  -18.7222 N   0  0  0  0  0  0  0  0  0  0  0  0
   -5.3807    5.4295  -17.4553 N   0  0  0  0  0  0  0  0  0  0  0  0
   -4.4288    5.2558  -16.4844 C   0  0  0  0  0  0  0  0  0  0  0  0
   -5.0474    4.7030  -15.3793 C   0  0  0  0  0  0  0  0  0  0  0  0
   -6.4228    4.5247  -15.7017 C   0  0  0  0  0  0  0  0  0  0  0  0
   -7.5736    4.0297  -15.0718 C   0  0  0  0  0  0  0  0  0  0  0  0
   -7.5356    3.4571  -13.7155 C   0  0  0  0  0  0  0  0  0  0  0  0
   -7.3917    2.3074  -13.5829 O   0  0  0  0  0  0  0  0  0  0  0  0
   -7.7952    4.5606  -12.6677 N   0  0  0  0  0  0  0  0  0  0  0  0
   -8.0185    4.4710  -11.2967 C   0  0  0  0  0  0  0  0  0  0  0  0
   -7.9833    5.6442  -10.5242 C   0  0  0  0  0  0  0  0  0  0  0  0
   -8.1899    5.5930   -9.1407 C   0  0  0  0  0  0  0  0  0  0  0  0
   -8.4798    4.3679   -8.5661 C   0  0  0  0  0  0  0  0  0  0  0  0
   -8.5568    3.2148   -9.3378 C   0  0  0  0  0  0  0  0  0  0  0  0
   -8.3035    3.2423  -10.6986 C   0  0  0  0  0  0  0  0  0  0  0  0
   -8.9231    2.0558   -8.4708 C   0  0  0  0  0  0  0  0  0  0  0  0
   -9.3098    2.6503   -7.1597 N   0  0  0  0  0  0  0  0  0  0  0  0
   -8.7337    4.0103   -7.1410 C   0  0  0  0  0  0  0  0  0  0  0  0
   -8.7775    4.0028  -15.7745 C   0  0  0  0  0  0  0  0  0  0  0  0
   -8.7743    4.4120  -17.0903 C   0  0  0  0  0  0  0  0  0  0  0  0
  -10.1977    4.2812  -18.0393 Cl  0  0  0  0  0  0  0  0  0  0  0  0
   -7.7211    4.9229  -17.7477 N   0  0  0  0  0  0  0  0  0  0  0  0
   -6.5890    4.9532  -17.0169 C   0  0  0  0  0  0  0  0  0  0  0  0
  1  2  1  0
  2  3  1  0
  3  4  1  0
  4  5  1  0
  5  6  2  0
  6  7  1  0
  7  8  2  0
  8  9  1  0
  9 10  2  0
  9 11  1  0
 11 12  1  0
 12 13  2  0
 13 14  1  0
 14 15  2  0
 15 16  1  0
 16 17  2  0
 16 18  1  0
 18 19  1  0
 19 20  1  0
  8 21  1  0
 21 22  2  0
 22 23  1  0
 22 24  1  0
 24 25  2  0
 25  4  1  0
 25  7  1  0
 17 12  1  0
 20 15  1  0
M  END
>  <smiles>  (938) 
C104750-P151

>  <fragmenstein_outcome>  (938) 
acceptable

>  <inchikey>  (938) 
ADBBUBPUNLGECS-UHFFFAOYSA-N

>  <fragmenstein_mode>  (938) 
expansion

>  <HIPPO Pose ID>  (938) 
19103

>  <Energy>  (938) 
81.326011

>  <fragmenstein_error>  (938) 


>  <tags>  (938) 
{'openbind_xx01zvns2b_c1_fragmenstein', 'fragmenstein_placed'}

>  <ref_pdb>  (938) 
1

>  <scratch_subdir>  (938) 
/opt/xchem-fragalysis-2/maxwin/BulkDock/SCRATCH/511027/C104750-P151

>  <alias>  (938) 
CNNn1ccc2c(C(=O)Nc3ccc4c(c3)CNC4)cc(Cl)nc21

>  <HIPPO Compound ID>  (938) 
106284

>  <fragmenstein_runtime>  (938) 
2.930609

$$$$
C[C@H]1CCNC[C@@]12CCc1c(C(=O)Nc3ccc4c(c3)CNC4)cc(Cl)nc12
     RDKit          3D

 28 32  0  0  0  0  0  0  0  0999 V2000
   -3.6441    7.8508  -18.0236 C   0  0  0  0  0  0  0  0  0  0  0  0
   -5.0385    7.2069  -17.9807 C   0  0  1  0  0  0  0  0  0  0  0  0
   -5.7485    7.4375  -19.3268 C   0  0  0  0  0  0  0  0  0  0  0  0
   -5.2259    6.5324  -20.4383 C   0  0  0  0  0  0  0  0  0  0  0  0
   -5.3658    5.1329  -20.0550 N   0  0  0  0  0  0  0  0  0  0  0  0
   -4.5959    4.8531  -18.8457 C   0  0  0  0  0  0  0  0  0  0  0  0
   -5.0179    5.6833  -17.6324 C   0  0  1  0  0  0  0  0  0  0  0  0
   -4.1392    5.3480  -16.3955 C   0  0  0  0  0  0  0  0  0  0  0  0
   -4.9923    5.7043  -15.1718 C   0  0  0  0  0  0  0  0  0  0  0  0
   -6.3428    5.3105  -15.6730 C   0  0  0  0  0  0  0  0  0  0  0  0
   -7.5140    5.0823  -14.9733 C   0  0  0  0  0  0  0  0  0  0  0  0
   -7.5768    5.4980  -13.5557 C   0  0  0  0  0  0  0  0  0  0  0  0
   -7.2103    6.5762  -13.2998 O   0  0  0  0  0  0  0  0  0  0  0  0
   -8.0398    4.3546  -12.6321 N   0  0  0  0  0  0  0  0  0  0  0  0
   -8.2335    4.3275  -11.2536 C   0  0  0  0  0  0  0  0  0  0  0  0
   -8.0087    5.4725  -10.4690 C   0  0  0  0  0  0  0  0  0  0  0  0
   -8.1463    5.4297   -9.0779 C   0  0  0  0  0  0  0  0  0  0  0  0
   -8.5164    4.2320   -8.4975 C   0  0  0  0  0  0  0  0  0  0  0  0
   -8.7419    3.0993   -9.2728 C   0  0  0  0  0  0  0  0  0  0  0  0
   -8.6093    3.1282  -10.6512 C   0  0  0  0  0  0  0  0  0  0  0  0
   -9.0770    1.9531   -8.3781 C   0  0  0  0  0  0  0  0  0  0  0  0
   -9.3829    2.5649   -7.0574 N   0  0  0  0  0  0  0  0  0  0  0  0
   -8.7179    3.8856   -7.0613 C   0  0  0  0  0  0  0  0  0  0  0  0
   -8.6347    4.6340  -15.6643 C   0  0  0  0  0  0  0  0  0  0  0  0
   -8.5305    4.5256  -17.0459 C   0  0  0  0  0  0  0  0  0  0  0  0
   -9.8827    4.0545  -17.9906 Cl  0  0  0  0  0  0  0  0  0  0  0  0
   -7.4314    4.8472  -17.7677 N   0  0  0  0  0  0  0  0  0  0  0  0
   -6.3605    5.2264  -17.0557 C   0  0  0  0  0  0  0  0  0  0  0  0
  2  1  1  6
  2  3  1  0
  3  4  1  0
  4  5  1  0
  5  6  1  0
  7  6  1  6
  7  8  1  0
  8  9  1  0
  9 10  1  0
 10 11  2  0
 11 12  1  0
 12 13  2  0
 12 14  1  0
 14 15  1  0
 15 16  2  0
 16 17  1  0
 17 18  2  0
 18 19  1  0
 19 20  2  0
 19 21  1  0
 21 22  1  0
 22 23  1  0
 11 24  1  0
 24 25  2  0
 25 26  1  0
 25 27  1  0
 27 28  2  0
  7  2  1  0
 28 10  1  0
 28  7  1  0
 20 15  1  0
 23 18  1  0
M  END
>  <smiles>  (939) 
C104753-P151

>  <fragmenstein_outcome>  (939) 
acceptable

>  <inchikey>  (939) 
ZBTGZUWZSQEQQH-UHFFFAOYSA-N

>  <fragmenstein_mode>  (939) 
expansion

>  <HIPPO Pose ID>  (939) 
19104

>  <Energy>  (939) 
56.603335

>  <fragmenstein_error>  (939) 


>  <tags>  (939) 
{'openbind_xx01zvns2b_c1_fragmenstein', 'fragmenstein_placed'}

>  <ref_pdb>  (939) 
1

>  <scratch_subdir>  (939) 
/opt/xchem-fragalysis-2/maxwin/BulkDock/SCRATCH/511027/C104753-P151

>  <alias>  (939) 
C[C@H]1CCNC[C@@]12CCc1c(C(=O)Nc3ccc4c(c3)CNC4)cc(Cl)nc12

>  <HIPPO Compound ID>  (939) 
96143

>  <fragmenstein_runtime>  (939) 
4.236425

$$$$
O=C(Nc1ccc2c(c1)CNC2)c1cc(Cl)nc2c1ccn2NC1CNC1
     RDKit          3D

 27 31  0  0  0  0  0  0  0  0999 V2000
   -7.3064    2.4005  -13.6003 O   0  0  0  0  0  0  0  0  0  0  0  0
   -7.4898    3.5433  -13.7425 C   0  0  0  0  0  0  0  0  0  0  0  0
   -7.7899    4.6446  -12.7050 N   0  0  0  0  0  0  0  0  0  0  0  0
   -8.0134    4.5584  -11.3342 C   0  0  0  0  0  0  0  0  0  0  0  0
   -7.9798    5.7333  -10.5658 C   0  0  0  0  0  0  0  0  0  0  0  0
   -8.1649    5.6824   -9.1797 C   0  0  0  0  0  0  0  0  0  0  0  0
   -8.4215    4.4540   -8.5956 C   0  0  0  0  0  0  0  0  0  0  0  0
   -8.5113    3.3016   -9.3646 C   0  0  0  0  0  0  0  0  0  0  0  0
   -8.2881    3.3292  -10.7311 C   0  0  0  0  0  0  0  0  0  0  0  0
   -8.9015    2.1505   -8.5013 C   0  0  0  0  0  0  0  0  0  0  0  0
   -8.7923    2.6418   -7.0976 N   0  0  0  0  0  0  0  0  0  0  0  0
   -8.6750    4.1133   -7.1676 C   0  0  0  0  0  0  0  0  0  0  0  0
   -7.5204    4.0996  -15.1060 C   0  0  0  0  0  0  0  0  0  0  0  0
   -8.7316    4.1007  -15.7953 C   0  0  0  0  0  0  0  0  0  0  0  0
   -8.7092    4.4182  -17.1374 C   0  0  0  0  0  0  0  0  0  0  0  0
  -10.1463    4.3022  -18.0695 Cl  0  0  0  0  0  0  0  0  0  0  0  0
   -7.6249    4.7876  -17.8447 N   0  0  0  0  0  0  0  0  0  0  0  0
   -6.4780    4.7572  -17.1337 C   0  0  0  0  0  0  0  0  0  0  0  0
   -6.3407    4.4519  -15.7812 C   0  0  0  0  0  0  0  0  0  0  0  0
   -4.9531    4.5268  -15.4816 C   0  0  0  0  0  0  0  0  0  0  0  0
   -4.2871    4.8173  -16.6569 C   0  0  0  0  0  0  0  0  0  0  0  0
   -5.2178    4.9422  -17.6587 N   0  0  0  0  0  0  0  0  0  0  0  0
   -4.9666    5.0935  -19.0595 N   0  0  0  0  0  0  0  0  0  0  0  0
   -3.8037    5.9320  -19.3802 C   0  0  0  0  0  0  0  0  0  0  0  0
   -3.9277    6.4154  -20.8443 C   0  0  0  0  0  0  0  0  0  0  0  0
   -4.6548    7.6156  -20.3598 N   0  0  0  0  0  0  0  0  0  0  0  0
   -4.0539    7.4171  -19.0244 C   0  0  0  0  0  0  0  0  0  0  0  0
  1  2  2  0
  2  3  1  0
  3  4  1  0
  4  5  2  0
  5  6  1  0
  6  7  2  0
  7  8  1  0
  8  9  2  0
  8 10  1  0
 10 11  1  0
 11 12  1  0
  2 13  1  0
 13 14  2  0
 14 15  1  0
 15 16  1  0
 15 17  2  0
 17 18  1  0
 18 19  2  0
 19 20  1  0
 20 21  2  0
 21 22  1  0
 22 23  1  0
 23 24  1  0
 24 25  1  0
 25 26  1  0
 26 27  1  0
  9  4  1  0
 19 13  1  0
 27 24  1  0
 12  7  1  0
 22 18  1  0
M  END
>  <smiles>  (940) 
C104755-P151

>  <fragmenstein_outcome>  (940) 
acceptable

>  <inchikey>  (940) 
GUJYWGQKZVUICH-UHFFFAOYSA-N

>  <fragmenstein_mode>  (940) 
expansion

>  <HIPPO Pose ID>  (940) 
19105

>  <Energy>  (940) 
72.21404

>  <fragmenstein_error>  (940) 


>  <tags>  (940) 
{'openbind_xx01zvns2b_c1_fragmenstein', 'fragmenstein_placed'}

>  <ref_pdb>  (940) 
1

>  <scratch_subdir>  (940) 
/opt/xchem-fragalysis-2/maxwin/BulkDock/SCRATCH/511027/C104755-P151

>  <alias>  (940) 
O=C(Nc1ccc2c(c1)CNC2)c1cc(Cl)nc2c1ccn2NC1CNC1

>  <HIPPO Compound ID>  (940) 
85197

>  <fragmenstein_runtime>  (940) 
7.890919

$$$$
O=C(Nc1ccc2c(c1)CNC2)c1cc(Cl)nc2c1CC[C@@]21CCNC1
     RDKit          3D

 26 30  0  0  0  0  0  0  0  0999 V2000
   -6.9320    6.5325  -13.6108 O   0  0  0  0  0  0  0  0  0  0  0  0
   -7.3876    5.4804  -13.8376 C   0  0  0  0  0  0  0  0  0  0  0  0
   -7.9278    4.3931  -12.8778 N   0  0  0  0  0  0  0  0  0  0  0  0
   -8.1015    4.4116  -11.4925 C   0  0  0  0  0  0  0  0  0  0  0  0
   -7.7985    5.5645  -10.7475 C   0  0  0  0  0  0  0  0  0  0  0  0
   -7.9167    5.5760   -9.3539 C   0  0  0  0  0  0  0  0  0  0  0  0
   -8.3297    4.4182   -8.7242 C   0  0  0  0  0  0  0  0  0  0  0  0
   -8.6466    3.2798   -9.4554 C   0  0  0  0  0  0  0  0  0  0  0  0
   -8.5489    3.2596  -10.8407 C   0  0  0  0  0  0  0  0  0  0  0  0
   -9.0900    2.2045   -8.5210 C   0  0  0  0  0  0  0  0  0  0  0  0
   -8.7912    2.7029   -7.1488 N   0  0  0  0  0  0  0  0  0  0  0  0
   -8.5385    4.1534   -7.2738 C   0  0  0  0  0  0  0  0  0  0  0  0
   -7.4239    5.0545  -15.2613 C   0  0  0  0  0  0  0  0  0  0  0  0
   -8.5931    4.5716  -15.8417 C   0  0  0  0  0  0  0  0  0  0  0  0
   -8.6053    4.4205  -17.2230 C   0  0  0  0  0  0  0  0  0  0  0  0
  -10.0430    3.9737  -18.0369 Cl  0  0  0  0  0  0  0  0  0  0  0  0
   -7.5694    4.6928  -18.0473 N   0  0  0  0  0  0  0  0  0  0  0  0
   -6.4548    5.1306  -17.4540 C   0  0  0  0  0  0  0  0  0  0  0  0
   -6.3316    5.3104  -16.0820 C   0  0  0  0  0  0  0  0  0  0  0  0
   -4.9903    5.8699  -15.7351 C   0  0  0  0  0  0  0  0  0  0  0  0
   -4.1997    5.5677  -17.0170 C   0  0  0  0  0  0  0  0  0  0  0  0
   -5.2239    5.6146  -18.1849 C   0  0  1  0  0  0  0  0  0  0  0  0
   -4.7555    4.7979  -19.3843 C   0  0  0  0  0  0  0  0  0  0  0  0
   -4.3786    5.8065  -20.4639 C   0  0  0  0  0  0  0  0  0  0  0  0
   -4.3286    7.1150  -19.8010 N   0  0  0  0  0  0  0  0  0  0  0  0
   -5.3912    7.0124  -18.7859 C   0  0  0  0  0  0  0  0  0  0  0  0
  1  2  2  0
  2  3  1  0
  3  4  1  0
  4  5  2  0
  5  6  1  0
  6  7  2  0
  7  8  1  0
  8  9  2  0
  8 10  1  0
 10 11  1  0
 11 12  1  0
  2 13  1  0
 13 14  2  0
 14 15  1  0
 15 16  1  0
 15 17  2  0
 17 18  1  0
 18 19  2  0
 19 20  1  0
 20 21  1  0
 22 21  1  1
 22 23  1  0
 23 24  1  0
 24 25  1  0
 25 26  1  0
  9  4  1  0
 19 13  1  0
 26 22  1  0
 12  7  1  0
 22 18  1  0
M  END
>  <smiles>  (941) 
C104756-P151

>  <fragmenstein_outcome>  (941) 
acceptable

>  <inchikey>  (941) 
ALQWZMAWCVAZDJ-UHFFFAOYSA-N

>  <fragmenstein_mode>  (941) 
expansion

>  <HIPPO Pose ID>  (941) 
19106

>  <Energy>  (941) 
50.168739

>  <fragmenstein_error>  (941) 


>  <tags>  (941) 
{'openbind_xx01zvns2b_c1_fragmenstein', 'fragmenstein_placed'}

>  <ref_pdb>  (941) 
1

>  <scratch_subdir>  (941) 
/opt/xchem-fragalysis-2/maxwin/BulkDock/SCRATCH/511027/C104756-P151

>  <alias>  (941) 
O=C(Nc1ccc2c(c1)CNC2)c1cc(Cl)nc2c1CC[C@@]21CCNC1

>  <HIPPO Compound ID>  (941) 
83958

>  <fragmenstein_runtime>  (941) 
4.229522

$$$$
O=C(Nc1ccc2c(c1)CNC2)c1cc(Cl)nc2c1CCC21CCOCC1
     RDKit          3D

 27 31  0  0  0  0  0  0  0  0999 V2000
   -7.0279    2.5293  -13.7196 O   0  0  0  0  0  0  0  0  0  0  0  0
   -7.3145    3.6504  -13.8631 C   0  0  0  0  0  0  0  0  0  0  0  0
   -7.7221    4.7195  -12.8271 N   0  0  0  0  0  0  0  0  0  0  0  0
   -7.9468    4.6119  -11.4556 C   0  0  0  0  0  0  0  0  0  0  0  0
   -7.9703    5.7837  -10.6814 C   0  0  0  0  0  0  0  0  0  0  0  0
   -8.1687    5.7213   -9.2972 C   0  0  0  0  0  0  0  0  0  0  0  0
   -8.3915    4.4835   -8.7195 C   0  0  0  0  0  0  0  0  0  0  0  0
   -8.4343    3.3319   -9.4936 C   0  0  0  0  0  0  0  0  0  0  0  0
   -8.1857    3.3711  -10.8580 C   0  0  0  0  0  0  0  0  0  0  0  0
   -8.8118    2.1695   -8.6378 C   0  0  0  0  0  0  0  0  0  0  0  0
   -8.7582    2.6615   -7.2309 N   0  0  0  0  0  0  0  0  0  0  0  0
   -8.6452    4.1327   -7.2938 C   0  0  0  0  0  0  0  0  0  0  0  0
   -7.4227    4.1976  -15.2343 C   0  0  0  0  0  0  0  0  0  0  0  0
   -8.6638    4.0866  -15.8600 C   0  0  0  0  0  0  0  0  0  0  0  0
   -8.7531    4.4538  -17.1889 C   0  0  0  0  0  0  0  0  0  0  0  0
  -10.2128    4.2616  -18.0608 Cl  0  0  0  0  0  0  0  0  0  0  0  0
   -7.7376    4.9724  -17.9068 N   0  0  0  0  0  0  0  0  0  0  0  0
   -6.5610    5.0649  -17.2725 C   0  0  0  0  0  0  0  0  0  0  0  0
   -6.3471    4.6938  -15.9514 C   0  0  0  0  0  0  0  0  0  0  0  0
   -4.9298    4.9236  -15.5581 C   0  0  0  0  0  0  0  0  0  0  0  0
   -4.2422    5.0608  -16.9338 C   0  0  0  0  0  0  0  0  0  0  0  0
   -5.3050    5.5864  -17.9414 C   0  0  0  0  0  0  0  0  0  0  0  0
   -5.3265    7.1257  -18.0369 C   0  0  0  0  0  0  0  0  0  0  0  0
   -4.7263    7.6248  -19.3540 C   0  0  0  0  0  0  0  0  0  0  0  0
   -3.5642    6.8731  -19.6755 O   0  0  0  0  0  0  0  0  0  0  0  0
   -3.8720    5.5260  -20.0340 C   0  0  0  0  0  0  0  0  0  0  0  0
   -5.1255    4.9989  -19.3454 C   0  0  0  0  0  0  0  0  0  0  0  0
  1  2  2  0
  2  3  1  0
  3  4  1  0
  4  5  2  0
  5  6  1  0
  6  7  2  0
  7  8  1  0
  8  9  2  0
  8 10  1  0
 10 11  1  0
 11 12  1  0
  2 13  1  0
 13 14  2  0
 14 15  1  0
 15 16  1  0
 15 17  2  0
 17 18  1  0
 18 19  2  0
 19 20  1  0
 20 21  1  0
 21 22  1  0
 22 23  1  0
 23 24  1  0
 24 25  1  0
 25 26  1  0
 26 27  1  0
  9  4  1  0
 19 13  1  0
 27 22  1  0
 12  7  1  0
 22 18  1  0
M  END
>  <smiles>  (942) 
C104757-P151

>  <fragmenstein_outcome>  (942) 
acceptable

>  <inchikey>  (942) 
BECFBBUMPVIBNL-UHFFFAOYSA-N

>  <fragmenstein_mode>  (942) 
expansion

>  <HIPPO Pose ID>  (942) 
19107

>  <Energy>  (942) 
47.484603

>  <fragmenstein_error>  (942) 


>  <tags>  (942) 
{'openbind_xx01zvns2b_c1_fragmenstein', 'fragmenstein_placed'}

>  <ref_pdb>  (942) 
1

>  <scratch_subdir>  (942) 
/opt/xchem-fragalysis-2/maxwin/BulkDock/SCRATCH/511027/C104757-P151

>  <alias>  (942) 
O=C(Nc1ccc2c(c1)CNC2)c1cc(Cl)nc2c1CCC21CCOCC1

>  <HIPPO Compound ID>  (942) 
77973

>  <fragmenstein_runtime>  (942) 
5.628261

$$$$
O=C(Nc1sc2ccc(C(=O)Nc3ccc4c(c3)CNC4)cc2c1Cl)OCc1ccccc1
     RDKit          3D

 33 37  0  0  0  0  0  0  0  0999 V2000
   -3.0496    5.1467  -20.9954 O   0  0  0  0  0  0  0  0  0  0  0  0
   -2.5754    5.6865  -20.0862 C   0  0  0  0  0  0  0  0  0  0  0  0
   -3.0747    5.8377  -18.6586 N   0  0  0  0  0  0  0  0  0  0  0  0
   -4.2566    5.4569  -18.0848 C   0  0  0  0  0  0  0  0  0  0  0  0
   -5.6051    5.0669  -19.0260 S   0  0  0  0  0  0  0  0  0  0  0  0
   -6.6262    4.8694  -17.6428 C   0  0  0  0  0  0  0  0  0  0  0  0
   -8.0032    4.5474  -17.6052 C   0  0  0  0  0  0  0  0  0  0  0  0
   -8.6684    4.5388  -16.3689 C   0  0  0  0  0  0  0  0  0  0  0  0
   -7.9611    4.7999  -15.2051 C   0  0  0  0  0  0  0  0  0  0  0  0
   -8.6182    5.0570  -13.9067 C   0  0  0  0  0  0  0  0  0  0  0  0
   -9.3561    5.9563  -13.8167 O   0  0  0  0  0  0  0  0  0  0  0  0
   -8.0939    4.0825  -12.8324 N   0  0  0  0  0  0  0  0  0  0  0  0
   -8.2850    4.0681  -11.4595 C   0  0  0  0  0  0  0  0  0  0  0  0
   -8.3736    5.2839  -10.7596 C   0  0  0  0  0  0  0  0  0  0  0  0
   -8.5117    5.2971   -9.3696 C   0  0  0  0  0  0  0  0  0  0  0  0
   -8.6644    4.0846   -8.7253 C   0  0  0  0  0  0  0  0  0  0  0  0
   -8.6254    2.8845   -9.4310 C   0  0  0  0  0  0  0  0  0  0  0  0
   -8.3607    2.8520  -10.7885 C   0  0  0  0  0  0  0  0  0  0  0  0
   -8.9459    1.7610   -8.5013 C   0  0  0  0  0  0  0  0  0  0  0  0
   -9.4616    2.4141   -7.2667 N   0  0  0  0  0  0  0  0  0  0  0  0
   -8.9134    3.7859   -7.2858 C   0  0  0  0  0  0  0  0  0  0  0  0
   -6.5870    5.0513  -15.2395 C   0  0  0  0  0  0  0  0  0  0  0  0
   -5.9024    5.1069  -16.4701 C   0  0  0  0  0  0  0  0  0  0  0  0
   -4.5338    5.4179  -16.7457 C   0  0  0  0  0  0  0  0  0  0  0  0
   -3.3761    5.7234  -15.5176 Cl  0  0  0  0  0  0  0  0  0  0  0  0
   -1.4064    6.3827  -20.1431 O   0  0  0  0  0  0  0  0  0  0  0  0
   -0.9508    6.6393  -21.4808 C   0  0  0  0  0  0  0  0  0  0  0  0
    0.4753    7.1330  -21.4303 C   0  0  0  0  0  0  0  0  0  0  0  0
    0.8750    8.0945  -20.4903 C   0  0  0  0  0  0  0  0  0  0  0  0
    2.1918    8.5569  -20.4628 C   0  0  0  0  0  0  0  0  0  0  0  0
    3.1208    8.0717  -21.3806 C   0  0  0  0  0  0  0  0  0  0  0  0
    2.7330    7.1293  -22.3306 C   0  0  0  0  0  0  0  0  0  0  0  0
    1.4163    6.6666  -22.3604 C   0  0  0  0  0  0  0  0  0  0  0  0
  1  2  2  0
  2  3  1  0
  3  4  1  0
  4  5  1  0
  5  6  1  0
  6  7  2  0
  7  8  1  0
  8  9  2  0
  9 10  1  0
 10 11  2  0
 10 12  1  0
 12 13  1  0
 13 14  2  0
 14 15  1  0
 15 16  2  0
 16 17  1  0
 17 18  2  0
 17 19  1  0
 19 20  1  0
 20 21  1  0
  9 22  1  0
 22 23  2  0
 23 24  1  0
 24 25  1  0
  2 26  1  0
 26 27  1  0
 27 28  1  0
 28 29  2  0
 29 30  1  0
 30 31  2  0
 31 32  1  0
 32 33  2  0
 24  4  2  0
 33 28  1  0
 23  6  1  0
 18 13  1  0
 21 16  1  0
M  END
>  <smiles>  (943) 
C104826-P152

>  <fragmenstein_outcome>  (943) 
acceptable

>  <inchikey>  (943) 
ZJVCVUJWHIINSD-UHFFFAOYSA-N

>  <fragmenstein_mode>  (943) 
expansion

>  <HIPPO Pose ID>  (943) 
19129

>  <Energy>  (943) 
59.998374

>  <fragmenstein_error>  (943) 


>  <tags>  (943) 
{'openbind_xx01zvns2b_c1_fragmenstein', 'fragmenstein_placed'}

>  <ref_pdb>  (943) 
1

>  <scratch_subdir>  (943) 
/opt/xchem-fragalysis-2/maxwin/BulkDock/SCRATCH/511027/C104826-P152

>  <alias>  (943) 
O=C(Nc1sc2ccc(C(=O)Nc3ccc4c(c3)CNC4)cc2c1Cl)OCc1ccccc1

>  <HIPPO Compound ID>  (943) 
104826

>  <fragmenstein_runtime>  (943) 
5.8997

$$$$
O=C(Nc1ccc2c(c1)CNC2)c1cc2c[nH]sc2c2nccc12
     RDKit          3D

 24 28  0  0  0  0  0  0  0  0999 V2000
   -7.2765    6.7446  -13.5052 O   0  0  0  0  0  0  0  0  0  0  0  0
   -7.3495    5.6092  -13.7719 C   0  0  0  0  0  0  0  0  0  0  0  0
   -7.7354    4.3940  -12.8921 N   0  0  0  0  0  0  0  0  0  0  0  0
   -8.0097    4.3149  -11.5248 C   0  0  0  0  0  0  0  0  0  0  0  0
   -7.9816    5.4706  -10.7255 C   0  0  0  0  0  0  0  0  0  0  0  0
   -8.2119    5.4015   -9.3483 C   0  0  0  0  0  0  0  0  0  0  0  0
   -8.4914    4.1678   -8.7928 C   0  0  0  0  0  0  0  0  0  0  0  0
   -8.5503    3.0263   -9.5808 C   0  0  0  0  0  0  0  0  0  0  0  0
   -8.3007    3.0759  -10.9469 C   0  0  0  0  0  0  0  0  0  0  0  0
   -8.8980    1.8539   -8.7267 C   0  0  0  0  0  0  0  0  0  0  0  0
   -9.0806    2.3730   -7.3451 N   0  0  0  0  0  0  0  0  0  0  0  0
   -8.7597    3.8145   -7.3715 C   0  0  0  0  0  0  0  0  0  0  0  0
   -7.0210    5.1327  -15.1469 C   0  0  0  0  0  0  0  0  0  0  0  0
   -5.7814    5.4302  -15.5923 C   0  0  0  0  0  0  0  0  0  0  0  0
   -5.4911    5.2471  -17.0006 C   0  0  0  0  0  0  0  0  0  0  0  0
   -4.3523    5.5446  -17.6389 C   0  0  0  0  0  0  0  0  0  0  0  0
   -4.2977    5.3398  -19.0063 N   0  0  0  0  0  0  0  0  0  0  0  0
   -5.8269    4.8472  -19.5526 S   0  0  0  0  0  0  0  0  0  0  0  0
   -6.4940    4.8122  -17.9626 C   0  0  0  0  0  0  0  0  0  0  0  0
   -7.7227    4.5113  -17.5288 C   0  0  0  0  0  0  0  0  0  0  0  0
   -8.8597    4.1297  -18.1915 N   0  0  0  0  0  0  0  0  0  0  0  0
   -9.7597    4.0813  -17.2595 C   0  0  0  0  0  0  0  0  0  0  0  0
   -9.2835    4.3289  -15.8948 C   0  0  0  0  0  0  0  0  0  0  0  0
   -8.0099    4.6486  -16.1012 C   0  0  0  0  0  0  0  0  0  0  0  0
  1  2  2  0
  2  3  1  0
  3  4  1  0
  4  5  2  0
  5  6  1  0
  6  7  2  0
  7  8  1  0
  8  9  2  0
  8 10  1  0
 10 11  1  0
 11 12  1  0
  2 13  1  0
 13 14  2  0
 14 15  1  0
 15 16  2  0
 16 17  1  0
 17 18  1  0
 18 19  1  0
 19 20  2  0
 20 21  1  0
 21 22  2  0
 22 23  1  0
 23 24  2  0
  9  4  1  0
 24 13  1  0
 12  7  1  0
 19 15  1  0
 24 20  1  0
M  END
>  <smiles>  (944) 
C104833-P152

>  <fragmenstein_outcome>  (944) 
acceptable

>  <inchikey>  (944) 
BYTGEXNRWZZUJE-UHFFFAOYSA-N

>  <fragmenstein_mode>  (944) 
expansion

>  <HIPPO Pose ID>  (944) 
19136

>  <Energy>  (944) 
85.268024

>  <fragmenstein_error>  (944) 


>  <tags>  (944) 
{'openbind_xx01zvns2b_c1_fragmenstein', 'fragmenstein_placed'}

>  <ref_pdb>  (944) 
1

>  <scratch_subdir>  (944) 
/opt/xchem-fragalysis-2/maxwin/BulkDock/SCRATCH/511027/C104833-P152

>  <alias>  (944) 
O=C(Nc1ccc2c(c1)CNC2)c1cc2c[nH]sc2c2nccc12

>  <HIPPO Compound ID>  (944) 
93447

>  <fragmenstein_runtime>  (944) 
3.982333

$$$$
CCc1cc([C@](O)(Nc2ccc3c(c2)CNC3)C(=O)NCC(F)F)cc2cnsc12
     RDKit          3D

 30 33  0  0  0  0  0  0  0  0999 V2000
  -10.5545    4.3381  -17.8730 C   0  0  0  0  0  0  0  0  0  0  0  0
   -9.1515    3.8142  -18.0736 C   0  0  0  0  0  0  0  0  0  0  0  0
   -8.0768    4.4431  -17.2007 C   0  0  0  0  0  0  0  0  0  0  0  0
   -8.2541    4.6296  -15.7955 C   0  0  0  0  0  0  0  0  0  0  0  0
   -7.2416    5.1478  -14.9664 C   0  0  0  0  0  0  0  0  0  0  0  0
   -7.3427    5.4071  -13.4499 C   0  0  2  0  0  0  0  0  0  0  0  0
   -6.0898    4.9933  -12.9253 O   0  0  0  0  0  0  0  0  0  0  0  0
   -8.3848    4.5819  -12.8087 N   0  0  0  0  0  0  0  0  0  0  0  0
   -8.3648    4.4289  -11.3961 C   0  0  0  0  0  0  0  0  0  0  0  0
   -8.1675    5.5105  -10.5075 C   0  0  0  0  0  0  0  0  0  0  0  0
   -8.2469    5.3614   -9.1190 C   0  0  0  0  0  0  0  0  0  0  0  0
   -8.5455    4.1162   -8.6135 C   0  0  0  0  0  0  0  0  0  0  0  0
   -8.7399    3.0360   -9.4589 C   0  0  0  0  0  0  0  0  0  0  0  0
   -8.6669    3.1742  -10.8407 C   0  0  0  0  0  0  0  0  0  0  0  0
   -9.0236    1.8206   -8.6433 C   0  0  0  0  0  0  0  0  0  0  0  0
   -9.1504    2.2789   -7.2341 N   0  0  0  0  0  0  0  0  0  0  0  0
   -8.7474    3.6987   -7.1995 C   0  0  0  0  0  0  0  0  0  0  0  0
   -7.5886    7.0073  -13.2696 C   0  0  0  0  0  0  0  0  0  0  0  0
   -6.7085    7.7790  -13.3035 O   0  0  0  0  0  0  0  0  0  0  0  0
   -9.1116    7.2253  -13.0382 N   0  0  0  0  0  0  0  0  0  0  0  0
   -9.8517    8.4297  -12.7056 C   0  0  0  0  0  0  0  0  0  0  0  0
  -11.1831    8.6248  -13.4277 C   0  0  0  0  0  0  0  0  0  0  0  0
  -11.9373    9.5027  -12.7199 F   0  0  0  0  0  0  0  0  0  0  0  0
  -11.8616    7.4502  -13.4671 F   0  0  0  0  0  0  0  0  0  0  0  0
   -6.0187    5.5004  -15.5652 C   0  0  0  0  0  0  0  0  0  0  0  0
   -5.7798    5.3126  -16.9298 C   0  0  0  0  0  0  0  0  0  0  0  0
   -4.6008    5.5557  -17.6980 C   0  0  0  0  0  0  0  0  0  0  0  0
   -4.6352    5.2577  -18.9873 N   0  0  0  0  0  0  0  0  0  0  0  0
   -6.1577    4.6962  -19.3191 S   0  0  0  0  0  0  0  0  0  0  0  0
   -6.8017    4.7958  -17.7212 C   0  0  0  0  0  0  0  0  0  0  0  0
  1  2  1  0
  2  3  1  0
  3  4  2  0
  4  5  1  0
  5  6  1  0
  6  7  1  1
  6  8  1  0
  8  9  1  0
  9 10  2  0
 10 11  1  0
 11 12  2  0
 12 13  1  0
 13 14  2  0
 13 15  1  0
 15 16  1  0
 16 17  1  0
  6 18  1  0
 18 19  2  0
 18 20  1  0
 20 21  1  0
 21 22  1  0
 22 23  1  0
 22 24  1  0
  5 25  2  0
 25 26  1  0
 26 27  1  0
 27 28  2  0
 28 29  1  0
 29 30  1  0
 30  3  1  0
 14  9  1  0
 30 26  2  0
 17 12  1  0
M  END
>  <smiles>  (945) 
C104835-P152

>  <fragmenstein_outcome>  (945) 
acceptable

>  <inchikey>  (945) 
LNCRRRIZDKUYKO-UHFFFAOYSA-N

>  <fragmenstein_mode>  (945) 
expansion

>  <HIPPO Pose ID>  (945) 
19138

>  <Energy>  (945) 
139.728278

>  <fragmenstein_error>  (945) 


>  <tags>  (945) 
{'openbind_xx01zvns2b_c1_fragmenstein', 'fragmenstein_placed'}

>  <ref_pdb>  (945) 
1

>  <scratch_subdir>  (945) 
/opt/xchem-fragalysis-2/maxwin/BulkDock/SCRATCH/511027/C104835-P152

>  <alias>  (945) 
CCc1cc([C@](O)(Nc2ccc3c(c2)CNC3)C(=O)NCC(F)F)cc2cnsc12

>  <HIPPO Compound ID>  (945) 
101217

>  <fragmenstein_runtime>  (945) 
5.861095

$$$$
NNNc1cc(CNS)cc(C(=O)Nc2ccc3c(c2)CNC3)c1
     RDKit          3D

 24 26  0  0  0  0  0  0  0  0999 V2000
   -3.9026    7.7084  -15.5676 N   0  0  0  0  0  0  0  0  0  0  0  0
   -3.5871    6.3217  -15.5307 N   0  0  0  0  0  0  0  0  0  0  0  0
   -4.2743    5.6579  -16.5409 N   0  0  0  0  0  0  0  0  0  0  0  0
   -5.6301    5.3177  -16.3278 C   0  0  0  0  0  0  0  0  0  0  0  0
   -6.4080    4.8561  -17.3890 C   0  0  0  0  0  0  0  0  0  0  0  0
   -7.7569    4.4986  -17.2098 C   0  0  0  0  0  0  0  0  0  0  0  0
   -8.4943    4.0514  -18.4413 C   0  0  0  0  0  0  0  0  0  0  0  0
   -9.7758    3.4277  -18.1864 N   0  0  0  0  0  0  0  0  0  0  0  0
  -11.1115    4.4001  -18.1752 S   0  0  0  0  0  0  0  0  0  0  0  0
   -8.3422    4.6407  -15.9430 C   0  0  0  0  0  0  0  0  0  0  0  0
   -7.5586    5.0886  -14.8896 C   0  0  0  0  0  0  0  0  0  0  0  0
   -8.1183    5.4418  -13.5781 C   0  0  0  0  0  0  0  0  0  0  0  0
   -8.4798    6.5351  -13.3965 O   0  0  0  0  0  0  0  0  0  0  0  0
   -8.0237    4.2496  -12.6120 N   0  0  0  0  0  0  0  0  0  0  0  0
   -8.2551    4.1756  -11.2456 C   0  0  0  0  0  0  0  0  0  0  0  0
   -8.2732    5.3458  -10.4685 C   0  0  0  0  0  0  0  0  0  0  0  0
   -8.4430    5.2801   -9.0842 C   0  0  0  0  0  0  0  0  0  0  0  0
   -8.6513    4.0392   -8.5122 C   0  0  0  0  0  0  0  0  0  0  0  0
   -8.6655    2.8870   -9.2872 C   0  0  0  0  0  0  0  0  0  0  0  0
   -8.4291    2.9286  -10.6511 C   0  0  0  0  0  0  0  0  0  0  0  0
   -8.9688    1.7100   -8.4276 C   0  0  0  0  0  0  0  0  0  0  0  0
   -9.2144    2.2403   -7.0603 N   0  0  0  0  0  0  0  0  0  0  0  0
   -8.8958    3.6830   -7.0874 C   0  0  0  0  0  0  0  0  0  0  0  0
   -6.2081    5.3692  -15.0627 C   0  0  0  0  0  0  0  0  0  0  0  0
  1  2  1  0
  2  3  1  0
  3  4  1  0
  4  5  2  0
  5  6  1  0
  6  7  1  0
  7  8  1  0
  8  9  1  0
  6 10  2  0
 10 11  1  0
 11 12  1  0
 12 13  2  0
 12 14  1  0
 14 15  1  0
 15 16  2  0
 16 17  1  0
 17 18  2  0
 18 19  1  0
 19 20  2  0
 19 21  1  0
 21 22  1  0
 22 23  1  0
 11 24  2  0
 24  4  1  0
 20 15  1  0
 23 18  1  0
M  END
>  <smiles>  (946) 
C104838-P152

>  <fragmenstein_outcome>  (946) 
acceptable

>  <inchikey>  (946) 
GKZRMYXLAKRIRM-UHFFFAOYSA-N

>  <fragmenstein_mode>  (946) 
expansion

>  <HIPPO Pose ID>  (946) 
19139

>  <Energy>  (946) 
82.562268

>  <fragmenstein_error>  (946) 


>  <tags>  (946) 
{'openbind_xx01zvns2b_c1_fragmenstein', 'fragmenstein_placed'}

>  <ref_pdb>  (946) 
1

>  <scratch_subdir>  (946) 
/opt/xchem-fragalysis-2/maxwin/BulkDock/SCRATCH/511027/C104838-P152

>  <alias>  (946) 
NNNc1cc(CNS)cc(C(=O)Nc2ccc3c(c2)CNC3)c1

>  <HIPPO Compound ID>  (946) 
97596

>  <fragmenstein_runtime>  (946) 
7.165926

$$$$
O=C(Nc1ccc2c(c1)CNC2)c1ccc2sncc2c1
     RDKit          3D

 21 24  0  0  0  0  0  0  0  0999 V2000
   -7.6046    6.7345  -13.3761 O   0  0  0  0  0  0  0  0  0  0  0  0
   -7.7154    5.6051  -13.6487 C   0  0  0  0  0  0  0  0  0  0  0  0
   -8.0587    4.3915  -12.7615 N   0  0  0  0  0  0  0  0  0  0  0  0
   -8.2387    4.3002  -11.3823 C   0  0  0  0  0  0  0  0  0  0  0  0
   -8.1422    5.4441  -10.5720 C   0  0  0  0  0  0  0  0  0  0  0  0
   -8.2955    5.3581   -9.1858 C   0  0  0  0  0  0  0  0  0  0  0  0
   -8.5656    4.1203   -8.6342 C   0  0  0  0  0  0  0  0  0  0  0  0
   -8.6705    2.9888   -9.4323 C   0  0  0  0  0  0  0  0  0  0  0  0
   -8.4969    3.0544  -10.8073 C   0  0  0  0  0  0  0  0  0  0  0  0
   -8.9756    1.8058   -8.5789 C   0  0  0  0  0  0  0  0  0  0  0  0
   -9.1489    2.3187   -7.1937 N   0  0  0  0  0  0  0  0  0  0  0  0
   -8.7917    3.7522   -7.2094 C   0  0  0  0  0  0  0  0  0  0  0  0
   -7.3996    5.1962  -15.0331 C   0  0  0  0  0  0  0  0  0  0  0  0
   -8.3653    4.6659  -15.8847 C   0  0  0  0  0  0  0  0  0  0  0  0
   -8.0625    4.4654  -17.2388 C   0  0  0  0  0  0  0  0  0  0  0  0
   -6.7705    4.8009  -17.6928 C   0  0  0  0  0  0  0  0  0  0  0  0
   -6.0944    4.7461  -19.2708 S   0  0  0  0  0  0  0  0  0  0  0  0
   -4.5665    5.2458  -18.8653 N   0  0  0  0  0  0  0  0  0  0  0  0
   -4.5649    5.5052  -17.5639 C   0  0  0  0  0  0  0  0  0  0  0  0
   -5.7805    5.2849  -16.8374 C   0  0  0  0  0  0  0  0  0  0  0  0
   -6.1075    5.4910  -15.4857 C   0  0  0  0  0  0  0  0  0  0  0  0
  1  2  2  0
  2  3  1  0
  3  4  1  0
  4  5  2  0
  5  6  1  0
  6  7  2  0
  7  8  1  0
  8  9  2  0
  8 10  1  0
 10 11  1  0
 11 12  1  0
  2 13  1  0
 13 14  2  0
 14 15  1  0
 15 16  2  0
 16 17  1  0
 17 18  1  0
 18 19  2  0
 19 20  1  0
 20 21  2  0
  9  4  1  0
 21 13  1  0
 12  7  1  0
 20 16  1  0
M  END
>  <smiles>  (947) 
C144-P152

>  <fragmenstein_outcome>  (947) 
acceptable

>  <inchikey>  (947) 
PWMZUNFYCWFSAF-UHFFFAOYSA-N

>  <fragmenstein_mode>  (947) 
expansion

>  <HIPPO Pose ID>  (947) 
19140

>  <Energy>  (947) 
59.535608

>  <fragmenstein_error>  (947) 


>  <tags>  (947) 
{'openbind_xx01zvns2b_c1_fragmenstein', 'fragmenstein_placed'}

>  <ref_pdb>  (947) 
1

>  <scratch_subdir>  (947) 
/opt/xchem-fragalysis-2/maxwin/BulkDock/SCRATCH/511027/C144-P152

>  <alias>  (947) 
O=C(Nc1ccc2c(c1)CNC2)c1ccc2sncc2c1

>  <HIPPO Compound ID>  (947) 
79798

>  <fragmenstein_runtime>  (947) 
2.083304

$$$$
NNCc1cc(CNS)cc(C(=O)Nc2ccc3c(c2)CNC3)c1
     RDKit          3D

 24 26  0  0  0  0  0  0  0  0999 V2000
   -2.9737    5.5865  -19.0639 N   0  0  0  0  0  0  0  0  0  0  0  0
   -4.2084    5.2181  -18.4209 N   0  0  0  0  0  0  0  0  0  0  0  0
   -4.5949    6.1640  -17.3588 C   0  0  0  0  0  0  0  0  0  0  0  0
   -5.8587    5.7116  -16.6584 C   0  0  0  0  0  0  0  0  0  0  0  0
   -6.9647    5.2676  -17.3912 C   0  0  0  0  0  0  0  0  0  0  0  0
   -8.1288    4.7480  -16.7903 C   0  0  0  0  0  0  0  0  0  0  0  0
   -9.2835    4.1478  -17.5776 C   0  0  0  0  0  0  0  0  0  0  0  0
   -9.1164    4.1238  -19.0224 N   0  0  0  0  0  0  0  0  0  0  0  0
   -7.8722    3.3156  -19.7522 S   0  0  0  0  0  0  0  0  0  0  0  0
   -8.2245    4.8152  -15.3982 C   0  0  0  0  0  0  0  0  0  0  0  0
   -7.1711    5.3671  -14.6594 C   0  0  0  0  0  0  0  0  0  0  0  0
   -7.3396    5.6795  -13.2249 C   0  0  0  0  0  0  0  0  0  0  0  0
   -7.1725    6.7836  -12.8846 O   0  0  0  0  0  0  0  0  0  0  0  0
   -7.8062    4.4465  -12.4251 N   0  0  0  0  0  0  0  0  0  0  0  0
   -8.0648    4.2958  -11.0688 C   0  0  0  0  0  0  0  0  0  0  0  0
   -7.9546    5.3931  -10.1978 C   0  0  0  0  0  0  0  0  0  0  0  0
   -8.2377    5.2603   -8.8378 C   0  0  0  0  0  0  0  0  0  0  0  0
   -8.6404    4.0225   -8.3797 C   0  0  0  0  0  0  0  0  0  0  0  0
   -8.7384    2.9315   -9.2401 C   0  0  0  0  0  0  0  0  0  0  0  0
   -8.4495    3.0439  -10.5885 C   0  0  0  0  0  0  0  0  0  0  0  0
   -9.1573    1.7358   -8.4532 C   0  0  0  0  0  0  0  0  0  0  0  0
   -9.6920    2.2832   -7.1798 N   0  0  0  0  0  0  0  0  0  0  0  0
   -9.0212    3.5900   -7.0035 C   0  0  0  0  0  0  0  0  0  0  0  0
   -5.9861    5.7837  -15.2763 C   0  0  0  0  0  0  0  0  0  0  0  0
  1  2  1  0
  2  3  1  0
  3  4  1  0
  4  5  2  0
  5  6  1  0
  6  7  1  0
  7  8  1  0
  8  9  1  0
  6 10  2  0
 10 11  1  0
 11 12  1  0
 12 13  2  0
 12 14  1  0
 14 15  1  0
 15 16  2  0
 16 17  1  0
 17 18  2  0
 18 19  1  0
 19 20  2  0
 19 21  1  0
 21 22  1  0
 22 23  1  0
 11 24  2  0
 24  4  1  0
 20 15  1  0
 23 18  1  0
M  END
>  <smiles>  (948) 
C104837-P152

>  <fragmenstein_outcome>  (948) 
acceptable

>  <inchikey>  (948) 
AKUUUMFTTLYBQF-UHFFFAOYSA-N

>  <fragmenstein_mode>  (948) 
expansion

>  <HIPPO Pose ID>  (948) 
19141

>  <Energy>  (948) 
129.92539

>  <fragmenstein_error>  (948) 


>  <tags>  (948) 
{'openbind_xx01zvns2b_c1_fragmenstein', 'fragmenstein_placed'}

>  <ref_pdb>  (948) 
1

>  <scratch_subdir>  (948) 
/opt/xchem-fragalysis-2/maxwin/BulkDock/SCRATCH/511027/C104837-P152

>  <alias>  (948) 
NNCc1cc(CNS)cc(C(=O)Nc2ccc3c(c2)CNC3)c1

>  <HIPPO Compound ID>  (948) 
83792

>  <fragmenstein_runtime>  (948) 
5.512119

$$$$
NCNc1cc(CNS)cc(C(=O)Nc2ccc3c(c2)CNC3)c1
     RDKit          3D

 24 26  0  0  0  0  0  0  0  0999 V2000
   -2.8275    4.7720  -17.1682 N   0  0  0  0  0  0  0  0  0  0  0  0
   -3.6783    5.8713  -17.5542 C   0  0  0  0  0  0  0  0  0  0  0  0
   -5.0455    5.5855  -17.8926 N   0  0  0  0  0  0  0  0  0  0  0  0
   -5.9770    5.2648  -16.9021 C   0  0  0  0  0  0  0  0  0  0  0  0
   -7.1670    4.6538  -17.3210 C   0  0  0  0  0  0  0  0  0  0  0  0
   -8.2344    4.4216  -16.4471 C   0  0  0  0  0  0  0  0  0  0  0  0
   -9.4865    3.7121  -16.8539 C   0  0  0  0  0  0  0  0  0  0  0  0
  -10.2967    4.3898  -17.8246 N   0  0  0  0  0  0  0  0  0  0  0  0
   -9.8333    4.4358  -19.3777 S   0  0  0  0  0  0  0  0  0  0  0  0
   -8.1030    4.8049  -15.1217 C   0  0  0  0  0  0  0  0  0  0  0  0
   -6.9108    5.3647  -14.6675 C   0  0  0  0  0  0  0  0  0  0  0  0
   -6.8411    5.7114  -13.2256 C   0  0  0  0  0  0  0  0  0  0  0  0
   -6.4984    6.7774  -12.8926 O   0  0  0  0  0  0  0  0  0  0  0  0
   -7.3714    4.5184  -12.3877 N   0  0  0  0  0  0  0  0  0  0  0  0
   -7.6666    4.4279  -11.0344 C   0  0  0  0  0  0  0  0  0  0  0  0
   -7.5790    5.5378  -10.1864 C   0  0  0  0  0  0  0  0  0  0  0  0
   -7.9514    5.4324   -8.8434 C   0  0  0  0  0  0  0  0  0  0  0  0
   -8.4038    4.2100   -8.3780 C   0  0  0  0  0  0  0  0  0  0  0  0
   -8.5012    3.1132   -9.2220 C   0  0  0  0  0  0  0  0  0  0  0  0
   -8.1381    3.2006  -10.5540 C   0  0  0  0  0  0  0  0  0  0  0  0
   -9.0401    1.9463   -8.4705 C   0  0  0  0  0  0  0  0  0  0  0  0
   -9.1568    2.3781   -7.0522 N   0  0  0  0  0  0  0  0  0  0  0  0
   -8.8547    3.8262   -7.0117 C   0  0  0  0  0  0  0  0  0  0  0  0
   -5.8685    5.6338  -15.5561 C   0  0  0  0  0  0  0  0  0  0  0  0
  1  2  1  0
  2  3  1  0
  3  4  1  0
  4  5  2  0
  5  6  1  0
  6  7  1  0
  7  8  1  0
  8  9  1  0
  6 10  2  0
 10 11  1  0
 11 12  1  0
 12 13  2  0
 12 14  1  0
 14 15  1  0
 15 16  2  0
 16 17  1  0
 17 18  2  0
 18 19  1  0
 19 20  2  0
 19 21  1  0
 21 22  1  0
 22 23  1  0
 11 24  2  0
 24  4  1  0
 20 15  1  0
 23 18  1  0
M  END
>  <smiles>  (949) 
C104842-P152

>  <fragmenstein_outcome>  (949) 
acceptable

>  <inchikey>  (949) 
OIQYQVBOMNJLLF-UHFFFAOYSA-N

>  <fragmenstein_mode>  (949) 
expansion

>  <HIPPO Pose ID>  (949) 
19144

>  <Energy>  (949) 
7.670625

>  <fragmenstein_error>  (949) 


>  <tags>  (949) 
{'openbind_xx01zvns2b_c1_fragmenstein', 'fragmenstein_placed'}

>  <ref_pdb>  (949) 
1

>  <scratch_subdir>  (949) 
/opt/xchem-fragalysis-2/maxwin/BulkDock/SCRATCH/511027/C104842-P152

>  <alias>  (949) 
NCNc1cc(CNS)cc(C(=O)Nc2ccc3c(c2)CNC3)c1

>  <HIPPO Compound ID>  (949) 
104842

>  <fragmenstein_runtime>  (949) 
3.453836

$$$$
CCN(C)c1cc(C(=O)Nc2ccc3c(c2)CNC3)cc2c[n+]([O-])sc12
     RDKit          3D

 26 29  0  0  0  0  0  0  0  0999 V2000
   -9.5103    2.1125  -18.2713 C   0  0  0  0  0  0  0  0  0  0  0  0
   -8.8787    3.3497  -18.8801 C   0  0  0  0  0  0  0  0  0  0  0  0
   -9.1800    4.4702  -18.0047 N   0  0  0  0  0  0  0  0  0  0  0  0
  -10.6055    4.6938  -17.7914 C   0  0  0  0  0  0  0  0  0  0  0  0
   -8.2177    4.7446  -17.0332 C   0  0  0  0  0  0  0  0  0  0  0  0
   -8.5278    4.7661  -15.6618 C   0  0  0  0  0  0  0  0  0  0  0  0
   -7.5940    5.1877  -14.7215 C   0  0  0  0  0  0  0  0  0  0  0  0
   -7.9862    5.5408  -13.3515 C   0  0  0  0  0  0  0  0  0  0  0  0
   -8.0599    6.6719  -13.0813 O   0  0  0  0  0  0  0  0  0  0  0  0
   -8.1380    4.2948  -12.4689 N   0  0  0  0  0  0  0  0  0  0  0  0
   -8.3126    4.1772  -11.0971 C   0  0  0  0  0  0  0  0  0  0  0  0
   -8.2472    5.3187  -10.2773 C   0  0  0  0  0  0  0  0  0  0  0  0
   -8.4249    5.2214   -8.8976 C   0  0  0  0  0  0  0  0  0  0  0  0
   -8.7184    3.9793   -8.3750 C   0  0  0  0  0  0  0  0  0  0  0  0
   -8.7842    2.8498   -9.1884 C   0  0  0  0  0  0  0  0  0  0  0  0
   -8.5491    2.9201  -10.5488 C   0  0  0  0  0  0  0  0  0  0  0  0
   -9.1356    1.6707   -8.3465 C   0  0  0  0  0  0  0  0  0  0  0  0
   -9.6562    2.2479   -7.0804 N   0  0  0  0  0  0  0  0  0  0  0  0
   -9.0270    3.5818   -6.9709 C   0  0  0  0  0  0  0  0  0  0  0  0
   -6.2964    5.5502  -15.0695 C   0  0  0  0  0  0  0  0  0  0  0  0
   -5.9478    5.6185  -16.4219 C   0  0  0  0  0  0  0  0  0  0  0  0
   -4.7636    6.2107  -16.9894 C   0  0  0  0  0  0  0  0  0  0  0  0
   -4.8846    6.3122  -18.3150 N   0  0  0  0  0  0  0  0  0  0  0  0
   -4.1694    6.9843  -19.0970 O   0  0  0  0  0  0  0  0  0  0  0  0
   -6.2190    5.5009  -18.9539 S   0  0  0  0  0  0  0  0  0  0  0  0
   -6.9047    5.2139  -17.3752 C   0  0  0  0  0  0  0  0  0  0  0  0
  1  2  1  0
  2  3  1  0
  3  4  1  0
  3  5  1  0
  5  6  2  0
  6  7  1  0
  7  8  1  0
  8  9  2  0
  8 10  1  0
 10 11  1  0
 11 12  2  0
 12 13  1  0
 13 14  2  0
 14 15  1  0
 15 16  2  0
 15 17  1  0
 17 18  1  0
 18 19  1  0
  7 20  2  0
 20 21  1  0
 21 22  1  0
 22 23  2  0
 23 24  1  0
 23 25  1  0
 25 26  1  0
 26  5  1  0
 16 11  1  0
 26 21  2  0
 19 14  1  0
M  CHG  2  23   1  24  -1
M  END
>  <smiles>  (950) 
C104843-P152

>  <fragmenstein_outcome>  (950) 
acceptable

>  <inchikey>  (950) 
KVUVGCQLXXBMEP-UHFFFAOYSA-N

>  <fragmenstein_mode>  (950) 
expansion

>  <HIPPO Pose ID>  (950) 
19145

>  <Energy>  (950) 
62.885541

>  <fragmenstein_error>  (950) 


>  <tags>  (950) 
{'openbind_xx01zvns2b_c1_fragmenstein', 'fragmenstein_placed'}

>  <ref_pdb>  (950) 
1

>  <scratch_subdir>  (950) 
/opt/xchem-fragalysis-2/maxwin/BulkDock/SCRATCH/511027/C104843-P152

>  <alias>  (950) 
CCN(C)c1cc(C(=O)Nc2ccc3c(c2)CNC3)cc2c[n+]([O-])sc12

>  <HIPPO Compound ID>  (950) 
104843

>  <fragmenstein_runtime>  (950) 
3.28009

$$$$
O=C(NCC(F)F)[C@](O)(Nc1ccc2c(c1)CNC2)c1cc2c[nH]sc2c2ncnc12
     RDKit          3D

 31 35  0  0  0  0  0  0  0  0999 V2000
   -6.7595    7.3326  -13.6187 O   0  0  0  0  0  0  0  0  0  0  0  0
   -7.7887    6.8085  -13.4263 C   0  0  0  0  0  0  0  0  0  0  0  0
   -9.0754    7.3390  -12.7269 N   0  0  0  0  0  0  0  0  0  0  0  0
   -9.3241    8.5886  -12.0382 C   0  0  0  0  0  0  0  0  0  0  0  0
  -10.4373    9.4415  -12.6376 C   0  0  0  0  0  0  0  0  0  0  0  0
  -11.5590    8.7002  -12.8093 F   0  0  0  0  0  0  0  0  0  0  0  0
  -10.0780    9.9146  -13.8566 F   0  0  0  0  0  0  0  0  0  0  0  0
   -8.1199    5.2607  -13.8408 C   0  0  2  0  0  0  0  0  0  0  0  0
   -9.5352    5.0696  -13.8541 O   0  0  0  0  0  0  0  0  0  0  0  0
   -7.5569    4.2737  -12.9077 N   0  0  0  0  0  0  0  0  0  0  0  0
   -7.8640    4.2789  -11.5374 C   0  0  0  0  0  0  0  0  0  0  0  0
   -7.6133    5.3878  -10.7070 C   0  0  0  0  0  0  0  0  0  0  0  0
   -7.8822    5.3696   -9.3319 C   0  0  0  0  0  0  0  0  0  0  0  0
   -8.3602    4.2036   -8.7735 C   0  0  0  0  0  0  0  0  0  0  0  0
   -8.5726    3.0827   -9.5574 C   0  0  0  0  0  0  0  0  0  0  0  0
   -8.3365    3.1036  -10.9278 C   0  0  0  0  0  0  0  0  0  0  0  0
   -9.0322    1.9558   -8.6970 C   0  0  0  0  0  0  0  0  0  0  0  0
   -9.0692    2.4719   -7.3008 N   0  0  0  0  0  0  0  0  0  0  0  0
   -8.6871    3.8986   -7.3544 C   0  0  0  0  0  0  0  0  0  0  0  0
   -7.4777    5.0115  -15.2088 C   0  0  0  0  0  0  0  0  0  0  0  0
   -6.1765    5.2419  -15.5015 C   0  0  0  0  0  0  0  0  0  0  0  0
   -5.6987    5.1865  -16.8609 C   0  0  0  0  0  0  0  0  0  0  0  0
   -4.4807    5.5189  -17.3110 C   0  0  0  0  0  0  0  0  0  0  0  0
   -4.2433    5.4222  -18.6724 N   0  0  0  0  0  0  0  0  0  0  0  0
   -5.6870    4.9986  -19.4582 S   0  0  0  0  0  0  0  0  0  0  0  0
   -6.5538    4.8394  -17.9713 C   0  0  0  0  0  0  0  0  0  0  0  0
   -7.8170    4.5005  -17.7364 C   0  0  0  0  0  0  0  0  0  0  0  0
   -8.8622    4.1227  -18.5310 N   0  0  0  0  0  0  0  0  0  0  0  0
   -9.8505    4.0040  -17.6969 C   0  0  0  0  0  0  0  0  0  0  0  0
   -9.5603    4.2058  -16.3511 N   0  0  0  0  0  0  0  0  0  0  0  0
   -8.3138    4.5651  -16.3521 C   0  0  0  0  0  0  0  0  0  0  0  0
  1  2  2  0
  2  3  1  0
  3  4  1  0
  4  5  1  0
  5  6  1  0
  5  7  1  0
  2  8  1  0
  8  9  1  6
  8 10  1  0
 10 11  1  0
 11 12  2  0
 12 13  1  0
 13 14  2  0
 14 15  1  0
 15 16  2  0
 15 17  1  0
 17 18  1  0
 18 19  1  0
  8 20  1  0
 20 21  2  0
 21 22  1  0
 22 23  2  0
 23 24  1  0
 24 25  1  0
 25 26  1  0
 26 27  2  0
 27 28  1  0
 28 29  2  0
 29 30  1  0
 30 31  2  0
 16 11  1  0
 31 20  1  0
 19 14  1  0
 26 22  1  0
 31 27  1  0
M  END
>  <smiles>  (951) 
C104872-P152

>  <fragmenstein_outcome>  (951) 
acceptable

>  <inchikey>  (951) 
SCLZBWQRLIEQLK-UHFFFAOYSA-N

>  <fragmenstein_mode>  (951) 
expansion

>  <HIPPO Pose ID>  (951) 
19163

>  <Energy>  (951) 
146.594851

>  <fragmenstein_error>  (951) 


>  <tags>  (951) 
{'openbind_xx01zvns2b_c1_fragmenstein', 'fragmenstein_placed'}

>  <ref_pdb>  (951) 
1

>  <scratch_subdir>  (951) 
/opt/xchem-fragalysis-2/maxwin/BulkDock/SCRATCH/511027/C104872-P152

>  <alias>  (951) 
O=C(NCC(F)F)[C@](O)(Nc1ccc2c(c1)CNC2)c1cc2c[nH]sc2c2ncnc12

>  <HIPPO Compound ID>  (951) 
104872

>  <fragmenstein_runtime>  (951) 
4.903836

$$$$
CO[C@]1(C)C(=O)Nc2c1c(C(=O)Nc1ccc3c(c1)CNC3)cc1cnsc21
     RDKit          3D

 28 32  0  0  0  0  0  0  0  0999 V2000
   -3.4744    7.3530  -14.5090 C   0  0  0  0  0  0  0  0  0  0  0  0
   -4.8035    6.9654  -14.8400 O   0  0  0  0  0  0  0  0  0  0  0  0
   -5.0219    5.5577  -14.8787 C   0  0  2  0  0  0  0  0  0  0  0  0
   -4.7681    4.8870  -13.5353 C   0  0  0  0  0  0  0  0  0  0  0  0
   -4.1505    4.9681  -16.0133 C   0  0  0  0  0  0  0  0  0  0  0  0
   -2.9618    4.7045  -15.9305 O   0  0  0  0  0  0  0  0  0  0  0  0
   -4.9667    4.8119  -17.1332 N   0  0  0  0  0  0  0  0  0  0  0  0
   -6.3037    4.8926  -16.7580 C   0  0  0  0  0  0  0  0  0  0  0  0
   -6.4028    5.3040  -15.4290 C   0  0  0  0  0  0  0  0  0  0  0  0
   -7.6328    5.3277  -14.8106 C   0  0  0  0  0  0  0  0  0  0  0  0
   -7.7868    5.7368  -13.4064 C   0  0  0  0  0  0  0  0  0  0  0  0
   -7.7025    6.8629  -13.1179 O   0  0  0  0  0  0  0  0  0  0  0  0
   -8.0779    4.4989  -12.5317 N   0  0  0  0  0  0  0  0  0  0  0  0
   -8.2267    4.3814  -11.1559 C   0  0  0  0  0  0  0  0  0  0  0  0
   -8.0897    5.4964  -10.3167 C   0  0  0  0  0  0  0  0  0  0  0  0
   -8.2577    5.3716   -8.9361 C   0  0  0  0  0  0  0  0  0  0  0  0
   -8.5732    4.1261   -8.4247 C   0  0  0  0  0  0  0  0  0  0  0  0
   -8.7018    3.0205   -9.2546 C   0  0  0  0  0  0  0  0  0  0  0  0
   -8.5214    3.1238  -10.6234 C   0  0  0  0  0  0  0  0  0  0  0  0
   -9.0354    1.8196   -8.4391 C   0  0  0  0  0  0  0  0  0  0  0  0
   -9.2479    2.3050   -7.0506 N   0  0  0  0  0  0  0  0  0  0  0  0
   -8.8299    3.7223   -7.0145 C   0  0  0  0  0  0  0  0  0  0  0  0
   -8.7729    4.9165  -15.5083 C   0  0  0  0  0  0  0  0  0  0  0  0
   -8.6880    4.5005  -16.8556 C   0  0  0  0  0  0  0  0  0  0  0  0
   -9.6845    4.0791  -17.7927 C   0  0  0  0  0  0  0  0  0  0  0  0
   -9.2540    3.6697  -18.9774 N   0  0  0  0  0  0  0  0  0  0  0  0
   -7.6283    3.9256  -19.0586 S   0  0  0  0  0  0  0  0  0  0  0  0
   -7.4316    4.5029  -17.4720 C   0  0  0  0  0  0  0  0  0  0  0  0
  1  2  1  0
  2  3  1  0
  3  4  1  1
  3  5  1  0
  5  6  2  0
  5  7  1  0
  7  8  1  0
  8  9  2  0
  9 10  1  0
 10 11  1  0
 11 12  2  0
 11 13  1  0
 13 14  1  0
 14 15  2  0
 15 16  1  0
 16 17  2  0
 17 18  1  0
 18 19  2  0
 18 20  1  0
 20 21  1  0
 21 22  1  0
 10 23  2  0
 23 24  1  0
 24 25  1  0
 25 26  2  0
 26 27  1  0
 27 28  1  0
  9  3  1  0
 19 14  1  0
 28 24  2  0
 28  8  1  0
 22 17  1  0
M  END
>  <smiles>  (952) 
C24270-P152

>  <fragmenstein_outcome>  (952) 
acceptable

>  <inchikey>  (952) 
FZUANUQOTTUWMH-UHFFFAOYSA-N

>  <fragmenstein_mode>  (952) 
expansion

>  <HIPPO Pose ID>  (952) 
19172

>  <Energy>  (952) 
94.025904

>  <fragmenstein_error>  (952) 


>  <tags>  (952) 
{'openbind_xx01zvns2b_c1_fragmenstein', 'fragmenstein_placed'}

>  <ref_pdb>  (952) 
1

>  <scratch_subdir>  (952) 
/opt/xchem-fragalysis-2/maxwin/BulkDock/SCRATCH/511027/C24270-P152

>  <alias>  (952) 
CO[C@]1(C)C(=O)Nc2c1c(C(=O)Nc1ccc3c(c1)CNC3)cc1cnsc21

>  <HIPPO Compound ID>  (952) 
87262

>  <fragmenstein_runtime>  (952) 
3.421624

$$$$
O=C(O)C[C@@H]1NCc2cc(NC(=O)c3cc4c[nH]sc4c4nncc34)ccc21
     RDKit          3D

 28 32  0  0  0  0  0  0  0  0999 V2000
   -9.2984    6.3208   -6.0663 O   0  0  0  0  0  0  0  0  0  0  0  0
   -8.2485    5.7168   -5.9296 C   0  0  0  0  0  0  0  0  0  0  0  0
   -7.1955    6.3183   -5.3341 O   0  0  0  0  0  0  0  0  0  0  0  0
   -7.9416    4.2952   -6.3007 C   0  0  0  0  0  0  0  0  0  0  0  0
   -8.9082    3.7642   -7.3597 C   0  0  2  0  0  0  0  0  0  0  0  0
   -8.9457    2.2750   -7.3492 N   0  0  0  0  0  0  0  0  0  0  0  0
   -8.8767    1.8174   -8.7577 C   0  0  0  0  0  0  0  0  0  0  0  0
   -8.5255    3.0144   -9.5731 C   0  0  0  0  0  0  0  0  0  0  0  0
   -8.2241    3.0807  -10.9309 C   0  0  0  0  0  0  0  0  0  0  0  0
   -7.9715    4.3317  -11.4975 C   0  0  0  0  0  0  0  0  0  0  0  0
   -7.6231    4.4292  -12.8479 N   0  0  0  0  0  0  0  0  0  0  0  0
   -7.3795    5.6755  -13.7372 C   0  0  0  0  0  0  0  0  0  0  0  0
   -7.3568    6.8111  -13.4604 O   0  0  0  0  0  0  0  0  0  0  0  0
   -7.0391    5.2381  -15.1219 C   0  0  0  0  0  0  0  0  0  0  0  0
   -5.8326    5.6328  -15.5880 C   0  0  0  0  0  0  0  0  0  0  0  0
   -5.5322    5.4413  -16.9965 C   0  0  0  0  0  0  0  0  0  0  0  0
   -4.4258    5.8164  -17.6515 C   0  0  0  0  0  0  0  0  0  0  0  0
   -4.3601    5.5618  -19.0114 N   0  0  0  0  0  0  0  0  0  0  0  0
   -5.8215    4.8868  -19.5284 S   0  0  0  0  0  0  0  0  0  0  0  0
   -6.4948    4.8837  -17.9400 C   0  0  0  0  0  0  0  0  0  0  0  0
   -7.6863    4.4956  -17.4798 C   0  0  0  0  0  0  0  0  0  0  0  0
   -8.7960    3.9505  -18.0767 N   0  0  0  0  0  0  0  0  0  0  0  0
   -9.6834    3.7588  -17.1912 N   0  0  0  0  0  0  0  0  0  0  0  0
   -9.2022    4.1764  -15.9706 C   0  0  0  0  0  0  0  0  0  0  0  0
   -7.9669    4.6489  -16.0630 C   0  0  0  0  0  0  0  0  0  0  0  0
   -8.0391    5.4818  -10.6938 C   0  0  0  0  0  0  0  0  0  0  0  0
   -8.3258    5.3968   -9.3250 C   0  0  0  0  0  0  0  0  0  0  0  0
   -8.5559    4.1502   -8.7700 C   0  0  0  0  0  0  0  0  0  0  0  0
  1  2  2  0
  2  3  1  0
  2  4  1  0
  5  4  1  1
  5  6  1  0
  6  7  1  0
  7  8  1  0
  8  9  2  0
  9 10  1  0
 10 11  1  0
 11 12  1  0
 12 13  2  0
 12 14  1  0
 14 15  2  0
 15 16  1  0
 16 17  2  0
 17 18  1  0
 18 19  1  0
 19 20  1  0
 20 21  2  0
 21 22  1  0
 22 23  2  0
 23 24  1  0
 24 25  2  0
 10 26  2  0
 26 27  1  0
 27 28  2  0
 28  5  1  0
 28  8  1  0
 25 14  1  0
 20 16  1  0
 25 21  1  0
M  END
>  <smiles>  (953) 
C24472-P152

>  <fragmenstein_outcome>  (953) 
acceptable

>  <inchikey>  (953) 
BRGDBTPINDYTQL-UHFFFAOYSA-N

>  <fragmenstein_mode>  (953) 
expansion

>  <HIPPO Pose ID>  (953) 
19173

>  <Energy>  (953) 
59.82613

>  <fragmenstein_error>  (953) 


>  <tags>  (953) 
{'openbind_xx01zvns2b_c1_fragmenstein', 'fragmenstein_placed'}

>  <ref_pdb>  (953) 
1

>  <scratch_subdir>  (953) 
/opt/xchem-fragalysis-2/maxwin/BulkDock/SCRATCH/511027/C24472-P152

>  <alias>  (953) 
O=C(O)C[C@@H]1NCc2cc(NC(=O)c3cc4c[nH]sc4c4nncc34)ccc21

>  <HIPPO Compound ID>  (953) 
24472

>  <fragmenstein_runtime>  (953) 
5.334774

$$$$
O=C(NCC(F)F)[C@@](O)(Nc1ccc2c(c1)CNC2)c1cc(C(F)(F)F)c2sncc2c1
     RDKit          3D

 32 35  0  0  0  0  0  0  0  0999 V2000
   -7.9869    7.3365  -13.2738 O   0  0  0  0  0  0  0  0  0  0  0  0
   -7.0576    6.6444  -13.1096 C   0  0  0  0  0  0  0  0  0  0  0  0
   -5.6346    6.9769  -12.5648 N   0  0  0  0  0  0  0  0  0  0  0  0
   -5.0411    8.2446  -12.2029 C   0  0  0  0  0  0  0  0  0  0  0  0
   -5.8453    9.0384  -11.1766 C   0  0  0  0  0  0  0  0  0  0  0  0
   -5.7828    8.4200   -9.9681 F   0  0  0  0  0  0  0  0  0  0  0  0
   -5.2715   10.2596  -11.0106 F   0  0  0  0  0  0  0  0  0  0  0  0
   -7.0370    5.0726  -13.4320 C   0  0  1  0  0  0  0  0  0  0  0  0
   -5.7809    4.4695  -13.1648 O   0  0  0  0  0  0  0  0  0  0  0  0
   -8.0184    4.2926  -12.6792 N   0  0  0  0  0  0  0  0  0  0  0  0
   -8.1402    4.2450  -11.2922 C   0  0  0  0  0  0  0  0  0  0  0  0
   -8.0009    5.3626  -10.4483 C   0  0  0  0  0  0  0  0  0  0  0  0
   -8.2027    5.2834   -9.0635 C   0  0  0  0  0  0  0  0  0  0  0  0
   -8.5792    4.0725   -8.5273 C   0  0  0  0  0  0  0  0  0  0  0  0
   -8.7280    2.9565   -9.3370 C   0  0  0  0  0  0  0  0  0  0  0  0
   -8.5189    3.0256  -10.7047 C   0  0  0  0  0  0  0  0  0  0  0  0
   -9.1228    1.7929   -8.4908 C   0  0  0  0  0  0  0  0  0  0  0  0
   -9.5878    2.3910   -7.2129 N   0  0  0  0  0  0  0  0  0  0  0  0
   -8.9080    3.7018   -7.1206 C   0  0  0  0  0  0  0  0  0  0  0  0
   -7.3015    4.9136  -14.9344 C   0  0  0  0  0  0  0  0  0  0  0  0
   -6.2783    5.1061  -15.8758 C   0  0  0  0  0  0  0  0  0  0  0  0
   -6.4697    4.9046  -17.2607 C   0  0  0  0  0  0  0  0  0  0  0  0
   -5.3808    5.2493  -18.2369 C   0  0  0  0  0  0  0  0  0  0  0  0
   -5.3815    6.5788  -18.5452 F   0  0  0  0  0  0  0  0  0  0  0  0
   -4.1346    5.0042  -17.7358 F   0  0  0  0  0  0  0  0  0  0  0  0
   -5.4194    4.5908  -19.4279 F   0  0  0  0  0  0  0  0  0  0  0  0
   -7.7377    4.4434  -17.6469 C   0  0  0  0  0  0  0  0  0  0  0  0
   -8.2909    3.8514  -19.1526 S   0  0  0  0  0  0  0  0  0  0  0  0
   -9.8764    3.7604  -18.7662 N   0  0  0  0  0  0  0  0  0  0  0  0
  -10.0126    4.0981  -17.4982 C   0  0  0  0  0  0  0  0  0  0  0  0
   -8.8174    4.3717  -16.7677 C   0  0  0  0  0  0  0  0  0  0  0  0
   -8.5921    4.6289  -15.4066 C   0  0  0  0  0  0  0  0  0  0  0  0
  1  2  2  0
  2  3  1  0
  3  4  1  0
  4  5  1  0
  5  6  1  0
  5  7  1  0
  2  8  1  0
  8  9  1  6
  8 10  1  0
 10 11  1  0
 11 12  2  0
 12 13  1  0
 13 14  2  0
 14 15  1  0
 15 16  2  0
 15 17  1  0
 17 18  1  0
 18 19  1  0
  8 20  1  0
 20 21  2  0
 21 22  1  0
 22 23  1  0
 23 24  1  0
 23 25  1  0
 23 26  1  0
 22 27  2  0
 27 28  1  0
 28 29  1  0
 29 30  2  0
 30 31  1  0
 31 32  2  0
 16 11  1  0
 32 20  1  0
 19 14  1  0
 31 27  1  0
M  END
>  <smiles>  (954) 
C25419-P152

>  <fragmenstein_outcome>  (954) 
acceptable

>  <inchikey>  (954) 
HAXDRZZTJPLCQY-UHFFFAOYSA-N

>  <fragmenstein_mode>  (954) 
expansion

>  <HIPPO Pose ID>  (954) 
19175

>  <Energy>  (954) 
143.795409

>  <fragmenstein_error>  (954) 


>  <tags>  (954) 
{'openbind_xx01zvns2b_c1_fragmenstein', 'fragmenstein_placed'}

>  <ref_pdb>  (954) 
1

>  <scratch_subdir>  (954) 
/opt/xchem-fragalysis-2/maxwin/BulkDock/SCRATCH/511027/C25419-P152

>  <alias>  (954) 
O=C(NCC(F)F)[C@@](O)(Nc1ccc2c(c1)CNC2)c1cc(C(F)(F)F)c2sncc2c1

>  <HIPPO Compound ID>  (954) 
87620

>  <fragmenstein_runtime>  (954) 
11.749215

$$$$
N#CCCNc1cc(CNS)cc(C(=O)Nc2ccc3c(c2)CNC3)c1
     RDKit          3D

 26 28  0  0  0  0  0  0  0  0999 V2000
   -3.4517    5.0657  -20.3062 N   0  0  0  0  0  0  0  0  0  0  0  0
   -3.3170    5.8956  -19.5077 C   0  0  0  0  0  0  0  0  0  0  0  0
   -3.1936    6.9013  -18.4498 C   0  0  0  0  0  0  0  0  0  0  0  0
   -4.0990    6.5237  -17.2860 C   0  0  0  0  0  0  0  0  0  0  0  0
   -5.5049    6.5949  -17.6969 N   0  0  0  0  0  0  0  0  0  0  0  0
   -6.3471    5.8426  -16.8586 C   0  0  0  0  0  0  0  0  0  0  0  0
   -7.2903    4.9982  -17.4378 C   0  0  0  0  0  0  0  0  0  0  0  0
   -8.2012    4.3153  -16.6378 C   0  0  0  0  0  0  0  0  0  0  0  0
   -9.2014    3.4059  -17.2644 C   0  0  0  0  0  0  0  0  0  0  0  0
  -10.5121    3.9830  -17.2896 N   0  0  0  0  0  0  0  0  0  0  0  0
  -11.0478    4.7208  -18.6180 S   0  0  0  0  0  0  0  0  0  0  0  0
   -8.2030    4.5113  -15.2527 C   0  0  0  0  0  0  0  0  0  0  0  0
   -7.2590    5.3498  -14.6681 C   0  0  0  0  0  0  0  0  0  0  0  0
   -7.2979    5.6700  -13.2173 C   0  0  0  0  0  0  0  0  0  0  0  0
   -7.0961    6.7720  -12.8875 O   0  0  0  0  0  0  0  0  0  0  0  0
   -7.6759    4.4273  -12.3803 N   0  0  0  0  0  0  0  0  0  0  0  0
   -7.9661    4.3049  -11.0288 C   0  0  0  0  0  0  0  0  0  0  0  0
   -7.9178    5.4191  -10.1766 C   0  0  0  0  0  0  0  0  0  0  0  0
   -8.2393    5.2959   -8.8236 C   0  0  0  0  0  0  0  0  0  0  0  0
   -8.6301    4.0551   -8.3597 C   0  0  0  0  0  0  0  0  0  0  0  0
   -8.6839    2.9519   -9.2072 C   0  0  0  0  0  0  0  0  0  0  0  0
   -8.3409    3.0510  -10.5425 C   0  0  0  0  0  0  0  0  0  0  0  0
   -9.1279    1.7614   -8.4263 C   0  0  0  0  0  0  0  0  0  0  0  0
   -9.6953    2.3164   -7.1704 N   0  0  0  0  0  0  0  0  0  0  0  0
   -9.0364    3.6288   -6.9887 C   0  0  0  0  0  0  0  0  0  0  0  0
   -6.3332    6.0094  -15.4717 C   0  0  0  0  0  0  0  0  0  0  0  0
  1  2  3  0
  2  3  1  0
  3  4  1  0
  4  5  1  0
  5  6  1  0
  6  7  2  0
  7  8  1  0
  8  9  1  0
  9 10  1  0
 10 11  1  0
  8 12  2  0
 12 13  1  0
 13 14  1  0
 14 15  2  0
 14 16  1  0
 16 17  1  0
 17 18  2  0
 18 19  1  0
 19 20  2  0
 20 21  1  0
 21 22  2  0
 21 23  1  0
 23 24  1  0
 24 25  1  0
 13 26  2  0
 26  6  1  0
 22 17  1  0
 25 20  1  0
M  END
>  <smiles>  (955) 
C104881-P152

>  <fragmenstein_outcome>  (955) 
acceptable

>  <inchikey>  (955) 
REMJPDAIFUJEPY-UHFFFAOYSA-N

>  <fragmenstein_mode>  (955) 
expansion

>  <HIPPO Pose ID>  (955) 
19176

>  <Energy>  (955) 
65.62998

>  <fragmenstein_error>  (955) 


>  <tags>  (955) 
{'openbind_xx01zvns2b_c1_fragmenstein', 'fragmenstein_placed'}

>  <ref_pdb>  (955) 
1

>  <scratch_subdir>  (955) 
/opt/xchem-fragalysis-2/maxwin/BulkDock/SCRATCH/511027/C104881-P152

>  <alias>  (955) 
N#CCCNc1cc(CNS)cc(C(=O)Nc2ccc3c(c2)CNC3)c1

>  <HIPPO Compound ID>  (955) 
104881

>  <fragmenstein_runtime>  (955) 
4.391386

$$$$
CC[C@H]1NCc2cc(NC(=O)c3[nH]c(CNS)cc3CNN)ccc21
     RDKit          3D

 25 27  0  0  0  0  0  0  0  0999 V2000
   -9.0488    4.2289   -4.9021 C   0  0  0  0  0  0  0  0  0  0  0  0
   -9.1712    4.7102   -6.3439 C   0  0  0  0  0  0  0  0  0  0  0  0
   -8.5179    3.7499   -7.3385 C   0  0  1  0  0  0  0  0  0  0  0  0
   -9.1695    2.4226   -7.3578 N   0  0  0  0  0  0  0  0  0  0  0  0
   -8.9138    1.8587   -8.7054 C   0  0  0  0  0  0  0  0  0  0  0  0
   -8.6379    3.0396   -9.5799 C   0  0  0  0  0  0  0  0  0  0  0  0
   -8.5095    3.1061  -10.9607 C   0  0  0  0  0  0  0  0  0  0  0  0
   -8.2674    4.3537  -11.5413 C   0  0  0  0  0  0  0  0  0  0  0  0
   -8.0966    4.4477  -12.9215 N   0  0  0  0  0  0  0  0  0  0  0  0
   -7.8937    5.6816  -13.8241 C   0  0  0  0  0  0  0  0  0  0  0  0
   -7.9141    6.8186  -13.5659 O   0  0  0  0  0  0  0  0  0  0  0  0
   -7.5571    5.2424  -15.1633 C   0  0  0  0  0  0  0  0  0  0  0  0
   -8.4300    4.6869  -16.0647 N   0  0  0  0  0  0  0  0  0  0  0  0
   -7.7798    4.4337  -17.2512 C   0  0  0  0  0  0  0  0  0  0  0  0
   -8.4355    3.7255  -18.3804 C   0  0  0  0  0  0  0  0  0  0  0  0
   -9.5892    4.4053  -18.9171 N   0  0  0  0  0  0  0  0  0  0  0  0
  -11.0053    4.5257  -18.1145 S   0  0  0  0  0  0  0  0  0  0  0  0
   -6.4782    4.8661  -17.1124 C   0  0  0  0  0  0  0  0  0  0  0  0
   -6.3155    5.3350  -15.7825 C   0  0  0  0  0  0  0  0  0  0  0  0
   -5.0506    5.8260  -15.1588 C   0  0  0  0  0  0  0  0  0  0  0  0
   -4.5041    4.7562  -14.3137 N   0  0  0  0  0  0  0  0  0  0  0  0
   -3.3351    5.2028  -13.5953 N   0  0  0  0  0  0  0  0  0  0  0  0
   -8.1544    5.4968  -10.7322 C   0  0  0  0  0  0  0  0  0  0  0  0
   -8.2451    5.4080   -9.3405 C   0  0  0  0  0  0  0  0  0  0  0  0
   -8.4823    4.1701   -8.7770 C   0  0  0  0  0  0  0  0  0  0  0  0
  1  2  1  0
  3  2  1  1
  3  4  1  0
  4  5  1  0
  5  6  1  0
  6  7  2  0
  7  8  1  0
  8  9  1  0
  9 10  1  0
 10 11  2  0
 10 12  1  0
 12 13  1  0
 13 14  1  0
 14 15  1  0
 15 16  1  0
 16 17  1  0
 14 18  2  0
 18 19  1  0
 19 20  1  0
 20 21  1  0
 21 22  1  0
  8 23  2  0
 23 24  1  0
 24 25  2  0
 25  3  1  0
 25  6  1  0
 19 12  2  0
M  END
>  <smiles>  (956) 
C104890-P152

>  <fragmenstein_outcome>  (956) 
acceptable

>  <inchikey>  (956) 
SCVSRMRVFGUVBO-UHFFFAOYSA-N

>  <fragmenstein_mode>  (956) 
expansion

>  <HIPPO Pose ID>  (956) 
19181

>  <Energy>  (956) 
79.644541

>  <fragmenstein_error>  (956) 


>  <tags>  (956) 
{'openbind_xx01zvns2b_c1_fragmenstein', 'fragmenstein_placed'}

>  <ref_pdb>  (956) 
1

>  <scratch_subdir>  (956) 
/opt/xchem-fragalysis-2/maxwin/BulkDock/SCRATCH/511027/C104890-P152

>  <alias>  (956) 
CC[C@H]1NCc2cc(NC(=O)c3[nH]c(CNS)cc3CNN)ccc21

>  <HIPPO Compound ID>  (956) 
87614

>  <fragmenstein_runtime>  (956) 
9.027771

$$$$
O=C(Nc1ccc2c(c1)CNC2)[C@H]1CC2=CC=CN3CNC(=C23)C1
     RDKit          3D

 24 28  0  0  0  0  0  0  0  0999 V2000
   -7.4906    7.0911  -12.8385 O   0  0  0  0  0  0  0  0  0  0  0  0
   -7.5345    5.9803  -13.2062 C   0  0  0  0  0  0  0  0  0  0  0  0
   -7.7107    4.6591  -12.4040 N   0  0  0  0  0  0  0  0  0  0  0  0
   -7.9541    4.4504  -11.0525 C   0  0  0  0  0  0  0  0  0  0  0  0
   -7.9492    5.5308  -10.1556 C   0  0  0  0  0  0  0  0  0  0  0  0
   -8.2573    5.3431   -8.8076 C   0  0  0  0  0  0  0  0  0  0  0  0
   -8.6056    4.0734   -8.3936 C   0  0  0  0  0  0  0  0  0  0  0  0
   -8.6180    3.0019   -9.2832 C   0  0  0  0  0  0  0  0  0  0  0  0
   -8.2692    3.1623  -10.6133 C   0  0  0  0  0  0  0  0  0  0  0  0
   -9.0548    1.7751   -8.5537 C   0  0  0  0  0  0  0  0  0  0  0  0
   -9.6425    2.2706   -7.2807 N   0  0  0  0  0  0  0  0  0  0  0  0
   -9.0158    3.5884   -7.0437 C   0  0  0  0  0  0  0  0  0  0  0  0
   -7.4822    5.6573  -14.6940 C   0  0  1  0  0  0  0  0  0  0  0  0
   -6.0937    5.1762  -15.1458 C   0  0  0  0  0  0  0  0  0  0  0  0
   -6.0582    5.0287  -16.6450 C   0  0  0  0  0  0  0  0  0  0  0  0
   -5.0470    5.3300  -17.4866 C   0  0  0  0  0  0  0  0  0  0  0  0
   -5.1906    5.0917  -18.9255 C   0  0  0  0  0  0  0  0  0  0  0  0
   -6.3255    4.5366  -19.3917 C   0  0  0  0  0  0  0  0  0  0  0  0
   -7.3849    4.2458  -18.5596 N   0  0  0  0  0  0  0  0  0  0  0  0
   -8.7796    3.8917  -18.8561 C   0  0  0  0  0  0  0  0  0  0  0  0
   -9.4170    3.9159  -17.5011 N   0  0  0  0  0  0  0  0  0  0  0  0
   -8.4515    4.3696  -16.5963 C   0  0  0  0  0  0  0  0  0  0  0  0
   -7.2794    4.5259  -17.2157 C   0  0  0  0  0  0  0  0  0  0  0  0
   -8.6675    4.7917  -15.1918 C   0  0  0  0  0  0  0  0  0  0  0  0
  1  2  2  0
  2  3  1  0
  3  4  1  0
  4  5  2  0
  5  6  1  0
  6  7  2  0
  7  8  1  0
  8  9  2  0
  8 10  1  0
 10 11  1  0
 11 12  1  0
 13  2  1  1
 13 14  1  0
 14 15  1  0
 15 16  2  0
 16 17  1  0
 17 18  2  0
 18 19  1  0
 19 20  1  0
 20 21  1  0
 21 22  1  0
 22 23  2  0
 22 24  1  0
  9  4  1  0
 24 13  1  0
 12  7  1  0
 23 15  1  0
 23 19  1  0
M  END
>  <smiles>  (957) 
C104966-P152

>  <fragmenstein_outcome>  (957) 
acceptable

>  <inchikey>  (957) 
UWFMQOAIJFHYEX-UHFFFAOYSA-N

>  <fragmenstein_mode>  (957) 
expansion

>  <HIPPO Pose ID>  (957) 
19209

>  <Energy>  (957) 
53.745214

>  <fragmenstein_error>  (957) 


>  <tags>  (957) 
{'openbind_xx01zvns2b_c1_fragmenstein', 'fragmenstein_placed'}

>  <ref_pdb>  (957) 
1

>  <scratch_subdir>  (957) 
/opt/xchem-fragalysis-2/maxwin/BulkDock/SCRATCH/511027/C104966-P152

>  <alias>  (957) 
O=C(Nc1ccc2c(c1)CNC2)[C@H]1CC2=CC=CN3CNC(=C23)C1

>  <HIPPO Compound ID>  (957) 
104966

>  <fragmenstein_runtime>  (957) 
3.919877

$$$$
Cc1cc2c(cc1NC(=O)c1cc(C)c3ncccc3c1)CNC2
     RDKit          3D

 24 27  0  0  0  0  0  0  0  0999 V2000
   -7.2394    6.9573  -10.3836 C   0  0  0  0  0  0  0  0  0  0  0  0
   -7.6887    5.5619  -10.0694 C   0  0  0  0  0  0  0  0  0  0  0  0
   -8.0923    5.3396   -8.7314 C   0  0  0  0  0  0  0  0  0  0  0  0
   -8.5525    4.0968   -8.3452 C   0  0  0  0  0  0  0  0  0  0  0  0
   -8.6122    3.0545   -9.2497 C   0  0  0  0  0  0  0  0  0  0  0  0
   -8.2175    3.2329  -10.5610 C   0  0  0  0  0  0  0  0  0  0  0  0
   -7.7493    4.4949  -10.9932 C   0  0  0  0  0  0  0  0  0  0  0  0
   -7.4441    4.5116  -12.3644 N   0  0  0  0  0  0  0  0  0  0  0  0
   -6.8857    5.6491  -13.2584 C   0  0  0  0  0  0  0  0  0  0  0  0
   -6.5210    6.7229  -12.9780 O   0  0  0  0  0  0  0  0  0  0  0  0
   -6.9502    5.2543  -14.6834 C   0  0  0  0  0  0  0  0  0  0  0  0
   -5.8710    5.4438  -15.5426 C   0  0  0  0  0  0  0  0  0  0  0  0
   -5.9885    5.1034  -16.9032 C   0  0  0  0  0  0  0  0  0  0  0  0
   -4.8484    5.3862  -17.8402 C   0  0  0  0  0  0  0  0  0  0  0  0
   -7.1886    4.5921  -17.4050 C   0  0  0  0  0  0  0  0  0  0  0  0
   -7.3055    4.2383  -18.6925 N   0  0  0  0  0  0  0  0  0  0  0  0
   -8.5242    3.8540  -19.1310 C   0  0  0  0  0  0  0  0  0  0  0  0
   -9.6494    3.7917  -18.3451 C   0  0  0  0  0  0  0  0  0  0  0  0
   -9.5151    4.0861  -17.0139 C   0  0  0  0  0  0  0  0  0  0  0  0
   -8.2824    4.4807  -16.5226 C   0  0  0  0  0  0  0  0  0  0  0  0
   -8.1677    4.7990  -15.1771 C   0  0  0  0  0  0  0  0  0  0  0  0
   -9.1063    1.8311   -8.5551 C   0  0  0  0  0  0  0  0  0  0  0  0
   -9.6912    2.3233   -7.2809 N   0  0  0  0  0  0  0  0  0  0  0  0
   -9.0192    3.6142   -7.0133 C   0  0  0  0  0  0  0  0  0  0  0  0
  1  2  1  0
  2  3  2  0
  3  4  1  0
  4  5  2  0
  5  6  1  0
  6  7  2  0
  7  8  1  0
  8  9  1  0
  9 10  2  0
  9 11  1  0
 11 12  2  0
 12 13  1  0
 13 14  1  0
 13 15  2  0
 15 16  1  0
 16 17  2  0
 17 18  1  0
 18 19  2  0
 19 20  1  0
 20 21  2  0
  5 22  1  0
 22 23  1  0
 23 24  1  0
  7  2  1  0
 21 11  1  0
 24  4  1  0
 20 15  1  0
M  END
>  <smiles>  (958) 
C104986-P152

>  <fragmenstein_outcome>  (958) 
acceptable

>  <inchikey>  (958) 
ZSRRDSNSUHVVHG-UHFFFAOYSA-N

>  <fragmenstein_mode>  (958) 
expansion

>  <HIPPO Pose ID>  (958) 
19213

>  <Energy>  (958) 
83.38075

>  <fragmenstein_error>  (958) 


>  <tags>  (958) 
{'openbind_xx01zvns2b_c1_fragmenstein', 'fragmenstein_placed'}

>  <ref_pdb>  (958) 
1

>  <scratch_subdir>  (958) 
/opt/xchem-fragalysis-2/maxwin/BulkDock/SCRATCH/511027/C104986-P152

>  <alias>  (958) 
Cc1cc2c(cc1NC(=O)c1cc(C)c3ncccc3c1)CNC2

>  <HIPPO Compound ID>  (958) 
104986

>  <fragmenstein_runtime>  (958) 
4.165956

$$$$
COCn1cc2c(n1)C[C@H](Cl)C[C@@]2(O)[C@H](Nc1ccc2c(c1)CNC2)C(=O)NCS(=O)(=O)c1ccc(C)cc1
     RDKit          3D

 39 43  0  0  0  0  0  0  0  0999 V2000
   -2.5381    4.6102  -19.1033 C   0  0  0  0  0  0  0  0  0  0  0  0
   -2.4019    4.8505  -17.7093 O   0  0  0  0  0  0  0  0  0  0  0  0
   -3.0592    6.0454  -17.2888 C   0  0  0  0  0  0  0  0  0  0  0  0
   -4.4247    5.7443  -16.8895 N   0  0  0  0  0  0  0  0  0  0  0  0
   -4.9779    5.8481  -15.6425 C   0  0  0  0  0  0  0  0  0  0  0  0
   -6.2925    5.4329  -15.7540 C   0  0  0  0  0  0  0  0  0  0  0  0
   -6.4180    5.1243  -17.1275 C   0  0  0  0  0  0  0  0  0  0  0  0
   -5.3126    5.3744  -17.8209 N   0  0  0  0  0  0  0  0  0  0  0  0
   -7.6308    4.6337  -17.7957 C   0  0  0  0  0  0  0  0  0  0  0  0
   -8.6327    4.1233  -16.7682 C   0  0  2  0  0  0  0  0  0  0  0  0
  -10.2110    4.0212  -17.5927 Cl  0  0  0  0  0  0  0  0  0  0  0  0
   -8.7493    4.9361  -15.4610 C   0  0  0  0  0  0  0  0  0  0  0  0
   -7.4072    5.3022  -14.7299 C   0  0  2  0  0  0  0  0  0  0  0  0
   -7.6331    6.5783  -14.1005 O   0  0  0  0  0  0  0  0  0  0  0  0
   -7.0586    4.2431  -13.6305 C   0  0  2  0  0  0  0  0  0  0  0  0
   -8.2138    3.8349  -12.8004 N   0  0  0  0  0  0  0  0  0  0  0  0
   -8.2989    3.9762  -11.4261 C   0  0  0  0  0  0  0  0  0  0  0  0
   -7.9973    5.1781  -10.7630 C   0  0  0  0  0  0  0  0  0  0  0  0
   -8.0686    5.2859   -9.3689 C   0  0  0  0  0  0  0  0  0  0  0  0
   -8.4425    4.1713   -8.6452 C   0  0  0  0  0  0  0  0  0  0  0  0
   -8.7513    2.9820   -9.2842 C   0  0  0  0  0  0  0  0  0  0  0  0
   -8.6846    2.8687  -10.6610 C   0  0  0  0  0  0  0  0  0  0  0  0
   -9.1698    1.9662   -8.2814 C   0  0  0  0  0  0  0  0  0  0  0  0
   -8.8975    2.5671   -6.9480 N   0  0  0  0  0  0  0  0  0  0  0  0
   -8.6277    4.0051   -7.1787 C   0  0  0  0  0  0  0  0  0  0  0  0
   -5.7846    4.6339  -12.8080 C   0  0  0  0  0  0  0  0  0  0  0  0
   -5.4736    5.7481  -12.6324 O   0  0  0  0  0  0  0  0  0  0  0  0
   -5.0599    3.3150  -12.4254 N   0  0  0  0  0  0  0  0  0  0  0  0
   -3.8502    3.0953  -11.6642 C   0  0  0  0  0  0  0  0  0  0  0  0
   -3.9564    2.5253   -9.9597 S   0  0  0  0  0  0  0  0  0  0  0  0
   -4.6081    3.5328   -9.1472 O   0  0  0  0  0  0  0  0  0  0  0  0
   -4.3582    1.1297   -9.9305 O   0  0  0  0  0  0  0  0  0  0  0  0
   -2.2397    2.5155   -9.4595 C   0  0  0  0  0  0  0  0  0  0  0  0
   -1.3477    1.6511  -10.1005 C   0  0  0  0  0  0  0  0  0  0  0  0
   -0.0112    1.6245   -9.7010 C   0  0  0  0  0  0  0  0  0  0  0  0
    0.4382    2.4624   -8.6712 C   0  0  0  0  0  0  0  0  0  0  0  0
    1.8686    2.4069   -8.2187 C   0  0  0  0  0  0  0  0  0  0  0  0
   -0.4738    3.3091   -8.0256 C   0  0  0  0  0  0  0  0  0  0  0  0
   -1.8126    3.3402   -8.4179 C   0  0  0  0  0  0  0  0  0  0  0  0
  1  2  1  0
  2  3  1  0
  3  4  1  0
  4  5  1  0
  5  6  2  0
  6  7  1  0
  7  8  2  0
  7  9  1  0
  9 10  1  0
 10 11  1  6
 10 12  1  0
 12 13  1  0
 13 14  1  1
 13 15  1  0
 15 16  1  1
 16 17  1  0
 17 18  2  0
 18 19  1  0
 19 20  2  0
 20 21  1  0
 21 22  2  0
 21 23  1  0
 23 24  1  0
 24 25  1  0
 15 26  1  0
 26 27  2  0
 26 28  1  0
 28 29  1  0
 29 30  1  0
 30 31  2  0
 30 32  2  0
 30 33  1  0
 33 34  2  0
 34 35  1  0
 35 36  2  0
 36 37  1  0
 36 38  1  0
 38 39  2  0
  8  4  1  0
 22 17  1  0
 39 33  1  0
 13  6  1  0
 25 20  1  0
M  END
>  <smiles>  (959) 
C105225-P153

>  <fragmenstein_outcome>  (959) 
acceptable

>  <inchikey>  (959) 
BVUKRKWZLISOOX-UHFFFAOYSA-N

>  <fragmenstein_mode>  (959) 
expansion

>  <HIPPO Pose ID>  (959) 
19312

>  <Energy>  (959) 
240.131792

>  <fragmenstein_error>  (959) 


>  <tags>  (959) 
{'openbind_xx01zvns2b_c1_fragmenstein', 'fragmenstein_placed'}

>  <ref_pdb>  (959) 
1

>  <scratch_subdir>  (959) 
/opt/xchem-fragalysis-2/maxwin/BulkDock/SCRATCH/511027/C105225-P153

>  <alias>  (959) 
COCn1cc2c(n1)C[C@H](Cl)C[C@@]2(O)[C@H](Nc1ccc2c(c1)CNC2)C(=O)NCS(=O)(=O)c1ccc(C)cc1

>  <HIPPO Compound ID>  (959) 
105225

>  <fragmenstein_runtime>  (959) 
13.772397

$$$$
CNNc1cc(Cl)cc([C@](O)(Nc2cc3c(cc2S(C)(=O)=O)CNC3)C(=O)NCS(=O)(=O)c2ccc(C)cc2)c1
     RDKit          3D

 40 43  0  0  0  0  0  0  0  0999 V2000
   -3.5536    6.6154  -17.5751 C   0  0  0  0  0  0  0  0  0  0  0  0
   -4.0540    5.2446  -17.5856 N   0  0  0  0  0  0  0  0  0  0  0  0
   -5.3577    5.2491  -18.1296 N   0  0  0  0  0  0  0  0  0  0  0  0
   -6.4310    4.9058  -17.2751 C   0  0  0  0  0  0  0  0  0  0  0  0
   -7.6781    4.5929  -17.8053 C   0  0  0  0  0  0  0  0  0  0  0  0
   -8.7600    4.3420  -16.9586 C   0  0  0  0  0  0  0  0  0  0  0  0
  -10.2848    4.0010  -17.6857 Cl  0  0  0  0  0  0  0  0  0  0  0  0
   -8.6314    4.4279  -15.5635 C   0  0  0  0  0  0  0  0  0  0  0  0
   -7.3972    4.7822  -15.0025 C   0  0  0  0  0  0  0  0  0  0  0  0
   -7.1361    5.0918  -13.5166 C   0  0  2  0  0  0  0  0  0  0  0  0
   -5.8392    4.5939  -13.2746 O   0  0  0  0  0  0  0  0  0  0  0  0
   -8.0228    4.3144  -12.6341 N   0  0  0  0  0  0  0  0  0  0  0  0
   -7.8652    4.1666  -11.2327 C   0  0  0  0  0  0  0  0  0  0  0  0
   -8.5658    3.0777  -10.6773 C   0  0  0  0  0  0  0  0  0  0  0  0
   -8.7931    3.0196   -9.3119 C   0  0  0  0  0  0  0  0  0  0  0  0
   -8.5259    4.0964   -8.4873 C   0  0  0  0  0  0  0  0  0  0  0  0
   -7.8579    5.1923   -8.9774 C   0  0  0  0  0  0  0  0  0  0  0  0
   -7.3698    5.1272  -10.3038 C   0  0  0  0  0  0  0  0  0  0  0  0
   -5.5887    5.5543  -10.3031 S   0  0  0  0  0  0  0  0  0  0  0  0
   -4.7880    3.9653  -10.3041 C   0  0  0  0  0  0  0  0  0  0  0  0
   -5.2654    6.1712   -9.0263 O   0  0  0  0  0  0  0  0  0  0  0  0
   -5.2641    6.2499  -11.5306 O   0  0  0  0  0  0  0  0  0  0  0  0
   -8.8921    3.7514   -7.0814 C   0  0  0  0  0  0  0  0  0  0  0  0
   -9.6270    2.4707   -7.1699 N   0  0  0  0  0  0  0  0  0  0  0  0
   -9.2255    1.8741   -8.4657 C   0  0  0  0  0  0  0  0  0  0  0  0
   -7.3390    6.7087  -13.3787 C   0  0  0  0  0  0  0  0  0  0  0  0
   -6.5699    7.4682  -13.8227 O   0  0  0  0  0  0  0  0  0  0  0  0
   -8.6754    6.9532  -12.6335 N   0  0  0  0  0  0  0  0  0  0  0  0
   -9.2975    8.1892  -12.1947 C   0  0  0  0  0  0  0  0  0  0  0  0
   -8.3266    9.7124  -12.0900 S   0  0  0  0  0  0  0  0  0  0  0  0
   -8.0534   10.2175  -13.4243 O   0  0  0  0  0  0  0  0  0  0  0  0
   -7.2699    9.5549  -11.1078 O   0  0  0  0  0  0  0  0  0  0  0  0
   -9.5171   10.8283  -11.3658 C   0  0  0  0  0  0  0  0  0  0  0  0
  -10.1287   11.8052  -12.1541 C   0  0  0  0  0  0  0  0  0  0  0  0
  -11.0975   12.6347  -11.5873 C   0  0  0  0  0  0  0  0  0  0  0  0
  -11.4491   12.4981  -10.2381 C   0  0  0  0  0  0  0  0  0  0  0  0
  -12.5405   13.3380   -9.6432 C   0  0  0  0  0  0  0  0  0  0  0  0
  -10.8184   11.5180   -9.4612 C   0  0  0  0  0  0  0  0  0  0  0  0
   -9.8429   10.6907  -10.0156 C   0  0  0  0  0  0  0  0  0  0  0  0
   -6.3235    5.0172  -15.8892 C   0  0  0  0  0  0  0  0  0  0  0  0
  1  2  1  0
  2  3  1  0
  3  4  1  0
  4  5  2  0
  5  6  1  0
  6  7  1  0
  6  8  2  0
  8  9  1  0
  9 10  1  0
 10 11  1  1
 10 12  1  0
 12 13  1  0
 13 14  2  0
 14 15  1  0
 15 16  2  0
 16 17  1  0
 17 18  2  0
 18 19  1  0
 19 20  1  0
 19 21  2  0
 19 22  2  0
 16 23  1  0
 23 24  1  0
 24 25  1  0
 10 26  1  0
 26 27  2  0
 26 28  1  0
 28 29  1  0
 29 30  1  0
 30 31  2  0
 30 32  2  0
 30 33  1  0
 33 34  2  0
 34 35  1  0
 35 36  2  0
 36 37  1  0
 36 38  1  0
 38 39  2  0
  9 40  2  0
 40  4  1  0
 18 13  1  0
 39 33  1  0
 25 15  1  0
M  END
>  <smiles>  (960) 
C105230-P244

>  <fragmenstein_outcome>  (960) 
acceptable

>  <inchikey>  (960) 
UOKMJCLFZBOBFX-UHFFFAOYSA-N

>  <fragmenstein_mode>  (960) 
expansion

>  <HIPPO Pose ID>  (960) 
19316

>  <Energy>  (960) 
271.178487

>  <fragmenstein_error>  (960) 


>  <tags>  (960) 
{'openbind_xx01zvns2b_c1_fragmenstein', 'fragmenstein_placed'}

>  <ref_pdb>  (960) 
1

>  <scratch_subdir>  (960) 
/opt/xchem-fragalysis-2/maxwin/BulkDock/SCRATCH/511027/C105230-P244

>  <alias>  (960) 
CNNc1cc(Cl)cc([C@](O)(Nc2cc3c(cc2S(C)(=O)=O)CNC3)C(=O)NCS(=O)(=O)c2ccc(C)cc2)c1

>  <HIPPO Compound ID>  (960) 
105230

>  <fragmenstein_runtime>  (960) 
15.221694

$$$$
Cc1ccc(S(=O)(=O)CNC(=O)[C@@](O)(Nc2ccc3c(c2)[C@@H](N)NC3)c2cc(Cl)c(CN)c3[nH]ncc23)cc1
     RDKit          3D

 39 43  0  0  0  0  0  0  0  0999 V2000
  -10.7262   14.7409  -14.8858 C   0  0  0  0  0  0  0  0  0  0  0  0
  -10.5715   13.3663  -14.3033 C   0  0  0  0  0  0  0  0  0  0  0  0
  -11.0988   12.2497  -14.9667 C   0  0  0  0  0  0  0  0  0  0  0  0
  -10.9992   10.9775  -14.4019 C   0  0  0  0  0  0  0  0  0  0  0  0
  -10.3554   10.8225  -13.1740 C   0  0  0  0  0  0  0  0  0  0  0  0
  -10.1685    9.2060  -12.4697 S   0  0  0  0  0  0  0  0  0  0  0  0
  -10.8951    8.2600  -13.3008 O   0  0  0  0  0  0  0  0  0  0  0  0
  -10.4311    9.3139  -11.0500 O   0  0  0  0  0  0  0  0  0  0  0  0
   -8.4223    8.8565  -12.6970 C   0  0  0  0  0  0  0  0  0  0  0  0
   -8.0740    7.4711  -12.9410 N   0  0  0  0  0  0  0  0  0  0  0  0
   -6.6907    6.7703  -12.9689 C   0  0  0  0  0  0  0  0  0  0  0  0
   -5.6140    7.2161  -12.8759 O   0  0  0  0  0  0  0  0  0  0  0  0
   -6.9589    5.2045  -13.2610 C   0  0  1  0  0  0  0  0  0  0  0  0
   -5.8998    4.3637  -12.8621 O   0  0  0  0  0  0  0  0  0  0  0  0
   -8.1854    4.7044  -12.6192 N   0  0  0  0  0  0  0  0  0  0  0  0
   -8.2536    4.5567  -11.2215 C   0  0  0  0  0  0  0  0  0  0  0  0
   -7.9736    5.5858  -10.3007 C   0  0  0  0  0  0  0  0  0  0  0  0
   -8.1351    5.4113   -8.9182 C   0  0  0  0  0  0  0  0  0  0  0  0
   -8.5932    4.1954   -8.4664 C   0  0  0  0  0  0  0  0  0  0  0  0
   -8.8830    3.1811   -9.3640 C   0  0  0  0  0  0  0  0  0  0  0  0
   -8.7275    3.3389  -10.7270 C   0  0  0  0  0  0  0  0  0  0  0  0
   -9.2935    1.9679   -8.6231 C   0  0  1  0  0  0  0  0  0  0  0  0
   -8.2186    1.0437   -8.6177 N   0  0  0  0  0  0  0  0  0  0  0  0
   -9.5182    2.3813   -7.2381 N   0  0  0  0  0  0  0  0  0  0  0  0
   -8.8389    3.6923   -7.0841 C   0  0  0  0  0  0  0  0  0  0  0  0
   -7.0778    5.0225  -14.7837 C   0  0  0  0  0  0  0  0  0  0  0  0
   -8.2798    4.6114  -15.4242 C   0  0  0  0  0  0  0  0  0  0  0  0
   -8.3510    4.3532  -16.7984 C   0  0  0  0  0  0  0  0  0  0  0  0
   -9.8655    3.8880  -17.4689 Cl  0  0  0  0  0  0  0  0  0  0  0  0
   -7.2468    4.5090  -17.6357 C   0  0  0  0  0  0  0  0  0  0  0  0
   -7.2530    4.1056  -19.0764 C   0  0  0  0  0  0  0  0  0  0  0  0
   -6.1576    4.7442  -19.8308 N   0  0  0  0  0  0  0  0  0  0  0  0
   -6.1027    4.9955  -17.0025 C   0  0  0  0  0  0  0  0  0  0  0  0
   -4.8815    5.2858  -17.5499 N   0  0  0  0  0  0  0  0  0  0  0  0
   -3.9701    5.7178  -16.6718 N   0  0  0  0  0  0  0  0  0  0  0  0
   -4.6330    5.6605  -15.5122 C   0  0  0  0  0  0  0  0  0  0  0  0
   -5.9803    5.2438  -15.6485 C   0  0  0  0  0  0  0  0  0  0  0  0
   -9.8558   11.9279  -12.4824 C   0  0  0  0  0  0  0  0  0  0  0  0
   -9.9682   13.1980  -13.0492 C   0  0  0  0  0  0  0  0  0  0  0  0
  1  2  1  0
  2  3  2  0
  3  4  1  0
  4  5  2  0
  5  6  1  0
  6  7  2  0
  6  8  2  0
  6  9  1  0
  9 10  1  0
 10 11  1  0
 11 12  2  0
 11 13  1  0
 13 14  1  1
 13 15  1  0
 15 16  1  0
 16 17  2  0
 17 18  1  0
 18 19  2  0
 19 20  1  0
 20 21  2  0
 20 22  1  0
 22 23  1  1
 22 24  1  0
 24 25  1  0
 13 26  1  0
 26 27  2  0
 27 28  1  0
 28 29  1  0
 28 30  2  0
 30 31  1  0
 31 32  1  0
 30 33  1  0
 33 34  1  0
 34 35  1  0
 35 36  2  0
 36 37  1  0
  5 38  1  0
 38 39  2  0
 39  2  1  0
 21 16  1  0
 37 26  1  0
 25 19  1  0
 37 33  2  0
M  END
>  <smiles>  (961) 
C105268-P153

>  <fragmenstein_outcome>  (961) 
acceptable

>  <inchikey>  (961) 
HUUGWOCQHLBRME-UHFFFAOYSA-N

>  <fragmenstein_mode>  (961) 
expansion

>  <HIPPO Pose ID>  (961) 
19345

>  <Energy>  (961) 
103.82873

>  <fragmenstein_error>  (961) 


>  <tags>  (961) 
{'openbind_xx01zvns2b_c1_fragmenstein', 'fragmenstein_placed'}

>  <ref_pdb>  (961) 
1

>  <scratch_subdir>  (961) 
/opt/xchem-fragalysis-2/maxwin/BulkDock/SCRATCH/511027/C105268-P153

>  <alias>  (961) 
Cc1ccc(S(=O)(=O)CNC(=O)[C@@](O)(Nc2ccc3c(c2)[C@@H](N)NC3)c2cc(Cl)c(CN)c3[nH]ncc23)cc1

>  <HIPPO Compound ID>  (961) 
105268

>  <fragmenstein_runtime>  (961) 
17.390917

$$$$
Cc1ccc(S(=O)(=O)CNC(=O)[C@](O)(N[C@H]2CC3=C(CNC3)C3(C2)NNNN3)c2cc(Cl)c(CN)c3[nH]ncc23)cc1
     RDKit          3D

 42 47  0  0  0  0  0  0  0  0999 V2000
   -3.3054    6.6747   -6.4748 C   0  0  0  0  0  0  0  0  0  0  0  0
   -3.1305    5.9595   -7.7830 C   0  0  0  0  0  0  0  0  0  0  0  0
   -3.0596    4.5605   -7.8168 C   0  0  0  0  0  0  0  0  0  0  0  0
   -2.8691    3.8915   -9.0263 C   0  0  0  0  0  0  0  0  0  0  0  0
   -2.7465    4.6262  -10.2097 C   0  0  0  0  0  0  0  0  0  0  0  0
   -2.4365    3.7620  -11.7321 S   0  0  0  0  0  0  0  0  0  0  0  0
   -2.2653    4.7325  -12.7980 O   0  0  0  0  0  0  0  0  0  0  0  0
   -1.3597    2.8283  -11.4396 O   0  0  0  0  0  0  0  0  0  0  0  0
   -3.9210    2.8052  -12.0332 C   0  0  0  0  0  0  0  0  0  0  0  0
   -5.1655    3.4049  -12.4744 N   0  0  0  0  0  0  0  0  0  0  0  0
   -5.5781    4.9009  -12.6003 C   0  0  0  0  0  0  0  0  0  0  0  0
   -5.0039    5.8745  -12.2943 O   0  0  0  0  0  0  0  0  0  0  0  0
   -7.0907    4.9429  -13.1766 C   0  0  2  0  0  0  0  0  0  0  0  0
   -7.7567    6.1672  -12.9316 O   0  0  0  0  0  0  0  0  0  0  0  0
   -7.8053    3.8427  -12.5056 N   0  0  0  0  0  0  0  0  0  0  0  0
   -8.2065    4.0941  -11.0990 C   0  0  1  0  0  0  0  0  0  0  0  0
   -8.5445    2.7174  -10.4741 C   0  0  0  0  0  0  0  0  0  0  0  0
   -8.7992    2.8388   -9.0167 C   0  0  0  0  0  0  0  0  0  0  0  0
   -8.5319    3.9143   -8.2685 C   0  0  0  0  0  0  0  0  0  0  0  0
   -8.9460    3.6681   -6.8643 C   0  0  0  0  0  0  0  0  0  0  0  0
   -9.6852    2.3864   -6.9034 N   0  0  0  0  0  0  0  0  0  0  0  0
   -9.3046    1.7353   -8.1712 C   0  0  0  0  0  0  0  0  0  0  0  0
   -7.8233    5.1298   -8.7506 C   0  0  0  0  0  0  0  0  0  0  0  0
   -7.2252    4.8482  -10.1638 C   0  0  0  0  0  0  0  0  0  0  0  0
   -6.7661    5.5313   -7.8183 N   0  0  0  0  0  0  0  0  0  0  0  0
   -6.6590    6.9555   -7.9351 N   0  0  0  0  0  0  0  0  0  0  0  0
   -7.9058    7.4291   -8.4213 N   0  0  0  0  0  0  0  0  0  0  0  0
   -8.7077    6.2917   -8.7709 N   0  0  0  0  0  0  0  0  0  0  0  0
   -7.1024    4.8072  -14.7052 C   0  0  0  0  0  0  0  0  0  0  0  0
   -8.3136    4.4630  -15.3730 C   0  0  0  0  0  0  0  0  0  0  0  0
   -8.3945    4.2855  -16.7559 C   0  0  0  0  0  0  0  0  0  0  0  0
   -9.9256    3.9162  -17.4456 Cl  0  0  0  0  0  0  0  0  0  0  0  0
   -7.2836    4.4559  -17.5790 C   0  0  0  0  0  0  0  0  0  0  0  0
   -7.2962    4.1153  -19.0377 C   0  0  0  0  0  0  0  0  0  0  0  0
   -6.1864    4.7558  -19.7689 N   0  0  0  0  0  0  0  0  0  0  0  0
   -6.1386    4.9170  -16.9266 C   0  0  0  0  0  0  0  0  0  0  0  0
   -4.9301    5.2450  -17.4811 N   0  0  0  0  0  0  0  0  0  0  0  0
   -4.0233    5.6786  -16.6046 N   0  0  0  0  0  0  0  0  0  0  0  0
   -4.6710    5.5877  -15.4396 C   0  0  0  0  0  0  0  0  0  0  0  0
   -6.0073    5.1084  -15.5602 C   0  0  0  0  0  0  0  0  0  0  0  0
   -2.7849    6.0201  -10.1863 C   0  0  0  0  0  0  0  0  0  0  0  0
   -2.9789    6.6833   -8.9734 C   0  0  0  0  0  0  0  0  0  0  0  0
  1  2  1  0
  2  3  2  0
  3  4  1  0
  4  5  2  0
  5  6  1  0
  6  7  2  0
  6  8  2  0
  6  9  1  0
  9 10  1  0
 10 11  1  0
 11 12  2  0
 11 13  1  0
 13 14  1  6
 13 15  1  0
 16 15  1  6
 16 17  1  0
 17 18  1  0
 18 19  2  0
 19 20  1  0
 20 21  1  0
 21 22  1  0
 19 23  1  0
 23 24  1  0
 23 25  1  0
 25 26  1  0
 26 27  1  0
 27 28  1  0
 13 29  1  0
 29 30  2  0
 30 31  1  0
 31 32  1  0
 31 33  2  0
 33 34  1  0
 34 35  1  0
 33 36  1  0
 36 37  1  0
 37 38  1  0
 38 39  2  0
 39 40  1  0
  5 41  1  0
 41 42  2  0
 42  2  1  0
 24 16  1  0
 40 29  1  0
 22 18  1  0
 28 23  1  0
 40 36  2  0
M  END
>  <smiles>  (962) 
C105271-P153

>  <fragmenstein_outcome>  (962) 
acceptable

>  <inchikey>  (962) 
FXZVEVCVHFSDNI-UHFFFAOYSA-N

>  <fragmenstein_mode>  (962) 
expansion

>  <HIPPO Pose ID>  (962) 
19348

>  <Energy>  (962) 
159.275808

>  <fragmenstein_error>  (962) 


>  <tags>  (962) 
{'openbind_xx01zvns2b_c1_fragmenstein', 'fragmenstein_placed'}

>  <ref_pdb>  (962) 
1

>  <scratch_subdir>  (962) 
/opt/xchem-fragalysis-2/maxwin/BulkDock/SCRATCH/511027/C105271-P153

>  <alias>  (962) 
Cc1ccc(S(=O)(=O)CNC(=O)[C@](O)(N[C@H]2CC3=C(CNC3)C3(C2)NNNN3)c2cc(Cl)c(CN)c3[nH]ncc23)cc1

>  <HIPPO Compound ID>  (962) 
87889

>  <fragmenstein_runtime>  (962) 
12.336779

$$$$
C[C@H]1CC[C@@]2(CC1)NCC[C@H](CNC(=O)[C@@H](Nc1ccc3c(c1)CNC3)c1cc(Cl)cc3[nH]ncc13)[C@@H]2OCO
     RDKit          3D

 40 45  0  0  0  0  0  0  0  0999 V2000
   -5.0258    6.6613   -3.0332 C   0  0  0  0  0  0  0  0  0  0  0  0
   -4.8104    6.3416   -4.5119 C   0  0  1  0  0  0  0  0  0  0  0  0
   -5.6515    7.2518   -5.4024 C   0  0  0  0  0  0  0  0  0  0  0  0
   -5.5045    6.9461   -6.8998 C   0  0  0  0  0  0  0  0  0  0  0  0
   -4.1562    6.2815   -7.3246 C   0  0  1  0  0  0  0  0  0  0  0  0
   -3.0560    6.7697   -6.3546 C   0  0  0  0  0  0  0  0  0  0  0  0
   -3.3214    6.4336   -4.8787 C   0  0  0  0  0  0  0  0  0  0  0  0
   -4.2998    4.8010   -7.1438 N   0  0  0  0  0  0  0  0  0  0  0  0
   -3.4743    4.0636   -8.1039 C   0  0  0  0  0  0  0  0  0  0  0  0
   -3.9944    4.2590   -9.5290 C   0  0  0  0  0  0  0  0  0  0  0  0
   -4.5248    5.6887   -9.7755 C   0  0  2  0  0  0  0  0  0  0  0  0
   -4.4063    6.0764  -11.2523 C   0  0  0  0  0  0  0  0  0  0  0  0
   -5.3735    5.3487  -12.0361 N   0  0  0  0  0  0  0  0  0  0  0  0
   -6.3958    5.8510  -13.1091 C   0  0  0  0  0  0  0  0  0  0  0  0
   -6.6561    6.9391  -13.4584 O   0  0  0  0  0  0  0  0  0  0  0  0
   -7.1244    4.5652  -13.6509 C   0  0  1  0  0  0  0  0  0  0  0  0
   -8.3983    4.2649  -12.9349 N   0  0  0  0  0  0  0  0  0  0  0  0
   -8.3949    4.2128  -11.5301 C   0  0  0  0  0  0  0  0  0  0  0  0
   -8.2874    5.3859  -10.7593 C   0  0  0  0  0  0  0  0  0  0  0  0
   -8.3496    5.3542   -9.3616 C   0  0  0  0  0  0  0  0  0  0  0  0
   -8.5349    4.1342   -8.7416 C   0  0  0  0  0  0  0  0  0  0  0  0
   -8.6539    2.9715   -9.4866 C   0  0  0  0  0  0  0  0  0  0  0  0
   -8.5676    2.9884  -10.8709 C   0  0  0  0  0  0  0  0  0  0  0  0
   -8.9345    1.8210   -8.5822 C   0  0  0  0  0  0  0  0  0  0  0  0
   -8.9556    2.3700   -7.1993 N   0  0  0  0  0  0  0  0  0  0  0  0
   -8.7038    3.8222   -7.2962 C   0  0  0  0  0  0  0  0  0  0  0  0
   -7.3452    4.6424  -15.1679 C   0  0  0  0  0  0  0  0  0  0  0  0
   -8.6011    4.3450  -15.7482 C   0  0  0  0  0  0  0  0  0  0  0  0
   -8.7893    4.2935  -17.1271 C   0  0  0  0  0  0  0  0  0  0  0  0
  -10.3643    4.0778  -17.7501 Cl  0  0  0  0  0  0  0  0  0  0  0  0
   -7.7498    4.5093  -18.0174 C   0  0  0  0  0  0  0  0  0  0  0  0
   -6.5280    4.8601  -17.4578 C   0  0  0  0  0  0  0  0  0  0  0  0
   -5.3400    5.1695  -18.0619 N   0  0  0  0  0  0  0  0  0  0  0  0
   -4.3545    5.4745  -17.1980 N   0  0  0  0  0  0  0  0  0  0  0  0
   -4.9385    5.3265  -16.0045 C   0  0  0  0  0  0  0  0  0  0  0  0
   -6.3017    4.9421  -16.0872 C   0  0  0  0  0  0  0  0  0  0  0  0
   -3.8356    6.6881   -8.8304 C   0  0  2  0  0  0  0  0  0  0  0  0
   -2.4285    6.6555   -9.1129 O   0  0  0  0  0  0  0  0  0  0  0  0
   -1.8875    7.9356   -9.3770 C   0  0  0  0  0  0  0  0  0  0  0  0
   -0.5133    7.7780   -9.6551 O   0  0  0  0  0  0  0  0  0  0  0  0
  2  1  1  1
  2  3  1  0
  3  4  1  0
  5  4  1  1
  5  6  1  0
  6  7  1  0
  5  8  1  0
  8  9  1  0
  9 10  1  0
 10 11  1  0
 11 12  1  6
 12 13  1  0
 13 14  1  0
 14 15  2  0
 14 16  1  0
 16 17  1  1
 17 18  1  0
 18 19  2  0
 19 20  1  0
 20 21  2  0
 21 22  1  0
 22 23  2  0
 22 24  1  0
 24 25  1  0
 25 26  1  0
 16 27  1  0
 27 28  2  0
 28 29  1  0
 29 30  1  0
 29 31  2  0
 31 32  1  0
 32 33  1  0
 33 34  1  0
 34 35  2  0
 35 36  1  0
 11 37  1  0
 37 38  1  1
 38 39  1  0
 39 40  1  0
  7  2  1  0
 23 18  1  0
 36 27  1  0
 37  5  1  0
 26 21  1  0
 36 32  2  0
M  END
>  <smiles>  (963) 
C105276-P153

>  <fragmenstein_outcome>  (963) 
acceptable

>  <inchikey>  (963) 
NDWILLRYKNIIKW-UHFFFAOYSA-N

>  <fragmenstein_mode>  (963) 
expansion

>  <HIPPO Pose ID>  (963) 
19352

>  <Energy>  (963) 
139.07288

>  <fragmenstein_error>  (963) 


>  <tags>  (963) 
{'openbind_xx01zvns2b_c1_fragmenstein', 'fragmenstein_placed'}

>  <ref_pdb>  (963) 
1

>  <scratch_subdir>  (963) 
/opt/xchem-fragalysis-2/maxwin/BulkDock/SCRATCH/511027/C105276-P153

>  <alias>  (963) 
C[C@H]1CC[C@@]2(CC1)NCC[C@H](CNC(=O)[C@@H](Nc1ccc3c(c1)CNC3)c1cc(Cl)cc3[nH]ncc13)[C@@H]2OCO

>  <HIPPO Compound ID>  (963) 
105276

>  <fragmenstein_runtime>  (963) 
9.777002

$$$$
Cc1ccc(S(=O)(=O)CNC(=O)[C@@](O)(Nc2ccc3c(c2)CNC3)c2cc(Cl)cc3c2CC2(CCCCC2)N3)cc1
     RDKit          3D

 41 46  0  0  0  0  0  0  0  0999 V2000
   -5.5219   10.0112   -7.3034 C   0  0  0  0  0  0  0  0  0  0  0  0
   -6.2378   10.0388   -8.6213 C   0  0  0  0  0  0  0  0  0  0  0  0
   -5.5184    9.9449   -9.8210 C   0  0  0  0  0  0  0  0  0  0  0  0
   -6.1826    9.9378  -11.0491 C   0  0  0  0  0  0  0  0  0  0  0  0
   -7.5748    9.9975  -11.0761 C   0  0  0  0  0  0  0  0  0  0  0  0
   -8.4483    9.9762  -12.6245 S   0  0  0  0  0  0  0  0  0  0  0  0
   -7.4875   10.0128  -13.7121 O   0  0  0  0  0  0  0  0  0  0  0  0
   -9.4545   11.0224  -12.5311 O   0  0  0  0  0  0  0  0  0  0  0  0
   -9.3048    8.3923  -12.6144 C   0  0  0  0  0  0  0  0  0  0  0  0
   -8.6536    7.1600  -13.0224 N   0  0  0  0  0  0  0  0  0  0  0  0
   -7.1502    6.7574  -13.0035 C   0  0  0  0  0  0  0  0  0  0  0  0
   -6.2014    7.3843  -12.7292 O   0  0  0  0  0  0  0  0  0  0  0  0
   -7.0893    5.1844  -13.3742 C   0  0  1  0  0  0  0  0  0  0  0  0
   -5.8855    4.5546  -12.9964 O   0  0  0  0  0  0  0  0  0  0  0  0
   -8.1858    4.4420  -12.7037 N   0  0  0  0  0  0  0  0  0  0  0  0
   -8.2279    4.3080  -11.2967 C   0  0  0  0  0  0  0  0  0  0  0  0
   -8.0197    5.3757  -10.3983 C   0  0  0  0  0  0  0  0  0  0  0  0
   -8.1712    5.2314   -9.0141 C   0  0  0  0  0  0  0  0  0  0  0  0
   -8.5392    4.0001   -8.5221 C   0  0  0  0  0  0  0  0  0  0  0  0
   -8.7461    2.9314   -9.3774 C   0  0  0  0  0  0  0  0  0  0  0  0
   -8.6194    3.0714  -10.7539 C   0  0  0  0  0  0  0  0  0  0  0  0
   -9.0737    1.7186   -8.5757 C   0  0  0  0  0  0  0  0  0  0  0  0
   -9.2427    2.1783   -7.1704 N   0  0  0  0  0  0  0  0  0  0  0  0
   -8.7844    3.5804   -7.1159 C   0  0  0  0  0  0  0  0  0  0  0  0
   -7.2011    5.0384  -14.9033 C   0  0  0  0  0  0  0  0  0  0  0  0
   -8.3344    4.4938  -15.5443 C   0  0  0  0  0  0  0  0  0  0  0  0
   -8.3998    4.3841  -16.9446 C   0  0  0  0  0  0  0  0  0  0  0  0
   -9.8489    3.8530  -17.6855 Cl  0  0  0  0  0  0  0  0  0  0  0  0
   -7.3530    4.7958  -17.7562 C   0  0  0  0  0  0  0  0  0  0  0  0
   -6.2475    5.3417  -17.1449 C   0  0  0  0  0  0  0  0  0  0  0  0
   -6.1759    5.4760  -15.7560 C   0  0  0  0  0  0  0  0  0  0  0  0
   -4.9003    6.1880  -15.4208 C   0  0  0  0  0  0  0  0  0  0  0  0
   -4.1722    6.2727  -16.7991 C   0  0  0  0  0  0  0  0  0  0  0  0
   -3.6619    7.7041  -17.0597 C   0  0  0  0  0  0  0  0  0  0  0  0
   -2.8459    7.8102  -18.3498 C   0  0  0  0  0  0  0  0  0  0  0  0
   -1.6957    6.8104  -18.3851 C   0  0  0  0  0  0  0  0  0  0  0  0
   -2.1769    5.3847  -18.1402 C   0  0  0  0  0  0  0  0  0  0  0  0
   -2.9886    5.2909  -16.8489 C   0  0  0  0  0  0  0  0  0  0  0  0
   -5.1802    5.9482  -17.8315 N   0  0  0  0  0  0  0  0  0  0  0  0
   -8.3061   10.1008   -9.8882 C   0  0  0  0  0  0  0  0  0  0  0  0
   -7.6362   10.1085   -8.6643 C   0  0  0  0  0  0  0  0  0  0  0  0
  1  2  1  0
  2  3  2  0
  3  4  1  0
  4  5  2  0
  5  6  1  0
  6  7  2  0
  6  8  2  0
  6  9  1  0
  9 10  1  0
 10 11  1  0
 11 12  2  0
 11 13  1  0
 13 14  1  1
 13 15  1  0
 15 16  1  0
 16 17  2  0
 17 18  1  0
 18 19  2  0
 19 20  1  0
 20 21  2  0
 20 22  1  0
 22 23  1  0
 23 24  1  0
 13 25  1  0
 25 26  2  0
 26 27  1  0
 27 28  1  0
 27 29  2  0
 29 30  1  0
 30 31  2  0
 31 32  1  0
 32 33  1  0
 33 34  1  0
 34 35  1  0
 35 36  1  0
 36 37  1  0
 37 38  1  0
 33 39  1  0
  5 40  1  0
 40 41  2  0
 41  2  1  0
 21 16  1  0
 31 25  1  0
 38 33  1  0
 24 19  1  0
 39 30  1  0
M  END
>  <smiles>  (964) 
C105293-P153

>  <fragmenstein_outcome>  (964) 
acceptable

>  <inchikey>  (964) 
RGGVDJCTJXGJRM-UHFFFAOYSA-N

>  <fragmenstein_mode>  (964) 
expansion

>  <HIPPO Pose ID>  (964) 
19368

>  <Energy>  (964) 
191.22848

>  <fragmenstein_error>  (964) 


>  <tags>  (964) 
{'openbind_xx01zvns2b_c1_fragmenstein', 'fragmenstein_placed'}

>  <ref_pdb>  (964) 
1

>  <scratch_subdir>  (964) 
/opt/xchem-fragalysis-2/maxwin/BulkDock/SCRATCH/511027/C105293-P153

>  <alias>  (964) 
Cc1ccc(S(=O)(=O)CNC(=O)[C@@](O)(Nc2ccc3c(c2)CNC3)c2cc(Cl)cc3c2CC2(CCCCC2)N3)cc1

>  <HIPPO Compound ID>  (964) 
76127

>  <fragmenstein_runtime>  (964) 
10.366957

$$$$
Cc1ccc(S(=O)(=O)CNC(=O)[C@](O)(Nc2cc3c(cc2C#N)CNC3)c2cc(Cl)cc3[nH]ncc23)cc1
     RDKit          3D

 38 42  0  0  0  0  0  0  0  0999 V2000
    1.4830    1.7011   -8.6926 C   0  0  0  0  0  0  0  0  0  0  0  0
    0.0638    2.0025   -9.0747 C   0  0  0  0  0  0  0  0  0  0  0  0
   -0.7887    0.9736   -9.4964 C   0  0  0  0  0  0  0  0  0  0  0  0
   -2.1022    1.2511   -9.8769 C   0  0  0  0  0  0  0  0  0  0  0  0
   -2.5593    2.5679   -9.8490 C   0  0  0  0  0  0  0  0  0  0  0  0
   -4.2397    2.9222  -10.3154 S   0  0  0  0  0  0  0  0  0  0  0  0
   -5.0083    1.7158  -10.0733 O   0  0  0  0  0  0  0  0  0  0  0  0
   -4.5939    4.1777   -9.6774 O   0  0  0  0  0  0  0  0  0  0  0  0
   -4.0910    3.1724  -12.1024 C   0  0  0  0  0  0  0  0  0  0  0  0
   -5.2281    3.7812  -12.7608 N   0  0  0  0  0  0  0  0  0  0  0  0
   -5.5183    5.1549  -13.0607 C   0  0  0  0  0  0  0  0  0  0  0  0
   -4.8563    6.1453  -12.9140 O   0  0  0  0  0  0  0  0  0  0  0  0
   -7.0069    5.3187  -13.6637 C   0  0  2  0  0  0  0  0  0  0  0  0
   -7.4771    6.6477  -13.7068 O   0  0  0  0  0  0  0  0  0  0  0  0
   -7.9517    4.5116  -12.8638 N   0  0  0  0  0  0  0  0  0  0  0  0
   -8.0710    4.4800  -11.4673 C   0  0  0  0  0  0  0  0  0  0  0  0
   -8.4638    3.2374  -10.9134 C   0  0  0  0  0  0  0  0  0  0  0  0
   -8.6207    3.0881   -9.5412 C   0  0  0  0  0  0  0  0  0  0  0  0
   -8.4240    4.1469   -8.6790 C   0  0  0  0  0  0  0  0  0  0  0  0
   -8.0493    5.3799   -9.1638 C   0  0  0  0  0  0  0  0  0  0  0  0
   -7.8739    5.5532  -10.5541 C   0  0  0  0  0  0  0  0  0  0  0  0
   -7.5165    6.8846  -10.9375 C   0  0  0  0  0  0  0  0  0  0  0  0
   -7.1921    7.9647  -11.2206 N   0  0  0  0  0  0  0  0  0  0  0  0
   -8.6800    3.7193   -7.2776 C   0  0  0  0  0  0  0  0  0  0  0  0
   -9.1439    2.3186   -7.3454 N   0  0  0  0  0  0  0  0  0  0  0  0
   -8.9782    1.8721   -8.7553 C   0  0  0  0  0  0  0  0  0  0  0  0
   -7.0725    4.9381  -15.1557 C   0  0  0  0  0  0  0  0  0  0  0  0
   -8.3196    4.5298  -15.7077 C   0  0  0  0  0  0  0  0  0  0  0  0
   -8.5019    4.3075  -17.0708 C   0  0  0  0  0  0  0  0  0  0  0  0
  -10.0649    3.9611  -17.6677 Cl  0  0  0  0  0  0  0  0  0  0  0  0
   -7.4703    4.4698  -17.9794 C   0  0  0  0  0  0  0  0  0  0  0  0
   -6.2602    4.9158  -17.4611 C   0  0  0  0  0  0  0  0  0  0  0  0
   -5.0979    5.2226  -18.1138 N   0  0  0  0  0  0  0  0  0  0  0  0
   -4.1243    5.6732  -17.3069 N   0  0  0  0  0  0  0  0  0  0  0  0
   -4.6976    5.6523  -16.0986 C   0  0  0  0  0  0  0  0  0  0  0  0
   -6.0319    5.1606  -16.1074 C   0  0  0  0  0  0  0  0  0  0  0  0
   -1.7241    3.6065   -9.4317 C   0  0  0  0  0  0  0  0  0  0  0  0
   -0.4103    3.3214   -9.0561 C   0  0  0  0  0  0  0  0  0  0  0  0
  1  2  1  0
  2  3  2  0
  3  4  1  0
  4  5  2  0
  5  6  1  0
  6  7  2  0
  6  8  2  0
  6  9  1  0
  9 10  1  0
 10 11  1  0
 11 12  2  0
 11 13  1  0
 13 14  1  6
 13 15  1  0
 15 16  1  0
 16 17  2  0
 17 18  1  0
 18 19  2  0
 19 20  1  0
 20 21  2  0
 21 22  1  0
 22 23  3  0
 19 24  1  0
 24 25  1  0
 25 26  1  0
 13 27  1  0
 27 28  2  0
 28 29  1  0
 29 30  1  0
 29 31  2  0
 31 32  1  0
 32 33  1  0
 33 34  1  0
 34 35  2  0
 35 36  1  0
  5 37  1  0
 37 38  2  0
 38  2  1  0
 21 16  1  0
 36 27  1  0
 26 18  1  0
 36 32  2  0
M  END
>  <smiles>  (965) 
C105294-P153

>  <fragmenstein_outcome>  (965) 
acceptable

>  <inchikey>  (965) 
QPQIAGVSBUCHES-UHFFFAOYSA-N

>  <fragmenstein_mode>  (965) 
expansion

>  <HIPPO Pose ID>  (965) 
19369

>  <Energy>  (965) 
205.935287

>  <fragmenstein_error>  (965) 


>  <tags>  (965) 
{'openbind_xx01zvns2b_c1_fragmenstein', 'fragmenstein_placed'}

>  <ref_pdb>  (965) 
1

>  <scratch_subdir>  (965) 
/opt/xchem-fragalysis-2/maxwin/BulkDock/SCRATCH/511027/C105294-P153

>  <alias>  (965) 
Cc1ccc(S(=O)(=O)CNC(=O)[C@](O)(Nc2cc3c(cc2C#N)CNC3)c2cc(Cl)cc3[nH]ncc23)cc1

>  <HIPPO Compound ID>  (965) 
73305

>  <fragmenstein_runtime>  (965) 
11.852406

$$$$
Cc1ccc([C@@H]2[C@H](C)[C@H]2NC(=O)[C@@H](Nc2ccc3c(c2)CNC3)c2cc(Cl)cc3[nH]ncc23)cc1
     RDKit          3D

 35 40  0  0  0  0  0  0  0  0999 V2000
  -11.5196   13.0420   -8.6239 C   0  0  0  0  0  0  0  0  0  0  0  0
  -10.5093   12.2114   -9.3564 C   0  0  0  0  0  0  0  0  0  0  0  0
  -10.8623   10.9765   -9.9048 C   0  0  0  0  0  0  0  0  0  0  0  0
   -9.9093   10.2004  -10.5704 C   0  0  0  0  0  0  0  0  0  0  0  0
   -8.5800   10.6298  -10.7137 C   0  0  0  0  0  0  0  0  0  0  0  0
   -7.5582    9.7821  -11.4344 C   0  0  2  0  0  0  0  0  0  0  0  0
   -6.8108   10.2614  -12.6645 C   0  0  2  0  0  0  0  0  0  0  0  0
   -7.0100   11.6095  -13.2717 C   0  0  0  0  0  0  0  0  0  0  0  0
   -7.8912    9.2313  -12.8092 C   0  0  1  0  0  0  0  0  0  0  0  0
   -7.5969    7.8882  -13.1369 N   0  0  0  0  0  0  0  0  0  0  0  0
   -8.5531    6.6907  -13.4826 C   0  0  0  0  0  0  0  0  0  0  0  0
   -9.7190    6.6644  -13.6214 O   0  0  0  0  0  0  0  0  0  0  0  0
   -7.6413    5.4114  -13.6332 C   0  0  1  0  0  0  0  0  0  0  0  0
   -8.2015    4.2908  -12.8735 N   0  0  0  0  0  0  0  0  0  0  0  0
   -8.1988    4.2531  -11.4780 C   0  0  0  0  0  0  0  0  0  0  0  0
   -7.9501    5.3777  -10.6626 C   0  0  0  0  0  0  0  0  0  0  0  0
   -8.0788    5.3409   -9.2688 C   0  0  0  0  0  0  0  0  0  0  0  0
   -8.4620    4.1566   -8.6823 C   0  0  0  0  0  0  0  0  0  0  0  0
   -8.7099    3.0350   -9.4550 C   0  0  0  0  0  0  0  0  0  0  0  0
   -8.5983    3.0701  -10.8397 C   0  0  0  0  0  0  0  0  0  0  0  0
   -9.1147    1.9074   -8.5711 C   0  0  0  0  0  0  0  0  0  0  0  0
   -9.0029    2.4034   -7.1712 N   0  0  0  0  0  0  0  0  0  0  0  0
   -8.7248    3.8526   -7.2507 C   0  0  0  0  0  0  0  0  0  0  0  0
   -7.5150    5.0809  -15.1161 C   0  0  0  0  0  0  0  0  0  0  0  0
   -8.6424    4.6234  -15.8386 C   0  0  0  0  0  0  0  0  0  0  0  0
   -8.6149    4.4463  -17.2209 C   0  0  0  0  0  0  0  0  0  0  0  0
  -10.0545    4.0086  -18.0449 Cl  0  0  0  0  0  0  0  0  0  0  0  0
   -7.4580    4.6753  -17.9576 C   0  0  0  0  0  0  0  0  0  0  0  0
   -6.3376    5.0999  -17.2432 C   0  0  0  0  0  0  0  0  0  0  0  0
   -5.0712    5.3994  -17.6696 N   0  0  0  0  0  0  0  0  0  0  0  0
   -4.2521    5.8248  -16.6864 N   0  0  0  0  0  0  0  0  0  0  0  0
   -5.0198    5.7634  -15.5966 C   0  0  0  0  0  0  0  0  0  0  0  0
   -6.3358    5.3113  -15.8673 C   0  0  0  0  0  0  0  0  0  0  0  0
   -8.2348   11.8561  -10.1252 C   0  0  0  0  0  0  0  0  0  0  0  0
   -9.1828   12.6392   -9.4582 C   0  0  0  0  0  0  0  0  0  0  0  0
  1  2  1  0
  2  3  2  0
  3  4  1  0
  4  5  2  0
  6  5  1  6
  6  7  1  0
  7  8  1  6
  7  9  1  0
  9 10  1  1
 10 11  1  0
 11 12  2  0
 11 13  1  0
 13 14  1  1
 14 15  1  0
 15 16  2  0
 16 17  1  0
 17 18  2  0
 18 19  1  0
 19 20  2  0
 19 21  1  0
 21 22  1  0
 22 23  1  0
 13 24  1  0
 24 25  2  0
 25 26  1  0
 26 27  1  0
 26 28  2  0
 28 29  1  0
 29 30  1  0
 30 31  1  0
 31 32  2  0
 32 33  1  0
  5 34  1  0
 34 35  2  0
 35  2  1  0
  9  6  1  0
 20 15  1  0
 33 24  1  0
 23 18  1  0
 33 29  2  0
M  END
>  <smiles>  (966) 
C105305-P154

>  <fragmenstein_outcome>  (966) 
acceptable

>  <inchikey>  (966) 
QRCQRMWWAWAVAE-UHFFFAOYSA-N

>  <fragmenstein_mode>  (966) 
expansion

>  <HIPPO Pose ID>  (966) 
19375

>  <Energy>  (966) 
138.235065

>  <fragmenstein_error>  (966) 


>  <tags>  (966) 
{'openbind_xx01zvns2b_c1_fragmenstein', 'fragmenstein_placed'}

>  <ref_pdb>  (966) 
1

>  <scratch_subdir>  (966) 
/opt/xchem-fragalysis-2/maxwin/BulkDock/SCRATCH/511027/C105305-P154

>  <alias>  (966) 
Cc1ccc([C@@H]2[C@H](C)[C@H]2NC(=O)[C@@H](Nc2ccc3c(c2)CNC3)c2cc(Cl)cc3[nH]ncc23)cc1

>  <HIPPO Compound ID>  (966) 
78593

>  <fragmenstein_runtime>  (966) 
7.202387

$$$$
CNn1ncc2c([C@@H](Nc3ccc4c(c3)CNC4)C(=O)N[C@H](F)S(=O)(=O)c3ccc(C)cc3)cc(Cl)cc21
     RDKit          3D

 38 42  0  0  0  0  0  0  0  0999 V2000
   -5.1364    6.7023  -20.0696 C   0  0  0  0  0  0  0  0  0  0  0  0
   -4.8921    5.4131  -19.4398 N   0  0  0  0  0  0  0  0  0  0  0  0
   -5.2150    5.4762  -18.0729 N   0  0  0  0  0  0  0  0  0  0  0  0
   -4.3362    5.9366  -17.1799 N   0  0  0  0  0  0  0  0  0  0  0  0
   -4.9712    5.7963  -16.0191 C   0  0  0  0  0  0  0  0  0  0  0  0
   -6.2663    5.2522  -16.1406 C   0  0  0  0  0  0  0  0  0  0  0  0
   -7.3122    4.8974  -15.2489 C   0  0  0  0  0  0  0  0  0  0  0  0
   -7.1695    4.9824  -13.7226 C   0  0  1  0  0  0  0  0  0  0  0  0
   -8.3008    4.3161  -13.0411 N   0  0  0  0  0  0  0  0  0  0  0  0
   -8.3052    4.3306  -11.6311 C   0  0  0  0  0  0  0  0  0  0  0  0
   -8.0872    5.5080  -10.8895 C   0  0  0  0  0  0  0  0  0  0  0  0
   -8.1480    5.5117   -9.4899 C   0  0  0  0  0  0  0  0  0  0  0  0
   -8.4548    4.3303   -8.8411 C   0  0  0  0  0  0  0  0  0  0  0  0
   -8.7068    3.1715   -9.5569 C   0  0  0  0  0  0  0  0  0  0  0  0
   -8.6460    3.1566  -10.9415 C   0  0  0  0  0  0  0  0  0  0  0  0
   -9.0613    2.0675   -8.6213 C   0  0  0  0  0  0  0  0  0  0  0  0
   -8.9096    2.6197   -7.2474 N   0  0  0  0  0  0  0  0  0  0  0  0
   -8.6324    4.0646   -7.3870 C   0  0  0  0  0  0  0  0  0  0  0  0
   -5.8085    4.3204  -13.2337 C   0  0  0  0  0  0  0  0  0  0  0  0
   -5.5779    3.1908  -13.4043 O   0  0  0  0  0  0  0  0  0  0  0  0
   -4.9800    5.4160  -12.5199 N   0  0  0  0  0  0  0  0  0  0  0  0
   -3.6583    5.3675  -11.9541 C   0  0  2  0  0  0  0  0  0  0  0  0
   -3.4675    6.5693  -11.3345 F   0  0  0  0  0  0  0  0  0  0  0  0
   -2.2801    4.9985  -13.1171 S   0  0  0  0  0  0  0  0  0  0  0  0
   -2.3281    5.9097  -14.2525 O   0  0  0  0  0  0  0  0  0  0  0  0
   -2.1769    3.5677  -13.3397 O   0  0  0  0  0  0  0  0  0  0  0  0
   -0.8517    5.4537  -12.1514 C   0  0  0  0  0  0  0  0  0  0  0  0
   -0.2342    4.4952  -11.3441 C   0  0  0  0  0  0  0  0  0  0  0  0
    0.8915    4.8494  -10.5995 C   0  0  0  0  0  0  0  0  0  0  0  0
    1.4141    6.1479  -10.6744 C   0  0  0  0  0  0  0  0  0  0  0  0
    2.6078    6.5322   -9.8494 C   0  0  0  0  0  0  0  0  0  0  0  0
    0.7841    7.0966  -11.4919 C   0  0  0  0  0  0  0  0  0  0  0  0
   -0.3417    6.7506  -12.2405 C   0  0  0  0  0  0  0  0  0  0  0  0
   -8.5349    4.5275  -15.8649 C   0  0  0  0  0  0  0  0  0  0  0  0
   -8.6710    4.4248  -17.2508 C   0  0  0  0  0  0  0  0  0  0  0  0
  -10.1967    4.0555  -17.9427 Cl  0  0  0  0  0  0  0  0  0  0  0  0
   -7.6029    4.6640  -18.1030 C   0  0  0  0  0  0  0  0  0  0  0  0
   -6.4168    5.1039  -17.5169 C   0  0  0  0  0  0  0  0  0  0  0  0
  1  2  1  0
  2  3  1  0
  3  4  1  0
  4  5  2  0
  5  6  1  0
  6  7  2  0
  7  8  1  0
  8  9  1  1
  9 10  1  0
 10 11  2  0
 11 12  1  0
 12 13  2  0
 13 14  1  0
 14 15  2  0
 14 16  1  0
 16 17  1  0
 17 18  1  0
  8 19  1  0
 19 20  2  0
 19 21  1  0
 21 22  1  0
 22 23  1  6
 22 24  1  0
 24 25  2  0
 24 26  2  0
 24 27  1  0
 27 28  2  0
 28 29  1  0
 29 30  2  0
 30 31  1  0
 30 32  1  0
 32 33  2  0
  7 34  1  0
 34 35  2  0
 35 36  1  0
 35 37  1  0
 37 38  2  0
 38  3  1  0
 38  6  1  0
 15 10  1  0
 33 27  1  0
 18 13  1  0
M  END
>  <smiles>  (967) 
C105307-P154

>  <fragmenstein_outcome>  (967) 
acceptable

>  <inchikey>  (967) 
FVEVBKNWCWPJMS-UHFFFAOYSA-N

>  <fragmenstein_mode>  (967) 
expansion

>  <HIPPO Pose ID>  (967) 
19377

>  <Energy>  (967) 
154.667674

>  <fragmenstein_error>  (967) 


>  <tags>  (967) 
{'openbind_xx01zvns2b_c1_fragmenstein', 'fragmenstein_placed'}

>  <ref_pdb>  (967) 
1

>  <scratch_subdir>  (967) 
/opt/xchem-fragalysis-2/maxwin/BulkDock/SCRATCH/511027/C105307-P154

>  <alias>  (967) 
CNn1ncc2c([C@@H](Nc3ccc4c(c3)CNC4)C(=O)N[C@H](F)S(=O)(=O)c3ccc(C)cc3)cc(Cl)cc21

>  <HIPPO Compound ID>  (967) 
75473

>  <fragmenstein_runtime>  (967) 
5.712074

$$$$
CNCn1cc2c([C@@](O)(Nc3ccc4c(c3)CNC4)C(=O)NCS(=O)(=O)c3ccc(C)cc3)cc(Cl)cc2n1
     RDKit          3D

 39 43  0  0  0  0  0  0  0  0999 V2000
   -1.9122    5.1165  -18.7670 C   0  0  0  0  0  0  0  0  0  0  0  0
   -1.9111    5.7004  -17.4298 N   0  0  0  0  0  0  0  0  0  0  0  0
   -2.9870    6.6815  -17.2600 C   0  0  0  0  0  0  0  0  0  0  0  0
   -4.2647    6.0114  -17.0167 N   0  0  0  0  0  0  0  0  0  0  0  0
   -4.8634    5.8366  -15.7985 C   0  0  0  0  0  0  0  0  0  0  0  0
   -6.0920    5.2875  -16.0602 C   0  0  0  0  0  0  0  0  0  0  0  0
   -7.1011    4.9756  -15.1254 C   0  0  0  0  0  0  0  0  0  0  0  0
   -7.0688    5.1557  -13.6097 C   0  0  1  0  0  0  0  0  0  0  0  0
   -7.1783    6.5631  -13.4438 O   0  0  0  0  0  0  0  0  0  0  0  0
   -8.2233    4.4984  -12.9640 N   0  0  0  0  0  0  0  0  0  0  0  0
   -8.2966    4.4307  -11.5621 C   0  0  0  0  0  0  0  0  0  0  0  0
   -8.0814    5.5526  -10.7366 C   0  0  0  0  0  0  0  0  0  0  0  0
   -8.1843    5.4761   -9.3421 C   0  0  0  0  0  0  0  0  0  0  0  0
   -8.5257    4.2645   -8.7791 C   0  0  0  0  0  0  0  0  0  0  0  0
   -8.7351    3.1435   -9.5719 C   0  0  0  0  0  0  0  0  0  0  0  0
   -8.6317    3.2093  -10.9530 C   0  0  0  0  0  0  0  0  0  0  0  0
   -9.0527    1.9823   -8.6871 C   0  0  0  0  0  0  0  0  0  0  0  0
   -9.4296    2.5871   -7.3815 N   0  0  0  0  0  0  0  0  0  0  0  0
   -8.7442    3.8990   -7.3496 C   0  0  0  0  0  0  0  0  0  0  0  0
   -5.6781    4.5909  -12.9864 C   0  0  0  0  0  0  0  0  0  0  0  0
   -4.8240    5.3884  -12.7038 O   0  0  0  0  0  0  0  0  0  0  0  0
   -5.6788    3.1569  -12.9234 N   0  0  0  0  0  0  0  0  0  0  0  0
   -4.6929    2.2289  -12.4136 C   0  0  0  0  0  0  0  0  0  0  0  0
   -4.2700    2.2694  -10.6464 S   0  0  0  0  0  0  0  0  0  0  0  0
   -4.7109    1.0436  -10.0038 O   0  0  0  0  0  0  0  0  0  0  0  0
   -4.5925    3.5678  -10.0844 O   0  0  0  0  0  0  0  0  0  0  0  0
   -2.4876    2.1830  -10.7270 C   0  0  0  0  0  0  0  0  0  0  0  0
   -1.8846    0.9702  -11.0612 C   0  0  0  0  0  0  0  0  0  0  0  0
   -0.4954    0.8975  -11.1645 C   0  0  0  0  0  0  0  0  0  0  0  0
    0.2928    2.0324  -10.9306 C   0  0  0  0  0  0  0  0  0  0  0  0
    1.7846    1.9659  -11.0747 C   0  0  0  0  0  0  0  0  0  0  0  0
   -0.3292    3.2461  -10.6038 C   0  0  0  0  0  0  0  0  0  0  0  0
   -1.7186    3.3238  -10.4922 C   0  0  0  0  0  0  0  0  0  0  0  0
   -8.2713    4.5755  -15.8448 C   0  0  0  0  0  0  0  0  0  0  0  0
   -8.3618    4.4361  -17.2672 C   0  0  0  0  0  0  0  0  0  0  0  0
   -9.8709    3.9520  -17.9466 Cl  0  0  0  0  0  0  0  0  0  0  0  0
   -7.3085    4.7004  -18.1494 C   0  0  0  0  0  0  0  0  0  0  0  0
   -6.1623    5.1704  -17.5055 C   0  0  0  0  0  0  0  0  0  0  0  0
   -5.0133    5.5965  -18.0533 N   0  0  0  0  0  0  0  0  0  0  0  0
  1  2  1  0
  2  3  1  0
  3  4  1  0
  4  5  1  0
  5  6  2  0
  6  7  1  0
  7  8  1  0
  8  9  1  6
  8 10  1  0
 10 11  1  0
 11 12  2  0
 12 13  1  0
 13 14  2  0
 14 15  1  0
 15 16  2  0
 15 17  1  0
 17 18  1  0
 18 19  1  0
  8 20  1  0
 20 21  2  0
 20 22  1  0
 22 23  1  0
 23 24  1  0
 24 25  2  0
 24 26  2  0
 24 27  1  0
 27 28  2  0
 28 29  1  0
 29 30  2  0
 30 31  1  0
 30 32  1  0
 32 33  2  0
  7 34  2  0
 34 35  1  0
 35 36  1  0
 35 37  2  0
 37 38  1  0
 38 39  2  0
 39  4  1  0
 38  6  1  0
 16 11  1  0
 33 27  1  0
 19 14  1  0
M  END
>  <smiles>  (968) 
C105337-P154

>  <fragmenstein_outcome>  (968) 
acceptable

>  <inchikey>  (968) 
QOYWSWFIFUESRR-UHFFFAOYSA-N

>  <fragmenstein_mode>  (968) 
expansion

>  <HIPPO Pose ID>  (968) 
19396

>  <Energy>  (968) 
197.450183

>  <fragmenstein_error>  (968) 


>  <tags>  (968) 
{'openbind_xx01zvns2b_c1_fragmenstein', 'fragmenstein_placed'}

>  <ref_pdb>  (968) 
1

>  <scratch_subdir>  (968) 
/opt/xchem-fragalysis-2/maxwin/BulkDock/SCRATCH/511027/C105337-P154

>  <alias>  (968) 
CNCn1cc2c([C@@](O)(Nc3ccc4c(c3)CNC4)C(=O)NCS(=O)(=O)c3ccc(C)cc3)cc(Cl)cc2n1

>  <HIPPO Compound ID>  (968) 
105337

>  <fragmenstein_runtime>  (968) 
14.142661

$$$$
CCc1cc(C)c(-n2ccnc2)c(C(=O)Nc2cc3c(cc2C)CNC3)c1
     RDKit          3D

 27 30  0  0  0  0  0  0  0  0999 V2000
   -9.9840    4.5034  -18.9262 C   0  0  0  0  0  0  0  0  0  0  0  0
   -9.6796    3.8378  -17.6109 C   0  0  0  0  0  0  0  0  0  0  0  0
   -8.3773    4.3397  -17.0545 C   0  0  0  0  0  0  0  0  0  0  0  0
   -7.2729    4.4988  -17.8954 C   0  0  0  0  0  0  0  0  0  0  0  0
   -6.0824    5.0621  -17.4393 C   0  0  0  0  0  0  0  0  0  0  0  0
   -5.0160    5.3184  -18.4722 C   0  0  0  0  0  0  0  0  0  0  0  0
   -5.9729    5.4056  -16.0722 C   0  0  0  0  0  0  0  0  0  0  0  0
   -4.7172    5.8633  -15.6101 N   0  0  0  0  0  0  0  0  0  0  0  0
   -3.5091    5.2463  -15.8563 C   0  0  0  0  0  0  0  0  0  0  0  0
   -2.5416    6.1198  -15.4325 C   0  0  0  0  0  0  0  0  0  0  0  0
   -3.1068    7.2519  -14.9175 N   0  0  0  0  0  0  0  0  0  0  0  0
   -4.4076    7.0690  -15.0271 C   0  0  0  0  0  0  0  0  0  0  0  0
   -7.0803    5.2456  -15.2115 C   0  0  0  0  0  0  0  0  0  0  0  0
   -7.1207    5.6837  -13.7894 C   0  0  0  0  0  0  0  0  0  0  0  0
   -6.8393    6.7922  -13.5533 O   0  0  0  0  0  0  0  0  0  0  0  0
   -7.6044    4.5472  -12.8501 N   0  0  0  0  0  0  0  0  0  0  0  0
   -7.9244    4.5677  -11.4751 C   0  0  0  0  0  0  0  0  0  0  0  0
   -8.2556    3.2995  -10.9440 C   0  0  0  0  0  0  0  0  0  0  0  0
   -8.5408    3.1610   -9.5924 C   0  0  0  0  0  0  0  0  0  0  0  0
   -8.4963    4.2489   -8.7467 C   0  0  0  0  0  0  0  0  0  0  0  0
   -8.2104    5.5069   -9.2358 C   0  0  0  0  0  0  0  0  0  0  0  0
   -7.9455    5.6908  -10.6137 C   0  0  0  0  0  0  0  0  0  0  0  0
   -7.7142    7.1130  -11.0311 C   0  0  0  0  0  0  0  0  0  0  0  0
   -8.7979    3.8277   -7.3521 C   0  0  0  0  0  0  0  0  0  0  0  0
   -9.0572    2.3744   -7.3954 N   0  0  0  0  0  0  0  0  0  0  0  0
   -8.9018    1.9434   -8.8120 C   0  0  0  0  0  0  0  0  0  0  0  0
   -8.2755    4.7108  -15.7146 C   0  0  0  0  0  0  0  0  0  0  0  0
  1  2  1  0
  2  3  1  0
  3  4  2  0
  4  5  1  0
  5  6  1  0
  5  7  2  0
  7  8  1  0
  8  9  1  0
  9 10  2  0
 10 11  1  0
 11 12  2  0
  7 13  1  0
 13 14  1  0
 14 15  2  0
 14 16  1  0
 16 17  1  0
 17 18  2  0
 18 19  1  0
 19 20  2  0
 20 21  1  0
 21 22  2  0
 22 23  1  0
 20 24  1  0
 24 25  1  0
 25 26  1  0
 13 27  2  0
 27  3  1  0
 12  8  1  0
 22 17  1  0
 26 19  1  0
M  END
>  <smiles>  (969) 
C105443-P154

>  <fragmenstein_outcome>  (969) 
acceptable

>  <inchikey>  (969) 
HOPCGOKIOUVTMW-UHFFFAOYSA-N

>  <fragmenstein_mode>  (969) 
expansion

>  <HIPPO Pose ID>  (969) 
19418

>  <Energy>  (969) 
101.721496

>  <fragmenstein_error>  (969) 


>  <tags>  (969) 
{'openbind_xx01zvns2b_c1_fragmenstein', 'fragmenstein_placed'}

>  <ref_pdb>  (969) 
1

>  <scratch_subdir>  (969) 
/opt/xchem-fragalysis-2/maxwin/BulkDock/SCRATCH/511027/C105443-P154

>  <alias>  (969) 
CCc1cc(C)c(-n2ccnc2)c(C(=O)Nc2cc3c(cc2C)CNC3)c1

>  <HIPPO Compound ID>  (969) 
93282

>  <fragmenstein_runtime>  (969) 
4.5914

$$$$
CN[C@@H]1NCc2c(O)cc(NC(=O)c3cc(Cl)cc(C(=O)NC(C)(C)CO)c3-n3ccnc3)cc21
     RDKit          3D

 35 38  0  0  0  0  0  0  0  0999 V2000
  -10.3016    1.5345   -6.6714 C   0  0  0  0  0  0  0  0  0  0  0  0
  -10.0670    2.0380   -8.0265 N   0  0  0  0  0  0  0  0  0  0  0  0
   -8.7189    2.5443   -8.1836 C   0  0  2  0  0  0  0  0  0  0  0  0
   -8.3763    3.2856   -6.9496 N   0  0  0  0  0  0  0  0  0  0  0  0
   -8.4628    4.7109   -7.2369 C   0  0  0  0  0  0  0  0  0  0  0  0
   -8.3912    4.8236   -8.7125 C   0  0  0  0  0  0  0  0  0  0  0  0
   -8.1877    5.9431   -9.4858 C   0  0  0  0  0  0  0  0  0  0  0  0
   -8.0943    7.1979   -8.9684 O   0  0  0  0  0  0  0  0  0  0  0  0
   -8.0433    5.7909  -10.8574 C   0  0  0  0  0  0  0  0  0  0  0  0
   -8.1156    4.5214  -11.4581 C   0  0  0  0  0  0  0  0  0  0  0  0
   -7.8496    4.4086  -12.8304 N   0  0  0  0  0  0  0  0  0  0  0  0
   -7.5696    5.5012  -13.8953 C   0  0  0  0  0  0  0  0  0  0  0  0
   -7.4413    6.6580  -13.7789 O   0  0  0  0  0  0  0  0  0  0  0  0
   -7.3828    4.9759  -15.2626 C   0  0  0  0  0  0  0  0  0  0  0  0
   -8.5835    4.5593  -15.8617 C   0  0  0  0  0  0  0  0  0  0  0  0
   -8.6509    4.3740  -17.2362 C   0  0  0  0  0  0  0  0  0  0  0  0
  -10.1512    4.0226  -17.9794 Cl  0  0  0  0  0  0  0  0  0  0  0  0
   -7.5408    4.5998  -18.0286 C   0  0  0  0  0  0  0  0  0  0  0  0
   -6.3371    4.9965  -17.4392 C   0  0  0  0  0  0  0  0  0  0  0  0
   -5.3182    5.4436  -18.4267 C   0  0  0  0  0  0  0  0  0  0  0  0
   -4.6873    4.6540  -19.0012 O   0  0  0  0  0  0  0  0  0  0  0  0
   -5.3021    6.9788  -18.5025 N   0  0  0  0  0  0  0  0  0  0  0  0
   -4.4252    7.8843  -19.2448 C   0  0  0  0  0  0  0  0  0  0  0  0
   -4.3459    7.4332  -20.7133 C   0  0  0  0  0  0  0  0  0  0  0  0
   -3.0187    7.8414  -18.6324 C   0  0  0  0  0  0  0  0  0  0  0  0
   -5.0001    9.3213  -19.1649 C   0  0  0  0  0  0  0  0  0  0  0  0
   -4.1958   10.3106  -19.7947 O   0  0  0  0  0  0  0  0  0  0  0  0
   -6.2075    5.1492  -16.0354 C   0  0  0  0  0  0  0  0  0  0  0  0
   -4.9139    5.4270  -15.4732 N   0  0  0  0  0  0  0  0  0  0  0  0
   -3.6972    5.1089  -16.0514 C   0  0  0  0  0  0  0  0  0  0  0  0
   -2.7144    5.6100  -15.2417 C   0  0  0  0  0  0  0  0  0  0  0  0
   -3.2610    6.1428  -14.1193 N   0  0  0  0  0  0  0  0  0  0  0  0
   -4.5619    5.9823  -14.2595 C   0  0  0  0  0  0  0  0  0  0  0  0
   -8.3912    3.3893  -10.6697 C   0  0  0  0  0  0  0  0  0  0  0  0
   -8.5308    3.5562   -9.2895 C   0  0  0  0  0  0  0  0  0  0  0  0
  1  2  1  0
  3  2  1  1
  3  4  1  0
  4  5  1  0
  5  6  1  0
  6  7  2  0
  7  8  1  0
  7  9  1  0
  9 10  2  0
 10 11  1  0
 11 12  1  0
 12 13  2  0
 12 14  1  0
 14 15  2  0
 15 16  1  0
 16 17  1  0
 16 18  2  0
 18 19  1  0
 19 20  1  0
 20 21  2  0
 20 22  1  0
 22 23  1  0
 23 24  1  0
 23 25  1  0
 23 26  1  0
 26 27  1  0
 19 28  2  0
 28 29  1  0
 29 30  1  0
 30 31  2  0
 31 32  1  0
 32 33  2  0
 10 34  1  0
 34 35  2  0
 35  3  1  0
 35  6  1  0
 28 14  1  0
 33 29  1  0
M  END
>  <smiles>  (970) 
C105451-P154

>  <fragmenstein_outcome>  (970) 
acceptable

>  <inchikey>  (970) 
VFEMSMQGISMLKS-UHFFFAOYSA-N

>  <fragmenstein_mode>  (970) 
expansion

>  <HIPPO Pose ID>  (970) 
19421

>  <Energy>  (970) 
27.414218

>  <fragmenstein_error>  (970) 


>  <tags>  (970) 
{'openbind_xx01zvns2b_c1_fragmenstein', 'fragmenstein_placed'}

>  <ref_pdb>  (970) 
1

>  <scratch_subdir>  (970) 
/opt/xchem-fragalysis-2/maxwin/BulkDock/SCRATCH/511027/C105451-P154

>  <alias>  (970) 
CN[C@@H]1NCc2c(O)cc(NC(=O)c3cc(Cl)cc(C(=O)NC(C)(C)CO)c3-n3ccnc3)cc21

>  <HIPPO Compound ID>  (970) 
80354

>  <fragmenstein_runtime>  (970) 
4.66408

$$$$
CCC(=O)Nc1cc(Cl)cc(C(=O)Nc2cc3c(cc2C)CNC3)c1-n1ccnc1
     RDKit          3D

 30 33  0  0  0  0  0  0  0  0999 V2000
   -1.8559    5.4419  -19.8010 C   0  0  0  0  0  0  0  0  0  0  0  0
   -3.3734    5.4008  -19.8121 C   0  0  0  0  0  0  0  0  0  0  0  0
   -3.9415    4.9368  -18.4829 C   0  0  0  0  0  0  0  0  0  0  0  0
   -3.2816    4.5960  -17.5797 O   0  0  0  0  0  0  0  0  0  0  0  0
   -5.4907    5.0964  -18.6005 N   0  0  0  0  0  0  0  0  0  0  0  0
   -6.4955    4.9638  -17.6311 C   0  0  0  0  0  0  0  0  0  0  0  0
   -7.7440    4.6036  -18.1513 C   0  0  0  0  0  0  0  0  0  0  0  0
   -8.8340    4.3818  -17.3196 C   0  0  0  0  0  0  0  0  0  0  0  0
  -10.3641    4.0690  -18.0169 Cl  0  0  0  0  0  0  0  0  0  0  0  0
   -8.7125    4.5112  -15.9466 C   0  0  0  0  0  0  0  0  0  0  0  0
   -7.4911    4.9210  -15.4043 C   0  0  0  0  0  0  0  0  0  0  0  0
   -7.5782    5.4810  -14.0311 C   0  0  0  0  0  0  0  0  0  0  0  0
   -7.3996    6.6294  -13.9146 O   0  0  0  0  0  0  0  0  0  0  0  0
   -7.9705    4.4142  -12.9793 N   0  0  0  0  0  0  0  0  0  0  0  0
   -8.1282    4.5201  -11.5794 C   0  0  0  0  0  0  0  0  0  0  0  0
   -8.4885    3.3042  -10.9563 C   0  0  0  0  0  0  0  0  0  0  0  0
   -8.6522    3.2441   -9.5799 C   0  0  0  0  0  0  0  0  0  0  0  0
   -8.4744    4.3653   -8.7968 C   0  0  0  0  0  0  0  0  0  0  0  0
   -8.1409    5.5753   -9.3702 C   0  0  0  0  0  0  0  0  0  0  0  0
   -7.9592    5.6722  -10.7717 C   0  0  0  0  0  0  0  0  0  0  0  0
   -7.5867    7.0372  -11.2704 C   0  0  0  0  0  0  0  0  0  0  0  0
   -8.7095    4.0313   -7.3663 C   0  0  0  0  0  0  0  0  0  0  0  0
   -8.9657    2.5756   -7.3115 N   0  0  0  0  0  0  0  0  0  0  0  0
   -9.0236    2.0877   -8.7164 C   0  0  0  0  0  0  0  0  0  0  0  0
   -6.3679    5.1489  -16.2390 C   0  0  0  0  0  0  0  0  0  0  0  0
   -5.1954    5.7060  -15.6720 N   0  0  0  0  0  0  0  0  0  0  0  0
   -4.4760    6.7740  -16.1608 C   0  0  0  0  0  0  0  0  0  0  0  0
   -3.3934    6.9065  -15.3259 C   0  0  0  0  0  0  0  0  0  0  0  0
   -3.4698    6.0258  -14.2822 N   0  0  0  0  0  0  0  0  0  0  0  0
   -4.5651    5.3306  -14.5056 C   0  0  0  0  0  0  0  0  0  0  0  0
  1  2  1  0
  2  3  1  0
  3  4  2  0
  3  5  1  0
  5  6  1  0
  6  7  2  0
  7  8  1  0
  8  9  1  0
  8 10  2  0
 10 11  1  0
 11 12  1  0
 12 13  2  0
 12 14  1  0
 14 15  1  0
 15 16  2  0
 16 17  1  0
 17 18  2  0
 18 19  1  0
 19 20  2  0
 20 21  1  0
 18 22  1  0
 22 23  1  0
 23 24  1  0
 11 25  2  0
 25 26  1  0
 26 27  1  0
 27 28  2  0
 28 29  1  0
 29 30  2  0
 25  6  1  0
 30 26  1  0
 20 15  1  0
 24 17  1  0
M  END
>  <smiles>  (971) 
C105459-P154

>  <fragmenstein_outcome>  (971) 
acceptable

>  <inchikey>  (971) 
ZGKMGWFCGUKYNW-UHFFFAOYSA-N

>  <fragmenstein_mode>  (971) 
expansion

>  <HIPPO Pose ID>  (971) 
19423

>  <Energy>  (971) 
83.646589

>  <fragmenstein_error>  (971) 


>  <tags>  (971) 
{'openbind_xx01zvns2b_c1_fragmenstein', 'fragmenstein_placed'}

>  <ref_pdb>  (971) 
1

>  <scratch_subdir>  (971) 
/opt/xchem-fragalysis-2/maxwin/BulkDock/SCRATCH/511027/C105459-P154

>  <alias>  (971) 
CCC(=O)Nc1cc(Cl)cc(C(=O)Nc2cc3c(cc2C)CNC3)c1-n1ccnc1

>  <HIPPO Compound ID>  (971) 
83055

>  <fragmenstein_runtime>  (971) 
5.913328

$$$$
N#Cc1cc2c(cc1NC(=O)c1cc(Cl)cc3c1[C@@]1(CCNC1)NN3)CNC2
     RDKit          3D

 28 32  0  0  0  0  0  0  0  0999 V2000
   -8.2452    7.9389  -11.8358 N   0  0  0  0  0  0  0  0  0  0  0  0
   -8.1623    6.8387  -11.4689 C   0  0  0  0  0  0  0  0  0  0  0  0
   -8.1742    5.5177  -10.9046 C   0  0  0  0  0  0  0  0  0  0  0  0
   -8.3006    5.4578   -9.4997 C   0  0  0  0  0  0  0  0  0  0  0  0
   -8.5200    4.2368   -8.8939 C   0  0  0  0  0  0  0  0  0  0  0  0
   -8.6272    3.0809   -9.6518 C   0  0  0  0  0  0  0  0  0  0  0  0
   -8.4822    3.1111  -11.0351 C   0  0  0  0  0  0  0  0  0  0  0  0
   -8.2201    4.3337  -11.6811 C   0  0  0  0  0  0  0  0  0  0  0  0
   -8.0183    4.2803  -13.0756 N   0  0  0  0  0  0  0  0  0  0  0  0
   -7.2888    5.2673  -14.0274 C   0  0  0  0  0  0  0  0  0  0  0  0
   -6.6783    6.2345  -13.7909 O   0  0  0  0  0  0  0  0  0  0  0  0
   -7.4653    4.9341  -15.4764 C   0  0  0  0  0  0  0  0  0  0  0  0
   -8.7376    4.5446  -15.9378 C   0  0  0  0  0  0  0  0  0  0  0  0
   -8.9819    4.3907  -17.3110 C   0  0  0  0  0  0  0  0  0  0  0  0
  -10.5610    4.0611  -17.8926 Cl  0  0  0  0  0  0  0  0  0  0  0  0
   -7.9815    4.5950  -18.2449 C   0  0  0  0  0  0  0  0  0  0  0  0
   -6.7380    4.9632  -17.7880 C   0  0  0  0  0  0  0  0  0  0  0  0
   -6.4675    5.1712  -16.4289 C   0  0  0  0  0  0  0  0  0  0  0  0
   -5.0403    5.6437  -16.3797 C   0  0  2  0  0  0  0  0  0  0  0  0
   -4.0890    4.9824  -15.4046 C   0  0  0  0  0  0  0  0  0  0  0  0
   -2.8961    5.9354  -15.3693 C   0  0  0  0  0  0  0  0  0  0  0  0
   -3.3493    7.2568  -15.8415 N   0  0  0  0  0  0  0  0  0  0  0  0
   -4.8092    7.1355  -16.0673 C   0  0  0  0  0  0  0  0  0  0  0  0
   -4.5037    5.3646  -17.7742 N   0  0  0  0  0  0  0  0  0  0  0  0
   -5.6433    5.2975  -18.6030 N   0  0  0  0  0  0  0  0  0  0  0  0
   -8.8561    1.9259   -8.7279 C   0  0  0  0  0  0  0  0  0  0  0  0
   -9.2176    2.5325   -7.4181 N   0  0  0  0  0  0  0  0  0  0  0  0
   -8.6692    3.9027   -7.4470 C   0  0  0  0  0  0  0  0  0  0  0  0
  1  2  3  0
  2  3  1  0
  3  4  2  0
  4  5  1  0
  5  6  2  0
  6  7  1  0
  7  8  2  0
  8  9  1  0
  9 10  1  0
 10 11  2  0
 10 12  1  0
 12 13  2  0
 13 14  1  0
 14 15  1  0
 14 16  2  0
 16 17  1  0
 17 18  2  0
 18 19  1  0
 19 20  1  1
 20 21  1  0
 21 22  1  0
 22 23  1  0
 19 24  1  0
 24 25  1  0
  6 26  1  0
 26 27  1  0
 27 28  1  0
  8  3  1  0
 18 12  1  0
 23 19  1  0
 28  5  1  0
 25 17  1  0
M  END
>  <smiles>  (972) 
C105518-P336

>  <fragmenstein_outcome>  (972) 
acceptable

>  <inchikey>  (972) 
GQHYYSJHEYXTDO-UHFFFAOYSA-N

>  <fragmenstein_mode>  (972) 
expansion

>  <HIPPO Pose ID>  (972) 
19437

>  <Energy>  (972) 
128.651393

>  <fragmenstein_error>  (972) 


>  <tags>  (972) 
{'openbind_xx01zvns2b_c1_fragmenstein', 'fragmenstein_placed'}

>  <ref_pdb>  (972) 
1

>  <scratch_subdir>  (972) 
/opt/xchem-fragalysis-2/maxwin/BulkDock/SCRATCH/511027/C105518-P336

>  <alias>  (972) 
N#Cc1cc2c(cc1NC(=O)c1cc(Cl)cc3c1[C@@]1(CCNC1)NN3)CNC2

>  <HIPPO Compound ID>  (972) 
80591

>  <fragmenstein_runtime>  (972) 
4.248204

$$$$
CC(C)c1nnc([C@H]2Nc3cc(Cl)cc(C(=O)Nc4ccc5c(c4)CNC5)c3[C@@]23CCNC3)s1
     RDKit          3D

 34 39  0  0  0  0  0  0  0  0999 V2000
    1.7704    5.9564  -17.0304 C   0  0  0  0  0  0  0  0  0  0  0  0
    0.8507    6.8585  -17.8533 C   0  0  0  0  0  0  0  0  0  0  0  0
    1.2832    6.8739  -19.3195 C   0  0  0  0  0  0  0  0  0  0  0  0
   -0.5772    6.4095  -17.7296 C   0  0  0  0  0  0  0  0  0  0  0  0
   -1.0273    5.2216  -18.0730 N   0  0  0  0  0  0  0  0  0  0  0  0
   -2.3743    5.0747  -17.8377 N   0  0  0  0  0  0  0  0  0  0  0  0
   -2.9145    6.1728  -17.3492 C   0  0  0  0  0  0  0  0  0  0  0  0
   -4.3935    6.3591  -17.1418 C   0  0  1  0  0  0  0  0  0  0  0  0
   -5.1956    5.5463  -18.0829 N   0  0  0  0  0  0  0  0  0  0  0  0
   -6.3131    5.1449  -17.3326 C   0  0  0  0  0  0  0  0  0  0  0  0
   -7.3290    4.3947  -17.8769 C   0  0  0  0  0  0  0  0  0  0  0  0
   -8.3295    3.9623  -17.0309 C   0  0  0  0  0  0  0  0  0  0  0  0
   -9.4432    2.8421  -17.6310 Cl  0  0  0  0  0  0  0  0  0  0  0  0
   -8.3781    4.3407  -15.6913 C   0  0  0  0  0  0  0  0  0  0  0  0
   -7.3351    5.1005  -15.1467 C   0  0  0  0  0  0  0  0  0  0  0  0
   -7.4417    5.5078  -13.7209 C   0  0  0  0  0  0  0  0  0  0  0  0
   -7.3044    6.6393  -13.4711 O   0  0  0  0  0  0  0  0  0  0  0  0
   -7.8270    4.3203  -12.8094 N   0  0  0  0  0  0  0  0  0  0  0  0
   -8.0239    4.2642  -11.4330 C   0  0  0  0  0  0  0  0  0  0  0  0
   -7.8280    5.3979  -10.6291 C   0  0  0  0  0  0  0  0  0  0  0  0
   -8.0335    5.3401   -9.2479 C   0  0  0  0  0  0  0  0  0  0  0  0
   -8.4426    4.1407   -8.6963 C   0  0  0  0  0  0  0  0  0  0  0  0
   -8.6512    3.0228   -9.4915 C   0  0  0  0  0  0  0  0  0  0  0  0
   -8.4415    3.0602  -10.8612 C   0  0  0  0  0  0  0  0  0  0  0  0
   -9.1005    1.8846   -8.6441 C   0  0  0  0  0  0  0  0  0  0  0  0
   -9.1577    2.3899   -7.2449 N   0  0  0  0  0  0  0  0  0  0  0  0
   -8.7359    3.8075   -7.2755 C   0  0  0  0  0  0  0  0  0  0  0  0
   -6.2761    5.4863  -15.9767 C   0  0  0  0  0  0  0  0  0  0  0  0
   -4.9319    6.1293  -15.6807 C   0  0  1  0  0  0  0  0  0  0  0  0
   -4.0975    5.2169  -14.7626 C   0  0  0  0  0  0  0  0  0  0  0  0
   -3.4601    6.1488  -13.7470 C   0  0  0  0  0  0  0  0  0  0  0  0
   -4.4133    7.2459  -13.5975 N   0  0  0  0  0  0  0  0  0  0  0  0
   -4.9343    7.4869  -14.9493 C   0  0  0  0  0  0  0  0  0  0  0  0
   -1.7941    7.4565  -17.1167 S   0  0  0  0  0  0  0  0  0  0  0  0
  1  2  1  0
  2  3  1  0
  2  4  1  0
  4  5  2  0
  5  6  1  0
  6  7  2  0
  8  7  1  1
  8  9  1  0
  9 10  1  0
 10 11  2  0
 11 12  1  0
 12 13  1  0
 12 14  2  0
 14 15  1  0
 15 16  1  0
 16 17  2  0
 16 18  1  0
 18 19  1  0
 19 20  2  0
 20 21  1  0
 21 22  2  0
 22 23  1  0
 23 24  2  0
 23 25  1  0
 25 26  1  0
 26 27  1  0
 15 28  2  0
 28 29  1  0
 29 30  1  1
 30 31  1  0
 31 32  1  0
 32 33  1  0
  7 34  1  0
 34  4  1  0
 29  8  1  0
 28 10  1  0
 33 29  1  0
 24 19  1  0
 27 22  1  0
M  END
>  <smiles>  (973) 
C105528-P155

>  <fragmenstein_outcome>  (973) 
acceptable

>  <inchikey>  (973) 
JSWJFJDGJZDXIN-UHFFFAOYSA-N

>  <fragmenstein_mode>  (973) 
expansion

>  <HIPPO Pose ID>  (973) 
19438

>  <Energy>  (973) 
87.796513

>  <fragmenstein_error>  (973) 


>  <tags>  (973) 
{'openbind_xx01zvns2b_c1_fragmenstein', 'fragmenstein_placed'}

>  <ref_pdb>  (973) 
1

>  <scratch_subdir>  (973) 
/opt/xchem-fragalysis-2/maxwin/BulkDock/SCRATCH/511027/C105528-P155

>  <alias>  (973) 
CC(C)c1nnc([C@H]2Nc3cc(Cl)cc(C(=O)Nc4ccc5c(c4)CNC5)c3[C@@]23CCNC3)s1

>  <HIPPO Compound ID>  (973) 
74564

>  <fragmenstein_runtime>  (973) 
8.47106

$$$$
CCc1cc(Cl)cc([C@](O)(Nc2ccc3c(c2)CNC3)C(=O)NCC(F)F)c1-n1ccnc1
     RDKit          3D

 33 36  0  0  0  0  0  0  0  0999 V2000
   -5.4313    6.7999  -18.6169 C   0  0  0  0  0  0  0  0  0  0  0  0
   -5.5332    5.2886  -18.4541 C   0  0  0  0  0  0  0  0  0  0  0  0
   -6.5318    4.8892  -17.3867 C   0  0  0  0  0  0  0  0  0  0  0  0
   -7.7680    4.4262  -17.8504 C   0  0  0  0  0  0  0  0  0  0  0  0
   -8.8087    4.2262  -16.9642 C   0  0  0  0  0  0  0  0  0  0  0  0
  -10.3889    4.0427  -17.5631 Cl  0  0  0  0  0  0  0  0  0  0  0  0
   -8.6304    4.3788  -15.5979 C   0  0  0  0  0  0  0  0  0  0  0  0
   -7.4063    4.8190  -15.0575 C   0  0  0  0  0  0  0  0  0  0  0  0
   -7.3718    5.0561  -13.5320 C   0  0  2  0  0  0  0  0  0  0  0  0
   -6.0346    5.1338  -13.1070 O   0  0  0  0  0  0  0  0  0  0  0  0
   -7.8936    3.9171  -12.7684 N   0  0  0  0  0  0  0  0  0  0  0  0
   -8.1324    3.9566  -11.3846 C   0  0  0  0  0  0  0  0  0  0  0  0
   -7.7109    4.9960  -10.5269 C   0  0  0  0  0  0  0  0  0  0  0  0
   -7.9598    4.9946   -9.1488 C   0  0  0  0  0  0  0  0  0  0  0  0
   -8.5652    3.8878   -8.6081 C   0  0  0  0  0  0  0  0  0  0  0  0
   -8.8811    2.8012   -9.4108 C   0  0  0  0  0  0  0  0  0  0  0  0
   -8.6884    2.8216  -10.7839 C   0  0  0  0  0  0  0  0  0  0  0  0
   -9.3264    1.6851   -8.5325 C   0  0  0  0  0  0  0  0  0  0  0  0
   -9.7155    2.3288   -7.2537 N   0  0  0  0  0  0  0  0  0  0  0  0
   -8.9230    3.5776   -7.1934 C   0  0  0  0  0  0  0  0  0  0  0  0
   -8.2721    6.3862  -13.2454 C   0  0  0  0  0  0  0  0  0  0  0  0
   -9.4251    6.4414  -13.4435 O   0  0  0  0  0  0  0  0  0  0  0  0
   -7.2851    7.4721  -12.7198 N   0  0  0  0  0  0  0  0  0  0  0  0
   -7.5339    8.8149  -12.2420 C   0  0  0  0  0  0  0  0  0  0  0  0
   -8.0946    8.8719  -10.8239 C   0  0  0  0  0  0  0  0  0  0  0  0
   -8.3302   10.1673  -10.4913 F   0  0  0  0  0  0  0  0  0  0  0  0
   -7.1564    8.4153   -9.9515 F   0  0  0  0  0  0  0  0  0  0  0  0
   -6.3578    5.1000  -15.9876 C   0  0  0  0  0  0  0  0  0  0  0  0
   -5.1519    5.7211  -15.5698 N   0  0  0  0  0  0  0  0  0  0  0  0
   -3.8638    5.3216  -15.8306 C   0  0  0  0  0  0  0  0  0  0  0  0
   -3.0453    6.3203  -15.3712 C   0  0  0  0  0  0  0  0  0  0  0  0
   -3.7831    7.3523  -14.8714 N   0  0  0  0  0  0  0  0  0  0  0  0
   -5.0347    6.9843  -15.0334 C   0  0  0  0  0  0  0  0  0  0  0  0
  1  2  1  0
  2  3  1  0
  3  4  2  0
  4  5  1  0
  5  6  1  0
  5  7  2  0
  7  8  1  0
  8  9  1  0
  9 10  1  1
  9 11  1  0
 11 12  1  0
 12 13  2  0
 13 14  1  0
 14 15  2  0
 15 16  1  0
 16 17  2  0
 16 18  1  0
 18 19  1  0
 19 20  1  0
  9 21  1  0
 21 22  2  0
 21 23  1  0
 23 24  1  0
 24 25  1  0
 25 26  1  0
 25 27  1  0
  8 28  2  0
 28 29  1  0
 29 30  1  0
 30 31  2  0
 31 32  1  0
 32 33  2  0
 28  3  1  0
 33 29  1  0
 17 12  1  0
 20 15  1  0
M  END
>  <smiles>  (974) 
C105536-P155

>  <fragmenstein_outcome>  (974) 
acceptable

>  <inchikey>  (974) 
ZJMXZFZLBAKOAD-UHFFFAOYSA-N

>  <fragmenstein_mode>  (974) 
expansion

>  <HIPPO Pose ID>  (974) 
19448

>  <Energy>  (974) 
156.219708

>  <fragmenstein_error>  (974) 


>  <tags>  (974) 
{'openbind_xx01zvns2b_c1_fragmenstein', 'fragmenstein_placed'}

>  <ref_pdb>  (974) 
1

>  <scratch_subdir>  (974) 
/opt/xchem-fragalysis-2/maxwin/BulkDock/SCRATCH/511027/C105536-P155

>  <alias>  (974) 
CCc1cc(Cl)cc([C@](O)(Nc2ccc3c(c2)CNC3)C(=O)NCC(F)F)c1-n1ccnc1

>  <HIPPO Compound ID>  (974) 
103677

>  <fragmenstein_runtime>  (974) 
6.418208

$$$$
O=C(Nc1ccc2c(c1)CNC2)c1cc(Cl)cc2c1[C@@]1(CCNC1)NN2
     RDKit          3D

 26 30  0  0  0  0  0  0  0  0999 V2000
   -6.4907    6.2984  -13.5154 O   0  0  0  0  0  0  0  0  0  0  0  0
   -7.0024    5.2898  -13.8061 C   0  0  0  0  0  0  0  0  0  0  0  0
   -7.6479    4.1971  -12.9150 N   0  0  0  0  0  0  0  0  0  0  0  0
   -7.8728    4.1670  -11.5393 C   0  0  0  0  0  0  0  0  0  0  0  0
   -7.6300    5.2906  -10.7343 C   0  0  0  0  0  0  0  0  0  0  0  0
   -7.9085    5.2639   -9.3622 C   0  0  0  0  0  0  0  0  0  0  0  0
   -8.4208    4.1004   -8.8193 C   0  0  0  0  0  0  0  0  0  0  0  0
   -8.6477    2.9808   -9.6118 C   0  0  0  0  0  0  0  0  0  0  0  0
   -8.3912    2.9972  -10.9733 C   0  0  0  0  0  0  0  0  0  0  0  0
   -9.1269    1.8629   -8.7466 C   0  0  0  0  0  0  0  0  0  0  0  0
   -9.5243    2.4993   -7.4654 N   0  0  0  0  0  0  0  0  0  0  0  0
   -8.7862    3.7802   -7.4078 C   0  0  0  0  0  0  0  0  0  0  0  0
   -7.1877    4.9785  -15.2567 C   0  0  0  0  0  0  0  0  0  0  0  0
   -8.4417    4.5009  -15.6665 C   0  0  0  0  0  0  0  0  0  0  0  0
   -8.6990    4.2605  -17.0177 C   0  0  0  0  0  0  0  0  0  0  0  0
  -10.3023    3.9804  -17.5074 Cl  0  0  0  0  0  0  0  0  0  0  0  0
   -7.7219    4.4141  -17.9845 C   0  0  0  0  0  0  0  0  0  0  0  0
   -6.5208    4.9514  -17.5825 C   0  0  0  0  0  0  0  0  0  0  0  0
   -6.2448    5.2613  -16.2447 C   0  0  0  0  0  0  0  0  0  0  0  0
   -4.8799    5.9015  -16.2331 C   0  0  2  0  0  0  0  0  0  0  0  0
   -3.8450    5.1148  -15.4336 C   0  0  0  0  0  0  0  0  0  0  0  0
   -2.9414    6.1730  -14.8354 C   0  0  0  0  0  0  0  0  0  0  0  0
   -3.8507    7.2665  -14.4937 N   0  0  0  0  0  0  0  0  0  0  0  0
   -4.7725    7.3340  -15.6499 C   0  0  0  0  0  0  0  0  0  0  0  0
   -4.4907    5.9973  -17.6906 N   0  0  0  0  0  0  0  0  0  0  0  0
   -5.4200    5.2034  -18.4162 N   0  0  0  0  0  0  0  0  0  0  0  0
  1  2  2  0
  2  3  1  0
  3  4  1  0
  4  5  2  0
  5  6  1  0
  6  7  2  0
  7  8  1  0
  8  9  2  0
  8 10  1  0
 10 11  1  0
 11 12  1  0
  2 13  1  0
 13 14  2  0
 14 15  1  0
 15 16  1  0
 15 17  2  0
 17 18  1  0
 18 19  2  0
 19 20  1  0
 20 21  1  1
 21 22  1  0
 22 23  1  0
 23 24  1  0
 20 25  1  0
 25 26  1  0
  9  4  1  0
 19 13  1  0
 24 20  1  0
 12  7  1  0
 26 18  1  0
M  END
>  <smiles>  (975) 
C43727-P155

>  <fragmenstein_outcome>  (975) 
acceptable

>  <inchikey>  (975) 
QIIBZGQRTSXAHF-UHFFFAOYSA-N

>  <fragmenstein_mode>  (975) 
expansion

>  <HIPPO Pose ID>  (975) 
19449

>  <Energy>  (975) 
102.435542

>  <fragmenstein_error>  (975) 


>  <tags>  (975) 
{'openbind_xx01zvns2b_c1_fragmenstein', 'fragmenstein_placed'}

>  <ref_pdb>  (975) 
1

>  <scratch_subdir>  (975) 
/opt/xchem-fragalysis-2/maxwin/BulkDock/SCRATCH/511027/C43727-P155

>  <alias>  (975) 
O=C(Nc1ccc2c(c1)CNC2)c1cc(Cl)cc2c1[C@@]1(CCNC1)NN2

>  <HIPPO Compound ID>  (975) 
43727

>  <fragmenstein_runtime>  (975) 
3.10261

$$$$
O=C(Nc1ccc2c(c1)CNC2)c1cc(Cl)cc2c1[C@@]1(CCNC1)C(=O)N2
     RDKit          3D

 27 31  0  0  0  0  0  0  0  0999 V2000
   -6.9726    6.4275  -13.4041 O   0  0  0  0  0  0  0  0  0  0  0  0
   -7.3554    5.3597  -13.6767 C   0  0  0  0  0  0  0  0  0  0  0  0
   -7.9442    4.2478  -12.7801 N   0  0  0  0  0  0  0  0  0  0  0  0
   -8.0915    4.1846  -11.3978 C   0  0  0  0  0  0  0  0  0  0  0  0
   -7.8597    5.3093  -10.5898 C   0  0  0  0  0  0  0  0  0  0  0  0
   -8.0756    5.2554   -9.2089 C   0  0  0  0  0  0  0  0  0  0  0  0
   -8.5275    4.0680   -8.6654 C   0  0  0  0  0  0  0  0  0  0  0  0
   -8.7386    2.9483   -9.4639 C   0  0  0  0  0  0  0  0  0  0  0  0
   -8.5261    2.9845  -10.8305 C   0  0  0  0  0  0  0  0  0  0  0  0
   -9.1662    1.8107   -8.5998 C   0  0  0  0  0  0  0  0  0  0  0  0
   -9.5844    2.4348   -7.3176 N   0  0  0  0  0  0  0  0  0  0  0  0
   -8.8567    3.7219   -7.2513 C   0  0  0  0  0  0  0  0  0  0  0  0
   -7.4046    4.9701  -15.1079 C   0  0  0  0  0  0  0  0  0  0  0  0
   -8.6304    4.5128  -15.6118 C   0  0  0  0  0  0  0  0  0  0  0  0
   -8.7925    4.2855  -16.9820 C   0  0  0  0  0  0  0  0  0  0  0  0
  -10.3642    4.0529  -17.5876 Cl  0  0  0  0  0  0  0  0  0  0  0  0
   -7.7441    4.4268  -17.8744 C   0  0  0  0  0  0  0  0  0  0  0  0
   -6.5576    4.8820  -17.3519 C   0  0  0  0  0  0  0  0  0  0  0  0
   -6.3618    5.1875  -15.9992 C   0  0  0  0  0  0  0  0  0  0  0  0
   -4.9561    5.7277  -15.8277 C   0  0  2  0  0  0  0  0  0  0  0  0
   -4.1085    5.1297  -14.7063 C   0  0  0  0  0  0  0  0  0  0  0  0
   -3.6735    6.3171  -13.8577 C   0  0  0  0  0  0  0  0  0  0  0  0
   -3.7021    7.4612  -14.7653 N   0  0  0  0  0  0  0  0  0  0  0  0
   -4.8901    7.2466  -15.6023 C   0  0  0  0  0  0  0  0  0  0  0  0
   -4.3541    5.4552  -17.2356 C   0  0  0  0  0  0  0  0  0  0  0  0
   -3.1914    5.5414  -17.5961 O   0  0  0  0  0  0  0  0  0  0  0  0
   -5.4004    5.1006  -18.0714 N   0  0  0  0  0  0  0  0  0  0  0  0
  1  2  2  0
  2  3  1  0
  3  4  1  0
  4  5  2  0
  5  6  1  0
  6  7  2  0
  7  8  1  0
  8  9  2  0
  8 10  1  0
 10 11  1  0
 11 12  1  0
  2 13  1  0
 13 14  2  0
 14 15  1  0
 15 16  1  0
 15 17  2  0
 17 18  1  0
 18 19  2  0
 19 20  1  0
 20 21  1  1
 21 22  1  0
 22 23  1  0
 23 24  1  0
 20 25  1  0
 25 26  2  0
 25 27  1  0
  9  4  1  0
 19 13  1  0
 24 20  1  0
 12  7  1  0
 27 18  1  0
M  END
>  <smiles>  (976) 
C103571-P155

>  <fragmenstein_outcome>  (976) 
acceptable

>  <inchikey>  (976) 
CKDSMYVLDVXHAC-UHFFFAOYSA-N

>  <fragmenstein_mode>  (976) 
expansion

>  <HIPPO Pose ID>  (976) 
19454

>  <Energy>  (976) 
50.258617

>  <fragmenstein_error>  (976) 


>  <tags>  (976) 
{'openbind_xx01zvns2b_c1_fragmenstein', 'fragmenstein_placed'}

>  <ref_pdb>  (976) 
1

>  <scratch_subdir>  (976) 
/opt/xchem-fragalysis-2/maxwin/BulkDock/SCRATCH/511027/C103571-P155

>  <alias>  (976) 
O=C(Nc1ccc2c(c1)CNC2)c1cc(Cl)cc2c1[C@@]1(CCNC1)C(=O)N2

>  <HIPPO Compound ID>  (976) 
86974

>  <fragmenstein_runtime>  (976) 
2.959983

$$$$
O=C(Nc1ccc2c(c1)CNC2)c1cc(Cl)cc2c1[C@]1(CCNC1)C(=O)N2
     RDKit          3D

 27 31  0  0  0  0  0  0  0  0999 V2000
   -7.2996    6.4908  -13.8765 O   0  0  0  0  0  0  0  0  0  0  0  0
   -7.5414    5.3657  -14.0779 C   0  0  0  0  0  0  0  0  0  0  0  0
   -7.9421    4.2350  -13.0995 N   0  0  0  0  0  0  0  0  0  0  0  0
   -8.0330    4.2313  -11.7018 C   0  0  0  0  0  0  0  0  0  0  0  0
   -7.7771    5.3994  -10.9637 C   0  0  0  0  0  0  0  0  0  0  0  0
   -7.8487    5.4049   -9.5645 C   0  0  0  0  0  0  0  0  0  0  0  0
   -8.1777    4.2290   -8.9176 C   0  0  0  0  0  0  0  0  0  0  0  0
   -8.4313    3.0681   -9.6371 C   0  0  0  0  0  0  0  0  0  0  0  0
   -8.3673    3.0523  -11.0275 C   0  0  0  0  0  0  0  0  0  0  0  0
   -8.6896    1.9530   -8.6763 C   0  0  0  0  0  0  0  0  0  0  0  0
   -8.8714    2.5940   -7.3490 N   0  0  0  0  0  0  0  0  0  0  0  0
   -8.2837    3.9450   -7.4564 C   0  0  0  0  0  0  0  0  0  0  0  0
   -7.5114    4.9189  -15.4918 C   0  0  0  0  0  0  0  0  0  0  0  0
   -8.7309    4.6424  -16.1170 C   0  0  0  0  0  0  0  0  0  0  0  0
   -8.8145    4.4890  -17.5086 C   0  0  0  0  0  0  0  0  0  0  0  0
  -10.3412    4.3577  -18.2694 Cl  0  0  0  0  0  0  0  0  0  0  0  0
   -7.6820    4.5398  -18.3020 C   0  0  0  0  0  0  0  0  0  0  0  0
   -6.4908    4.7789  -17.6578 C   0  0  0  0  0  0  0  0  0  0  0  0
   -6.3707    4.9852  -16.2784 C   0  0  0  0  0  0  0  0  0  0  0  0
   -4.9155    5.2518  -15.9552 C   0  0  1  0  0  0  0  0  0  0  0  0
   -4.5865    6.6109  -15.3321 C   0  0  0  0  0  0  0  0  0  0  0  0
   -4.0659    6.2771  -13.9419 C   0  0  0  0  0  0  0  0  0  0  0  0
   -3.4239    4.9740  -14.1012 N   0  0  0  0  0  0  0  0  0  0  0  0
   -4.2969    4.2166  -15.0085 C   0  0  0  0  0  0  0  0  0  0  0  0
   -4.2592    5.1500  -17.3581 C   0  0  0  0  0  0  0  0  0  0  0  0
   -3.0807    5.2864  -17.6439 O   0  0  0  0  0  0  0  0  0  0  0  0
   -5.2613    4.8858  -18.2741 N   0  0  0  0  0  0  0  0  0  0  0  0
  1  2  2  0
  2  3  1  0
  3  4  1  0
  4  5  2  0
  5  6  1  0
  6  7  2  0
  7  8  1  0
  8  9  2  0
  8 10  1  0
 10 11  1  0
 11 12  1  0
  2 13  1  0
 13 14  2  0
 14 15  1  0
 15 16  1  0
 15 17  2  0
 17 18  1  0
 18 19  2  0
 19 20  1  0
 20 21  1  1
 21 22  1  0
 22 23  1  0
 23 24  1  0
 20 25  1  0
 25 26  2  0
 25 27  1  0
  9  4  1  0
 19 13  1  0
 24 20  1  0
 12  7  1  0
 27 18  1  0
M  END
>  <smiles>  (977) 
C103571-P44

>  <fragmenstein_outcome>  (977) 
acceptable

>  <inchikey>  (977) 
CWNUEYKZYBQZQR-UHFFFAOYSA-N

>  <fragmenstein_mode>  (977) 
expansion

>  <HIPPO Pose ID>  (977) 
19460

>  <Energy>  (977) 
50.993075

>  <fragmenstein_error>  (977) 


>  <tags>  (977) 
{'openbind_xx01zvns2b_c1_fragmenstein', 'fragmenstein_placed'}

>  <ref_pdb>  (977) 
1

>  <scratch_subdir>  (977) 
/opt/xchem-fragalysis-2/maxwin/BulkDock/SCRATCH/511027/C103571-P44

>  <alias>  (977) 
O=C(Nc1ccc2c(c1)CNC2)c1cc(Cl)cc2c1[C@]1(CCNC1)C(=O)N2

>  <HIPPO Compound ID>  (977) 
106412

>  <fragmenstein_runtime>  (977) 
3.178944

$$$$
O=C(Nc1ccc2c(c1)CNC2)c1cc(Cl)cc2c1[C@]1(CCNC1)N(C1CNC1)N2
     RDKit          3D

 30 35  0  0  0  0  0  0  0  0999 V2000
   -6.4918    6.1710  -13.6711 O   0  0  0  0  0  0  0  0  0  0  0  0
   -7.0556    5.1757  -13.9057 C   0  0  0  0  0  0  0  0  0  0  0  0
   -7.7056    4.1406  -12.9521 N   0  0  0  0  0  0  0  0  0  0  0  0
   -7.8724    4.1645  -11.5688 C   0  0  0  0  0  0  0  0  0  0  0  0
   -7.5084    5.2885  -10.8122 C   0  0  0  0  0  0  0  0  0  0  0  0
   -7.7126    5.3182   -9.4287 C   0  0  0  0  0  0  0  0  0  0  0  0
   -8.2684    4.2070   -8.8232 C   0  0  0  0  0  0  0  0  0  0  0  0
   -8.6330    3.0945   -9.5687 C   0  0  0  0  0  0  0  0  0  0  0  0
   -8.4520    3.0563  -10.9430 C   0  0  0  0  0  0  0  0  0  0  0  0
   -9.2287    2.0691   -8.6677 C   0  0  0  0  0  0  0  0  0  0  0  0
   -9.0441    2.5702   -7.2786 N   0  0  0  0  0  0  0  0  0  0  0  0
   -8.5948    3.9758   -7.3890 C   0  0  0  0  0  0  0  0  0  0  0  0
   -7.3144    4.8265  -15.3370 C   0  0  0  0  0  0  0  0  0  0  0  0
   -8.6210    4.4091  -15.6742 C   0  0  0  0  0  0  0  0  0  0  0  0
   -8.9769    4.1769  -17.0056 C   0  0  0  0  0  0  0  0  0  0  0  0
  -10.6082    4.0462  -17.4679 Cl  0  0  0  0  0  0  0  0  0  0  0  0
   -8.0510    4.2567  -18.0161 C   0  0  0  0  0  0  0  0  0  0  0  0
   -6.8060    4.7288  -17.6815 C   0  0  0  0  0  0  0  0  0  0  0  0
   -6.4149    5.0584  -16.3779 C   0  0  0  0  0  0  0  0  0  0  0  0
   -5.0541    5.7360  -16.5047 C   0  0  1  0  0  0  0  0  0  0  0  0
   -5.1221    7.2352  -16.1525 C   0  0  0  0  0  0  0  0  0  0  0  0
   -3.8115    7.5754  -15.4490 C   0  0  0  0  0  0  0  0  0  0  0  0
   -2.9853    6.3731  -15.4825 N   0  0  0  0  0  0  0  0  0  0  0  0
   -3.9370    5.2495  -15.5645 C   0  0  0  0  0  0  0  0  0  0  0  0
   -4.6705    5.4432  -17.9467 N   0  0  0  0  0  0  0  0  0  0  0  0
   -3.8288    6.4108  -18.6787 C   0  0  0  0  0  0  0  0  0  0  0  0
   -3.8934    6.1979  -20.2178 C   0  0  0  0  0  0  0  0  0  0  0  0
   -2.9267    5.0717  -20.0714 N   0  0  0  0  0  0  0  0  0  0  0  0
   -2.4092    5.7942  -18.8586 C   0  0  0  0  0  0  0  0  0  0  0  0
   -5.8184    4.9975  -18.6319 N   0  0  0  0  0  0  0  0  0  0  0  0
  1  2  2  0
  2  3  1  0
  3  4  1  0
  4  5  2  0
  5  6  1  0
  6  7  2  0
  7  8  1  0
  8  9  2  0
  8 10  1  0
 10 11  1  0
 11 12  1  0
  2 13  1  0
 13 14  2  0
 14 15  1  0
 15 16  1  0
 15 17  2  0
 17 18  1  0
 18 19  2  0
 19 20  1  0
 20 21  1  6
 21 22  1  0
 22 23  1  0
 23 24  1  0
 20 25  1  0
 25 26  1  0
 26 27  1  0
 27 28  1  0
 28 29  1  0
 25 30  1  0
  9  4  1  0
 19 13  1  0
 24 20  1  0
 29 26  1  0
 12  7  1  0
 30 18  1  0
M  END
>  <smiles>  (978) 
C105557-P155

>  <fragmenstein_outcome>  (978) 
acceptable

>  <inchikey>  (978) 
WRTVPMRFVJYCIO-UHFFFAOYSA-N

>  <fragmenstein_mode>  (978) 
expansion

>  <HIPPO Pose ID>  (978) 
19467

>  <Energy>  (978) 
156.924957

>  <fragmenstein_error>  (978) 


>  <tags>  (978) 
{'openbind_xx01zvns2b_c1_fragmenstein', 'fragmenstein_placed'}

>  <ref_pdb>  (978) 
1

>  <scratch_subdir>  (978) 
/opt/xchem-fragalysis-2/maxwin/BulkDock/SCRATCH/511027/C105557-P155

>  <alias>  (978) 
O=C(Nc1ccc2c(c1)CNC2)c1cc(Cl)cc2c1[C@]1(CCNC1)N(C1CNC1)N2

>  <HIPPO Compound ID>  (978) 
105557

>  <fragmenstein_runtime>  (978) 
7.099585

$$$$
O=C(Nc1ccc2c(c1)CNC2)c1cc(Cl)cc2c1[C@@]1(CCNC1)N(C1CNC1)N2
     RDKit          3D

 30 35  0  0  0  0  0  0  0  0999 V2000
   -7.3043    6.6446  -13.7777 O   0  0  0  0  0  0  0  0  0  0  0  0
   -7.5317    5.5142  -13.9683 C   0  0  0  0  0  0  0  0  0  0  0  0
   -7.9449    4.3919  -12.9813 N   0  0  0  0  0  0  0  0  0  0  0  0
   -8.0668    4.4072  -11.5886 C   0  0  0  0  0  0  0  0  0  0  0  0
   -7.8577    5.5842  -10.8548 C   0  0  0  0  0  0  0  0  0  0  0  0
   -7.9727    5.5933   -9.4594 C   0  0  0  0  0  0  0  0  0  0  0  0
   -8.3084    4.4154   -8.8183 C   0  0  0  0  0  0  0  0  0  0  0  0
   -8.5227    3.2453   -9.5364 C   0  0  0  0  0  0  0  0  0  0  0  0
   -8.4044    3.2229  -10.9210 C   0  0  0  0  0  0  0  0  0  0  0  0
   -8.8211    2.1403   -8.5746 C   0  0  0  0  0  0  0  0  0  0  0  0
   -9.1126    2.8087   -7.2768 N   0  0  0  0  0  0  0  0  0  0  0  0
   -8.4653    4.1363   -7.3617 C   0  0  0  0  0  0  0  0  0  0  0  0
   -7.5329    5.0211  -15.3666 C   0  0  0  0  0  0  0  0  0  0  0  0
   -8.7863    4.6659  -15.8838 C   0  0  0  0  0  0  0  0  0  0  0  0
   -8.9368    4.3324  -17.2320 C   0  0  0  0  0  0  0  0  0  0  0  0
  -10.5023    4.1616  -17.8946 Cl  0  0  0  0  0  0  0  0  0  0  0  0
   -7.8454    4.2739  -18.0771 C   0  0  0  0  0  0  0  0  0  0  0  0
   -6.6193    4.6229  -17.5520 C   0  0  0  0  0  0  0  0  0  0  0  0
   -6.4358    5.0158  -16.2202 C   0  0  0  0  0  0  0  0  0  0  0  0
   -4.9425    5.2988  -16.0591 C   0  0  2  0  0  0  0  0  0  0  0  0
   -4.2996    4.0834  -15.3138 C   0  0  0  0  0  0  0  0  0  0  0  0
   -3.5533    4.6494  -14.1182 C   0  0  0  0  0  0  0  0  0  0  0  0
   -4.2986    5.8515  -13.8003 N   0  0  0  0  0  0  0  0  0  0  0  0
   -4.5675    6.4633  -15.1078 C   0  0  0  0  0  0  0  0  0  0  0  0
   -4.4057    5.2453  -17.4884 N   0  0  0  0  0  0  0  0  0  0  0  0
   -4.0544    6.4325  -18.2853 C   0  0  0  0  0  0  0  0  0  0  0  0
   -4.7158    7.7618  -17.9468 C   0  0  0  0  0  0  0  0  0  0  0  0
   -3.3796    8.3749  -17.7933 N   0  0  0  0  0  0  0  0  0  0  0  0
   -2.7280    7.0475  -17.8581 C   0  0  0  0  0  0  0  0  0  0  0  0
   -5.4002    4.5351  -18.2275 N   0  0  0  0  0  0  0  0  0  0  0  0
  1  2  2  0
  2  3  1  0
  3  4  1  0
  4  5  2  0
  5  6  1  0
  6  7  2  0
  7  8  1  0
  8  9  2  0
  8 10  1  0
 10 11  1  0
 11 12  1  0
  2 13  1  0
 13 14  2  0
 14 15  1  0
 15 16  1  0
 15 17  2  0
 17 18  1  0
 18 19  2  0
 19 20  1  0
 20 21  1  1
 21 22  1  0
 22 23  1  0
 23 24  1  0
 20 25  1  0
 25 26  1  0
 26 27  1  0
 27 28  1  0
 28 29  1  0
 25 30  1  0
  9  4  1  0
 19 13  1  0
 24 20  1  0
 29 26  1  0
 12  7  1  0
 30 18  1  0
M  END
>  <smiles>  (979) 
C105557-P87

>  <fragmenstein_outcome>  (979) 
acceptable

>  <inchikey>  (979) 
FTLBCUGZALZAPR-UHFFFAOYSA-N

>  <fragmenstein_mode>  (979) 
expansion

>  <HIPPO Pose ID>  (979) 
19481

>  <Energy>  (979) 
158.933775

>  <fragmenstein_error>  (979) 


>  <tags>  (979) 
{'openbind_xx01zvns2b_c1_fragmenstein', 'fragmenstein_placed'}

>  <ref_pdb>  (979) 
1

>  <scratch_subdir>  (979) 
/opt/xchem-fragalysis-2/maxwin/BulkDock/SCRATCH/511027/C105557-P87

>  <alias>  (979) 
O=C(Nc1ccc2c(c1)CNC2)c1cc(Cl)cc2c1[C@@]1(CCNC1)N(C1CNC1)N2

>  <HIPPO Compound ID>  (979) 
71412

>  <fragmenstein_runtime>  (979) 
4.637095

$$$$
O=C1N=c2c(Cl)cc(C(=O)Nc3ccc4c(c3)CNC4)c(-n3ccnc3)c2=N1
     RDKit          3D

 28 32  0  0  0  0  0  0  0  0999 V2000
   -6.2276    3.8162  -20.5913 O   0  0  0  0  0  0  0  0  0  0  0  0
   -6.6641    4.1042  -19.4865 C   0  0  0  0  0  0  0  0  0  0  0  0
   -7.9191    3.7423  -19.0485 N   0  0  0  0  0  0  0  0  0  0  0  0
   -7.9545    4.1799  -17.8473 C   0  0  0  0  0  0  0  0  0  0  0  0
   -9.0310    4.2331  -16.8871 C   0  0  0  0  0  0  0  0  0  0  0  0
  -10.6112    4.1325  -17.4816 Cl  0  0  0  0  0  0  0  0  0  0  0  0
   -8.7267    4.5893  -15.6398 C   0  0  0  0  0  0  0  0  0  0  0  0
   -7.3805    4.9554  -15.2048 C   0  0  0  0  0  0  0  0  0  0  0  0
   -7.3012    5.4205  -13.7761 C   0  0  0  0  0  0  0  0  0  0  0  0
   -6.9709    6.5073  -13.5071 O   0  0  0  0  0  0  0  0  0  0  0  0
   -7.7600    4.2542  -12.8623 N   0  0  0  0  0  0  0  0  0  0  0  0
   -7.9888    4.2175  -11.4884 C   0  0  0  0  0  0  0  0  0  0  0  0
   -7.8092    5.3536  -10.6843 C   0  0  0  0  0  0  0  0  0  0  0  0
   -8.0617    5.3036   -9.3083 C   0  0  0  0  0  0  0  0  0  0  0  0
   -8.5022    4.1111   -8.7653 C   0  0  0  0  0  0  0  0  0  0  0  0
   -8.6799    2.9842   -9.5605 C   0  0  0  0  0  0  0  0  0  0  0  0
   -8.4259    3.0154  -10.9214 C   0  0  0  0  0  0  0  0  0  0  0  0
   -9.1206    1.8468   -8.6998 C   0  0  0  0  0  0  0  0  0  0  0  0
   -9.5431    2.4668   -7.4189 N   0  0  0  0  0  0  0  0  0  0  0  0
   -8.8402    3.7665   -7.3525 C   0  0  0  0  0  0  0  0  0  0  0  0
   -6.3316    5.1136  -16.0550 C   0  0  0  0  0  0  0  0  0  0  0  0
   -5.0065    5.4887  -15.7345 N   0  0  0  0  0  0  0  0  0  0  0  0
   -4.0392    5.9382  -16.6205 C   0  0  0  0  0  0  0  0  0  0  0  0
   -2.8653    6.0462  -15.9252 C   0  0  0  0  0  0  0  0  0  0  0  0
   -3.0542    5.7108  -14.6219 N   0  0  0  0  0  0  0  0  0  0  0  0
   -4.3320    5.4138  -14.5254 C   0  0  0  0  0  0  0  0  0  0  0  0
   -6.6385    4.7367  -17.4699 C   0  0  0  0  0  0  0  0  0  0  0  0
   -5.8911    4.7352  -18.5187 N   0  0  0  0  0  0  0  0  0  0  0  0
  1  2  2  0
  2  3  1  0
  3  4  2  0
  4  5  1  0
  5  6  1  0
  5  7  2  0
  7  8  1  0
  8  9  1  0
  9 10  2  0
  9 11  1  0
 11 12  1  0
 12 13  2  0
 13 14  1  0
 14 15  2  0
 15 16  1  0
 16 17  2  0
 16 18  1  0
 18 19  1  0
 19 20  1  0
  8 21  2  0
 21 22  1  0
 22 23  1  0
 23 24  2  0
 24 25  1  0
 25 26  2  0
 21 27  1  0
 27 28  2  0
 28  2  1  0
 27  4  1  0
 17 12  1  0
 26 22  1  0
 20 15  1  0
M  END
>  <smiles>  (980) 
C105572-P155

>  <fragmenstein_outcome>  (980) 
acceptable

>  <inchikey>  (980) 
BDUFWBUHKVRIFE-UHFFFAOYSA-N

>  <fragmenstein_mode>  (980) 
expansion

>  <HIPPO Pose ID>  (980) 
19485

>  <Energy>  (980) 
24.660869

>  <fragmenstein_error>  (980) 


>  <tags>  (980) 
{'openbind_xx01zvns2b_c1_fragmenstein', 'fragmenstein_placed'}

>  <ref_pdb>  (980) 
1

>  <scratch_subdir>  (980) 
/opt/xchem-fragalysis-2/maxwin/BulkDock/SCRATCH/511027/C105572-P155

>  <alias>  (980) 
O=C1N=c2c(Cl)cc(C(=O)Nc3ccc4c(c3)CNC4)c(-n3ccnc3)c2=N1

>  <HIPPO Compound ID>  (980) 
80143

>  <fragmenstein_runtime>  (980) 
3.893596

$$$$
N#Cc1cc(NC(=O)c2cc(Cl)cc3c2[C@]2(CCNC2)NN3C2CNC2)cc2c1CNC2
     RDKit          3D

 32 37  0  0  0  0  0  0  0  0999 V2000
   -7.1621    7.1842   -7.6337 N   0  0  0  0  0  0  0  0  0  0  0  0
   -7.5044    6.3266   -8.3377 C   0  0  0  0  0  0  0  0  0  0  0  0
   -7.8994    5.2287   -9.1667 C   0  0  0  0  0  0  0  0  0  0  0  0
   -7.7394    5.2845  -10.5566 C   0  0  0  0  0  0  0  0  0  0  0  0
   -8.0822    4.1857  -11.3606 C   0  0  0  0  0  0  0  0  0  0  0  0
   -7.9319    4.2366  -12.7421 N   0  0  0  0  0  0  0  0  0  0  0  0
   -7.3873    5.3604  -13.6512 C   0  0  0  0  0  0  0  0  0  0  0  0
   -7.0516    6.4468  -13.3916 O   0  0  0  0  0  0  0  0  0  0  0  0
   -7.4062    4.9633  -15.0798 C   0  0  0  0  0  0  0  0  0  0  0  0
   -8.5994    4.4790  -15.6147 C   0  0  0  0  0  0  0  0  0  0  0  0
   -8.7141    4.2824  -16.9915 C   0  0  0  0  0  0  0  0  0  0  0  0
  -10.2703    4.0051  -17.6113 Cl  0  0  0  0  0  0  0  0  0  0  0  0
   -7.6479    4.4836  -17.8604 C   0  0  0  0  0  0  0  0  0  0  0  0
   -6.4689    4.9514  -17.3196 C   0  0  0  0  0  0  0  0  0  0  0  0
   -6.3512    5.2218  -15.9471 C   0  0  0  0  0  0  0  0  0  0  0  0
   -5.0037    5.8421  -15.7320 C   0  0  1  0  0  0  0  0  0  0  0  0
   -4.9884    7.3597  -15.4785 C   0  0  0  0  0  0  0  0  0  0  0  0
   -3.8254    7.5943  -14.5157 C   0  0  0  0  0  0  0  0  0  0  0  0
   -3.0778    6.3293  -14.4418 N   0  0  0  0  0  0  0  0  0  0  0  0
   -4.1331    5.3083  -14.5906 C   0  0  0  0  0  0  0  0  0  0  0  0
   -4.2770    5.6303  -17.0379 N   0  0  0  0  0  0  0  0  0  0  0  0
   -5.2703    5.2622  -17.9860 N   0  0  0  0  0  0  0  0  0  0  0  0
   -5.0753    5.4644  -19.3901 C   0  0  0  0  0  0  0  0  0  0  0  0
   -5.4024    6.8849  -19.8958 C   0  0  0  0  0  0  0  0  0  0  0  0
   -4.2451    6.7551  -20.8421 N   0  0  0  0  0  0  0  0  0  0  0  0
   -3.6360    5.8706  -19.8034 C   0  0  0  0  0  0  0  0  0  0  0  0
   -8.5826    3.0172  -10.7843 C   0  0  0  0  0  0  0  0  0  0  0  0
   -8.7367    2.9791   -9.4083 C   0  0  0  0  0  0  0  0  0  0  0  0
   -8.4128    4.0689   -8.6107 C   0  0  0  0  0  0  0  0  0  0  0  0
   -8.6888    3.7403   -7.1828 C   0  0  0  0  0  0  0  0  0  0  0  0
   -9.2818    2.3863   -7.1681 N   0  0  0  0  0  0  0  0  0  0  0  0
   -9.1834    1.8490   -8.5492 C   0  0  0  0  0  0  0  0  0  0  0  0
  1  2  3  0
  2  3  1  0
  3  4  2  0
  4  5  1  0
  5  6  1  0
  6  7  1  0
  7  8  2  0
  7  9  1  0
  9 10  2  0
 10 11  1  0
 11 12  1  0
 11 13  2  0
 13 14  1  0
 14 15  2  0
 15 16  1  0
 16 17  1  1
 17 18  1  0
 18 19  1  0
 19 20  1  0
 16 21  1  0
 21 22  1  0
 22 23  1  0
 23 24  1  0
 24 25  1  0
 25 26  1  0
  5 27  2  0
 27 28  1  0
 28 29  2  0
 29 30  1  0
 30 31  1  0
 31 32  1  0
 29  3  1  0
 15  9  1  0
 20 16  1  0
 26 23  1  0
 32 28  1  0
 22 14  1  0
M  END
>  <smiles>  (981) 
C105587-P155

>  <fragmenstein_outcome>  (981) 
acceptable

>  <inchikey>  (981) 
NWBYZUTWFHPKMZ-UHFFFAOYSA-N

>  <fragmenstein_mode>  (981) 
expansion

>  <HIPPO Pose ID>  (981) 
19499

>  <Energy>  (981) 
135.610352

>  <fragmenstein_error>  (981) 


>  <tags>  (981) 
{'openbind_xx01zvns2b_c1_fragmenstein', 'fragmenstein_placed'}

>  <ref_pdb>  (981) 
1

>  <scratch_subdir>  (981) 
/opt/xchem-fragalysis-2/maxwin/BulkDock/SCRATCH/511027/C105587-P155

>  <alias>  (981) 
N#Cc1cc(NC(=O)c2cc(Cl)cc3c2[C@]2(CCNC2)NN3C2CNC2)cc2c1CNC2

>  <HIPPO Compound ID>  (981) 
72325

>  <fragmenstein_runtime>  (981) 
6.843987

$$$$
O=C(Nc1ccc2c(c1)CN(F)C2)c1cc(Cl)cc2c1[C@@]1(CCNC1)NN2C1CNC1
     RDKit          3D

 31 36  0  0  0  0  0  0  0  0999 V2000
   -6.7763    6.3525  -13.2992 O   0  0  0  0  0  0  0  0  0  0  0  0
   -7.1952    5.3024  -13.5867 C   0  0  0  0  0  0  0  0  0  0  0  0
   -7.8449    4.2107  -12.7108 N   0  0  0  0  0  0  0  0  0  0  0  0
   -8.0228    4.1451  -11.3336 C   0  0  0  0  0  0  0  0  0  0  0  0
   -7.7549    5.2602  -10.5205 C   0  0  0  0  0  0  0  0  0  0  0  0
   -7.9846    5.2175   -9.1427 C   0  0  0  0  0  0  0  0  0  0  0  0
   -8.4888    4.0495   -8.6081 C   0  0  0  0  0  0  0  0  0  0  0  0
   -8.7432    2.9389   -9.4143 C   0  0  0  0  0  0  0  0  0  0  0  0
   -8.5157    2.9642  -10.7779 C   0  0  0  0  0  0  0  0  0  0  0  0
   -9.2487    1.8275   -8.5535 C   0  0  0  0  0  0  0  0  0  0  0  0
   -9.6882    2.5036   -7.3159 N   0  0  0  0  0  0  0  0  0  0  0  0
   -9.6148    1.6902   -6.2111 F   0  0  0  0  0  0  0  0  0  0  0  0
   -8.8576    3.7157   -7.1971 C   0  0  0  0  0  0  0  0  0  0  0  0
   -7.2254    4.9344  -15.0252 C   0  0  0  0  0  0  0  0  0  0  0  0
   -8.4254    4.4652  -15.5663 C   0  0  0  0  0  0  0  0  0  0  0  0
   -8.5490    4.3036  -16.9472 C   0  0  0  0  0  0  0  0  0  0  0  0
  -10.0834    3.9323  -17.5772 Cl  0  0  0  0  0  0  0  0  0  0  0  0
   -7.5041    4.5835  -17.8198 C   0  0  0  0  0  0  0  0  0  0  0  0
   -6.3255    5.0463  -17.2758 C   0  0  0  0  0  0  0  0  0  0  0  0
   -6.1743    5.2153  -15.8917 C   0  0  0  0  0  0  0  0  0  0  0  0
   -4.7868    5.7620  -15.6651 C   0  0  2  0  0  0  0  0  0  0  0  0
   -3.9684    5.0655  -14.5755 C   0  0  0  0  0  0  0  0  0  0  0  0
   -3.2435    6.1963  -13.8637 C   0  0  0  0  0  0  0  0  0  0  0  0
   -4.1667    7.3328  -13.9101 N   0  0  0  0  0  0  0  0  0  0  0  0
   -4.7578    7.2629  -15.2593 C   0  0  0  0  0  0  0  0  0  0  0  0
   -4.1081    5.5761  -16.9936 N   0  0  0  0  0  0  0  0  0  0  0  0
   -5.1578    5.4574  -17.9455 N   0  0  0  0  0  0  0  0  0  0  0  0
   -4.9812    5.6246  -19.3710 C   0  0  0  0  0  0  0  0  0  0  0  0
   -3.6552    6.2833  -19.8235 C   0  0  0  0  0  0  0  0  0  0  0  0
   -4.2911    7.6195  -19.6751 N   0  0  0  0  0  0  0  0  0  0  0  0
   -5.6004    6.9448  -19.8825 C   0  0  0  0  0  0  0  0  0  0  0  0
  1  2  2  0
  2  3  1  0
  3  4  1  0
  4  5  2  0
  5  6  1  0
  6  7  2  0
  7  8  1  0
  8  9  2  0
  8 10  1  0
 10 11  1  0
 11 12  1  0
 11 13  1  0
  2 14  1  0
 14 15  2  0
 15 16  1  0
 16 17  1  0
 16 18  2  0
 18 19  1  0
 19 20  2  0
 20 21  1  0
 21 22  1  1
 22 23  1  0
 23 24  1  0
 24 25  1  0
 21 26  1  0
 26 27  1  0
 27 28  1  0
 28 29  1  0
 29 30  1  0
 30 31  1  0
  9  4  1  0
 20 14  1  0
 25 21  1  0
 31 28  1  0
 13  7  1  0
 27 19  1  0
M  END
>  <smiles>  (982) 
C105588-P155

>  <fragmenstein_outcome>  (982) 
acceptable

>  <inchikey>  (982) 
MGCPGVLIXMTADV-UHFFFAOYSA-N

>  <fragmenstein_mode>  (982) 
expansion

>  <HIPPO Pose ID>  (982) 
19500

>  <Energy>  (982) 
142.042243

>  <fragmenstein_error>  (982) 


>  <tags>  (982) 
{'openbind_xx01zvns2b_c1_fragmenstein', 'fragmenstein_placed'}

>  <ref_pdb>  (982) 
1

>  <scratch_subdir>  (982) 
/opt/xchem-fragalysis-2/maxwin/BulkDock/SCRATCH/511027/C105588-P155

>  <alias>  (982) 
O=C(Nc1ccc2c(c1)CN(F)C2)c1cc(Cl)cc2c1[C@@]1(CCNC1)NN2C1CNC1

>  <HIPPO Compound ID>  (982) 
83089

>  <fragmenstein_runtime>  (982) 
6.230132

$$$$
O=C(NCC(F)F)[C@](O)(Nc1ccc2c(c1)CNC2)N1CC2(CC(F)(F)C2)c2ccccc21
     RDKit          3D

 33 37  0  0  0  0  0  0  0  0999 V2000
   -5.4690    5.9083  -12.0600 O   0  0  0  0  0  0  0  0  0  0  0  0
   -5.9158    4.9558  -12.5810 C   0  0  0  0  0  0  0  0  0  0  0  0
   -5.4727    3.4643  -12.5080 N   0  0  0  0  0  0  0  0  0  0  0  0
   -4.4504    2.8253  -11.7060 C   0  0  0  0  0  0  0  0  0  0  0  0
   -3.0086    3.1752  -12.0638 C   0  0  0  0  0  0  0  0  0  0  0  0
   -2.8064    4.5153  -12.0779 F   0  0  0  0  0  0  0  0  0  0  0  0
   -2.6938    2.7243  -13.3051 F   0  0  0  0  0  0  0  0  0  0  0  0
   -7.2926    5.0661  -13.4732 C   0  0  2  0  0  0  0  0  0  0  0  0
   -7.7296    6.4027  -13.5865 O   0  0  0  0  0  0  0  0  0  0  0  0
   -8.3478    4.2915  -12.8252 N   0  0  0  0  0  0  0  0  0  0  0  0
   -8.4113    4.2222  -11.4254 C   0  0  0  0  0  0  0  0  0  0  0  0
   -8.2285    5.3522  -10.5997 C   0  0  0  0  0  0  0  0  0  0  0  0
   -8.3121    5.2726   -9.2055 C   0  0  0  0  0  0  0  0  0  0  0  0
   -8.6419    4.0573   -8.6453 C   0  0  0  0  0  0  0  0  0  0  0  0
   -8.8545    2.9393   -9.4423 C   0  0  0  0  0  0  0  0  0  0  0  0
   -8.7475    3.0022  -10.8211 C   0  0  0  0  0  0  0  0  0  0  0  0
   -9.1859    1.7796   -8.5661 C   0  0  0  0  0  0  0  0  0  0  0  0
   -9.5710    2.3823   -7.2636 N   0  0  0  0  0  0  0  0  0  0  0  0
   -8.8753    3.6882   -7.2188 C   0  0  0  0  0  0  0  0  0  0  0  0
   -7.1574    4.5175  -14.8217 N   0  0  0  0  0  0  0  0  0  0  0  0
   -8.3931    4.4617  -15.6667 C   0  0  0  0  0  0  0  0  0  0  0  0
   -7.9671    4.2460  -17.1320 C   0  0  0  0  0  0  0  0  0  0  0  0
   -8.5584    5.0370  -18.3072 C   0  0  0  0  0  0  0  0  0  0  0  0
   -8.4322    3.7927  -19.1465 C   0  0  0  0  0  0  0  0  0  0  0  0
   -7.2588    3.4456  -19.7198 F   0  0  0  0  0  0  0  0  0  0  0  0
   -9.3338    3.8766  -20.1236 F   0  0  0  0  0  0  0  0  0  0  0  0
   -8.7518    3.0848  -17.8302 C   0  0  0  0  0  0  0  0  0  0  0  0
   -6.4490    4.6198  -17.0336 C   0  0  0  0  0  0  0  0  0  0  0  0
   -5.5341    4.9584  -18.0535 C   0  0  0  0  0  0  0  0  0  0  0  0
   -4.2863    5.4856  -17.7559 C   0  0  0  0  0  0  0  0  0  0  0  0
   -3.9461    5.6863  -16.4267 C   0  0  0  0  0  0  0  0  0  0  0  0
   -4.8513    5.3828  -15.4017 C   0  0  0  0  0  0  0  0  0  0  0  0
   -6.1094    4.8676  -15.6944 C   0  0  0  0  0  0  0  0  0  0  0  0
  1  2  2  0
  2  3  1  0
  3  4  1  0
  4  5  1  0
  5  6  1  0
  5  7  1  0
  2  8  1  0
  8  9  1  6
  8 10  1  0
 10 11  1  0
 11 12  2  0
 12 13  1  0
 13 14  2  0
 14 15  1  0
 15 16  2  0
 15 17  1  0
 17 18  1  0
 18 19  1  0
  8 20  1  0
 20 21  1  0
 21 22  1  0
 22 23  1  0
 23 24  1  0
 24 25  1  0
 24 26  1  0
 24 27  1  0
 22 28  1  0
 28 29  2  0
 29 30  1  0
 30 31  2  0
 31 32  1  0
 32 33  2  0
 16 11  1  0
 33 20  1  0
 19 14  1  0
 27 22  1  0
 33 28  1  0
M  END
>  <smiles>  (983) 
C105761-P155

>  <fragmenstein_outcome>  (983) 
acceptable

>  <inchikey>  (983) 
JLKPZTNOVAWQRP-UHFFFAOYSA-N

>  <fragmenstein_mode>  (983) 
expansion

>  <HIPPO Pose ID>  (983) 
19560

>  <Energy>  (983) 
114.602474

>  <fragmenstein_error>  (983) 


>  <tags>  (983) 
{'openbind_xx01zvns2b_c1_fragmenstein', 'fragmenstein_placed'}

>  <ref_pdb>  (983) 
1

>  <scratch_subdir>  (983) 
/opt/xchem-fragalysis-2/maxwin/BulkDock/SCRATCH/511027/C105761-P155

>  <alias>  (983) 
O=C(NCC(F)F)[C@](O)(Nc1ccc2c(c1)CNC2)N1CC2(CC(F)(F)C2)c2ccccc21

>  <HIPPO Compound ID>  (983) 
102144

>  <fragmenstein_runtime>  (983) 
13.058454

$$$$
O=C(NCC1CCOCC1)[C@@H](Nc1ccc2c(c1)CNC2)c1cc(CO)cc2c1CNC21CCNCC1
     RDKit          3D

 37 42  0  0  0  0  0  0  0  0999 V2000
   -7.1466    1.8361  -13.6754 O   0  0  0  0  0  0  0  0  0  0  0  0
   -6.9659    2.9130  -13.2586 C   0  0  0  0  0  0  0  0  0  0  0  0
   -5.7431    3.5098  -12.5105 N   0  0  0  0  0  0  0  0  0  0  0  0
   -4.5422    2.8832  -12.0425 C   0  0  0  0  0  0  0  0  0  0  0  0
   -3.7109    2.2934  -13.1905 C   0  0  0  0  0  0  0  0  0  0  0  0
   -2.3733    1.7513  -12.6691 C   0  0  0  0  0  0  0  0  0  0  0  0
   -1.3937    2.8750  -12.3497 C   0  0  0  0  0  0  0  0  0  0  0  0
   -1.2031    3.7225  -13.4813 O   0  0  0  0  0  0  0  0  0  0  0  0
   -2.4167    4.3357  -13.9176 C   0  0  0  0  0  0  0  0  0  0  0  0
   -3.4459    3.2897  -14.3232 C   0  0  0  0  0  0  0  0  0  0  0  0
   -7.9934    4.1026  -13.4490 C   0  0  1  0  0  0  0  0  0  0  0  0
   -7.8026    5.1839  -12.4482 N   0  0  0  0  0  0  0  0  0  0  0  0
   -8.1172    4.9217  -11.0909 C   0  0  0  0  0  0  0  0  0  0  0  0
   -7.9741    5.9928  -10.1804 C   0  0  0  0  0  0  0  0  0  0  0  0
   -8.1366    5.8201   -8.7987 C   0  0  0  0  0  0  0  0  0  0  0  0
   -8.4512    4.5604   -8.3290 C   0  0  0  0  0  0  0  0  0  0  0  0
   -8.5875    3.4920   -9.2029 C   0  0  0  0  0  0  0  0  0  0  0  0
   -8.4129    3.6498  -10.5708 C   0  0  0  0  0  0  0  0  0  0  0  0
   -8.9053    2.2537   -8.4272 C   0  0  0  0  0  0  0  0  0  0  0  0
   -9.2777    2.7353   -7.0685 N   0  0  0  0  0  0  0  0  0  0  0  0
   -8.6746    4.0773   -6.9357 C   0  0  0  0  0  0  0  0  0  0  0  0
   -7.9274    4.6364  -14.8832 C   0  0  0  0  0  0  0  0  0  0  0  0
   -8.9386    4.2438  -15.7835 C   0  0  0  0  0  0  0  0  0  0  0  0
   -8.9092    4.4974  -17.1684 C   0  0  0  0  0  0  0  0  0  0  0  0
  -10.0441    4.0127  -18.0337 C   0  0  0  0  0  0  0  0  0  0  0  0
  -10.2119    4.7001  -19.2614 O   0  0  0  0  0  0  0  0  0  0  0  0
   -7.7773    5.0963  -17.6938 C   0  0  0  0  0  0  0  0  0  0  0  0
   -6.7907    5.5445  -16.8229 C   0  0  0  0  0  0  0  0  0  0  0  0
   -6.8963    5.3870  -15.4354 C   0  0  0  0  0  0  0  0  0  0  0  0
   -5.8154    6.1750  -14.7837 C   0  0  0  0  0  0  0  0  0  0  0  0
   -4.8833    6.5987  -15.8562 N   0  0  0  0  0  0  0  0  0  0  0  0
   -5.5082    6.2522  -17.1785 C   0  0  0  0  0  0  0  0  0  0  0  0
   -5.7962    7.5553  -17.9490 C   0  0  0  0  0  0  0  0  0  0  0  0
   -5.0940    7.6103  -19.3034 C   0  0  0  0  0  0  0  0  0  0  0  0
   -5.3487    6.4269  -20.1101 N   0  0  0  0  0  0  0  0  0  0  0  0
   -4.9497    5.1815  -19.4448 C   0  0  0  0  0  0  0  0  0  0  0  0
   -4.5558    5.3316  -17.9717 C   0  0  0  0  0  0  0  0  0  0  0  0
  1  2  2  0
  2  3  1  0
  3  4  1  0
  4  5  1  0
  5  6  1  0
  6  7  1  0
  7  8  1  0
  8  9  1  0
  9 10  1  0
  2 11  1  0
 11 12  1  1
 12 13  1  0
 13 14  2  0
 14 15  1  0
 15 16  2  0
 16 17  1  0
 17 18  2  0
 17 19  1  0
 19 20  1  0
 20 21  1  0
 11 22  1  0
 22 23  2  0
 23 24  1  0
 24 25  1  0
 25 26  1  0
 24 27  2  0
 27 28  1  0
 28 29  2  0
 29 30  1  0
 30 31  1  0
 31 32  1  0
 32 33  1  0
 33 34  1  0
 34 35  1  0
 35 36  1  0
 36 37  1  0
 10  5  1  0
 18 13  1  0
 29 22  1  0
 37 32  1  0
 21 16  1  0
 32 28  1  0
M  END
>  <smiles>  (984) 
C105893-P156

>  <fragmenstein_outcome>  (984) 
acceptable

>  <inchikey>  (984) 
FTGWJHOHDHGKKS-UHFFFAOYSA-N

>  <fragmenstein_mode>  (984) 
expansion

>  <HIPPO Pose ID>  (984) 
19658

>  <Energy>  (984) 
119.731519

>  <fragmenstein_error>  (984) 


>  <tags>  (984) 
{'openbind_xx01zvns2b_c1_fragmenstein', 'fragmenstein_placed'}

>  <ref_pdb>  (984) 
1

>  <scratch_subdir>  (984) 
/opt/xchem-fragalysis-2/maxwin/BulkDock/SCRATCH/511027/C105893-P156

>  <alias>  (984) 
O=C(NCC1CCOCC1)[C@@H](Nc1ccc2c(c1)CNC2)c1cc(CO)cc2c1CNC21CCNCC1

>  <HIPPO Compound ID>  (984) 
105893

>  <fragmenstein_runtime>  (984) 
9.878401

$$$$
O=C(NCC1CCOCC1)[C@](O)(Nc1ccc2c(c1)CNC2)c1cc(Cl)cc2c1CC1(CCCCC1)N2
     RDKit          3D

 37 42  0  0  0  0  0  0  0  0999 V2000
   -7.1356    1.8010  -13.5518 O   0  0  0  0  0  0  0  0  0  0  0  0
   -6.6078    2.7965  -13.2366 C   0  0  0  0  0  0  0  0  0  0  0  0
   -5.2946    3.0309  -12.4373 N   0  0  0  0  0  0  0  0  0  0  0  0
   -4.3199    2.0941  -11.9484 C   0  0  0  0  0  0  0  0  0  0  0  0
   -3.4637    2.6429  -10.8072 C   0  0  0  0  0  0  0  0  0  0  0  0
   -2.5359    3.7814  -11.2642 C   0  0  0  0  0  0  0  0  0  0  0  0
   -2.3058    4.8106  -10.1609 C   0  0  0  0  0  0  0  0  0  0  0  0
   -2.1965    4.1648   -8.8986 O   0  0  0  0  0  0  0  0  0  0  0  0
   -3.4252    3.5727   -8.4674 C   0  0  0  0  0  0  0  0  0  0  0  0
   -4.3107    3.0815   -9.6100 C   0  0  0  0  0  0  0  0  0  0  0  0
   -7.2194    4.2582  -13.4869 C   0  0  2  0  0  0  0  0  0  0  0  0
   -6.4311    5.3062  -12.9357 O   0  0  0  0  0  0  0  0  0  0  0  0
   -8.5416    4.3768  -12.8323 N   0  0  0  0  0  0  0  0  0  0  0  0
   -8.5131    4.3442  -11.4109 C   0  0  0  0  0  0  0  0  0  0  0  0
   -8.3441    5.5330  -10.6700 C   0  0  0  0  0  0  0  0  0  0  0  0
   -8.3070    5.5245   -9.2721 C   0  0  0  0  0  0  0  0  0  0  0  0
   -8.4663    4.3160   -8.6233 C   0  0  0  0  0  0  0  0  0  0  0  0
   -8.6338    3.1409   -9.3388 C   0  0  0  0  0  0  0  0  0  0  0  0
   -8.6336    3.1333  -10.7242 C   0  0  0  0  0  0  0  0  0  0  0  0
   -8.8604    2.0075   -8.3999 C   0  0  0  0  0  0  0  0  0  0  0  0
   -8.7142    2.5684   -7.0283 N   0  0  0  0  0  0  0  0  0  0  0  0
   -8.5651    4.0303   -7.1666 C   0  0  0  0  0  0  0  0  0  0  0  0
   -7.3269    4.5641  -14.9822 C   0  0  0  0  0  0  0  0  0  0  0  0
   -8.4890    4.2741  -15.7265 C   0  0  0  0  0  0  0  0  0  0  0  0
   -8.5979    4.6010  -17.0872 C   0  0  0  0  0  0  0  0  0  0  0  0
  -10.0241    4.1784  -17.9538 Cl  0  0  0  0  0  0  0  0  0  0  0  0
   -7.5798    5.2881  -17.7383 C   0  0  0  0  0  0  0  0  0  0  0  0
   -6.4526    5.6122  -17.0152 C   0  0  0  0  0  0  0  0  0  0  0  0
   -6.2918    5.1825  -15.6928 C   0  0  0  0  0  0  0  0  0  0  0  0
   -4.8761    5.4835  -15.2968 C   0  0  0  0  0  0  0  0  0  0  0  0
   -4.5210    6.6084  -16.3092 C   0  0  0  0  0  0  0  0  0  0  0  0
   -3.0277    6.5700  -16.7046 C   0  0  0  0  0  0  0  0  0  0  0  0
   -2.1864    7.5037  -15.8425 C   0  0  0  0  0  0  0  0  0  0  0  0
   -2.6184    8.9621  -16.0064 C   0  0  0  0  0  0  0  0  0  0  0  0
   -4.1056    9.1237  -16.3267 C   0  0  0  0  0  0  0  0  0  0  0  0
   -4.9332    7.9918  -15.7256 C   0  0  0  0  0  0  0  0  0  0  0  0
   -5.3242    6.3028  -17.5162 N   0  0  0  0  0  0  0  0  0  0  0  0
  1  2  2  0
  2  3  1  0
  3  4  1  0
  4  5  1  0
  5  6  1  0
  6  7  1  0
  7  8  1  0
  8  9  1  0
  9 10  1  0
  2 11  1  0
 11 12  1  1
 11 13  1  0
 13 14  1  0
 14 15  2  0
 15 16  1  0
 16 17  2  0
 17 18  1  0
 18 19  2  0
 18 20  1  0
 20 21  1  0
 21 22  1  0
 11 23  1  0
 23 24  2  0
 24 25  1  0
 25 26  1  0
 25 27  2  0
 27 28  1  0
 28 29  2  0
 29 30  1  0
 30 31  1  0
 31 32  1  0
 32 33  1  0
 33 34  1  0
 34 35  1  0
 35 36  1  0
 31 37  1  0
 10  5  1  0
 19 14  1  0
 29 23  1  0
 36 31  1  0
 22 17  1  0
 37 28  1  0
M  END
>  <smiles>  (985) 
C105966-P156

>  <fragmenstein_outcome>  (985) 
acceptable

>  <inchikey>  (985) 
FYQNMHKMICBQTH-UHFFFAOYSA-N

>  <fragmenstein_mode>  (985) 
expansion

>  <HIPPO Pose ID>  (985) 
19678

>  <Energy>  (985) 
123.571101

>  <fragmenstein_error>  (985) 


>  <tags>  (985) 
{'openbind_xx01zvns2b_c1_fragmenstein', 'fragmenstein_placed'}

>  <ref_pdb>  (985) 
1

>  <scratch_subdir>  (985) 
/opt/xchem-fragalysis-2/maxwin/BulkDock/SCRATCH/511027/C105966-P156

>  <alias>  (985) 
O=C(NCC1CCOCC1)[C@](O)(Nc1ccc2c(c1)CNC2)c1cc(Cl)cc2c1CC1(CCCCC1)N2

>  <HIPPO Compound ID>  (985) 
102802

>  <fragmenstein_runtime>  (985) 
8.481696

$$$$
CC(C)[C@@H]1NN[C@]2(Cc3c(cc(Cl)cc3[C@@](O)(Nc3ccc4c(c3)CNC4)C(=O)NCC3CCOCC3)N2)S1
     RDKit          3D

 39 44  0  0  0  0  0  0  0  0999 V2000
   -0.3461    8.0427  -14.0607 C   0  0  0  0  0  0  0  0  0  0  0  0
   -1.1430    6.9533  -14.7947 C   0  0  0  0  0  0  0  0  0  0  0  0
   -0.1476    5.9680  -15.4224 C   0  0  0  0  0  0  0  0  0  0  0  0
   -2.1083    7.5636  -15.8406 C   0  0  2  0  0  0  0  0  0  0  0  0
   -3.0351    8.5150  -15.2144 N   0  0  0  0  0  0  0  0  0  0  0  0
   -4.2831    8.5416  -15.9762 N   0  0  0  0  0  0  0  0  0  0  0  0
   -4.6918    7.1504  -16.2338 C   0  0  1  0  0  0  0  0  0  0  0  0
   -5.3211    6.5233  -14.9566 C   0  0  0  0  0  0  0  0  0  0  0  0
   -6.4075    5.6531  -15.5124 C   0  0  0  0  0  0  0  0  0  0  0  0
   -6.5187    5.9306  -16.8780 C   0  0  0  0  0  0  0  0  0  0  0  0
   -7.4926    5.3380  -17.6566 C   0  0  0  0  0  0  0  0  0  0  0  0
   -8.3912    4.4822  -17.0352 C   0  0  0  0  0  0  0  0  0  0  0  0
   -9.6910    3.8252  -17.9526 Cl  0  0  0  0  0  0  0  0  0  0  0  0
   -8.2738    4.1846  -15.6683 C   0  0  0  0  0  0  0  0  0  0  0  0
   -7.2689    4.7597  -14.8602 C   0  0  0  0  0  0  0  0  0  0  0  0
   -7.1429    4.3861  -13.3783 C   0  0  1  0  0  0  0  0  0  0  0  0
   -6.3356    5.3677  -12.7299 O   0  0  0  0  0  0  0  0  0  0  0  0
   -8.4717    4.3757  -12.7326 N   0  0  0  0  0  0  0  0  0  0  0  0
   -8.4998    4.3229  -11.3212 C   0  0  0  0  0  0  0  0  0  0  0  0
   -8.3593    5.5033  -10.5625 C   0  0  0  0  0  0  0  0  0  0  0  0
   -8.3504    5.4762   -9.1639 C   0  0  0  0  0  0  0  0  0  0  0  0
   -8.5068    4.2560   -8.5339 C   0  0  0  0  0  0  0  0  0  0  0  0
   -8.6448    3.0892   -9.2694 C   0  0  0  0  0  0  0  0  0  0  0  0
   -8.6174    3.1021  -10.6547 C   0  0  0  0  0  0  0  0  0  0  0  0
   -8.8711    1.9388   -8.3513 C   0  0  0  0  0  0  0  0  0  0  0  0
   -8.7309    2.4767   -6.9704 N   0  0  0  0  0  0  0  0  0  0  0  0
   -8.6310    3.9454   -7.0832 C   0  0  0  0  0  0  0  0  0  0  0  0
   -6.4545    2.9305  -13.2478 C   0  0  0  0  0  0  0  0  0  0  0  0
   -7.0140    1.9144  -13.4187 O   0  0  0  0  0  0  0  0  0  0  0  0
   -4.9953    3.2137  -12.7649 N   0  0  0  0  0  0  0  0  0  0  0  0
   -3.9728    2.3131  -12.3083 C   0  0  0  0  0  0  0  0  0  0  0  0
   -4.3066    1.7904  -10.9006 C   0  0  0  0  0  0  0  0  0  0  0  0
   -4.3653    2.9213   -9.8534 C   0  0  0  0  0  0  0  0  0  0  0  0
   -3.0761    3.0512   -9.0480 C   0  0  0  0  0  0  0  0  0  0  0  0
   -1.9517    2.7204   -9.8564 O   0  0  0  0  0  0  0  0  0  0  0  0
   -1.9140    1.3271  -10.1790 C   0  0  0  0  0  0  0  0  0  0  0  0
   -3.2954    0.7370  -10.4528 C   0  0  0  0  0  0  0  0  0  0  0  0
   -5.6078    6.9134  -17.3522 N   0  0  0  0  0  0  0  0  0  0  0  0
   -3.1257    6.3142  -16.6835 S   0  0  0  0  0  0  0  0  0  0  0  0
  1  2  1  0
  2  3  1  0
  4  2  1  1
  4  5  1  0
  5  6  1  0
  6  7  1  0
  7  8  1  1
  8  9  1  0
  9 10  2  0
 10 11  1  0
 11 12  2  0
 12 13  1  0
 12 14  1  0
 14 15  2  0
 15 16  1  0
 16 17  1  1
 16 18  1  0
 18 19  1  0
 19 20  2  0
 20 21  1  0
 21 22  2  0
 22 23  1  0
 23 24  2  0
 23 25  1  0
 25 26  1  0
 26 27  1  0
 16 28  1  0
 28 29  2  0
 28 30  1  0
 30 31  1  0
 31 32  1  0
 32 33  1  0
 33 34  1  0
 34 35  1  0
 35 36  1  0
 36 37  1  0
 10 38  1  0
  7 39  1  0
 39  4  1  0
 38  7  1  0
 15  9  1  0
 24 19  1  0
 37 32  1  0
 27 22  1  0
M  END
>  <smiles>  (986) 
C105977-P156

>  <fragmenstein_outcome>  (986) 
acceptable

>  <inchikey>  (986) 
SUICBDCUYIWPNR-UHFFFAOYSA-N

>  <fragmenstein_mode>  (986) 
expansion

>  <HIPPO Pose ID>  (986) 
19689

>  <Energy>  (986) 
99.991679

>  <fragmenstein_error>  (986) 


>  <tags>  (986) 
{'openbind_xx01zvns2b_c1_fragmenstein', 'fragmenstein_placed'}

>  <ref_pdb>  (986) 
1

>  <scratch_subdir>  (986) 
/opt/xchem-fragalysis-2/maxwin/BulkDock/SCRATCH/511027/C105977-P156

>  <alias>  (986) 
CC(C)[C@@H]1NN[C@]2(Cc3c(cc(Cl)cc3[C@@](O)(Nc3ccc4c(c3)CNC4)C(=O)NCC3CCOCC3)N2)S1

>  <HIPPO Compound ID>  (986) 
72272

>  <fragmenstein_runtime>  (986) 
10.114565

$$$$
O=C(N[C@@H](C(F)F)C1CCOCC1)[C@@H](Nc1ccc2c(c1)CNC2)c1cc(Cl)cc2nn(F)c(F)c12
     RDKit          3D

 36 40  0  0  0  0  0  0  0  0999 V2000
   -7.0777    1.5746  -13.5072 O   0  0  0  0  0  0  0  0  0  0  0  0
   -6.7138    2.6727  -13.3586 C   0  0  0  0  0  0  0  0  0  0  0  0
   -5.3244    3.2220  -12.9674 N   0  0  0  0  0  0  0  0  0  0  0  0
   -4.1078    2.5251  -12.5819 C   0  0  1  0  0  0  0  0  0  0  0  0
   -3.0602    2.5684  -13.6949 C   0  0  0  0  0  0  0  0  0  0  0  0
   -2.3852    3.7453  -13.6731 F   0  0  0  0  0  0  0  0  0  0  0  0
   -2.1313    1.5887  -13.5407 F   0  0  0  0  0  0  0  0  0  0  0  0
   -3.6050    3.0235  -11.2051 C   0  0  0  0  0  0  0  0  0  0  0  0
   -4.7038    2.9112  -10.1351 C   0  0  0  0  0  0  0  0  0  0  0  0
   -5.0440    1.4526   -9.8745 C   0  0  0  0  0  0  0  0  0  0  0  0
   -3.8831    0.7672   -9.4085 O   0  0  0  0  0  0  0  0  0  0  0  0
   -2.7816    0.8091  -10.3158 C   0  0  0  0  0  0  0  0  0  0  0  0
   -2.3971    2.2391  -10.6806 C   0  0  0  0  0  0  0  0  0  0  0  0
   -7.6548    3.8959  -13.6111 C   0  0  1  0  0  0  0  0  0  0  0  0
   -7.4771    4.9770  -12.6307 N   0  0  0  0  0  0  0  0  0  0  0  0
   -7.9109    4.7989  -11.3006 C   0  0  0  0  0  0  0  0  0  0  0  0
   -7.7560    5.9040  -10.4326 C   0  0  0  0  0  0  0  0  0  0  0  0
   -7.9749    5.8045   -9.0545 C   0  0  0  0  0  0  0  0  0  0  0  0
   -8.3308    4.5754   -8.5398 C   0  0  0  0  0  0  0  0  0  0  0  0
   -8.5198    3.4811   -9.3720 C   0  0  0  0  0  0  0  0  0  0  0  0
   -8.3233    3.5745  -10.7451 C   0  0  0  0  0  0  0  0  0  0  0  0
   -8.9194    2.3012   -8.5472 C   0  0  0  0  0  0  0  0  0  0  0  0
   -8.6570    2.6954   -7.1351 N   0  0  0  0  0  0  0  0  0  0  0  0
   -8.5674    4.1723   -7.1257 C   0  0  0  0  0  0  0  0  0  0  0  0
   -7.5540    4.4410  -15.0325 C   0  0  0  0  0  0  0  0  0  0  0  0
   -8.6411    4.1646  -15.9182 C   0  0  0  0  0  0  0  0  0  0  0  0
   -8.7307    4.5467  -17.2810 C   0  0  0  0  0  0  0  0  0  0  0  0
  -10.1240    4.0795  -18.1792 Cl  0  0  0  0  0  0  0  0  0  0  0  0
   -7.7551    5.3080  -17.9165 C   0  0  0  0  0  0  0  0  0  0  0  0
   -6.6767    5.6624  -17.1074 C   0  0  0  0  0  0  0  0  0  0  0  0
   -5.6269    6.4379  -17.4324 N   0  0  0  0  0  0  0  0  0  0  0  0
   -4.8537    6.3824  -16.3498 N   0  0  0  0  0  0  0  0  0  0  0  0
   -3.6328    7.0121  -16.2903 F   0  0  0  0  0  0  0  0  0  0  0  0
   -5.3581    5.6546  -15.3249 C   0  0  0  0  0  0  0  0  0  0  0  0
   -4.7025    5.4055  -14.1970 F   0  0  0  0  0  0  0  0  0  0  0  0
   -6.5867    5.2072  -15.7220 C   0  0  0  0  0  0  0  0  0  0  0  0
  1  2  2  0
  2  3  1  0
  4  3  1  6
  4  5  1  0
  5  6  1  0
  5  7  1  0
  4  8  1  0
  8  9  1  0
  9 10  1  0
 10 11  1  0
 11 12  1  0
 12 13  1  0
  2 14  1  0
 14 15  1  1
 15 16  1  0
 16 17  2  0
 17 18  1  0
 18 19  2  0
 19 20  1  0
 20 21  2  0
 20 22  1  0
 22 23  1  0
 23 24  1  0
 14 25  1  0
 25 26  2  0
 26 27  1  0
 27 28  1  0
 27 29  2  0
 29 30  1  0
 30 31  2  0
 31 32  1  0
 32 33  1  0
 32 34  1  0
 34 35  1  0
 34 36  2  0
 13  8  1  0
 21 16  1  0
 36 25  1  0
 24 19  1  0
 36 30  1  0
M  END
>  <smiles>  (987) 
C105993-P157

>  <fragmenstein_outcome>  (987) 
acceptable

>  <inchikey>  (987) 
UBAVADLLUWQWBD-UHFFFAOYSA-N

>  <fragmenstein_mode>  (987) 
expansion

>  <HIPPO Pose ID>  (987) 
19691

>  <Energy>  (987) 
135.277211

>  <fragmenstein_error>  (987) 


>  <tags>  (987) 
{'openbind_xx01zvns2b_c1_fragmenstein', 'fragmenstein_placed'}

>  <ref_pdb>  (987) 
1

>  <scratch_subdir>  (987) 
/opt/xchem-fragalysis-2/maxwin/BulkDock/SCRATCH/511027/C105993-P157

>  <alias>  (987) 
O=C(N[C@@H](C(F)F)C1CCOCC1)[C@@H](Nc1ccc2c(c1)CNC2)c1cc(Cl)cc2nn(F)c(F)c12

>  <HIPPO Compound ID>  (987) 
92020

>  <fragmenstein_runtime>  (987) 
6.078071

$$$$
NCn1ncc2c([C@@](O)(Nc3ccc4c(c3)CNC4)C(=O)NCC3CCOCC3)cc(Cl)cc21
     RDKit          3D

 34 38  0  0  0  0  0  0  0  0999 V2000
   -2.8133    5.3077  -18.4923 N   0  0  0  0  0  0  0  0  0  0  0  0
   -4.2556    5.5473  -18.6754 C   0  0  0  0  0  0  0  0  0  0  0  0
   -4.8786    5.6411  -17.3517 N   0  0  0  0  0  0  0  0  0  0  0  0
   -4.1419    6.0956  -16.3048 N   0  0  0  0  0  0  0  0  0  0  0  0
   -4.8854    5.7661  -15.2503 C   0  0  0  0  0  0  0  0  0  0  0  0
   -6.1425    5.2133  -15.5997 C   0  0  0  0  0  0  0  0  0  0  0  0
   -7.2446    4.6786  -14.8776 C   0  0  0  0  0  0  0  0  0  0  0  0
   -7.1837    4.4041  -13.3676 C   0  0  1  0  0  0  0  0  0  0  0  0
   -6.3618    5.4236  -12.8011 O   0  0  0  0  0  0  0  0  0  0  0  0
   -8.5329    4.4870  -12.7481 N   0  0  0  0  0  0  0  0  0  0  0  0
   -8.5626    4.4157  -11.3284 C   0  0  0  0  0  0  0  0  0  0  0  0
   -8.4040    5.5946  -10.5639 C   0  0  0  0  0  0  0  0  0  0  0  0
   -8.3586    5.5591   -9.1674 C   0  0  0  0  0  0  0  0  0  0  0  0
   -8.5066    4.3337   -8.5471 C   0  0  0  0  0  0  0  0  0  0  0  0
   -8.6637    3.1655   -9.2863 C   0  0  0  0  0  0  0  0  0  0  0  0
   -8.6768    3.1841  -10.6706 C   0  0  0  0  0  0  0  0  0  0  0  0
   -8.7893    2.0060   -8.3530 C   0  0  0  0  0  0  0  0  0  0  0  0
   -9.0712    2.6155   -7.0230 N   0  0  0  0  0  0  0  0  0  0  0  0
   -8.5435    3.9965   -7.0952 C   0  0  0  0  0  0  0  0  0  0  0  0
   -6.5867    2.9215  -13.1034 C   0  0  0  0  0  0  0  0  0  0  0  0
   -7.1656    1.9381  -13.3676 O   0  0  0  0  0  0  0  0  0  0  0  0
   -5.2237    3.1260  -12.3745 N   0  0  0  0  0  0  0  0  0  0  0  0
   -4.3517    2.1750  -11.7446 C   0  0  0  0  0  0  0  0  0  0  0  0
   -2.9961    2.0187  -12.4368 C   0  0  0  0  0  0  0  0  0  0  0  0
   -2.2422    3.3472  -12.5652 C   0  0  0  0  0  0  0  0  0  0  0  0
   -0.8017    3.1672  -13.0456 C   0  0  0  0  0  0  0  0  0  0  0  0
   -0.4206    1.7928  -13.1366 O   0  0  0  0  0  0  0  0  0  0  0  0
   -0.6601    1.1258  -11.9000 C   0  0  0  0  0  0  0  0  0  0  0  0
   -2.1544    1.0057  -11.6387 C   0  0  0  0  0  0  0  0  0  0  0  0
   -8.3747    4.3319  -15.6622 C   0  0  0  0  0  0  0  0  0  0  0  0
   -8.3881    4.4521  -17.0544 C   0  0  0  0  0  0  0  0  0  0  0  0
   -9.7989    4.0004  -17.9367 Cl  0  0  0  0  0  0  0  0  0  0  0  0
   -7.2685    4.8934  -17.7540 C   0  0  0  0  0  0  0  0  0  0  0  0
   -6.1532    5.2609  -16.9947 C   0  0  0  0  0  0  0  0  0  0  0  0
  1  2  1  0
  2  3  1  0
  3  4  1  0
  4  5  2  0
  5  6  1  0
  6  7  2  0
  7  8  1  0
  8  9  1  1
  8 10  1  0
 10 11  1  0
 11 12  2  0
 12 13  1  0
 13 14  2  0
 14 15  1  0
 15 16  2  0
 15 17  1  0
 17 18  1  0
 18 19  1  0
  8 20  1  0
 20 21  2  0
 20 22  1  0
 22 23  1  0
 23 24  1  0
 24 25  1  0
 25 26  1  0
 26 27  1  0
 27 28  1  0
 28 29  1  0
  7 30  1  0
 30 31  2  0
 31 32  1  0
 31 33  1  0
 33 34  2  0
 34  3  1  0
 34  6  1  0
 16 11  1  0
 29 24  1  0
 19 14  1  0
M  END
>  <smiles>  (988) 
C106000-P157

>  <fragmenstein_outcome>  (988) 
acceptable

>  <inchikey>  (988) 
KEAULGAIXPGKFX-UHFFFAOYSA-N

>  <fragmenstein_mode>  (988) 
expansion

>  <HIPPO Pose ID>  (988) 
19692

>  <Energy>  (988) 
136.529174

>  <fragmenstein_error>  (988) 


>  <tags>  (988) 
{'openbind_xx01zvns2b_c1_fragmenstein', 'fragmenstein_placed'}

>  <ref_pdb>  (988) 
1

>  <scratch_subdir>  (988) 
/opt/xchem-fragalysis-2/maxwin/BulkDock/SCRATCH/511027/C106000-P157

>  <alias>  (988) 
NCn1ncc2c([C@@](O)(Nc3ccc4c(c3)CNC4)C(=O)NCC3CCOCC3)cc(Cl)cc21

>  <HIPPO Compound ID>  (988) 
70500

>  <fragmenstein_runtime>  (988) 
8.94051

$$$$
O=C(NCC1CCOCC1)[C@](O)(Nc1ccc2c(c1)CNC2)c1cc(Cl)c2scc3c2c1C=N3
     RDKit          3D

 34 39  0  0  0  0  0  0  0  0999 V2000
   -7.0987    1.9997  -13.2616 O   0  0  0  0  0  0  0  0  0  0  0  0
   -6.5323    2.9687  -12.9272 C   0  0  0  0  0  0  0  0  0  0  0  0
   -5.1966    3.1370  -12.1332 N   0  0  0  0  0  0  0  0  0  0  0  0
   -4.3492    2.1551  -11.5158 C   0  0  0  0  0  0  0  0  0  0  0  0
   -3.0603    1.9059  -12.3122 C   0  0  0  0  0  0  0  0  0  0  0  0
   -2.2385    3.1840  -12.5714 C   0  0  0  0  0  0  0  0  0  0  0  0
   -1.1682    3.3705  -11.5057 C   0  0  0  0  0  0  0  0  0  0  0  0
   -0.2160    2.3084  -11.4948 O   0  0  0  0  0  0  0  0  0  0  0  0
   -0.7338    1.0287  -11.8614 C   0  0  0  0  0  0  0  0  0  0  0  0
   -2.2122    0.8690  -11.5498 C   0  0  0  0  0  0  0  0  0  0  0  0
   -7.0452    4.4808  -13.2156 C   0  0  2  0  0  0  0  0  0  0  0  0
   -6.1711    5.4737  -12.6731 O   0  0  0  0  0  0  0  0  0  0  0  0
   -8.3691    4.7718  -12.6412 N   0  0  0  0  0  0  0  0  0  0  0  0
   -8.4811    4.6048  -11.2404 C   0  0  0  0  0  0  0  0  0  0  0  0
   -8.3450    5.7281  -10.3885 C   0  0  0  0  0  0  0  0  0  0  0  0
   -8.3480    5.5954   -8.9976 C   0  0  0  0  0  0  0  0  0  0  0  0
   -8.5179    4.3313   -8.4692 C   0  0  0  0  0  0  0  0  0  0  0  0
   -8.6560    3.2185   -9.2926 C   0  0  0  0  0  0  0  0  0  0  0  0
   -8.6281    3.3338  -10.6734 C   0  0  0  0  0  0  0  0  0  0  0  0
   -8.8132    1.9988   -8.4438 C   0  0  0  0  0  0  0  0  0  0  0  0
   -9.1296    2.5165   -7.0828 N   0  0  0  0  0  0  0  0  0  0  0  0
   -8.6016    3.8971   -7.0450 C   0  0  0  0  0  0  0  0  0  0  0  0
   -7.0429    4.7032  -14.7182 C   0  0  0  0  0  0  0  0  0  0  0  0
   -8.1440    4.4225  -15.5773 C   0  0  0  0  0  0  0  0  0  0  0  0
   -8.0602    4.4748  -17.0101 C   0  0  0  0  0  0  0  0  0  0  0  0
   -9.4339    4.1021  -17.9726 Cl  0  0  0  0  0  0  0  0  0  0  0  0
   -6.8193    4.7879  -17.5807 C   0  0  0  0  0  0  0  0  0  0  0  0
   -6.1177    4.8825  -19.1558 S   0  0  0  0  0  0  0  0  0  0  0  0
   -4.5278    5.3244  -18.5776 C   0  0  0  0  0  0  0  0  0  0  0  0
   -4.5631    5.3767  -17.2228 C   0  0  0  0  0  0  0  0  0  0  0  0
   -5.8094    5.0898  -16.7185 C   0  0  0  0  0  0  0  0  0  0  0  0
   -5.8784    5.0746  -15.3585 C   0  0  0  0  0  0  0  0  0  0  0  0
   -4.4625    5.4369  -15.0722 C   0  0  0  0  0  0  0  0  0  0  0  0
   -3.6852    5.6113  -16.1358 N   0  0  0  0  0  0  0  0  0  0  0  0
  1  2  2  0
  2  3  1  0
  3  4  1  0
  4  5  1  0
  5  6  1  0
  6  7  1  0
  7  8  1  0
  8  9  1  0
  9 10  1  0
  2 11  1  0
 11 12  1  1
 11 13  1  0
 13 14  1  0
 14 15  2  0
 15 16  1  0
 16 17  2  0
 17 18  1  0
 18 19  2  0
 18 20  1  0
 20 21  1  0
 21 22  1  0
 11 23  1  0
 23 24  2  0
 24 25  1  0
 25 26  1  0
 25 27  2  0
 27 28  1  0
 28 29  1  0
 29 30  2  0
 30 31  1  0
 31 32  2  0
 32 33  1  0
 33 34  2  0
 10  5  1  0
 19 14  1  0
 32 23  1  0
 22 17  1  0
 31 27  1  0
 34 30  1  0
M  END
>  <smiles>  (989) 
C106001-P157

>  <fragmenstein_outcome>  (989) 
acceptable

>  <inchikey>  (989) 
IALQIQPORUMQQR-UHFFFAOYSA-N

>  <fragmenstein_mode>  (989) 
expansion

>  <HIPPO Pose ID>  (989) 
19693

>  <Energy>  (989) 
142.908684

>  <fragmenstein_error>  (989) 


>  <tags>  (989) 
{'openbind_xx01zvns2b_c1_fragmenstein', 'fragmenstein_placed'}

>  <ref_pdb>  (989) 
1

>  <scratch_subdir>  (989) 
/opt/xchem-fragalysis-2/maxwin/BulkDock/SCRATCH/511027/C106001-P157

>  <alias>  (989) 
O=C(NCC1CCOCC1)[C@](O)(Nc1ccc2c(c1)CNC2)c1cc(Cl)c2scc3c2c1C=N3

>  <HIPPO Compound ID>  (989) 
106001

>  <fragmenstein_runtime>  (989) 
5.165082

$$$$
N#Cc1csc2cc([C@](O)(Nc3ccc4c(c3)CNC4)C(=O)NCC3CCOCC3)c3c[nH]nc3c12
     RDKit          3D

 36 41  0  0  0  0  0  0  0  0999 V2000
   -4.7983    5.2760  -19.9391 N   0  0  0  0  0  0  0  0  0  0  0  0
   -5.8058    5.0381  -19.4106 C   0  0  0  0  0  0  0  0  0  0  0  0
   -7.0163    4.7312  -18.7081 C   0  0  0  0  0  0  0  0  0  0  0  0
   -8.0779    4.0257  -19.2393 C   0  0  0  0  0  0  0  0  0  0  0  0
   -9.4107    3.8841  -18.1723 S   0  0  0  0  0  0  0  0  0  0  0  0
   -8.4494    4.4589  -16.8752 C   0  0  0  0  0  0  0  0  0  0  0  0
   -8.7235    4.3752  -15.5036 C   0  0  0  0  0  0  0  0  0  0  0  0
   -7.7852    4.7340  -14.4974 C   0  0  0  0  0  0  0  0  0  0  0  0
   -7.9711    4.1736  -13.0951 C   0  0  2  0  0  0  0  0  0  0  0  0
   -9.3531    3.9328  -12.9663 O   0  0  0  0  0  0  0  0  0  0  0  0
   -7.6597    5.1814  -12.0866 N   0  0  0  0  0  0  0  0  0  0  0  0
   -8.0011    4.9122  -10.7389 C   0  0  0  0  0  0  0  0  0  0  0  0
   -7.8603    5.9756   -9.8235 C   0  0  0  0  0  0  0  0  0  0  0  0
   -8.0707    5.7967   -8.4534 C   0  0  0  0  0  0  0  0  0  0  0  0
   -8.4044    4.5347   -8.0043 C   0  0  0  0  0  0  0  0  0  0  0  0
   -8.5558    3.4783   -8.8879 C   0  0  0  0  0  0  0  0  0  0  0  0
   -8.3542    3.6455  -10.2436 C   0  0  0  0  0  0  0  0  0  0  0  0
   -8.9541    2.2496   -8.1444 C   0  0  0  0  0  0  0  0  0  0  0  0
   -8.7126    2.5727   -6.7118 N   0  0  0  0  0  0  0  0  0  0  0  0
   -8.6761    4.0514   -6.6234 C   0  0  0  0  0  0  0  0  0  0  0  0
   -7.0224    2.8495  -12.9579 C   0  0  0  0  0  0  0  0  0  0  0  0
   -7.3549    1.8028  -13.3645 O   0  0  0  0  0  0  0  0  0  0  0  0
   -5.7373    3.2697  -12.1877 N   0  0  0  0  0  0  0  0  0  0  0  0
   -4.6490    2.4738  -11.6797 C   0  0  0  0  0  0  0  0  0  0  0  0
   -3.4833    2.3058  -12.6713 C   0  0  0  0  0  0  0  0  0  0  0  0
   -2.8723    3.6378  -13.1086 C   0  0  0  0  0  0  0  0  0  0  0  0
   -2.2394    4.3909  -11.9403 C   0  0  0  0  0  0  0  0  0  0  0  0
   -1.8341    3.5382  -10.8708 O   0  0  0  0  0  0  0  0  0  0  0  0
   -1.3076    2.2940  -11.3162 C   0  0  0  0  0  0  0  0  0  0  0  0
   -2.3690    1.4564  -12.0316 C   0  0  0  0  0  0  0  0  0  0  0  0
   -6.7223    5.4380  -15.0710 C   0  0  0  0  0  0  0  0  0  0  0  0
   -5.6772    6.0641  -14.4362 C   0  0  0  0  0  0  0  0  0  0  0  0
   -4.8792    6.5868  -15.4299 N   0  0  0  0  0  0  0  0  0  0  0  0
   -5.3202    6.3178  -16.6758 N   0  0  0  0  0  0  0  0  0  0  0  0
   -6.4226    5.6324  -16.4302 C   0  0  0  0  0  0  0  0  0  0  0  0
   -7.2811    4.9952  -17.3670 C   0  0  0  0  0  0  0  0  0  0  0  0
  1  2  3  0
  2  3  1  0
  3  4  2  0
  4  5  1  0
  5  6  1  0
  6  7  1  0
  7  8  2  0
  8  9  1  0
  9 10  1  6
  9 11  1  0
 11 12  1  0
 12 13  2  0
 13 14  1  0
 14 15  2  0
 15 16  1  0
 16 17  2  0
 16 18  1  0
 18 19  1  0
 19 20  1  0
  9 21  1  0
 21 22  2  0
 21 23  1  0
 23 24  1  0
 24 25  1  0
 25 26  1  0
 26 27  1  0
 27 28  1  0
 28 29  1  0
 29 30  1  0
  8 31  1  0
 31 32  2  0
 32 33  1  0
 33 34  1  0
 34 35  2  0
 35 36  1  0
 36  3  1  0
 36  6  2  0
 17 12  1  0
 30 25  1  0
 35 31  1  0
 20 15  1  0
M  END
>  <smiles>  (990) 
C106002-P157

>  <fragmenstein_outcome>  (990) 
acceptable

>  <inchikey>  (990) 
NTZYJEFQXXPWJO-UHFFFAOYSA-N

>  <fragmenstein_mode>  (990) 
expansion

>  <HIPPO Pose ID>  (990) 
19694

>  <Energy>  (990) 
127.582396

>  <fragmenstein_error>  (990) 


>  <tags>  (990) 
{'openbind_xx01zvns2b_c1_fragmenstein', 'fragmenstein_placed'}

>  <ref_pdb>  (990) 
1

>  <scratch_subdir>  (990) 
/opt/xchem-fragalysis-2/maxwin/BulkDock/SCRATCH/511027/C106002-P157

>  <alias>  (990) 
N#Cc1csc2cc([C@](O)(Nc3ccc4c(c3)CNC4)C(=O)NCC3CCOCC3)c3c[nH]nc3c12

>  <HIPPO Compound ID>  (990) 
106002

>  <fragmenstein_runtime>  (990) 
8.185483

$$$$
O=C(NCC1CCOCC1)[C@@H](Nc1ccc2c(c1)CNC2)c1cc(Cl)c2[nH]c(=O)n3ncc1c23
     RDKit          3D

 34 39  0  0  0  0  0  0  0  0999 V2000
   -7.1237    1.5963  -13.5372 O   0  0  0  0  0  0  0  0  0  0  0  0
   -6.8558    2.6643  -13.1512 C   0  0  0  0  0  0  0  0  0  0  0  0
   -5.6077    3.1711  -12.3912 N   0  0  0  0  0  0  0  0  0  0  0  0
   -4.4780    2.4523  -11.8670 C   0  0  0  0  0  0  0  0  0  0  0  0
   -3.1782    3.2418  -11.9490 C   0  0  0  0  0  0  0  0  0  0  0  0
   -2.6838    3.4480  -13.3779 C   0  0  0  0  0  0  0  0  0  0  0  0
   -1.4258    4.3202  -13.3728 C   0  0  0  0  0  0  0  0  0  0  0  0
   -0.6402    4.1869  -12.1850 O   0  0  0  0  0  0  0  0  0  0  0  0
   -0.6783    2.8706  -11.6449 C   0  0  0  0  0  0  0  0  0  0  0  0
   -2.0770    2.5499  -11.1257 C   0  0  0  0  0  0  0  0  0  0  0  0
   -7.8141    3.8904  -13.3774 C   0  0  1  0  0  0  0  0  0  0  0  0
   -7.6461    4.9580  -12.3718 N   0  0  0  0  0  0  0  0  0  0  0  0
   -8.0495    4.7234  -11.0406 C   0  0  0  0  0  0  0  0  0  0  0  0
   -7.9609    5.8140  -10.1464 C   0  0  0  0  0  0  0  0  0  0  0  0
   -8.1847    5.6661   -8.7731 C   0  0  0  0  0  0  0  0  0  0  0  0
   -8.4925    4.4083   -8.2960 C   0  0  0  0  0  0  0  0  0  0  0  0
   -8.5837    3.3223   -9.1551 C   0  0  0  0  0  0  0  0  0  0  0  0
   -8.3646    3.4591  -10.5168 C   0  0  0  0  0  0  0  0  0  0  0  0
   -8.8644    2.0871   -8.3624 C   0  0  0  0  0  0  0  0  0  0  0  0
   -9.2928    2.5801   -7.0245 N   0  0  0  0  0  0  0  0  0  0  0  0
   -8.7256    3.9418   -6.8995 C   0  0  0  0  0  0  0  0  0  0  0  0
   -7.6311    4.4704  -14.7770 C   0  0  0  0  0  0  0  0  0  0  0  0
   -8.5979    4.1216  -15.8082 C   0  0  0  0  0  0  0  0  0  0  0  0
   -8.5050    4.4962  -17.1710 C   0  0  0  0  0  0  0  0  0  0  0  0
   -9.7266    4.0485  -18.2805 Cl  0  0  0  0  0  0  0  0  0  0  0  0
   -7.4285    5.2500  -17.5331 C   0  0  0  0  0  0  0  0  0  0  0  0
   -6.8594    5.8960  -18.6425 N   0  0  0  0  0  0  0  0  0  0  0  0
   -5.6994    6.6445  -18.2709 C   0  0  0  0  0  0  0  0  0  0  0  0
   -4.9796    7.4044  -18.8889 O   0  0  0  0  0  0  0  0  0  0  0  0
   -5.5807    6.3646  -16.8955 N   0  0  0  0  0  0  0  0  0  0  0  0
   -4.8095    6.7118  -15.8499 N   0  0  0  0  0  0  0  0  0  0  0  0
   -5.4060    6.0273  -14.8278 C   0  0  0  0  0  0  0  0  0  0  0  0
   -6.5773    5.3010  -15.2134 C   0  0  0  0  0  0  0  0  0  0  0  0
   -6.5939    5.5804  -16.5285 C   0  0  0  0  0  0  0  0  0  0  0  0
  1  2  2  0
  2  3  1  0
  3  4  1  0
  4  5  1  0
  5  6  1  0
  6  7  1  0
  7  8  1  0
  8  9  1  0
  9 10  1  0
  2 11  1  0
 11 12  1  1
 12 13  1  0
 13 14  2  0
 14 15  1  0
 15 16  2  0
 16 17  1  0
 17 18  2  0
 17 19  1  0
 19 20  1  0
 20 21  1  0
 11 22  1  0
 22 23  2  0
 23 24  1  0
 24 25  1  0
 24 26  2  0
 26 27  1  0
 27 28  1  0
 28 29  2  0
 28 30  1  0
 30 31  1  0
 31 32  2  0
 32 33  1  0
 33 34  2  0
 10  5  1  0
 18 13  1  0
 33 22  1  0
 21 16  1  0
 34 26  1  0
 34 30  1  0
M  END
>  <smiles>  (991) 
C106006-P157

>  <fragmenstein_outcome>  (991) 
acceptable

>  <inchikey>  (991) 
MTRYZIOUZHDMNO-UHFFFAOYSA-N

>  <fragmenstein_mode>  (991) 
expansion

>  <HIPPO Pose ID>  (991) 
19696

>  <Energy>  (991) 
194.267386

>  <fragmenstein_error>  (991) 


>  <tags>  (991) 
{'openbind_xx01zvns2b_c1_fragmenstein', 'fragmenstein_placed'}

>  <ref_pdb>  (991) 
1

>  <scratch_subdir>  (991) 
/opt/xchem-fragalysis-2/maxwin/BulkDock/SCRATCH/511027/C106006-P157

>  <alias>  (991) 
O=C(NCC1CCOCC1)[C@@H](Nc1ccc2c(c1)CNC2)c1cc(Cl)c2[nH]c(=O)n3ncc1c23

>  <HIPPO Compound ID>  (991) 
106006

>  <fragmenstein_runtime>  (991) 
12.064529

$$$$
CNCn1ncc2c([C@@](O)(Nc3ccc4c(c3)CNC4)C(=O)NCC3CCOCC3)cc(Cl)cc21
     RDKit          3D

 35 39  0  0  0  0  0  0  0  0999 V2000
   -2.9968    5.3830  -21.2285 C   0  0  0  0  0  0  0  0  0  0  0  0
   -3.5168    5.9134  -19.9716 N   0  0  0  0  0  0  0  0  0  0  0  0
   -4.1879    4.8551  -19.2015 C   0  0  0  0  0  0  0  0  0  0  0  0
   -4.7387    5.3668  -17.9144 N   0  0  0  0  0  0  0  0  0  0  0  0
   -3.8805    5.7840  -16.9451 N   0  0  0  0  0  0  0  0  0  0  0  0
   -4.5750    5.6265  -15.8149 C   0  0  0  0  0  0  0  0  0  0  0  0
   -5.9197    5.2264  -16.0194 C   0  0  0  0  0  0  0  0  0  0  0  0
   -7.0289    4.8937  -15.1732 C   0  0  0  0  0  0  0  0  0  0  0  0
   -6.9296    4.7913  -13.6267 C   0  0  1  0  0  0  0  0  0  0  0  0
   -6.1508    5.9038  -13.1727 O   0  0  0  0  0  0  0  0  0  0  0  0
   -8.2572    4.9613  -12.9877 N   0  0  0  0  0  0  0  0  0  0  0  0
   -8.2974    4.8010  -11.5787 C   0  0  0  0  0  0  0  0  0  0  0  0
   -8.0765    5.9114  -10.7333 C   0  0  0  0  0  0  0  0  0  0  0  0
   -8.0920    5.7880   -9.3389 C   0  0  0  0  0  0  0  0  0  0  0  0
   -8.3359    4.5413   -8.7978 C   0  0  0  0  0  0  0  0  0  0  0  0
   -8.5319    3.4316   -9.6140 C   0  0  0  0  0  0  0  0  0  0  0  0
   -8.5014    3.5390  -11.0001 C   0  0  0  0  0  0  0  0  0  0  0  0
   -8.7440    2.2306   -8.7476 C   0  0  0  0  0  0  0  0  0  0  0  0
   -9.0380    2.7771   -7.3926 N   0  0  0  0  0  0  0  0  0  0  0  0
   -8.4266    4.1207   -7.3690 C   0  0  0  0  0  0  0  0  0  0  0  0
   -6.2615    3.3676  -13.2457 C   0  0  0  0  0  0  0  0  0  0  0  0
   -6.5289    2.3526  -13.7626 O   0  0  0  0  0  0  0  0  0  0  0  0
   -5.2814    3.6758  -12.0742 N   0  0  0  0  0  0  0  0  0  0  0  0
   -4.3694    2.8176  -11.3718 C   0  0  0  0  0  0  0  0  0  0  0  0
   -3.2952    2.2244  -12.2938 C   0  0  0  0  0  0  0  0  0  0  0  0
   -2.4244    3.3038  -12.9611 C   0  0  0  0  0  0  0  0  0  0  0  0
   -1.0649    3.4179  -12.2879 C   0  0  0  0  0  0  0  0  0  0  0  0
   -0.3227    2.2010  -12.3352 O   0  0  0  0  0  0  0  0  0  0  0  0
   -1.0971    1.0107  -12.1759 C   0  0  0  0  0  0  0  0  0  0  0  0
   -2.4328    1.2371  -11.4902 C   0  0  0  0  0  0  0  0  0  0  0  0
   -8.2305    4.5474  -15.8386 C   0  0  0  0  0  0  0  0  0  0  0  0
   -8.3298    4.5473  -17.2307 C   0  0  0  0  0  0  0  0  0  0  0  0
   -9.8306    4.1440  -17.9723 Cl  0  0  0  0  0  0  0  0  0  0  0  0
   -7.2367    4.8489  -18.0463 C   0  0  0  0  0  0  0  0  0  0  0  0
   -6.0260    5.1636  -17.4155 C   0  0  0  0  0  0  0  0  0  0  0  0
  1  2  1  0
  2  3  1  0
  3  4  1  0
  4  5  1  0
  5  6  2  0
  6  7  1  0
  7  8  2  0
  8  9  1  0
  9 10  1  1
  9 11  1  0
 11 12  1  0
 12 13  2  0
 13 14  1  0
 14 15  2  0
 15 16  1  0
 16 17  2  0
 16 18  1  0
 18 19  1  0
 19 20  1  0
  9 21  1  0
 21 22  2  0
 21 23  1  0
 23 24  1  0
 24 25  1  0
 25 26  1  0
 26 27  1  0
 27 28  1  0
 28 29  1  0
 29 30  1  0
  8 31  1  0
 31 32  2  0
 32 33  1  0
 32 34  1  0
 34 35  2  0
 35  4  1  0
 35  7  1  0
 17 12  1  0
 30 25  1  0
 20 15  1  0
M  END
>  <smiles>  (992) 
C106003-P51

>  <fragmenstein_outcome>  (992) 
acceptable

>  <inchikey>  (992) 
CDHZOXPYWUBNFE-UHFFFAOYSA-N

>  <fragmenstein_mode>  (992) 
expansion

>  <HIPPO Pose ID>  (992) 
19700

>  <Energy>  (992) 
144.437931

>  <fragmenstein_error>  (992) 


>  <tags>  (992) 
{'openbind_xx01zvns2b_c1_fragmenstein', 'fragmenstein_placed'}

>  <ref_pdb>  (992) 
1

>  <scratch_subdir>  (992) 
/opt/xchem-fragalysis-2/maxwin/BulkDock/SCRATCH/511027/C106003-P51

>  <alias>  (992) 
CNCn1ncc2c([C@@](O)(Nc3ccc4c(c3)CNC4)C(=O)NCC3CCOCC3)cc(Cl)cc21

>  <HIPPO Compound ID>  (992) 
88923

>  <fragmenstein_runtime>  (992) 
17.692033

$$$$
CNCn1ncc2c([C@@](O)(N[C@@H]3CC4=C(CNC4)C[C@]34CCCC4=O)C(=O)NCC3CCOCC3)cc(Cl)cc21
     RDKit          3D

 40 45  0  0  0  0  0  0  0  0999 V2000
   -4.0898    6.4761  -21.0879 C   0  0  0  0  0  0  0  0  0  0  0  0
   -4.3425    6.1083  -19.7026 N   0  0  0  0  0  0  0  0  0  0  0  0
   -5.3087    7.0345  -19.1067 C   0  0  0  0  0  0  0  0  0  0  0  0
   -5.4992    6.6693  -17.7030 N   0  0  0  0  0  0  0  0  0  0  0  0
   -4.6833    7.1975  -16.7657 N   0  0  0  0  0  0  0  0  0  0  0  0
   -5.0912    6.6128  -15.6405 C   0  0  0  0  0  0  0  0  0  0  0  0
   -6.2283    5.7803  -15.8129 C   0  0  0  0  0  0  0  0  0  0  0  0
   -7.0389    4.9600  -14.9724 C   0  0  0  0  0  0  0  0  0  0  0  0
   -6.6968    4.6506  -13.5058 C   0  0  1  0  0  0  0  0  0  0  0  0
   -5.6943    5.5840  -13.1510 O   0  0  0  0  0  0  0  0  0  0  0  0
   -7.8364    4.8874  -12.6066 N   0  0  0  0  0  0  0  0  0  0  0  0
   -7.5559    4.6220  -11.1641 C   0  0  2  0  0  0  0  0  0  0  0  0
   -8.5481    3.5368  -10.6669 C   0  0  0  0  0  0  0  0  0  0  0  0
   -8.6225    3.4530   -9.1855 C   0  0  0  0  0  0  0  0  0  0  0  0
   -8.0963    4.3348   -8.3410 C   0  0  0  0  0  0  0  0  0  0  0  0
   -8.3717    3.9510   -6.9371 C   0  0  0  0  0  0  0  0  0  0  0  0
   -8.9774    2.6095   -7.0086 N   0  0  0  0  0  0  0  0  0  0  0  0
   -9.2795    2.3520   -8.4391 C   0  0  0  0  0  0  0  0  0  0  0  0
   -7.3148    5.5245   -8.7395 C   0  0  0  0  0  0  0  0  0  0  0  0
   -7.4947    5.8949  -10.2372 C   0  0  2  0  0  0  0  0  0  0  0  0
   -8.6386    6.9133  -10.4108 C   0  0  0  0  0  0  0  0  0  0  0  0
   -8.0251    8.2841  -10.1385 C   0  0  0  0  0  0  0  0  0  0  0  0
   -6.6445    8.2141  -10.7630 C   0  0  0  0  0  0  0  0  0  0  0  0
   -6.2908    6.7643  -10.5735 C   0  0  0  0  0  0  0  0  0  0  0  0
   -5.1498    6.3286  -10.7044 O   0  0  0  0  0  0  0  0  0  0  0  0
   -6.1669    3.1336  -13.4235 C   0  0  0  0  0  0  0  0  0  0  0  0
   -6.8524    2.1910  -13.3149 O   0  0  0  0  0  0  0  0  0  0  0  0
   -4.6102    3.2512  -13.4798 N   0  0  0  0  0  0  0  0  0  0  0  0
   -3.5956    2.2515  -13.3194 C   0  0  0  0  0  0  0  0  0  0  0  0
   -2.9079    2.3501  -11.9585 C   0  0  0  0  0  0  0  0  0  0  0  0
   -1.8467    1.2596  -11.7951 C   0  0  0  0  0  0  0  0  0  0  0  0
   -1.1234    1.3908  -10.4536 C   0  0  0  0  0  0  0  0  0  0  0  0
   -1.8735    2.1209   -9.4813 O   0  0  0  0  0  0  0  0  0  0  0  0
   -3.2554    1.7682   -9.5117 C   0  0  0  0  0  0  0  0  0  0  0  0
   -3.9064    2.2744  -10.7922 C   0  0  0  0  0  0  0  0  0  0  0  0
   -8.1641    4.3516  -15.5862 C   0  0  0  0  0  0  0  0  0  0  0  0
   -8.4250    4.4977  -16.9480 C   0  0  0  0  0  0  0  0  0  0  0  0
   -9.8069    3.7793  -17.6750 Cl  0  0  0  0  0  0  0  0  0  0  0  0
   -7.5757    5.2273  -17.7710 C   0  0  0  0  0  0  0  0  0  0  0  0
   -6.4950    5.8768  -17.1766 C   0  0  0  0  0  0  0  0  0  0  0  0
  1  2  1  0
  2  3  1  0
  3  4  1  0
  4  5  1  0
  5  6  2  0
  6  7  1  0
  7  8  2  0
  8  9  1  0
  9 10  1  1
  9 11  1  0
 12 11  1  6
 12 13  1  0
 13 14  1  0
 14 15  2  0
 15 16  1  0
 16 17  1  0
 17 18  1  0
 15 19  1  0
 20 19  1  1
 20 21  1  0
 21 22  1  0
 22 23  1  0
 23 24  1  0
 24 25  2  0
  9 26  1  0
 26 27  2  0
 26 28  1  0
 28 29  1  0
 29 30  1  0
 30 31  1  0
 31 32  1  0
 32 33  1  0
 33 34  1  0
 34 35  1  0
  8 36  1  0
 36 37  2  0
 37 38  1  0
 37 39  1  0
 39 40  2  0
 40  4  1  0
 40  7  1  0
 20 12  1  0
 35 30  1  0
 18 14  1  0
 24 20  1  0
M  END
>  <smiles>  (993) 
C106030-P157

>  <fragmenstein_outcome>  (993) 
acceptable

>  <inchikey>  (993) 
YYELXZFGKVCROD-UHFFFAOYSA-N

>  <fragmenstein_mode>  (993) 
expansion

>  <HIPPO Pose ID>  (993) 
19705

>  <Energy>  (993) 
128.352371

>  <fragmenstein_error>  (993) 


>  <tags>  (993) 
{'openbind_xx01zvns2b_c1_fragmenstein', 'fragmenstein_placed'}

>  <ref_pdb>  (993) 
1

>  <scratch_subdir>  (993) 
/opt/xchem-fragalysis-2/maxwin/BulkDock/SCRATCH/511027/C106030-P157

>  <alias>  (993) 
CNCn1ncc2c([C@@](O)(N[C@@H]3CC4=C(CNC4)C[C@]34CCCC4=O)C(=O)NCC3CCOCC3)cc(Cl)cc21

>  <HIPPO Compound ID>  (993) 
78389

>  <fragmenstein_runtime>  (993) 
6.694853

$$$$
Cn1cc2c([C@@](O)(Nc3ccc4c(c3)CNC4)C(=O)NCC3CCOCC3)cc(Cl)cc2n1
     RDKit          3D

 33 37  0  0  0  0  0  0  0  0999 V2000
   -2.8673    5.6907  -16.5282 C   0  0  0  0  0  0  0  0  0  0  0  0
   -4.2588    5.3192  -16.4728 N   0  0  0  0  0  0  0  0  0  0  0  0
   -4.9378    5.0050  -15.3402 C   0  0  0  0  0  0  0  0  0  0  0  0
   -6.2257    4.7772  -15.7375 C   0  0  0  0  0  0  0  0  0  0  0  0
   -7.2926    4.4435  -14.8895 C   0  0  0  0  0  0  0  0  0  0  0  0
   -7.2140    4.2457  -13.3826 C   0  0  1  0  0  0  0  0  0  0  0  0
   -6.4129    5.3222  -12.8948 O   0  0  0  0  0  0  0  0  0  0  0  0
   -8.5566    4.3456  -12.7555 N   0  0  0  0  0  0  0  0  0  0  0  0
   -8.5822    4.3067  -11.3356 C   0  0  0  0  0  0  0  0  0  0  0  0
   -8.4329    5.5022  -10.5937 C   0  0  0  0  0  0  0  0  0  0  0  0
   -8.3811    5.4963   -9.1970 C   0  0  0  0  0  0  0  0  0  0  0  0
   -8.5195    4.2832   -8.5520 C   0  0  0  0  0  0  0  0  0  0  0  0
   -8.6727    3.1004   -9.2679 C   0  0  0  0  0  0  0  0  0  0  0  0
   -8.6873    3.0904  -10.6521 C   0  0  0  0  0  0  0  0  0  0  0  0
   -8.7926    1.9592   -8.3121 C   0  0  0  0  0  0  0  0  0  0  0  0
   -9.0710    2.5927   -6.9932 N   0  0  0  0  0  0  0  0  0  0  0  0
   -8.5519    3.9749   -7.0936 C   0  0  0  0  0  0  0  0  0  0  0  0
   -6.5757    2.7921  -13.0508 C   0  0  0  0  0  0  0  0  0  0  0  0
   -7.0830    1.7797  -13.3528 O   0  0  0  0  0  0  0  0  0  0  0  0
   -5.2906    3.0672  -12.2071 N   0  0  0  0  0  0  0  0  0  0  0  0
   -4.3265    2.1563  -11.6505 C   0  0  0  0  0  0  0  0  0  0  0  0
   -3.0745    2.0144  -12.5304 C   0  0  0  0  0  0  0  0  0  0  0  0
   -2.2856    3.3274  -12.6624 C   0  0  0  0  0  0  0  0  0  0  0  0
   -1.5422    3.6776  -11.3772 C   0  0  0  0  0  0  0  0  0  0  0  0
   -0.6821    2.6112  -10.9843 O   0  0  0  0  0  0  0  0  0  0  0  0
   -1.4036    1.4081  -10.7082 C   0  0  0  0  0  0  0  0  0  0  0  0
   -2.1391    0.9366  -11.9561 C   0  0  0  0  0  0  0  0  0  0  0  0
   -8.4639    4.2791  -15.6889 C   0  0  0  0  0  0  0  0  0  0  0  0
   -8.5143    4.4128  -17.1175 C   0  0  0  0  0  0  0  0  0  0  0  0
  -10.0132    4.1155  -17.9266 Cl  0  0  0  0  0  0  0  0  0  0  0  0
   -7.4099    4.7562  -17.9124 C   0  0  0  0  0  0  0  0  0  0  0  0
   -6.2384    4.9489  -17.1735 C   0  0  0  0  0  0  0  0  0  0  0  0
   -5.0058    5.3002  -17.5933 N   0  0  0  0  0  0  0  0  0  0  0  0
  1  2  1  0
  2  3  1  0
  3  4  2  0
  4  5  1  0
  5  6  1  0
  6  7  1  1
  6  8  1  0
  8  9  1  0
  9 10  2  0
 10 11  1  0
 11 12  2  0
 12 13  1  0
 13 14  2  0
 13 15  1  0
 15 16  1  0
 16 17  1  0
  6 18  1  0
 18 19  2  0
 18 20  1  0
 20 21  1  0
 21 22  1  0
 22 23  1  0
 23 24  1  0
 24 25  1  0
 25 26  1  0
 26 27  1  0
  5 28  2  0
 28 29  1  0
 29 30  1  0
 29 31  2  0
 31 32  1  0
 32 33  2  0
 33  2  1  0
 32  4  1  0
 14  9  1  0
 27 22  1  0
 17 12  1  0
M  END
>  <smiles>  (994) 
C102339-P157

>  <fragmenstein_outcome>  (994) 
acceptable

>  <inchikey>  (994) 
ZEJHYCDLHUORLO-UHFFFAOYSA-N

>  <fragmenstein_mode>  (994) 
expansion

>  <HIPPO Pose ID>  (994) 
19709

>  <Energy>  (994) 
92.491367

>  <fragmenstein_error>  (994) 


>  <tags>  (994) 
{'openbind_xx01zvns2b_c1_fragmenstein', 'fragmenstein_placed'}

>  <ref_pdb>  (994) 
1

>  <scratch_subdir>  (994) 
/opt/xchem-fragalysis-2/maxwin/BulkDock/SCRATCH/511027/C102339-P157

>  <alias>  (994) 
Cn1cc2c([C@@](O)(Nc3ccc4c(c3)CNC4)C(=O)NCC3CCOCC3)cc(Cl)cc2n1

>  <HIPPO Compound ID>  (994) 
102339

>  <fragmenstein_runtime>  (994) 
6.891598

$$$$
NCn1cc2c([C@@](O)(Nc3ccc4c(c3)CNC4)C(=O)NCC3CCOCC3)cc(Cl)cc2n1
     RDKit          3D

 34 38  0  0  0  0  0  0  0  0999 V2000
   -3.2864    4.7723  -18.7124 N   0  0  0  0  0  0  0  0  0  0  0  0
   -3.3127    5.5006  -17.4346 C   0  0  0  0  0  0  0  0  0  0  0  0
   -4.6959    5.5273  -16.9903 N   0  0  0  0  0  0  0  0  0  0  0  0
   -5.1916    5.1756  -15.7695 C   0  0  0  0  0  0  0  0  0  0  0  0
   -6.5248    4.9342  -15.9913 C   0  0  0  0  0  0  0  0  0  0  0  0
   -7.4726    4.4807  -15.0587 C   0  0  0  0  0  0  0  0  0  0  0  0
   -7.2865    4.2952  -13.5586 C   0  0  1  0  0  0  0  0  0  0  0  0
   -6.4908    5.3995  -13.1415 O   0  0  0  0  0  0  0  0  0  0  0  0
   -8.5860    4.4179  -12.8524 N   0  0  0  0  0  0  0  0  0  0  0  0
   -8.5073    4.3961  -11.4302 C   0  0  0  0  0  0  0  0  0  0  0  0
   -8.2528    5.5810  -10.7058 C   0  0  0  0  0  0  0  0  0  0  0  0
   -8.1865    5.5841   -9.3088 C   0  0  0  0  0  0  0  0  0  0  0  0
   -8.3819    4.3891   -8.6454 C   0  0  0  0  0  0  0  0  0  0  0  0
   -8.6287    3.2141   -9.3427 C   0  0  0  0  0  0  0  0  0  0  0  0
   -8.6835    3.1953  -10.7274 C   0  0  0  0  0  0  0  0  0  0  0  0
   -8.8567    2.0999   -8.3778 C   0  0  0  0  0  0  0  0  0  0  0  0
   -8.5101    2.6488   -7.0364 N   0  0  0  0  0  0  0  0  0  0  0  0
   -8.4409    4.1192   -7.1829 C   0  0  0  0  0  0  0  0  0  0  0  0
   -6.6239    2.8717  -13.2192 C   0  0  0  0  0  0  0  0  0  0  0  0
   -7.1072    1.8426  -13.4947 O   0  0  0  0  0  0  0  0  0  0  0  0
   -5.3126    3.1947  -12.4464 N   0  0  0  0  0  0  0  0  0  0  0  0
   -4.3848    2.3234  -11.7774 C   0  0  0  0  0  0  0  0  0  0  0  0
   -3.1144    2.0947  -12.6115 C   0  0  0  0  0  0  0  0  0  0  0  0
   -2.3083    3.3864  -12.8239 C   0  0  0  0  0  0  0  0  0  0  0  0
   -1.5986    3.8264  -11.5477 C   0  0  0  0  0  0  0  0  0  0  0  0
   -0.7599    2.7841  -11.0532 O   0  0  0  0  0  0  0  0  0  0  0  0
   -1.4994    1.6088  -10.7105 C   0  0  0  0  0  0  0  0  0  0  0  0
   -2.2084    1.0508  -11.9379 C   0  0  0  0  0  0  0  0  0  0  0  0
   -8.6987    4.2358  -15.7580 C   0  0  0  0  0  0  0  0  0  0  0  0
   -8.9045    4.3963  -17.1646 C   0  0  0  0  0  0  0  0  0  0  0  0
  -10.4191    4.0136  -17.8852 Cl  0  0  0  0  0  0  0  0  0  0  0  0
   -7.9326    4.8758  -18.0301 C   0  0  0  0  0  0  0  0  0  0  0  0
   -6.7360    5.1730  -17.3993 C   0  0  0  0  0  0  0  0  0  0  0  0
   -5.6383    5.7188  -17.9287 N   0  0  0  0  0  0  0  0  0  0  0  0
  1  2  1  0
  2  3  1  0
  3  4  1  0
  4  5  2  0
  5  6  1  0
  6  7  1  0
  7  8  1  1
  7  9  1  0
  9 10  1  0
 10 11  2  0
 11 12  1  0
 12 13  2  0
 13 14  1  0
 14 15  2  0
 14 16  1  0
 16 17  1  0
 17 18  1  0
  7 19  1  0
 19 20  2  0
 19 21  1  0
 21 22  1  0
 22 23  1  0
 23 24  1  0
 24 25  1  0
 25 26  1  0
 26 27  1  0
 27 28  1  0
  6 29  2  0
 29 30  1  0
 30 31  1  0
 30 32  2  0
 32 33  1  0
 33 34  2  0
 34  3  1  0
 33  5  1  0
 15 10  1  0
 28 23  1  0
 18 13  1  0
M  END
>  <smiles>  (995) 
C106046-P157

>  <fragmenstein_outcome>  (995) 
acceptable

>  <inchikey>  (995) 
ZMJHAVFEGYPWNV-UHFFFAOYSA-N

>  <fragmenstein_mode>  (995) 
expansion

>  <HIPPO Pose ID>  (995) 
19710

>  <Energy>  (995) 
119.010888

>  <fragmenstein_error>  (995) 


>  <tags>  (995) 
{'openbind_xx01zvns2b_c1_fragmenstein', 'fragmenstein_placed'}

>  <ref_pdb>  (995) 
1

>  <scratch_subdir>  (995) 
/opt/xchem-fragalysis-2/maxwin/BulkDock/SCRATCH/511027/C106046-P157

>  <alias>  (995) 
NCn1cc2c([C@@](O)(Nc3ccc4c(c3)CNC4)C(=O)NCC3CCOCC3)cc(Cl)cc2n1

>  <HIPPO Compound ID>  (995) 
106046

>  <fragmenstein_runtime>  (995) 
6.072435

$$$$
O=C(NCC1CCOCC1)[C@](O)(Nc1ccc2c(c1)CNC2)c1cc(Cl)cc2c1CC1(CCNCC1)N2
     RDKit          3D

 37 42  0  0  0  0  0  0  0  0999 V2000
   -7.1096    1.9978  -13.4128 O   0  0  0  0  0  0  0  0  0  0  0  0
   -6.5164    3.0018  -13.3052 C   0  0  0  0  0  0  0  0  0  0  0  0
   -5.0222    3.2579  -12.9371 N   0  0  0  0  0  0  0  0  0  0  0  0
   -3.9907    2.3424  -12.5379 C   0  0  0  0  0  0  0  0  0  0  0  0
   -4.2503    1.8019  -11.1239 C   0  0  0  0  0  0  0  0  0  0  0  0
   -4.2695    2.9068  -10.0630 C   0  0  0  0  0  0  0  0  0  0  0  0
   -2.8983    3.5566   -9.8869 C   0  0  0  0  0  0  0  0  0  0  0  0
   -1.8205    2.7196  -10.3152 O   0  0  0  0  0  0  0  0  0  0  0  0
   -2.0222    1.3545   -9.9578 C   0  0  0  0  0  0  0  0  0  0  0  0
   -3.1927    0.7612  -10.7374 C   0  0  0  0  0  0  0  0  0  0  0  0
   -7.1808    4.4658  -13.4724 C   0  0  2  0  0  0  0  0  0  0  0  0
   -6.3628    5.4692  -12.8747 O   0  0  0  0  0  0  0  0  0  0  0  0
   -8.5088    4.4738  -12.8109 N   0  0  0  0  0  0  0  0  0  0  0  0
   -8.5063    4.4409  -11.3952 C   0  0  0  0  0  0  0  0  0  0  0  0
   -8.3073    5.6321  -10.6626 C   0  0  0  0  0  0  0  0  0  0  0  0
   -8.2551    5.6305   -9.2664 C   0  0  0  0  0  0  0  0  0  0  0  0
   -8.4183    4.4239   -8.6137 C   0  0  0  0  0  0  0  0  0  0  0  0
   -8.6244    3.2452   -9.3212 C   0  0  0  0  0  0  0  0  0  0  0  0
   -8.6574    3.2313  -10.7060 C   0  0  0  0  0  0  0  0  0  0  0  0
   -8.8448    2.1220   -8.3648 C   0  0  0  0  0  0  0  0  0  0  0  0
   -8.5035    2.6674   -7.0217 N   0  0  0  0  0  0  0  0  0  0  0  0
   -8.4863    4.1409   -7.1534 C   0  0  0  0  0  0  0  0  0  0  0  0
   -7.3106    4.7979  -14.9657 C   0  0  0  0  0  0  0  0  0  0  0  0
   -8.4259    4.3547  -15.7106 C   0  0  0  0  0  0  0  0  0  0  0  0
   -8.5050    4.5242  -17.0995 C   0  0  0  0  0  0  0  0  0  0  0  0
   -9.8764    3.9445  -17.9618 Cl  0  0  0  0  0  0  0  0  0  0  0  0
   -7.4797    5.1448  -17.7959 C   0  0  0  0  0  0  0  0  0  0  0  0
   -6.4078    5.6378  -17.0840 C   0  0  0  0  0  0  0  0  0  0  0  0
   -6.3141    5.4630  -15.7007 C   0  0  0  0  0  0  0  0  0  0  0  0
   -5.0002    6.0346  -15.2580 C   0  0  0  0  0  0  0  0  0  0  0  0
   -4.4644    6.7437  -16.5423 C   0  0  0  0  0  0  0  0  0  0  0  0
   -4.6235    8.2725  -16.4388 C   0  0  0  0  0  0  0  0  0  0  0  0
   -3.9111    9.0138  -17.5684 C   0  0  0  0  0  0  0  0  0  0  0  0
   -2.5010    8.6431  -17.6700 N   0  0  0  0  0  0  0  0  0  0  0  0
   -2.3600    7.2028  -17.8933 C   0  0  0  0  0  0  0  0  0  0  0  0
   -2.9838    6.3883  -16.7632 C   0  0  0  0  0  0  0  0  0  0  0  0
   -5.2600    6.2092  -17.6645 N   0  0  0  0  0  0  0  0  0  0  0  0
  1  2  2  0
  2  3  1  0
  3  4  1  0
  4  5  1  0
  5  6  1  0
  6  7  1  0
  7  8  1  0
  8  9  1  0
  9 10  1  0
  2 11  1  0
 11 12  1  1
 11 13  1  0
 13 14  1  0
 14 15  2  0
 15 16  1  0
 16 17  2  0
 17 18  1  0
 18 19  2  0
 18 20  1  0
 20 21  1  0
 21 22  1  0
 11 23  1  0
 23 24  2  0
 24 25  1  0
 25 26  1  0
 25 27  2  0
 27 28  1  0
 28 29  2  0
 29 30  1  0
 30 31  1  0
 31 32  1  0
 32 33  1  0
 33 34  1  0
 34 35  1  0
 35 36  1  0
 31 37  1  0
 10  5  1  0
 19 14  1  0
 29 23  1  0
 36 31  1  0
 22 17  1  0
 37 28  1  0
M  END
>  <smiles>  (996) 
C106018-P157

>  <fragmenstein_outcome>  (996) 
acceptable

>  <inchikey>  (996) 
HIMSEXJHEDWGMU-UHFFFAOYSA-N

>  <fragmenstein_mode>  (996) 
expansion

>  <HIPPO Pose ID>  (996) 
19711

>  <Energy>  (996) 
106.206892

>  <fragmenstein_error>  (996) 


>  <tags>  (996) 
{'openbind_xx01zvns2b_c1_fragmenstein', 'fragmenstein_placed'}

>  <ref_pdb>  (996) 
1

>  <scratch_subdir>  (996) 
/opt/xchem-fragalysis-2/maxwin/BulkDock/SCRATCH/511027/C106018-P157

>  <alias>  (996) 
O=C(NCC1CCOCC1)[C@](O)(Nc1ccc2c(c1)CNC2)c1cc(Cl)cc2c1CC1(CCNCC1)N2

>  <HIPPO Compound ID>  (996) 
106018

>  <fragmenstein_runtime>  (996) 
8.577673

$$$$
O=C(NCC1CCOCC1)[C@](O)(Nc1ccc2c(c1)CNC2)c1cc(Cl)cc2c1CN[C@]21CCCNC1
     RDKit          3D

 37 42  0  0  0  0  0  0  0  0999 V2000
   -7.1357    2.0550  -13.3142 O   0  0  0  0  0  0  0  0  0  0  0  0
   -6.5157    3.0391  -13.1756 C   0  0  0  0  0  0  0  0  0  0  0  0
   -5.0275    3.2457  -12.7372 N   0  0  0  0  0  0  0  0  0  0  0  0
   -4.0461    2.2954  -12.2947 C   0  0  0  0  0  0  0  0  0  0  0  0
   -4.3446    1.8310  -10.8616 C   0  0  0  0  0  0  0  0  0  0  0  0
   -3.3776    0.7261  -10.4430 C   0  0  0  0  0  0  0  0  0  0  0  0
   -1.9507    1.2349  -10.2495 C   0  0  0  0  0  0  0  0  0  0  0  0
   -1.8880    2.6323   -9.9488 O   0  0  0  0  0  0  0  0  0  0  0  0
   -2.9516    3.0438   -9.0953 C   0  0  0  0  0  0  0  0  0  0  0  0
   -4.2788    2.9886   -9.8452 C   0  0  0  0  0  0  0  0  0  0  0  0
   -7.0934    4.5404  -13.3646 C   0  0  2  0  0  0  0  0  0  0  0  0
   -6.2238    5.5084  -12.7773 O   0  0  0  0  0  0  0  0  0  0  0  0
   -8.4017    4.7649  -12.7217 N   0  0  0  0  0  0  0  0  0  0  0  0
   -8.4583    4.6001  -11.3196 C   0  0  0  0  0  0  0  0  0  0  0  0
   -8.2993    5.7251  -10.4744 C   0  0  0  0  0  0  0  0  0  0  0  0
   -8.2919    5.6002   -9.0830 C   0  0  0  0  0  0  0  0  0  0  0  0
   -8.4677    4.3404   -8.5467 C   0  0  0  0  0  0  0  0  0  0  0  0
   -8.6155    3.2240   -9.3634 C   0  0  0  0  0  0  0  0  0  0  0  0
   -8.5961    3.3320  -10.7457 C   0  0  0  0  0  0  0  0  0  0  0  0
   -8.7801    2.0107   -8.5076 C   0  0  0  0  0  0  0  0  0  0  0  0
   -9.0645    2.5328   -7.1422 N   0  0  0  0  0  0  0  0  0  0  0  0
   -8.5473    3.9177   -7.1194 C   0  0  0  0  0  0  0  0  0  0  0  0
   -7.1891    4.8453  -14.8656 C   0  0  0  0  0  0  0  0  0  0  0  0
   -8.2901    4.3908  -15.6187 C   0  0  0  0  0  0  0  0  0  0  0  0
   -8.3537    4.5794  -17.0062 C   0  0  0  0  0  0  0  0  0  0  0  0
   -9.7214    4.0100  -17.8870 Cl  0  0  0  0  0  0  0  0  0  0  0  0
   -7.3186    5.2164  -17.6905 C   0  0  0  0  0  0  0  0  0  0  0  0
   -6.2229    5.6719  -16.9740 C   0  0  0  0  0  0  0  0  0  0  0  0
   -6.1720    5.4939  -15.5834 C   0  0  0  0  0  0  0  0  0  0  0  0
   -4.9031    6.0981  -15.0762 C   0  0  0  0  0  0  0  0  0  0  0  0
   -4.0412    6.2849  -16.2554 N   0  0  0  0  0  0  0  0  0  0  0  0
   -4.9423    6.3274  -17.4534 C   0  0  2  0  0  0  0  0  0  0  0  0
   -5.1045    7.8176  -17.8046 C   0  0  0  0  0  0  0  0  0  0  0  0
   -5.6442    8.0081  -19.2145 C   0  0  0  0  0  0  0  0  0  0  0  0
   -4.7952    7.2814  -20.2503 C   0  0  0  0  0  0  0  0  0  0  0  0
   -4.7359    5.8518  -19.9809 N   0  0  0  0  0  0  0  0  0  0  0  0
   -4.2443    5.5729  -18.6300 C   0  0  0  0  0  0  0  0  0  0  0  0
  1  2  2  0
  2  3  1  0
  3  4  1  0
  4  5  1  0
  5  6  1  0
  6  7  1  0
  7  8  1  0
  8  9  1  0
  9 10  1  0
  2 11  1  0
 11 12  1  1
 11 13  1  0
 13 14  1  0
 14 15  2  0
 15 16  1  0
 16 17  2  0
 17 18  1  0
 18 19  2  0
 18 20  1  0
 20 21  1  0
 21 22  1  0
 11 23  1  0
 23 24  2  0
 24 25  1  0
 25 26  1  0
 25 27  2  0
 27 28  1  0
 28 29  2  0
 29 30  1  0
 30 31  1  0
 31 32  1  0
 32 33  1  6
 33 34  1  0
 34 35  1  0
 35 36  1  0
 36 37  1  0
 10  5  1  0
 19 14  1  0
 29 23  1  0
 37 32  1  0
 22 17  1  0
 32 28  1  0
M  END
>  <smiles>  (997) 
C106051-P157

>  <fragmenstein_outcome>  (997) 
acceptable

>  <inchikey>  (997) 
MZESMUSFWDLFRC-UHFFFAOYSA-N

>  <fragmenstein_mode>  (997) 
expansion

>  <HIPPO Pose ID>  (997) 
19715

>  <Energy>  (997) 
140.114644

>  <fragmenstein_error>  (997) 


>  <tags>  (997) 
{'openbind_xx01zvns2b_c1_fragmenstein', 'fragmenstein_placed'}

>  <ref_pdb>  (997) 
1

>  <scratch_subdir>  (997) 
/opt/xchem-fragalysis-2/maxwin/BulkDock/SCRATCH/511027/C106051-P157

>  <alias>  (997) 
O=C(NCC1CCOCC1)[C@](O)(Nc1ccc2c(c1)CNC2)c1cc(Cl)cc2c1CN[C@]21CCCNC1

>  <HIPPO Compound ID>  (997) 
93796

>  <fragmenstein_runtime>  (997) 
9.769489

$$$$
Nn1ncc2c([C@](O)(Nc3ccc4c(c3)CNC4)C(=O)NCC3CCOCC3)cc(Cl)cc21
     RDKit          3D

 33 37  0  0  0  0  0  0  0  0999 V2000
   -4.4810    6.6112  -17.8247 N   0  0  0  0  0  0  0  0  0  0  0  0
   -5.2632    6.4575  -16.6774 N   0  0  0  0  0  0  0  0  0  0  0  0
   -4.8293    6.8856  -15.4927 N   0  0  0  0  0  0  0  0  0  0  0  0
   -5.6635    6.3125  -14.6245 C   0  0  0  0  0  0  0  0  0  0  0  0
   -6.6895    5.5676  -15.2519 C   0  0  0  0  0  0  0  0  0  0  0  0
   -7.7595    4.7435  -14.8300 C   0  0  0  0  0  0  0  0  0  0  0  0
   -8.0330    4.2312  -13.3991 C   0  0  2  0  0  0  0  0  0  0  0  0
   -9.4339    4.1001  -13.3336 O   0  0  0  0  0  0  0  0  0  0  0  0
   -7.7326    5.2409  -12.3776 N   0  0  0  0  0  0  0  0  0  0  0  0
   -8.0727    4.9656  -11.0217 C   0  0  0  0  0  0  0  0  0  0  0  0
   -7.9139    6.0222  -10.0997 C   0  0  0  0  0  0  0  0  0  0  0  0
   -8.0937    5.8354   -8.7228 C   0  0  0  0  0  0  0  0  0  0  0  0
   -8.4211    4.5728   -8.2678 C   0  0  0  0  0  0  0  0  0  0  0  0
   -8.5769    3.5177   -9.1520 C   0  0  0  0  0  0  0  0  0  0  0  0
   -8.4164    3.6964  -10.5164 C   0  0  0  0  0  0  0  0  0  0  0  0
   -8.8654    2.2652   -8.3898 C   0  0  0  0  0  0  0  0  0  0  0  0
   -9.2184    2.7232   -7.0187 N   0  0  0  0  0  0  0  0  0  0  0  0
   -8.6267    4.0737   -6.8784 C   0  0  0  0  0  0  0  0  0  0  0  0
   -7.1278    2.8794  -13.1539 C   0  0  0  0  0  0  0  0  0  0  0  0
   -7.4900    1.8247  -13.5075 O   0  0  0  0  0  0  0  0  0  0  0  0
   -5.8700    3.2909  -12.3335 N   0  0  0  0  0  0  0  0  0  0  0  0
   -4.8566    2.4797  -11.7024 C   0  0  0  0  0  0  0  0  0  0  0  0
   -3.4547    2.6095  -12.3146 C   0  0  0  0  0  0  0  0  0  0  0  0
   -2.8644    4.0139  -12.1052 C   0  0  0  0  0  0  0  0  0  0  0  0
   -1.8615    4.3532  -13.1945 C   0  0  0  0  0  0  0  0  0  0  0  0
   -2.4507    4.3577  -14.4939 O   0  0  0  0  0  0  0  0  0  0  0  0
   -3.5386    3.4472  -14.6652 C   0  0  0  0  0  0  0  0  0  0  0  0
   -3.4183    2.2122  -13.7898 C   0  0  0  0  0  0  0  0  0  0  0  0
   -8.6136    4.2903  -15.8774 C   0  0  0  0  0  0  0  0  0  0  0  0
   -8.4098    4.5734  -17.2223 C   0  0  0  0  0  0  0  0  0  0  0  0
   -9.5672    4.0164  -18.3665 Cl  0  0  0  0  0  0  0  0  0  0  0  0
   -7.2953    5.2886  -17.6289 C   0  0  0  0  0  0  0  0  0  0  0  0
   -6.4548    5.7750  -16.6161 C   0  0  0  0  0  0  0  0  0  0  0  0
  1  2  1  0
  2  3  1  0
  3  4  2  0
  4  5  1  0
  5  6  2  0
  6  7  1  0
  7  8  1  6
  7  9  1  0
  9 10  1  0
 10 11  2  0
 11 12  1  0
 12 13  2  0
 13 14  1  0
 14 15  2  0
 14 16  1  0
 16 17  1  0
 17 18  1  0
  7 19  1  0
 19 20  2  0
 19 21  1  0
 21 22  1  0
 22 23  1  0
 23 24  1  0
 24 25  1  0
 25 26  1  0
 26 27  1  0
 27 28  1  0
  6 29  1  0
 29 30  2  0
 30 31  1  0
 30 32  1  0
 32 33  2  0
 33  2  1  0
 33  5  1  0
 15 10  1  0
 28 23  1  0
 18 13  1  0
M  END
>  <smiles>  (998) 
C106057-P157

>  <fragmenstein_outcome>  (998) 
acceptable

>  <inchikey>  (998) 
UUTCZFPVSOMOLR-UHFFFAOYSA-N

>  <fragmenstein_mode>  (998) 
expansion

>  <HIPPO Pose ID>  (998) 
19716

>  <Energy>  (998) 
54.069709

>  <fragmenstein_error>  (998) 


>  <tags>  (998) 
{'openbind_xx01zvns2b_c1_fragmenstein', 'fragmenstein_placed'}

>  <ref_pdb>  (998) 
1

>  <scratch_subdir>  (998) 
/opt/xchem-fragalysis-2/maxwin/BulkDock/SCRATCH/511027/C106057-P157

>  <alias>  (998) 
Nn1ncc2c([C@](O)(Nc3ccc4c(c3)CNC4)C(=O)NCC3CCOCC3)cc(Cl)cc21

>  <HIPPO Compound ID>  (998) 
106057

>  <fragmenstein_runtime>  (998) 
5.293583

$$$$
C[C@H]1CCNC[C@]12NCc1c([C@@](O)(Nc3ccc4c(c3)CNC4)C(=O)NCC3CCOCC3)cc(Cl)cc12
     RDKit          3D

 38 43  0  0  0  0  0  0  0  0999 V2000
   -4.6338    5.0107  -19.4105 C   0  0  0  0  0  0  0  0  0  0  0  0
   -4.1092    5.8101  -18.2087 C   0  0  1  0  0  0  0  0  0  0  0  0
   -2.9620    6.7243  -18.6982 C   0  0  0  0  0  0  0  0  0  0  0  0
   -3.4690    7.8916  -19.5465 C   0  0  0  0  0  0  0  0  0  0  0  0
   -4.4734    8.6820  -18.8415 N   0  0  0  0  0  0  0  0  0  0  0  0
   -5.6124    7.8480  -18.4039 C   0  0  0  0  0  0  0  0  0  0  0  0
   -5.2171    6.6495  -17.4887 C   0  0  2  0  0  0  0  0  0  0  0  0
   -4.6853    7.2120  -16.2149 N   0  0  0  0  0  0  0  0  0  0  0  0
   -5.1124    6.3408  -15.1135 C   0  0  0  0  0  0  0  0  0  0  0  0
   -6.3110    5.6020  -15.6262 C   0  0  0  0  0  0  0  0  0  0  0  0
   -7.2409    4.8041  -14.9328 C   0  0  0  0  0  0  0  0  0  0  0  0
   -7.1401    4.4785  -13.4334 C   0  0  1  0  0  0  0  0  0  0  0  0
   -6.2961    5.4564  -12.8358 O   0  0  0  0  0  0  0  0  0  0  0  0
   -8.4855    4.5658  -12.7998 N   0  0  0  0  0  0  0  0  0  0  0  0
   -8.5186    4.5029  -11.3830 C   0  0  0  0  0  0  0  0  0  0  0  0
   -8.3409    5.6838  -10.6276 C   0  0  0  0  0  0  0  0  0  0  0  0
   -8.2936    5.6564   -9.2317 C   0  0  0  0  0  0  0  0  0  0  0  0
   -8.4420    4.4354   -8.6020 C   0  0  0  0  0  0  0  0  0  0  0  0
   -8.6318    3.2676   -9.3314 C   0  0  0  0  0  0  0  0  0  0  0  0
   -8.6594    3.2786  -10.7167 C   0  0  0  0  0  0  0  0  0  0  0  0
   -8.8320    2.1222   -8.3966 C   0  0  0  0  0  0  0  0  0  0  0  0
   -8.5136    2.6493   -7.0398 N   0  0  0  0  0  0  0  0  0  0  0  0
   -8.5010    4.1244   -7.1472 C   0  0  0  0  0  0  0  0  0  0  0  0
   -6.5566    2.9897  -13.1876 C   0  0  0  0  0  0  0  0  0  0  0  0
   -7.1343    2.0111  -13.4691 O   0  0  0  0  0  0  0  0  0  0  0  0
   -5.1989    3.1830  -12.4446 N   0  0  0  0  0  0  0  0  0  0  0  0
   -4.3339    2.2228  -11.8200 C   0  0  0  0  0  0  0  0  0  0  0  0
   -2.9812    2.0475  -12.5153 C   0  0  0  0  0  0  0  0  0  0  0  0
   -2.2344    3.3754  -12.6933 C   0  0  0  0  0  0  0  0  0  0  0  0
   -0.7738    3.1942  -13.1051 C   0  0  0  0  0  0  0  0  0  0  0  0
   -0.4116    1.8174  -13.2222 O   0  0  0  0  0  0  0  0  0  0  0  0
   -0.6443    1.1442  -11.9858 C   0  0  0  0  0  0  0  0  0  0  0  0
   -2.1349    1.0597  -11.6911 C   0  0  0  0  0  0  0  0  0  0  0  0
   -8.2981    4.2846  -15.7105 C   0  0  0  0  0  0  0  0  0  0  0  0
   -8.4056    4.5410  -17.0836 C   0  0  0  0  0  0  0  0  0  0  0  0
   -9.7407    3.9143  -17.9730 Cl  0  0  0  0  0  0  0  0  0  0  0  0
   -7.4471    5.3010  -17.7421 C   0  0  0  0  0  0  0  0  0  0  0  0
   -6.3920    5.8209  -17.0127 C   0  0  0  0  0  0  0  0  0  0  0  0
  2  1  1  6
  2  3  1  0
  3  4  1  0
  4  5  1  0
  5  6  1  0
  7  6  1  6
  7  8  1  0
  8  9  1  0
  9 10  1  0
 10 11  2  0
 11 12  1  0
 12 13  1  1
 12 14  1  0
 14 15  1  0
 15 16  2  0
 16 17  1  0
 17 18  2  0
 18 19  1  0
 19 20  2  0
 19 21  1  0
 21 22  1  0
 22 23  1  0
 12 24  1  0
 24 25  2  0
 24 26  1  0
 26 27  1  0
 27 28  1  0
 28 29  1  0
 29 30  1  0
 30 31  1  0
 31 32  1  0
 32 33  1  0
 11 34  1  0
 34 35  2  0
 35 36  1  0
 35 37  1  0
 37 38  2  0
  7  2  1  0
 38 10  1  0
 38  7  1  0
 20 15  1  0
 33 28  1  0
 23 18  1  0
M  END
>  <smiles>  (999) 
C106060-P157

>  <fragmenstein_outcome>  (999) 
acceptable

>  <inchikey>  (999) 
COSUZVJKUAHTJA-UHFFFAOYSA-N

>  <fragmenstein_mode>  (999) 
expansion

>  <HIPPO Pose ID>  (999) 
19717

>  <Energy>  (999) 
153.141636

>  <fragmenstein_error>  (999) 


>  <tags>  (999) 
{'openbind_xx01zvns2b_c1_fragmenstein', 'fragmenstein_placed'}

>  <ref_pdb>  (999) 
1

>  <scratch_subdir>  (999) 
/opt/xchem-fragalysis-2/maxwin/BulkDock/SCRATCH/511027/C106060-P157

>  <alias>  (999) 
C[C@H]1CCNC[C@]12NCc1c([C@@](O)(Nc3ccc4c(c3)CNC4)C(=O)NCC3CCOCC3)cc(Cl)cc12

>  <HIPPO Compound ID>  (999) 
105606

>  <fragmenstein_runtime>  (999) 
12.619961

$$$$
O=C(NCC1CCOCC1)[C@](O)(Nc1ccc2c(c1)CNC2)c1cc(Cl)cc2c1CC1(CCOCC1)N2
     RDKit          3D

 37 42  0  0  0  0  0  0  0  0999 V2000
   -6.8790    2.0276  -13.5685 O   0  0  0  0  0  0  0  0  0  0  0  0
   -6.5546    3.0240  -13.0478 C   0  0  0  0  0  0  0  0  0  0  0  0
   -5.5628    3.2716  -11.8723 N   0  0  0  0  0  0  0  0  0  0  0  0
   -4.8481    2.3410  -11.0440 C   0  0  0  0  0  0  0  0  0  0  0  0
   -3.3340    2.5146  -11.1317 C   0  0  0  0  0  0  0  0  0  0  0  0
   -2.8080    2.2677  -12.5559 C   0  0  0  0  0  0  0  0  0  0  0  0
   -1.3998    1.6850  -12.5549 C   0  0  0  0  0  0  0  0  0  0  0  0
   -0.6440    2.2104  -11.4719 O   0  0  0  0  0  0  0  0  0  0  0  0
   -1.1156    1.7350  -10.2080 C   0  0  0  0  0  0  0  0  0  0  0  0
   -2.6343    1.5803  -10.1425 C   0  0  0  0  0  0  0  0  0  0  0  0
   -7.1941    4.4673  -13.3883 C   0  0  2  0  0  0  0  0  0  0  0  0
   -6.4604    5.5545  -12.8550 O   0  0  0  0  0  0  0  0  0  0  0  0
   -8.5408    4.5480  -12.7538 N   0  0  0  0  0  0  0  0  0  0  0  0
   -8.5381    4.4508  -11.3289 C   0  0  0  0  0  0  0  0  0  0  0  0
   -8.3281    5.5994  -10.5333 C   0  0  0  0  0  0  0  0  0  0  0  0
   -8.2895    5.5263   -9.1373 C   0  0  0  0  0  0  0  0  0  0  0  0
   -8.4806    4.2937   -8.5463 C   0  0  0  0  0  0  0  0  0  0  0  0
   -8.6775    3.1511   -9.3135 C   0  0  0  0  0  0  0  0  0  0  0  0
   -8.7007    3.2072  -10.6980 C   0  0  0  0  0  0  0  0  0  0  0  0
   -8.8234    1.9733   -8.4073 C   0  0  0  0  0  0  0  0  0  0  0  0
   -9.0631    2.5503   -7.0563 N   0  0  0  0  0  0  0  0  0  0  0  0
   -8.5273    3.9287   -7.1021 C   0  0  0  0  0  0  0  0  0  0  0  0
   -7.2886    4.7189  -14.9016 C   0  0  0  0  0  0  0  0  0  0  0  0
   -8.4162    4.3203  -15.6521 C   0  0  0  0  0  0  0  0  0  0  0  0
   -8.4827    4.4903  -17.0446 C   0  0  0  0  0  0  0  0  0  0  0  0
   -9.8743    3.9656  -17.9116 Cl  0  0  0  0  0  0  0  0  0  0  0  0
   -7.4352    5.0737  -17.7412 C   0  0  0  0  0  0  0  0  0  0  0  0
   -6.3449    5.5155  -17.0241 C   0  0  0  0  0  0  0  0  0  0  0  0
   -6.2606    5.3310  -15.6387 C   0  0  0  0  0  0  0  0  0  0  0  0
   -4.9147    5.8235  -15.1940 C   0  0  0  0  0  0  0  0  0  0  0  0
   -4.3903    6.5773  -16.4599 C   0  0  0  0  0  0  0  0  0  0  0  0
   -2.9036    6.2664  -16.7190 C   0  0  0  0  0  0  0  0  0  0  0  0
   -2.0242    7.2709  -15.9940 C   0  0  0  0  0  0  0  0  0  0  0  0
   -2.2336    8.6148  -16.4312 O   0  0  0  0  0  0  0  0  0  0  0  0
   -3.5043    8.8691  -17.0271 C   0  0  0  0  0  0  0  0  0  0  0  0
   -4.6215    8.1029  -16.3362 C   0  0  0  0  0  0  0  0  0  0  0  0
   -5.1725    6.0491  -17.5972 N   0  0  0  0  0  0  0  0  0  0  0  0
  1  2  2  0
  2  3  1  0
  3  4  1  0
  4  5  1  0
  5  6  1  0
  6  7  1  0
  7  8  1  0
  8  9  1  0
  9 10  1  0
  2 11  1  0
 11 12  1  1
 11 13  1  0
 13 14  1  0
 14 15  2  0
 15 16  1  0
 16 17  2  0
 17 18  1  0
 18 19  2  0
 18 20  1  0
 20 21  1  0
 21 22  1  0
 11 23  1  0
 23 24  2  0
 24 25  1  0
 25 26  1  0
 25 27  2  0
 27 28  1  0
 28 29  2  0
 29 30  1  0
 30 31  1  0
 31 32  1  0
 32 33  1  0
 33 34  1  0
 34 35  1  0
 35 36  1  0
 31 37  1  0
 10  5  1  0
 19 14  1  0
 29 23  1  0
 36 31  1  0
 22 17  1  0
 37 28  1  0
M  END
>  <smiles>  (1000) 
C106059-P157

>  <fragmenstein_outcome>  (1000) 
acceptable

>  <inchikey>  (1000) 
HNRYHUBAEPTRJZ-UHFFFAOYSA-N

>  <fragmenstein_mode>  (1000) 
expansion

>  <HIPPO Pose ID>  (1000) 
19718

>  <Energy>  (1000) 
119.15717

>  <fragmenstein_error>  (1000) 


>  <tags>  (1000) 
{'openbind_xx01zvns2b_c1_fragmenstein', 'fragmenstein_placed'}

>  <ref_pdb>  (1000) 
1

>  <scratch_subdir>  (1000) 
/opt/xchem-fragalysis-2/maxwin/BulkDock/SCRATCH/511027/C106059-P157

>  <alias>  (1000) 
O=C(NCC1CCOCC1)[C@](O)(Nc1ccc2c(c1)CNC2)c1cc(Cl)cc2c1CC1(CCOCC1)N2

>  <HIPPO Compound ID>  (1000) 
101237

>  <fragmenstein_runtime>  (1000) 
10.025597

$$$$
O=C(NCC1CCOCC1)[C@](O)(Nc1ccc2c(c1)CNC2)c1cc(Cl)cc2c1CNC21CCOCC1
     RDKit          3D

 37 42  0  0  0  0  0  0  0  0999 V2000
   -5.1542    3.1718  -13.8234 O   0  0  0  0  0  0  0  0  0  0  0  0
   -5.6264    3.9218  -13.0579 C   0  0  0  0  0  0  0  0  0  0  0  0
   -5.1406    4.3585  -11.6383 N   0  0  0  0  0  0  0  0  0  0  0  0
   -3.9347    4.0334  -10.9228 C   0  0  0  0  0  0  0  0  0  0  0  0
   -4.0956    2.8400   -9.9694 C   0  0  0  0  0  0  0  0  0  0  0  0
   -2.8433    2.7018   -9.0802 C   0  0  0  0  0  0  0  0  0  0  0  0
   -1.8313    1.6994   -9.6342 C   0  0  0  0  0  0  0  0  0  0  0  0
   -1.8835    1.6882  -11.0559 O   0  0  0  0  0  0  0  0  0  0  0  0
   -3.1031    1.1039  -11.5336 C   0  0  0  0  0  0  0  0  0  0  0  0
   -4.3263    1.5200  -10.7122 C   0  0  0  0  0  0  0  0  0  0  0  0
   -6.9436    4.8234  -13.3877 C   0  0  2  0  0  0  0  0  0  0  0  0
   -6.7823    6.1684  -12.9477 O   0  0  0  0  0  0  0  0  0  0  0  0
   -8.1288    4.2388  -12.7324 N   0  0  0  0  0  0  0  0  0  0  0  0
   -8.2411    4.2321  -11.3317 C   0  0  0  0  0  0  0  0  0  0  0  0
   -8.1891    5.4140  -10.5625 C   0  0  0  0  0  0  0  0  0  0  0  0
   -8.2844    5.3964   -9.1653 C   0  0  0  0  0  0  0  0  0  0  0  0
   -8.4887    4.1821   -8.5445 C   0  0  0  0  0  0  0  0  0  0  0  0
   -8.5828    3.0105   -9.2845 C   0  0  0  0  0  0  0  0  0  0  0  0
   -8.4543    3.0173  -10.6650 C   0  0  0  0  0  0  0  0  0  0  0  0
   -8.8194    1.8661   -8.3554 C   0  0  0  0  0  0  0  0  0  0  0  0
   -9.2300    2.4926   -7.0678 N   0  0  0  0  0  0  0  0  0  0  0  0
   -8.6657    3.8617   -7.0992 C   0  0  0  0  0  0  0  0  0  0  0  0
   -7.1421    4.9303  -14.9122 C   0  0  0  0  0  0  0  0  0  0  0  0
   -8.2891    4.4442  -15.5774 C   0  0  0  0  0  0  0  0  0  0  0  0
   -8.4021    4.4895  -16.9787 C   0  0  0  0  0  0  0  0  0  0  0  0
   -9.8129    3.8867  -17.7598 Cl  0  0  0  0  0  0  0  0  0  0  0  0
   -7.3909    5.0296  -17.7638 C   0  0  0  0  0  0  0  0  0  0  0  0
   -6.2861    5.5648  -17.1302 C   0  0  0  0  0  0  0  0  0  0  0  0
   -6.1656    5.5197  -15.7341 C   0  0  0  0  0  0  0  0  0  0  0  0
   -4.8510    6.1351  -15.3698 C   0  0  0  0  0  0  0  0  0  0  0  0
   -4.4236    6.9015  -16.5617 N   0  0  0  0  0  0  0  0  0  0  0  0
   -5.0738    6.2277  -17.7341 C   0  0  0  0  0  0  0  0  0  0  0  0
   -5.4090    7.2709  -18.8127 C   0  0  0  0  0  0  0  0  0  0  0  0
   -4.1418    7.8313  -19.4491 C   0  0  0  0  0  0  0  0  0  0  0  0
   -3.3314    6.7924  -19.9914 O   0  0  0  0  0  0  0  0  0  0  0  0
   -2.9172    5.8532  -18.9994 C   0  0  0  0  0  0  0  0  0  0  0  0
   -4.1133    5.1846  -18.3341 C   0  0  0  0  0  0  0  0  0  0  0  0
  1  2  2  0
  2  3  1  0
  3  4  1  0
  4  5  1  0
  5  6  1  0
  6  7  1  0
  7  8  1  0
  8  9  1  0
  9 10  1  0
  2 11  1  0
 11 12  1  1
 11 13  1  0
 13 14  1  0
 14 15  2  0
 15 16  1  0
 16 17  2  0
 17 18  1  0
 18 19  2  0
 18 20  1  0
 20 21  1  0
 21 22  1  0
 11 23  1  0
 23 24  2  0
 24 25  1  0
 25 26  1  0
 25 27  2  0
 27 28  1  0
 28 29  2  0
 29 30  1  0
 30 31  1  0
 31 32  1  0
 32 33  1  0
 33 34  1  0
 34 35  1  0
 35 36  1  0
 36 37  1  0
 10  5  1  0
 19 14  1  0
 29 23  1  0
 37 32  1  0
 22 17  1  0
 32 28  1  0
M  END
>  <smiles>  (1001) 
C106063-P157

>  <fragmenstein_outcome>  (1001) 
acceptable

>  <inchikey>  (1001) 
QNLQVKVPPIWIJI-UHFFFAOYSA-N

>  <fragmenstein_mode>  (1001) 
expansion

>  <HIPPO Pose ID>  (1001) 
19719

>  <Energy>  (1001) 
113.840751

>  <fragmenstein_error>  (1001) 


>  <tags>  (1001) 
{'openbind_xx01zvns2b_c1_fragmenstein', 'fragmenstein_placed'}

>  <ref_pdb>  (1001) 
1

>  <scratch_subdir>  (1001) 
/opt/xchem-fragalysis-2/maxwin/BulkDock/SCRATCH/511027/C106063-P157

>  <alias>  (1001) 
O=C(NCC1CCOCC1)[C@](O)(Nc1ccc2c(c1)CNC2)c1cc(Cl)cc2c1CNC21CCOCC1

>  <HIPPO Compound ID>  (1001) 
106063

>  <fragmenstein_runtime>  (1001) 
9.642758

$$$$
Cc1cc(C(=O)Nc2ccc3c(c2)CNC3)c2c3c1CNCN3NC2
     RDKit          3D

 25 29  0  0  0  0  0  0  0  0999 V2000
   -9.4885    4.2101  -17.9522 C   0  0  0  0  0  0  0  0  0  0  0  0
   -8.3330    4.3790  -17.0051 C   0  0  0  0  0  0  0  0  0  0  0  0
   -8.4890    4.0514  -15.6455 C   0  0  0  0  0  0  0  0  0  0  0  0
   -7.4248    4.1549  -14.7348 C   0  0  0  0  0  0  0  0  0  0  0  0
   -7.5384    3.5038  -13.4187 C   0  0  0  0  0  0  0  0  0  0  0  0
   -7.5045    2.3398  -13.3623 O   0  0  0  0  0  0  0  0  0  0  0  0
   -7.7338    4.5516  -12.3081 N   0  0  0  0  0  0  0  0  0  0  0  0
   -8.0133    4.3927  -10.9559 C   0  0  0  0  0  0  0  0  0  0  0  0
   -8.0648    5.5311  -10.1374 C   0  0  0  0  0  0  0  0  0  0  0  0
   -8.3225    5.4085   -8.7688 C   0  0  0  0  0  0  0  0  0  0  0  0
   -8.5660    4.1458   -8.2587 C   0  0  0  0  0  0  0  0  0  0  0  0
   -8.5446    3.0224   -9.0770 C   0  0  0  0  0  0  0  0  0  0  0  0
   -8.2482    3.1227  -10.4231 C   0  0  0  0  0  0  0  0  0  0  0  0
   -8.8412    1.8104   -8.2605 C   0  0  0  0  0  0  0  0  0  0  0  0
   -9.3749    2.3332   -6.9720 N   0  0  0  0  0  0  0  0  0  0  0  0
   -8.8568    3.7157   -6.8607 C   0  0  0  0  0  0  0  0  0  0  0  0
   -6.2368    4.6946  -15.1586 C   0  0  0  0  0  0  0  0  0  0  0  0
   -6.0607    4.9246  -16.5067 C   0  0  0  0  0  0  0  0  0  0  0  0
   -7.0633    4.7709  -17.4482 C   0  0  0  0  0  0  0  0  0  0  0  0
   -6.7327    5.1387  -18.8629 C   0  0  0  0  0  0  0  0  0  0  0  0
   -5.2941    5.1792  -19.1767 N   0  0  0  0  0  0  0  0  0  0  0  0
   -4.6011    5.8705  -18.0959 C   0  0  0  0  0  0  0  0  0  0  0  0
   -4.7358    5.2886  -16.7737 N   0  0  0  0  0  0  0  0  0  0  0  0
   -4.1606    5.7668  -15.5611 N   0  0  0  0  0  0  0  0  0  0  0  0
   -4.9556    5.0577  -14.4921 C   0  0  0  0  0  0  0  0  0  0  0  0
  1  2  1  0
  2  3  2  0
  3  4  1  0
  4  5  1  0
  5  6  2  0
  5  7  1  0
  7  8  1  0
  8  9  2  0
  9 10  1  0
 10 11  2  0
 11 12  1  0
 12 13  2  0
 12 14  1  0
 14 15  1  0
 15 16  1  0
  4 17  2  0
 17 18  1  0
 18 19  2  0
 19 20  1  0
 20 21  1  0
 21 22  1  0
 22 23  1  0
 23 24  1  0
 24 25  1  0
 19  2  1  0
 13  8  1  0
 25 17  1  0
 16 11  1  0
 23 18  1  0
M  END
>  <smiles>  (1002) 
C106065-P157

>  <fragmenstein_outcome>  (1002) 
acceptable

>  <inchikey>  (1002) 
MHJVMZHCEGJYSH-UHFFFAOYSA-N

>  <fragmenstein_mode>  (1002) 
expansion

>  <HIPPO Pose ID>  (1002) 
19720

>  <Energy>  (1002) 
52.11115

>  <fragmenstein_error>  (1002) 


>  <tags>  (1002) 
{'openbind_xx01zvns2b_c1_fragmenstein', 'fragmenstein_placed'}

>  <ref_pdb>  (1002) 
1

>  <scratch_subdir>  (1002) 
/opt/xchem-fragalysis-2/maxwin/BulkDock/SCRATCH/511027/C106065-P157

>  <alias>  (1002) 
Cc1cc(C(=O)Nc2ccc3c(c2)CNC3)c2c3c1CNCN3NC2

>  <HIPPO Compound ID>  (1002) 
81256

>  <fragmenstein_runtime>  (1002) 
4.100353

$$$$
Cc1cc(C(=O)Nc2ccc3c(c2)CNC3)c2c(n1)[C@]1(CCCN1)NC2
     RDKit          3D

 26 30  0  0  0  0  0  0  0  0999 V2000
   -9.6763    4.3240  -18.1556 C   0  0  0  0  0  0  0  0  0  0  0  0
   -8.5784    4.6501  -17.1835 C   0  0  0  0  0  0  0  0  0  0  0  0
   -8.6562    4.1811  -15.8757 C   0  0  0  0  0  0  0  0  0  0  0  0
   -7.6327    4.4768  -14.9763 C   0  0  0  0  0  0  0  0  0  0  0  0
   -7.6446    3.8293  -13.6489 C   0  0  0  0  0  0  0  0  0  0  0  0
   -7.4962    2.6754  -13.5803 O   0  0  0  0  0  0  0  0  0  0  0  0
   -7.8768    4.8747  -12.5399 N   0  0  0  0  0  0  0  0  0  0  0  0
   -8.0632    4.7135  -11.1711 C   0  0  0  0  0  0  0  0  0  0  0  0
   -8.0447    5.8542  -10.3513 C   0  0  0  0  0  0  0  0  0  0  0  0
   -8.2045    5.7376   -8.9675 C   0  0  0  0  0  0  0  0  0  0  0  0
   -8.4030    4.4757   -8.4358 C   0  0  0  0  0  0  0  0  0  0  0  0
   -8.4612    3.3514   -9.2512 C   0  0  0  0  0  0  0  0  0  0  0  0
   -8.2804    3.4476  -10.6202 C   0  0  0  0  0  0  0  0  0  0  0  0
   -8.7598    2.1477   -8.4222 C   0  0  0  0  0  0  0  0  0  0  0  0
   -8.5823    2.5874   -7.0081 N   0  0  0  0  0  0  0  0  0  0  0  0
   -8.6174    4.0667   -7.0200 C   0  0  0  0  0  0  0  0  0  0  0  0
   -6.5907    5.2710  -15.3950 C   0  0  0  0  0  0  0  0  0  0  0  0
   -6.5754    5.6710  -16.7170 C   0  0  0  0  0  0  0  0  0  0  0  0
   -7.5384    5.3991  -17.6179 N   0  0  0  0  0  0  0  0  0  0  0  0
   -5.2248    6.3159  -16.9841 C   0  0  1  0  0  0  0  0  0  0  0  0
   -4.2703    5.3772  -17.7133 C   0  0  0  0  0  0  0  0  0  0  0  0
   -4.6136    5.6292  -19.1698 C   0  0  0  0  0  0  0  0  0  0  0  0
   -5.2420    7.0248  -19.1772 C   0  0  0  0  0  0  0  0  0  0  0  0
   -5.2158    7.5316  -17.7858 N   0  0  0  0  0  0  0  0  0  0  0  0
   -4.7068    6.6906  -15.6617 N   0  0  0  0  0  0  0  0  0  0  0  0
   -5.3410    5.7177  -14.7266 C   0  0  0  0  0  0  0  0  0  0  0  0
  1  2  1  0
  2  3  2  0
  3  4  1  0
  4  5  1  0
  5  6  2  0
  5  7  1  0
  7  8  1  0
  8  9  2  0
  9 10  1  0
 10 11  2  0
 11 12  1  0
 12 13  2  0
 12 14  1  0
 14 15  1  0
 15 16  1  0
  4 17  2  0
 17 18  1  0
 18 19  2  0
 18 20  1  0
 20 21  1  6
 21 22  1  0
 22 23  1  0
 23 24  1  0
 20 25  1  0
 25 26  1  0
 19  2  1  0
 24 20  1  0
 13  8  1  0
 26 17  1  0
 16 11  1  0
M  END
>  <smiles>  (1003) 
C106073-P157

>  <fragmenstein_outcome>  (1003) 
acceptable

>  <inchikey>  (1003) 
WLIHQFMEDKEDNP-UHFFFAOYSA-N

>  <fragmenstein_mode>  (1003) 
expansion

>  <HIPPO Pose ID>  (1003) 
19722

>  <Energy>  (1003) 
11.760945

>  <fragmenstein_error>  (1003) 


>  <tags>  (1003) 
{'openbind_xx01zvns2b_c1_fragmenstein', 'fragmenstein_placed'}

>  <ref_pdb>  (1003) 
1

>  <scratch_subdir>  (1003) 
/opt/xchem-fragalysis-2/maxwin/BulkDock/SCRATCH/511027/C106073-P157

>  <alias>  (1003) 
Cc1cc(C(=O)Nc2ccc3c(c2)CNC3)c2c(n1)[C@]1(CCCN1)NC2

>  <HIPPO Compound ID>  (1003) 
86005

>  <fragmenstein_runtime>  (1003) 
4.559101

$$$$
Cn1ncc2c(C(=O)Nc3ccc4c(c3)CNC4)c3ncccn3c21
     RDKit          3D

 25 29  0  0  0  0  0  0  0  0999 V2000
   -4.6984    6.9169  -18.0906 C   0  0  0  0  0  0  0  0  0  0  0  0
   -5.1830    6.4266  -16.8265 N   0  0  0  0  0  0  0  0  0  0  0  0
   -4.5180    6.7177  -15.6706 N   0  0  0  0  0  0  0  0  0  0  0  0
   -5.1777    6.0166  -14.7221 C   0  0  0  0  0  0  0  0  0  0  0  0
   -6.2675    5.3876  -15.2826 C   0  0  0  0  0  0  0  0  0  0  0  0
   -7.3042    4.5330  -14.9249 C   0  0  0  0  0  0  0  0  0  0  0  0
   -7.5700    3.8383  -13.6693 C   0  0  0  0  0  0  0  0  0  0  0  0
   -7.6156    2.6736  -13.6432 O   0  0  0  0  0  0  0  0  0  0  0  0
   -7.6884    4.8696  -12.5274 N   0  0  0  0  0  0  0  0  0  0  0  0
   -7.9727    4.6934  -11.1744 C   0  0  0  0  0  0  0  0  0  0  0  0
   -7.9808    5.8233  -10.3381 C   0  0  0  0  0  0  0  0  0  0  0  0
   -8.2086    5.6925   -8.9639 C   0  0  0  0  0  0  0  0  0  0  0  0
   -8.4541    4.4283   -8.4584 C   0  0  0  0  0  0  0  0  0  0  0  0
   -8.4753    3.3123   -9.2883 C   0  0  0  0  0  0  0  0  0  0  0  0
   -8.2248    3.4227  -10.6462 C   0  0  0  0  0  0  0  0  0  0  0  0
   -8.7544    2.0932   -8.4705 C   0  0  0  0  0  0  0  0  0  0  0  0
   -9.2231    2.6102   -7.1524 N   0  0  0  0  0  0  0  0  0  0  0  0
   -8.6978    3.9898   -7.0542 C   0  0  0  0  0  0  0  0  0  0  0  0
   -8.0536    4.4224  -16.1063 C   0  0  0  0  0  0  0  0  0  0  0  0
   -9.2822    3.8892  -16.3830 N   0  0  0  0  0  0  0  0  0  0  0  0
   -9.6005    3.7899  -17.6387 C   0  0  0  0  0  0  0  0  0  0  0  0
   -8.7355    4.1300  -18.7930 C   0  0  0  0  0  0  0  0  0  0  0  0
   -7.5854    4.7360  -18.4784 C   0  0  0  0  0  0  0  0  0  0  0  0
   -7.2794    4.9536  -17.1539 N   0  0  0  0  0  0  0  0  0  0  0  0
   -6.2566    5.6413  -16.5992 C   0  0  0  0  0  0  0  0  0  0  0  0
  1  2  1  0
  2  3  1  0
  3  4  2  0
  4  5  1  0
  5  6  1  0
  6  7  1  0
  7  8  2  0
  7  9  1  0
  9 10  1  0
 10 11  2  0
 11 12  1  0
 12 13  2  0
 13 14  1  0
 14 15  2  0
 14 16  1  0
 16 17  1  0
 17 18  1  0
  6 19  2  0
 19 20  1  0
 20 21  2  0
 21 22  1  0
 22 23  2  0
 23 24  1  0
 24 25  1  0
 25  2  1  0
 25  5  2  0
 15 10  1  0
 24 19  1  0
 18 13  1  0
M  END
>  <smiles>  (1004) 
C106080-P157

>  <fragmenstein_outcome>  (1004) 
acceptable

>  <inchikey>  (1004) 
DESTWWLIUQGAEG-UHFFFAOYSA-N

>  <fragmenstein_mode>  (1004) 
expansion

>  <HIPPO Pose ID>  (1004) 
19723

>  <Energy>  (1004) 
78.864365

>  <fragmenstein_error>  (1004) 


>  <tags>  (1004) 
{'openbind_xx01zvns2b_c1_fragmenstein', 'fragmenstein_placed'}

>  <ref_pdb>  (1004) 
1

>  <scratch_subdir>  (1004) 
/opt/xchem-fragalysis-2/maxwin/BulkDock/SCRATCH/511027/C106080-P157

>  <alias>  (1004) 
Cn1ncc2c(C(=O)Nc3ccc4c(c3)CNC4)c3ncccn3c21

>  <HIPPO Compound ID>  (1004) 
83322

>  <fragmenstein_runtime>  (1004) 
4.071248

$$$$
C[C@H](CN)n1ncc2c(C(=O)Nc3ccc4c(c3)CNC4)cc3cccn3c21
     RDKit          3D

 28 32  0  0  0  0  0  0  0  0999 V2000
   -5.6089    7.3607  -19.3963 C   0  0  0  0  0  0  0  0  0  0  0  0
   -4.6602    6.5097  -18.5589 C   0  0  2  0  0  0  0  0  0  0  0  0
   -4.1170    5.2682  -19.2909 C   0  0  0  0  0  0  0  0  0  0  0  0
   -2.8981    4.7189  -18.6896 N   0  0  0  0  0  0  0  0  0  0  0  0
   -5.1963    6.2664  -17.2249 N   0  0  0  0  0  0  0  0  0  0  0  0
   -4.5386    6.9129  -16.2127 N   0  0  0  0  0  0  0  0  0  0  0  0
   -5.2827    6.6974  -15.1258 C   0  0  0  0  0  0  0  0  0  0  0  0
   -6.4238    5.9571  -15.4259 C   0  0  0  0  0  0  0  0  0  0  0  0
   -7.5354    5.5219  -14.6490 C   0  0  0  0  0  0  0  0  0  0  0  0
   -7.6639    5.9505  -13.2213 C   0  0  0  0  0  0  0  0  0  0  0  0
   -7.4965    7.0644  -12.9099 O   0  0  0  0  0  0  0  0  0  0  0  0
   -8.0345    4.7126  -12.3648 N   0  0  0  0  0  0  0  0  0  0  0  0
   -8.1767    4.5771  -10.9898 C   0  0  0  0  0  0  0  0  0  0  0  0
   -8.0514    5.6915  -10.1437 C   0  0  0  0  0  0  0  0  0  0  0  0
   -8.1870    5.5564   -8.7618 C   0  0  0  0  0  0  0  0  0  0  0  0
   -8.4475    4.2979   -8.2564 C   0  0  0  0  0  0  0  0  0  0  0  0
   -8.5853    3.1958   -9.0944 C   0  0  0  0  0  0  0  0  0  0  0  0
   -8.4538    3.3130  -10.4665 C   0  0  0  0  0  0  0  0  0  0  0  0
   -8.8919    1.9882   -8.2764 C   0  0  0  0  0  0  0  0  0  0  0  0
   -8.6518    2.3933   -6.8635 N   0  0  0  0  0  0  0  0  0  0  0  0
   -8.6583    3.8731   -6.8459 C   0  0  0  0  0  0  0  0  0  0  0  0
   -8.5584    4.8623  -15.2320 C   0  0  0  0  0  0  0  0  0  0  0  0
   -8.5238    4.5976  -16.6332 C   0  0  0  0  0  0  0  0  0  0  0  0
   -9.4718    4.1048  -17.5035 C   0  0  0  0  0  0  0  0  0  0  0  0
   -8.8688    4.0350  -18.7678 C   0  0  0  0  0  0  0  0  0  0  0  0
   -7.5767    4.5012  -18.6396 C   0  0  0  0  0  0  0  0  0  0  0  0
   -7.3854    4.9584  -17.3680 N   0  0  0  0  0  0  0  0  0  0  0  0
   -6.3468    5.6752  -16.7720 C   0  0  0  0  0  0  0  0  0  0  0  0
  2  1  1  6
  2  3  1  0
  3  4  1  0
  2  5  1  0
  5  6  1  0
  6  7  2  0
  7  8  1  0
  8  9  1  0
  9 10  1  0
 10 11  2  0
 10 12  1  0
 12 13  1  0
 13 14  2  0
 14 15  1  0
 15 16  2  0
 16 17  1  0
 17 18  2  0
 17 19  1  0
 19 20  1  0
 20 21  1  0
  9 22  2  0
 22 23  1  0
 23 24  2  0
 24 25  1  0
 25 26  2  0
 26 27  1  0
 27 28  1  0
 28  5  1  0
 28  8  2  0
 18 13  1  0
 27 23  1  0
 21 16  1  0
M  END
>  <smiles>  (1005) 
C106081-P157

>  <fragmenstein_outcome>  (1005) 
acceptable

>  <inchikey>  (1005) 
NGJUVEBIHGCBRN-UHFFFAOYSA-N

>  <fragmenstein_mode>  (1005) 
expansion

>  <HIPPO Pose ID>  (1005) 
19724

>  <Energy>  (1005) 
92.008795

>  <fragmenstein_error>  (1005) 


>  <tags>  (1005) 
{'openbind_xx01zvns2b_c1_fragmenstein', 'fragmenstein_placed'}

>  <ref_pdb>  (1005) 
1

>  <scratch_subdir>  (1005) 
/opt/xchem-fragalysis-2/maxwin/BulkDock/SCRATCH/511027/C106081-P157

>  <alias>  (1005) 
C[C@H](CN)n1ncc2c(C(=O)Nc3ccc4c(c3)CNC4)cc3cccn3c21

>  <HIPPO Compound ID>  (1005) 
70600

>  <fragmenstein_runtime>  (1005) 
5.857701

$$$$
Cc1cc(C(=O)Nc2cc(C)c3c(c2)CNC3)c2c(NF)nn(C)c2n1
     RDKit          3D

 26 29  0  0  0  0  0  0  0  0999 V2000
   -9.7893    4.3307  -18.1282 C   0  0  0  0  0  0  0  0  0  0  0  0
   -8.6130    4.6535  -17.2484 C   0  0  0  0  0  0  0  0  0  0  0  0
   -8.5549    4.1276  -15.9662 C   0  0  0  0  0  0  0  0  0  0  0  0
   -7.4414    4.3866  -15.1617 C   0  0  0  0  0  0  0  0  0  0  0  0
   -7.3962    3.7773  -13.8210 C   0  0  0  0  0  0  0  0  0  0  0  0
   -7.2138    2.6309  -13.7229 O   0  0  0  0  0  0  0  0  0  0  0  0
   -7.6905    4.8390  -12.7410 N   0  0  0  0  0  0  0  0  0  0  0  0
   -7.9086    4.7007  -11.3712 C   0  0  0  0  0  0  0  0  0  0  0  0
   -7.9228    5.8577  -10.5737 C   0  0  0  0  0  0  0  0  0  0  0  0
   -8.1289    5.7816   -9.1853 C   0  0  0  0  0  0  0  0  0  0  0  0
   -8.0852    7.0223   -8.3482 C   0  0  0  0  0  0  0  0  0  0  0  0
   -8.3245    4.5213   -8.6326 C   0  0  0  0  0  0  0  0  0  0  0  0
   -8.3579    3.3806   -9.4301 C   0  0  0  0  0  0  0  0  0  0  0  0
   -8.1393    3.4481  -10.7975 C   0  0  0  0  0  0  0  0  0  0  0  0
   -8.6709    2.1873   -8.5888 C   0  0  0  0  0  0  0  0  0  0  0  0
   -8.5344    2.6453   -7.1783 N   0  0  0  0  0  0  0  0  0  0  0  0
   -8.5508    4.1234   -7.2117 C   0  0  0  0  0  0  0  0  0  0  0  0
   -6.4190    5.2003  -15.6663 C   0  0  0  0  0  0  0  0  0  0  0  0
   -5.1368    5.6985  -15.2941 C   0  0  0  0  0  0  0  0  0  0  0  0
   -4.5002    5.3420  -14.1550 N   0  0  0  0  0  0  0  0  0  0  0  0
   -3.6226    6.4181  -13.7879 F   0  0  0  0  0  0  0  0  0  0  0  0
   -4.6424    6.5278  -16.2271 N   0  0  0  0  0  0  0  0  0  0  0  0
   -5.5247    6.4444  -17.2391 N   0  0  0  0  0  0  0  0  0  0  0  0
   -5.2647    7.1120  -18.4886 C   0  0  0  0  0  0  0  0  0  0  0  0
   -6.6226    5.6950  -16.9455 C   0  0  0  0  0  0  0  0  0  0  0  0
   -7.6718    5.4764  -17.7554 N   0  0  0  0  0  0  0  0  0  0  0  0
  1  2  1  0
  2  3  2  0
  3  4  1  0
  4  5  1  0
  5  6  2  0
  5  7  1  0
  7  8  1  0
  8  9  2  0
  9 10  1  0
 10 11  1  0
 10 12  2  0
 12 13  1  0
 13 14  2  0
 13 15  1  0
 15 16  1  0
 16 17  1  0
  4 18  2  0
 18 19  1  0
 19 20  1  0
 20 21  1  0
 19 22  2  0
 22 23  1  0
 23 24  1  0
 23 25  1  0
 25 26  2  0
 26  2  1  0
 14  8  1  0
 25 18  1  0
 17 12  1  0
M  END
>  <smiles>  (1006) 
C106109-P157

>  <fragmenstein_outcome>  (1006) 
acceptable

>  <inchikey>  (1006) 
UXGZCDDASUDLPS-UHFFFAOYSA-N

>  <fragmenstein_mode>  (1006) 
expansion

>  <HIPPO Pose ID>  (1006) 
19734

>  <Energy>  (1006) 
36.508506

>  <fragmenstein_error>  (1006) 


>  <tags>  (1006) 
{'openbind_xx01zvns2b_c1_fragmenstein', 'fragmenstein_placed'}

>  <ref_pdb>  (1006) 
1

>  <scratch_subdir>  (1006) 
/opt/xchem-fragalysis-2/maxwin/BulkDock/SCRATCH/511027/C106109-P157

>  <alias>  (1006) 
Cc1cc(C(=O)Nc2cc(C)c3c(c2)CNC3)c2c(NF)nn(C)c2n1

>  <HIPPO Compound ID>  (1006) 
106109

>  <fragmenstein_runtime>  (1006) 
3.091198

$$$$
CCc1cc(C(=O)Nc2cc3c(cc2C)CNC3)c2cnn(C)c2n1
     RDKit          3D

 25 28  0  0  0  0  0  0  0  0999 V2000
   -9.8793    3.3725  -18.3427 C   0  0  0  0  0  0  0  0  0  0  0  0
   -9.5986    4.7684  -17.8720 C   0  0  0  0  0  0  0  0  0  0  0  0
   -8.3847    4.8372  -16.9857 C   0  0  0  0  0  0  0  0  0  0  0  0
   -8.4599    4.3265  -15.6951 C   0  0  0  0  0  0  0  0  0  0  0  0
   -7.3419    4.4006  -14.8682 C   0  0  0  0  0  0  0  0  0  0  0  0
   -7.4182    3.7756  -13.5412 C   0  0  0  0  0  0  0  0  0  0  0  0
   -7.2748    2.6227  -13.4416 O   0  0  0  0  0  0  0  0  0  0  0  0
   -7.7932    4.8324  -12.4809 N   0  0  0  0  0  0  0  0  0  0  0  0
   -7.9719    4.7094  -11.1009 C   0  0  0  0  0  0  0  0  0  0  0  0
   -8.1831    3.4406  -10.5464 C   0  0  0  0  0  0  0  0  0  0  0  0
   -8.4011    3.3389   -9.1843 C   0  0  0  0  0  0  0  0  0  0  0  0
   -8.3829    4.4607   -8.3682 C   0  0  0  0  0  0  0  0  0  0  0  0
   -8.1889    5.7259   -8.8943 C   0  0  0  0  0  0  0  0  0  0  0  0
   -7.9922    5.8646  -10.2805 C   0  0  0  0  0  0  0  0  0  0  0  0
   -7.8005    7.2445  -10.8454 C   0  0  0  0  0  0  0  0  0  0  0  0
   -8.6369    4.0464   -6.9602 C   0  0  0  0  0  0  0  0  0  0  0  0
   -8.5685    2.5681   -6.9484 N   0  0  0  0  0  0  0  0  0  0  0  0
   -8.7160    2.1310   -8.3673 C   0  0  0  0  0  0  0  0  0  0  0  0
   -6.1886    5.0167  -15.3555 C   0  0  0  0  0  0  0  0  0  0  0  0
   -4.8882    5.3461  -14.9258 C   0  0  0  0  0  0  0  0  0  0  0  0
   -4.1508    5.9212  -15.8864 N   0  0  0  0  0  0  0  0  0  0  0  0
   -4.9640    5.8667  -16.9692 N   0  0  0  0  0  0  0  0  0  0  0  0
   -4.4337    6.1170  -18.2853 C   0  0  0  0  0  0  0  0  0  0  0  0
   -6.2309    5.4515  -16.6716 C   0  0  0  0  0  0  0  0  0  0  0  0
   -7.2813    5.4153  -17.5075 N   0  0  0  0  0  0  0  0  0  0  0  0
  1  2  1  0
  2  3  1  0
  3  4  2  0
  4  5  1  0
  5  6  1  0
  6  7  2  0
  6  8  1  0
  8  9  1  0
  9 10  2  0
 10 11  1  0
 11 12  2  0
 12 13  1  0
 13 14  2  0
 14 15  1  0
 12 16  1  0
 16 17  1  0
 17 18  1  0
  5 19  2  0
 19 20  1  0
 20 21  2  0
 21 22  1  0
 22 23  1  0
 22 24  1  0
 24 25  2  0
 25  3  1  0
 14  9  1  0
 24 19  1  0
 18 11  1  0
M  END
>  <smiles>  (1007) 
C106111-P157

>  <fragmenstein_outcome>  (1007) 
acceptable

>  <inchikey>  (1007) 
ZCPOHASAYKLFKO-UHFFFAOYSA-N

>  <fragmenstein_mode>  (1007) 
expansion

>  <HIPPO Pose ID>  (1007) 
19735

>  <Energy>  (1007) 
63.442227

>  <fragmenstein_error>  (1007) 


>  <tags>  (1007) 
{'openbind_xx01zvns2b_c1_fragmenstein', 'fragmenstein_placed'}

>  <ref_pdb>  (1007) 
1

>  <scratch_subdir>  (1007) 
/opt/xchem-fragalysis-2/maxwin/BulkDock/SCRATCH/511027/C106111-P157

>  <alias>  (1007) 
CCc1cc(C(=O)Nc2cc3c(cc2C)CNC3)c2cnn(C)c2n1

>  <HIPPO Compound ID>  (1007) 
103669

>  <fragmenstein_runtime>  (1007) 
4.717679

$$$$
Cc1cc(C(=O)C(=O)c2ccc3c(c2)CNC3)c2cnn(C)c2n1
     RDKit          3D

 24 27  0  0  0  0  0  0  0  0999 V2000
   -9.7128    4.1598  -18.2965 C   0  0  0  0  0  0  0  0  0  0  0  0
   -8.6150    4.5565  -17.3510 C   0  0  0  0  0  0  0  0  0  0  0  0
   -8.7882    4.3565  -15.9894 C   0  0  0  0  0  0  0  0  0  0  0  0
   -7.7932    4.7617  -15.0917 C   0  0  0  0  0  0  0  0  0  0  0  0
   -8.0905    4.6620  -13.6660 C   0  0  0  0  0  0  0  0  0  0  0  0
   -9.1821    5.0707  -13.2785 O   0  0  0  0  0  0  0  0  0  0  0  0
   -7.1247    4.0434  -12.6730 C   0  0  0  0  0  0  0  0  0  0  0  0
   -6.0551    3.5699  -13.0243 O   0  0  0  0  0  0  0  0  0  0  0  0
   -7.5544    4.0576  -11.2555 C   0  0  0  0  0  0  0  0  0  0  0  0
   -7.6434    5.2831  -10.5657 C   0  0  0  0  0  0  0  0  0  0  0  0
   -8.0201    5.3095   -9.2198 C   0  0  0  0  0  0  0  0  0  0  0  0
   -8.3071    4.1065   -8.5990 C   0  0  0  0  0  0  0  0  0  0  0  0
   -8.2652    2.9044   -9.2995 C   0  0  0  0  0  0  0  0  0  0  0  0
   -7.8780    2.8543  -10.6285 C   0  0  0  0  0  0  0  0  0  0  0  0
   -8.6789    1.7941   -8.3950 C   0  0  0  0  0  0  0  0  0  0  0  0
   -8.6495    2.3654   -7.0195 N   0  0  0  0  0  0  0  0  0  0  0  0
   -8.6787    3.8376   -7.1806 C   0  0  0  0  0  0  0  0  0  0  0  0
   -6.6508    5.3813  -15.6059 C   0  0  0  0  0  0  0  0  0  0  0  0
   -5.4627    5.9979  -15.1559 C   0  0  0  0  0  0  0  0  0  0  0  0
   -4.7270    6.5122  -16.1521 N   0  0  0  0  0  0  0  0  0  0  0  0
   -5.4213    6.1563  -17.2600 N   0  0  0  0  0  0  0  0  0  0  0  0
   -4.9226    6.4601  -18.5779 C   0  0  0  0  0  0  0  0  0  0  0  0
   -6.6016    5.5277  -16.9837 C   0  0  0  0  0  0  0  0  0  0  0  0
   -7.5274    5.1487  -17.8803 N   0  0  0  0  0  0  0  0  0  0  0  0
  1  2  1  0
  2  3  2  0
  3  4  1  0
  4  5  1  0
  5  6  2  0
  5  7  1  0
  7  8  2  0
  7  9  1  0
  9 10  2  0
 10 11  1  0
 11 12  2  0
 12 13  1  0
 13 14  2  0
 13 15  1  0
 15 16  1  0
 16 17  1  0
  4 18  2  0
 18 19  1  0
 19 20  2  0
 20 21  1  0
 21 22  1  0
 21 23  1  0
 23 24  2  0
 24  2  1  0
 14  9  1  0
 23 18  1  0
 17 12  1  0
M  END
>  <smiles>  (1008) 
C106134-P157

>  <fragmenstein_outcome>  (1008) 
acceptable

>  <inchikey>  (1008) 
PVKIIPCSEWWOEC-UHFFFAOYSA-N

>  <fragmenstein_mode>  (1008) 
expansion

>  <HIPPO Pose ID>  (1008) 
19746

>  <Energy>  (1008) 
110.854622

>  <fragmenstein_error>  (1008) 


>  <tags>  (1008) 
{'openbind_xx01zvns2b_c1_fragmenstein', 'fragmenstein_placed'}

>  <ref_pdb>  (1008) 
1

>  <scratch_subdir>  (1008) 
/opt/xchem-fragalysis-2/maxwin/BulkDock/SCRATCH/511027/C106134-P157

>  <alias>  (1008) 
Cc1cc(C(=O)C(=O)c2ccc3c(c2)CNC3)c2cnn(C)c2n1

>  <HIPPO Compound ID>  (1008) 
104716

>  <fragmenstein_runtime>  (1008) 
3.596615

$$$$
CCc1c2nc(C)cc(C(=O)C(=O)c3ccc4c(c3)CNC4)c2cn1C
     RDKit          3D

 26 29  0  0  0  0  0  0  0  0999 V2000
   -5.1620    8.5893  -18.9578 C   0  0  0  0  0  0  0  0  0  0  0  0
   -5.1223    7.0780  -18.7993 C   0  0  0  0  0  0  0  0  0  0  0  0
   -5.4172    6.6340  -17.4029 C   0  0  0  0  0  0  0  0  0  0  0  0
   -6.4897    5.9149  -16.9271 C   0  0  0  0  0  0  0  0  0  0  0  0
   -7.5399    5.4865  -17.6478 N   0  0  0  0  0  0  0  0  0  0  0  0
   -8.3977    4.7179  -16.9127 C   0  0  0  0  0  0  0  0  0  0  0  0
   -9.5700    4.1667  -17.6836 C   0  0  0  0  0  0  0  0  0  0  0  0
   -8.2692    4.4235  -15.5198 C   0  0  0  0  0  0  0  0  0  0  0  0
   -7.1763    4.8771  -14.7500 C   0  0  0  0  0  0  0  0  0  0  0  0
   -6.9089    4.5431  -13.3355 C   0  0  0  0  0  0  0  0  0  0  0  0
   -5.8560    4.8540  -12.7898 O   0  0  0  0  0  0  0  0  0  0  0  0
   -7.8551    3.7359  -12.4985 C   0  0  0  0  0  0  0  0  0  0  0  0
   -8.2694    2.6823  -12.9581 O   0  0  0  0  0  0  0  0  0  0  0  0
   -8.1295    4.0811  -11.0871 C   0  0  0  0  0  0  0  0  0  0  0  0
   -7.8872    5.3531  -10.5380 C   0  0  0  0  0  0  0  0  0  0  0  0
   -8.0401    5.5642   -9.1610 C   0  0  0  0  0  0  0  0  0  0  0  0
   -8.4249    4.4942   -8.3673 C   0  0  0  0  0  0  0  0  0  0  0  0
   -8.6841    3.2457   -8.9158 C   0  0  0  0  0  0  0  0  0  0  0  0
   -8.5584    3.0274  -10.2694 C   0  0  0  0  0  0  0  0  0  0  0  0
   -8.9968    2.2674   -7.8362 C   0  0  0  0  0  0  0  0  0  0  0  0
   -9.2271    3.0975   -6.6232 N   0  0  0  0  0  0  0  0  0  0  0  0
   -8.5704    4.3998   -6.8866 C   0  0  0  0  0  0  0  0  0  0  0  0
   -6.3115    5.6398  -15.5467 C   0  0  0  0  0  0  0  0  0  0  0  0
   -5.1259    6.2391  -15.1895 C   0  0  0  0  0  0  0  0  0  0  0  0
   -4.5753    6.8080  -16.3206 N   0  0  0  0  0  0  0  0  0  0  0  0
   -3.2739    7.4402  -16.3355 C   0  0  0  0  0  0  0  0  0  0  0  0
  1  2  1  0
  2  3  1  0
  3  4  2  0
  4  5  1  0
  5  6  2  0
  6  7  1  0
  6  8  1  0
  8  9  2  0
  9 10  1  0
 10 11  2  0
 10 12  1  0
 12 13  2  0
 12 14  1  0
 14 15  2  0
 15 16  1  0
 16 17  2  0
 17 18  1  0
 18 19  2  0
 18 20  1  0
 20 21  1  0
 21 22  1  0
  9 23  1  0
 23 24  2  0
 24 25  1  0
 25 26  1  0
 25  3  1  0
 23  4  1  0
 19 14  1  0
 22 17  1  0
M  END
>  <smiles>  (1009) 
C106136-P157

>  <fragmenstein_outcome>  (1009) 
acceptable

>  <inchikey>  (1009) 
PVMKOWWEQLBTAM-UHFFFAOYSA-N

>  <fragmenstein_mode>  (1009) 
expansion

>  <HIPPO Pose ID>  (1009) 
19747

>  <Energy>  (1009) 
95.659216

>  <fragmenstein_error>  (1009) 


>  <tags>  (1009) 
{'openbind_xx01zvns2b_c1_fragmenstein', 'fragmenstein_placed'}

>  <ref_pdb>  (1009) 
1

>  <scratch_subdir>  (1009) 
/opt/xchem-fragalysis-2/maxwin/BulkDock/SCRATCH/511027/C106136-P157

>  <alias>  (1009) 
CCc1c2nc(C)cc(C(=O)C(=O)c3ccc4c(c3)CNC4)c2cn1C

>  <HIPPO Compound ID>  (1009) 
106136

>  <fragmenstein_runtime>  (1009) 
3.348467

$$$$
Cc1cc([C@](O)(Nc2ccc3c(c2)CNC3)C(=O)NC(C)C)c2cnn(C)c2n1
     RDKit          3D

 29 32  0  0  0  0  0  0  0  0999 V2000
   -9.8259    4.1888  -18.2041 C   0  0  0  0  0  0  0  0  0  0  0  0
   -8.7159    4.5796  -17.2727 C   0  0  0  0  0  0  0  0  0  0  0  0
   -8.8173    4.2989  -15.9151 C   0  0  0  0  0  0  0  0  0  0  0  0
   -7.8144    4.6520  -14.9633 C   0  0  0  0  0  0  0  0  0  0  0  0
   -7.9836    4.1726  -13.5089 C   0  0  2  0  0  0  0  0  0  0  0  0
   -9.3768    4.0497  -13.3304 O   0  0  0  0  0  0  0  0  0  0  0  0
   -7.5994    5.1936  -12.5249 N   0  0  0  0  0  0  0  0  0  0  0  0
   -7.9256    4.9441  -11.1554 C   0  0  0  0  0  0  0  0  0  0  0  0
   -7.7983    6.0252  -10.2572 C   0  0  0  0  0  0  0  0  0  0  0  0
   -8.0127    5.8736   -8.8791 C   0  0  0  0  0  0  0  0  0  0  0  0
   -8.3427    4.6217   -8.3963 C   0  0  0  0  0  0  0  0  0  0  0  0
   -8.4576    3.5404   -9.2534 C   0  0  0  0  0  0  0  0  0  0  0  0
   -8.2482    3.6814  -10.6169 C   0  0  0  0  0  0  0  0  0  0  0  0
   -8.7691    2.3081   -8.4670 C   0  0  0  0  0  0  0  0  0  0  0  0
   -9.1578    2.7994   -7.1166 N   0  0  0  0  0  0  0  0  0  0  0  0
   -8.5822    4.1594   -6.9995 C   0  0  0  0  0  0  0  0  0  0  0  0
   -7.0692    2.8338  -13.2998 C   0  0  0  0  0  0  0  0  0  0  0  0
   -7.4733    1.7585  -13.5205 O   0  0  0  0  0  0  0  0  0  0  0  0
   -5.6885    3.2989  -12.7546 N   0  0  0  0  0  0  0  0  0  0  0  0
   -4.5597    2.5306  -12.2807 C   0  0  0  0  0  0  0  0  0  0  0  0
   -3.4614    2.4730  -13.3360 C   0  0  0  0  0  0  0  0  0  0  0  0
   -4.0388    3.1075  -10.9701 C   0  0  0  0  0  0  0  0  0  0  0  0
   -6.7104    5.3204  -15.5359 C   0  0  0  0  0  0  0  0  0  0  0  0
   -5.4772    5.8912  -15.1328 C   0  0  0  0  0  0  0  0  0  0  0  0
   -4.7483    6.3724  -16.1530 N   0  0  0  0  0  0  0  0  0  0  0  0
   -5.4999    6.0564  -17.2333 N   0  0  0  0  0  0  0  0  0  0  0  0
   -5.0087    6.1966  -18.5837 C   0  0  0  0  0  0  0  0  0  0  0  0
   -6.7084    5.5157  -16.9121 C   0  0  0  0  0  0  0  0  0  0  0  0
   -7.6584    5.1983  -17.8025 N   0  0  0  0  0  0  0  0  0  0  0  0
  1  2  1  0
  2  3  2  0
  3  4  1  0
  4  5  1  0
  5  6  1  1
  5  7  1  0
  7  8  1  0
  8  9  2  0
  9 10  1  0
 10 11  2  0
 11 12  1  0
 12 13  2  0
 12 14  1  0
 14 15  1  0
 15 16  1  0
  5 17  1  0
 17 18  2  0
 17 19  1  0
 19 20  1  0
 20 21  1  0
 20 22  1  0
  4 23  2  0
 23 24  1  0
 24 25  2  0
 25 26  1  0
 26 27  1  0
 26 28  1  0
 28 29  2  0
 29  2  1  0
 13  8  1  0
 28 23  1  0
 16 11  1  0
M  END
>  <smiles>  (1010) 
C106158-P157

>  <fragmenstein_outcome>  (1010) 
acceptable

>  <inchikey>  (1010) 
RSMSCMIZMPLIBR-UHFFFAOYSA-N

>  <fragmenstein_mode>  (1010) 
expansion

>  <HIPPO Pose ID>  (1010) 
19760

>  <Energy>  (1010) 
107.128636

>  <fragmenstein_error>  (1010) 


>  <tags>  (1010) 
{'openbind_xx01zvns2b_c1_fragmenstein', 'fragmenstein_placed'}

>  <ref_pdb>  (1010) 
1

>  <scratch_subdir>  (1010) 
/opt/xchem-fragalysis-2/maxwin/BulkDock/SCRATCH/511027/C106158-P157

>  <alias>  (1010) 
Cc1cc([C@](O)(Nc2ccc3c(c2)CNC3)C(=O)NC(C)C)c2cnn(C)c2n1

>  <HIPPO Compound ID>  (1010) 
75555

>  <fragmenstein_runtime>  (1010) 
6.466498

$$$$
CNC(=O)[C@](O)(Nc1ccc2c(c1)CNC2)c1cc(C)nc2c1cnn2C
     RDKit          3D

 27 30  0  0  0  0  0  0  0  0999 V2000
   -3.9849    2.0954  -12.8899 C   0  0  0  0  0  0  0  0  0  0  0  0
   -5.0231    3.0484  -13.1329 N   0  0  0  0  0  0  0  0  0  0  0  0
   -6.5623    2.8478  -13.3094 C   0  0  0  0  0  0  0  0  0  0  0  0
   -7.1987    1.8652  -13.3590 O   0  0  0  0  0  0  0  0  0  0  0  0
   -7.1904    4.3338  -13.4030 C   0  0  2  0  0  0  0  0  0  0  0  0
   -6.3184    5.2646  -12.7581 O   0  0  0  0  0  0  0  0  0  0  0  0
   -8.5229    4.3676  -12.7634 N   0  0  0  0  0  0  0  0  0  0  0  0
   -8.5362    4.3636  -11.3499 C   0  0  0  0  0  0  0  0  0  0  0  0
   -8.3228    5.5663  -10.6398 C   0  0  0  0  0  0  0  0  0  0  0  0
   -8.2697    5.5898   -9.2440 C   0  0  0  0  0  0  0  0  0  0  0  0
   -8.4432    4.3963   -8.5704 C   0  0  0  0  0  0  0  0  0  0  0  0
   -8.6628    3.2077   -9.2570 C   0  0  0  0  0  0  0  0  0  0  0  0
   -8.6992    3.1693  -10.6404 C   0  0  0  0  0  0  0  0  0  0  0  0
   -8.8821    2.1007   -8.2825 C   0  0  0  0  0  0  0  0  0  0  0  0
   -8.5212    2.6638   -6.9512 N   0  0  0  0  0  0  0  0  0  0  0  0
   -8.5007    4.1356   -7.1058 C   0  0  0  0  0  0  0  0  0  0  0  0
   -7.2901    4.7472  -14.8717 C   0  0  0  0  0  0  0  0  0  0  0  0
   -8.3737    4.3499  -15.6928 C   0  0  0  0  0  0  0  0  0  0  0  0
   -8.3964    4.6234  -17.0644 C   0  0  0  0  0  0  0  0  0  0  0  0
   -9.5776    4.1970  -17.8947 C   0  0  0  0  0  0  0  0  0  0  0  0
   -7.4033    5.2625  -17.7134 N   0  0  0  0  0  0  0  0  0  0  0  0
   -6.3860    5.6380  -16.9232 C   0  0  0  0  0  0  0  0  0  0  0  0
   -6.2779    5.4631  -15.5523 C   0  0  0  0  0  0  0  0  0  0  0  0
   -5.0571    6.1065  -15.2311 C   0  0  0  0  0  0  0  0  0  0  0  0
   -4.4121    6.5895  -16.2969 N   0  0  0  0  0  0  0  0  0  0  0  0
   -5.2138    6.2199  -17.3223 N   0  0  0  0  0  0  0  0  0  0  0  0
   -4.7332    6.3639  -18.6704 C   0  0  0  0  0  0  0  0  0  0  0  0
  1  2  1  0
  2  3  1  0
  3  4  2  0
  3  5  1  0
  5  6  1  1
  5  7  1  0
  7  8  1  0
  8  9  2  0
  9 10  1  0
 10 11  2  0
 11 12  1  0
 12 13  2  0
 12 14  1  0
 14 15  1  0
 15 16  1  0
  5 17  1  0
 17 18  2  0
 18 19  1  0
 19 20  1  0
 19 21  2  0
 21 22  1  0
 22 23  2  0
 23 24  1  0
 24 25  2  0
 25 26  1  0
 26 27  1  0
 13  8  1  0
 23 17  1  0
 16 11  1  0
 26 22  1  0
M  END
>  <smiles>  (1011) 
C106160-P157

>  <fragmenstein_outcome>  (1011) 
acceptable

>  <inchikey>  (1011) 
GSPBRPXQCJLMFB-UHFFFAOYSA-N

>  <fragmenstein_mode>  (1011) 
expansion

>  <HIPPO Pose ID>  (1011) 
19761

>  <Energy>  (1011) 
104.706117

>  <fragmenstein_error>  (1011) 


>  <tags>  (1011) 
{'openbind_xx01zvns2b_c1_fragmenstein', 'fragmenstein_placed'}

>  <ref_pdb>  (1011) 
1

>  <scratch_subdir>  (1011) 
/opt/xchem-fragalysis-2/maxwin/BulkDock/SCRATCH/511027/C106160-P157

>  <alias>  (1011) 
CNC(=O)[C@](O)(Nc1ccc2c(c1)CNC2)c1cc(C)nc2c1cnn2C

>  <HIPPO Compound ID>  (1011) 
106160

>  <fragmenstein_runtime>  (1011) 
4.52325

$$$$
C[C@@H]1C[C@@H](C(=O)Nc2ccc3c(c2)CNC3)[C@@H]2CNN(C)[C@@H]2N1C#N
     RDKit          3D

 25 28  0  0  0  0  0  0  0  0999 V2000
   -9.3312    4.4520  -18.1282 C   0  0  0  0  0  0  0  0  0  0  0  0
   -8.2174    4.4787  -17.0846 C   0  0  2  0  0  0  0  0  0  0  0  0
   -8.6552    4.9676  -15.7087 C   0  0  0  0  0  0  0  0  0  0  0  0
   -7.5110    5.2765  -14.7156 C   0  0  1  0  0  0  0  0  0  0  0  0
   -7.6207    4.2937  -13.5350 C   0  0  0  0  0  0  0  0  0  0  0  0
   -7.5572    3.1330  -13.6648 O   0  0  0  0  0  0  0  0  0  0  0  0
   -7.9121    5.1542  -12.2667 N   0  0  0  0  0  0  0  0  0  0  0  0
   -8.0827    4.7762  -10.9387 C   0  0  0  0  0  0  0  0  0  0  0  0
   -8.0692    5.8108   -9.9834 C   0  0  0  0  0  0  0  0  0  0  0  0
   -8.2719    5.5426   -8.6303 C   0  0  0  0  0  0  0  0  0  0  0  0
   -8.5239    4.2367   -8.2628 C   0  0  0  0  0  0  0  0  0  0  0  0
   -8.5472    3.2100   -9.2053 C   0  0  0  0  0  0  0  0  0  0  0  0
   -8.3088    3.4546  -10.5509 C   0  0  0  0  0  0  0  0  0  0  0  0
   -8.8469    1.9247   -8.5031 C   0  0  0  0  0  0  0  0  0  0  0  0
   -9.3614    2.3248   -7.1620 N   0  0  0  0  0  0  0  0  0  0  0  0
   -8.8032    3.6702   -6.9120 C   0  0  0  0  0  0  0  0  0  0  0  0
   -6.0646    5.2571  -15.2421 C   0  0  2  0  0  0  0  0  0  0  0  0
   -5.3810    6.6274  -15.2384 C   0  0  0  0  0  0  0  0  0  0  0  0
   -4.4175    6.6173  -16.3479 N   0  0  0  0  0  0  0  0  0  0  0  0
   -4.5166    5.3000  -16.9386 N   0  0  0  0  0  0  0  0  0  0  0  0
   -4.1069    5.2921  -18.3377 C   0  0  0  0  0  0  0  0  0  0  0  0
   -5.8621    4.7848  -16.6686 C   0  0  2  0  0  0  0  0  0  0  0  0
   -6.9946    5.2223  -17.5170 N   0  0  0  0  0  0  0  0  0  0  0  0
   -6.9380    6.3910  -18.1684 C   0  0  0  0  0  0  0  0  0  0  0  0
   -6.7357    7.4323  -18.6378 N   0  0  0  0  0  0  0  0  0  0  0  0
  2  1  1  6
  2  3  1  0
  3  4  1  0
  4  5  1  1
  5  6  2  0
  5  7  1  0
  7  8  1  0
  8  9  2  0
  9 10  1  0
 10 11  2  0
 11 12  1  0
 12 13  2  0
 12 14  1  0
 14 15  1  0
 15 16  1  0
  4 17  1  0
 17 18  1  6
 18 19  1  0
 19 20  1  0
 20 21  1  0
 22 20  1  6
 22 23  1  0
 23 24  1  0
 24 25  3  0
 23  2  1  0
 13  8  1  0
 22 17  1  0
 16 11  1  0
M  END
>  <smiles>  (1012) 
C106164-P157

>  <fragmenstein_outcome>  (1012) 
acceptable

>  <inchikey>  (1012) 
SOHMGEABLIQHPZ-UHFFFAOYSA-N

>  <fragmenstein_mode>  (1012) 
expansion

>  <HIPPO Pose ID>  (1012) 
19763

>  <Energy>  (1012) 
11.213868

>  <fragmenstein_error>  (1012) 


>  <tags>  (1012) 
{'openbind_xx01zvns2b_c1_fragmenstein', 'fragmenstein_placed'}

>  <ref_pdb>  (1012) 
1

>  <scratch_subdir>  (1012) 
/opt/xchem-fragalysis-2/maxwin/BulkDock/SCRATCH/511027/C106164-P157

>  <alias>  (1012) 
C[C@@H]1C[C@@H](C(=O)Nc2ccc3c(c2)CNC3)[C@@H]2CNN(C)[C@@H]2N1C#N

>  <HIPPO Compound ID>  (1012) 
91810

>  <fragmenstein_runtime>  (1012) 
4.825824

$$$$
Cc1cc([C@@](O)(Nc2ccc3c(c2)CNC3)C(=O)NC2CCOCC2)c2cnn(C)c2n1
     RDKit          3D

 32 36  0  0  0  0  0  0  0  0999 V2000
   -9.8500    4.1170  -18.0037 C   0  0  0  0  0  0  0  0  0  0  0  0
   -8.6682    4.5563  -17.1871 C   0  0  0  0  0  0  0  0  0  0  0  0
   -8.6075    4.2678  -15.8190 C   0  0  0  0  0  0  0  0  0  0  0  0
   -7.5077    4.6607  -15.0237 C   0  0  0  0  0  0  0  0  0  0  0  0
   -7.4170    4.3621  -13.5261 C   0  0  1  0  0  0  0  0  0  0  0  0
   -6.7120    5.4729  -13.0145 O   0  0  0  0  0  0  0  0  0  0  0  0
   -8.7356    4.3809  -12.8544 N   0  0  0  0  0  0  0  0  0  0  0  0
   -8.6399    4.3201  -11.4238 C   0  0  0  0  0  0  0  0  0  0  0  0
   -8.4168    5.4938  -10.6642 C   0  0  0  0  0  0  0  0  0  0  0  0
   -8.3246    5.4633   -9.2689 C   0  0  0  0  0  0  0  0  0  0  0  0
   -8.4844    4.2478   -8.6380 C   0  0  0  0  0  0  0  0  0  0  0  0
   -8.6853    3.0806   -9.3670 C   0  0  0  0  0  0  0  0  0  0  0  0
   -8.7481    3.0941  -10.7525 C   0  0  0  0  0  0  0  0  0  0  0  0
   -8.7989    1.9317   -8.4189 C   0  0  0  0  0  0  0  0  0  0  0  0
   -9.0498    2.5553   -7.0885 N   0  0  0  0  0  0  0  0  0  0  0  0
   -8.4968    3.9250   -7.1831 C   0  0  0  0  0  0  0  0  0  0  0  0
   -6.6965    2.9501  -13.2645 C   0  0  0  0  0  0  0  0  0  0  0  0
   -7.1738    1.9134  -13.5219 O   0  0  0  0  0  0  0  0  0  0  0  0
   -5.3133    3.2959  -12.6470 N   0  0  0  0  0  0  0  0  0  0  0  0
   -4.2751    2.4352  -12.1332 C   0  0  0  0  0  0  0  0  0  0  0  0
   -3.1058    2.3791  -13.1167 C   0  0  0  0  0  0  0  0  0  0  0  0
   -2.0542    3.4436  -12.8162 C   0  0  0  0  0  0  0  0  0  0  0  0
   -2.6298    4.5684  -12.1606 O   0  0  0  0  0  0  0  0  0  0  0  0
   -3.0921    4.2527  -10.8432 C   0  0  0  0  0  0  0  0  0  0  0  0
   -3.8099    2.9068  -10.7625 C   0  0  0  0  0  0  0  0  0  0  0  0
   -6.4996    5.3653  -15.7357 C   0  0  0  0  0  0  0  0  0  0  0  0
   -5.2507    5.9839  -15.4583 C   0  0  0  0  0  0  0  0  0  0  0  0
   -4.7062    6.5887  -16.5221 N   0  0  0  0  0  0  0  0  0  0  0  0
   -5.5863    6.3087  -17.5089 N   0  0  0  0  0  0  0  0  0  0  0  0
   -5.3516    6.7658  -18.8551 C   0  0  0  0  0  0  0  0  0  0  0  0
   -6.6794    5.6064  -17.0871 C   0  0  0  0  0  0  0  0  0  0  0  0
   -7.7175    5.2394  -17.8490 N   0  0  0  0  0  0  0  0  0  0  0  0
  1  2  1  0
  2  3  2  0
  3  4  1  0
  4  5  1  0
  5  6  1  1
  5  7  1  0
  7  8  1  0
  8  9  2  0
  9 10  1  0
 10 11  2  0
 11 12  1  0
 12 13  2  0
 12 14  1  0
 14 15  1  0
 15 16  1  0
  5 17  1  0
 17 18  2  0
 17 19  1  0
 19 20  1  0
 20 21  1  0
 21 22  1  0
 22 23  1  0
 23 24  1  0
 24 25  1  0
  4 26  2  0
 26 27  1  0
 27 28  2  0
 28 29  1  0
 29 30  1  0
 29 31  1  0
 31 32  2  0
 32  2  1  0
 13  8  1  0
 25 20  1  0
 31 26  1  0
 16 11  1  0
M  END
>  <smiles>  (1013) 
C106167-P157

>  <fragmenstein_outcome>  (1013) 
acceptable

>  <inchikey>  (1013) 
PKAFNQCPRXXDRN-UHFFFAOYSA-N

>  <fragmenstein_mode>  (1013) 
expansion

>  <HIPPO Pose ID>  (1013) 
19764

>  <Energy>  (1013) 
113.677442

>  <fragmenstein_error>  (1013) 


>  <tags>  (1013) 
{'openbind_xx01zvns2b_c1_fragmenstein', 'fragmenstein_placed'}

>  <ref_pdb>  (1013) 
1

>  <scratch_subdir>  (1013) 
/opt/xchem-fragalysis-2/maxwin/BulkDock/SCRATCH/511027/C106167-P157

>  <alias>  (1013) 
Cc1cc([C@@](O)(Nc2ccc3c(c2)CNC3)C(=O)NC2CCOCC2)c2cnn(C)c2n1

>  <HIPPO Compound ID>  (1013) 
90375

>  <fragmenstein_runtime>  (1013) 
5.9777

$$$$
Cc1ccc(S(=O)(=O)CNC(=O)[C@](O)(Nc2ccc3c(c2)CNC3)c2cc(C)nc3c2cnn3C)cc1
     RDKit          3D

 37 41  0  0  0  0  0  0  0  0999 V2000
    2.1621   -0.5509  -11.9014 C   0  0  0  0  0  0  0  0  0  0  0  0
    0.9718    0.3628  -11.9157 C   0  0  0  0  0  0  0  0  0  0  0  0
    0.8951    1.4031  -12.8501 C   0  0  0  0  0  0  0  0  0  0  0  0
   -0.1911    2.2797  -12.8438 C   0  0  0  0  0  0  0  0  0  0  0  0
   -1.2091    2.1109  -11.9013 C   0  0  0  0  0  0  0  0  0  0  0  0
   -2.5481    3.2732  -11.8288 S   0  0  0  0  0  0  0  0  0  0  0  0
   -2.8004    3.5535  -10.4282 O   0  0  0  0  0  0  0  0  0  0  0  0
   -2.2259    4.3587  -12.7420 O   0  0  0  0  0  0  0  0  0  0  0  0
   -3.9540    2.3889  -12.5279 C   0  0  0  0  0  0  0  0  0  0  0  0
   -5.0221    3.2424  -13.0110 N   0  0  0  0  0  0  0  0  0  0  0  0
   -6.4854    2.9007  -13.4085 C   0  0  0  0  0  0  0  0  0  0  0  0
   -7.0295    1.8677  -13.4804 O   0  0  0  0  0  0  0  0  0  0  0  0
   -7.1940    4.3260  -13.7471 C   0  0  2  0  0  0  0  0  0  0  0  0
   -6.4074    5.4298  -13.3031 O   0  0  0  0  0  0  0  0  0  0  0  0
   -8.5222    4.3702  -13.0918 N   0  0  0  0  0  0  0  0  0  0  0  0
   -8.5158    4.4154  -11.6762 C   0  0  0  0  0  0  0  0  0  0  0  0
   -8.3404    5.6492  -11.0123 C   0  0  0  0  0  0  0  0  0  0  0  0
   -8.2693    5.7241   -9.6187 C   0  0  0  0  0  0  0  0  0  0  0  0
   -8.3905    4.5512   -8.8980 C   0  0  0  0  0  0  0  0  0  0  0  0
   -8.5815    3.3321   -9.5361 C   0  0  0  0  0  0  0  0  0  0  0  0
   -8.6339    3.2431  -10.9182 C   0  0  0  0  0  0  0  0  0  0  0  0
   -8.7583    2.2574   -8.5167 C   0  0  0  0  0  0  0  0  0  0  0  0
   -8.4396    2.8851   -7.2053 N   0  0  0  0  0  0  0  0  0  0  0  0
   -8.4071    4.3482   -7.4228 C   0  0  0  0  0  0  0  0  0  0  0  0
   -7.3005    4.5082  -15.2638 C   0  0  0  0  0  0  0  0  0  0  0  0
   -8.5192    4.3500  -15.9710 C   0  0  0  0  0  0  0  0  0  0  0  0
   -8.5763    4.4813  -17.3619 C   0  0  0  0  0  0  0  0  0  0  0  0
   -9.8549    4.3066  -18.1047 C   0  0  0  0  0  0  0  0  0  0  0  0
   -7.5172    4.7505  -18.1331 N   0  0  0  0  0  0  0  0  0  0  0  0
   -6.3772    4.9052  -17.4595 C   0  0  0  0  0  0  0  0  0  0  0  0
   -6.1882    4.8238  -16.0906 C   0  0  0  0  0  0  0  0  0  0  0  0
   -4.8073    5.1165  -15.9473 C   0  0  0  0  0  0  0  0  0  0  0  0
   -4.1697    5.3052  -17.1116 N   0  0  0  0  0  0  0  0  0  0  0  0
   -5.1617    5.1613  -18.0216 N   0  0  0  0  0  0  0  0  0  0  0  0
   -4.9018    5.2865  -19.4353 C   0  0  0  0  0  0  0  0  0  0  0  0
   -1.1399    1.0895  -10.9550 C   0  0  0  0  0  0  0  0  0  0  0  0
   -0.0449    0.2242  -10.9614 C   0  0  0  0  0  0  0  0  0  0  0  0
  1  2  1  0
  2  3  2  0
  3  4  1  0
  4  5  2  0
  5  6  1  0
  6  7  2  0
  6  8  2  0
  6  9  1  0
  9 10  1  0
 10 11  1  0
 11 12  2  0
 11 13  1  0
 13 14  1  1
 13 15  1  0
 15 16  1  0
 16 17  2  0
 17 18  1  0
 18 19  2  0
 19 20  1  0
 20 21  2  0
 20 22  1  0
 22 23  1  0
 23 24  1  0
 13 25  1  0
 25 26  2  0
 26 27  1  0
 27 28  1  0
 27 29  2  0
 29 30  1  0
 30 31  2  0
 31 32  1  0
 32 33  2  0
 33 34  1  0
 34 35  1  0
  5 36  1  0
 36 37  2  0
 37  2  1  0
 21 16  1  0
 31 25  1  0
 24 19  1  0
 34 30  1  0
M  END
>  <smiles>  (1014) 
C106175-P157

>  <fragmenstein_outcome>  (1014) 
acceptable

>  <inchikey>  (1014) 
USDVOYNRFYIUHV-UHFFFAOYSA-N

>  <fragmenstein_mode>  (1014) 
expansion

>  <HIPPO Pose ID>  (1014) 
19768

>  <Energy>  (1014) 
191.923573

>  <fragmenstein_error>  (1014) 


>  <tags>  (1014) 
{'openbind_xx01zvns2b_c1_fragmenstein', 'fragmenstein_placed'}

>  <ref_pdb>  (1014) 
1

>  <scratch_subdir>  (1014) 
/opt/xchem-fragalysis-2/maxwin/BulkDock/SCRATCH/511027/C106175-P157

>  <alias>  (1014) 
Cc1ccc(S(=O)(=O)CNC(=O)[C@](O)(Nc2ccc3c(c2)CNC3)c2cc(C)nc3c2cnn3C)cc1

>  <HIPPO Compound ID>  (1014) 
73212

>  <fragmenstein_runtime>  (1014) 
15.300696

$$$$
Cc1cc(C(=O)Nc2ccc3c(c2)CNC3)c2c(n1)N(C)[C@@]1(C2)NN[C@H](C(C)C)S1
     RDKit          3D

 30 34  0  0  0  0  0  0  0  0999 V2000
   -9.6315    3.9960  -17.8537 C   0  0  0  0  0  0  0  0  0  0  0  0
   -8.5451    4.6400  -17.0441 C   0  0  0  0  0  0  0  0  0  0  0  0
   -8.6343    4.7140  -15.6523 C   0  0  0  0  0  0  0  0  0  0  0  0
   -7.6525    5.4255  -14.9667 C   0  0  0  0  0  0  0  0  0  0  0  0
   -7.7714    5.7664  -13.5301 C   0  0  0  0  0  0  0  0  0  0  0  0
   -7.6407    6.8905  -13.2417 O   0  0  0  0  0  0  0  0  0  0  0  0
   -7.9870    4.5226  -12.6395 N   0  0  0  0  0  0  0  0  0  0  0  0
   -8.1754    4.4166  -11.2605 C   0  0  0  0  0  0  0  0  0  0  0  0
   -8.0366    5.5517  -10.4393 C   0  0  0  0  0  0  0  0  0  0  0  0
   -8.1849    5.4641   -9.0527 C   0  0  0  0  0  0  0  0  0  0  0  0
   -8.4779    4.2294   -8.5101 C   0  0  0  0  0  0  0  0  0  0  0  0
   -8.6147    3.1018   -9.3159 C   0  0  0  0  0  0  0  0  0  0  0  0
   -8.4659    3.1736  -10.6940 C   0  0  0  0  0  0  0  0  0  0  0  0
   -8.8784    1.9183   -8.4430 C   0  0  0  0  0  0  0  0  0  0  0  0
   -9.2567    2.4840   -7.1199 N   0  0  0  0  0  0  0  0  0  0  0  0
   -8.6697    3.8420   -7.0834 C   0  0  0  0  0  0  0  0  0  0  0  0
   -6.6098    5.9745  -15.6898 C   0  0  0  0  0  0  0  0  0  0  0  0
   -6.5984    5.8715  -17.0656 C   0  0  0  0  0  0  0  0  0  0  0  0
   -7.5350    5.2093  -17.7445 N   0  0  0  0  0  0  0  0  0  0  0  0
   -5.5155    6.5846  -17.6449 N   0  0  0  0  0  0  0  0  0  0  0  0
   -5.1496    6.0918  -18.9563 C   0  0  0  0  0  0  0  0  0  0  0  0
   -4.5532    6.6854  -16.5471 C   0  0  1  0  0  0  0  0  0  0  0  0
   -5.4218    6.7618  -15.2494 C   0  0  0  0  0  0  0  0  0  0  0  0
   -3.5320    5.6303  -16.3577 N   0  0  0  0  0  0  0  0  0  0  0  0
   -2.3096    5.9769  -17.0926 N   0  0  0  0  0  0  0  0  0  0  0  0
   -2.0277    7.3969  -16.8204 C   0  0  2  0  0  0  0  0  0  0  0  0
   -1.0907    7.6006  -15.5991 C   0  0  0  0  0  0  0  0  0  0  0  0
   -1.6356    7.1100  -14.2530 C   0  0  0  0  0  0  0  0  0  0  0  0
   -0.6561    9.0670  -15.4660 C   0  0  0  0  0  0  0  0  0  0  0  0
   -3.6231    8.2463  -16.7278 S   0  0  0  0  0  0  0  0  0  0  0  0
  1  2  1  0
  2  3  2  0
  3  4  1  0
  4  5  1  0
  5  6  2  0
  5  7  1  0
  7  8  1  0
  8  9  2  0
  9 10  1  0
 10 11  2  0
 11 12  1  0
 12 13  2  0
 12 14  1  0
 14 15  1  0
 15 16  1  0
  4 17  2  0
 17 18  1  0
 18 19  2  0
 18 20  1  0
 20 21  1  0
 20 22  1  0
 22 23  1  1
 22 24  1  0
 24 25  1  0
 25 26  1  0
 26 27  1  1
 27 28  1  0
 27 29  1  0
 26 30  1  0
 19  2  1  0
 30 22  1  0
 13  8  1  0
 23 17  1  0
 16 11  1  0
M  END
>  <smiles>  (1015) 
C106191-P157

>  <fragmenstein_outcome>  (1015) 
acceptable

>  <inchikey>  (1015) 
LBDAQNFRJFKPPA-UHFFFAOYSA-N

>  <fragmenstein_mode>  (1015) 
expansion

>  <HIPPO Pose ID>  (1015) 
19777

>  <Energy>  (1015) 
5.61191

>  <fragmenstein_error>  (1015) 


>  <tags>  (1015) 
{'openbind_xx01zvns2b_c1_fragmenstein', 'fragmenstein_placed'}

>  <ref_pdb>  (1015) 
1

>  <scratch_subdir>  (1015) 
/opt/xchem-fragalysis-2/maxwin/BulkDock/SCRATCH/511027/C106191-P157

>  <alias>  (1015) 
Cc1cc(C(=O)Nc2ccc3c(c2)CNC3)c2c(n1)N(C)[C@@]1(C2)NN[C@H](C(C)C)S1

>  <HIPPO Compound ID>  (1015) 
75524

>  <fragmenstein_runtime>  (1015) 
5.682272

$$$$
Cc1cc([C@@](O)(Nc2ccc3c(c2)CNC3)C(=O)NCC(F)F)c2cnn(C)c2n1
     RDKit          3D

 30 33  0  0  0  0  0  0  0  0999 V2000
   -9.8039    4.0064  -17.7573 C   0  0  0  0  0  0  0  0  0  0  0  0
   -8.6057    4.5139  -17.0135 C   0  0  0  0  0  0  0  0  0  0  0  0
   -8.4862    4.3805  -15.6258 C   0  0  0  0  0  0  0  0  0  0  0  0
   -7.3353    4.8347  -14.9278 C   0  0  0  0  0  0  0  0  0  0  0  0
   -7.1718    4.5995  -13.4247 C   0  0  1  0  0  0  0  0  0  0  0  0
   -6.2827    5.6047  -12.9369 O   0  0  0  0  0  0  0  0  0  0  0  0
   -8.4519    4.8471  -12.7377 N   0  0  0  0  0  0  0  0  0  0  0  0
   -8.4675    4.6896  -11.3351 C   0  0  0  0  0  0  0  0  0  0  0  0
   -8.2869    5.8188  -10.5015 C   0  0  0  0  0  0  0  0  0  0  0  0
   -8.2542    5.7022   -9.1103 C   0  0  0  0  0  0  0  0  0  0  0  0
   -8.4141    4.4452   -8.5619 C   0  0  0  0  0  0  0  0  0  0  0  0
   -8.5933    3.3261   -9.3663 C   0  0  0  0  0  0  0  0  0  0  0  0
   -8.6087    3.4266  -10.7499 C   0  0  0  0  0  0  0  0  0  0  0  0
   -8.8066    2.1256   -8.5055 C   0  0  0  0  0  0  0  0  0  0  0  0
   -8.5271    2.5709   -7.1107 N   0  0  0  0  0  0  0  0  0  0  0  0
   -8.5009    4.0482   -7.1298 C   0  0  0  0  0  0  0  0  0  0  0  0
   -6.5813    3.1057  -13.1884 C   0  0  0  0  0  0  0  0  0  0  0  0
   -7.1855    2.1170  -13.3573 O   0  0  0  0  0  0  0  0  0  0  0  0
   -5.1054    3.3226  -12.7218 N   0  0  0  0  0  0  0  0  0  0  0  0
   -4.1105    2.3688  -12.2793 C   0  0  0  0  0  0  0  0  0  0  0  0
   -3.0796    2.0897  -13.3605 C   0  0  0  0  0  0  0  0  0  0  0  0
   -2.4162    3.2430  -13.6553 F   0  0  0  0  0  0  0  0  0  0  0  0
   -2.1317    1.2233  -12.9217 F   0  0  0  0  0  0  0  0  0  0  0  0
   -6.3464    5.4186  -15.7522 C   0  0  0  0  0  0  0  0  0  0  0  0
   -5.0674    6.0141  -15.6142 C   0  0  0  0  0  0  0  0  0  0  0  0
   -4.5145    6.3690  -16.7826 N   0  0  0  0  0  0  0  0  0  0  0  0
   -5.4275    5.9401  -17.6867 N   0  0  0  0  0  0  0  0  0  0  0  0
   -5.1390    5.9061  -19.0999 C   0  0  0  0  0  0  0  0  0  0  0  0
   -6.5693    5.4606  -17.1170 C   0  0  0  0  0  0  0  0  0  0  0  0
   -7.6535    5.0554  -17.7846 N   0  0  0  0  0  0  0  0  0  0  0  0
  1  2  1  0
  2  3  2  0
  3  4  1  0
  4  5  1  0
  5  6  1  1
  5  7  1  0
  7  8  1  0
  8  9  2  0
  9 10  1  0
 10 11  2  0
 11 12  1  0
 12 13  2  0
 12 14  1  0
 14 15  1  0
 15 16  1  0
  5 17  1  0
 17 18  2  0
 17 19  1  0
 19 20  1  0
 20 21  1  0
 21 22  1  0
 21 23  1  0
  4 24  2  0
 24 25  1  0
 25 26  2  0
 26 27  1  0
 27 28  1  0
 27 29  1  0
 29 30  2  0
 30  2  1  0
 13  8  1  0
 29 24  1  0
 16 11  1  0
M  END
>  <smiles>  (1016) 
C106159-P157

>  <fragmenstein_outcome>  (1016) 
acceptable

>  <inchikey>  (1016) 
XGMBZNGPVLXRDY-UHFFFAOYSA-N

>  <fragmenstein_mode>  (1016) 
expansion

>  <HIPPO Pose ID>  (1016) 
19778

>  <Energy>  (1016) 
135.383524

>  <fragmenstein_error>  (1016) 


>  <tags>  (1016) 
{'openbind_xx01zvns2b_c1_fragmenstein', 'fragmenstein_placed'}

>  <ref_pdb>  (1016) 
1

>  <scratch_subdir>  (1016) 
/opt/xchem-fragalysis-2/maxwin/BulkDock/SCRATCH/511027/C106159-P157

>  <alias>  (1016) 
Cc1cc([C@@](O)(Nc2ccc3c(c2)CNC3)C(=O)NCC(F)F)c2cnn(C)c2n1

>  <HIPPO Compound ID>  (1016) 
106193

>  <fragmenstein_runtime>  (1016) 
4.9212

$$$$
Cc1cc(C(=O)Nc2ccc3c(c2)CNC3)c2cnn(C(C)C)c2n1
     RDKit          3D

 25 28  0  0  0  0  0  0  0  0999 V2000
   -9.8000    4.0028  -18.1301 C   0  0  0  0  0  0  0  0  0  0  0  0
   -8.5818    4.3679  -17.3291 C   0  0  0  0  0  0  0  0  0  0  0  0
   -8.6790    4.5231  -15.9467 C   0  0  0  0  0  0  0  0  0  0  0  0
   -7.5596    4.9630  -15.2381 C   0  0  0  0  0  0  0  0  0  0  0  0
   -7.6568    5.4170  -13.8391 C   0  0  0  0  0  0  0  0  0  0  0  0
   -7.3689    6.5271  -13.6185 O   0  0  0  0  0  0  0  0  0  0  0  0
   -8.1267    4.2958  -12.8856 N   0  0  0  0  0  0  0  0  0  0  0  0
   -8.2457    4.2790  -11.4944 C   0  0  0  0  0  0  0  0  0  0  0  0
   -8.0768    5.4610  -10.7530 C   0  0  0  0  0  0  0  0  0  0  0  0
   -8.1679    5.4571   -9.3583 C   0  0  0  0  0  0  0  0  0  0  0  0
   -8.4151    4.2555   -8.7242 C   0  0  0  0  0  0  0  0  0  0  0  0
   -8.5879    3.0829   -9.4497 C   0  0  0  0  0  0  0  0  0  0  0  0
   -8.5155    3.0760  -10.8368 C   0  0  0  0  0  0  0  0  0  0  0  0
   -8.8450    1.9562   -8.5052 C   0  0  0  0  0  0  0  0  0  0  0  0
   -8.6034    2.4997   -7.1385 N   0  0  0  0  0  0  0  0  0  0  0  0
   -8.5593    3.9724   -7.2702 C   0  0  0  0  0  0  0  0  0  0  0  0
   -6.3641    5.1637  -15.9362 C   0  0  0  0  0  0  0  0  0  0  0  0
   -5.0500    5.5962  -15.6684 C   0  0  0  0  0  0  0  0  0  0  0  0
   -4.2871    5.6521  -16.7651 N   0  0  0  0  0  0  0  0  0  0  0  0
   -5.1314    5.2608  -17.7557 N   0  0  0  0  0  0  0  0  0  0  0  0
   -4.7171    5.3217  -19.1537 C   0  0  0  0  0  0  0  0  0  0  0  0
   -3.2483    4.9352  -19.3438 C   0  0  0  0  0  0  0  0  0  0  0  0
   -4.9772    6.7159  -19.7234 C   0  0  0  0  0  0  0  0  0  0  0  0
   -6.3866    4.9417  -17.3010 C   0  0  0  0  0  0  0  0  0  0  0  0
   -7.4440    4.5519  -18.0343 N   0  0  0  0  0  0  0  0  0  0  0  0
  1  2  1  0
  2  3  2  0
  3  4  1  0
  4  5  1  0
  5  6  2  0
  5  7  1  0
  7  8  1  0
  8  9  2  0
  9 10  1  0
 10 11  2  0
 11 12  1  0
 12 13  2  0
 12 14  1  0
 14 15  1  0
 15 16  1  0
  4 17  2  0
 17 18  1  0
 18 19  2  0
 19 20  1  0
 20 21  1  0
 21 22  1  0
 21 23  1  0
 20 24  1  0
 24 25  2  0
 25  2  1  0
 13  8  1  0
 24 17  1  0
 16 11  1  0
M  END
>  <smiles>  (1017) 
C106155-P157

>  <fragmenstein_outcome>  (1017) 
acceptable

>  <inchikey>  (1017) 
LDCROAATQPVYBX-UHFFFAOYSA-N

>  <fragmenstein_mode>  (1017) 
expansion

>  <HIPPO Pose ID>  (1017) 
19781

>  <Energy>  (1017) 
58.1884

>  <fragmenstein_error>  (1017) 


>  <tags>  (1017) 
{'openbind_xx01zvns2b_c1_fragmenstein', 'fragmenstein_placed'}

>  <ref_pdb>  (1017) 
1

>  <scratch_subdir>  (1017) 
/opt/xchem-fragalysis-2/maxwin/BulkDock/SCRATCH/511027/C106155-P157

>  <alias>  (1017) 
Cc1cc(C(=O)Nc2ccc3c(c2)CNC3)c2cnn(C(C)C)c2n1

>  <HIPPO Compound ID>  (1017) 
78450

>  <fragmenstein_runtime>  (1017) 
4.574288

$$$$
Cc1cc(C(=O)Nc2ccc3c(c2)CNC3)c2c(OCCCO)n(C)c(C)c2n1
     RDKit          3D

 29 32  0  0  0  0  0  0  0  0999 V2000
   -9.7716    3.9301  -17.9089 C   0  0  0  0  0  0  0  0  0  0  0  0
   -8.5983    4.5204  -17.1797 C   0  0  0  0  0  0  0  0  0  0  0  0
   -8.6689    4.7239  -15.7745 C   0  0  0  0  0  0  0  0  0  0  0  0
   -7.6372    5.3752  -15.0714 C   0  0  0  0  0  0  0  0  0  0  0  0
   -7.7703    5.7982  -13.6710 C   0  0  0  0  0  0  0  0  0  0  0  0
   -7.6411    6.9311  -13.4199 O   0  0  0  0  0  0  0  0  0  0  0  0
   -8.0814    4.5959  -12.7485 N   0  0  0  0  0  0  0  0  0  0  0  0
   -8.1999    4.5261  -11.3602 C   0  0  0  0  0  0  0  0  0  0  0  0
   -8.0596    5.6837  -10.5742 C   0  0  0  0  0  0  0  0  0  0  0  0
   -8.1517    5.6241   -9.1814 C   0  0  0  0  0  0  0  0  0  0  0  0
   -8.3852    4.3944   -8.5973 C   0  0  0  0  0  0  0  0  0  0  0  0
   -8.5394    3.2475   -9.3692 C   0  0  0  0  0  0  0  0  0  0  0  0
   -8.4479    3.2914  -10.7533 C   0  0  0  0  0  0  0  0  0  0  0  0
   -8.8243    2.0882   -8.4733 C   0  0  0  0  0  0  0  0  0  0  0  0
   -8.5705    2.5750   -7.0879 N   0  0  0  0  0  0  0  0  0  0  0  0
   -8.5500    4.0527   -7.1578 C   0  0  0  0  0  0  0  0  0  0  0  0
   -6.5725    5.7093  -15.9104 C   0  0  0  0  0  0  0  0  0  0  0  0
   -5.3563    6.2819  -15.5918 C   0  0  0  0  0  0  0  0  0  0  0  0
   -4.8493    6.6692  -14.4180 O   0  0  0  0  0  0  0  0  0  0  0  0
   -3.7844    5.8544  -13.9087 C   0  0  0  0  0  0  0  0  0  0  0  0
   -4.2884    4.5206  -13.3614 C   0  0  0  0  0  0  0  0  0  0  0  0
   -3.1996    3.7616  -12.6205 C   0  0  0  0  0  0  0  0  0  0  0  0
   -2.0818    3.5336  -13.4731 O   0  0  0  0  0  0  0  0  0  0  0  0
   -4.6802    6.4762  -16.7914 N   0  0  0  0  0  0  0  0  0  0  0  0
   -3.4397    7.2058  -16.9424 C   0  0  0  0  0  0  0  0  0  0  0  0
   -5.3655    5.8767  -17.8333 C   0  0  0  0  0  0  0  0  0  0  0  0
   -4.8757    5.7602  -19.2315 C   0  0  0  0  0  0  0  0  0  0  0  0
   -6.5466    5.4402  -17.2985 C   0  0  0  0  0  0  0  0  0  0  0  0
   -7.5437    4.8463  -17.9742 N   0  0  0  0  0  0  0  0  0  0  0  0
  1  2  1  0
  2  3  1  0
  3  4  2  0
  4  5  1  0
  5  6  2  0
  5  7  1  0
  7  8  1  0
  8  9  2  0
  9 10  1  0
 10 11  2  0
 11 12  1  0
 12 13  2  0
 12 14  1  0
 14 15  1  0
 15 16  1  0
  4 17  1  0
 17 18  2  0
 18 19  1  0
 19 20  1  0
 20 21  1  0
 21 22  1  0
 22 23  1  0
 18 24  1  0
 24 25  1  0
 24 26  1  0
 26 27  1  0
 26 28  2  0
 28 29  1  0
 29  2  2  0
 13  8  1  0
 28 17  1  0
 16 11  1  0
M  END
>  <smiles>  (1018) 
C106196-P157

>  <fragmenstein_outcome>  (1018) 
acceptable

>  <inchikey>  (1018) 
JCPPJNCHDBCHRU-UHFFFAOYSA-N

>  <fragmenstein_mode>  (1018) 
expansion

>  <HIPPO Pose ID>  (1018) 
19782

>  <Energy>  (1018) 
56.694417

>  <fragmenstein_error>  (1018) 


>  <tags>  (1018) 
{'openbind_xx01zvns2b_c1_fragmenstein', 'fragmenstein_placed'}

>  <ref_pdb>  (1018) 
1

>  <scratch_subdir>  (1018) 
/opt/xchem-fragalysis-2/maxwin/BulkDock/SCRATCH/511027/C106196-P157

>  <alias>  (1018) 
Cc1cc(C(=O)Nc2ccc3c(c2)CNC3)c2c(OCCCO)n(C)c(C)c2n1

>  <HIPPO Compound ID>  (1018) 
73775

>  <fragmenstein_runtime>  (1018) 
6.032897

$$$$
COCCOn1c(C)c2nc(C)cc(C(=O)Nc3ccc4c(c3)CNC4)c2c1C
     RDKit          3D

 29 32  0  0  0  0  0  0  0  0999 V2000
   -0.6004    6.8636  -13.5993 C   0  0  0  0  0  0  0  0  0  0  0  0
   -0.8960    7.7811  -14.6423 O   0  0  0  0  0  0  0  0  0  0  0  0
   -1.0049    7.1669  -15.9302 C   0  0  0  0  0  0  0  0  0  0  0  0
   -2.3514    6.4733  -16.1449 C   0  0  0  0  0  0  0  0  0  0  0  0
   -3.3860    7.4644  -16.2115 O   0  0  0  0  0  0  0  0  0  0  0  0
   -4.6273    6.8198  -16.1753 N   0  0  0  0  0  0  0  0  0  0  0  0
   -5.2716    6.3390  -17.2855 C   0  0  0  0  0  0  0  0  0  0  0  0
   -4.7522    6.4544  -18.6673 C   0  0  0  0  0  0  0  0  0  0  0  0
   -6.4086    5.7457  -16.8118 C   0  0  0  0  0  0  0  0  0  0  0  0
   -7.3221    5.1008  -17.5539 N   0  0  0  0  0  0  0  0  0  0  0  0
   -8.3726    4.6454  -16.8156 C   0  0  0  0  0  0  0  0  0  0  0  0
   -9.4656    3.9898  -17.6123 C   0  0  0  0  0  0  0  0  0  0  0  0
   -8.5305    4.7967  -15.4092 C   0  0  0  0  0  0  0  0  0  0  0  0
   -7.5826    5.4864  -14.6294 C   0  0  0  0  0  0  0  0  0  0  0  0
   -7.8116    5.8172  -13.2125 C   0  0  0  0  0  0  0  0  0  0  0  0
   -7.8057    6.9446  -12.9081 O   0  0  0  0  0  0  0  0  0  0  0  0
   -8.0443    4.5483  -12.3571 N   0  0  0  0  0  0  0  0  0  0  0  0
   -8.2180    4.4027  -10.9779 C   0  0  0  0  0  0  0  0  0  0  0  0
   -8.1230    5.5113  -10.1173 C   0  0  0  0  0  0  0  0  0  0  0  0
   -8.2865    5.3706   -8.7338 C   0  0  0  0  0  0  0  0  0  0  0  0
   -8.5613    4.1128   -8.2338 C   0  0  0  0  0  0  0  0  0  0  0  0
   -8.6556    3.0115   -9.0795 C   0  0  0  0  0  0  0  0  0  0  0  0
   -8.4783    3.1337  -10.4513 C   0  0  0  0  0  0  0  0  0  0  0  0
   -8.9232    1.7950   -8.2564 C   0  0  0  0  0  0  0  0  0  0  0  0
   -9.3442    2.3050   -6.9248 N   0  0  0  0  0  0  0  0  0  0  0  0
   -8.7852    3.6729   -6.8258 C   0  0  0  0  0  0  0  0  0  0  0  0
   -6.5079    5.9421  -15.4061 C   0  0  0  0  0  0  0  0  0  0  0  0
   -5.3720    6.6370  -15.0235 C   0  0  0  0  0  0  0  0  0  0  0  0
   -4.9066    7.1498  -13.7063 C   0  0  0  0  0  0  0  0  0  0  0  0
  1  2  1  0
  2  3  1  0
  3  4  1  0
  4  5  1  0
  5  6  1  0
  6  7  1  0
  7  8  1  0
  7  9  2  0
  9 10  1  0
 10 11  2  0
 11 12  1  0
 11 13  1  0
 13 14  2  0
 14 15  1  0
 15 16  2  0
 15 17  1  0
 17 18  1  0
 18 19  2  0
 19 20  1  0
 20 21  2  0
 21 22  1  0
 22 23  2  0
 22 24  1  0
 24 25  1  0
 25 26  1  0
 14 27  1  0
 27 28  2  0
 28 29  1  0
 28  6  1  0
 27  9  1  0
 23 18  1  0
 26 21  1  0
M  END
>  <smiles>  (1019) 
C106197-P157

>  <fragmenstein_outcome>  (1019) 
acceptable

>  <inchikey>  (1019) 
KZBMORAOXLTXBM-UHFFFAOYSA-N

>  <fragmenstein_mode>  (1019) 
expansion

>  <HIPPO Pose ID>  (1019) 
19783

>  <Energy>  (1019) 
43.690603

>  <fragmenstein_error>  (1019) 


>  <tags>  (1019) 
{'openbind_xx01zvns2b_c1_fragmenstein', 'fragmenstein_placed'}

>  <ref_pdb>  (1019) 
1

>  <scratch_subdir>  (1019) 
/opt/xchem-fragalysis-2/maxwin/BulkDock/SCRATCH/511027/C106197-P157

>  <alias>  (1019) 
COCCOn1c(C)c2nc(C)cc(C(=O)Nc3ccc4c(c3)CNC4)c2c1C

>  <HIPPO Compound ID>  (1019) 
85825

>  <fragmenstein_runtime>  (1019) 
3.664922

$$$$
Cc1cc(C(=O)Nc2cc(C)c3c(c2)CNC3)c2cnn(C)c2n1
     RDKit          3D

 24 27  0  0  0  0  0  0  0  0999 V2000
   -9.7813    3.8841  -17.9273 C   0  0  0  0  0  0  0  0  0  0  0  0
   -8.6387    4.4881  -17.1663 C   0  0  0  0  0  0  0  0  0  0  0  0
   -8.7096    4.6513  -15.7832 C   0  0  0  0  0  0  0  0  0  0  0  0
   -7.6876    5.3492  -15.1292 C   0  0  0  0  0  0  0  0  0  0  0  0
   -7.7888    5.7554  -13.7137 C   0  0  0  0  0  0  0  0  0  0  0  0
   -7.6390    6.8888  -13.4729 O   0  0  0  0  0  0  0  0  0  0  0  0
   -8.1069    4.5650  -12.7781 N   0  0  0  0  0  0  0  0  0  0  0  0
   -8.2094    4.5074  -11.3875 C   0  0  0  0  0  0  0  0  0  0  0  0
   -8.0118    5.6629  -10.6094 C   0  0  0  0  0  0  0  0  0  0  0  0
   -8.1083    5.6309   -9.2095 C   0  0  0  0  0  0  0  0  0  0  0  0
   -7.8823    6.8694   -8.4004 C   0  0  0  0  0  0  0  0  0  0  0  0
   -8.3689    4.4037   -8.6175 C   0  0  0  0  0  0  0  0  0  0  0  0
   -8.5685    3.2573   -9.3837 C   0  0  0  0  0  0  0  0  0  0  0  0
   -8.4997    3.2895  -10.7695 C   0  0  0  0  0  0  0  0  0  0  0  0
   -8.8609    2.1042   -8.4820 C   0  0  0  0  0  0  0  0  0  0  0  0
   -8.5733    2.5829   -7.1023 N   0  0  0  0  0  0  0  0  0  0  0  0
   -8.5186    4.0590   -7.1741 C   0  0  0  0  0  0  0  0  0  0  0  0
   -6.6065    5.8103  -15.8913 C   0  0  0  0  0  0  0  0  0  0  0  0
   -5.4194    6.5539  -15.7146 C   0  0  0  0  0  0  0  0  0  0  0  0
   -4.7282    6.7136  -16.8525 N   0  0  0  0  0  0  0  0  0  0  0  0
   -5.4767    6.0384  -17.7624 N   0  0  0  0  0  0  0  0  0  0  0  0
   -5.0485    5.9120  -19.1347 C   0  0  0  0  0  0  0  0  0  0  0  0
   -6.6282    5.5228  -17.2415 C   0  0  0  0  0  0  0  0  0  0  0  0
   -7.5924    4.8818  -17.9155 N   0  0  0  0  0  0  0  0  0  0  0  0
  1  2  1  0
  2  3  2  0
  3  4  1  0
  4  5  1  0
  5  6  2  0
  5  7  1  0
  7  8  1  0
  8  9  2  0
  9 10  1  0
 10 11  1  0
 10 12  2  0
 12 13  1  0
 13 14  2  0
 13 15  1  0
 15 16  1  0
 16 17  1  0
  4 18  2  0
 18 19  1  0
 19 20  2  0
 20 21  1  0
 21 22  1  0
 21 23  1  0
 23 24  2  0
 24  2  1  0
 14  8  1  0
 23 18  1  0
 17 12  1  0
M  END
>  <smiles>  (1020) 
C106198-P157

>  <fragmenstein_outcome>  (1020) 
acceptable

>  <inchikey>  (1020) 
IMCWWZCXPJHZGW-UHFFFAOYSA-N

>  <fragmenstein_mode>  (1020) 
expansion

>  <HIPPO Pose ID>  (1020) 
19784

>  <Energy>  (1020) 
58.710888

>  <fragmenstein_error>  (1020) 


>  <tags>  (1020) 
{'openbind_xx01zvns2b_c1_fragmenstein', 'fragmenstein_placed'}

>  <ref_pdb>  (1020) 
1

>  <scratch_subdir>  (1020) 
/opt/xchem-fragalysis-2/maxwin/BulkDock/SCRATCH/511027/C106198-P157

>  <alias>  (1020) 
Cc1cc(C(=O)Nc2cc(C)c3c(c2)CNC3)c2cnn(C)c2n1

>  <HIPPO Compound ID>  (1020) 
85613

>  <fragmenstein_runtime>  (1020) 
5.307612

$$$$
CSc1cc2c(cc1NC(=O)c1cc(C)nc3c1cnn3C)CNC2
     RDKit          3D

 25 28  0  0  0  0  0  0  0  0999 V2000
   -8.7969    8.4803  -10.1499 C   0  0  0  0  0  0  0  0  0  0  0  0
   -8.0707    7.3487  -11.3708 S   0  0  0  0  0  0  0  0  0  0  0  0
   -8.2103    5.7398  -10.5559 C   0  0  0  0  0  0  0  0  0  0  0  0
   -8.3229    5.6217   -9.1612 C   0  0  0  0  0  0  0  0  0  0  0  0
   -8.4520    4.3602   -8.5991 C   0  0  0  0  0  0  0  0  0  0  0  0
   -8.4621    3.2181   -9.3847 C   0  0  0  0  0  0  0  0  0  0  0  0
   -8.2963    3.2956  -10.7564 C   0  0  0  0  0  0  0  0  0  0  0  0
   -8.1672    4.5608  -11.3478 C   0  0  0  0  0  0  0  0  0  0  0  0
   -8.0464    4.6603  -12.7379 N   0  0  0  0  0  0  0  0  0  0  0  0
   -7.6048    3.6157  -13.7820 C   0  0  0  0  0  0  0  0  0  0  0  0
   -7.3457    2.4858  -13.6579 O   0  0  0  0  0  0  0  0  0  0  0  0
   -7.6301    4.1961  -15.1394 C   0  0  0  0  0  0  0  0  0  0  0  0
   -8.8311    4.1986  -15.8600 C   0  0  0  0  0  0  0  0  0  0  0  0
   -8.8267    4.5429  -17.2075 C   0  0  0  0  0  0  0  0  0  0  0  0
  -10.0861    4.4537  -18.0204 C   0  0  0  0  0  0  0  0  0  0  0  0
   -7.7222    4.9347  -17.8684 N   0  0  0  0  0  0  0  0  0  0  0  0
   -6.5959    4.9149  -17.1388 C   0  0  0  0  0  0  0  0  0  0  0  0
   -6.4639    4.5873  -15.7996 C   0  0  0  0  0  0  0  0  0  0  0  0
   -5.0834    4.7256  -15.5460 C   0  0  0  0  0  0  0  0  0  0  0  0
   -4.3863    5.1078  -16.6276 N   0  0  0  0  0  0  0  0  0  0  0  0
   -5.3330    5.1525  -17.5994 N   0  0  0  0  0  0  0  0  0  0  0  0
   -4.9786    5.3839  -18.9785 C   0  0  0  0  0  0  0  0  0  0  0  0
   -8.6937    2.0206   -8.5250 C   0  0  0  0  0  0  0  0  0  0  0  0
   -8.5690    2.5041   -7.1195 N   0  0  0  0  0  0  0  0  0  0  0  0
   -8.6258    3.9803   -7.1692 C   0  0  0  0  0  0  0  0  0  0  0  0
  1  2  1  0
  2  3  1  0
  3  4  2  0
  4  5  1  0
  5  6  2  0
  6  7  1  0
  7  8  2  0
  8  9  1  0
  9 10  1  0
 10 11  2  0
 10 12  1  0
 12 13  2  0
 13 14  1  0
 14 15  1  0
 14 16  2  0
 16 17  1  0
 17 18  2  0
 18 19  1  0
 19 20  2  0
 20 21  1  0
 21 22  1  0
  6 23  1  0
 23 24  1  0
 24 25  1  0
  8  3  1  0
 18 12  1  0
 25  5  1  0
 21 17  1  0
M  END
>  <smiles>  (1021) 
C106199-P157

>  <fragmenstein_outcome>  (1021) 
acceptable

>  <inchikey>  (1021) 
ZEMZWTJKKGLJOW-UHFFFAOYSA-O

>  <fragmenstein_mode>  (1021) 
expansion

>  <HIPPO Pose ID>  (1021) 
19785

>  <Energy>  (1021) 
67.978252

>  <fragmenstein_error>  (1021) 


>  <tags>  (1021) 
{'openbind_xx01zvns2b_c1_fragmenstein', 'fragmenstein_placed'}

>  <ref_pdb>  (1021) 
1

>  <scratch_subdir>  (1021) 
/opt/xchem-fragalysis-2/maxwin/BulkDock/SCRATCH/511027/C106199-P157

>  <alias>  (1021) 
CSc1cc2c(cc1NC(=O)c1cc(C)nc3c1cnn3C)CNC2

>  <HIPPO Compound ID>  (1021) 
91529

>  <fragmenstein_runtime>  (1021) 
5.272927

$$$$
Cc1cc(C(=O)Nc2ccc3c(c2)CNC3)c2cnn(C#N)c2n1
     RDKit          3D

 24 27  0  0  0  0  0  0  0  0999 V2000
   -3.5625    5.8863  -16.3908 C   0  0  0  0  0  0  0  0  0  0  0  0
   -5.0133    5.6378  -16.1014 C   0  0  0  0  0  0  0  0  0  0  0  0
   -5.4746    5.8108  -14.8042 C   0  0  0  0  0  0  0  0  0  0  0  0
   -6.7924    5.4703  -14.5086 C   0  0  0  0  0  0  0  0  0  0  0  0
   -7.2390    5.6195  -13.1103 C   0  0  0  0  0  0  0  0  0  0  0  0
   -7.2124    6.6783  -12.6225 O   0  0  0  0  0  0  0  0  0  0  0  0
   -7.5844    4.2469  -12.5008 N   0  0  0  0  0  0  0  0  0  0  0  0
   -8.0461    3.9111  -11.2293 C   0  0  0  0  0  0  0  0  0  0  0  0
   -8.5406    2.6127  -11.0516 C   0  0  0  0  0  0  0  0  0  0  0  0
   -8.9894    2.1761   -9.8067 C   0  0  0  0  0  0  0  0  0  0  0  0
   -8.9033    3.0399   -8.7401 C   0  0  0  0  0  0  0  0  0  0  0  0
   -8.3901    4.3195   -8.8996 C   0  0  0  0  0  0  0  0  0  0  0  0
   -7.9737    4.7851  -10.1427 C   0  0  0  0  0  0  0  0  0  0  0  0
   -8.3351    4.9781   -7.5657 C   0  0  0  0  0  0  0  0  0  0  0  0
   -9.0896    4.1082   -6.6279 N   0  0  0  0  0  0  0  0  0  0  0  0
   -9.2791    2.8008   -7.3191 C   0  0  0  0  0  0  0  0  0  0  0  0
   -7.6022    4.9606  -15.5324 C   0  0  0  0  0  0  0  0  0  0  0  0
   -8.9019    4.4544  -15.6925 C   0  0  0  0  0  0  0  0  0  0  0  0
   -9.1550    4.0345  -16.9322 N   0  0  0  0  0  0  0  0  0  0  0  0
   -7.9998    4.2970  -17.6189 N   0  0  0  0  0  0  0  0  0  0  0  0
   -7.7349    3.7726  -18.9790 C   0  0  0  0  0  0  0  0  0  0  0  0
   -7.4967    3.2207  -19.9744 N   0  0  0  0  0  0  0  0  0  0  0  0
   -7.0384    4.8674  -16.7998 C   0  0  0  0  0  0  0  0  0  0  0  0
   -5.7742    5.2089  -17.1332 N   0  0  0  0  0  0  0  0  0  0  0  0
  1  2  1  0
  2  3  2  0
  3  4  1  0
  4  5  1  0
  5  6  2  0
  5  7  1  0
  7  8  1  0
  8  9  2  0
  9 10  1  0
 10 11  2  0
 11 12  1  0
 12 13  2  0
 12 14  1  0
 14 15  1  0
 15 16  1  0
  4 17  2  0
 17 18  1  0
 18 19  2  0
 19 20  1  0
 20 21  1  0
 21 22  3  0
 20 23  1  0
 23 24  2  0
 24  2  1  0
 13  8  1  0
 23 17  1  0
 16 11  1  0
M  END
>  <smiles>  (1022) 
C106206-P158

>  <fragmenstein_outcome>  (1022) 
acceptable

>  <inchikey>  (1022) 
JLDRWKZXBWICPM-UHFFFAOYSA-N

>  <fragmenstein_mode>  (1022) 
expansion

>  <HIPPO Pose ID>  (1022) 
19788

>  <Energy>  (1022) 
96.856086

>  <fragmenstein_error>  (1022) 


>  <tags>  (1022) 
{'openbind_xx01zvns2b_c1_fragmenstein', 'fragmenstein_placed'}

>  <ref_pdb>  (1022) 
1

>  <scratch_subdir>  (1022) 
/opt/xchem-fragalysis-2/maxwin/BulkDock/SCRATCH/511027/C106206-P158

>  <alias>  (1022) 
Cc1cc(C(=O)Nc2ccc3c(c2)CNC3)c2cnn(C#N)c2n1

>  <HIPPO Compound ID>  (1022) 
97826

>  <fragmenstein_runtime>  (1022) 
4.130789

$$$$
Cc1cc([C@@](O)(CC(=O)O)Nc2ccc3c(c2)CNC3)c2cnn(C)c2n1
     RDKit          3D

 27 30  0  0  0  0  0  0  0  0999 V2000
   -3.4403    6.0476  -16.3309 C   0  0  0  0  0  0  0  0  0  0  0  0
   -4.8850    5.7316  -16.0615 C   0  0  0  0  0  0  0  0  0  0  0  0
   -5.3588    5.8641  -14.7566 C   0  0  0  0  0  0  0  0  0  0  0  0
   -6.6836    5.5221  -14.4105 C   0  0  0  0  0  0  0  0  0  0  0  0
   -7.1648    5.6595  -12.9583 C   0  0  1  0  0  0  0  0  0  0  0  0
   -6.0692    6.0137  -12.1307 O   0  0  0  0  0  0  0  0  0  0  0  0
   -8.2940    6.6784  -12.8067 C   0  0  0  0  0  0  0  0  0  0  0  0
   -7.8163    8.0918  -12.9823 C   0  0  0  0  0  0  0  0  0  0  0  0
   -6.9277    8.5146  -13.7016 O   0  0  0  0  0  0  0  0  0  0  0  0
   -8.5667    8.9608  -12.2698 O   0  0  0  0  0  0  0  0  0  0  0  0
   -7.5502    4.3396  -12.4978 N   0  0  0  0  0  0  0  0  0  0  0  0
   -8.0301    3.9616  -11.2510 C   0  0  0  0  0  0  0  0  0  0  0  0
   -8.6521    2.7011  -11.1694 C   0  0  0  0  0  0  0  0  0  0  0  0
   -9.1424    2.1794   -9.9749 C   0  0  0  0  0  0  0  0  0  0  0  0
   -8.9591    2.9055   -8.8281 C   0  0  0  0  0  0  0  0  0  0  0  0
   -8.3196    4.1350   -8.8653 C   0  0  0  0  0  0  0  0  0  0  0  0
   -7.8630    4.6816  -10.0610 C   0  0  0  0  0  0  0  0  0  0  0  0
   -8.2564    4.6723   -7.4776 C   0  0  0  0  0  0  0  0  0  0  0  0
   -8.6168    3.5413   -6.5833 N   0  0  0  0  0  0  0  0  0  0  0  0
   -9.3664    2.5746   -7.4356 C   0  0  0  0  0  0  0  0  0  0  0  0
   -7.4531    5.0140  -15.4872 C   0  0  0  0  0  0  0  0  0  0  0  0
   -8.7490    4.4752  -15.6673 C   0  0  0  0  0  0  0  0  0  0  0  0
   -8.9804    4.0564  -16.9104 N   0  0  0  0  0  0  0  0  0  0  0  0
   -7.8511    4.4034  -17.5683 N   0  0  0  0  0  0  0  0  0  0  0  0
   -7.7932    4.1788  -18.9861 C   0  0  0  0  0  0  0  0  0  0  0  0
   -6.8820    4.9377  -16.7555 C   0  0  0  0  0  0  0  0  0  0  0  0
   -5.6279    5.2977  -17.1047 N   0  0  0  0  0  0  0  0  0  0  0  0
  1  2  1  0
  2  3  2  0
  3  4  1  0
  4  5  1  0
  5  6  1  1
  5  7  1  0
  7  8  1  0
  8  9  2  0
  8 10  1  0
  5 11  1  0
 11 12  1  0
 12 13  2  0
 13 14  1  0
 14 15  2  0
 15 16  1  0
 16 17  2  0
 16 18  1  0
 18 19  1  0
 19 20  1  0
  4 21  2  0
 21 22  1  0
 22 23  2  0
 23 24  1  0
 24 25  1  0
 24 26  1  0
 26 27  2  0
 27  2  1  0
 17 12  1  0
 26 21  1  0
 20 15  1  0
M  END
>  <smiles>  (1023) 
C106227-P158

>  <fragmenstein_outcome>  (1023) 
acceptable

>  <inchikey>  (1023) 
HMTVHYORFKVWPC-UHFFFAOYSA-N

>  <fragmenstein_mode>  (1023) 
expansion

>  <HIPPO Pose ID>  (1023) 
19796

>  <Energy>  (1023) 
-14.65178

>  <fragmenstein_error>  (1023) 


>  <tags>  (1023) 
{'openbind_xx01zvns2b_c1_fragmenstein', 'fragmenstein_placed'}

>  <ref_pdb>  (1023) 
1

>  <scratch_subdir>  (1023) 
/opt/xchem-fragalysis-2/maxwin/BulkDock/SCRATCH/511027/C106227-P158

>  <alias>  (1023) 
Cc1cc([C@@](O)(CC(=O)O)Nc2ccc3c(c2)CNC3)c2cnn(C)c2n1

>  <HIPPO Compound ID>  (1023) 
106227

>  <fragmenstein_runtime>  (1023) 
4.392618

$$$$
Cc1cc([C@@](O)(Nc2ccc3c(c2)CNC3)C(=O)NC(C)C)c2cn(CF)c(C)c2n1
     RDKit          3D

 31 34  0  0  0  0  0  0  0  0999 V2000
   -3.0671    6.1087  -15.2803 C   0  0  0  0  0  0  0  0  0  0  0  0
   -4.5318    5.8610  -15.4923 C   0  0  0  0  0  0  0  0  0  0  0  0
   -5.4007    5.9322  -14.3712 C   0  0  0  0  0  0  0  0  0  0  0  0
   -6.8040    5.6536  -14.4052 C   0  0  0  0  0  0  0  0  0  0  0  0
   -7.6186    5.7239  -13.1172 C   0  0  1  0  0  0  0  0  0  0  0  0
   -8.9551    5.3377  -13.3371 O   0  0  0  0  0  0  0  0  0  0  0  0
   -6.9497    4.7895  -12.1681 N   0  0  0  0  0  0  0  0  0  0  0  0
   -7.6721    4.1979  -11.1179 C   0  0  0  0  0  0  0  0  0  0  0  0
   -8.4010    3.0166  -11.3520 C   0  0  0  0  0  0  0  0  0  0  0  0
   -9.0572    2.3534  -10.3163 C   0  0  0  0  0  0  0  0  0  0  0  0
   -8.9695    2.8758   -9.0451 C   0  0  0  0  0  0  0  0  0  0  0  0
   -8.2961    4.0656   -8.8098 C   0  0  0  0  0  0  0  0  0  0  0  0
   -7.6672    4.7536   -9.8348 C   0  0  0  0  0  0  0  0  0  0  0  0
   -8.3847    4.3936   -7.3605 C   0  0  0  0  0  0  0  0  0  0  0  0
   -8.8970    3.1732   -6.6952 N   0  0  0  0  0  0  0  0  0  0  0  0
   -9.5273    2.3520   -7.7669 C   0  0  0  0  0  0  0  0  0  0  0  0
   -7.5790    7.2428  -12.5591 C   0  0  0  0  0  0  0  0  0  0  0  0
   -8.3299    8.0697  -12.9118 O   0  0  0  0  0  0  0  0  0  0  0  0
   -6.3985    7.3178  -11.5425 N   0  0  0  0  0  0  0  0  0  0  0  0
   -5.8463    8.4448  -10.8293 C   0  0  0  0  0  0  0  0  0  0  0  0
   -5.2829    9.4745  -11.8016 C   0  0  0  0  0  0  0  0  0  0  0  0
   -6.8883    9.0694   -9.9086 C   0  0  0  0  0  0  0  0  0  0  0  0
   -7.1229    5.2654  -15.7145 C   0  0  0  0  0  0  0  0  0  0  0  0
   -8.3221    4.8009  -16.2034 C   0  0  0  0  0  0  0  0  0  0  0  0
   -8.1570    4.5347  -17.5587 N   0  0  0  0  0  0  0  0  0  0  0  0
   -9.2036    4.0055  -18.4058 C   0  0  0  0  0  0  0  0  0  0  0  0
   -9.3549    2.6737  -18.1621 F   0  0  0  0  0  0  0  0  0  0  0  0
   -6.8617    4.8153  -17.9436 C   0  0  0  0  0  0  0  0  0  0  0  0
   -6.3066    4.6588  -19.3062 C   0  0  0  0  0  0  0  0  0  0  0  0
   -6.2161    5.2357  -16.8149 C   0  0  0  0  0  0  0  0  0  0  0  0
   -4.9069    5.5535  -16.7565 N   0  0  0  0  0  0  0  0  0  0  0  0
  1  2  1  0
  2  3  1  0
  3  4  2  0
  4  5  1  0
  5  6  1  6
  5  7  1  0
  7  8  1  0
  8  9  2  0
  9 10  1  0
 10 11  2  0
 11 12  1  0
 12 13  2  0
 12 14  1  0
 14 15  1  0
 15 16  1  0
  5 17  1  0
 17 18  2  0
 17 19  1  0
 19 20  1  0
 20 21  1  0
 20 22  1  0
  4 23  1  0
 23 24  2  0
 24 25  1  0
 25 26  1  0
 26 27  1  0
 25 28  1  0
 28 29  1  0
 28 30  2  0
 30 31  1  0
 31  2  2  0
 13  8  1  0
 30 23  1  0
 16 11  1  0
M  END
>  <smiles>  (1024) 
C106240-P158

>  <fragmenstein_outcome>  (1024) 
acceptable

>  <inchikey>  (1024) 
HALBYYUTCWTKMF-UHFFFAOYSA-N

>  <fragmenstein_mode>  (1024) 
expansion

>  <HIPPO Pose ID>  (1024) 
19806

>  <Energy>  (1024) 
108.170239

>  <fragmenstein_error>  (1024) 


>  <tags>  (1024) 
{'openbind_xx01zvns2b_c1_fragmenstein', 'fragmenstein_placed'}

>  <ref_pdb>  (1024) 
1

>  <scratch_subdir>  (1024) 
/opt/xchem-fragalysis-2/maxwin/BulkDock/SCRATCH/511027/C106240-P158

>  <alias>  (1024) 
Cc1cc([C@@](O)(Nc2ccc3c(c2)CNC3)C(=O)NC(C)C)c2cn(CF)c(C)c2n1

>  <HIPPO Compound ID>  (1024) 
71413

>  <fragmenstein_runtime>  (1024) 
8.373959

$$$$
O=C(NC[C@@H]1CCCO1)[C@H](Nc1ccc2c(c1)CNC2)c1cc(Cl)c2[nH]c(=O)n3c2c1CN3
     RDKit          3D

 33 38  0  0  0  0  0  0  0  0999 V2000
   -8.4524    7.6988  -13.1740 O   0  0  0  0  0  0  0  0  0  0  0  0
   -7.5757    6.9802  -12.8903 C   0  0  0  0  0  0  0  0  0  0  0  0
   -6.2761    7.2487  -12.0863 N   0  0  0  0  0  0  0  0  0  0  0  0
   -5.8352    8.4298  -11.3869 C   0  0  0  0  0  0  0  0  0  0  0  0
   -5.0380    9.4233  -12.2415 C   0  0  2  0  0  0  0  0  0  0  0  0
   -5.8096   10.0664  -13.3876 C   0  0  0  0  0  0  0  0  0  0  0  0
   -5.2507    9.3952  -14.6160 C   0  0  0  0  0  0  0  0  0  0  0  0
   -3.8291    9.0981  -14.2030 C   0  0  0  0  0  0  0  0  0  0  0  0
   -3.8792    8.7765  -12.8089 O   0  0  0  0  0  0  0  0  0  0  0  0
   -7.5228    5.4807  -13.3507 C   0  0  2  0  0  0  0  0  0  0  0  0
   -6.6711    4.6660  -12.4351 N   0  0  0  0  0  0  0  0  0  0  0  0
   -7.4199    4.1032  -11.3633 C   0  0  0  0  0  0  0  0  0  0  0  0
   -8.2291    2.9749  -11.5881 C   0  0  0  0  0  0  0  0  0  0  0  0
   -8.9357    2.3721  -10.5477 C   0  0  0  0  0  0  0  0  0  0  0  0
   -8.8231    2.9049   -9.2823 C   0  0  0  0  0  0  0  0  0  0  0  0
   -8.0789    4.0546   -9.0583 C   0  0  0  0  0  0  0  0  0  0  0  0
   -7.3867    4.6785  -10.0875 C   0  0  0  0  0  0  0  0  0  0  0  0
   -8.1870    4.4223   -7.6190 C   0  0  0  0  0  0  0  0  0  0  0  0
   -8.7835    3.2486   -6.9355 N   0  0  0  0  0  0  0  0  0  0  0  0
   -9.4196    2.4268   -8.0031 C   0  0  0  0  0  0  0  0  0  0  0  0
   -7.0012    5.3642  -14.7793 C   0  0  0  0  0  0  0  0  0  0  0  0
   -5.6340    5.6283  -15.1418 C   0  0  0  0  0  0  0  0  0  0  0  0
   -5.1423    5.4777  -16.4812 C   0  0  0  0  0  0  0  0  0  0  0  0
   -3.4805    5.6512  -16.8394 Cl  0  0  0  0  0  0  0  0  0  0  0  0
   -6.0262    5.1191  -17.4610 C   0  0  0  0  0  0  0  0  0  0  0  0
   -5.9788    4.6453  -18.7818 N   0  0  0  0  0  0  0  0  0  0  0  0
   -7.2598    4.0159  -19.0827 C   0  0  0  0  0  0  0  0  0  0  0  0
   -7.4529    3.1650  -19.9370 O   0  0  0  0  0  0  0  0  0  0  0  0
   -8.1224    4.4539  -18.0370 N   0  0  0  0  0  0  0  0  0  0  0  0
   -7.3099    4.9699  -17.0705 C   0  0  0  0  0  0  0  0  0  0  0  0
   -7.8275    4.9655  -15.8119 C   0  0  0  0  0  0  0  0  0  0  0  0
   -9.2004    4.4053  -15.9994 C   0  0  0  0  0  0  0  0  0  0  0  0
   -9.2316    3.8499  -17.4134 N   0  0  0  0  0  0  0  0  0  0  0  0
  1  2  2  0
  2  3  1  0
  3  4  1  0
  5  4  1  6
  5  6  1  0
  6  7  1  0
  7  8  1  0
  8  9  1  0
  2 10  1  0
 10 11  1  1
 11 12  1  0
 12 13  2  0
 13 14  1  0
 14 15  2  0
 15 16  1  0
 16 17  2  0
 16 18  1  0
 18 19  1  0
 19 20  1  0
 10 21  1  0
 21 22  2  0
 22 23  1  0
 23 24  1  0
 23 25  2  0
 25 26  1  0
 26 27  1  0
 27 28  2  0
 27 29  1  0
 29 30  1  0
 30 31  2  0
 31 32  1  0
 32 33  1  0
  9  5  1  0
 17 12  1  0
 31 21  1  0
 20 15  1  0
 30 25  1  0
 33 29  1  0
M  END
>  <smiles>  (1025) 
C106380-P158

>  <fragmenstein_outcome>  (1025) 
acceptable

>  <inchikey>  (1025) 
HIFOTRVNYXYUAZ-UHFFFAOYSA-N

>  <fragmenstein_mode>  (1025) 
expansion

>  <HIPPO Pose ID>  (1025) 
19864

>  <Energy>  (1025) 
173.420166

>  <fragmenstein_error>  (1025) 


>  <tags>  (1025) 
{'openbind_xx01zvns2b_c1_fragmenstein', 'fragmenstein_placed'}

>  <ref_pdb>  (1025) 
1

>  <scratch_subdir>  (1025) 
/opt/xchem-fragalysis-2/maxwin/BulkDock/SCRATCH/511027/C106380-P158

>  <alias>  (1025) 
O=C(NC[C@@H]1CCCO1)[C@H](Nc1ccc2c(c1)CNC2)c1cc(Cl)c2[nH]c(=O)n3c2c1CN3

>  <HIPPO Compound ID>  (1025) 
81698

>  <fragmenstein_runtime>  (1025) 
8.886279

$$$$
Cc1cc(C(=O)C(=O)c2ccc3c(c2)CNC3)c2c(c1)N(C)C(=O)C2
     RDKit          3D

 25 28  0  0  0  0  0  0  0  0999 V2000
  -10.5111    4.3083  -17.9897 C   0  0  0  0  0  0  0  0  0  0  0  0
   -9.1306    4.2852  -17.4095 C   0  0  0  0  0  0  0  0  0  0  0  0
   -8.8794    4.2487  -16.0211 C   0  0  0  0  0  0  0  0  0  0  0  0
   -7.6077    4.5152  -15.4749 C   0  0  0  0  0  0  0  0  0  0  0  0
   -7.3606    4.6299  -14.0115 C   0  0  0  0  0  0  0  0  0  0  0  0
   -6.2288    4.6197  -13.5423 O   0  0  0  0  0  0  0  0  0  0  0  0
   -8.5086    4.9244  -13.0797 C   0  0  0  0  0  0  0  0  0  0  0  0
   -9.4857    5.5286  -13.5135 O   0  0  0  0  0  0  0  0  0  0  0  0
   -8.3761    4.6565  -11.6367 C   0  0  0  0  0  0  0  0  0  0  0  0
   -8.2275    5.7756  -10.7946 C   0  0  0  0  0  0  0  0  0  0  0  0
   -8.2185    5.6208   -9.4090 C   0  0  0  0  0  0  0  0  0  0  0  0
   -8.3876    4.3471   -8.8954 C   0  0  0  0  0  0  0  0  0  0  0  0
   -8.5347    3.2401   -9.7275 C   0  0  0  0  0  0  0  0  0  0  0  0
   -8.5146    3.3677  -11.1110 C   0  0  0  0  0  0  0  0  0  0  0  0
   -8.7283    2.0213   -8.8861 C   0  0  0  0  0  0  0  0  0  0  0  0
   -8.8260    2.4918   -7.4807 N   0  0  0  0  0  0  0  0  0  0  0  0
   -8.4681    3.9215   -7.4695 C   0  0  0  0  0  0  0  0  0  0  0  0
   -6.5811    4.7571  -16.3637 C   0  0  0  0  0  0  0  0  0  0  0  0
   -6.8305    4.7016  -17.7290 C   0  0  0  0  0  0  0  0  0  0  0  0
   -8.0704    4.4699  -18.2766 C   0  0  0  0  0  0  0  0  0  0  0  0
   -5.6675    4.9535  -18.4281 N   0  0  0  0  0  0  0  0  0  0  0  0
   -5.6346    4.9368  -19.8523 C   0  0  0  0  0  0  0  0  0  0  0  0
   -4.6005    5.1961  -17.5780 C   0  0  0  0  0  0  0  0  0  0  0  0
   -3.4409    5.4269  -17.8887 O   0  0  0  0  0  0  0  0  0  0  0  0
   -5.1470    5.1397  -16.1476 C   0  0  0  0  0  0  0  0  0  0  0  0
  1  2  1  0
  2  3  2  0
  3  4  1  0
  4  5  1  0
  5  6  2  0
  5  7  1  0
  7  8  2  0
  7  9  1  0
  9 10  2  0
 10 11  1  0
 11 12  2  0
 12 13  1  0
 13 14  2  0
 13 15  1  0
 15 16  1  0
 16 17  1  0
  4 18  2  0
 18 19  1  0
 19 20  2  0
 19 21  1  0
 21 22  1  0
 21 23  1  0
 23 24  2  0
 23 25  1  0
 20  2  1  0
 14  9  1  0
 25 18  1  0
 17 12  1  0
M  END
>  <smiles>  (1026) 
C106551-P159

>  <fragmenstein_outcome>  (1026) 
acceptable

>  <inchikey>  (1026) 
HLEKDBDHFFOECX-UHFFFAOYSA-N

>  <fragmenstein_mode>  (1026) 
expansion

>  <HIPPO Pose ID>  (1026) 
19957

>  <Energy>  (1026) 
108.240761

>  <fragmenstein_error>  (1026) 


>  <tags>  (1026) 
{'openbind_xx01zvns2b_c1_fragmenstein', 'fragmenstein_placed'}

>  <ref_pdb>  (1026) 
1

>  <scratch_subdir>  (1026) 
/opt/xchem-fragalysis-2/maxwin/BulkDock/SCRATCH/511027/C106551-P159

>  <alias>  (1026) 
Cc1cc(C(=O)C(=O)c2ccc3c(c2)CNC3)c2c(c1)N(C)C(=O)C2

>  <HIPPO Compound ID>  (1026) 
95132

>  <fragmenstein_runtime>  (1026) 
3.04328

$$$$
CC(C)NN1C(=O)Cc2c(C(=O)Nc3ccc4c(c3)CNC4)cccc21
     RDKit          3D

 26 29  0  0  0  0  0  0  0  0999 V2000
   -6.3075    4.2156  -19.5646 C   0  0  0  0  0  0  0  0  0  0  0  0
   -5.4234    5.4563  -19.5548 C   0  0  0  0  0  0  0  0  0  0  0  0
   -3.9392    5.1201  -19.3836 C   0  0  0  0  0  0  0  0  0  0  0  0
   -5.8693    6.4830  -18.5977 N   0  0  0  0  0  0  0  0  0  0  0  0
   -5.7167    6.0912  -17.2664 N   0  0  0  0  0  0  0  0  0  0  0  0
   -4.7483    6.6687  -16.4229 C   0  0  0  0  0  0  0  0  0  0  0  0
   -3.8124    7.3816  -16.7591 O   0  0  0  0  0  0  0  0  0  0  0  0
   -5.1203    6.2738  -14.9933 C   0  0  0  0  0  0  0  0  0  0  0  0
   -6.4232    5.5558  -15.1797 C   0  0  0  0  0  0  0  0  0  0  0  0
   -7.3386    5.1061  -14.2510 C   0  0  0  0  0  0  0  0  0  0  0  0
   -7.1900    5.4048  -12.8068 C   0  0  0  0  0  0  0  0  0  0  0  0
   -6.7872    6.4487  -12.4786 O   0  0  0  0  0  0  0  0  0  0  0  0
   -7.7228    4.2300  -11.9648 N   0  0  0  0  0  0  0  0  0  0  0  0
   -7.9519    4.1306  -10.6047 C   0  0  0  0  0  0  0  0  0  0  0  0
   -7.8076    5.2359   -9.7542 C   0  0  0  0  0  0  0  0  0  0  0  0
   -8.1324    5.1327   -8.4003 C   0  0  0  0  0  0  0  0  0  0  0  0
   -8.6024    3.9189   -7.9366 C   0  0  0  0  0  0  0  0  0  0  0  0
   -8.7302    2.8226   -8.7846 C   0  0  0  0  0  0  0  0  0  0  0  0
   -8.4107    2.9074  -10.1218 C   0  0  0  0  0  0  0  0  0  0  0  0
   -9.2024    1.6497   -7.9993 C   0  0  0  0  0  0  0  0  0  0  0  0
   -9.7516    2.2317   -6.7502 N   0  0  0  0  0  0  0  0  0  0  0  0
   -9.0265    3.5103   -6.5659 C   0  0  0  0  0  0  0  0  0  0  0  0
   -8.5360    4.5294  -14.7092 C   0  0  0  0  0  0  0  0  0  0  0  0
   -8.8094    4.4083  -16.0703 C   0  0  0  0  0  0  0  0  0  0  0  0
   -7.9087    4.9122  -16.9894 C   0  0  0  0  0  0  0  0  0  0  0  0
   -6.7245    5.4657  -16.5331 C   0  0  0  0  0  0  0  0  0  0  0  0
  1  2  1  0
  2  3  1  0
  2  4  1  0
  4  5  1  0
  5  6  1  0
  6  7  2  0
  6  8  1  0
  8  9  1  0
  9 10  2  0
 10 11  1  0
 11 12  2  0
 11 13  1  0
 13 14  1  0
 14 15  2  0
 15 16  1  0
 16 17  2  0
 17 18  1  0
 18 19  2  0
 18 20  1  0
 20 21  1  0
 21 22  1  0
 10 23  1  0
 23 24  2  0
 24 25  1  0
 25 26  2  0
 26  5  1  0
 26  9  1  0
 19 14  1  0
 22 17  1  0
M  END
>  <smiles>  (1027) 
C106564-P159

>  <fragmenstein_outcome>  (1027) 
acceptable

>  <inchikey>  (1027) 
MFKXLSAZNFKMGU-UHFFFAOYSA-N

>  <fragmenstein_mode>  (1027) 
expansion

>  <HIPPO Pose ID>  (1027) 
19969

>  <Energy>  (1027) 
93.385223

>  <fragmenstein_error>  (1027) 


>  <tags>  (1027) 
{'openbind_xx01zvns2b_c1_fragmenstein', 'fragmenstein_placed'}

>  <ref_pdb>  (1027) 
1

>  <scratch_subdir>  (1027) 
/opt/xchem-fragalysis-2/maxwin/BulkDock/SCRATCH/511027/C106564-P159

>  <alias>  (1027) 
CC(C)NN1C(=O)Cc2c(C(=O)Nc3ccc4c(c3)CNC4)cccc21

>  <HIPPO Compound ID>  (1027) 
102569

>  <fragmenstein_runtime>  (1027) 
5.975101

$$$$
CNC(=O)[C@](O)(Nc1ccc2c(c1)CNC2)c1cc(Cl)cc2c1CC(=O)N2
     RDKit          3D

 27 30  0  0  0  0  0  0  0  0999 V2000
   -4.2908    3.0464  -12.0504 C   0  0  0  0  0  0  0  0  0  0  0  0
   -5.3930    3.5970  -12.7784 N   0  0  0  0  0  0  0  0  0  0  0  0
   -5.7703    5.0816  -13.0751 C   0  0  0  0  0  0  0  0  0  0  0  0
   -5.1943    6.0741  -12.8345 O   0  0  0  0  0  0  0  0  0  0  0  0
   -7.2264    5.0950  -13.7892 C   0  0  2  0  0  0  0  0  0  0  0  0
   -7.8039    6.3793  -13.8533 O   0  0  0  0  0  0  0  0  0  0  0  0
   -8.1965    4.2856  -13.0200 N   0  0  0  0  0  0  0  0  0  0  0  0
   -8.2139    4.3087  -11.6099 C   0  0  0  0  0  0  0  0  0  0  0  0
   -7.9026    5.4587  -10.8492 C   0  0  0  0  0  0  0  0  0  0  0  0
   -7.9696    5.4681   -9.4499 C   0  0  0  0  0  0  0  0  0  0  0  0
   -8.3563    4.3133   -8.8044 C   0  0  0  0  0  0  0  0  0  0  0  0
   -8.6868    3.1772   -9.5249 C   0  0  0  0  0  0  0  0  0  0  0  0
   -8.6424    3.1649  -10.9151 C   0  0  0  0  0  0  0  0  0  0  0  0
   -9.0891    2.0954   -8.5808 C   0  0  0  0  0  0  0  0  0  0  0  0
   -8.8619    2.6251   -7.2089 N   0  0  0  0  0  0  0  0  0  0  0  0
   -8.5297    4.0583   -7.3488 C   0  0  0  0  0  0  0  0  0  0  0  0
   -7.2014    4.7434  -15.2802 C   0  0  0  0  0  0  0  0  0  0  0  0
   -8.3974    4.3463  -15.9301 C   0  0  0  0  0  0  0  0  0  0  0  0
   -8.4949    4.2428  -17.3317 C   0  0  0  0  0  0  0  0  0  0  0  0
  -10.0108    3.8909  -18.0515 Cl  0  0  0  0  0  0  0  0  0  0  0  0
   -7.4111    4.5081  -18.1530 C   0  0  0  0  0  0  0  0  0  0  0  0
   -6.2537    4.8983  -17.5253 C   0  0  0  0  0  0  0  0  0  0  0  0
   -6.1287    5.0259  -16.1326 C   0  0  0  0  0  0  0  0  0  0  0  0
   -4.7438    5.5486  -15.8477 C   0  0  0  0  0  0  0  0  0  0  0  0
   -4.1085    5.6347  -17.2372 C   0  0  0  0  0  0  0  0  0  0  0  0
   -2.9619    5.9682  -17.4915 O   0  0  0  0  0  0  0  0  0  0  0  0
   -5.0727    5.2570  -18.1546 N   0  0  0  0  0  0  0  0  0  0  0  0
  1  2  1  0
  2  3  1  0
  3  4  2  0
  3  5  1  0
  5  6  1  6
  5  7  1  0
  7  8  1  0
  8  9  2  0
  9 10  1  0
 10 11  2  0
 11 12  1  0
 12 13  2  0
 12 14  1  0
 14 15  1  0
 15 16  1  0
  5 17  1  0
 17 18  2  0
 18 19  1  0
 19 20  1  0
 19 21  2  0
 21 22  1  0
 22 23  2  0
 23 24  1  0
 24 25  1  0
 25 26  2  0
 25 27  1  0
 13  8  1  0
 23 17  1  0
 16 11  1  0
 27 22  1  0
M  END
>  <smiles>  (1028) 
C106581-P159

>  <fragmenstein_outcome>  (1028) 
acceptable

>  <inchikey>  (1028) 
JTFZGQZJMAEFGB-UHFFFAOYSA-N

>  <fragmenstein_mode>  (1028) 
expansion

>  <HIPPO Pose ID>  (1028) 
19973

>  <Energy>  (1028) 
83.313778

>  <fragmenstein_error>  (1028) 


>  <tags>  (1028) 
{'openbind_xx01zvns2b_c1_fragmenstein', 'fragmenstein_placed'}

>  <ref_pdb>  (1028) 
1

>  <scratch_subdir>  (1028) 
/opt/xchem-fragalysis-2/maxwin/BulkDock/SCRATCH/511027/C106581-P159

>  <alias>  (1028) 
CNC(=O)[C@](O)(Nc1ccc2c(c1)CNC2)c1cc(Cl)cc2c1CC(=O)N2

>  <HIPPO Compound ID>  (1028) 
85755

>  <fragmenstein_runtime>  (1028) 
4.039985

$$$$
O=C1Cc2c(cc(Cl)cc2[C@@H](Nc2ccc3c(c2)CNC3)C(=O)NC[C@@H]2CCCO2)N1
     RDKit          3D

 31 35  0  0  0  0  0  0  0  0999 V2000
   -3.0764    5.6188  -17.8796 O   0  0  0  0  0  0  0  0  0  0  0  0
   -4.2394    5.4237  -17.5619 C   0  0  0  0  0  0  0  0  0  0  0  0
   -4.8264    5.4985  -16.1496 C   0  0  0  0  0  0  0  0  0  0  0  0
   -6.2664    5.1004  -16.3501 C   0  0  0  0  0  0  0  0  0  0  0  0
   -6.4528    4.8830  -17.7267 C   0  0  0  0  0  0  0  0  0  0  0  0
   -7.6527    4.5246  -18.2901 C   0  0  0  0  0  0  0  0  0  0  0  0
   -8.7177    4.3746  -17.4191 C   0  0  0  0  0  0  0  0  0  0  0  0
  -10.2711    4.0461  -18.0660 Cl  0  0  0  0  0  0  0  0  0  0  0  0
   -8.5601    4.5753  -16.0333 C   0  0  0  0  0  0  0  0  0  0  0  0
   -7.3239    4.9500  -15.4514 C   0  0  0  0  0  0  0  0  0  0  0  0
   -7.2871    5.2758  -13.9536 C   0  0  1  0  0  0  0  0  0  0  0  0
   -8.0964    4.2990  -13.1870 N   0  0  0  0  0  0  0  0  0  0  0  0
   -8.1954    4.3660  -11.7924 C   0  0  0  0  0  0  0  0  0  0  0  0
   -8.0801    5.5686  -11.0661 C   0  0  0  0  0  0  0  0  0  0  0  0
   -8.1632    5.5964   -9.6660 C   0  0  0  0  0  0  0  0  0  0  0  0
   -8.3955    4.4106   -8.9957 C   0  0  0  0  0  0  0  0  0  0  0  0
   -8.5668    3.2278   -9.6945 C   0  0  0  0  0  0  0  0  0  0  0  0
   -8.4783    3.1907  -11.0793 C   0  0  0  0  0  0  0  0  0  0  0  0
   -8.8388    2.1132   -8.7432 C   0  0  0  0  0  0  0  0  0  0  0  0
   -8.8630    2.7186   -7.3842 N   0  0  0  0  0  0  0  0  0  0  0  0
   -8.5172    4.1497   -7.5349 C   0  0  0  0  0  0  0  0  0  0  0  0
   -5.8547    5.4875  -13.3465 C   0  0  0  0  0  0  0  0  0  0  0  0
   -5.3687    6.5522  -13.3096 O   0  0  0  0  0  0  0  0  0  0  0  0
   -5.3054    4.1132  -12.8722 N   0  0  0  0  0  0  0  0  0  0  0  0
   -4.0895    3.7823  -12.1709 C   0  0  0  0  0  0  0  0  0  0  0  0
   -4.3933    3.0956  -10.8308 C   0  0  2  0  0  0  0  0  0  0  0  0
   -3.1880    3.0452   -9.9029 C   0  0  0  0  0  0  0  0  0  0  0  0
   -2.5350    1.7387  -10.2725 C   0  0  0  0  0  0  0  0  0  0  0  0
   -3.7311    0.8647  -10.5713 C   0  0  0  0  0  0  0  0  0  0  0  0
   -4.7531    1.7240  -11.0930 O   0  0  0  0  0  0  0  0  0  0  0  0
   -5.2722    5.0931  -18.4197 N   0  0  0  0  0  0  0  0  0  0  0  0
  1  2  2  0
  2  3  1  0
  3  4  1  0
  4  5  2  0
  5  6  1  0
  6  7  2  0
  7  8  1  0
  7  9  1  0
  9 10  2  0
 10 11  1  0
 11 12  1  1
 12 13  1  0
 13 14  2  0
 14 15  1  0
 15 16  2  0
 16 17  1  0
 17 18  2  0
 17 19  1  0
 19 20  1  0
 20 21  1  0
 11 22  1  0
 22 23  2  0
 22 24  1  0
 24 25  1  0
 26 25  1  6
 26 27  1  0
 27 28  1  0
 28 29  1  0
 29 30  1  0
  5 31  1  0
 31  2  1  0
 10  4  1  0
 18 13  1  0
 30 26  1  0
 21 16  1  0
M  END
>  <smiles>  (1029) 
C106601-P159

>  <fragmenstein_outcome>  (1029) 
acceptable

>  <inchikey>  (1029) 
DNTIITLKFUIIPQ-UHFFFAOYSA-N

>  <fragmenstein_mode>  (1029) 
expansion

>  <HIPPO Pose ID>  (1029) 
19979

>  <Energy>  (1029) 
107.613121

>  <fragmenstein_error>  (1029) 


>  <tags>  (1029) 
{'openbind_xx01zvns2b_c1_fragmenstein', 'fragmenstein_placed'}

>  <ref_pdb>  (1029) 
1

>  <scratch_subdir>  (1029) 
/opt/xchem-fragalysis-2/maxwin/BulkDock/SCRATCH/511027/C106601-P159

>  <alias>  (1029) 
O=C1Cc2c(cc(Cl)cc2[C@@H](Nc2ccc3c(c2)CNC3)C(=O)NC[C@@H]2CCCO2)N1

>  <HIPPO Compound ID>  (1029) 
106601

>  <fragmenstein_runtime>  (1029) 
6.165673

$$$$
CNCN1C(=O)Cc2c(C(=O)Nc3ccc4c(c3)CNC4)cccc21
     RDKit          3D

 25 28  0  0  0  0  0  0  0  0999 V2000
   -2.0568    4.8284  -18.4684 C   0  0  0  0  0  0  0  0  0  0  0  0
   -3.4332    4.7072  -18.9296 N   0  0  0  0  0  0  0  0  0  0  0  0
   -4.2161    5.8944  -18.6367 C   0  0  0  0  0  0  0  0  0  0  0  0
   -4.7366    5.7945  -17.3089 N   0  0  0  0  0  0  0  0  0  0  0  0
   -4.1133    6.3808  -16.2083 C   0  0  0  0  0  0  0  0  0  0  0  0
   -3.0732    7.0241  -16.1953 O   0  0  0  0  0  0  0  0  0  0  0  0
   -4.9901    6.1130  -14.9930 C   0  0  0  0  0  0  0  0  0  0  0  0
   -6.1674    5.4050  -15.5886 C   0  0  0  0  0  0  0  0  0  0  0  0
   -7.3532    5.0166  -14.9841 C   0  0  0  0  0  0  0  0  0  0  0  0
   -7.6199    5.4447  -13.5911 C   0  0  0  0  0  0  0  0  0  0  0  0
   -7.4738    6.5730  -13.3313 O   0  0  0  0  0  0  0  0  0  0  0  0
   -8.0147    4.2553  -12.6933 N   0  0  0  0  0  0  0  0  0  0  0  0
   -8.2138    4.1879  -11.3157 C   0  0  0  0  0  0  0  0  0  0  0  0
   -8.1307    5.3457  -10.5233 C   0  0  0  0  0  0  0  0  0  0  0  0
   -8.2982    5.2823   -9.1373 C   0  0  0  0  0  0  0  0  0  0  0  0
   -8.5661    4.0521   -8.5685 C   0  0  0  0  0  0  0  0  0  0  0  0
   -8.6598    2.9079   -9.3499 C   0  0  0  0  0  0  0  0  0  0  0  0
   -8.4771    2.9519  -10.7241 C   0  0  0  0  0  0  0  0  0  0  0  0
   -8.9517    1.7346   -8.4798 C   0  0  0  0  0  0  0  0  0  0  0  0
   -9.1513    2.2691   -7.1067 N   0  0  0  0  0  0  0  0  0  0  0  0
   -8.7923    3.7017   -7.1395 C   0  0  0  0  0  0  0  0  0  0  0  0
   -8.3260    4.3795  -15.7608 C   0  0  0  0  0  0  0  0  0  0  0  0
   -8.1005    4.1667  -17.1334 C   0  0  0  0  0  0  0  0  0  0  0  0
   -6.9121    4.5926  -17.7424 C   0  0  0  0  0  0  0  0  0  0  0  0
   -5.9595    5.2106  -16.9518 C   0  0  0  0  0  0  0  0  0  0  0  0
  1  2  1  0
  2  3  1  0
  3  4  1  0
  4  5  1  0
  5  6  2  0
  5  7  1  0
  7  8  1  0
  8  9  2  0
  9 10  1  0
 10 11  2  0
 10 12  1  0
 12 13  1  0
 13 14  2  0
 14 15  1  0
 15 16  2  0
 16 17  1  0
 17 18  2  0
 17 19  1  0
 19 20  1  0
 20 21  1  0
  9 22  1  0
 22 23  2  0
 23 24  1  0
 24 25  2  0
 25  4  1  0
 25  8  1  0
 18 13  1  0
 21 16  1  0
M  END
>  <smiles>  (1030) 
C106626-P160

>  <fragmenstein_outcome>  (1030) 
acceptable

>  <inchikey>  (1030) 
DSKUGHVVWCQPDU-UHFFFAOYSA-N

>  <fragmenstein_mode>  (1030) 
expansion

>  <HIPPO Pose ID>  (1030) 
19985

>  <Energy>  (1030) 
21.352168

>  <fragmenstein_error>  (1030) 


>  <tags>  (1030) 
{'openbind_xx01zvns2b_c1_fragmenstein', 'fragmenstein_placed'}

>  <ref_pdb>  (1030) 
1

>  <scratch_subdir>  (1030) 
/opt/xchem-fragalysis-2/maxwin/BulkDock/SCRATCH/511027/C106626-P160

>  <alias>  (1030) 
CNCN1C(=O)Cc2c(C(=O)Nc3ccc4c(c3)CNC4)cccc21

>  <HIPPO Compound ID>  (1030) 
91555

>  <fragmenstein_runtime>  (1030) 
3.13743

$$$$
O=C(Nc1ccc2c(c1)CNC2)c1cccc2c1CC(=O)C21CCNCC1
     RDKit          3D

 27 31  0  0  0  0  0  0  0  0999 V2000
   -6.8963    6.4005  -13.3650 O   0  0  0  0  0  0  0  0  0  0  0  0
   -7.2570    5.3236  -13.6359 C   0  0  0  0  0  0  0  0  0  0  0  0
   -7.7699    4.1833  -12.7315 N   0  0  0  0  0  0  0  0  0  0  0  0
   -8.0278    4.1603  -11.3626 C   0  0  0  0  0  0  0  0  0  0  0  0
   -7.8938    5.3261  -10.5893 C   0  0  0  0  0  0  0  0  0  0  0  0
   -8.1201    5.3050   -9.2104 C   0  0  0  0  0  0  0  0  0  0  0  0
   -8.4726    4.1041   -8.6258 C   0  0  0  0  0  0  0  0  0  0  0  0
   -8.6136    2.9519   -9.3877 C   0  0  0  0  0  0  0  0  0  0  0  0
   -8.4022    2.9593  -10.7586 C   0  0  0  0  0  0  0  0  0  0  0  0
   -8.9967    1.8157   -8.5041 C   0  0  0  0  0  0  0  0  0  0  0  0
   -9.0109    2.3456   -7.1144 N   0  0  0  0  0  0  0  0  0  0  0  0
   -8.7637    3.8001   -7.1985 C   0  0  0  0  0  0  0  0  0  0  0  0
   -7.2161    4.9314  -15.0696 C   0  0  0  0  0  0  0  0  0  0  0  0
   -8.3390    4.3986  -15.7092 C   0  0  0  0  0  0  0  0  0  0  0  0
   -8.3511    4.2524  -17.1057 C   0  0  0  0  0  0  0  0  0  0  0  0
   -7.2667    4.6779  -17.8818 C   0  0  0  0  0  0  0  0  0  0  0  0
   -6.1472    5.1968  -17.2447 C   0  0  0  0  0  0  0  0  0  0  0  0
   -6.1081    5.2757  -15.8402 C   0  0  0  0  0  0  0  0  0  0  0  0
   -4.7811    5.7713  -15.3429 C   0  0  0  0  0  0  0  0  0  0  0  0
   -3.9771    5.8762  -16.6267 C   0  0  0  0  0  0  0  0  0  0  0  0
   -2.7617    6.0373  -16.6662 O   0  0  0  0  0  0  0  0  0  0  0  0
   -4.8970    5.7970  -17.8630 C   0  0  0  0  0  0  0  0  0  0  0  0
   -5.1321    7.2450  -18.3540 C   0  0  0  0  0  0  0  0  0  0  0  0
   -5.3192    7.2962  -19.8670 C   0  0  0  0  0  0  0  0  0  0  0  0
   -4.1828    6.7661  -20.6167 N   0  0  0  0  0  0  0  0  0  0  0  0
   -3.3993    5.8001  -19.8620 C   0  0  0  0  0  0  0  0  0  0  0  0
   -4.2568    4.9341  -18.9474 C   0  0  0  0  0  0  0  0  0  0  0  0
  1  2  2  0
  2  3  1  0
  3  4  1  0
  4  5  2  0
  5  6  1  0
  6  7  2  0
  7  8  1  0
  8  9  2  0
  8 10  1  0
 10 11  1  0
 11 12  1  0
  2 13  1  0
 13 14  2  0
 14 15  1  0
 15 16  2  0
 16 17  1  0
 17 18  2  0
 18 19  1  0
 19 20  1  0
 20 21  2  0
 20 22  1  0
 22 23  1  0
 23 24  1  0
 24 25  1  0
 25 26  1  0
 26 27  1  0
  9  4  1  0
 18 13  1  0
 27 22  1  0
 12  7  1  0
 22 17  1  0
M  END
>  <smiles>  (1031) 
C106604-P160

>  <fragmenstein_outcome>  (1031) 
acceptable

>  <inchikey>  (1031) 
XDPXXPXOUMZDEF-UHFFFAOYSA-N

>  <fragmenstein_mode>  (1031) 
expansion

>  <HIPPO Pose ID>  (1031) 
19986

>  <Energy>  (1031) 
75.435725

>  <fragmenstein_error>  (1031) 


>  <tags>  (1031) 
{'openbind_xx01zvns2b_c1_fragmenstein', 'fragmenstein_placed'}

>  <ref_pdb>  (1031) 
1

>  <scratch_subdir>  (1031) 
/opt/xchem-fragalysis-2/maxwin/BulkDock/SCRATCH/511027/C106604-P160

>  <alias>  (1031) 
O=C(Nc1ccc2c(c1)CNC2)c1cccc2c1CC(=O)C21CCNCC1

>  <HIPPO Compound ID>  (1031) 
106604

>  <fragmenstein_runtime>  (1031) 
3.630202

$$$$
CNCN1C(=O)Cc2c(C(=O)Nc3ccc4c(c3)CNC4)cc(Br)cc21
     RDKit          3D

 26 29  0  0  0  0  0  0  0  0999 V2000
   -2.4064    4.9111  -19.2331 C   0  0  0  0  0  0  0  0  0  0  0  0
   -3.8422    4.8363  -19.4960 N   0  0  0  0  0  0  0  0  0  0  0  0
   -4.5273    6.0291  -19.0186 C   0  0  0  0  0  0  0  0  0  0  0  0
   -4.8023    5.8552  -17.6163 N   0  0  0  0  0  0  0  0  0  0  0  0
   -4.0357    6.4239  -16.5958 C   0  0  0  0  0  0  0  0  0  0  0  0
   -3.0032    7.0648  -16.7201 O   0  0  0  0  0  0  0  0  0  0  0  0
   -4.7375    6.1245  -15.2700 C   0  0  0  0  0  0  0  0  0  0  0  0
   -5.9827    5.4200  -15.7133 C   0  0  0  0  0  0  0  0  0  0  0  0
   -7.0849    5.0163  -14.9735 C   0  0  0  0  0  0  0  0  0  0  0  0
   -7.2253    5.4157  -13.5523 C   0  0  0  0  0  0  0  0  0  0  0  0
   -7.0341    6.5362  -13.2853 O   0  0  0  0  0  0  0  0  0  0  0  0
   -7.7136    4.2453  -12.6702 N   0  0  0  0  0  0  0  0  0  0  0  0
   -7.9690    4.1888  -11.3020 C   0  0  0  0  0  0  0  0  0  0  0  0
   -7.8594    5.3366  -10.4986 C   0  0  0  0  0  0  0  0  0  0  0  0
   -8.1373    5.2852   -9.1292 C   0  0  0  0  0  0  0  0  0  0  0  0
   -8.5299    4.0759   -8.5906 C   0  0  0  0  0  0  0  0  0  0  0  0
   -8.6298    2.9348   -9.3819 C   0  0  0  0  0  0  0  0  0  0  0  0
   -8.3523    2.9692  -10.7384 C   0  0  0  0  0  0  0  0  0  0  0  0
   -9.0326    1.7841   -8.5198 C   0  0  0  0  0  0  0  0  0  0  0  0
   -9.5492    2.4039   -7.2712 N   0  0  0  0  0  0  0  0  0  0  0  0
   -8.8858    3.7231   -7.1853 C   0  0  0  0  0  0  0  0  0  0  0  0
   -8.1572    4.4255  -15.6472 C   0  0  0  0  0  0  0  0  0  0  0  0
   -8.0953    4.2652  -17.0385 C   0  0  0  0  0  0  0  0  0  0  0  0
   -9.5791    3.5854  -17.9543 Br  0  0  0  0  0  0  0  0  0  0  0  0
   -6.9970    4.6779  -17.7860 C   0  0  0  0  0  0  0  0  0  0  0  0
   -5.9577    5.2633  -17.0994 C   0  0  0  0  0  0  0  0  0  0  0  0
  1  2  1  0
  2  3  1  0
  3  4  1  0
  4  5  1  0
  5  6  2  0
  5  7  1  0
  7  8  1  0
  8  9  2  0
  9 10  1  0
 10 11  2  0
 10 12  1  0
 12 13  1  0
 13 14  2  0
 14 15  1  0
 15 16  2  0
 16 17  1  0
 17 18  2  0
 17 19  1  0
 19 20  1  0
 20 21  1  0
  9 22  1  0
 22 23  2  0
 23 24  1  0
 23 25  1  0
 25 26  2  0
 26  4  1  0
 26  8  1  0
 18 13  1  0
 21 16  1  0
M  END
>  <smiles>  (1032) 
C106629-P160

>  <fragmenstein_outcome>  (1032) 
acceptable

>  <inchikey>  (1032) 
GDFKUHRJKYUJFH-UHFFFAOYSA-N

>  <fragmenstein_mode>  (1032) 
expansion

>  <HIPPO Pose ID>  (1032) 
19987

>  <Energy>  (1032) 
10.393028

>  <fragmenstein_error>  (1032) 


>  <tags>  (1032) 
{'openbind_xx01zvns2b_c1_fragmenstein', 'fragmenstein_placed'}

>  <ref_pdb>  (1032) 
1

>  <scratch_subdir>  (1032) 
/opt/xchem-fragalysis-2/maxwin/BulkDock/SCRATCH/511027/C106629-P160

>  <alias>  (1032) 
CNCN1C(=O)Cc2c(C(=O)Nc3ccc4c(c3)CNC4)cc(Br)cc21

>  <HIPPO Compound ID>  (1032) 
106629

>  <fragmenstein_runtime>  (1032) 
2.362576

$$$$
O=C(Nc1ccc2c(c1)CNC2)c1ccc2[nH]c(=O)n3c2c1CC3=O
     RDKit          3D

 25 29  0  0  0  0  0  0  0  0999 V2000
   -6.7964    6.3873  -13.3840 O   0  0  0  0  0  0  0  0  0  0  0  0
   -7.1801    5.3213  -13.6649 C   0  0  0  0  0  0  0  0  0  0  0  0
   -7.7318    4.1894  -12.7729 N   0  0  0  0  0  0  0  0  0  0  0  0
   -8.0068    4.1657  -11.4065 C   0  0  0  0  0  0  0  0  0  0  0  0
   -7.8822    5.3266  -10.6239 C   0  0  0  0  0  0  0  0  0  0  0  0
   -8.1422    5.3001   -9.2498 C   0  0  0  0  0  0  0  0  0  0  0  0
   -8.5281    4.1010   -8.6837 C   0  0  0  0  0  0  0  0  0  0  0  0
   -8.6452    2.9471   -9.4538 C   0  0  0  0  0  0  0  0  0  0  0  0
   -8.3920    2.9591  -10.8159 C   0  0  0  0  0  0  0  0  0  0  0  0
   -9.0261    1.8100   -8.5632 C   0  0  0  0  0  0  0  0  0  0  0  0
   -9.5149    2.4500   -7.3134 N   0  0  0  0  0  0  0  0  0  0  0  0
   -8.8526    3.7716   -7.2652 C   0  0  0  0  0  0  0  0  0  0  0  0
   -7.1193    4.9238  -15.0879 C   0  0  0  0  0  0  0  0  0  0  0  0
   -8.2947    4.5314  -15.8068 C   0  0  0  0  0  0  0  0  0  0  0  0
   -8.2984    4.3608  -17.2259 C   0  0  0  0  0  0  0  0  0  0  0  0
   -7.1157    4.5770  -17.8797 C   0  0  0  0  0  0  0  0  0  0  0  0
   -6.6706    4.6071  -19.2015 N   0  0  0  0  0  0  0  0  0  0  0  0
   -5.2551    4.9053  -19.2298 C   0  0  0  0  0  0  0  0  0  0  0  0
   -4.5325    4.9313  -20.2135 O   0  0  0  0  0  0  0  0  0  0  0  0
   -4.8911    5.0952  -17.8377 N   0  0  0  0  0  0  0  0  0  0  0  0
   -6.0336    4.8935  -17.1177 C   0  0  0  0  0  0  0  0  0  0  0  0
   -5.9422    5.0934  -15.7788 C   0  0  0  0  0  0  0  0  0  0  0  0
   -4.5277    5.4998  -15.5031 C   0  0  0  0  0  0  0  0  0  0  0  0
   -3.8561    5.4642  -16.9351 C   0  0  0  0  0  0  0  0  0  0  0  0
   -2.6849    5.6934  -17.1888 O   0  0  0  0  0  0  0  0  0  0  0  0
  1  2  2  0
  2  3  1  0
  3  4  1  0
  4  5  2  0
  5  6  1  0
  6  7  2  0
  7  8  1  0
  8  9  2  0
  8 10  1  0
 10 11  1  0
 11 12  1  0
  2 13  1  0
 13 14  2  0
 14 15  1  0
 15 16  2  0
 16 17  1  0
 17 18  1  0
 18 19  2  0
 18 20  1  0
 20 21  1  0
 21 22  2  0
 22 23  1  0
 23 24  1  0
 24 25  2  0
  9  4  1  0
 22 13  1  0
 12  7  1  0
 21 16  1  0
 24 20  1  0
M  END
>  <smiles>  (1033) 
C106627-P160

>  <fragmenstein_outcome>  (1033) 
acceptable

>  <inchikey>  (1033) 
CTYQZENIHWBIIG-UHFFFAOYSA-N

>  <fragmenstein_mode>  (1033) 
expansion

>  <HIPPO Pose ID>  (1033) 
19996

>  <Energy>  (1033) 
43.443837

>  <fragmenstein_error>  (1033) 


>  <tags>  (1033) 
{'openbind_xx01zvns2b_c1_fragmenstein', 'fragmenstein_placed'}

>  <ref_pdb>  (1033) 
1

>  <scratch_subdir>  (1033) 
/opt/xchem-fragalysis-2/maxwin/BulkDock/SCRATCH/511027/C106627-P160

>  <alias>  (1033) 
O=C(Nc1ccc2c(c1)CNC2)c1ccc2[nH]c(=O)n3c2c1CC3=O

>  <HIPPO Compound ID>  (1033) 
93717

>  <fragmenstein_runtime>  (1033) 
3.14184

$$$$
CNCN1C(=O)Cc2c(C(=O)Nc3ccc4c(c3)CN(C)[C@@H]4C)cc(Cl)cc21
     RDKit          3D

 28 31  0  0  0  0  0  0  0  0999 V2000
   -5.1249    6.9912  -20.1144 C   0  0  0  0  0  0  0  0  0  0  0  0
   -3.9088    6.3959  -19.5888 N   0  0  0  0  0  0  0  0  0  0  0  0
   -4.1550    5.1518  -18.8816 C   0  0  0  0  0  0  0  0  0  0  0  0
   -4.6737    5.4013  -17.5637 N   0  0  0  0  0  0  0  0  0  0  0  0
   -3.8728    5.8332  -16.5019 C   0  0  0  0  0  0  0  0  0  0  0  0
   -2.7003    6.1708  -16.5591 O   0  0  0  0  0  0  0  0  0  0  0  0
   -4.7316    5.8241  -15.2381 C   0  0  0  0  0  0  0  0  0  0  0  0
   -6.0320    5.2645  -15.7303 C   0  0  0  0  0  0  0  0  0  0  0  0
   -7.1954    4.9849  -15.0201 C   0  0  0  0  0  0  0  0  0  0  0  0
   -7.3330    5.4207  -13.6060 C   0  0  0  0  0  0  0  0  0  0  0  0
   -7.0082    6.5145  -13.3536 O   0  0  0  0  0  0  0  0  0  0  0  0
   -7.9251    4.3149  -12.6982 N   0  0  0  0  0  0  0  0  0  0  0  0
   -8.1447    4.2945  -11.3174 C   0  0  0  0  0  0  0  0  0  0  0  0
   -7.9773    5.4590  -10.5511 C   0  0  0  0  0  0  0  0  0  0  0  0
   -8.1290    5.4374   -9.1596 C   0  0  0  0  0  0  0  0  0  0  0  0
   -8.4599    4.2413   -8.5468 C   0  0  0  0  0  0  0  0  0  0  0  0
   -8.6532    3.0900   -9.3067 C   0  0  0  0  0  0  0  0  0  0  0  0
   -8.5024    3.0964  -10.6906 C   0  0  0  0  0  0  0  0  0  0  0  0
   -8.9684    1.9394   -8.4009 C   0  0  0  0  0  0  0  0  0  0  0  0
   -9.0348    2.5035   -7.0294 N   0  0  0  0  0  0  0  0  0  0  0  0
  -10.3026    2.2524   -6.3784 C   0  0  0  0  0  0  0  0  0  0  0  0
   -8.5444    3.8975   -7.0849 C   0  0  2  0  0  0  0  0  0  0  0  0
   -9.2532    4.9332   -6.2120 C   0  0  0  0  0  0  0  0  0  0  0  0
   -8.2771    4.4395  -15.7132 C   0  0  0  0  0  0  0  0  0  0  0  0
   -8.1743    4.2167  -17.0958 C   0  0  0  0  0  0  0  0  0  0  0  0
   -9.5277    3.5952  -17.9428 Cl  0  0  0  0  0  0  0  0  0  0  0  0
   -7.0153    4.5216  -17.8125 C   0  0  0  0  0  0  0  0  0  0  0  0
   -5.9468    5.0326  -17.1058 C   0  0  0  0  0  0  0  0  0  0  0  0
  1  2  1  0
  2  3  1  0
  3  4  1  0
  4  5  1  0
  5  6  2  0
  5  7  1  0
  7  8  1  0
  8  9  2  0
  9 10  1  0
 10 11  2  0
 10 12  1  0
 12 13  1  0
 13 14  2  0
 14 15  1  0
 15 16  2  0
 16 17  1  0
 17 18  2  0
 17 19  1  0
 19 20  1  0
 20 21  1  0
 20 22  1  0
 22 23  1  1
  9 24  1  0
 24 25  2  0
 25 26  1  0
 25 27  1  0
 27 28  2  0
 28  4  1  0
 28  8  1  0
 18 13  1  0
 22 16  1  0
M  END
>  <smiles>  (1034) 
C106648-P160

>  <fragmenstein_outcome>  (1034) 
acceptable

>  <inchikey>  (1034) 
YATVFHDHCNRHQX-UHFFFAOYSA-O

>  <fragmenstein_mode>  (1034) 
expansion

>  <HIPPO Pose ID>  (1034) 
19998

>  <Energy>  (1034) 
22.875204

>  <fragmenstein_error>  (1034) 


>  <tags>  (1034) 
{'openbind_xx01zvns2b_c1_fragmenstein', 'fragmenstein_placed'}

>  <ref_pdb>  (1034) 
1

>  <scratch_subdir>  (1034) 
/opt/xchem-fragalysis-2/maxwin/BulkDock/SCRATCH/511027/C106648-P160

>  <alias>  (1034) 
CNCN1C(=O)Cc2c(C(=O)Nc3ccc4c(c3)CN(C)[C@@H]4C)cc(Cl)cc21

>  <HIPPO Compound ID>  (1034) 
80171

>  <fragmenstein_runtime>  (1034) 
4.085952

$$$$
CNCN1C(=O)Cc2c(C(=O)Nc3cc(F)c4c(c3)CNC4)cc(Cl)cc21
     RDKit          3D

 27 30  0  0  0  0  0  0  0  0999 V2000
   -5.0405    7.2084  -19.9344 C   0  0  0  0  0  0  0  0  0  0  0  0
   -3.8924    6.3599  -19.6707 N   0  0  0  0  0  0  0  0  0  0  0  0
   -4.2506    5.1151  -19.0147 C   0  0  0  0  0  0  0  0  0  0  0  0
   -4.7022    5.3473  -17.6707 N   0  0  0  0  0  0  0  0  0  0  0  0
   -3.8561    5.7474  -16.6324 C   0  0  0  0  0  0  0  0  0  0  0  0
   -2.6772    6.0532  -16.7261 O   0  0  0  0  0  0  0  0  0  0  0  0
   -4.6759    5.7516  -15.3420 C   0  0  0  0  0  0  0  0  0  0  0  0
   -6.0027    5.2299  -15.8012 C   0  0  0  0  0  0  0  0  0  0  0  0
   -7.1497    4.9692  -15.0658 C   0  0  0  0  0  0  0  0  0  0  0  0
   -7.2341    5.3763  -13.6452 C   0  0  0  0  0  0  0  0  0  0  0  0
   -7.0054    6.4908  -13.3841 O   0  0  0  0  0  0  0  0  0  0  0  0
   -7.6486    4.1992  -12.7346 N   0  0  0  0  0  0  0  0  0  0  0  0
   -7.9504    4.1696  -11.3725 C   0  0  0  0  0  0  0  0  0  0  0  0
   -7.8561    5.3277  -10.5846 C   0  0  0  0  0  0  0  0  0  0  0  0
   -8.1491    5.2750   -9.2234 C   0  0  0  0  0  0  0  0  0  0  0  0
   -8.0603    6.3810   -8.4731 F   0  0  0  0  0  0  0  0  0  0  0  0
   -8.5348    4.0801   -8.6621 C   0  0  0  0  0  0  0  0  0  0  0  0
   -8.6252    2.9302   -9.4383 C   0  0  0  0  0  0  0  0  0  0  0  0
   -8.3367    2.9540  -10.7943 C   0  0  0  0  0  0  0  0  0  0  0  0
   -9.0202    1.7894   -8.5591 C   0  0  0  0  0  0  0  0  0  0  0  0
   -9.5242    2.4223   -7.3117 N   0  0  0  0  0  0  0  0  0  0  0  0
   -8.8802    3.7543   -7.2535 C   0  0  0  0  0  0  0  0  0  0  0  0
   -8.2654    4.4512  -15.7261 C   0  0  0  0  0  0  0  0  0  0  0  0
   -8.2102    4.2358  -17.1108 C   0  0  0  0  0  0  0  0  0  0  0  0
   -9.5978    3.6455  -17.9222 Cl  0  0  0  0  0  0  0  0  0  0  0  0
   -7.0677    4.5243  -17.8576 C   0  0  0  0  0  0  0  0  0  0  0  0
   -5.9678    5.0065  -17.1781 C   0  0  0  0  0  0  0  0  0  0  0  0
  1  2  1  0
  2  3  1  0
  3  4  1  0
  4  5  1  0
  5  6  2  0
  5  7  1  0
  7  8  1  0
  8  9  2  0
  9 10  1  0
 10 11  2  0
 10 12  1  0
 12 13  1  0
 13 14  2  0
 14 15  1  0
 15 16  1  0
 15 17  2  0
 17 18  1  0
 18 19  2  0
 18 20  1  0
 20 21  1  0
 21 22  1  0
  9 23  1  0
 23 24  2  0
 24 25  1  0
 24 26  1  0
 26 27  2  0
 27  4  1  0
 27  8  1  0
 19 13  1  0
 22 17  1  0
M  END
>  <smiles>  (1035) 
C27354-P160

>  <fragmenstein_outcome>  (1035) 
acceptable

>  <inchikey>  (1035) 
TYCBBFZWDNVXHO-UHFFFAOYSA-N

>  <fragmenstein_mode>  (1035) 
expansion

>  <HIPPO Pose ID>  (1035) 
19999

>  <Energy>  (1035) 
-0.93584

>  <fragmenstein_error>  (1035) 


>  <tags>  (1035) 
{'openbind_xx01zvns2b_c1_fragmenstein', 'fragmenstein_placed'}

>  <ref_pdb>  (1035) 
1

>  <scratch_subdir>  (1035) 
/opt/xchem-fragalysis-2/maxwin/BulkDock/SCRATCH/511027/C27354-P160

>  <alias>  (1035) 
CNCN1C(=O)Cc2c(C(=O)Nc3cc(F)c4c(c3)CNC4)cc(Cl)cc21

>  <HIPPO Compound ID>  (1035) 
74386

>  <fragmenstein_runtime>  (1035) 
2.423856

$$$$
CNCN1C(=O)Cc2c(C(=O)Nc3cc4c(cc3F)CNC4)cc(Cl)cc21
     RDKit          3D

 27 30  0  0  0  0  0  0  0  0999 V2000
   -4.8570    7.1587  -21.0960 C   0  0  0  0  0  0  0  0  0  0  0  0
   -5.0043    6.9065  -19.6707 N   0  0  0  0  0  0  0  0  0  0  0  0
   -4.6509    5.5340  -19.3432 C   0  0  0  0  0  0  0  0  0  0  0  0
   -4.8558    5.3803  -17.9352 N   0  0  0  0  0  0  0  0  0  0  0  0
   -3.9309    5.8128  -16.9888 C   0  0  0  0  0  0  0  0  0  0  0  0
   -2.8173    6.2509  -17.2383 O   0  0  0  0  0  0  0  0  0  0  0  0
   -4.5892    5.6773  -15.6089 C   0  0  0  0  0  0  0  0  0  0  0  0
   -5.9579    5.1559  -15.9502 C   0  0  0  0  0  0  0  0  0  0  0  0
   -7.0495    4.8843  -15.1332 C   0  0  0  0  0  0  0  0  0  0  0  0
   -7.0454    5.2775  -13.6981 C   0  0  0  0  0  0  0  0  0  0  0  0
   -6.5899    6.3186  -13.4286 O   0  0  0  0  0  0  0  0  0  0  0  0
   -7.7626    4.2344  -12.8060 N   0  0  0  0  0  0  0  0  0  0  0  0
   -7.9772    4.2150  -11.4210 C   0  0  0  0  0  0  0  0  0  0  0  0
   -8.3632    2.9995  -10.8389 C   0  0  0  0  0  0  0  0  0  0  0  0
   -8.6128    2.9643   -9.4742 C   0  0  0  0  0  0  0  0  0  0  0  0
   -8.4945    4.1036   -8.6838 C   0  0  0  0  0  0  0  0  0  0  0  0
   -8.1120    5.3102   -9.2324 C   0  0  0  0  0  0  0  0  0  0  0  0
   -7.8616    5.3581  -10.6053 C   0  0  0  0  0  0  0  0  0  0  0  0
   -7.5594    6.5560  -11.1224 F   0  0  0  0  0  0  0  0  0  0  0  0
   -8.8306    3.7566   -7.2729 C   0  0  0  0  0  0  0  0  0  0  0  0
   -9.4930    2.4374   -7.3455 N   0  0  0  0  0  0  0  0  0  0  0  0
   -9.0049    1.8144   -8.6031 C   0  0  0  0  0  0  0  0  0  0  0  0
   -8.2261    4.4125  -15.7328 C   0  0  0  0  0  0  0  0  0  0  0  0
   -8.2860    4.2454  -17.1239 C   0  0  0  0  0  0  0  0  0  0  0  0
   -9.7391    3.7167  -17.8581 Cl  0  0  0  0  0  0  0  0  0  0  0  0
   -7.2072    4.5525  -17.9440 C   0  0  0  0  0  0  0  0  0  0  0  0
   -6.0541    4.9961  -17.3340 C   0  0  0  0  0  0  0  0  0  0  0  0
  1  2  1  0
  2  3  1  0
  3  4  1  0
  4  5  1  0
  5  6  2  0
  5  7  1  0
  7  8  1  0
  8  9  2  0
  9 10  1  0
 10 11  2  0
 10 12  1  0
 12 13  1  0
 13 14  2  0
 14 15  1  0
 15 16  2  0
 16 17  1  0
 17 18  2  0
 18 19  1  0
 16 20  1  0
 20 21  1  0
 21 22  1  0
  9 23  1  0
 23 24  2  0
 24 25  1  0
 24 26  1  0
 26 27  2  0
 27  4  1  0
 27  8  1  0
 18 13  1  0
 22 15  1  0
M  END
>  <smiles>  (1036) 
C106651-P160

>  <fragmenstein_outcome>  (1036) 
acceptable

>  <inchikey>  (1036) 
CHCJNNUYPBCERF-UHFFFAOYSA-N

>  <fragmenstein_mode>  (1036) 
expansion

>  <HIPPO Pose ID>  (1036) 
20000

>  <Energy>  (1036) 
21.123652

>  <fragmenstein_error>  (1036) 


>  <tags>  (1036) 
{'openbind_xx01zvns2b_c1_fragmenstein', 'fragmenstein_placed'}

>  <ref_pdb>  (1036) 
1

>  <scratch_subdir>  (1036) 
/opt/xchem-fragalysis-2/maxwin/BulkDock/SCRATCH/511027/C106651-P160

>  <alias>  (1036) 
CNCN1C(=O)Cc2c(C(=O)Nc3cc4c(cc3F)CNC4)cc(Cl)cc21

>  <HIPPO Compound ID>  (1036) 
72809

>  <fragmenstein_runtime>  (1036) 
2.662053

$$$$
O=C(Nc1ccc2c(c1)CNC2)c1cccc2c1CC(=O)N2NC1CCC1
     RDKit          3D

 27 31  0  0  0  0  0  0  0  0999 V2000
   -6.9842    6.2775  -13.2928 O   0  0  0  0  0  0  0  0  0  0  0  0
   -7.3256    5.1902  -13.5418 C   0  0  0  0  0  0  0  0  0  0  0  0
   -7.8097    4.0582  -12.6153 N   0  0  0  0  0  0  0  0  0  0  0  0
   -8.0576    4.0545  -11.2465 C   0  0  0  0  0  0  0  0  0  0  0  0
   -7.9361    5.2299  -10.4851 C   0  0  0  0  0  0  0  0  0  0  0  0
   -8.1933    5.2248   -9.1109 C   0  0  0  0  0  0  0  0  0  0  0  0
   -8.5792    4.0341   -8.5279 C   0  0  0  0  0  0  0  0  0  0  0  0
   -8.6917    2.8680   -9.2802 C   0  0  0  0  0  0  0  0  0  0  0  0
   -8.4325    2.8562  -10.6390 C   0  0  0  0  0  0  0  0  0  0  0  0
   -9.0796    1.7454   -8.3775 C   0  0  0  0  0  0  0  0  0  0  0  0
   -9.5847    2.4059   -7.1453 N   0  0  0  0  0  0  0  0  0  0  0  0
   -8.9145    3.7247   -7.1077 C   0  0  0  0  0  0  0  0  0  0  0  0
   -7.3327    4.7721  -14.9669 C   0  0  0  0  0  0  0  0  0  0  0  0
   -8.4910    4.2383  -15.5475 C   0  0  0  0  0  0  0  0  0  0  0  0
   -8.5861    4.0686  -16.9389 C   0  0  0  0  0  0  0  0  0  0  0  0
   -7.5432    4.4750  -17.7705 C   0  0  0  0  0  0  0  0  0  0  0  0
   -6.4091    5.0070  -17.1765 C   0  0  0  0  0  0  0  0  0  0  0  0
   -6.2776    5.1149  -15.7951 C   0  0  0  0  0  0  0  0  0  0  0  0
   -4.9628    5.7417  -15.4603 C   0  0  0  0  0  0  0  0  0  0  0  0
   -4.4460    6.1837  -16.8243 C   0  0  0  0  0  0  0  0  0  0  0  0
   -3.4836    6.9219  -16.9899 O   0  0  0  0  0  0  0  0  0  0  0  0
   -5.3233    5.6416  -17.8078 N   0  0  0  0  0  0  0  0  0  0  0  0
   -5.5749    6.4095  -18.9565 N   0  0  0  0  0  0  0  0  0  0  0  0
   -4.9167    5.9511  -20.1775 C   0  0  0  0  0  0  0  0  0  0  0  0
   -3.3789    6.0754  -20.1047 C   0  0  0  0  0  0  0  0  0  0  0  0
   -3.5086    7.5533  -20.5152 C   0  0  0  0  0  0  0  0  0  0  0  0
   -4.8794    7.1932  -21.1205 C   0  0  0  0  0  0  0  0  0  0  0  0
  1  2  2  0
  2  3  1  0
  3  4  1  0
  4  5  2  0
  5  6  1  0
  6  7  2  0
  7  8  1  0
  8  9  2  0
  8 10  1  0
 10 11  1  0
 11 12  1  0
  2 13  1  0
 13 14  2  0
 14 15  1  0
 15 16  2  0
 16 17  1  0
 17 18  2  0
 18 19  1  0
 19 20  1  0
 20 21  2  0
 20 22  1  0
 22 23  1  0
 23 24  1  0
 24 25  1  0
 25 26  1  0
 26 27  1  0
  9  4  1  0
 18 13  1  0
 27 24  1  0
 12  7  1  0
 22 17  1  0
M  END
>  <smiles>  (1037) 
C106655-P160

>  <fragmenstein_outcome>  (1037) 
acceptable

>  <inchikey>  (1037) 
DBFJFWAOZWQFGD-UHFFFAOYSA-N

>  <fragmenstein_mode>  (1037) 
expansion

>  <HIPPO Pose ID>  (1037) 
20001

>  <Energy>  (1037) 
115.918674

>  <fragmenstein_error>  (1037) 


>  <tags>  (1037) 
{'openbind_xx01zvns2b_c1_fragmenstein', 'fragmenstein_placed'}

>  <ref_pdb>  (1037) 
1

>  <scratch_subdir>  (1037) 
/opt/xchem-fragalysis-2/maxwin/BulkDock/SCRATCH/511027/C106655-P160

>  <alias>  (1037) 
O=C(Nc1ccc2c(c1)CNC2)c1cccc2c1CC(=O)N2NC1CCC1

>  <HIPPO Compound ID>  (1037) 
105084

>  <fragmenstein_runtime>  (1037) 
3.931761

$$$$
O=C1Cc2c(cc(Cl)cc2C(=O)Nc2ccc3c(c2)CNC3)N1
     RDKit          3D

 23 26  0  0  0  0  0  0  0  0999 V2000
   -2.8272    6.4006  -16.4572 O   0  0  0  0  0  0  0  0  0  0  0  0
   -3.9627    5.9605  -16.3942 C   0  0  0  0  0  0  0  0  0  0  0  0
   -4.8274    5.8816  -15.1360 C   0  0  0  0  0  0  0  0  0  0  0  0
   -6.0949    5.2839  -15.6638 C   0  0  0  0  0  0  0  0  0  0  0  0
   -5.9657    5.0503  -17.0295 C   0  0  0  0  0  0  0  0  0  0  0  0
   -6.9834    4.5232  -17.7896 C   0  0  0  0  0  0  0  0  0  0  0  0
   -8.1642    4.2003  -17.1196 C   0  0  0  0  0  0  0  0  0  0  0  0
   -9.4747    3.5499  -18.0085 Cl  0  0  0  0  0  0  0  0  0  0  0  0
   -8.3245    4.4265  -15.7421 C   0  0  0  0  0  0  0  0  0  0  0  0
   -7.2791    4.9916  -15.0102 C   0  0  0  0  0  0  0  0  0  0  0  0
   -7.4691    5.4280  -13.6114 C   0  0  0  0  0  0  0  0  0  0  0  0
   -7.2945    6.5555  -13.3656 O   0  0  0  0  0  0  0  0  0  0  0  0
   -7.9036    4.2613  -12.7001 N   0  0  0  0  0  0  0  0  0  0  0  0
   -8.1152    4.2184  -11.3246 C   0  0  0  0  0  0  0  0  0  0  0  0
   -7.9771    5.3736  -10.5378 C   0  0  0  0  0  0  0  0  0  0  0  0
   -8.1702    5.3264   -9.1544 C   0  0  0  0  0  0  0  0  0  0  0  0
   -8.4977    4.1123   -8.5813 C   0  0  0  0  0  0  0  0  0  0  0  0
   -8.6369    2.9694   -9.3567 C   0  0  0  0  0  0  0  0  0  0  0  0
   -8.4516    3.0006  -10.7304 C   0  0  0  0  0  0  0  0  0  0  0  0
   -8.9896    1.8145   -8.4851 C   0  0  0  0  0  0  0  0  0  0  0  0
   -9.0334    2.3331   -7.0922 N   0  0  0  0  0  0  0  0  0  0  0  0
   -8.7636    3.7847   -7.1542 C   0  0  0  0  0  0  0  0  0  0  0  0
   -4.7085    5.4512  -17.4525 N   0  0  0  0  0  0  0  0  0  0  0  0
  1  2  2  0
  2  3  1  0
  3  4  1  0
  4  5  2  0
  5  6  1  0
  6  7  2  0
  7  8  1  0
  7  9  1  0
  9 10  2  0
 10 11  1  0
 11 12  2  0
 11 13  1  0
 13 14  1  0
 14 15  2  0
 15 16  1  0
 16 17  2  0
 17 18  1  0
 18 19  2  0
 18 20  1  0
 20 21  1  0
 21 22  1  0
  5 23  1  0
 23  2  1  0
 10  4  1  0
 19 14  1  0
 22 17  1  0
M  END
>  <smiles>  (1038) 
C106579-P160

>  <fragmenstein_outcome>  (1038) 
acceptable

>  <inchikey>  (1038) 
JDGIKWZLAYFANF-UHFFFAOYSA-N

>  <fragmenstein_mode>  (1038) 
expansion

>  <HIPPO Pose ID>  (1038) 
20002

>  <Energy>  (1038) 
25.58193

>  <fragmenstein_error>  (1038) 


>  <tags>  (1038) 
{'openbind_xx01zvns2b_c1_fragmenstein', 'fragmenstein_placed'}

>  <ref_pdb>  (1038) 
1

>  <scratch_subdir>  (1038) 
/opt/xchem-fragalysis-2/maxwin/BulkDock/SCRATCH/511027/C106579-P160

>  <alias>  (1038) 
O=C1Cc2c(cc(Cl)cc2C(=O)Nc2ccc3c(c2)CNC3)N1

>  <HIPPO Compound ID>  (1038) 
80170

>  <fragmenstein_runtime>  (1038) 
1.917481

$$$$
CNCN1C(=O)Cc2c(C(=O)Nc3cc(C)c4c(c3)CNC4)cc(Cl)cc21
     RDKit          3D

 27 30  0  0  0  0  0  0  0  0999 V2000
   -2.9980    6.2185  -20.4827 C   0  0  0  0  0  0  0  0  0  0  0  0
   -4.2396    5.4470  -20.5315 N   0  0  0  0  0  0  0  0  0  0  0  0
   -5.2694    6.0877  -19.7013 C   0  0  0  0  0  0  0  0  0  0  0  0
   -5.1504    5.7660  -18.3002 N   0  0  0  0  0  0  0  0  0  0  0  0
   -4.3551    6.5217  -17.4344 C   0  0  0  0  0  0  0  0  0  0  0  0
   -3.5362    7.3687  -17.7609 O   0  0  0  0  0  0  0  0  0  0  0  0
   -4.7523    6.1598  -15.9930 C   0  0  0  0  0  0  0  0  0  0  0  0
   -6.0080    5.3649  -16.1974 C   0  0  0  0  0  0  0  0  0  0  0  0
   -6.9796    4.9562  -15.2822 C   0  0  0  0  0  0  0  0  0  0  0  0
   -6.9230    5.3475  -13.8413 C   0  0  0  0  0  0  0  0  0  0  0  0
   -6.5513    6.4261  -13.5864 O   0  0  0  0  0  0  0  0  0  0  0  0
   -7.4730    4.2291  -12.9173 N   0  0  0  0  0  0  0  0  0  0  0  0
   -7.7583    4.2407  -11.5489 C   0  0  0  0  0  0  0  0  0  0  0  0
   -7.6341    5.4129  -10.7864 C   0  0  0  0  0  0  0  0  0  0  0  0
   -7.9301    5.4268   -9.4112 C   0  0  0  0  0  0  0  0  0  0  0  0
   -7.7776    6.6802   -8.6073 C   0  0  0  0  0  0  0  0  0  0  0  0
   -8.3234    4.2307   -8.8235 C   0  0  0  0  0  0  0  0  0  0  0  0
   -8.4608    3.0712   -9.5770 C   0  0  0  0  0  0  0  0  0  0  0  0
   -8.1930    3.0585  -10.9395 C   0  0  0  0  0  0  0  0  0  0  0  0
   -8.9157    1.9540   -8.6988 C   0  0  0  0  0  0  0  0  0  0  0  0
   -8.9205    2.4843   -7.3105 N   0  0  0  0  0  0  0  0  0  0  0  0
   -8.6634    3.9359   -7.4007 C   0  0  0  0  0  0  0  0  0  0  0  0
   -8.1406    4.3516  -15.7833 C   0  0  0  0  0  0  0  0  0  0  0  0
   -8.2791    4.1409  -17.1603 C   0  0  0  0  0  0  0  0  0  0  0  0
   -9.7305    3.5130  -17.8008 Cl  0  0  0  0  0  0  0  0  0  0  0  0
   -7.2922    4.5081  -18.0636 C   0  0  0  0  0  0  0  0  0  0  0  0
   -6.1766    5.1438  -17.5688 C   0  0  0  0  0  0  0  0  0  0  0  0
  1  2  1  0
  2  3  1  0
  3  4  1  0
  4  5  1  0
  5  6  2  0
  5  7  1  0
  7  8  1  0
  8  9  2  0
  9 10  1  0
 10 11  2  0
 10 12  1  0
 12 13  1  0
 13 14  2  0
 14 15  1  0
 15 16  1  0
 15 17  2  0
 17 18  1  0
 18 19  2  0
 18 20  1  0
 20 21  1  0
 21 22  1  0
  9 23  1  0
 23 24  2  0
 24 25  1  0
 24 26  1  0
 26 27  2  0
 27  4  1  0
 27  8  1  0
 19 13  1  0
 22 17  1  0
M  END
>  <smiles>  (1039) 
C27366-P160

>  <fragmenstein_outcome>  (1039) 
acceptable

>  <inchikey>  (1039) 
XHBPGMLBPMUQNA-UHFFFAOYSA-N

>  <fragmenstein_mode>  (1039) 
expansion

>  <HIPPO Pose ID>  (1039) 
20003

>  <Energy>  (1039) 
17.784111

>  <fragmenstein_error>  (1039) 


>  <tags>  (1039) 
{'openbind_xx01zvns2b_c1_fragmenstein', 'fragmenstein_placed'}

>  <ref_pdb>  (1039) 
1

>  <scratch_subdir>  (1039) 
/opt/xchem-fragalysis-2/maxwin/BulkDock/SCRATCH/511027/C27366-P160

>  <alias>  (1039) 
CNCN1C(=O)Cc2c(C(=O)Nc3cc(C)c4c(c3)CNC4)cc(Cl)cc21

>  <HIPPO Compound ID>  (1039) 
73421

>  <fragmenstein_runtime>  (1039) 
4.126165

$$$$
CNCN1C(=O)Cc2c(C(=O)Nc3ccc4c(c3)CNC4)cc(F)cc21
     RDKit          3D

 26 29  0  0  0  0  0  0  0  0999 V2000
   -6.3009    3.8224  -20.1662 C   0  0  0  0  0  0  0  0  0  0  0  0
   -5.2883    4.8597  -20.2124 N   0  0  0  0  0  0  0  0  0  0  0  0
   -5.5173    5.9398  -19.2587 C   0  0  0  0  0  0  0  0  0  0  0  0
   -5.4417    5.5385  -17.8770 N   0  0  0  0  0  0  0  0  0  0  0  0
   -4.3972    5.9171  -17.0248 C   0  0  0  0  0  0  0  0  0  0  0  0
   -3.3433    6.4493  -17.3395 O   0  0  0  0  0  0  0  0  0  0  0  0
   -4.8391    5.6137  -15.5878 C   0  0  0  0  0  0  0  0  0  0  0  0
   -6.2381    5.1128  -15.7753 C   0  0  0  0  0  0  0  0  0  0  0  0
   -7.2122    4.7840  -14.8426 C   0  0  0  0  0  0  0  0  0  0  0  0
   -7.0578    5.1367  -13.4089 C   0  0  0  0  0  0  0  0  0  0  0  0
   -6.5944    6.1740  -13.1425 O   0  0  0  0  0  0  0  0  0  0  0  0
   -7.6600    4.0464  -12.4980 N   0  0  0  0  0  0  0  0  0  0  0  0
   -7.8962    4.0434  -11.1295 C   0  0  0  0  0  0  0  0  0  0  0  0
   -7.7324    5.2052  -10.3581 C   0  0  0  0  0  0  0  0  0  0  0  0
   -8.0434    5.2058   -8.9950 C   0  0  0  0  0  0  0  0  0  0  0  0
   -8.5117    4.0332   -8.4342 C   0  0  0  0  0  0  0  0  0  0  0  0
   -8.6539    2.8776   -9.1968 C   0  0  0  0  0  0  0  0  0  0  0  0
   -8.3568    2.8628  -10.5459 C   0  0  0  0  0  0  0  0  0  0  0  0
   -9.1107    1.7656   -8.3146 C   0  0  0  0  0  0  0  0  0  0  0  0
   -9.6252    2.4373   -7.0935 N   0  0  0  0  0  0  0  0  0  0  0  0
   -8.9097    3.7315   -7.0284 C   0  0  0  0  0  0  0  0  0  0  0  0
   -8.4528    4.3142  -15.3004 C   0  0  0  0  0  0  0  0  0  0  0  0
   -8.7051    4.2347  -16.6646 C   0  0  0  0  0  0  0  0  0  0  0  0
   -9.8827    3.7905  -17.1178 F   0  0  0  0  0  0  0  0  0  0  0  0
   -7.7792    4.6826  -17.5840 C   0  0  0  0  0  0  0  0  0  0  0  0
   -6.5349    5.0737  -17.1339 C   0  0  0  0  0  0  0  0  0  0  0  0
  1  2  1  0
  2  3  1  0
  3  4  1  0
  4  5  1  0
  5  6  2  0
  5  7  1  0
  7  8  1  0
  8  9  2  0
  9 10  1  0
 10 11  2  0
 10 12  1  0
 12 13  1  0
 13 14  2  0
 14 15  1  0
 15 16  2  0
 16 17  1  0
 17 18  2  0
 17 19  1  0
 19 20  1  0
 20 21  1  0
  9 22  1  0
 22 23  2  0
 23 24  1  0
 23 25  1  0
 25 26  2  0
 26  4  1  0
 26  8  1  0
 18 13  1  0
 21 16  1  0
M  END
>  <smiles>  (1040) 
C106636-P160

>  <fragmenstein_outcome>  (1040) 
acceptable

>  <inchikey>  (1040) 
YINKZTLNVCMNPA-UHFFFAOYSA-N

>  <fragmenstein_mode>  (1040) 
expansion

>  <HIPPO Pose ID>  (1040) 
20004

>  <Energy>  (1040) 
17.198306

>  <fragmenstein_error>  (1040) 


>  <tags>  (1040) 
{'openbind_xx01zvns2b_c1_fragmenstein', 'fragmenstein_placed'}

>  <ref_pdb>  (1040) 
1

>  <scratch_subdir>  (1040) 
/opt/xchem-fragalysis-2/maxwin/BulkDock/SCRATCH/511027/C106636-P160

>  <alias>  (1040) 
CNCN1C(=O)Cc2c(C(=O)Nc3ccc4c(c3)CNC4)cc(F)cc21

>  <HIPPO Compound ID>  (1040) 
105813

>  <fragmenstein_runtime>  (1040) 
5.36971

$$$$
NCc1ccc([C@@H](N=O)Nc2ccc3c(c2)CNC3)c2c1NC(=O)C2
     RDKit          3D

 25 28  0  0  0  0  0  0  0  0999 V2000
   -9.1158    4.1821  -19.2890 N   0  0  0  0  0  0  0  0  0  0  0  0
   -7.7201    4.1399  -18.8779 C   0  0  0  0  0  0  0  0  0  0  0  0
   -7.5489    4.4265  -17.4231 C   0  0  0  0  0  0  0  0  0  0  0  0
   -8.6082    4.2431  -16.5335 C   0  0  0  0  0  0  0  0  0  0  0  0
   -8.4354    4.4093  -15.1613 C   0  0  0  0  0  0  0  0  0  0  0  0
   -7.1843    4.7095  -14.5928 C   0  0  0  0  0  0  0  0  0  0  0  0
   -6.9985    4.7298  -13.0767 C   0  0  1  0  0  0  0  0  0  0  0  0
   -6.4359    6.0468  -12.6286 N   0  0  0  0  0  0  0  0  0  0  0  0
   -7.1929    7.0032  -12.8321 O   0  0  0  0  0  0  0  0  0  0  0  0
   -8.2421    4.3062  -12.4078 N   0  0  0  0  0  0  0  0  0  0  0  0
   -8.2908    4.2015  -11.0111 C   0  0  0  0  0  0  0  0  0  0  0  0
   -8.1618    5.3254  -10.1731 C   0  0  0  0  0  0  0  0  0  0  0  0
   -8.2925    5.2288   -8.7848 C   0  0  0  0  0  0  0  0  0  0  0  0
   -8.5903    3.9954   -8.2450 C   0  0  0  0  0  0  0  0  0  0  0  0
   -8.7281    2.8787   -9.0554 C   0  0  0  0  0  0  0  0  0  0  0  0
   -8.5703    2.9580  -10.4282 C   0  0  0  0  0  0  0  0  0  0  0  0
   -9.0479    1.6920   -8.2152 C   0  0  0  0  0  0  0  0  0  0  0  0
   -9.3370    2.2226   -6.8585 N   0  0  0  0  0  0  0  0  0  0  0  0
   -8.8340    3.6108   -6.8274 C   0  0  0  0  0  0  0  0  0  0  0  0
   -6.1400    4.9321  -15.4910 C   0  0  0  0  0  0  0  0  0  0  0  0
   -6.3353    4.7947  -16.8699 C   0  0  0  0  0  0  0  0  0  0  0  0
   -5.1410    5.0371  -17.5369 N   0  0  0  0  0  0  0  0  0  0  0  0
   -4.1092    5.3015  -16.6526 C   0  0  0  0  0  0  0  0  0  0  0  0
   -2.9435    5.4919  -16.9609 O   0  0  0  0  0  0  0  0  0  0  0  0
   -4.7009    5.2945  -15.2408 C   0  0  0  0  0  0  0  0  0  0  0  0
  1  2  1  0
  2  3  1  0
  3  4  2  0
  4  5  1  0
  5  6  2  0
  6  7  1  0
  7  8  1  0
  8  9  2  0
  7 10  1  1
 10 11  1  0
 11 12  2  0
 12 13  1  0
 13 14  2  0
 14 15  1  0
 15 16  2  0
 15 17  1  0
 17 18  1  0
 18 19  1  0
  6 20  1  0
 20 21  2  0
 21 22  1  0
 22 23  1  0
 23 24  2  0
 23 25  1  0
 21  3  1  0
 16 11  1  0
 25 20  1  0
 19 14  1  0
M  END
>  <smiles>  (1041) 
C106664-P160

>  <fragmenstein_outcome>  (1041) 
acceptable

>  <inchikey>  (1041) 
FWXJWPXZARMZPH-UHFFFAOYSA-N

>  <fragmenstein_mode>  (1041) 
expansion

>  <HIPPO Pose ID>  (1041) 
20007

>  <Energy>  (1041) 
50.708074

>  <fragmenstein_error>  (1041) 


>  <tags>  (1041) 
{'openbind_xx01zvns2b_c1_fragmenstein', 'fragmenstein_placed'}

>  <ref_pdb>  (1041) 
1

>  <scratch_subdir>  (1041) 
/opt/xchem-fragalysis-2/maxwin/BulkDock/SCRATCH/511027/C106664-P160

>  <alias>  (1041) 
NCc1ccc([C@@H](N=O)Nc2ccc3c(c2)CNC3)c2c1NC(=O)C2

>  <HIPPO Compound ID>  (1041) 
78188

>  <fragmenstein_runtime>  (1041) 
2.021039

$$$$
NN1C(=O)Cc2c(C(=O)Nc3ccc4c(c3)CNC4)cc(Br)cc21
     RDKit          3D

 24 27  0  0  0  0  0  0  0  0999 V2000
   -4.2642    5.2301  -18.5936 N   0  0  0  0  0  0  0  0  0  0  0  0
   -4.6904    5.2996  -17.2787 N   0  0  0  0  0  0  0  0  0  0  0  0
   -3.8714    5.6536  -16.1916 C   0  0  0  0  0  0  0  0  0  0  0  0
   -2.6819    5.9311  -16.2137 O   0  0  0  0  0  0  0  0  0  0  0  0
   -4.7640    5.6377  -14.9505 C   0  0  0  0  0  0  0  0  0  0  0  0
   -6.0821    5.1817  -15.4992 C   0  0  0  0  0  0  0  0  0  0  0  0
   -7.2830    4.9646  -14.8512 C   0  0  0  0  0  0  0  0  0  0  0  0
   -7.4433    5.3866  -13.4470 C   0  0  0  0  0  0  0  0  0  0  0  0
   -7.2190    6.5011  -13.1842 O   0  0  0  0  0  0  0  0  0  0  0  0
   -7.9312    4.2278  -12.5549 N   0  0  0  0  0  0  0  0  0  0  0  0
   -8.1477    4.1738  -11.1817 C   0  0  0  0  0  0  0  0  0  0  0  0
   -7.9941    5.3182  -10.3820 C   0  0  0  0  0  0  0  0  0  0  0  0
   -8.1951    5.2587   -9.0003 C   0  0  0  0  0  0  0  0  0  0  0  0
   -8.5483    4.0440   -8.4438 C   0  0  0  0  0  0  0  0  0  0  0  0
   -8.6981    2.9110   -9.2335 C   0  0  0  0  0  0  0  0  0  0  0  0
   -8.5039    2.9541  -10.6046 C   0  0  0  0  0  0  0  0  0  0  0  0
   -9.0330    1.7452   -8.3682 C   0  0  0  0  0  0  0  0  0  0  0  0
   -9.2915    2.2988   -7.0140 N   0  0  0  0  0  0  0  0  0  0  0  0
   -8.8039    3.6931   -7.0187 C   0  0  0  0  0  0  0  0  0  0  0  0
   -8.3683    4.4952  -15.5906 C   0  0  0  0  0  0  0  0  0  0  0  0
   -8.2292    4.2961  -16.9725 C   0  0  0  0  0  0  0  0  0  0  0  0
   -9.7146    3.7613  -17.9787 Br  0  0  0  0  0  0  0  0  0  0  0  0
   -7.0359    4.5479  -17.6397 C   0  0  0  0  0  0  0  0  0  0  0  0
   -5.9786    4.9813  -16.8733 C   0  0  0  0  0  0  0  0  0  0  0  0
  1  2  1  0
  2  3  1  0
  3  4  2  0
  3  5  1  0
  5  6  1  0
  6  7  2  0
  7  8  1  0
  8  9  2  0
  8 10  1  0
 10 11  1  0
 11 12  2  0
 12 13  1  0
 13 14  2  0
 14 15  1  0
 15 16  2  0
 15 17  1  0
 17 18  1  0
 18 19  1  0
  7 20  1  0
 20 21  2  0
 21 22  1  0
 21 23  1  0
 23 24  2  0
 24  2  1  0
 24  6  1  0
 16 11  1  0
 19 14  1  0
M  END
>  <smiles>  (1042) 
C106666-P160

>  <fragmenstein_outcome>  (1042) 
acceptable

>  <inchikey>  (1042) 
RRRRVNPJWKTNCI-UHFFFAOYSA-N

>  <fragmenstein_mode>  (1042) 
expansion

>  <HIPPO Pose ID>  (1042) 
20009

>  <Energy>  (1042) 
83.255745

>  <fragmenstein_error>  (1042) 


>  <tags>  (1042) 
{'openbind_xx01zvns2b_c1_fragmenstein', 'fragmenstein_placed'}

>  <ref_pdb>  (1042) 
1

>  <scratch_subdir>  (1042) 
/opt/xchem-fragalysis-2/maxwin/BulkDock/SCRATCH/511027/C106666-P160

>  <alias>  (1042) 
NN1C(=O)Cc2c(C(=O)Nc3ccc4c(c3)CNC4)cc(Br)cc21

>  <HIPPO Compound ID>  (1042) 
85599

>  <fragmenstein_runtime>  (1042) 
3.285889

$$$$
O=C(Nc1ccc2c(c1)CNC2)[C@@H]1C[C@@H](Cl)C[C@@H]2[C@@H]1C[C@H]1OCCCNCN21
     RDKit          3D

 28 32  0  0  0  0  0  0  0  0999 V2000
   -6.9689    6.6549  -13.2700 O   0  0  0  0  0  0  0  0  0  0  0  0
   -7.3229    5.5834  -13.5849 C   0  0  0  0  0  0  0  0  0  0  0  0
   -7.7845    4.3800  -12.7170 N   0  0  0  0  0  0  0  0  0  0  0  0
   -7.9889    4.2815  -11.3410 C   0  0  0  0  0  0  0  0  0  0  0  0
   -7.7971    5.4019  -10.5146 C   0  0  0  0  0  0  0  0  0  0  0  0
   -8.0208    5.3288   -9.1377 C   0  0  0  0  0  0  0  0  0  0  0  0
   -8.4170    4.1180   -8.6053 C   0  0  0  0  0  0  0  0  0  0  0  0
   -8.5942    3.0034   -9.4144 C   0  0  0  0  0  0  0  0  0  0  0  0
   -8.3970    3.0658  -10.7875 C   0  0  0  0  0  0  0  0  0  0  0  0
   -9.0004    1.8426   -8.5725 C   0  0  0  0  0  0  0  0  0  0  0  0
   -9.0146    2.3217   -7.1645 N   0  0  0  0  0  0  0  0  0  0  0  0
   -8.7294    3.7706   -7.1925 C   0  0  0  0  0  0  0  0  0  0  0  0
   -7.4287    5.2606  -15.0875 C   0  0  2  0  0  0  0  0  0  0  0  0
   -8.1829    4.0591  -15.6467 C   0  0  0  0  0  0  0  0  0  0  0  0
   -8.2153    3.9728  -17.1935 C   0  0  1  0  0  0  0  0  0  0  0  0
   -9.8573    4.1367  -17.8521 Cl  0  0  0  0  0  0  0  0  0  0  0  0
   -7.2243    4.8665  -17.9493 C   0  0  0  0  0  0  0  0  0  0  0  0
   -5.9354    4.9197  -17.1545 C   0  0  2  0  0  0  0  0  0  0  0  0
   -6.1405    5.6342  -15.8337 C   0  0  2  0  0  0  0  0  0  0  0  0
   -4.7422    5.5081  -15.2682 C   0  0  0  0  0  0  0  0  0  0  0  0
   -3.9189    5.9260  -16.5158 C   0  0  1  0  0  0  0  0  0  0  0  0
   -2.6739    5.2547  -16.5170 O   0  0  0  0  0  0  0  0  0  0  0  0
   -1.5800    6.1172  -16.8178 C   0  0  0  0  0  0  0  0  0  0  0  0
   -1.6501    6.8212  -18.1735 C   0  0  0  0  0  0  0  0  0  0  0  0
   -1.9948    5.9061  -19.3484 C   0  0  0  0  0  0  0  0  0  0  0  0
   -3.4218    5.7899  -19.6462 N   0  0  0  0  0  0  0  0  0  0  0  0
   -4.1435    4.9042  -18.7600 C   0  0  0  0  0  0  0  0  0  0  0  0
   -4.7800    5.6521  -17.6994 N   0  0  0  0  0  0  0  0  0  0  0  0
  1  2  2  0
  2  3  1  0
  3  4  1  0
  4  5  2  0
  5  6  1  0
  6  7  2  0
  7  8  1  0
  8  9  2  0
  8 10  1  0
 10 11  1  0
 11 12  1  0
 13  2  1  1
 13 14  1  0
 14 15  1  0
 15 16  1  6
 15 17  1  0
 18 17  1  6
 18 19  1  0
 19 20  1  1
 21 20  1  1
 21 22  1  0
 22 23  1  0
 23 24  1  0
 24 25  1  0
 25 26  1  0
 26 27  1  0
 27 28  1  0
  9  4  1  0
 19 13  1  0
 28 21  1  0
 12  7  1  0
 28 18  1  0
M  END
>  <smiles>  (1043) 
C106667-P160

>  <fragmenstein_outcome>  (1043) 
acceptable

>  <inchikey>  (1043) 
IDTOUFGRVBHGEV-UHFFFAOYSA-N

>  <fragmenstein_mode>  (1043) 
expansion

>  <HIPPO Pose ID>  (1043) 
20010

>  <Energy>  (1043) 
4.59085

>  <fragmenstein_error>  (1043) 


>  <tags>  (1043) 
{'openbind_xx01zvns2b_c1_fragmenstein', 'fragmenstein_placed'}

>  <ref_pdb>  (1043) 
1

>  <scratch_subdir>  (1043) 
/opt/xchem-fragalysis-2/maxwin/BulkDock/SCRATCH/511027/C106667-P160

>  <alias>  (1043) 
O=C(Nc1ccc2c(c1)CNC2)[C@@H]1C[C@@H](Cl)C[C@@H]2[C@@H]1C[C@H]1OCCCNCN21

>  <HIPPO Compound ID>  (1043) 
71108

>  <fragmenstein_runtime>  (1043) 
4.502573

$$$$
O=C(Nc1ccc2c(c1)CNC2)c1cc(Cl)cc2c1CC1(CCOCC1)N2
     RDKit          3D

 27 31  0  0  0  0  0  0  0  0999 V2000
   -6.9597    6.4768  -13.3174 O   0  0  0  0  0  0  0  0  0  0  0  0
   -7.2328    5.3755  -13.5921 C   0  0  0  0  0  0  0  0  0  0  0  0
   -7.6908    4.2050  -12.6963 N   0  0  0  0  0  0  0  0  0  0  0  0
   -7.9899    4.1698  -11.3361 C   0  0  0  0  0  0  0  0  0  0  0  0
   -7.9128    5.3361  -10.5558 C   0  0  0  0  0  0  0  0  0  0  0  0
   -8.1662    5.3009   -9.1818 C   0  0  0  0  0  0  0  0  0  0  0  0
   -8.4960    4.0873   -8.6105 C   0  0  0  0  0  0  0  0  0  0  0  0
   -8.5906    2.9363   -9.3813 C   0  0  0  0  0  0  0  0  0  0  0  0
   -8.3437    2.9555  -10.7462 C   0  0  0  0  0  0  0  0  0  0  0  0
   -8.9677    1.7862   -8.5134 C   0  0  0  0  0  0  0  0  0  0  0  0
   -9.0301    2.3077   -7.1217 N   0  0  0  0  0  0  0  0  0  0  0  0
   -8.8014    3.7660   -7.1899 C   0  0  0  0  0  0  0  0  0  0  0  0
   -7.1161    4.9694  -15.0166 C   0  0  0  0  0  0  0  0  0  0  0  0
   -8.1860    4.3735  -15.6877 C   0  0  0  0  0  0  0  0  0  0  0  0
   -8.1242    4.2206  -17.0807 C   0  0  0  0  0  0  0  0  0  0  0  0
   -9.4631    3.5442  -17.9116 Cl  0  0  0  0  0  0  0  0  0  0  0  0
   -7.0275    4.6671  -17.8194 C   0  0  0  0  0  0  0  0  0  0  0  0
   -5.9659    5.2233  -17.1364 C   0  0  0  0  0  0  0  0  0  0  0  0
   -6.0032    5.3588  -15.7530 C   0  0  0  0  0  0  0  0  0  0  0  0
   -4.7544    6.0336  -15.2867 C   0  0  0  0  0  0  0  0  0  0  0  0
   -3.9356    6.1880  -16.6074 C   0  0  0  0  0  0  0  0  0  0  0  0
   -3.4294    7.6306  -16.7355 C   0  0  0  0  0  0  0  0  0  0  0  0
   -2.1579    7.7518  -17.5711 C   0  0  0  0  0  0  0  0  0  0  0  0
   -2.0807    6.7139  -18.5353 O   0  0  0  0  0  0  0  0  0  0  0  0
   -1.9080    5.4309  -17.9374 C   0  0  0  0  0  0  0  0  0  0  0  0
   -2.7367    5.2410  -16.6628 C   0  0  0  0  0  0  0  0  0  0  0  0
   -4.8771    5.8862  -17.7107 N   0  0  0  0  0  0  0  0  0  0  0  0
  1  2  2  0
  2  3  1  0
  3  4  1  0
  4  5  2  0
  5  6  1  0
  6  7  2  0
  7  8  1  0
  8  9  2  0
  8 10  1  0
 10 11  1  0
 11 12  1  0
  2 13  1  0
 13 14  2  0
 14 15  1  0
 15 16  1  0
 15 17  2  0
 17 18  1  0
 18 19  2  0
 19 20  1  0
 20 21  1  0
 21 22  1  0
 22 23  1  0
 23 24  1  0
 24 25  1  0
 25 26  1  0
 21 27  1  0
  9  4  1  0
 19 13  1  0
 26 21  1  0
 12  7  1  0
 27 18  1  0
M  END
>  <smiles>  (1044) 
C43816-P160

>  <fragmenstein_outcome>  (1044) 
acceptable

>  <inchikey>  (1044) 
DNFQCJWZRUOKCY-UHFFFAOYSA-N

>  <fragmenstein_mode>  (1044) 
expansion

>  <HIPPO Pose ID>  (1044) 
20011

>  <Energy>  (1044) 
59.193693

>  <fragmenstein_error>  (1044) 


>  <tags>  (1044) 
{'openbind_xx01zvns2b_c1_fragmenstein', 'fragmenstein_placed'}

>  <ref_pdb>  (1044) 
1

>  <scratch_subdir>  (1044) 
/opt/xchem-fragalysis-2/maxwin/BulkDock/SCRATCH/511027/C43816-P160

>  <alias>  (1044) 
O=C(Nc1ccc2c(c1)CNC2)c1cc(Cl)cc2c1CC1(CCOCC1)N2

>  <HIPPO Compound ID>  (1044) 
86973

>  <fragmenstein_runtime>  (1044) 
4.247091

$$$$
O=C(Nc1ccc2c(c1)CNC2)c1cc(Cl)cc2c1CC(=O)N2NC1CNC1
     RDKit          3D

 28 32  0  0  0  0  0  0  0  0999 V2000
   -7.1588    6.3270  -13.1274 O   0  0  0  0  0  0  0  0  0  0  0  0
   -7.4275    5.2241  -13.3928 C   0  0  0  0  0  0  0  0  0  0  0  0
   -7.8585    4.0589  -12.4896 N   0  0  0  0  0  0  0  0  0  0  0  0
   -8.1332    4.0258  -11.1281 C   0  0  0  0  0  0  0  0  0  0  0  0
   -8.0407    5.1963  -10.3524 C   0  0  0  0  0  0  0  0  0  0  0  0
   -8.2961    5.1715   -8.9801 C   0  0  0  0  0  0  0  0  0  0  0  0
   -8.6593    3.9668   -8.4148 C   0  0  0  0  0  0  0  0  0  0  0  0
   -8.7493    2.8078   -9.1827 C   0  0  0  0  0  0  0  0  0  0  0  0
   -8.4831    2.8135  -10.5395 C   0  0  0  0  0  0  0  0  0  0  0  0
   -9.1220    1.6702   -8.2938 C   0  0  0  0  0  0  0  0  0  0  0  0
   -9.6496    2.3097   -7.0609 N   0  0  0  0  0  0  0  0  0  0  0  0
   -8.9948    3.6345   -7.0001 C   0  0  0  0  0  0  0  0  0  0  0  0
   -7.3134    4.8236  -14.8116 C   0  0  0  0  0  0  0  0  0  0  0  0
   -8.4203    4.3298  -15.5152 C   0  0  0  0  0  0  0  0  0  0  0  0
   -8.3915    4.2972  -16.9163 C   0  0  0  0  0  0  0  0  0  0  0  0
   -9.7409    3.7288  -17.8029 Cl  0  0  0  0  0  0  0  0  0  0  0  0
   -7.3145    4.8160  -17.6242 C   0  0  0  0  0  0  0  0  0  0  0  0
   -6.2315    5.2753  -16.8994 C   0  0  0  0  0  0  0  0  0  0  0  0
   -6.1867    5.2159  -15.5146 C   0  0  0  0  0  0  0  0  0  0  0  0
   -4.8808    5.7642  -15.0256 C   0  0  0  0  0  0  0  0  0  0  0  0
   -4.2749    6.3475  -16.2946 C   0  0  0  0  0  0  0  0  0  0  0  0
   -3.3068    7.0938  -16.3557 O   0  0  0  0  0  0  0  0  0  0  0  0
   -5.1092    5.9694  -17.3744 N   0  0  0  0  0  0  0  0  0  0  0  0
   -5.3023    6.9142  -18.3929 N   0  0  0  0  0  0  0  0  0  0  0  0
   -4.9684    6.5195  -19.7508 C   0  0  0  0  0  0  0  0  0  0  0  0
   -3.4374    6.4410  -19.9457 C   0  0  0  0  0  0  0  0  0  0  0  0
   -3.7022    5.3000  -20.8746 N   0  0  0  0  0  0  0  0  0  0  0  0
   -4.9304    5.0208  -20.0379 C   0  0  0  0  0  0  0  0  0  0  0  0
  1  2  2  0
  2  3  1  0
  3  4  1  0
  4  5  2  0
  5  6  1  0
  6  7  2  0
  7  8  1  0
  8  9  2  0
  8 10  1  0
 10 11  1  0
 11 12  1  0
  2 13  1  0
 13 14  2  0
 14 15  1  0
 15 16  1  0
 15 17  2  0
 17 18  1  0
 18 19  2  0
 19 20  1  0
 20 21  1  0
 21 22  2  0
 21 23  1  0
 23 24  1  0
 24 25  1  0
 25 26  1  0
 26 27  1  0
 27 28  1  0
  9  4  1  0
 19 13  1  0
 28 25  1  0
 12  7  1  0
 23 18  1  0
M  END
>  <smiles>  (1045) 
C106668-P160

>  <fragmenstein_outcome>  (1045) 
acceptable

>  <inchikey>  (1045) 
CTBOVYQUDDCDMP-UHFFFAOYSA-N

>  <fragmenstein_mode>  (1045) 
expansion

>  <HIPPO Pose ID>  (1045) 
20012

>  <Energy>  (1045) 
128.193961

>  <fragmenstein_error>  (1045) 


>  <tags>  (1045) 
{'openbind_xx01zvns2b_c1_fragmenstein', 'fragmenstein_placed'}

>  <ref_pdb>  (1045) 
1

>  <scratch_subdir>  (1045) 
/opt/xchem-fragalysis-2/maxwin/BulkDock/SCRATCH/511027/C106668-P160

>  <alias>  (1045) 
O=C(Nc1ccc2c(c1)CNC2)c1cc(Cl)cc2c1CC(=O)N2NC1CNC1

>  <HIPPO Compound ID>  (1045) 
106668

>  <fragmenstein_runtime>  (1045) 
3.867771

$$$$
O=C(Nc1ccc2c(c1)CNC2)c1cc(Cl)cc2c1CC(=O)C21CCOCC1
     RDKit          3D

 28 32  0  0  0  0  0  0  0  0999 V2000
   -7.2252    6.6068  -13.3158 O   0  0  0  0  0  0  0  0  0  0  0  0
   -7.3707    5.4789  -13.5780 C   0  0  0  0  0  0  0  0  0  0  0  0
   -7.8047    4.2921  -12.6892 N   0  0  0  0  0  0  0  0  0  0  0  0
   -8.0499    4.2298  -11.3187 C   0  0  0  0  0  0  0  0  0  0  0  0
   -7.9942    5.3852  -10.5210 C   0  0  0  0  0  0  0  0  0  0  0  0
   -8.2429    5.3220   -9.1466 C   0  0  0  0  0  0  0  0  0  0  0  0
   -8.5706    4.0964   -8.6008 C   0  0  0  0  0  0  0  0  0  0  0  0
   -8.6319    2.9505   -9.3892 C   0  0  0  0  0  0  0  0  0  0  0  0
   -8.3624    2.9932  -10.7470 C   0  0  0  0  0  0  0  0  0  0  0  0
   -9.0015    1.7889   -8.5264 C   0  0  0  0  0  0  0  0  0  0  0  0
   -9.5216    2.3940   -7.2714 N   0  0  0  0  0  0  0  0  0  0  0  0
   -8.8969    3.7317   -7.1916 C   0  0  0  0  0  0  0  0  0  0  0  0
   -7.1499    5.0466  -14.9850 C   0  0  0  0  0  0  0  0  0  0  0  0
   -8.1469    4.3266  -15.6466 C   0  0  0  0  0  0  0  0  0  0  0  0
   -8.0108    4.0586  -17.0091 C   0  0  0  0  0  0  0  0  0  0  0  0
   -9.3047    3.3214  -17.8608 Cl  0  0  0  0  0  0  0  0  0  0  0  0
   -6.8713    4.4414  -17.7209 C   0  0  0  0  0  0  0  0  0  0  0  0
   -5.8739    5.1649  -17.0778 C   0  0  0  0  0  0  0  0  0  0  0  0
   -6.0501    5.5033  -15.7186 C   0  0  0  0  0  0  0  0  0  0  0  0
   -5.0302    6.5106  -15.2723 C   0  0  0  0  0  0  0  0  0  0  0  0
   -4.4397    6.9590  -16.5990 C   0  0  0  0  0  0  0  0  0  0  0  0
   -3.8066    7.9979  -16.7503 O   0  0  0  0  0  0  0  0  0  0  0  0
   -4.6866    5.9010  -17.6982 C   0  0  0  0  0  0  0  0  0  0  0  0
   -5.0490    6.5446  -19.0310 C   0  0  0  0  0  0  0  0  0  0  0  0
   -4.8135    5.5861  -20.1849 C   0  0  0  0  0  0  0  0  0  0  0  0
   -3.4388    5.2360  -20.2870 O   0  0  0  0  0  0  0  0  0  0  0  0
   -2.8601    4.6623  -19.1234 C   0  0  0  0  0  0  0  0  0  0  0  0
   -3.3411    5.1573  -17.7645 C   0  0  0  0  0  0  0  0  0  0  0  0
  1  2  2  0
  2  3  1  0
  3  4  1  0
  4  5  2  0
  5  6  1  0
  6  7  2  0
  7  8  1  0
  8  9  2  0
  8 10  1  0
 10 11  1  0
 11 12  1  0
  2 13  1  0
 13 14  2  0
 14 15  1  0
 15 16  1  0
 15 17  2  0
 17 18  1  0
 18 19  2  0
 19 20  1  0
 20 21  1  0
 21 22  2  0
 21 23  1  0
 23 24  1  0
 24 25  1  0
 25 26  1  0
 26 27  1  0
 27 28  1  0
  9  4  1  0
 19 13  1  0
 28 23  1  0
 12  7  1  0
 23 18  1  0
M  END
>  <smiles>  (1046) 
C106670-P160

>  <fragmenstein_outcome>  (1046) 
acceptable

>  <inchikey>  (1046) 
HWYIOOUJMZOJFM-UHFFFAOYSA-N

>  <fragmenstein_mode>  (1046) 
expansion

>  <HIPPO Pose ID>  (1046) 
20013

>  <Energy>  (1046) 
83.135067

>  <fragmenstein_error>  (1046) 


>  <tags>  (1046) 
{'openbind_xx01zvns2b_c1_fragmenstein', 'fragmenstein_placed'}

>  <ref_pdb>  (1046) 
1

>  <scratch_subdir>  (1046) 
/opt/xchem-fragalysis-2/maxwin/BulkDock/SCRATCH/511027/C106670-P160

>  <alias>  (1046) 
O=C(Nc1ccc2c(c1)CNC2)c1cc(Cl)cc2c1CC(=O)C21CCOCC1

>  <HIPPO Compound ID>  (1046) 
96462

>  <fragmenstein_runtime>  (1046) 
3.936456

$$$$
NCc1ccc(N[C@H](N)c2ccccc2)c(C(O)(O)Nc2ccc3c(c2)CNC3)c1
     RDKit          3D

 30 33  0  0  0  0  0  0  0  0999 V2000
   -9.5866    2.3646  -18.0195 N   0  0  0  0  0  0  0  0  0  0  0  0
   -9.7855    3.7790  -17.7286 C   0  0  0  0  0  0  0  0  0  0  0  0
   -8.5328    4.2753  -17.0835 C   0  0  0  0  0  0  0  0  0  0  0  0
   -7.4260    4.4630  -17.8901 C   0  0  0  0  0  0  0  0  0  0  0  0
   -6.2208    4.8141  -17.3194 C   0  0  0  0  0  0  0  0  0  0  0  0
   -6.0681    5.0387  -15.9422 C   0  0  0  0  0  0  0  0  0  0  0  0
   -4.9176    5.6770  -15.4392 N   0  0  0  0  0  0  0  0  0  0  0  0
   -3.5983    5.5273  -16.0377 C   0  0  2  0  0  0  0  0  0  0  0  0
   -2.5200    6.0796  -15.2310 N   0  0  0  0  0  0  0  0  0  0  0  0
   -3.4710    6.0918  -17.4523 C   0  0  0  0  0  0  0  0  0  0  0  0
   -4.1808    7.2302  -17.8695 C   0  0  0  0  0  0  0  0  0  0  0  0
   -4.1945    7.6008  -19.2165 C   0  0  0  0  0  0  0  0  0  0  0  0
   -3.4196    6.9081  -20.1449 C   0  0  0  0  0  0  0  0  0  0  0  0
   -2.6381    5.8325  -19.7326 C   0  0  0  0  0  0  0  0  0  0  0  0
   -2.6698    5.4203  -18.3993 C   0  0  0  0  0  0  0  0  0  0  0  0
   -7.1897    4.8004  -15.0964 C   0  0  0  0  0  0  0  0  0  0  0  0
   -7.1320    5.0038  -13.5755 C   0  0  0  0  0  0  0  0  0  0  0  0
   -5.8504    4.6390  -13.1073 O   0  0  0  0  0  0  0  0  0  0  0  0
   -7.3145    6.3754  -13.3200 O   0  0  0  0  0  0  0  0  0  0  0  0
   -8.1035    4.2033  -12.8598 N   0  0  0  0  0  0  0  0  0  0  0  0
   -8.2296    4.1832  -11.4648 C   0  0  0  0  0  0  0  0  0  0  0  0
   -8.0990    5.3339  -10.6622 C   0  0  0  0  0  0  0  0  0  0  0  0
   -8.2312    5.2890   -9.2676 C   0  0  0  0  0  0  0  0  0  0  0  0
   -8.5196    4.0774   -8.6747 C   0  0  0  0  0  0  0  0  0  0  0  0
   -8.6775    2.9352   -9.4427 C   0  0  0  0  0  0  0  0  0  0  0  0
   -8.5469    2.9723  -10.8254 C   0  0  0  0  0  0  0  0  0  0  0  0
   -8.9775    1.7778   -8.5514 C   0  0  0  0  0  0  0  0  0  0  0  0
   -9.1748    2.3434   -7.1948 N   0  0  0  0  0  0  0  0  0  0  0  0
   -8.7281    3.7482   -7.2370 C   0  0  0  0  0  0  0  0  0  0  0  0
   -8.4123    4.4262  -15.6978 C   0  0  0  0  0  0  0  0  0  0  0  0
  1  2  1  0
  2  3  1  0
  3  4  2  0
  4  5  1  0
  5  6  2  0
  6  7  1  0
  7  8  1  0
  8  9  1  1
  8 10  1  0
 10 11  2  0
 11 12  1  0
 12 13  2  0
 13 14  1  0
 14 15  2  0
  6 16  1  0
 16 17  1  0
 17 18  1  0
 17 19  1  0
 17 20  1  0
 20 21  1  0
 21 22  2  0
 22 23  1  0
 23 24  2  0
 24 25  1  0
 25 26  2  0
 25 27  1  0
 27 28  1  0
 28 29  1  0
 16 30  2  0
 30  3  1  0
 15 10  1  0
 26 21  1  0
 29 24  1  0
M  END
>  <smiles>  (1047) 
C106698-P160

>  <fragmenstein_outcome>  (1047) 
acceptable

>  <inchikey>  (1047) 
SWEMUAIDESQMBM-UHFFFAOYSA-N

>  <fragmenstein_mode>  (1047) 
expansion

>  <HIPPO Pose ID>  (1047) 
20025

>  <Energy>  (1047) 
-103.52983

>  <fragmenstein_error>  (1047) 


>  <tags>  (1047) 
{'openbind_xx01zvns2b_c1_fragmenstein', 'fragmenstein_placed'}

>  <ref_pdb>  (1047) 
1

>  <scratch_subdir>  (1047) 
/opt/xchem-fragalysis-2/maxwin/BulkDock/SCRATCH/511027/C106698-P160

>  <alias>  (1047) 
NCc1ccc(N[C@H](N)c2ccccc2)c(C(O)(O)Nc2ccc3c(c2)CNC3)c1

>  <HIPPO Compound ID>  (1047) 
83795

>  <fragmenstein_runtime>  (1047) 
5.330922

$$$$
C[C@H]1CCCC[C@]12CNCCn1c2c(O)c2c(C(=O)Nc3ccc4c(c3)CNC4)cc(F)cc21
     RDKit          3D

 34 39  0  0  0  0  0  0  0  0999 V2000
   -3.9350    9.0545  -17.2776 C   0  0  0  0  0  0  0  0  0  0  0  0
   -2.7266    8.1142  -17.2014 C   0  0  1  0  0  0  0  0  0  0  0  0
   -2.0335    8.2636  -15.8381 C   0  0  0  0  0  0  0  0  0  0  0  0
   -0.7083    7.5074  -15.7584 C   0  0  0  0  0  0  0  0  0  0  0  0
   -0.6035    6.3452  -16.7386 C   0  0  0  0  0  0  0  0  0  0  0  0
   -1.9543    5.6683  -16.9502 C   0  0  0  0  0  0  0  0  0  0  0  0
   -3.0172    6.6123  -17.6025 C   0  0  2  0  0  0  0  0  0  0  0  0
   -2.7959    6.5045  -19.1856 C   0  0  0  0  0  0  0  0  0  0  0  0
   -3.3392    5.3019  -19.8709 N   0  0  0  0  0  0  0  0  0  0  0  0
   -4.7186    5.5677  -20.3262 C   0  0  0  0  0  0  0  0  0  0  0  0
   -5.5782    6.3489  -19.3574 C   0  0  0  0  0  0  0  0  0  0  0  0
   -5.4540    5.8374  -18.0093 N   0  0  0  0  0  0  0  0  0  0  0  0
   -4.4142    6.1166  -17.1452 C   0  0  0  0  0  0  0  0  0  0  0  0
   -4.9637    5.8838  -15.8936 C   0  0  0  0  0  0  0  0  0  0  0  0
   -4.3468    6.2201  -14.7507 O   0  0  0  0  0  0  0  0  0  0  0  0
   -6.2400    5.2566  -16.0194 C   0  0  0  0  0  0  0  0  0  0  0  0
   -7.2611    4.8119  -15.1405 C   0  0  0  0  0  0  0  0  0  0  0  0
   -7.1919    5.1722  -13.6947 C   0  0  0  0  0  0  0  0  0  0  0  0
   -6.6960    6.1965  -13.4263 O   0  0  0  0  0  0  0  0  0  0  0  0
   -7.9009    4.1347  -12.7926 N   0  0  0  0  0  0  0  0  0  0  0  0
   -8.0589    4.0966  -11.4103 C   0  0  0  0  0  0  0  0  0  0  0  0
   -7.8487    5.2493  -10.6342 C   0  0  0  0  0  0  0  0  0  0  0  0
   -8.0753    5.2359   -9.2547 C   0  0  0  0  0  0  0  0  0  0  0  0
   -8.5020    4.0558   -8.6780 C   0  0  0  0  0  0  0  0  0  0  0  0
   -8.6793    2.9049   -9.4412 C   0  0  0  0  0  0  0  0  0  0  0  0
   -8.4734    2.9070  -10.8097 C   0  0  0  0  0  0  0  0  0  0  0  0
   -9.0697    1.7834   -8.5369 C   0  0  0  0  0  0  0  0  0  0  0  0
   -9.5318    2.4456   -7.2893 N   0  0  0  0  0  0  0  0  0  0  0  0
   -8.8263    3.7462   -7.2549 C   0  0  0  0  0  0  0  0  0  0  0  0
   -8.4034    4.1926  -15.6802 C   0  0  0  0  0  0  0  0  0  0  0  0
   -8.5143    3.9883  -17.0470 C   0  0  0  0  0  0  0  0  0  0  0  0
   -9.6013    3.3821  -17.5390 F   0  0  0  0  0  0  0  0  0  0  0  0
   -7.5542    4.4493  -17.9322 C   0  0  0  0  0  0  0  0  0  0  0  0
   -6.4462    5.1129  -17.3902 C   0  0  0  0  0  0  0  0  0  0  0  0
  2  1  1  1
  2  3  1  0
  3  4  1  0
  4  5  1  0
  5  6  1  0
  7  6  1  1
  7  8  1  0
  8  9  1  0
  9 10  1  0
 10 11  1  0
 11 12  1  0
 12 13  1  0
 13 14  2  0
 14 15  1  0
 14 16  1  0
 16 17  2  0
 17 18  1  0
 18 19  2  0
 18 20  1  0
 20 21  1  0
 21 22  2  0
 22 23  1  0
 23 24  2  0
 24 25  1  0
 25 26  2  0
 25 27  1  0
 27 28  1  0
 28 29  1  0
 17 30  1  0
 30 31  2  0
 31 32  1  0
 31 33  1  0
 33 34  2  0
  7  2  1  0
 34 12  1  0
 13  7  1  0
 34 16  1  0
 26 21  1  0
 29 24  1  0
M  END
>  <smiles>  (1048) 
C106700-P160

>  <fragmenstein_outcome>  (1048) 
acceptable

>  <inchikey>  (1048) 
KRHJZJDUNONISI-UHFFFAOYSA-N

>  <fragmenstein_mode>  (1048) 
expansion

>  <HIPPO Pose ID>  (1048) 
20027

>  <Energy>  (1048) 
101.345305

>  <fragmenstein_error>  (1048) 


>  <tags>  (1048) 
{'openbind_xx01zvns2b_c1_fragmenstein', 'fragmenstein_placed'}

>  <ref_pdb>  (1048) 
1

>  <scratch_subdir>  (1048) 
/opt/xchem-fragalysis-2/maxwin/BulkDock/SCRATCH/511027/C106700-P160

>  <alias>  (1048) 
C[C@H]1CCCC[C@]12CNCCn1c2c(O)c2c(C(=O)Nc3ccc4c(c3)CNC4)cc(F)cc21

>  <HIPPO Compound ID>  (1048) 
90438

>  <fragmenstein_runtime>  (1048) 
4.174213

$$$$
Cn1c(-c2ccccc2)nc2c(C(=O)C(=O)c3ccc4c(c3)CNC4)cc(F)cc21
     RDKit          3D

 30 34  0  0  0  0  0  0  0  0999 V2000
   -4.6468    5.3431  -19.3160 C   0  0  0  0  0  0  0  0  0  0  0  0
   -5.0470    5.4247  -17.9334 N   0  0  0  0  0  0  0  0  0  0  0  0
   -4.2713    5.8342  -16.8696 C   0  0  0  0  0  0  0  0  0  0  0  0
   -2.8975    6.3392  -16.9421 C   0  0  0  0  0  0  0  0  0  0  0  0
   -2.5010    7.3031  -17.8788 C   0  0  0  0  0  0  0  0  0  0  0  0
   -1.1783    7.7531  -17.9183 C   0  0  0  0  0  0  0  0  0  0  0  0
   -0.2431    7.2547  -17.0130 C   0  0  0  0  0  0  0  0  0  0  0  0
   -0.6309    6.3168  -16.0590 C   0  0  0  0  0  0  0  0  0  0  0  0
   -1.9524    5.8680  -16.0204 C   0  0  0  0  0  0  0  0  0  0  0  0
   -4.9358    5.6605  -15.7433 N   0  0  0  0  0  0  0  0  0  0  0  0
   -6.1652    5.1389  -16.0711 C   0  0  0  0  0  0  0  0  0  0  0  0
   -7.2571    4.7605  -15.2636 C   0  0  0  0  0  0  0  0  0  0  0  0
   -7.1708    4.9349  -13.7958 C   0  0  0  0  0  0  0  0  0  0  0  0
   -6.1174    5.1029  -13.1945 O   0  0  0  0  0  0  0  0  0  0  0  0
   -8.4408    4.9902  -12.9834 C   0  0  0  0  0  0  0  0  0  0  0  0
   -9.4909    5.3718  -13.4858 O   0  0  0  0  0  0  0  0  0  0  0  0
   -8.3610    4.7177  -11.5481 C   0  0  0  0  0  0  0  0  0  0  0  0
   -8.0801    5.7967  -10.6882 C   0  0  0  0  0  0  0  0  0  0  0  0
   -8.0992    5.6084   -9.3079 C   0  0  0  0  0  0  0  0  0  0  0  0
   -8.4196    4.3478   -8.8328 C   0  0  0  0  0  0  0  0  0  0  0  0
   -8.6673    3.2793   -9.6972 C   0  0  0  0  0  0  0  0  0  0  0  0
   -8.6384    3.4383  -11.0686 C   0  0  0  0  0  0  0  0  0  0  0  0
   -8.9489    2.0551   -8.8910 C   0  0  0  0  0  0  0  0  0  0  0  0
   -9.2691    2.5595   -7.5322 N   0  0  0  0  0  0  0  0  0  0  0  0
   -8.5773    3.8680   -7.4268 C   0  0  0  0  0  0  0  0  0  0  0  0
   -8.4041    4.2381  -15.8918 C   0  0  0  0  0  0  0  0  0  0  0  0
   -8.4698    4.1304  -17.2745 C   0  0  0  0  0  0  0  0  0  0  0  0
   -9.5686    3.6073  -17.8356 F   0  0  0  0  0  0  0  0  0  0  0  0
   -7.4183    4.5278  -18.0918 C   0  0  0  0  0  0  0  0  0  0  0  0
   -6.2697    5.0122  -17.4546 C   0  0  0  0  0  0  0  0  0  0  0  0
  1  2  1  0
  2  3  1  0
  3  4  1  0
  4  5  2  0
  5  6  1  0
  6  7  2  0
  7  8  1  0
  8  9  2  0
  3 10  2  0
 10 11  1  0
 11 12  2  0
 12 13  1  0
 13 14  2  0
 13 15  1  0
 15 16  2  0
 15 17  1  0
 17 18  2  0
 18 19  1  0
 19 20  2  0
 20 21  1  0
 21 22  2  0
 21 23  1  0
 23 24  1  0
 24 25  1  0
 12 26  1  0
 26 27  2  0
 27 28  1  0
 27 29  1  0
 29 30  2  0
 30  2  1  0
  9  4  1  0
 30 11  1  0
 22 17  1  0
 25 20  1  0
M  END
>  <smiles>  (1049) 
C106736-P191

>  <fragmenstein_outcome>  (1049) 
acceptable

>  <inchikey>  (1049) 
XWAKMURFRPDWCG-UHFFFAOYSA-N

>  <fragmenstein_mode>  (1049) 
expansion

>  <HIPPO Pose ID>  (1049) 
20037

>  <Energy>  (1049) 
121.788128

>  <fragmenstein_error>  (1049) 


>  <tags>  (1049) 
{'openbind_xx01zvns2b_c1_fragmenstein', 'fragmenstein_placed'}

>  <ref_pdb>  (1049) 
1

>  <scratch_subdir>  (1049) 
/opt/xchem-fragalysis-2/maxwin/BulkDock/SCRATCH/511027/C106736-P191

>  <alias>  (1049) 
Cn1c(-c2ccccc2)nc2c(C(=O)C(=O)c3ccc4c(c3)CNC4)cc(F)cc21

>  <HIPPO Compound ID>  (1049) 
106736

>  <fragmenstein_runtime>  (1049) 
4.772918

$$$$
O=C(C(=O)c1cc(F)cc2nc(-c3ccccc3)[nH]c12)c1ccc2c(c1)CNC2
     RDKit          3D

 29 33  0  0  0  0  0  0  0  0999 V2000
   -5.9576    5.6438  -12.7007 O   0  0  0  0  0  0  0  0  0  0  0  0
   -7.0262    5.0764  -12.5076 C   0  0  0  0  0  0  0  0  0  0  0  0
   -7.9663    4.7608  -13.6553 C   0  0  0  0  0  0  0  0  0  0  0  0
   -9.1577    4.6475  -13.3699 O   0  0  0  0  0  0  0  0  0  0  0  0
   -7.5772    4.6500  -15.0800 C   0  0  0  0  0  0  0  0  0  0  0  0
   -8.5587    4.1923  -15.9823 C   0  0  0  0  0  0  0  0  0  0  0  0
   -8.3277    4.1150  -17.3496 C   0  0  0  0  0  0  0  0  0  0  0  0
   -9.3073    3.6607  -18.1431 F   0  0  0  0  0  0  0  0  0  0  0  0
   -7.1163    4.5039  -17.9031 C   0  0  0  0  0  0  0  0  0  0  0  0
   -6.1106    4.9351  -17.0291 C   0  0  0  0  0  0  0  0  0  0  0  0
   -4.8355    5.3397  -17.3271 N   0  0  0  0  0  0  0  0  0  0  0  0
   -4.2522    5.6204  -16.1764 C   0  0  0  0  0  0  0  0  0  0  0  0
   -2.8579    6.0416  -16.0023 C   0  0  0  0  0  0  0  0  0  0  0  0
   -2.0076    6.0584  -17.1190 C   0  0  0  0  0  0  0  0  0  0  0  0
   -0.6678    6.4350  -16.9999 C   0  0  0  0  0  0  0  0  0  0  0  0
   -0.1585    6.8058  -15.7588 C   0  0  0  0  0  0  0  0  0  0  0  0
   -0.9883    6.8000  -14.6396 C   0  0  0  0  0  0  0  0  0  0  0  0
   -2.3298    6.4202  -14.7589 C   0  0  0  0  0  0  0  0  0  0  0  0
   -5.1510    5.4464  -15.1506 N   0  0  0  0  0  0  0  0  0  0  0  0
   -6.3466    4.9950  -15.6549 C   0  0  0  0  0  0  0  0  0  0  0  0
   -7.4900    4.7745  -11.1228 C   0  0  0  0  0  0  0  0  0  0  0  0
   -7.3684    5.7944  -10.1569 C   0  0  0  0  0  0  0  0  0  0  0  0
   -7.7847    5.5840   -8.8391 C   0  0  0  0  0  0  0  0  0  0  0  0
   -8.3030    4.3448   -8.5083 C   0  0  0  0  0  0  0  0  0  0  0  0
   -8.4079    3.3271   -9.4547 C   0  0  0  0  0  0  0  0  0  0  0  0
   -8.0183    3.5228  -10.7731 C   0  0  0  0  0  0  0  0  0  0  0  0
   -8.9384    2.0979   -8.7857 C   0  0  0  0  0  0  0  0  0  0  0  0
   -9.4697    2.5603   -7.4782 N   0  0  0  0  0  0  0  0  0  0  0  0
   -8.7901    3.8393   -7.1895 C   0  0  0  0  0  0  0  0  0  0  0  0
  1  2  2  0
  2  3  1  0
  3  4  2  0
  3  5  1  0
  5  6  2  0
  6  7  1  0
  7  8  1  0
  7  9  2  0
  9 10  1  0
 10 11  1  0
 11 12  2  0
 12 13  1  0
 13 14  2  0
 14 15  1  0
 15 16  2  0
 16 17  1  0
 17 18  2  0
 12 19  1  0
 19 20  1  0
  2 21  1  0
 21 22  2  0
 22 23  1  0
 23 24  2  0
 24 25  1  0
 25 26  2  0
 25 27  1  0
 27 28  1  0
 28 29  1  0
 20  5  1  0
 26 21  1  0
 20 10  2  0
 29 24  1  0
 18 13  1  0
M  END
>  <smiles>  (1050) 
C106741-P160

>  <fragmenstein_outcome>  (1050) 
acceptable

>  <inchikey>  (1050) 
XRBPBWNECZYMRN-UHFFFAOYSA-N

>  <fragmenstein_mode>  (1050) 
expansion

>  <HIPPO Pose ID>  (1050) 
20040

>  <Energy>  (1050) 
89.233792

>  <fragmenstein_error>  (1050) 


>  <tags>  (1050) 
{'openbind_xx01zvns2b_c1_fragmenstein', 'fragmenstein_placed'}

>  <ref_pdb>  (1050) 
1

>  <scratch_subdir>  (1050) 
/opt/xchem-fragalysis-2/maxwin/BulkDock/SCRATCH/511027/C106741-P160

>  <alias>  (1050) 
O=C(C(=O)c1cc(F)cc2nc(-c3ccccc3)[nH]c12)c1ccc2c(c1)CNC2

>  <HIPPO Compound ID>  (1050) 
98165

>  <fragmenstein_runtime>  (1050) 
2.062977

$$$$
CC(=O)NN=C(C(=O)c1ccc2c(c1)[C@@H](C)NC2)c1cc(F)cc2nc(-c3ccccc3)[nH]c12
     RDKit          3D

 34 38  0  0  0  0  0  0  0  0999 V2000
   -3.9670    4.0590   -9.3083 C   0  0  0  0  0  0  0  0  0  0  0  0
   -3.8863    4.8137  -10.6177 C   0  0  0  0  0  0  0  0  0  0  0  0
   -3.0490    5.5888  -10.8720 O   0  0  0  0  0  0  0  0  0  0  0  0
   -5.1008    4.3257  -11.4634 N   0  0  0  0  0  0  0  0  0  0  0  0
   -5.5490    4.7345  -12.6669 N   0  0  0  0  0  0  0  0  0  0  0  0
   -6.7252    4.3660  -13.1108 C   0  0  0  0  0  0  0  0  0  0  0  0
   -7.7156    3.5970  -12.2552 C   0  0  0  0  0  0  0  0  0  0  0  0
   -8.0203    2.4682  -12.6195 O   0  0  0  0  0  0  0  0  0  0  0  0
   -8.1485    4.0782  -10.9202 C   0  0  0  0  0  0  0  0  0  0  0  0
   -7.8505    5.3715  -10.4488 C   0  0  0  0  0  0  0  0  0  0  0  0
   -8.0341    5.6924   -9.0986 C   0  0  0  0  0  0  0  0  0  0  0  0
   -8.5378    4.7190   -8.2545 C   0  0  0  0  0  0  0  0  0  0  0  0
   -8.9242    3.4713   -8.7409 C   0  0  0  0  0  0  0  0  0  0  0  0
   -8.7268    3.1298  -10.0645 C   0  0  0  0  0  0  0  0  0  0  0  0
   -9.5478    2.6974   -7.6221 C   0  0  1  0  0  0  0  0  0  0  0  0
   -9.2780    1.2222   -7.6365 C   0  0  0  0  0  0  0  0  0  0  0  0
   -9.0343    3.3641   -6.4060 N   0  0  0  0  0  0  0  0  0  0  0  0
   -8.7928    4.7627   -6.7799 C   0  0  0  0  0  0  0  0  0  0  0  0
   -7.0247    4.6032  -14.5619 C   0  0  0  0  0  0  0  0  0  0  0  0
   -8.2233    4.2477  -15.1957 C   0  0  0  0  0  0  0  0  0  0  0  0
   -8.3428    4.2950  -16.5894 C   0  0  0  0  0  0  0  0  0  0  0  0
   -9.4743    3.8651  -17.1680 F   0  0  0  0  0  0  0  0  0  0  0  0
   -7.3111    4.7426  -17.4116 C   0  0  0  0  0  0  0  0  0  0  0  0
   -6.1167    5.1250  -16.7979 C   0  0  0  0  0  0  0  0  0  0  0  0
   -4.9426    5.5476  -17.3667 N   0  0  0  0  0  0  0  0  0  0  0  0
   -4.0762    5.6824  -16.3780 C   0  0  0  0  0  0  0  0  0  0  0  0
   -2.6523    5.9993  -16.5190 C   0  0  0  0  0  0  0  0  0  0  0  0
   -1.8551    6.3896  -15.4327 C   0  0  0  0  0  0  0  0  0  0  0  0
   -0.4926    6.6538  -15.6089 C   0  0  0  0  0  0  0  0  0  0  0  0
    0.0893    6.5277  -16.8690 C   0  0  0  0  0  0  0  0  0  0  0  0
   -0.6899    6.1437  -17.9571 C   0  0  0  0  0  0  0  0  0  0  0  0
   -2.0519    5.8882  -17.7827 C   0  0  0  0  0  0  0  0  0  0  0  0
   -4.6981    5.4249  -15.1805 N   0  0  0  0  0  0  0  0  0  0  0  0
   -6.0020    5.0551  -15.4166 C   0  0  0  0  0  0  0  0  0  0  0  0
  1  2  1  0
  2  3  2  0
  2  4  1  0
  4  5  1  0
  5  6  2  3
  6  7  1  0
  7  8  2  0
  7  9  1  0
  9 10  2  0
 10 11  1  0
 11 12  2  0
 12 13  1  0
 13 14  2  0
 13 15  1  0
 15 16  1  1
 15 17  1  0
 17 18  1  0
  6 19  1  0
 19 20  2  0
 20 21  1  0
 21 22  1  0
 21 23  2  0
 23 24  1  0
 24 25  1  0
 25 26  2  0
 26 27  1  0
 27 28  2  0
 28 29  1  0
 29 30  2  0
 30 31  1  0
 31 32  2  0
 26 33  1  0
 33 34  1  0
 14  9  1  0
 34 19  1  0
 18 12  1  0
 34 24  2  0
 32 27  1  0
M  END
>  <smiles>  (1051) 
C106742-P160

>  <fragmenstein_outcome>  (1051) 
acceptable

>  <inchikey>  (1051) 
YVRDQRVDFFKZLH-UHFFFAOYSA-N

>  <fragmenstein_mode>  (1051) 
expansion

>  <HIPPO Pose ID>  (1051) 
20041

>  <Energy>  (1051) 
142.245644

>  <fragmenstein_error>  (1051) 


>  <tags>  (1051) 
{'openbind_xx01zvns2b_c1_fragmenstein', 'fragmenstein_placed'}

>  <ref_pdb>  (1051) 
1

>  <scratch_subdir>  (1051) 
/opt/xchem-fragalysis-2/maxwin/BulkDock/SCRATCH/511027/C106742-P160

>  <alias>  (1051) 
CC(=O)NN=C(C(=O)c1ccc2c(c1)[C@@H](C)NC2)c1cc(F)cc2nc(-c3ccccc3)[nH]c12

>  <HIPPO Compound ID>  (1051) 
88173

>  <fragmenstein_runtime>  (1051) 
7.111842

$$$$
O=C(C(=O)c1cc(F)cc2c1nc(-c1ccccc1)n2CO)c1ccc2c(c1)CNC2
     RDKit          3D

 31 35  0  0  0  0  0  0  0  0999 V2000
   -5.6453    4.4487  -12.9204 O   0  0  0  0  0  0  0  0  0  0  0  0
   -6.8410    4.5331  -12.7020 C   0  0  0  0  0  0  0  0  0  0  0  0
   -7.8816    4.7424  -13.7833 C   0  0  0  0  0  0  0  0  0  0  0  0
   -9.0343    4.9857  -13.4203 O   0  0  0  0  0  0  0  0  0  0  0  0
   -7.6424    4.5916  -15.2242 C   0  0  0  0  0  0  0  0  0  0  0  0
   -8.7082    4.0618  -15.9766 C   0  0  0  0  0  0  0  0  0  0  0  0
   -8.6322    3.9380  -17.3517 C   0  0  0  0  0  0  0  0  0  0  0  0
   -9.6667    3.4132  -18.0179 F   0  0  0  0  0  0  0  0  0  0  0  0
   -7.5145    4.3545  -18.0549 C   0  0  0  0  0  0  0  0  0  0  0  0
   -6.4646    4.8985  -17.3054 C   0  0  0  0  0  0  0  0  0  0  0  0
   -6.4932    5.0214  -15.9126 C   0  0  0  0  0  0  0  0  0  0  0  0
   -5.3377    5.6228  -15.4846 N   0  0  0  0  0  0  0  0  0  0  0  0
   -4.5826    5.8344  -16.5502 C   0  0  0  0  0  0  0  0  0  0  0  0
   -3.2292    6.3923  -16.4910 C   0  0  0  0  0  0  0  0  0  0  0  0
   -2.8062    7.4202  -17.3441 C   0  0  0  0  0  0  0  0  0  0  0  0
   -1.5066    7.9261  -17.2540 C   0  0  0  0  0  0  0  0  0  0  0  0
   -0.6248    7.4217  -16.2994 C   0  0  0  0  0  0  0  0  0  0  0  0
   -1.0438    6.4206  -15.4257 C   0  0  0  0  0  0  0  0  0  0  0  0
   -2.3416    5.9142  -15.5173 C   0  0  0  0  0  0  0  0  0  0  0  0
   -5.2470    5.4198  -17.6852 N   0  0  0  0  0  0  0  0  0  0  0  0
   -4.7751    5.4380  -19.0532 C   0  0  0  0  0  0  0  0  0  0  0  0
   -5.3877    6.5224  -19.7425 O   0  0  0  0  0  0  0  0  0  0  0  0
   -7.3620    4.3964  -11.3215 C   0  0  0  0  0  0  0  0  0  0  0  0
   -7.3293    5.5284  -10.4892 C   0  0  0  0  0  0  0  0  0  0  0  0
   -7.7799    5.4428   -9.1705 C   0  0  0  0  0  0  0  0  0  0  0  0
   -8.2410    4.2197   -8.7120 C   0  0  0  0  0  0  0  0  0  0  0  0
   -8.2940    3.1058   -9.5441 C   0  0  0  0  0  0  0  0  0  0  0  0
   -7.8630    3.1710  -10.8616 C   0  0  0  0  0  0  0  0  0  0  0  0
   -8.8487    1.9481   -8.7825 C   0  0  0  0  0  0  0  0  0  0  0  0
   -8.9770    2.3965   -7.3689 N   0  0  0  0  0  0  0  0  0  0  0  0
   -8.7276    3.8524   -7.3523 C   0  0  0  0  0  0  0  0  0  0  0  0
  1  2  2  0
  2  3  1  0
  3  4  2  0
  3  5  1  0
  5  6  2  0
  6  7  1  0
  7  8  1  0
  7  9  2  0
  9 10  1  0
 10 11  2  0
 11 12  1  0
 12 13  2  0
 13 14  1  0
 14 15  2  0
 15 16  1  0
 16 17  2  0
 17 18  1  0
 18 19  2  0
 13 20  1  0
 20 21  1  0
 21 22  1  0
  2 23  1  0
 23 24  2  0
 24 25  1  0
 25 26  2  0
 26 27  1  0
 27 28  2  0
 27 29  1  0
 29 30  1  0
 30 31  1  0
 11  5  1  0
 19 14  1  0
 28 23  1  0
 20 10  1  0
 31 26  1  0
M  END
>  <smiles>  (1052) 
C106743-P160

>  <fragmenstein_outcome>  (1052) 
acceptable

>  <inchikey>  (1052) 
MYJXKNZAQOZRFG-UHFFFAOYSA-N

>  <fragmenstein_mode>  (1052) 
expansion

>  <HIPPO Pose ID>  (1052) 
20042

>  <Energy>  (1052) 
126.808377

>  <fragmenstein_error>  (1052) 


>  <tags>  (1052) 
{'openbind_xx01zvns2b_c1_fragmenstein', 'fragmenstein_placed'}

>  <ref_pdb>  (1052) 
1

>  <scratch_subdir>  (1052) 
/opt/xchem-fragalysis-2/maxwin/BulkDock/SCRATCH/511027/C106743-P160

>  <alias>  (1052) 
O=C(C(=O)c1cc(F)cc2c1nc(-c1ccccc1)n2CO)c1ccc2c(c1)CNC2

>  <HIPPO Compound ID>  (1052) 
94598

>  <fragmenstein_runtime>  (1052) 
3.952554

$$$$
NCCc1cc(C(=O)Nc2ccc3c(c2)CNC3)c(N[C@H](N)c2ccccc2)[nH]1
     RDKit          3D

 29 32  0  0  0  0  0  0  0  0999 V2000
   -7.4635    3.6965  -19.6139 N   0  0  0  0  0  0  0  0  0  0  0  0
   -8.7065    4.2622  -19.0522 C   0  0  0  0  0  0  0  0  0  0  0  0
   -9.0862    3.6214  -17.7261 C   0  0  0  0  0  0  0  0  0  0  0  0
   -8.2091    4.1147  -16.6218 C   0  0  0  0  0  0  0  0  0  0  0  0
   -8.4802    4.3066  -15.2909 C   0  0  0  0  0  0  0  0  0  0  0  0
   -7.3625    4.9597  -14.6993 C   0  0  0  0  0  0  0  0  0  0  0  0
   -7.2389    5.3984  -13.3103 C   0  0  0  0  0  0  0  0  0  0  0  0
   -6.7609    6.4282  -13.0360 O   0  0  0  0  0  0  0  0  0  0  0  0
   -7.8308    4.2960  -12.4043 N   0  0  0  0  0  0  0  0  0  0  0  0
   -8.0367    4.2711  -11.0342 C   0  0  0  0  0  0  0  0  0  0  0  0
   -7.8095    5.4031  -10.2390 C   0  0  0  0  0  0  0  0  0  0  0  0
   -8.0346    5.3574   -8.8616 C   0  0  0  0  0  0  0  0  0  0  0  0
   -8.4698    4.1669   -8.3098 C   0  0  0  0  0  0  0  0  0  0  0  0
   -8.6912    3.0465   -9.0997 C   0  0  0  0  0  0  0  0  0  0  0  0
   -8.4890    3.0788  -10.4659 C   0  0  0  0  0  0  0  0  0  0  0  0
   -9.1677    1.9215   -8.2513 C   0  0  0  0  0  0  0  0  0  0  0  0
   -9.0456    2.3860   -6.8451 N   0  0  0  0  0  0  0  0  0  0  0  0
   -8.7983    3.8429   -6.8949 C   0  0  0  0  0  0  0  0  0  0  0  0
   -6.4323    5.1523  -15.7072 C   0  0  0  0  0  0  0  0  0  0  0  0
   -5.2765    5.8679  -15.6893 N   0  0  0  0  0  0  0  0  0  0  0  0
   -4.0577    5.4737  -16.3497 C   0  0  2  0  0  0  0  0  0  0  0  0
   -2.8913    6.1192  -15.7578 N   0  0  0  0  0  0  0  0  0  0  0  0
   -4.0629    5.7589  -17.8516 C   0  0  0  0  0  0  0  0  0  0  0  0
   -4.9358    6.6734  -18.4606 C   0  0  0  0  0  0  0  0  0  0  0  0
   -4.8371    6.9587  -19.8252 C   0  0  0  0  0  0  0  0  0  0  0  0
   -3.8266    6.3842  -20.5917 C   0  0  0  0  0  0  0  0  0  0  0  0
   -2.9340    5.4978  -20.0010 C   0  0  0  0  0  0  0  0  0  0  0  0
   -3.0792    5.1587  -18.6580 C   0  0  0  0  0  0  0  0  0  0  0  0
   -6.9090    4.5244  -16.8311 N   0  0  0  0  0  0  0  0  0  0  0  0
  1  2  1  0
  2  3  1  0
  3  4  1  0
  4  5  2  0
  5  6  1  0
  6  7  1  0
  7  8  2  0
  7  9  1  0
  9 10  1  0
 10 11  2  0
 11 12  1  0
 12 13  2  0
 13 14  1  0
 14 15  2  0
 14 16  1  0
 16 17  1  0
 17 18  1  0
  6 19  2  0
 19 20  1  0
 20 21  1  0
 21 22  1  1
 21 23  1  0
 23 24  2  0
 24 25  1  0
 25 26  2  0
 26 27  1  0
 27 28  2  0
 19 29  1  0
 29  4  1  0
 15 10  1  0
 28 23  1  0
 18 13  1  0
M  END
>  <smiles>  (1053) 
C106802-P160

>  <fragmenstein_outcome>  (1053) 
acceptable

>  <inchikey>  (1053) 
JGPTYLQMAXSXMC-UHFFFAOYSA-N

>  <fragmenstein_mode>  (1053) 
expansion

>  <HIPPO Pose ID>  (1053) 
20059

>  <Energy>  (1053) 
20.593831

>  <fragmenstein_error>  (1053) 


>  <tags>  (1053) 
{'openbind_xx01zvns2b_c1_fragmenstein', 'fragmenstein_placed'}

>  <ref_pdb>  (1053) 
1

>  <scratch_subdir>  (1053) 
/opt/xchem-fragalysis-2/maxwin/BulkDock/SCRATCH/511027/C106802-P160

>  <alias>  (1053) 
NCCc1cc(C(=O)Nc2ccc3c(c2)CNC3)c(N[C@H](N)c2ccccc2)[nH]1

>  <HIPPO Compound ID>  (1053) 
97188

>  <fragmenstein_runtime>  (1053) 
7.04854

$$$$
N#Cc1cc2c(cc1NC(=C(F)F)c1cc(F)cc3c1cnn3N)CNC2
     RDKit          3D

 27 30  0  0  0  0  0  0  0  0999 V2000
   -8.5286    7.6656  -11.4355 N   0  0  0  0  0  0  0  0  0  0  0  0
   -8.4102    6.6002  -10.9856 C   0  0  0  0  0  0  0  0  0  0  0  0
   -8.2938    5.2861  -10.4145 C   0  0  0  0  0  0  0  0  0  0  0  0
   -8.4845    5.1933   -9.0210 C   0  0  0  0  0  0  0  0  0  0  0  0
   -8.6498    3.9455   -8.4565 C   0  0  0  0  0  0  0  0  0  0  0  0
   -8.6063    2.8039   -9.2415 C   0  0  0  0  0  0  0  0  0  0  0  0
   -8.3080    2.8687  -10.5945 C   0  0  0  0  0  0  0  0  0  0  0  0
   -8.1301    4.1223  -11.2163 C   0  0  0  0  0  0  0  0  0  0  0  0
   -7.7844    4.1055  -12.5940 N   0  0  0  0  0  0  0  0  0  0  0  0
   -7.0317    4.9952  -13.3746 C   0  0  0  0  0  0  0  0  0  0  0  0
   -6.1427    5.8818  -12.8771 C   0  0  0  0  0  0  0  0  0  0  0  0
   -5.8166    5.8557  -11.5643 F   0  0  0  0  0  0  0  0  0  0  0  0
   -5.5734    6.8363  -13.6401 F   0  0  0  0  0  0  0  0  0  0  0  0
   -7.2745    4.8812  -14.8625 C   0  0  0  0  0  0  0  0  0  0  0  0
   -8.5094    4.3703  -15.3330 C   0  0  0  0  0  0  0  0  0  0  0  0
   -8.7755    4.2067  -16.6869 C   0  0  0  0  0  0  0  0  0  0  0  0
   -9.9488    3.6988  -17.0774 F   0  0  0  0  0  0  0  0  0  0  0  0
   -7.8780    4.6013  -17.6599 C   0  0  0  0  0  0  0  0  0  0  0  0
   -6.6759    5.1567  -17.2183 C   0  0  0  0  0  0  0  0  0  0  0  0
   -6.3199    5.2431  -15.8651 C   0  0  0  0  0  0  0  0  0  0  0  0
   -4.9671    5.6858  -15.9505 C   0  0  0  0  0  0  0  0  0  0  0  0
   -4.5713    5.9853  -17.1881 N   0  0  0  0  0  0  0  0  0  0  0  0
   -5.6589    5.7564  -17.9238 N   0  0  0  0  0  0  0  0  0  0  0  0
   -5.7354    6.1557  -19.2664 N   0  0  0  0  0  0  0  0  0  0  0  0
   -8.9240    1.6176   -8.3909 C   0  0  0  0  0  0  0  0  0  0  0  0
   -9.4668    2.1796   -7.1267 N   0  0  0  0  0  0  0  0  0  0  0  0
   -8.9396    3.5576   -7.0450 C   0  0  0  0  0  0  0  0  0  0  0  0
  1  2  3  0
  2  3  1  0
  3  4  2  0
  4  5  1  0
  5  6  2  0
  6  7  1  0
  7  8  2  0
  8  9  1  0
  9 10  1  0
 10 11  2  3
 11 12  1  0
 11 13  1  0
 10 14  1  0
 14 15  2  0
 15 16  1  0
 16 17  1  0
 16 18  2  0
 18 19  1  0
 19 20  2  0
 20 21  1  0
 21 22  2  0
 22 23  1  0
 23 24  1  0
  6 25  1  0
 25 26  1  0
 26 27  1  0
  8  3  1  0
 20 14  1  0
 27  5  1  0
 23 19  1  0
M  END
>  <smiles>  (1054) 
C19866-P161

>  <fragmenstein_outcome>  (1054) 
acceptable

>  <inchikey>  (1054) 
CRRGHUCAYBUQLY-UHFFFAOYSA-N

>  <fragmenstein_mode>  (1054) 
expansion

>  <HIPPO Pose ID>  (1054) 
20106

>  <Energy>  (1054) 
54.073508

>  <fragmenstein_error>  (1054) 


>  <tags>  (1054) 
{'openbind_xx01zvns2b_c1_fragmenstein', 'fragmenstein_placed'}

>  <ref_pdb>  (1054) 
1

>  <scratch_subdir>  (1054) 
/opt/xchem-fragalysis-2/maxwin/BulkDock/SCRATCH/511027/C19866-P161

>  <alias>  (1054) 
N#Cc1cc2c(cc1NC(=C(F)F)c1cc(F)cc3c1cnn3N)CNC2

>  <HIPPO Compound ID>  (1054) 
19866

>  <fragmenstein_runtime>  (1054) 
3.517387

$$$$
C[C@@H]1c2cc(NC(=O)c3cc(F)cc4c3cnn4NC(C)(C)CO)c(C#N)c(O)c2CN1C
     RDKit          3D

 33 36  0  0  0  0  0  0  0  0999 V2000
   -9.0467    1.2575   -8.1644 C   0  0  0  0  0  0  0  0  0  0  0  0
   -9.5612    2.6704   -8.1563 C   0  0  2  0  0  0  0  0  0  0  0  0
   -8.7928    3.5884   -9.0695 C   0  0  0  0  0  0  0  0  0  0  0  0
   -8.6212    3.5328  -10.4468 C   0  0  0  0  0  0  0  0  0  0  0  0
   -8.0399    4.6303  -11.1058 C   0  0  0  0  0  0  0  0  0  0  0  0
   -7.9180    4.5236  -12.5016 N   0  0  0  0  0  0  0  0  0  0  0  0
   -6.9996    5.2787  -13.4900 C   0  0  0  0  0  0  0  0  0  0  0  0
   -6.2566    6.1603  -13.3092 O   0  0  0  0  0  0  0  0  0  0  0  0
   -7.1764    4.8671  -14.9116 C   0  0  0  0  0  0  0  0  0  0  0  0
   -8.3927    4.4056  -15.4378 C   0  0  0  0  0  0  0  0  0  0  0  0
   -8.5210    4.1814  -16.8063 C   0  0  0  0  0  0  0  0  0  0  0  0
   -9.6913    3.7375  -17.2831 F   0  0  0  0  0  0  0  0  0  0  0  0
   -7.4868    4.4352  -17.7053 C   0  0  0  0  0  0  0  0  0  0  0  0
   -6.2760    4.8884  -17.1669 C   0  0  0  0  0  0  0  0  0  0  0  0
   -6.0986    5.0891  -15.8016 C   0  0  0  0  0  0  0  0  0  0  0  0
   -4.7524    5.5070  -15.6928 C   0  0  0  0  0  0  0  0  0  0  0  0
   -4.1176    5.5406  -16.8654 N   0  0  0  0  0  0  0  0  0  0  0  0
   -5.0749    5.2293  -17.7487 N   0  0  0  0  0  0  0  0  0  0  0  0
   -4.8200    5.1730  -19.1303 N   0  0  0  0  0  0  0  0  0  0  0  0
   -4.5971    6.5002  -19.7462 C   0  0  0  0  0  0  0  0  0  0  0  0
   -4.5613    6.2237  -21.2641 C   0  0  0  0  0  0  0  0  0  0  0  0
   -5.7268    7.4851  -19.4472 C   0  0  0  0  0  0  0  0  0  0  0  0
   -3.2455    7.1403  -19.3260 C   0  0  0  0  0  0  0  0  0  0  0  0
   -2.2121    6.1600  -19.2953 O   0  0  0  0  0  0  0  0  0  0  0  0
   -7.6685    5.7777  -10.3569 C   0  0  0  0  0  0  0  0  0  0  0  0
   -7.3675    7.0517  -10.9561 C   0  0  0  0  0  0  0  0  0  0  0  0
   -7.2143    8.1258  -11.3775 N   0  0  0  0  0  0  0  0  0  0  0  0
   -7.7779    5.7639   -8.9551 C   0  0  0  0  0  0  0  0  0  0  0  0
   -7.3931    6.8604   -8.2335 O   0  0  0  0  0  0  0  0  0  0  0  0
   -8.3297    4.6698   -8.3278 C   0  0  0  0  0  0  0  0  0  0  0  0
   -8.5761    4.4170   -6.8812 C   0  0  0  0  0  0  0  0  0  0  0  0
   -9.6226    3.3946   -6.8641 N   0  0  0  0  0  0  0  0  0  0  0  0
   -9.5504    2.5721   -5.6820 C   0  0  0  0  0  0  0  0  0  0  0  0
  2  1  1  1
  2  3  1  0
  3  4  2  0
  4  5  1  0
  5  6  1  0
  6  7  1  0
  7  8  2  0
  7  9  1  0
  9 10  2  0
 10 11  1  0
 11 12  1  0
 11 13  2  0
 13 14  1  0
 14 15  2  0
 15 16  1  0
 16 17  2  0
 17 18  1  0
 18 19  1  0
 19 20  1  0
 20 21  1  0
 20 22  1  0
 20 23  1  0
 23 24  1  0
  5 25  2  0
 25 26  1  0
 26 27  3  0
 25 28  1  0
 28 29  1  0
 28 30  2  0
 30 31  1  0
 31 32  1  0
 32 33  1  0
 32  2  1  0
 30  3  1  0
 15  9  1  0
 18 14  1  0
M  END
>  <smiles>  (1055) 
C19646-P161

>  <fragmenstein_outcome>  (1055) 
acceptable

>  <inchikey>  (1055) 
ZGWMIIAWQQQDRW-UHFFFAOYSA-N

>  <fragmenstein_mode>  (1055) 
expansion

>  <HIPPO Pose ID>  (1055) 
20118

>  <Energy>  (1055) 
61.797742

>  <fragmenstein_error>  (1055) 


>  <tags>  (1055) 
{'openbind_xx01zvns2b_c1_fragmenstein', 'fragmenstein_placed'}

>  <ref_pdb>  (1055) 
1

>  <scratch_subdir>  (1055) 
/opt/xchem-fragalysis-2/maxwin/BulkDock/SCRATCH/511027/C19646-P161

>  <alias>  (1055) 
C[C@@H]1c2cc(NC(=O)c3cc(F)cc4c3cnn4NC(C)(C)CO)c(C#N)c(O)c2CN1C

>  <HIPPO Compound ID>  (1055) 
93516

>  <fragmenstein_runtime>  (1055) 
5.179492

$$$$
CCOC(=O)c1n[nH]c2c(C#N)c(F)cc(C(=O)Nc3cc4c(cc3C#N)CNC4)c12
     RDKit          3D

 31 34  0  0  0  0  0  0  0  0999 V2000
   -1.9677    8.8406  -13.5759 C   0  0  0  0  0  0  0  0  0  0  0  0
   -2.8121    7.6242  -13.2494 C   0  0  0  0  0  0  0  0  0  0  0  0
   -3.4821    7.2123  -14.4445 O   0  0  0  0  0  0  0  0  0  0  0  0
   -4.3138    6.1421  -14.2694 C   0  0  0  0  0  0  0  0  0  0  0  0
   -4.4366    5.5241  -13.2171 O   0  0  0  0  0  0  0  0  0  0  0  0
   -5.0405    5.7765  -15.4911 C   0  0  0  0  0  0  0  0  0  0  0  0
   -4.4776    5.8524  -16.7175 N   0  0  0  0  0  0  0  0  0  0  0  0
   -5.3684    5.2800  -17.5344 N   0  0  0  0  0  0  0  0  0  0  0  0
   -6.5347    4.9277  -16.9160 C   0  0  0  0  0  0  0  0  0  0  0  0
   -7.7088    4.3470  -17.4003 C   0  0  0  0  0  0  0  0  0  0  0  0
   -7.8032    3.9280  -18.7474 C   0  0  0  0  0  0  0  0  0  0  0  0
   -7.8257    3.4868  -19.8145 N   0  0  0  0  0  0  0  0  0  0  0  0
   -8.7489    4.1169  -16.5149 C   0  0  0  0  0  0  0  0  0  0  0  0
   -9.8966    3.6061  -16.9718 F   0  0  0  0  0  0  0  0  0  0  0  0
   -8.6295    4.4264  -15.1735 C   0  0  0  0  0  0  0  0  0  0  0  0
   -7.4398    4.9897  -14.6907 C   0  0  0  0  0  0  0  0  0  0  0  0
   -7.4312    5.4484  -13.2925 C   0  0  0  0  0  0  0  0  0  0  0  0
   -7.3651    6.5933  -13.0844 O   0  0  0  0  0  0  0  0  0  0  0  0
   -7.6184    4.2637  -12.3209 N   0  0  0  0  0  0  0  0  0  0  0  0
   -7.8524    4.2476  -10.9357 C   0  0  0  0  0  0  0  0  0  0  0  0
   -8.3152    3.0055  -10.4547 C   0  0  0  0  0  0  0  0  0  0  0  0
   -8.6523    2.8697   -9.1199 C   0  0  0  0  0  0  0  0  0  0  0  0
   -8.5403    3.9321   -8.2398 C   0  0  0  0  0  0  0  0  0  0  0  0
   -8.0510    5.1505   -8.6694 C   0  0  0  0  0  0  0  0  0  0  0  0
   -7.6857    5.3167  -10.0258 C   0  0  0  0  0  0  0  0  0  0  0  0
   -7.0577    6.5715  -10.3336 C   0  0  0  0  0  0  0  0  0  0  0  0
   -6.5260    7.6018  -10.4272 N   0  0  0  0  0  0  0  0  0  0  0  0
   -8.9710    3.4876   -6.8809 C   0  0  0  0  0  0  0  0  0  0  0  0
   -9.6601    2.1944   -7.0946 N   0  0  0  0  0  0  0  0  0  0  0  0
   -9.1301    1.6679   -8.3762 C   0  0  0  0  0  0  0  0  0  0  0  0
   -6.3644    5.2474  -15.5690 C   0  0  0  0  0  0  0  0  0  0  0  0
  1  2  1  0
  2  3  1  0
  3  4  1  0
  4  5  2  0
  4  6  1  0
  6  7  2  0
  7  8  1  0
  8  9  1  0
  9 10  2  0
 10 11  1  0
 11 12  3  0
 10 13  1  0
 13 14  1  0
 13 15  2  0
 15 16  1  0
 16 17  1  0
 17 18  2  0
 17 19  1  0
 19 20  1  0
 20 21  2  0
 21 22  1  0
 22 23  2  0
 23 24  1  0
 24 25  2  0
 25 26  1  0
 26 27  3  0
 23 28  1  0
 28 29  1  0
 29 30  1  0
 16 31  2  0
 31  6  1  0
 31  9  1  0
 25 20  1  0
 30 22  1  0
M  END
>  <smiles>  (1056) 
C19656-P161

>  <fragmenstein_outcome>  (1056) 
acceptable

>  <inchikey>  (1056) 
ZDDSTKOHGCIAQL-UHFFFAOYSA-O

>  <fragmenstein_mode>  (1056) 
expansion

>  <HIPPO Pose ID>  (1056) 
20119

>  <Energy>  (1056) 
111.996645

>  <fragmenstein_error>  (1056) 


>  <tags>  (1056) 
{'openbind_xx01zvns2b_c1_fragmenstein', 'fragmenstein_placed'}

>  <ref_pdb>  (1056) 
1

>  <scratch_subdir>  (1056) 
/opt/xchem-fragalysis-2/maxwin/BulkDock/SCRATCH/511027/C19656-P161

>  <alias>  (1056) 
CCOC(=O)c1n[nH]c2c(C#N)c(F)cc(C(=O)Nc3cc4c(cc3C#N)CNC4)c12

>  <HIPPO Compound ID>  (1056) 
90783

>  <fragmenstein_runtime>  (1056) 
11.688313

$$$$
Cc1nn(CO)c2cc(F)cc(C(=O)C(=O)c3cc4c(cc3C#N)CNC4)c12
     RDKit          3D

 28 31  0  0  0  0  0  0  0  0999 V2000
   -4.8006    5.2338  -13.4432 C   0  0  0  0  0  0  0  0  0  0  0  0
   -5.2754    5.3261  -14.8470 C   0  0  0  0  0  0  0  0  0  0  0  0
   -4.4376    5.7836  -15.7794 N   0  0  0  0  0  0  0  0  0  0  0  0
   -5.1535    5.7102  -16.9251 N   0  0  0  0  0  0  0  0  0  0  0  0
   -4.5404    6.2663  -18.1125 C   0  0  0  0  0  0  0  0  0  0  0  0
   -3.5521    7.2127  -17.6993 O   0  0  0  0  0  0  0  0  0  0  0  0
   -6.3967    5.1641  -16.7847 C   0  0  0  0  0  0  0  0  0  0  0  0
   -7.4008    4.8248  -17.7080 C   0  0  0  0  0  0  0  0  0  0  0  0
   -8.5758    4.2715  -17.1957 C   0  0  0  0  0  0  0  0  0  0  0  0
   -9.5660    3.9288  -18.0336 F   0  0  0  0  0  0  0  0  0  0  0  0
   -8.7605    4.0874  -15.8347 C   0  0  0  0  0  0  0  0  0  0  0  0
   -7.7479    4.4342  -14.9327 C   0  0  0  0  0  0  0  0  0  0  0  0
   -7.9232    4.1199  -13.5129 C   0  0  0  0  0  0  0  0  0  0  0  0
   -8.0106    2.9564  -13.1674 O   0  0  0  0  0  0  0  0  0  0  0  0
   -7.9815    5.2136  -12.4827 C   0  0  0  0  0  0  0  0  0  0  0  0
   -7.8777    6.3610  -12.8996 O   0  0  0  0  0  0  0  0  0  0  0  0
   -8.1032    4.9312  -11.0182 C   0  0  0  0  0  0  0  0  0  0  0  0
   -8.5612    3.6865  -10.5434 C   0  0  0  0  0  0  0  0  0  0  0  0
   -8.6519    3.4669   -9.1785 C   0  0  0  0  0  0  0  0  0  0  0  0
   -8.3315    4.4587   -8.2699 C   0  0  0  0  0  0  0  0  0  0  0  0
   -7.8918    5.6956   -8.6971 C   0  0  0  0  0  0  0  0  0  0  0  0
   -7.7631    5.9368  -10.0777 C   0  0  0  0  0  0  0  0  0  0  0  0
   -7.2402    7.2259  -10.4436 C   0  0  0  0  0  0  0  0  0  0  0  0
   -6.7827    8.2722  -10.6569 N   0  0  0  0  0  0  0  0  0  0  0  0
   -8.5889    3.9682   -6.8873 C   0  0  0  0  0  0  0  0  0  0  0  0
   -8.8877    2.5281   -7.0110 N   0  0  0  0  0  0  0  0  0  0  0  0
   -9.1250    2.2522   -8.4506 C   0  0  0  0  0  0  0  0  0  0  0  0
   -6.5340    4.9624  -15.4072 C   0  0  0  0  0  0  0  0  0  0  0  0
  1  2  1  0
  2  3  2  0
  3  4  1  0
  4  5  1  0
  5  6  1  0
  4  7  1  0
  7  8  2  0
  8  9  1  0
  9 10  1  0
  9 11  2  0
 11 12  1  0
 12 13  1  0
 13 14  2  0
 13 15  1  0
 15 16  2  0
 15 17  1  0
 17 18  2  0
 18 19  1  0
 19 20  2  0
 20 21  1  0
 21 22  2  0
 22 23  1  0
 23 24  3  0
 20 25  1  0
 25 26  1  0
 26 27  1  0
 12 28  2  0
 28  2  1  0
 28  7  1  0
 22 17  1  0
 27 19  1  0
M  END
>  <smiles>  (1057) 
C19661-P161

>  <fragmenstein_outcome>  (1057) 
acceptable

>  <inchikey>  (1057) 
RNULVZPUFIBHRW-UHFFFAOYSA-N

>  <fragmenstein_mode>  (1057) 
expansion

>  <HIPPO Pose ID>  (1057) 
20120

>  <Energy>  (1057) 
122.525727

>  <fragmenstein_error>  (1057) 


>  <tags>  (1057) 
{'openbind_xx01zvns2b_c1_fragmenstein', 'fragmenstein_placed'}

>  <ref_pdb>  (1057) 
1

>  <scratch_subdir>  (1057) 
/opt/xchem-fragalysis-2/maxwin/BulkDock/SCRATCH/511027/C19661-P161

>  <alias>  (1057) 
Cc1nn(CO)c2cc(F)cc(C(=O)C(=O)c3cc4c(cc3C#N)CNC4)c12

>  <HIPPO Compound ID>  (1057) 
70951

>  <fragmenstein_runtime>  (1057) 
3.889259

$$$$
N#Cc1cc2c(cc1NC(O)(O)c1cc(F)cc3[nH]ncc13)CNC2
     RDKit          3D

 25 28  0  0  0  0  0  0  0  0999 V2000
   -8.4828    8.0439  -11.6048 N   0  0  0  0  0  0  0  0  0  0  0  0
   -8.4019    6.9320  -11.2756 C   0  0  0  0  0  0  0  0  0  0  0  0
   -8.3032    5.5930  -10.7603 C   0  0  0  0  0  0  0  0  0  0  0  0
   -8.2993    5.4855   -9.3531 C   0  0  0  0  0  0  0  0  0  0  0  0
   -8.4271    4.2389   -8.7716 C   0  0  0  0  0  0  0  0  0  0  0  0
   -8.5297    3.1040   -9.5535 C   0  0  0  0  0  0  0  0  0  0  0  0
   -8.4710    3.1784  -10.9382 C   0  0  0  0  0  0  0  0  0  0  0  0
   -8.3594    4.4339  -11.5805 C   0  0  0  0  0  0  0  0  0  0  0  0
   -8.3735    4.4346  -12.9896 N   0  0  0  0  0  0  0  0  0  0  0  0
   -7.2686    4.9075  -13.7957 C   0  0  0  0  0  0  0  0  0  0  0  0
   -6.9795    6.2470  -13.5407 O   0  0  0  0  0  0  0  0  0  0  0  0
   -6.1231    4.1818  -13.4696 O   0  0  0  0  0  0  0  0  0  0  0  0
   -7.4857    4.7576  -15.2873 C   0  0  0  0  0  0  0  0  0  0  0  0
   -8.7243    4.3553  -15.8376 C   0  0  0  0  0  0  0  0  0  0  0  0
   -8.9059    4.1784  -17.2062 C   0  0  0  0  0  0  0  0  0  0  0  0
  -10.1081    3.7993  -17.6563 F   0  0  0  0  0  0  0  0  0  0  0  0
   -7.8871    4.4056  -18.1202 C   0  0  0  0  0  0  0  0  0  0  0  0
   -6.6691    4.8261  -17.5907 C   0  0  0  0  0  0  0  0  0  0  0  0
   -5.4839    5.1320  -18.2043 N   0  0  0  0  0  0  0  0  0  0  0  0
   -4.5006    5.4920  -17.3558 N   0  0  0  0  0  0  0  0  0  0  0  0
   -5.0904    5.4118  -16.1583 C   0  0  0  0  0  0  0  0  0  0  0  0
   -6.4474    5.0035  -16.2289 C   0  0  0  0  0  0  0  0  0  0  0  0
   -8.7585    1.9135   -8.6826 C   0  0  0  0  0  0  0  0  0  0  0  0
   -8.8181    2.4244   -7.2892 N   0  0  0  0  0  0  0  0  0  0  0  0
   -8.5566    3.8759   -7.3332 C   0  0  0  0  0  0  0  0  0  0  0  0
  1  2  3  0
  2  3  1  0
  3  4  2  0
  4  5  1  0
  5  6  2  0
  6  7  1  0
  7  8  2  0
  8  9  1  0
  9 10  1  0
 10 11  1  0
 10 12  1  0
 10 13  1  0
 13 14  2  0
 14 15  1  0
 15 16  1  0
 15 17  2  0
 17 18  1  0
 18 19  1  0
 19 20  1  0
 20 21  2  0
 21 22  1  0
  6 23  1  0
 23 24  1  0
 24 25  1  0
  8  3  1  0
 22 13  1  0
 25  5  1  0
 22 18  2  0
M  END
>  <smiles>  (1058) 
C19670-P161

>  <fragmenstein_outcome>  (1058) 
acceptable

>  <inchikey>  (1058) 
OGMBQTIOXHPKLF-UHFFFAOYSA-N

>  <fragmenstein_mode>  (1058) 
expansion

>  <HIPPO Pose ID>  (1058) 
20121

>  <Energy>  (1058) 
-40.940356

>  <fragmenstein_error>  (1058) 


>  <tags>  (1058) 
{'openbind_xx01zvns2b_c1_fragmenstein', 'fragmenstein_placed'}

>  <ref_pdb>  (1058) 
1

>  <scratch_subdir>  (1058) 
/opt/xchem-fragalysis-2/maxwin/BulkDock/SCRATCH/511027/C19670-P161

>  <alias>  (1058) 
N#Cc1cc2c(cc1NC(O)(O)c1cc(F)cc3[nH]ncc13)CNC2

>  <HIPPO Compound ID>  (1058) 
106142

>  <fragmenstein_runtime>  (1058) 
3.576261

$$$$
N#Cc1cc2c(cc1NC(=O)c1cc(F)cc3c1cnn3C(=O)OCc1ccccc1)CN(N)C2
     RDKit          3D

 35 39  0  0  0  0  0  0  0  0999 V2000
   -8.1851    7.8921  -10.7634 N   0  0  0  0  0  0  0  0  0  0  0  0
   -8.1596    6.7468  -10.5653 C   0  0  0  0  0  0  0  0  0  0  0  0
   -8.2097    5.3680  -10.1665 C   0  0  0  0  0  0  0  0  0  0  0  0
   -8.3645    5.1604   -8.7777 C   0  0  0  0  0  0  0  0  0  0  0  0
   -8.6095    3.8854   -8.3057 C   0  0  0  0  0  0  0  0  0  0  0  0
   -8.6786    2.8147   -9.1804 C   0  0  0  0  0  0  0  0  0  0  0  0
   -8.4992    2.9836  -10.5459 C   0  0  0  0  0  0  0  0  0  0  0  0
   -8.2514    4.2690  -11.0599 C   0  0  0  0  0  0  0  0  0  0  0  0
   -8.0866    4.3292  -12.4559 N   0  0  0  0  0  0  0  0  0  0  0  0
   -7.4449    5.4171  -13.3441 C   0  0  0  0  0  0  0  0  0  0  0  0
   -7.0219    6.4676  -13.0658 O   0  0  0  0  0  0  0  0  0  0  0  0
   -7.3951    5.0345  -14.7818 C   0  0  0  0  0  0  0  0  0  0  0  0
   -8.4605    4.3989  -15.4269 C   0  0  0  0  0  0  0  0  0  0  0  0
   -8.4027    4.1805  -16.7976 C   0  0  0  0  0  0  0  0  0  0  0  0
   -9.4421    3.5858  -17.3989 F   0  0  0  0  0  0  0  0  0  0  0  0
   -7.3129    4.5829  -17.5762 C   0  0  0  0  0  0  0  0  0  0  0  0
   -6.2448    5.2248  -16.9242 C   0  0  0  0  0  0  0  0  0  0  0  0
   -6.2754    5.4432  -15.5432 C   0  0  0  0  0  0  0  0  0  0  0  0
   -5.0661    6.1051  -15.2583 C   0  0  0  0  0  0  0  0  0  0  0  0
   -4.3092    6.2887  -16.3328 N   0  0  0  0  0  0  0  0  0  0  0  0
   -5.0210    5.7408  -17.3650 N   0  0  0  0  0  0  0  0  0  0  0  0
   -4.4480    5.7978  -18.6559 C   0  0  0  0  0  0  0  0  0  0  0  0
   -3.2643    6.0591  -18.8248 O   0  0  0  0  0  0  0  0  0  0  0  0
   -5.3816    5.5932  -19.6140 O   0  0  0  0  0  0  0  0  0  0  0  0
   -4.8831    5.6161  -20.9599 C   0  0  0  0  0  0  0  0  0  0  0  0
   -5.0228    6.9631  -21.6404 C   0  0  0  0  0  0  0  0  0  0  0  0
   -5.4570    7.0187  -22.9753 C   0  0  0  0  0  0  0  0  0  0  0  0
   -5.5735    8.2387  -23.6445 C   0  0  0  0  0  0  0  0  0  0  0  0
   -5.2362    9.4228  -22.9953 C   0  0  0  0  0  0  0  0  0  0  0  0
   -4.7756    9.3843  -21.6814 C   0  0  0  0  0  0  0  0  0  0  0  0
   -4.6638    8.1630  -21.0104 C   0  0  0  0  0  0  0  0  0  0  0  0
   -8.9720    1.5593   -8.4212 C   0  0  0  0  0  0  0  0  0  0  0  0
   -9.0893    1.9613   -6.9962 N   0  0  0  0  0  0  0  0  0  0  0  0
  -10.3337    1.5154   -6.4301 N   0  0  0  0  0  0  0  0  0  0  0  0
   -8.8929    3.4262   -6.9107 C   0  0  0  0  0  0  0  0  0  0  0  0
  1  2  3  0
  2  3  1  0
  3  4  2  0
  4  5  1  0
  5  6  2  0
  6  7  1  0
  7  8  2  0
  8  9  1  0
  9 10  1  0
 10 11  2  0
 10 12  1  0
 12 13  2  0
 13 14  1  0
 14 15  1  0
 14 16  2  0
 16 17  1  0
 17 18  2  0
 18 19  1  0
 19 20  2  0
 20 21  1  0
 21 22  1  0
 22 23  2  0
 22 24  1  0
 24 25  1  0
 25 26  1  0
 26 27  2  0
 27 28  1  0
 28 29  2  0
 29 30  1  0
 30 31  2  0
  6 32  1  0
 32 33  1  0
 33 34  1  0
 33 35  1  0
  8  3  1  0
 18 12  1  0
 31 26  1  0
 35  5  1  0
 21 17  1  0
M  END
>  <smiles>  (1059) 
C19673-P161

>  <fragmenstein_outcome>  (1059) 
acceptable

>  <inchikey>  (1059) 
VGTWATNPNXQLSM-UHFFFAOYSA-N

>  <fragmenstein_mode>  (1059) 
expansion

>  <HIPPO Pose ID>  (1059) 
20122

>  <Energy>  (1059) 
221.66388

>  <fragmenstein_error>  (1059) 


>  <tags>  (1059) 
{'openbind_xx01zvns2b_c1_fragmenstein', 'fragmenstein_placed'}

>  <ref_pdb>  (1059) 
1

>  <scratch_subdir>  (1059) 
/opt/xchem-fragalysis-2/maxwin/BulkDock/SCRATCH/511027/C19673-P161

>  <alias>  (1059) 
N#Cc1cc2c(cc1NC(=O)c1cc(F)cc3c1cnn3C(=O)OCc1ccccc1)CN(N)C2

>  <HIPPO Compound ID>  (1059) 
34590

>  <fragmenstein_runtime>  (1059) 
6.668453

$$$$
N#Cc1cc2c(cc1NC(=O)c1cc(F)cc3[nH]ncc13)CNC2
     RDKit          3D

 24 27  0  0  0  0  0  0  0  0999 V2000
   -8.0611    7.8721  -11.5511 N   0  0  0  0  0  0  0  0  0  0  0  0
   -8.0084    6.7620  -11.2094 C   0  0  0  0  0  0  0  0  0  0  0  0
   -8.0471    5.4322  -10.6682 C   0  0  0  0  0  0  0  0  0  0  0  0
   -8.1899    5.3513   -9.2674 C   0  0  0  0  0  0  0  0  0  0  0  0
   -8.4345    4.1229   -8.6823 C   0  0  0  0  0  0  0  0  0  0  0  0
   -8.5503    2.9822   -9.4559 C   0  0  0  0  0  0  0  0  0  0  0  0
   -8.3912    3.0295  -10.8330 C   0  0  0  0  0  0  0  0  0  0  0  0
   -8.1084    4.2585  -11.4558 C   0  0  0  0  0  0  0  0  0  0  0  0
   -7.9250    4.1990  -12.8460 N   0  0  0  0  0  0  0  0  0  0  0  0
   -7.2325    5.1910  -13.8123 C   0  0  0  0  0  0  0  0  0  0  0  0
   -6.6404    6.1728  -13.5922 O   0  0  0  0  0  0  0  0  0  0  0  0
   -7.4162    4.8108  -15.2391 C   0  0  0  0  0  0  0  0  0  0  0  0
   -8.6381    4.3147  -15.7176 C   0  0  0  0  0  0  0  0  0  0  0  0
   -8.8145    4.0806  -17.0774 C   0  0  0  0  0  0  0  0  0  0  0  0
   -9.9940    3.6193  -17.5078 F   0  0  0  0  0  0  0  0  0  0  0  0
   -7.8168    4.3339  -18.0140 C   0  0  0  0  0  0  0  0  0  0  0  0
   -6.6084    4.8240  -17.5180 C   0  0  0  0  0  0  0  0  0  0  0  0
   -5.4453    5.1635  -18.1551 N   0  0  0  0  0  0  0  0  0  0  0  0
   -4.4761    5.6030  -17.3290 N   0  0  0  0  0  0  0  0  0  0  0  0
   -5.0518    5.5489  -16.1224 C   0  0  0  0  0  0  0  0  0  0  0  0
   -6.3813    5.0650  -16.1658 C   0  0  0  0  0  0  0  0  0  0  0  0
   -8.8647    1.8147   -8.5829 C   0  0  0  0  0  0  0  0  0  0  0  0
   -8.9106    2.3329   -7.1904 N   0  0  0  0  0  0  0  0  0  0  0  0
   -8.6627    3.7878   -7.2498 C   0  0  0  0  0  0  0  0  0  0  0  0
  1  2  3  0
  2  3  1  0
  3  4  2  0
  4  5  1  0
  5  6  2  0
  6  7  1  0
  7  8  2  0
  8  9  1  0
  9 10  1  0
 10 11  2  0
 10 12  1  0
 12 13  2  0
 13 14  1  0
 14 15  1  0
 14 16  2  0
 16 17  1  0
 17 18  1  0
 18 19  1  0
 19 20  2  0
 20 21  1  0
  6 22  1  0
 22 23  1  0
 23 24  1  0
  8  3  1  0
 21 12  1  0
 24  5  1  0
 21 17  2  0
M  END
>  <smiles>  (1060) 
C156-P161

>  <fragmenstein_outcome>  (1060) 
acceptable

>  <inchikey>  (1060) 
PVNIINDFNOMXKR-UHFFFAOYSA-N

>  <fragmenstein_mode>  (1060) 
expansion

>  <HIPPO Pose ID>  (1060) 
20125

>  <Energy>  (1060) 
74.721247

>  <fragmenstein_error>  (1060) 


>  <tags>  (1060) 
{'openbind_xx01zvns2b_c1_fragmenstein', 'fragmenstein_placed'}

>  <ref_pdb>  (1060) 
1

>  <scratch_subdir>  (1060) 
/opt/xchem-fragalysis-2/maxwin/BulkDock/SCRATCH/511027/C156-P161

>  <alias>  (1060) 
N#Cc1cc2c(cc1NC(=O)c1cc(F)cc3[nH]ncc13)CNC2

>  <HIPPO Compound ID>  (1060) 
156

>  <fragmenstein_runtime>  (1060) 
2.378718

$$$$
CC(C)NC(=O)[C@@](O)(Nc1cc2c(cc1C#N)CNC2)c1cc(F)cc2[nH]ncc12
     RDKit          3D

 30 33  0  0  0  0  0  0  0  0999 V2000
   -8.3808    9.4248  -11.4426 C   0  0  0  0  0  0  0  0  0  0  0  0
   -9.3523    8.3317  -11.8786 C   0  0  0  0  0  0  0  0  0  0  0  0
  -10.3249    8.8651  -12.9226 C   0  0  0  0  0  0  0  0  0  0  0  0
   -8.6750    7.1358  -12.3450 N   0  0  0  0  0  0  0  0  0  0  0  0
   -7.3746    6.9734  -13.1849 C   0  0  0  0  0  0  0  0  0  0  0  0
   -6.6941    7.7802  -13.6941 O   0  0  0  0  0  0  0  0  0  0  0  0
   -7.0032    5.3903  -13.2650 C   0  0  1  0  0  0  0  0  0  0  0  0
   -5.6538    5.1164  -12.9439 O   0  0  0  0  0  0  0  0  0  0  0  0
   -7.8352    4.5125  -12.4074 N   0  0  0  0  0  0  0  0  0  0  0  0
   -7.8061    4.3386  -11.0102 C   0  0  0  0  0  0  0  0  0  0  0  0
   -8.4757    3.1855  -10.5312 C   0  0  0  0  0  0  0  0  0  0  0  0
   -8.6667    2.9877   -9.1689 C   0  0  0  0  0  0  0  0  0  0  0  0
   -8.2985    3.9477   -8.2483 C   0  0  0  0  0  0  0  0  0  0  0  0
   -7.6173    5.0723   -8.6559 C   0  0  0  0  0  0  0  0  0  0  0  0
   -7.3270    5.2436  -10.0273 C   0  0  0  0  0  0  0  0  0  0  0  0
   -6.4177    6.3084  -10.3189 C   0  0  0  0  0  0  0  0  0  0  0  0
   -5.6233    7.1216  -10.5593 N   0  0  0  0  0  0  0  0  0  0  0  0
   -8.7108    3.5267   -6.8800 C   0  0  0  0  0  0  0  0  0  0  0  0
   -9.4129    2.2404   -7.0417 N   0  0  0  0  0  0  0  0  0  0  0  0
   -9.2172    1.8061   -8.4449 C   0  0  0  0  0  0  0  0  0  0  0  0
   -7.2040    4.9929  -14.7481 C   0  0  0  0  0  0  0  0  0  0  0  0
   -8.4521    4.4994  -15.2139 C   0  0  0  0  0  0  0  0  0  0  0  0
   -8.6768    4.1999  -16.5576 C   0  0  0  0  0  0  0  0  0  0  0  0
   -9.8676    3.7272  -16.9417 F   0  0  0  0  0  0  0  0  0  0  0  0
   -7.7078    4.3933  -17.5287 C   0  0  0  0  0  0  0  0  0  0  0  0
   -6.4854    4.8843  -17.0845 C   0  0  0  0  0  0  0  0  0  0  0  0
   -5.3428    5.1682  -17.7814 N   0  0  0  0  0  0  0  0  0  0  0  0
   -4.3404    5.6384  -17.0216 N   0  0  0  0  0  0  0  0  0  0  0  0
   -4.8695    5.6440  -15.7932 C   0  0  0  0  0  0  0  0  0  0  0  0
   -6.2095    5.1791  -15.7515 C   0  0  0  0  0  0  0  0  0  0  0  0
  1  2  1  0
  2  3  1  0
  2  4  1  0
  4  5  1  0
  5  6  2  0
  5  7  1  0
  7  8  1  1
  7  9  1  0
  9 10  1  0
 10 11  2  0
 11 12  1  0
 12 13  2  0
 13 14  1  0
 14 15  2  0
 15 16  1  0
 16 17  3  0
 13 18  1  0
 18 19  1  0
 19 20  1  0
  7 21  1  0
 21 22  2  0
 22 23  1  0
 23 24  1  0
 23 25  2  0
 25 26  1  0
 26 27  1  0
 27 28  1  0
 28 29  2  0
 29 30  1  0
 15 10  1  0
 30 21  1  0
 20 12  1  0
 30 26  2  0
M  END
>  <smiles>  (1061) 
C19679-P161

>  <fragmenstein_outcome>  (1061) 
acceptable

>  <inchikey>  (1061) 
LSOXJIZLKHKDEJ-UHFFFAOYSA-N

>  <fragmenstein_mode>  (1061) 
expansion

>  <HIPPO Pose ID>  (1061) 
20126

>  <Energy>  (1061) 
128.424445

>  <fragmenstein_error>  (1061) 


>  <tags>  (1061) 
{'openbind_xx01zvns2b_c1_fragmenstein', 'fragmenstein_placed'}

>  <ref_pdb>  (1061) 
1

>  <scratch_subdir>  (1061) 
/opt/xchem-fragalysis-2/maxwin/BulkDock/SCRATCH/511027/C19679-P161

>  <alias>  (1061) 
CC(C)NC(=O)[C@@](O)(Nc1cc2c(cc1C#N)CNC2)c1cc(F)cc2[nH]ncc12

>  <HIPPO Compound ID>  (1061) 
75516

>  <fragmenstein_runtime>  (1061) 
4.442964

$$$$
CC(C)CNC(=O)[C@@](O)(Nc1cc2c(cc1C#N)CNC2)c1cc(F)cc2[nH]ncc12
     RDKit          3D

 31 34  0  0  0  0  0  0  0  0999 V2000
   -9.8382    9.3968  -10.6172 C   0  0  0  0  0  0  0  0  0  0  0  0
   -8.9950   10.2032  -11.5997 C   0  0  0  0  0  0  0  0  0  0  0  0
   -7.7176   10.7448  -10.9644 C   0  0  0  0  0  0  0  0  0  0  0  0
   -8.7180    9.4534  -12.9068 C   0  0  0  0  0  0  0  0  0  0  0  0
   -8.1234    8.1403  -12.8183 N   0  0  0  0  0  0  0  0  0  0  0  0
   -8.7409    6.7298  -13.0712 C   0  0  0  0  0  0  0  0  0  0  0  0
   -9.8439    6.4168  -13.3136 O   0  0  0  0  0  0  0  0  0  0  0  0
   -7.5283    5.6492  -13.0632 C   0  0  1  0  0  0  0  0  0  0  0  0
   -6.2882    6.1562  -12.6406 O   0  0  0  0  0  0  0  0  0  0  0  0
   -7.8047    4.4868  -12.2101 N   0  0  0  0  0  0  0  0  0  0  0  0
   -8.1113    4.3867  -10.8483 C   0  0  0  0  0  0  0  0  0  0  0  0
   -8.5289    3.0962  -10.4343 C   0  0  0  0  0  0  0  0  0  0  0  0
   -8.8167    2.8291   -9.1025 C   0  0  0  0  0  0  0  0  0  0  0  0
   -8.7017    3.8024   -8.1299 C   0  0  0  0  0  0  0  0  0  0  0  0
   -8.2440    5.0535   -8.4621 C   0  0  0  0  0  0  0  0  0  0  0  0
   -7.9180    5.3387   -9.8097 C   0  0  0  0  0  0  0  0  0  0  0  0
   -7.2880    6.6098   -9.9702 C   0  0  0  0  0  0  0  0  0  0  0  0
   -6.6834    7.5984  -10.0373 N   0  0  0  0  0  0  0  0  0  0  0  0
   -9.0863    3.2349   -6.8049 C   0  0  0  0  0  0  0  0  0  0  0  0
   -9.7507    1.9515   -7.1184 N   0  0  0  0  0  0  0  0  0  0  0  0
   -9.2269    1.5532   -8.4491 C   0  0  0  0  0  0  0  0  0  0  0  0
   -7.3703    5.1725  -14.5367 C   0  0  0  0  0  0  0  0  0  0  0  0
   -8.4648    4.5273  -15.1855 C   0  0  0  0  0  0  0  0  0  0  0  0
   -8.4529    4.1952  -16.5370 C   0  0  0  0  0  0  0  0  0  0  0  0
   -9.5335    3.6254  -17.0866 F   0  0  0  0  0  0  0  0  0  0  0  0
   -7.3578    4.4631  -17.3398 C   0  0  0  0  0  0  0  0  0  0  0  0
   -6.2599    5.0473  -16.7112 C   0  0  0  0  0  0  0  0  0  0  0  0
   -5.0364    5.3942  -17.2163 N   0  0  0  0  0  0  0  0  0  0  0  0
   -4.2143    5.9653  -16.3234 N   0  0  0  0  0  0  0  0  0  0  0  0
   -4.9370    5.9594  -15.1988 C   0  0  0  0  0  0  0  0  0  0  0  0
   -6.2312    5.3971  -15.3603 C   0  0  0  0  0  0  0  0  0  0  0  0
  1  2  1  0
  2  3  1  0
  2  4  1  0
  4  5  1  0
  5  6  1  0
  6  7  2  0
  6  8  1  0
  8  9  1  1
  8 10  1  0
 10 11  1  0
 11 12  2  0
 12 13  1  0
 13 14  2  0
 14 15  1  0
 15 16  2  0
 16 17  1  0
 17 18  3  0
 14 19  1  0
 19 20  1  0
 20 21  1  0
  8 22  1  0
 22 23  2  0
 23 24  1  0
 24 25  1  0
 24 26  2  0
 26 27  1  0
 27 28  1  0
 28 29  1  0
 29 30  2  0
 30 31  1  0
 16 11  1  0
 31 22  1  0
 21 13  1  0
 31 27  2  0
M  END
>  <smiles>  (1062) 
C19693-P161

>  <fragmenstein_outcome>  (1062) 
acceptable

>  <inchikey>  (1062) 
DJAHBARBNNFXHV-UHFFFAOYSA-N

>  <fragmenstein_mode>  (1062) 
expansion

>  <HIPPO Pose ID>  (1062) 
20132

>  <Energy>  (1062) 
128.87345

>  <fragmenstein_error>  (1062) 


>  <tags>  (1062) 
{'openbind_xx01zvns2b_c1_fragmenstein', 'fragmenstein_placed'}

>  <ref_pdb>  (1062) 
1

>  <scratch_subdir>  (1062) 
/opt/xchem-fragalysis-2/maxwin/BulkDock/SCRATCH/511027/C19693-P161

>  <alias>  (1062) 
CC(C)CNC(=O)[C@@](O)(Nc1cc2c(cc1C#N)CNC2)c1cc(F)cc2[nH]ncc12

>  <HIPPO Compound ID>  (1062) 
92187

>  <fragmenstein_runtime>  (1062) 
5.125987

$$$$
N#C[C@H]1[C@H](NC(=O)c2cc(F)cc3[nH]ncc23)C[C@H]2CNC3=C2[C@@H]1CSC3
     RDKit          3D

 27 31  0  0  0  0  0  0  0  0999 V2000
   -7.2933    7.5965  -11.1065 N   0  0  0  0  0  0  0  0  0  0  0  0
   -7.5714    6.5196  -10.7735 C   0  0  0  0  0  0  0  0  0  0  0  0
   -8.0165    5.2127  -10.2780 C   0  0  1  0  0  0  0  0  0  0  0  0
   -7.3473    4.0209  -11.0374 C   0  0  2  0  0  0  0  0  0  0  0  0
   -7.4846    4.1135  -12.4878 N   0  0  0  0  0  0  0  0  0  0  0  0
   -6.6839    4.9399  -13.5218 C   0  0  0  0  0  0  0  0  0  0  0  0
   -5.8418    5.7324  -13.3669 O   0  0  0  0  0  0  0  0  0  0  0  0
   -7.1069    4.7258  -14.9484 C   0  0  0  0  0  0  0  0  0  0  0  0
   -8.3860    4.2871  -15.3326 C   0  0  0  0  0  0  0  0  0  0  0  0
   -8.7070    4.1348  -16.6813 C   0  0  0  0  0  0  0  0  0  0  0  0
   -9.9289    3.7102  -17.0205 F   0  0  0  0  0  0  0  0  0  0  0  0
   -7.8149    4.4297  -17.7048 C   0  0  0  0  0  0  0  0  0  0  0  0
   -6.5664    4.9024  -17.3156 C   0  0  0  0  0  0  0  0  0  0  0  0
   -5.4920    5.2991  -18.0639 N   0  0  0  0  0  0  0  0  0  0  0  0
   -4.4359    5.6976  -17.3370 N   0  0  0  0  0  0  0  0  0  0  0  0
   -4.8601    5.5492  -16.0764 C   0  0  0  0  0  0  0  0  0  0  0  0
   -6.1891    5.0564  -15.9841 C   0  0  0  0  0  0  0  0  0  0  0  0
   -7.7534    2.6237  -10.4802 C   0  0  0  0  0  0  0  0  0  0  0  0
   -8.7482    2.7155   -9.3266 C   0  0  1  0  0  0  0  0  0  0  0  0
   -8.9268    1.5054   -8.3943 C   0  0  0  0  0  0  0  0  0  0  0  0
   -9.2411    2.1402   -7.0954 N   0  0  0  0  0  0  0  0  0  0  0  0
   -8.7522    3.4445   -7.0990 C   0  0  0  0  0  0  0  0  0  0  0  0
   -8.3886    3.7886   -8.3398 C   0  0  0  0  0  0  0  0  0  0  0  0
   -7.7176    5.0437   -8.7717 C   0  0  2  0  0  0  0  0  0  0  0  0
   -8.0865    6.2016   -7.8351 C   0  0  0  0  0  0  0  0  0  0  0  0
   -7.6433    5.7997   -6.0923 S   0  0  0  0  0  0  0  0  0  0  0  0
   -8.6121    4.2640   -5.8560 C   0  0  0  0  0  0  0  0  0  0  0  0
  1  2  3  0
  3  2  1  6
  3  4  1  0
  4  5  1  6
  5  6  1  0
  6  7  2  0
  6  8  1  0
  8  9  2  0
  9 10  1  0
 10 11  1  0
 10 12  2  0
 12 13  1  0
 13 14  1  0
 14 15  1  0
 15 16  2  0
 16 17  1  0
  4 18  1  0
 19 18  1  6
 19 20  1  0
 20 21  1  0
 21 22  1  0
 22 23  2  0
 23 24  1  0
 24 25  1  1
 25 26  1  0
 26 27  1  0
 24  3  1  0
 17  8  1  0
 23 19  1  0
 17 13  2  0
 27 22  1  0
M  END
>  <smiles>  (1063) 
C106876-P161

>  <fragmenstein_outcome>  (1063) 
acceptable

>  <inchikey>  (1063) 
DUHGSSKVFCTKLU-UHFFFAOYSA-N

>  <fragmenstein_mode>  (1063) 
expansion

>  <HIPPO Pose ID>  (1063) 
20138

>  <Energy>  (1063) 
96.361946

>  <fragmenstein_error>  (1063) 


>  <tags>  (1063) 
{'openbind_xx01zvns2b_c1_fragmenstein', 'fragmenstein_placed'}

>  <ref_pdb>  (1063) 
1

>  <scratch_subdir>  (1063) 
/opt/xchem-fragalysis-2/maxwin/BulkDock/SCRATCH/511027/C106876-P161

>  <alias>  (1063) 
N#C[C@H]1[C@H](NC(=O)c2cc(F)cc3[nH]ncc23)C[C@H]2CNC3=C2[C@@H]1CSC3

>  <HIPPO Compound ID>  (1063) 
96638

>  <fragmenstein_runtime>  (1063) 
2.344131

$$$$
CCc1n[nH]c2cc(F)cc([C@@H](Nc3cc4c(cc3C#N)CNC4)C(=O)NCC(F)F)c12
     RDKit          3D

 32 35  0  0  0  0  0  0  0  0999 V2000
   -2.7851    5.5505  -13.3280 C   0  0  0  0  0  0  0  0  0  0  0  0
   -4.0543    6.3432  -13.6116 C   0  0  0  0  0  0  0  0  0  0  0  0
   -4.7916    5.8376  -14.8068 C   0  0  0  0  0  0  0  0  0  0  0  0
   -4.1981    6.0261  -15.9960 N   0  0  0  0  0  0  0  0  0  0  0  0
   -5.0715    5.5378  -16.8752 N   0  0  0  0  0  0  0  0  0  0  0  0
   -6.2376    5.1001  -16.3192 C   0  0  0  0  0  0  0  0  0  0  0  0
   -7.3726    4.6115  -16.9605 C   0  0  0  0  0  0  0  0  0  0  0  0
   -8.4056    4.2070  -16.1447 C   0  0  0  0  0  0  0  0  0  0  0  0
   -9.5240    3.7333  -16.7118 F   0  0  0  0  0  0  0  0  0  0  0  0
   -8.2938    4.2594  -14.7569 C   0  0  0  0  0  0  0  0  0  0  0  0
   -7.1338    4.7379  -14.0686 C   0  0  0  0  0  0  0  0  0  0  0  0
   -7.0713    4.6617  -12.5126 C   0  0  1  0  0  0  0  0  0  0  0  0
   -8.4453    4.7695  -11.9114 N   0  0  0  0  0  0  0  0  0  0  0  0
   -8.5198    4.4978  -10.5062 C   0  0  0  0  0  0  0  0  0  0  0  0
   -8.8137    3.1753  -10.1056 C   0  0  0  0  0  0  0  0  0  0  0  0
   -8.9077    2.8636   -8.7670 C   0  0  0  0  0  0  0  0  0  0  0  0
   -8.7322    3.8267   -7.7902 C   0  0  0  0  0  0  0  0  0  0  0  0
   -8.4153    5.1243   -8.1335 C   0  0  0  0  0  0  0  0  0  0  0  0
   -8.3262    5.4688   -9.4988 C   0  0  0  0  0  0  0  0  0  0  0  0
   -8.1653    6.8612   -9.7762 C   0  0  0  0  0  0  0  0  0  0  0  0
   -8.0283    8.0095   -9.8817 N   0  0  0  0  0  0  0  0  0  0  0  0
   -9.0029    3.2120   -6.4573 C   0  0  0  0  0  0  0  0  0  0  0  0
   -9.6546    1.9152   -6.7578 N   0  0  0  0  0  0  0  0  0  0  0  0
   -9.2049    1.5556   -8.1234 C   0  0  0  0  0  0  0  0  0  0  0  0
   -6.4096    3.3106  -12.0146 C   0  0  0  0  0  0  0  0  0  0  0  0
   -7.0052    2.3078  -12.0527 O   0  0  0  0  0  0  0  0  0  0  0  0
   -4.9958    3.6166  -11.4636 N   0  0  0  0  0  0  0  0  0  0  0  0
   -4.0588    2.7694  -10.7582 C   0  0  0  0  0  0  0  0  0  0  0  0
   -3.6350    1.5215  -11.5317 C   0  0  0  0  0  0  0  0  0  0  0  0
   -2.9290    1.8980  -12.6363 F   0  0  0  0  0  0  0  0  0  0  0  0
   -2.7618    0.8091  -10.7673 F   0  0  0  0  0  0  0  0  0  0  0  0
   -6.0831    5.2084  -14.9286 C   0  0  0  0  0  0  0  0  0  0  0  0
  1  2  1  0
  2  3  1  0
  3  4  2  0
  4  5  1  0
  5  6  1  0
  6  7  2  0
  7  8  1  0
  8  9  1  0
  8 10  2  0
 10 11  1  0
 11 12  1  0
 12 13  1  1
 13 14  1  0
 14 15  2  0
 15 16  1  0
 16 17  2  0
 17 18  1  0
 18 19  2  0
 19 20  1  0
 20 21  3  0
 17 22  1  0
 22 23  1  0
 23 24  1  0
 12 25  1  0
 25 26  2  0
 25 27  1  0
 27 28  1  0
 28 29  1  0
 29 30  1  0
 29 31  1  0
 11 32  2  0
 32  3  1  0
 32  6  1  0
 19 14  1  0
 24 16  1  0
M  END
>  <smiles>  (1064) 
C19888-P161

>  <fragmenstein_outcome>  (1064) 
acceptable

>  <inchikey>  (1064) 
PHDLBJUMUNGODH-UHFFFAOYSA-N

>  <fragmenstein_mode>  (1064) 
expansion

>  <HIPPO Pose ID>  (1064) 
20141

>  <Energy>  (1064) 
171.910077

>  <fragmenstein_error>  (1064) 


>  <tags>  (1064) 
{'openbind_xx01zvns2b_c1_fragmenstein', 'fragmenstein_placed'}

>  <ref_pdb>  (1064) 
1

>  <scratch_subdir>  (1064) 
/opt/xchem-fragalysis-2/maxwin/BulkDock/SCRATCH/511027/C19888-P161

>  <alias>  (1064) 
CCc1n[nH]c2cc(F)cc([C@@H](Nc3cc4c(cc3C#N)CNC4)C(=O)NCC(F)F)c12

>  <HIPPO Compound ID>  (1064) 
104544

>  <fragmenstein_runtime>  (1064) 
5.799282

$$$$
N#Cc1cc2c(cc1NC(=O)c1cc(F)cc3c1C=N[N@@H+]3[O-])CNC2
     RDKit          3D

 25 28  0  0  0  0  0  0  0  0999 V2000
   -7.7067    7.7257  -11.5065 N   0  0  0  0  0  0  0  0  0  0  0  0
   -7.7574    6.6192  -11.1549 C   0  0  0  0  0  0  0  0  0  0  0  0
   -7.9073    5.2948  -10.6245 C   0  0  0  0  0  0  0  0  0  0  0  0
   -8.0789    5.2160   -9.2241 C   0  0  0  0  0  0  0  0  0  0  0  0
   -8.4146    4.0049   -8.6500 C   0  0  0  0  0  0  0  0  0  0  0  0
   -8.5869    2.8785   -9.4354 C   0  0  0  0  0  0  0  0  0  0  0  0
   -8.4154    2.9284  -10.8147 C   0  0  0  0  0  0  0  0  0  0  0  0
   -8.0437    4.1390  -11.4307 C   0  0  0  0  0  0  0  0  0  0  0  0
   -7.8815    4.0908  -12.8316 N   0  0  0  0  0  0  0  0  0  0  0  0
   -7.0726    5.0151  -13.7877 C   0  0  0  0  0  0  0  0  0  0  0  0
   -6.3570    5.9089  -13.5511 O   0  0  0  0  0  0  0  0  0  0  0  0
   -7.3394    4.7503  -15.2396 C   0  0  0  0  0  0  0  0  0  0  0  0
   -8.5743    4.2652  -15.6894 C   0  0  0  0  0  0  0  0  0  0  0  0
   -8.8242    4.1215  -17.0644 C   0  0  0  0  0  0  0  0  0  0  0  0
  -10.0070    3.6410  -17.4599 F   0  0  0  0  0  0  0  0  0  0  0  0
   -7.8989    4.4969  -18.0308 C   0  0  0  0  0  0  0  0  0  0  0  0
   -6.7018    5.0153  -17.5859 C   0  0  0  0  0  0  0  0  0  0  0  0
   -6.4217    5.1054  -16.2272 C   0  0  0  0  0  0  0  0  0  0  0  0
   -5.0441    5.5623  -16.1940 C   0  0  0  0  0  0  0  0  0  0  0  0
   -4.4936    5.7238  -17.3631 N   0  0  0  0  0  0  0  0  0  0  0  0
   -5.5745    5.4930  -18.4011 N   0  0  2  0  0  0  0  0  0  0  0  0
   -5.8475    6.7049  -18.9397 O   0  0  0  0  0  0  0  0  0  0  0  0
   -8.9458    1.7212   -8.5614 C   0  0  0  0  0  0  0  0  0  0  0  0
   -9.1563    2.2792   -7.2060 N   0  0  0  0  0  0  0  0  0  0  0  0
   -8.6732    3.6714   -7.2197 C   0  0  0  0  0  0  0  0  0  0  0  0
  1  2  3  0
  2  3  1  0
  3  4  2  0
  4  5  1  0
  5  6  2  0
  6  7  1  0
  7  8  2  0
  8  9  1  0
  9 10  1  0
 10 11  2  0
 10 12  1  0
 12 13  2  0
 13 14  1  0
 14 15  1  0
 14 16  2  0
 16 17  1  0
 17 18  2  0
 18 19  1  0
 19 20  2  0
 20 21  1  0
 21 22  1  1
  6 23  1  0
 23 24  1  0
 24 25  1  0
  8  3  1  0
 18 12  1  0
 25  5  1  0
 21 17  1  0
M  CHG  2  21   1  22  -1
M  END
>  <smiles>  (1065) 
C19682-P161

>  <fragmenstein_outcome>  (1065) 
acceptable

>  <inchikey>  (1065) 
OKPSXQAQPSNBCK-UHFFFAOYSA-N

>  <fragmenstein_mode>  (1065) 
expansion

>  <HIPPO Pose ID>  (1065) 
20148

>  <Energy>  (1065) 
63.461857

>  <fragmenstein_error>  (1065) 


>  <tags>  (1065) 
{'openbind_xx01zvns2b_c1_fragmenstein', 'fragmenstein_placed'}

>  <ref_pdb>  (1065) 
1

>  <scratch_subdir>  (1065) 
/opt/xchem-fragalysis-2/maxwin/BulkDock/SCRATCH/511027/C19682-P161

>  <alias>  (1065) 
N#Cc1cc2c(cc1NC(=O)c1cc(F)cc3c1C=N[N@@H+]3[O-])CNC2

>  <HIPPO Compound ID>  (1065) 
19682

>  <fragmenstein_runtime>  (1065) 
4.721673

$$$$
Cc1cc2c(C(=O)Nc3cc4c(c(C5=CCS(=O)(=O)CC5)c3)CNC4)cc(F)cc2n1N
     RDKit          3D

 32 36  0  0  0  0  0  0  0  0999 V2000
   -3.5917    6.0876  -18.2290 C   0  0  0  0  0  0  0  0  0  0  0  0
   -4.9113    5.6164  -17.7379 C   0  0  0  0  0  0  0  0  0  0  0  0
   -5.3881    5.5078  -16.4471 C   0  0  0  0  0  0  0  0  0  0  0  0
   -6.7167    5.0005  -16.5102 C   0  0  0  0  0  0  0  0  0  0  0  0
   -7.7152    4.7163  -15.5542 C   0  0  0  0  0  0  0  0  0  0  0  0
   -7.5486    5.1647  -14.1429 C   0  0  0  0  0  0  0  0  0  0  0  0
   -7.1404    6.2449  -13.9629 O   0  0  0  0  0  0  0  0  0  0  0  0
   -7.9978    4.0802  -13.1327 N   0  0  0  0  0  0  0  0  0  0  0  0
   -8.1234    4.1317  -11.7426 C   0  0  0  0  0  0  0  0  0  0  0  0
   -8.4531    2.9705  -11.0446 C   0  0  0  0  0  0  0  0  0  0  0  0
   -8.6023    3.0450   -9.6677 C   0  0  0  0  0  0  0  0  0  0  0  0
   -8.4291    4.2450   -8.9727 C   0  0  0  0  0  0  0  0  0  0  0  0
   -8.0929    5.4171   -9.6427 C   0  0  0  0  0  0  0  0  0  0  0  0
   -7.9016    6.7281   -8.9826 C   0  0  0  0  0  0  0  0  0  0  0  0
   -8.6521    7.7727   -9.3877 C   0  0  0  0  0  0  0  0  0  0  0  0
   -8.5924    9.2019   -8.9235 C   0  0  0  0  0  0  0  0  0  0  0  0
   -7.3042    9.4937   -7.7256 S   0  0  0  0  0  0  0  0  0  0  0  0
   -7.7885   10.4498   -6.7443 O   0  0  0  0  0  0  0  0  0  0  0  0
   -6.0589    9.7555   -8.4271 O   0  0  0  0  0  0  0  0  0  0  0  0
   -7.1429    7.9291   -6.9067 C   0  0  0  0  0  0  0  0  0  0  0  0
   -6.8487    6.8299   -7.9103 C   0  0  0  0  0  0  0  0  0  0  0  0
   -7.9373    5.3344  -11.0429 C   0  0  0  0  0  0  0  0  0  0  0  0
   -8.6637    3.9731   -7.5213 C   0  0  0  0  0  0  0  0  0  0  0  0
   -9.3226    2.6514   -7.4508 N   0  0  0  0  0  0  0  0  0  0  0  0
   -8.9408    1.9528   -8.7038 C   0  0  0  0  0  0  0  0  0  0  0  0
   -8.9230    4.1629  -15.9900 C   0  0  0  0  0  0  0  0  0  0  0  0
   -9.1613    3.9599  -17.3441 C   0  0  0  0  0  0  0  0  0  0  0  0
  -10.3505    3.4991  -17.7449 F   0  0  0  0  0  0  0  0  0  0  0  0
   -8.2204    4.2670  -18.3116 C   0  0  0  0  0  0  0  0  0  0  0  0
   -7.0021    4.7874  -17.8648 C   0  0  0  0  0  0  0  0  0  0  0  0
   -5.9257    5.2426  -18.5763 N   0  0  0  0  0  0  0  0  0  0  0  0
   -5.8942    5.4198  -19.9556 N   0  0  0  0  0  0  0  0  0  0  0  0
  1  2  1  0
  2  3  2  0
  3  4  1  0
  4  5  2  0
  5  6  1  0
  6  7  2  0
  6  8  1  0
  8  9  1  0
  9 10  2  0
 10 11  1  0
 11 12  2  0
 12 13  1  0
 13 14  1  0
 14 15  2  0
 15 16  1  0
 16 17  1  0
 17 18  2  0
 17 19  2  0
 17 20  1  0
 20 21  1  0
 13 22  2  0
 12 23  1  0
 23 24  1  0
 24 25  1  0
  5 26  1  0
 26 27  2  0
 27 28  1  0
 27 29  1  0
 29 30  2  0
 30 31  1  0
 31 32  1  0
 31  2  1  0
 30  4  1  0
 22  9  1  0
 25 11  1  0
 21 14  1  0
M  END
>  <smiles>  (1066) 
C106943-P162

>  <fragmenstein_outcome>  (1066) 
acceptable

>  <inchikey>  (1066) 
QYUAQNCZKLHNFR-UHFFFAOYSA-N

>  <fragmenstein_mode>  (1066) 
expansion

>  <HIPPO Pose ID>  (1066) 
20196

>  <Energy>  (1066) 
47.451547

>  <fragmenstein_error>  (1066) 


>  <tags>  (1066) 
{'openbind_xx01zvns2b_c1_fragmenstein', 'fragmenstein_placed'}

>  <ref_pdb>  (1066) 
1

>  <scratch_subdir>  (1066) 
/opt/xchem-fragalysis-2/maxwin/BulkDock/SCRATCH/511027/C106943-P162

>  <alias>  (1066) 
Cc1cc2c(C(=O)Nc3cc4c(c(C5=CCS(=O)(=O)CC5)c3)CNC4)cc(F)cc2n1N

>  <HIPPO Compound ID>  (1066) 
101356

>  <fragmenstein_runtime>  (1066) 
7.441337

$$$$
CNCn1ncc2c(C(=O)Nc3cc4c(c(C5=CCS(=O)(=O)CC5)c3)CN(C)C4)cc(F)cc21
     RDKit          3D

 34 38  0  0  0  0  0  0  0  0999 V2000
   -5.2641    9.2726  -17.7493 C   0  0  0  0  0  0  0  0  0  0  0  0
   -5.7814    8.2100  -18.6007 N   0  0  0  0  0  0  0  0  0  0  0  0
   -5.0413    6.9481  -18.4007 C   0  0  0  0  0  0  0  0  0  0  0  0
   -5.4749    6.3158  -17.1506 N   0  0  0  0  0  0  0  0  0  0  0  0
   -4.7368    6.4541  -16.0231 N   0  0  0  0  0  0  0  0  0  0  0  0
   -5.3760    5.6942  -15.1298 C   0  0  0  0  0  0  0  0  0  0  0  0
   -6.5680    5.1351  -15.6382 C   0  0  0  0  0  0  0  0  0  0  0  0
   -7.5980    4.2990  -15.1725 C   0  0  0  0  0  0  0  0  0  0  0  0
   -7.5868    3.6793  -13.8323 C   0  0  0  0  0  0  0  0  0  0  0  0
   -7.6038    2.5156  -13.7522 O   0  0  0  0  0  0  0  0  0  0  0  0
   -7.6551    4.7587  -12.7320 N   0  0  0  0  0  0  0  0  0  0  0  0
   -7.8474    4.6389  -11.3593 C   0  0  0  0  0  0  0  0  0  0  0  0
   -8.2660    3.4315  -10.8005 C   0  0  0  0  0  0  0  0  0  0  0  0
   -8.5409    3.4053   -9.4456 C   0  0  0  0  0  0  0  0  0  0  0  0
   -8.3343    4.5230   -8.6303 C   0  0  0  0  0  0  0  0  0  0  0  0
   -7.8607    5.7127   -9.1613 C   0  0  0  0  0  0  0  0  0  0  0  0
   -7.5324    6.8841   -8.3351 C   0  0  0  0  0  0  0  0  0  0  0  0
   -8.3641    7.9414   -8.3285 C   0  0  0  0  0  0  0  0  0  0  0  0
   -8.1552    9.2544   -7.6263 C   0  0  0  0  0  0  0  0  0  0  0  0
   -6.4731    9.4536   -7.0671 S   0  0  0  0  0  0  0  0  0  0  0  0
   -5.6198    9.7471   -8.2045 O   0  0  0  0  0  0  0  0  0  0  0  0
   -6.4801   10.3367   -5.9140 O   0  0  0  0  0  0  0  0  0  0  0  0
   -6.0802    7.8266   -6.4823 C   0  0  0  0  0  0  0  0  0  0  0  0
   -6.2211    6.8039   -7.5937 C   0  0  0  0  0  0  0  0  0  0  0  0
   -7.6624    5.7726  -10.5514 C   0  0  0  0  0  0  0  0  0  0  0  0
   -8.7103    4.1523   -7.2281 C   0  0  0  0  0  0  0  0  0  0  0  0
   -9.5651    2.9645   -7.3989 N   0  0  0  0  0  0  0  0  0  0  0  0
   -9.5878    2.0855   -6.2537 C   0  0  0  0  0  0  0  0  0  0  0  0
   -9.0851    2.2812   -8.6217 C   0  0  0  0  0  0  0  0  0  0  0  0
   -8.6791    4.0006  -16.0102 C   0  0  0  0  0  0  0  0  0  0  0  0
   -8.6943    4.4408  -17.3200 C   0  0  0  0  0  0  0  0  0  0  0  0
   -9.7238    4.1004  -18.1078 F   0  0  0  0  0  0  0  0  0  0  0  0
   -7.6585    5.2134  -17.8355 C   0  0  0  0  0  0  0  0  0  0  0  0
   -6.6166    5.5691  -16.9650 C   0  0  0  0  0  0  0  0  0  0  0  0
  1  2  1  0
  2  3  1  0
  3  4  1  0
  4  5  1  0
  5  6  2  0
  6  7  1  0
  7  8  2  0
  8  9  1  0
  9 10  2  0
  9 11  1  0
 11 12  1  0
 12 13  2  0
 13 14  1  0
 14 15  2  0
 15 16  1  0
 16 17  1  0
 17 18  2  0
 18 19  1  0
 19 20  1  0
 20 21  2  0
 20 22  2  0
 20 23  1  0
 23 24  1  0
 16 25  2  0
 15 26  1  0
 26 27  1  0
 27 28  1  0
 27 29  1  0
  8 30  1  0
 30 31  2  0
 31 32  1  0
 31 33  1  0
 33 34  2  0
 34  4  1  0
 34  7  1  0
 25 12  1  0
 29 14  1  0
 24 17  1  0
M  END
>  <smiles>  (1067) 
C107054-P163

>  <fragmenstein_outcome>  (1067) 
acceptable

>  <inchikey>  (1067) 
NMILJJYJXHHSDA-UHFFFAOYSA-N

>  <fragmenstein_mode>  (1067) 
expansion

>  <HIPPO Pose ID>  (1067) 
20236

>  <Energy>  (1067) 
119.270424

>  <fragmenstein_error>  (1067) 


>  <tags>  (1067) 
{'openbind_xx01zvns2b_c1_fragmenstein', 'fragmenstein_placed'}

>  <ref_pdb>  (1067) 
1

>  <scratch_subdir>  (1067) 
/opt/xchem-fragalysis-2/maxwin/BulkDock/SCRATCH/511027/C107054-P163

>  <alias>  (1067) 
CNCn1ncc2c(C(=O)Nc3cc4c(c(C5=CCS(=O)(=O)CC5)c3)CN(C)C4)cc(F)cc21

>  <HIPPO Compound ID>  (1067) 
107054

>  <fragmenstein_runtime>  (1067) 
5.031872

$$$$
O=C(Nc1cc2c(c(C3=CCS(=O)(=O)CC3)c1)CNC2)[C@@H]1C[C@@H](F)C[C@@H]2[C@@H]1CN1NNCN21
     RDKit          3D

 33 38  0  0  0  0  0  0  0  0999 V2000
   -7.7154    3.0506  -13.9707 O   0  0  0  0  0  0  0  0  0  0  0  0
   -7.9376    4.1977  -13.9189 C   0  0  0  0  0  0  0  0  0  0  0  0
   -8.0958    5.1413  -12.6870 N   0  0  0  0  0  0  0  0  0  0  0  0
   -8.1065    4.8540  -11.3222 C   0  0  0  0  0  0  0  0  0  0  0  0
   -8.3291    3.5593  -10.8549 C   0  0  0  0  0  0  0  0  0  0  0  0
   -8.5362    3.3877   -9.4940 C   0  0  0  0  0  0  0  0  0  0  0  0
   -8.4460    4.4544   -8.5931 C   0  0  0  0  0  0  0  0  0  0  0  0
   -8.1349    5.7413   -9.0253 C   0  0  0  0  0  0  0  0  0  0  0  0
   -7.9010    6.8855   -8.1070 C   0  0  0  0  0  0  0  0  0  0  0  0
   -8.4328    8.0940   -8.3853 C   0  0  0  0  0  0  0  0  0  0  0  0
   -8.2607    9.3742   -7.6137 C   0  0  0  0  0  0  0  0  0  0  0  0
   -7.6223    9.0829   -5.9771 S   0  0  0  0  0  0  0  0  0  0  0  0
   -8.6492    8.4805   -5.1450 O   0  0  0  0  0  0  0  0  0  0  0  0
   -6.9350   10.2847   -5.5377 O   0  0  0  0  0  0  0  0  0  0  0  0
   -6.3847    7.8569   -6.3023 C   0  0  0  0  0  0  0  0  0  0  0  0
   -7.0179    6.6173   -6.9068 C   0  0  0  0  0  0  0  0  0  0  0  0
   -8.0035    5.9245  -10.4179 C   0  0  0  0  0  0  0  0  0  0  0  0
   -8.7607    3.9284   -7.2270 C   0  0  0  0  0  0  0  0  0  0  0  0
   -9.3737    2.6000   -7.4274 N   0  0  0  0  0  0  0  0  0  0  0  0
   -8.8997    2.1379   -8.7559 C   0  0  0  0  0  0  0  0  0  0  0  0
   -8.2465    5.0561  -15.1771 C   0  0  2  0  0  0  0  0  0  0  0  0
   -9.0027    4.1755  -16.2038 C   0  0  0  0  0  0  0  0  0  0  0  0
   -8.6813    4.3503  -17.6844 C   0  0  1  0  0  0  0  0  0  0  0  0
   -9.4789    5.3438  -18.1597 F   0  0  0  0  0  0  0  0  0  0  0  0
   -7.2376    4.6888  -18.0399 C   0  0  0  0  0  0  0  0  0  0  0  0
   -6.3479    4.7810  -16.8020 C   0  0  2  0  0  0  0  0  0  0  0  0
   -7.0211    5.7075  -15.8069 C   0  0  2  0  0  0  0  0  0  0  0  0
   -5.8634    6.1810  -14.9625 C   0  0  0  0  0  0  0  0  0  0  0  0
   -4.7631    6.3109  -15.9402 N   0  0  0  0  0  0  0  0  0  0  0  0
   -4.8660    7.5607  -16.6610 N   0  0  0  0  0  0  0  0  0  0  0  0
   -4.9899    7.2456  -18.0699 N   0  0  0  0  0  0  0  0  0  0  0  0
   -4.5840    5.8500  -18.1786 C   0  0  0  0  0  0  0  0  0  0  0  0
   -4.9467    5.2356  -16.9129 N   0  0  0  0  0  0  0  0  0  0  0  0
  1  2  2  0
  2  3  1  0
  3  4  1  0
  4  5  2  0
  5  6  1  0
  6  7  2  0
  7  8  1  0
  8  9  1  0
  9 10  2  0
 10 11  1  0
 11 12  1  0
 12 13  2  0
 12 14  2  0
 12 15  1  0
 15 16  1  0
  8 17  2  0
  7 18  1  0
 18 19  1  0
 19 20  1  0
 21  2  1  1
 21 22  1  0
 22 23  1  0
 23 24  1  1
 23 25  1  0
 26 25  1  6
 26 27  1  0
 27 28  1  1
 28 29  1  0
 29 30  1  0
 30 31  1  0
 31 32  1  0
 32 33  1  0
 17  4  1  0
 27 21  1  0
 33 29  1  0
 20  6  1  0
 33 26  1  0
 16  9  1  0
M  END
>  <smiles>  (1068) 
C107063-P163

>  <fragmenstein_outcome>  (1068) 
acceptable

>  <inchikey>  (1068) 
XOIXWNJNTPVXLR-UHFFFAOYSA-N

>  <fragmenstein_mode>  (1068) 
expansion

>  <HIPPO Pose ID>  (1068) 
20241

>  <Energy>  (1068) 
79.630571

>  <fragmenstein_error>  (1068) 


>  <tags>  (1068) 
{'openbind_xx01zvns2b_c1_fragmenstein', 'fragmenstein_placed'}

>  <ref_pdb>  (1068) 
1

>  <scratch_subdir>  (1068) 
/opt/xchem-fragalysis-2/maxwin/BulkDock/SCRATCH/511027/C107063-P163

>  <alias>  (1068) 
O=C(Nc1cc2c(c(C3=CCS(=O)(=O)CC3)c1)CNC2)[C@@H]1C[C@@H](F)C[C@@H]2[C@@H]1CN1NNCN21

>  <HIPPO Compound ID>  (1068) 
102421

>  <fragmenstein_runtime>  (1068) 
5.77695

$$$$
CNCN1c2cc(F)cc(C(=O)Nc3cc4c(c(C5=CCS(=O)(=O)CC5)c3)CNC4)c2C[C@@]12CC[C@H](OC)NN2
     RDKit          3D

 40 45  0  0  0  0  0  0  0  0999 V2000
   -3.8008    6.3480  -20.5879 C   0  0  0  0  0  0  0  0  0  0  0  0
   -3.8685    5.8740  -19.2134 N   0  0  0  0  0  0  0  0  0  0  0  0
   -5.1622    6.1865  -18.6087 C   0  0  0  0  0  0  0  0  0  0  0  0
   -5.4623    5.7164  -17.2768 N   0  0  0  0  0  0  0  0  0  0  0  0
   -6.7060    5.1662  -16.9559 C   0  0  0  0  0  0  0  0  0  0  0  0
   -7.8118    4.9686  -17.7655 C   0  0  0  0  0  0  0  0  0  0  0  0
   -8.9459    4.3850  -17.2159 C   0  0  0  0  0  0  0  0  0  0  0  0
  -10.0260    4.1879  -17.9841 F   0  0  0  0  0  0  0  0  0  0  0  0
   -8.9765    3.9792  -15.8871 C   0  0  0  0  0  0  0  0  0  0  0  0
   -7.8440    4.1085  -15.0921 C   0  0  0  0  0  0  0  0  0  0  0  0
   -7.8182    3.5102  -13.7405 C   0  0  0  0  0  0  0  0  0  0  0  0
   -7.7507    2.3526  -13.6196 O   0  0  0  0  0  0  0  0  0  0  0  0
   -7.9217    4.6221  -12.6769 N   0  0  0  0  0  0  0  0  0  0  0  0
   -8.0545    4.5408  -11.2959 C   0  0  0  0  0  0  0  0  0  0  0  0
   -8.4327    3.3533  -10.6716 C   0  0  0  0  0  0  0  0  0  0  0  0
   -8.5986    3.3623   -9.2956 C   0  0  0  0  0  0  0  0  0  0  0  0
   -8.3388    4.5000   -8.5361 C   0  0  0  0  0  0  0  0  0  0  0  0
   -7.9251    5.6801   -9.1397 C   0  0  0  0  0  0  0  0  0  0  0  0
   -7.5556    6.8837   -8.3796 C   0  0  0  0  0  0  0  0  0  0  0  0
   -8.4173    7.9143   -8.3172 C   0  0  0  0  0  0  0  0  0  0  0  0
   -8.1886    9.2509   -7.6679 C   0  0  0  0  0  0  0  0  0  0  0  0
   -6.4696    9.5184   -7.2735 S   0  0  0  0  0  0  0  0  0  0  0  0
   -5.7382    9.8197   -8.4910 O   0  0  0  0  0  0  0  0  0  0  0  0
   -6.4001   10.4220   -6.1384 O   0  0  0  0  0  0  0  0  0  0  0  0
   -5.9624    7.9182   -6.7026 C   0  0  0  0  0  0  0  0  0  0  0  0
   -6.1729    6.8687   -7.7771 C   0  0  0  0  0  0  0  0  0  0  0  0
   -7.8212    5.6992  -10.5392 C   0  0  0  0  0  0  0  0  0  0  0  0
   -8.6135    4.1969   -7.1030 C   0  0  0  0  0  0  0  0  0  0  0  0
   -8.9358    2.7563   -7.0191 N   0  0  0  0  0  0  0  0  0  0  0  0
   -9.0908    2.2648   -8.4159 C   0  0  0  0  0  0  0  0  0  0  0  0
   -6.7401    4.7455  -15.6211 C   0  0  0  0  0  0  0  0  0  0  0  0
   -5.4096    5.0087  -15.0034 C   0  0  0  0  0  0  0  0  0  0  0  0
   -4.8564    6.1092  -15.9873 C   0  0  1  0  0  0  0  0  0  0  0  0
   -3.3175    5.9983  -15.9508 C   0  0  0  0  0  0  0  0  0  0  0  0
   -2.6218    7.3556  -16.0766 C   0  0  0  0  0  0  0  0  0  0  0  0
   -3.5068    8.4061  -16.7408 C   0  0  2  0  0  0  0  0  0  0  0  0
   -2.8057    9.6412  -16.7401 O   0  0  0  0  0  0  0  0  0  0  0  0
   -3.4125   10.6096  -17.5856 C   0  0  0  0  0  0  0  0  0  0  0  0
   -4.7956    8.5788  -16.0695 N   0  0  0  0  0  0  0  0  0  0  0  0
   -5.2403    7.3982  -15.3490 N   0  0  0  0  0  0  0  0  0  0  0  0
  1  2  1  0
  2  3  1  0
  3  4  1  0
  4  5  1  0
  5  6  2  0
  6  7  1  0
  7  8  1  0
  7  9  2  0
  9 10  1  0
 10 11  1  0
 11 12  2  0
 11 13  1  0
 13 14  1  0
 14 15  2  0
 15 16  1  0
 16 17  2  0
 17 18  1  0
 18 19  1  0
 19 20  2  0
 20 21  1  0
 21 22  1  0
 22 23  2  0
 22 24  2  0
 22 25  1  0
 25 26  1  0
 18 27  2  0
 17 28  1  0
 28 29  1  0
 29 30  1  0
 10 31  2  0
 31 32  1  0
 33 32  1  1
 33 34  1  0
 34 35  1  0
 35 36  1  0
 36 37  1  1
 37 38  1  0
 36 39  1  0
 39 40  1  0
 33  4  1  0
 31  5  1  0
 40 33  1  0
 27 14  1  0
 30 16  1  0
 26 19  1  0
M  END
>  <smiles>  (1069) 
C107065-P163

>  <fragmenstein_outcome>  (1069) 
acceptable

>  <inchikey>  (1069) 
FKKDKFDUUPQYMN-UHFFFAOYSA-N

>  <fragmenstein_mode>  (1069) 
expansion

>  <HIPPO Pose ID>  (1069) 
20243

>  <Energy>  (1069) 
72.930923

>  <fragmenstein_error>  (1069) 


>  <tags>  (1069) 
{'openbind_xx01zvns2b_c1_fragmenstein', 'fragmenstein_placed'}

>  <ref_pdb>  (1069) 
1

>  <scratch_subdir>  (1069) 
/opt/xchem-fragalysis-2/maxwin/BulkDock/SCRATCH/511027/C107065-P163

>  <alias>  (1069) 
CNCN1c2cc(F)cc(C(=O)Nc3cc4c(c(C5=CCS(=O)(=O)CC5)c3)CNC4)c2C[C@@]12CC[C@H](OC)NN2

>  <HIPPO Compound ID>  (1069) 
107065

>  <fragmenstein_runtime>  (1069) 
6.457551

$$$$
CC(C)Nn1ncc2c(C(=O)Nc3cc4c(c(C5=CCS(=O)(=O)CC5)c3)CNC4)cc(F)cc21
     RDKit          3D

 34 38  0  0  0  0  0  0  0  0999 V2000
   -4.1322    7.1467  -20.8472 C   0  0  0  0  0  0  0  0  0  0  0  0
   -4.3244    6.4866  -19.4787 C   0  0  0  0  0  0  0  0  0  0  0  0
   -4.4263    4.9748  -19.6520 C   0  0  0  0  0  0  0  0  0  0  0  0
   -5.5260    7.0605  -18.8628 N   0  0  0  0  0  0  0  0  0  0  0  0
   -5.6896    6.6315  -17.5266 N   0  0  0  0  0  0  0  0  0  0  0  0
   -4.9825    7.1850  -16.5299 N   0  0  0  0  0  0  0  0  0  0  0  0
   -5.5963    6.7593  -15.4262 C   0  0  0  0  0  0  0  0  0  0  0  0
   -6.7044    5.9276  -15.7022 C   0  0  0  0  0  0  0  0  0  0  0  0
   -7.7199    5.3027  -14.9453 C   0  0  0  0  0  0  0  0  0  0  0  0
   -7.8040    5.6418  -13.5006 C   0  0  0  0  0  0  0  0  0  0  0  0
   -7.5476    6.7435  -13.2097 O   0  0  0  0  0  0  0  0  0  0  0  0
   -8.2105    4.4420  -12.6173 N   0  0  0  0  0  0  0  0  0  0  0  0
   -8.2919    4.3249  -11.2294 C   0  0  0  0  0  0  0  0  0  0  0  0
   -8.6259    3.1023  -10.6589 C   0  0  0  0  0  0  0  0  0  0  0  0
   -8.7648    3.0475   -9.2811 C   0  0  0  0  0  0  0  0  0  0  0  0
   -8.5678    4.1684   -8.4671 C   0  0  0  0  0  0  0  0  0  0  0  0
   -8.1847    5.3899   -9.0063 C   0  0  0  0  0  0  0  0  0  0  0  0
   -7.8932    6.5941   -8.1911 C   0  0  0  0  0  0  0  0  0  0  0  0
   -8.4254    7.7822   -8.5457 C   0  0  0  0  0  0  0  0  0  0  0  0
   -8.2230    9.1153   -7.8799 C   0  0  0  0  0  0  0  0  0  0  0  0
   -7.5287    8.9399   -6.2484 S   0  0  0  0  0  0  0  0  0  0  0  0
   -8.5270    8.4050   -5.3382 O   0  0  0  0  0  0  0  0  0  0  0  0
   -6.8186   10.1633   -5.9189 O   0  0  0  0  0  0  0  0  0  0  0  0
   -6.3094    7.6832   -6.5241 C   0  0  0  0  0  0  0  0  0  0  0  0
   -6.9710    6.4057   -7.0077 C   0  0  0  0  0  0  0  0  0  0  0  0
   -8.0547    5.4441  -10.4082 C   0  0  0  0  0  0  0  0  0  0  0  0
   -8.8676    3.7734   -7.0548 C   0  0  0  0  0  0  0  0  0  0  0  0
   -9.5411    2.4592   -7.1320 N   0  0  0  0  0  0  0  0  0  0  0  0
   -9.1200    1.8761   -8.4266 C   0  0  0  0  0  0  0  0  0  0  0  0
   -8.6891    4.5377  -15.6091 C   0  0  0  0  0  0  0  0  0  0  0  0
   -8.6556    4.4275  -16.9978 C   0  0  0  0  0  0  0  0  0  0  0  0
   -9.6226    3.7350  -17.6196 F   0  0  0  0  0  0  0  0  0  0  0  0
   -7.6805    5.0620  -17.7696 C   0  0  0  0  0  0  0  0  0  0  0  0
   -6.7153    5.8196  -17.0895 C   0  0  0  0  0  0  0  0  0  0  0  0
  1  2  1  0
  2  3  1  0
  2  4  1  0
  4  5  1  0
  5  6  1  0
  6  7  2  0
  7  8  1  0
  8  9  2  0
  9 10  1  0
 10 11  2  0
 10 12  1  0
 12 13  1  0
 13 14  2  0
 14 15  1  0
 15 16  2  0
 16 17  1  0
 17 18  1  0
 18 19  2  0
 19 20  1  0
 20 21  1  0
 21 22  2  0
 21 23  2  0
 21 24  1  0
 24 25  1  0
 17 26  2  0
 16 27  1  0
 27 28  1  0
 28 29  1  0
  9 30  1  0
 30 31  2  0
 31 32  1  0
 31 33  1  0
 33 34  2  0
 34  5  1  0
 34  8  1  0
 26 13  1  0
 29 15  1  0
 25 18  1  0
M  END
>  <smiles>  (1070) 
C106889-P163

>  <fragmenstein_outcome>  (1070) 
acceptable

>  <inchikey>  (1070) 
JNHQQARTGCWJKS-UHFFFAOYSA-N

>  <fragmenstein_mode>  (1070) 
expansion

>  <HIPPO Pose ID>  (1070) 
20244

>  <Energy>  (1070) 
21.918995

>  <fragmenstein_error>  (1070) 


>  <tags>  (1070) 
{'openbind_xx01zvns2b_c1_fragmenstein', 'fragmenstein_placed'}

>  <ref_pdb>  (1070) 
1

>  <scratch_subdir>  (1070) 
/opt/xchem-fragalysis-2/maxwin/BulkDock/SCRATCH/511027/C106889-P163

>  <alias>  (1070) 
CC(C)Nn1ncc2c(C(=O)Nc3cc4c(c(C5=CCS(=O)(=O)CC5)c3)CNC4)cc(F)cc21

>  <HIPPO Compound ID>  (1070) 
71961

>  <fragmenstein_runtime>  (1070) 
5.112641

$$$$
O=C(Nc1cc2c(c(C3=CCS(O)(O)CC3)c1)CNC2)[C@H]1C[C@@H](F)C[C@@H]2[C@H]3COC[C@H]3C[C@@H]21
     RDKit          3D

 33 38  0  0  0  0  0  0  0  0999 V2000
   -7.3183    6.7065  -13.6595 O   0  0  0  0  0  0  0  0  0  0  0  0
   -7.5741    5.5870  -13.8841 C   0  0  0  0  0  0  0  0  0  0  0  0
   -8.0554    4.4509  -12.9321 N   0  0  0  0  0  0  0  0  0  0  0  0
   -8.2210    4.4399  -11.5489 C   0  0  0  0  0  0  0  0  0  0  0  0
   -8.4683    3.2393  -10.9123 C   0  0  0  0  0  0  0  0  0  0  0  0
   -8.5850    3.2604   -9.5349 C   0  0  0  0  0  0  0  0  0  0  0  0
   -8.4457    4.4362   -8.7753 C   0  0  0  0  0  0  0  0  0  0  0  0
   -8.1895    5.6783   -9.3795 C   0  0  0  0  0  0  0  0  0  0  0  0
   -7.9890    7.0180   -8.6740 C   0  0  0  0  0  0  0  0  0  0  0  0
   -8.1087    7.1710   -7.3328 C   0  0  0  0  0  0  0  0  0  0  0  0
   -7.9975    8.3891   -6.4570 C   0  0  0  0  0  0  0  0  0  0  0  0
   -7.9155    9.8258   -7.4636 S   0  0  0  0  0  0  0  0  0  0  0  0
   -7.0693   10.9503   -6.6895 O   0  0  0  0  0  0  0  0  0  0  0  0
   -9.3888   10.3798   -7.7849 O   0  0  0  0  0  0  0  0  0  0  0  0
   -7.1020    9.4895   -8.9769 C   0  0  0  0  0  0  0  0  0  0  0  0
   -7.6521    8.2092   -9.5911 C   0  0  0  0  0  0  0  0  0  0  0  0
   -8.1114    5.6264  -10.7973 C   0  0  0  0  0  0  0  0  0  0  0  0
   -8.6319    4.0432   -7.3409 C   0  0  0  0  0  0  0  0  0  0  0  0
   -8.9593    2.6041   -7.2861 N   0  0  0  0  0  0  0  0  0  0  0  0
   -8.8647    2.0854   -8.6622 C   0  0  0  0  0  0  0  0  0  0  0  0
   -7.4413    4.9709  -15.2952 C   0  0  1  0  0  0  0  0  0  0  0  0
   -8.8315    4.7449  -15.8913 C   0  0  0  0  0  0  0  0  0  0  0  0
   -8.8188    4.2985  -17.3509 C   0  0  1  0  0  0  0  0  0  0  0  0
   -9.7623    5.0152  -18.0182 F   0  0  0  0  0  0  0  0  0  0  0  0
   -7.4822    4.4661  -18.0604 C   0  0  0  0  0  0  0  0  0  0  0  0
   -6.7996    5.7740  -17.7016 C   0  0  2  0  0  0  0  0  0  0  0  0
   -5.3968    5.9042  -18.3424 C   0  0  1  0  0  0  0  0  0  0  0  0
   -5.2871    7.0708  -19.3035 C   0  0  0  0  0  0  0  0  0  0  0  0
   -5.1724    8.2411  -18.4805 O   0  0  0  0  0  0  0  0  0  0  0  0
   -4.4740    7.8582  -17.2849 C   0  0  0  0  0  0  0  0  0  0  0  0
   -4.4717    6.3321  -17.2129 C   0  0  1  0  0  0  0  0  0  0  0  0
   -5.0962    5.7490  -15.9552 C   0  0  0  0  0  0  0  0  0  0  0  0
   -6.6001    5.9123  -16.1825 C   0  0  2  0  0  0  0  0  0  0  0  0
  1  2  2  0
  2  3  1  0
  3  4  1  0
  4  5  2  0
  5  6  1  0
  6  7  2  0
  7  8  1  0
  8  9  1  0
  9 10  2  0
 10 11  1  0
 11 12  1  0
 12 13  1  0
 12 14  1  0
 12 15  1  0
 15 16  1  0
  8 17  2  0
  7 18  1  0
 18 19  1  0
 19 20  1  0
 21  2  1  1
 21 22  1  0
 22 23  1  0
 23 24  1  6
 23 25  1  0
 26 25  1  1
 26 27  1  0
 27 28  1  6
 28 29  1  0
 29 30  1  0
 31 30  1  1
 31 32  1  0
 33 32  1  6
 17  4  1  0
 33 21  1  0
 20  6  1  0
 33 26  1  0
 16  9  1  0
 31 27  1  0
M  END
>  <smiles>  (1071) 
C107072-P163

>  <fragmenstein_outcome>  (1071) 
acceptable

>  <inchikey>  (1071) 
RFJDXQUNMIWEPO-UHFFFAOYSA-N

>  <fragmenstein_mode>  (1071) 
expansion

>  <HIPPO Pose ID>  (1071) 
20245

>  <Energy>  (1071) 
105.656395

>  <fragmenstein_error>  (1071) 


>  <tags>  (1071) 
{'openbind_xx01zvns2b_c1_fragmenstein', 'fragmenstein_placed'}

>  <ref_pdb>  (1071) 
1

>  <scratch_subdir>  (1071) 
/opt/xchem-fragalysis-2/maxwin/BulkDock/SCRATCH/511027/C107072-P163

>  <alias>  (1071) 
O=C(Nc1cc2c(c(C3=CCS(O)(O)CC3)c1)CNC2)[C@H]1C[C@@H](F)C[C@@H]2[C@H]3COC[C@H]3C[C@@H]21

>  <HIPPO Compound ID>  (1071) 
91602

>  <fragmenstein_runtime>  (1071) 
9.746073

$$$$
NCc1c(F)cc([C@@H](N=O)Nc2cc3c(c(C4=CCS(=O)(=O)CC4)c2)CNC3)c2cn[nH]c12
     RDKit          3D

 33 37  0  0  0  0  0  0  0  0999 V2000
   -5.9606    5.7445  -19.6410 N   0  0  0  0  0  0  0  0  0  0  0  0
   -6.7176    4.6300  -19.0598 C   0  0  0  0  0  0  0  0  0  0  0  0
   -7.2548    4.9244  -17.6913 C   0  0  0  0  0  0  0  0  0  0  0  0
   -8.4487    4.3539  -17.2428 C   0  0  0  0  0  0  0  0  0  0  0  0
   -9.3156    3.8201  -18.1183 F   0  0  0  0  0  0  0  0  0  0  0  0
   -8.7208    4.2076  -15.8875 C   0  0  0  0  0  0  0  0  0  0  0  0
   -7.7964    4.6087  -14.8964 C   0  0  0  0  0  0  0  0  0  0  0  0
   -7.9166    4.0029  -13.5044 C   0  0  1  0  0  0  0  0  0  0  0  0
   -6.8092    2.9922  -13.3541 N   0  0  0  0  0  0  0  0  0  0  0  0
   -7.2168    1.8285  -13.4453 O   0  0  0  0  0  0  0  0  0  0  0  0
   -7.8412    5.0292  -12.4830 N   0  0  0  0  0  0  0  0  0  0  0  0
   -8.1178    4.7636  -11.1400 C   0  0  0  0  0  0  0  0  0  0  0  0
   -8.4924    3.5137  -10.6302 C   0  0  0  0  0  0  0  0  0  0  0  0
   -8.6813    3.3651   -9.2629 C   0  0  0  0  0  0  0  0  0  0  0  0
   -8.4663    4.4152   -8.3749 C   0  0  0  0  0  0  0  0  0  0  0  0
   -8.0118    5.6418   -8.8312 C   0  0  0  0  0  0  0  0  0  0  0  0
   -7.6095    6.7376   -7.9330 C   0  0  0  0  0  0  0  0  0  0  0  0
   -8.3423    7.8650   -7.8987 C   0  0  0  0  0  0  0  0  0  0  0  0
   -8.0597    9.1161   -7.1151 C   0  0  0  0  0  0  0  0  0  0  0  0
   -6.4273    9.1182   -6.3969 S   0  0  0  0  0  0  0  0  0  0  0  0
   -6.4788    9.8860   -5.1646 O   0  0  0  0  0  0  0  0  0  0  0  0
   -5.4533    9.4506   -7.4205 O   0  0  0  0  0  0  0  0  0  0  0  0
   -6.2005    7.4188   -5.9456 C   0  0  0  0  0  0  0  0  0  0  0  0
   -6.3359    6.5154   -7.1555 C   0  0  0  0  0  0  0  0  0  0  0  0
   -7.8684    5.8056  -10.2209 C   0  0  0  0  0  0  0  0  0  0  0  0
   -8.7749    3.9369   -6.9940 C   0  0  0  0  0  0  0  0  0  0  0  0
   -9.4606    2.6362   -7.1550 N   0  0  0  0  0  0  0  0  0  0  0  0
   -9.0676    2.1403   -8.4990 C   0  0  0  0  0  0  0  0  0  0  0  0
   -6.7102    5.4026  -15.3362 C   0  0  0  0  0  0  0  0  0  0  0  0
   -5.6103    6.0675  -14.7385 C   0  0  0  0  0  0  0  0  0  0  0  0
   -4.7970    6.6409  -15.6319 N   0  0  0  0  0  0  0  0  0  0  0  0
   -5.3161    6.2542  -16.8101 N   0  0  0  0  0  0  0  0  0  0  0  0
   -6.4800    5.5400  -16.6986 C   0  0  0  0  0  0  0  0  0  0  0  0
  1  2  1  0
  2  3  1  0
  3  4  2  0
  4  5  1  0
  4  6  1  0
  6  7  2  0
  7  8  1  0
  8  9  1  0
  9 10  2  0
  8 11  1  1
 11 12  1  0
 12 13  2  0
 13 14  1  0
 14 15  2  0
 15 16  1  0
 16 17  1  0
 17 18  2  0
 18 19  1  0
 19 20  1  0
 20 21  2  0
 20 22  2  0
 20 23  1  0
 23 24  1  0
 16 25  2  0
 15 26  1  0
 26 27  1  0
 27 28  1  0
  7 29  1  0
 29 30  1  0
 30 31  2  0
 31 32  1  0
 32 33  1  0
 33  3  1  0
 25 12  1  0
 33 29  2  0
 28 14  1  0
 24 17  1  0
M  END
>  <smiles>  (1072) 
C107074-P163

>  <fragmenstein_outcome>  (1072) 
acceptable

>  <inchikey>  (1072) 
IXASAMAESZFPJY-UHFFFAOYSA-N

>  <fragmenstein_mode>  (1072) 
expansion

>  <HIPPO Pose ID>  (1072) 
20246

>  <Energy>  (1072) 
70.899269

>  <fragmenstein_error>  (1072) 


>  <tags>  (1072) 
{'openbind_xx01zvns2b_c1_fragmenstein', 'fragmenstein_placed'}

>  <ref_pdb>  (1072) 
1

>  <scratch_subdir>  (1072) 
/opt/xchem-fragalysis-2/maxwin/BulkDock/SCRATCH/511027/C107074-P163

>  <alias>  (1072) 
NCc1c(F)cc([C@@H](N=O)Nc2cc3c(c(C4=CCS(=O)(=O)CC4)c2)CNC3)c2cn[nH]c12

>  <HIPPO Compound ID>  (1072) 
107074

>  <fragmenstein_runtime>  (1072) 
2.947012

$$$$
O=C(Nc1cc2c(c(C3=CCS(=O)(=O)CC3)c1)CNC2)[C@H]1C[C@@H](F)C[C@@H]2[C@@H]1CN1SCNCN21
     RDKit          3D

 34 39  0  0  0  0  0  0  0  0999 V2000
   -7.5400    2.2943  -13.5993 O   0  0  0  0  0  0  0  0  0  0  0  0
   -7.5693    3.4510  -13.7721 C   0  0  0  0  0  0  0  0  0  0  0  0
   -7.8367    4.6095  -12.7763 N   0  0  0  0  0  0  0  0  0  0  0  0
   -8.0221    4.5909  -11.3979 C   0  0  0  0  0  0  0  0  0  0  0  0
   -8.3810    3.4087  -10.7460 C   0  0  0  0  0  0  0  0  0  0  0  0
   -8.5643    3.4404   -9.3730 C   0  0  0  0  0  0  0  0  0  0  0  0
   -8.3305    4.5974   -8.6371 C   0  0  0  0  0  0  0  0  0  0  0  0
   -7.9464    5.7757   -9.2672 C   0  0  0  0  0  0  0  0  0  0  0  0
   -7.5957    6.9995   -8.5302 C   0  0  0  0  0  0  0  0  0  0  0  0
   -8.4786    8.0121   -8.4719 C   0  0  0  0  0  0  0  0  0  0  0  0
   -8.2687    9.3645   -7.8486 C   0  0  0  0  0  0  0  0  0  0  0  0
   -6.5504    9.6756   -7.4844 S   0  0  0  0  0  0  0  0  0  0  0  0
   -6.4832   10.5998   -6.3659 O   0  0  0  0  0  0  0  0  0  0  0  0
   -5.8429    9.9708   -8.7173 O   0  0  0  0  0  0  0  0  0  0  0  0
   -6.0012    8.0966   -6.8940 C   0  0  0  0  0  0  0  0  0  0  0  0
   -6.2043    7.0250   -7.9478 C   0  0  0  0  0  0  0  0  0  0  0  0
   -7.8377    5.7728  -10.6689 C   0  0  0  0  0  0  0  0  0  0  0  0
   -8.5846    4.3106   -7.1962 C   0  0  0  0  0  0  0  0  0  0  0  0
   -8.8927    2.8679   -7.0880 N   0  0  0  0  0  0  0  0  0  0  0  0
   -9.0427    2.3504   -8.4758 C   0  0  0  0  0  0  0  0  0  0  0  0
   -7.4313    4.0230  -15.1839 C   0  0  1  0  0  0  0  0  0  0  0  0
   -8.7804    4.3499  -15.8342 C   0  0  0  0  0  0  0  0  0  0  0  0
   -8.6304    4.5259  -17.3493 C   0  0  1  0  0  0  0  0  0  0  0  0
   -9.8022    4.9958  -17.8467 F   0  0  0  0  0  0  0  0  0  0  0  0
   -7.4903    5.4566  -17.7673 C   0  0  0  0  0  0  0  0  0  0  0  0
   -6.2255    5.1654  -16.9870 C   0  0  2  0  0  0  0  0  0  0  0  0
   -6.4903    5.1823  -15.4788 C   0  0  2  0  0  0  0  0  0  0  0  0
   -5.0848    5.1768  -14.9093 C   0  0  0  0  0  0  0  0  0  0  0  0
   -4.2599    5.7430  -15.9914 N   0  0  0  0  0  0  0  0  0  0  0  0
   -3.0442    6.8244  -15.7457 S   0  0  0  0  0  0  0  0  0  0  0  0
   -2.3951    6.8463  -17.4483 C   0  0  0  0  0  0  0  0  0  0  0  0
   -3.4498    7.1176  -18.4220 N   0  0  0  0  0  0  0  0  0  0  0  0
   -4.4549    6.0531  -18.3678 C   0  0  0  0  0  0  0  0  0  0  0  0
   -5.1508    6.1506  -17.0759 N   0  0  0  0  0  0  0  0  0  0  0  0
  1  2  2  0
  2  3  1  0
  3  4  1  0
  4  5  2  0
  5  6  1  0
  6  7  2  0
  7  8  1  0
  8  9  1  0
  9 10  2  0
 10 11  1  0
 11 12  1  0
 12 13  2  0
 12 14  2  0
 12 15  1  0
 15 16  1  0
  8 17  2  0
  7 18  1  0
 18 19  1  0
 19 20  1  0
 21  2  1  1
 21 22  1  0
 22 23  1  0
 23 24  1  1
 23 25  1  0
 26 25  1  6
 26 27  1  0
 27 28  1  1
 28 29  1  0
 29 30  1  0
 30 31  1  0
 31 32  1  0
 32 33  1  0
 33 34  1  0
 17  4  1  0
 27 21  1  0
 34 29  1  0
 20  6  1  0
 34 26  1  0
 16  9  1  0
M  END
>  <smiles>  (1073) 
C107076-P163

>  <fragmenstein_outcome>  (1073) 
acceptable

>  <inchikey>  (1073) 
OATWTGYMEFTUNK-UHFFFAOYSA-N

>  <fragmenstein_mode>  (1073) 
expansion

>  <HIPPO Pose ID>  (1073) 
20247

>  <Energy>  (1073) 
27.207789

>  <fragmenstein_error>  (1073) 


>  <tags>  (1073) 
{'openbind_xx01zvns2b_c1_fragmenstein', 'fragmenstein_placed'}

>  <ref_pdb>  (1073) 
1

>  <scratch_subdir>  (1073) 
/opt/xchem-fragalysis-2/maxwin/BulkDock/SCRATCH/511027/C107076-P163

>  <alias>  (1073) 
O=C(Nc1cc2c(c(C3=CCS(=O)(=O)CC3)c1)CNC2)[C@H]1C[C@@H](F)C[C@@H]2[C@@H]1CN1SCNCN21

>  <HIPPO Compound ID>  (1073) 
83187

>  <fragmenstein_runtime>  (1073) 
5.041559

$$$$
O=C(Nc1cc2c(c(C3=CCS(=O)(=O)CC3)c1)CNC2)c1cc(F)cc2c1cnn2NC1CNC1
     RDKit          3D

 35 40  0  0  0  0  0  0  0  0999 V2000
   -7.0267    6.3030  -13.6132 O   0  0  0  0  0  0  0  0  0  0  0  0
   -7.5238    5.2678  -13.8273 C   0  0  0  0  0  0  0  0  0  0  0  0
   -8.0635    4.1950  -12.8541 N   0  0  0  0  0  0  0  0  0  0  0  0
   -8.1867    4.2119  -11.4632 C   0  0  0  0  0  0  0  0  0  0  0  0
   -8.6022    3.0505  -10.8120 C   0  0  0  0  0  0  0  0  0  0  0  0
   -8.7252    3.0742   -9.4323 C   0  0  0  0  0  0  0  0  0  0  0  0
   -8.4599    4.2268   -8.6967 C   0  0  0  0  0  0  0  0  0  0  0  0
   -8.0145    5.3883   -9.3182 C   0  0  0  0  0  0  0  0  0  0  0  0
   -7.6924    6.6011   -8.5438 C   0  0  0  0  0  0  0  0  0  0  0  0
   -6.6829    6.5473   -7.6541 C   0  0  0  0  0  0  0  0  0  0  0  0
   -6.2960    7.6185   -6.6791 C   0  0  0  0  0  0  0  0  0  0  0  0
   -7.6358    8.7679   -6.4255 S   0  0  0  0  0  0  0  0  0  0  0  0
   -8.7056    8.0886   -5.7143 O   0  0  0  0  0  0  0  0  0  0  0  0
   -7.0649    9.9927   -5.8922 O   0  0  0  0  0  0  0  0  0  0  0  0
   -8.1384    9.0811   -8.0983 C   0  0  0  0  0  0  0  0  0  0  0  0
   -8.5756    7.8013   -8.7895 C   0  0  0  0  0  0  0  0  0  0  0  0
   -7.8853    5.3674  -10.7179 C   0  0  0  0  0  0  0  0  0  0  0  0
   -8.7287    3.9409   -7.2524 C   0  0  0  0  0  0  0  0  0  0  0  0
   -9.4296    2.6374   -7.2189 N   0  0  0  0  0  0  0  0  0  0  0  0
   -9.0889    1.9682   -8.4980 C   0  0  0  0  0  0  0  0  0  0  0  0
   -7.6379    4.8542  -15.2468 C   0  0  0  0  0  0  0  0  0  0  0  0
   -8.8552    4.4387  -15.7987 C   0  0  0  0  0  0  0  0  0  0  0  0
   -8.9672    4.2542  -17.1737 C   0  0  0  0  0  0  0  0  0  0  0  0
  -10.1425    3.8719  -17.6907 F   0  0  0  0  0  0  0  0  0  0  0  0
   -7.8983    4.4707  -18.0399 C   0  0  0  0  0  0  0  0  0  0  0  0
   -6.6733    4.8319  -17.4640 C   0  0  0  0  0  0  0  0  0  0  0  0
   -6.5214    5.0140  -16.0920 C   0  0  0  0  0  0  0  0  0  0  0  0
   -5.1615    5.3526  -15.9348 C   0  0  0  0  0  0  0  0  0  0  0  0
   -4.4960    5.3675  -17.0910 N   0  0  0  0  0  0  0  0  0  0  0  0
   -5.4416    5.1139  -18.0145 N   0  0  0  0  0  0  0  0  0  0  0  0
   -5.1925    5.1767  -19.4028 N   0  0  0  0  0  0  0  0  0  0  0  0
   -5.2964    6.5790  -19.8497 C   0  0  0  0  0  0  0  0  0  0  0  0
   -3.9252    7.2969  -19.7333 C   0  0  0  0  0  0  0  0  0  0  0  0
   -3.5827    6.7778  -21.0776 N   0  0  0  0  0  0  0  0  0  0  0  0
   -5.0329    6.6592  -21.3690 C   0  0  0  0  0  0  0  0  0  0  0  0
  1  2  2  0
  2  3  1  0
  3  4  1  0
  4  5  2  0
  5  6  1  0
  6  7  2  0
  7  8  1  0
  8  9  1  0
  9 10  2  0
 10 11  1  0
 11 12  1  0
 12 13  2  0
 12 14  2  0
 12 15  1  0
 15 16  1  0
  8 17  2  0
  7 18  1  0
 18 19  1  0
 19 20  1  0
  2 21  1  0
 21 22  2  0
 22 23  1  0
 23 24  1  0
 23 25  2  0
 25 26  1  0
 26 27  2  0
 27 28  1  0
 28 29  2  0
 29 30  1  0
 30 31  1  0
 31 32  1  0
 32 33  1  0
 33 34  1  0
 34 35  1  0
 17  4  1  0
 27 21  1  0
 35 32  1  0
 20  6  1  0
 30 26  1  0
 16  9  1  0
M  END
>  <smiles>  (1074) 
C107080-P163

>  <fragmenstein_outcome>  (1074) 
acceptable

>  <inchikey>  (1074) 
DNMCUFZGYUDPON-UHFFFAOYSA-N

>  <fragmenstein_mode>  (1074) 
expansion

>  <HIPPO Pose ID>  (1074) 
20252

>  <Energy>  (1074) 
61.605394

>  <fragmenstein_error>  (1074) 


>  <tags>  (1074) 
{'openbind_xx01zvns2b_c1_fragmenstein', 'fragmenstein_placed'}

>  <ref_pdb>  (1074) 
1

>  <scratch_subdir>  (1074) 
/opt/xchem-fragalysis-2/maxwin/BulkDock/SCRATCH/511027/C107080-P163

>  <alias>  (1074) 
O=C(Nc1cc2c(c(C3=CCS(=O)(=O)CC3)c1)CNC2)c1cc(F)cc2c1cnn2NC1CNC1

>  <HIPPO Compound ID>  (1074) 
102190

>  <fragmenstein_runtime>  (1074) 
6.803445

$$$$
CNCn1ncc2c(C(=O)Nc3cc(C4=CCS(=O)(=O)CC4)c4c(c3)[C@H](N)NC4)cc(F)cc21
     RDKit          3D

 34 38  0  0  0  0  0  0  0  0999 V2000
   -2.9156    5.1833  -19.4647 C   0  0  0  0  0  0  0  0  0  0  0  0
   -4.2602    4.8168  -19.8924 N   0  0  0  0  0  0  0  0  0  0  0  0
   -5.2807    5.7407  -19.3941 C   0  0  0  0  0  0  0  0  0  0  0  0
   -5.5729    5.5102  -17.9747 N   0  0  0  0  0  0  0  0  0  0  0  0
   -4.7355    6.0023  -17.0204 N   0  0  0  0  0  0  0  0  0  0  0  0
   -5.4165    5.8436  -15.8850 C   0  0  0  0  0  0  0  0  0  0  0  0
   -6.6930    5.2771  -16.0842 C   0  0  0  0  0  0  0  0  0  0  0  0
   -7.8080    4.9804  -15.2729 C   0  0  0  0  0  0  0  0  0  0  0  0
   -7.8180    5.4820  -13.8817 C   0  0  0  0  0  0  0  0  0  0  0  0
   -7.5219    6.6018  -13.7267 O   0  0  0  0  0  0  0  0  0  0  0  0
   -8.2333    4.4036  -12.8542 N   0  0  0  0  0  0  0  0  0  0  0  0
   -8.2778    4.4493  -11.4610 C   0  0  0  0  0  0  0  0  0  0  0  0
   -7.9401    5.6359  -10.7844 C   0  0  0  0  0  0  0  0  0  0  0  0
   -7.9084    5.6960   -9.3847 C   0  0  0  0  0  0  0  0  0  0  0  0
   -7.4519    6.9204   -8.7130 C   0  0  0  0  0  0  0  0  0  0  0  0
   -8.3356    7.8991   -8.4495 C   0  0  0  0  0  0  0  0  0  0  0  0
   -8.0608    9.2100   -7.7668 C   0  0  0  0  0  0  0  0  0  0  0  0
   -6.4380    9.2547   -7.0242 S   0  0  0  0  0  0  0  0  0  0  0  0
   -6.4496    8.4787   -5.7957 O   0  0  0  0  0  0  0  0  0  0  0  0
   -5.9808   10.6331   -7.0080 O   0  0  0  0  0  0  0  0  0  0  0  0
   -5.4520    8.3828   -8.2118 C   0  0  0  0  0  0  0  0  0  0  0  0
   -5.9767    6.9728   -8.4048 C   0  0  0  0  0  0  0  0  0  0  0  0
   -8.2441    4.5504   -8.6845 C   0  0  0  0  0  0  0  0  0  0  0  0
   -8.5769    3.3726   -9.3508 C   0  0  0  0  0  0  0  0  0  0  0  0
   -8.6063    3.3032  -10.7383 C   0  0  0  0  0  0  0  0  0  0  0  0
   -8.7326    2.2807   -8.3517 C   0  0  2  0  0  0  0  0  0  0  0  0
   -9.9966    1.6352   -8.3499 N   0  0  0  0  0  0  0  0  0  0  0  0
   -8.7332    2.9144   -7.0339 N   0  0  0  0  0  0  0  0  0  0  0  0
   -8.2698    4.3033   -7.2157 C   0  0  0  0  0  0  0  0  0  0  0  0
   -8.9409    4.3989  -15.8468 C   0  0  0  0  0  0  0  0  0  0  0  0
   -8.9793    4.1791  -17.2174 C   0  0  0  0  0  0  0  0  0  0  0  0
  -10.0866    3.6636  -17.7673 F   0  0  0  0  0  0  0  0  0  0  0  0
   -7.9116    4.5031  -18.0528 C   0  0  0  0  0  0  0  0  0  0  0  0
   -6.7658    5.0454  -17.4564 C   0  0  0  0  0  0  0  0  0  0  0  0
  1  2  1  0
  2  3  1  0
  3  4  1  0
  4  5  1  0
  5  6  2  0
  6  7  1  0
  7  8  2  0
  8  9  1  0
  9 10  2  0
  9 11  1  0
 11 12  1  0
 12 13  2  0
 13 14  1  0
 14 15  1  0
 15 16  2  0
 16 17  1  0
 17 18  1  0
 18 19  2  0
 18 20  2  0
 18 21  1  0
 21 22  1  0
 14 23  2  0
 23 24  1  0
 24 25  2  0
 24 26  1  0
 26 27  1  6
 26 28  1  0
 28 29  1  0
  8 30  1  0
 30 31  2  0
 31 32  1  0
 31 33  1  0
 33 34  2  0
 34  4  1  0
 34  7  1  0
 25 12  1  0
 22 15  1  0
 29 23  1  0
M  END
>  <smiles>  (1075) 
C107083-P163

>  <fragmenstein_outcome>  (1075) 
acceptable

>  <inchikey>  (1075) 
VHBLZEBMMVEQOL-UHFFFAOYSA-N

>  <fragmenstein_mode>  (1075) 
expansion

>  <HIPPO Pose ID>  (1075) 
20255

>  <Energy>  (1075) 
34.761914

>  <fragmenstein_error>  (1075) 


>  <tags>  (1075) 
{'openbind_xx01zvns2b_c1_fragmenstein', 'fragmenstein_placed'}

>  <ref_pdb>  (1075) 
1

>  <scratch_subdir>  (1075) 
/opt/xchem-fragalysis-2/maxwin/BulkDock/SCRATCH/511027/C107083-P163

>  <alias>  (1075) 
CNCn1ncc2c(C(=O)Nc3cc(C4=CCS(=O)(=O)CC4)c4c(c3)[C@H](N)NC4)cc(F)cc21

>  <HIPPO Compound ID>  (1075) 
98860

>  <fragmenstein_runtime>  (1075) 
4.445976

$$$$
CC(C)(c1nc2c(C(Nc3ccc4c(c3)CNC4)=C(F)F)cc(F)cc2n1N)S(C)(=O)=O
     RDKit          3D

 32 35  0  0  0  0  0  0  0  0999 V2000
   -3.5316    8.0603  -15.1379 C   0  0  0  0  0  0  0  0  0  0  0  0
   -3.6130    7.2050  -16.4200 C   0  0  0  0  0  0  0  0  0  0  0  0
   -3.4003    8.1579  -17.6067 C   0  0  0  0  0  0  0  0  0  0  0  0
   -4.9173    6.4447  -16.4500 C   0  0  0  0  0  0  0  0  0  0  0  0
   -5.5771    6.0688  -15.3657 N   0  0  0  0  0  0  0  0  0  0  0  0
   -6.6895    5.3902  -15.8084 C   0  0  0  0  0  0  0  0  0  0  0  0
   -7.6896    4.7098  -15.0821 C   0  0  0  0  0  0  0  0  0  0  0  0
   -7.4557    4.4102  -13.6516 C   0  0  0  0  0  0  0  0  0  0  0  0
   -8.3917    4.9463  -12.7740 N   0  0  0  0  0  0  0  0  0  0  0  0
   -8.3909    4.7518  -11.3726 C   0  0  0  0  0  0  0  0  0  0  0  0
   -8.1467    5.8486  -10.5199 C   0  0  0  0  0  0  0  0  0  0  0  0
   -8.1745    5.7064   -9.1292 C   0  0  0  0  0  0  0  0  0  0  0  0
   -8.4525    4.4574   -8.6050 C   0  0  0  0  0  0  0  0  0  0  0  0
   -8.6673    3.3641   -9.4327 C   0  0  0  0  0  0  0  0  0  0  0  0
   -8.6169    3.4854  -10.8140 C   0  0  0  0  0  0  0  0  0  0  0  0
   -8.9685    2.1609   -8.6071 C   0  0  0  0  0  0  0  0  0  0  0  0
   -8.9698    2.6137   -7.1877 N   0  0  0  0  0  0  0  0  0  0  0  0
   -8.6027    4.0453   -7.1828 C   0  0  0  0  0  0  0  0  0  0  0  0
   -6.3695    3.6540  -13.3877 C   0  0  0  0  0  0  0  0  0  0  0  0
   -5.5678    3.2254  -14.3904 F   0  0  0  0  0  0  0  0  0  0  0  0
   -6.0221    3.3383  -12.1236 F   0  0  0  0  0  0  0  0  0  0  0  0
   -8.8052    4.2273  -15.7817 C   0  0  0  0  0  0  0  0  0  0  0  0
   -8.8589    4.3038  -17.1687 C   0  0  0  0  0  0  0  0  0  0  0  0
   -9.9153    3.7884  -17.8132 F   0  0  0  0  0  0  0  0  0  0  0  0
   -7.8172    4.8499  -17.9138 C   0  0  0  0  0  0  0  0  0  0  0  0
   -6.7461    5.3985  -17.1977 C   0  0  0  0  0  0  0  0  0  0  0  0
   -5.5582    5.9686  -17.5785 N   0  0  0  0  0  0  0  0  0  0  0  0
   -5.0874    6.0185  -18.9075 N   0  0  0  0  0  0  0  0  0  0  0  0
   -2.2944    5.9411  -16.4208 S   0  0  0  0  0  0  0  0  0  0  0  0
   -2.5474    4.9565  -14.9567 C   0  0  0  0  0  0  0  0  0  0  0  0
   -2.4745    5.0602  -17.5648 O   0  0  0  0  0  0  0  0  0  0  0  0
   -1.0214    6.6230  -16.2481 O   0  0  0  0  0  0  0  0  0  0  0  0
  1  2  1  0
  2  3  1  0
  2  4  1  0
  4  5  2  0
  5  6  1  0
  6  7  2  0
  7  8  1  0
  8  9  1  0
  9 10  1  0
 10 11  2  0
 11 12  1  0
 12 13  2  0
 13 14  1  0
 14 15  2  0
 14 16  1  0
 16 17  1  0
 17 18  1  0
  8 19  2  3
 19 20  1  0
 19 21  1  0
  7 22  1  0
 22 23  2  0
 23 24  1  0
 23 25  1  0
 25 26  2  0
 26 27  1  0
 27 28  1  0
  2 29  1  0
 29 30  1  0
 29 31  2  0
 29 32  2  0
 27  4  1  0
 26  6  1  0
 15 10  1  0
 18 13  1  0
M  END
>  <smiles>  (1076) 
C107085-P163

>  <fragmenstein_outcome>  (1076) 
acceptable

>  <inchikey>  (1076) 
WOYRJSWIDINWII-UHFFFAOYSA-N

>  <fragmenstein_mode>  (1076) 
expansion

>  <HIPPO Pose ID>  (1076) 
20257

>  <Energy>  (1076) 
74.826155

>  <fragmenstein_error>  (1076) 


>  <tags>  (1076) 
{'openbind_xx01zvns2b_c1_fragmenstein', 'fragmenstein_placed'}

>  <ref_pdb>  (1076) 
1

>  <scratch_subdir>  (1076) 
/opt/xchem-fragalysis-2/maxwin/BulkDock/SCRATCH/511027/C107085-P163

>  <alias>  (1076) 
CC(C)(c1nc2c(C(Nc3ccc4c(c3)CNC4)=C(F)F)cc(F)cc2n1N)S(C)(=O)=O

>  <HIPPO Compound ID>  (1076) 
106956

>  <fragmenstein_runtime>  (1076) 
2.752511

$$$$
CC[C@@](C)(c1nc2cc(F)cc(C(=O)Nc3ccc4c(c3)CNC4)c2[nH]1)S(C)(=O)=O
     RDKit          3D

 30 33  0  0  0  0  0  0  0  0999 V2000
   -2.2453    5.4365  -14.8383 C   0  0  0  0  0  0  0  0  0  0  0  0
   -2.4391    6.7039  -15.6626 C   0  0  0  0  0  0  0  0  0  0  0  0
   -3.7414    7.5122  -15.4380 C   0  0  1  0  0  0  0  0  0  0  0  0
   -3.7038    8.7423  -16.3754 C   0  0  0  0  0  0  0  0  0  0  0  0
   -4.9690    6.6798  -15.7654 C   0  0  0  0  0  0  0  0  0  0  0  0
   -5.5827    6.6366  -16.9352 N   0  0  0  0  0  0  0  0  0  0  0  0
   -6.6297    5.7590  -16.7882 C   0  0  0  0  0  0  0  0  0  0  0  0
   -7.5953    5.3525  -17.7201 C   0  0  0  0  0  0  0  0  0  0  0  0
   -8.6045    4.4919  -17.2908 C   0  0  0  0  0  0  0  0  0  0  0  0
   -9.5701    4.1190  -18.1436 F   0  0  0  0  0  0  0  0  0  0  0  0
   -8.6399    4.0089  -15.9919 C   0  0  0  0  0  0  0  0  0  0  0  0
   -7.6438    4.3486  -15.0748 C   0  0  0  0  0  0  0  0  0  0  0  0
   -7.6490    3.7135  -13.7416 C   0  0  0  0  0  0  0  0  0  0  0  0
   -7.5547    2.5530  -13.6675 O   0  0  0  0  0  0  0  0  0  0  0  0
   -7.8304    4.7761  -12.6353 N   0  0  0  0  0  0  0  0  0  0  0  0
   -8.0220    4.6301  -11.2641 C   0  0  0  0  0  0  0  0  0  0  0  0
   -7.9481    5.7742  -10.4515 C   0  0  0  0  0  0  0  0  0  0  0  0
   -8.1473    5.6825   -9.0699 C   0  0  0  0  0  0  0  0  0  0  0  0
   -8.4491    4.4439   -8.5315 C   0  0  0  0  0  0  0  0  0  0  0  0
   -8.5563    3.3198   -9.3392 C   0  0  0  0  0  0  0  0  0  0  0  0
   -8.3261    3.3871  -10.7045 C   0  0  0  0  0  0  0  0  0  0  0  0
   -8.9739    2.1479   -8.5193 C   0  0  0  0  0  0  0  0  0  0  0  0
   -8.9832    2.6118   -7.1024 N   0  0  0  0  0  0  0  0  0  0  0  0
   -8.7326    4.0689   -7.1188 C   0  0  0  0  0  0  0  0  0  0  0  0
   -6.6655    5.2541  -15.4923 C   0  0  0  0  0  0  0  0  0  0  0  0
   -5.5769    5.8132  -14.8776 N   0  0  0  0  0  0  0  0  0  0  0  0
   -3.9363    8.1143  -13.7136 S   0  0  0  0  0  0  0  0  0  0  0  0
   -2.3721    8.8336  -13.2641 C   0  0  0  0  0  0  0  0  0  0  0  0
   -4.1465    6.9691  -12.8424 O   0  0  0  0  0  0  0  0  0  0  0  0
   -4.9114    9.1908  -13.7000 O   0  0  0  0  0  0  0  0  0  0  0  0
  1  2  1  0
  2  3  1  0
  3  4  1  6
  3  5  1  0
  5  6  2  0
  6  7  1  0
  7  8  2  0
  8  9  1  0
  9 10  1  0
  9 11  2  0
 11 12  1  0
 12 13  1  0
 13 14  2  0
 13 15  1  0
 15 16  1  0
 16 17  2  0
 17 18  1  0
 18 19  2  0
 19 20  1  0
 20 21  2  0
 20 22  1  0
 22 23  1  0
 23 24  1  0
 12 25  2  0
 25 26  1  0
  3 27  1  0
 27 28  1  0
 27 29  2  0
 27 30  2  0
 26  5  1  0
 25  7  1  0
 21 16  1  0
 24 19  1  0
M  END
>  <smiles>  (1077) 
C107088-P163

>  <fragmenstein_outcome>  (1077) 
acceptable

>  <inchikey>  (1077) 
WXUXYBSLFGFXRQ-UHFFFAOYSA-N

>  <fragmenstein_mode>  (1077) 
expansion

>  <HIPPO Pose ID>  (1077) 
20260

>  <Energy>  (1077) 
47.013455

>  <fragmenstein_error>  (1077) 


>  <tags>  (1077) 
{'openbind_xx01zvns2b_c1_fragmenstein', 'fragmenstein_placed'}

>  <ref_pdb>  (1077) 
1

>  <scratch_subdir>  (1077) 
/opt/xchem-fragalysis-2/maxwin/BulkDock/SCRATCH/511027/C107088-P163

>  <alias>  (1077) 
CC[C@@](C)(c1nc2cc(F)cc(C(=O)Nc3ccc4c(c3)CNC4)c2[nH]1)S(C)(=O)=O

>  <HIPPO Compound ID>  (1077) 
107088

>  <fragmenstein_runtime>  (1077) 
3.131738

$$$$
C[C@@]1(CO)C[C@@](C)(S(C)(=O)=O)c2nc3c(C(=O)Nc4ccc5c(c4)CNC5)cc(F)cc3n2N1
     RDKit          3D

 34 38  0  0  0  0  0  0  0  0999 V2000
   -4.6375    7.0926  -21.1997 C   0  0  0  0  0  0  0  0  0  0  0  0
   -4.6434    6.4788  -19.7833 C   0  0  1  0  0  0  0  0  0  0  0  0
   -4.3324    4.9700  -19.8953 C   0  0  0  0  0  0  0  0  0  0  0  0
   -3.0570    4.7523  -20.4889 O   0  0  0  0  0  0  0  0  0  0  0  0
   -3.6327    7.2615  -18.9058 C   0  0  0  0  0  0  0  0  0  0  0  0
   -3.6897    6.9666  -17.3703 C   0  0  1  0  0  0  0  0  0  0  0  0
   -2.6496    5.8979  -16.9869 C   0  0  0  0  0  0  0  0  0  0  0  0
   -3.2630    8.5102  -16.4441 S   0  0  0  0  0  0  0  0  0  0  0  0
   -4.7806    9.4183  -16.2333 C   0  0  0  0  0  0  0  0  0  0  0  0
   -2.7703    8.1791  -15.1194 O   0  0  0  0  0  0  0  0  0  0  0  0
   -2.4231    9.3288  -17.3079 O   0  0  0  0  0  0  0  0  0  0  0  0
   -5.0631    6.5379  -16.9406 C   0  0  0  0  0  0  0  0  0  0  0  0
   -5.5301    6.2633  -15.7382 N   0  0  0  0  0  0  0  0  0  0  0  0
   -6.7687    5.6736  -15.9408 C   0  0  0  0  0  0  0  0  0  0  0  0
   -7.7440    5.1923  -15.0447 C   0  0  0  0  0  0  0  0  0  0  0  0
   -7.6821    5.5987  -13.6217 C   0  0  0  0  0  0  0  0  0  0  0  0
   -7.4023    6.7099  -13.3941 O   0  0  0  0  0  0  0  0  0  0  0  0
   -8.1115    4.4572  -12.6692 N   0  0  0  0  0  0  0  0  0  0  0  0
   -8.1913    4.4208  -11.2782 C   0  0  0  0  0  0  0  0  0  0  0  0
   -7.9426    5.5728  -10.5127 C   0  0  0  0  0  0  0  0  0  0  0  0
   -8.0611    5.5498   -9.1200 C   0  0  0  0  0  0  0  0  0  0  0  0
   -8.4341    4.3640   -8.5169 C   0  0  0  0  0  0  0  0  0  0  0  0
   -8.6822    3.2242   -9.2711 C   0  0  0  0  0  0  0  0  0  0  0  0
   -8.5597    3.2285  -10.6522 C   0  0  0  0  0  0  0  0  0  0  0  0
   -9.1123    2.1171   -8.3730 C   0  0  0  0  0  0  0  0  0  0  0  0
   -8.9763    2.6275   -6.9812 N   0  0  0  0  0  0  0  0  0  0  0  0
   -8.6756    4.0728   -7.0777 C   0  0  0  0  0  0  0  0  0  0  0  0
   -8.8590    4.5050  -15.5580 C   0  0  0  0  0  0  0  0  0  0  0  0
   -9.0217    4.3533  -16.9311 C   0  0  0  0  0  0  0  0  0  0  0  0
  -10.0980    3.7198  -17.4134 F   0  0  0  0  0  0  0  0  0  0  0  0
   -8.1290    4.9002  -17.8401 C   0  0  0  0  0  0  0  0  0  0  0  0
   -7.0276    5.5684  -17.3058 C   0  0  0  0  0  0  0  0  0  0  0  0
   -6.0284    6.2919  -17.8787 N   0  0  0  0  0  0  0  0  0  0  0  0
   -5.9790    6.7205  -19.2239 N   0  0  0  0  0  0  0  0  0  0  0  0
  2  1  1  6
  2  3  1  0
  3  4  1  0
  2  5  1  0
  5  6  1  0
  6  7  1  6
  6  8  1  0
  8  9  1  0
  8 10  2  0
  8 11  2  0
  6 12  1  0
 12 13  2  0
 13 14  1  0
 14 15  2  0
 15 16  1  0
 16 17  2  0
 16 18  1  0
 18 19  1  0
 19 20  2  0
 20 21  1  0
 21 22  2  0
 22 23  1  0
 23 24  2  0
 23 25  1  0
 25 26  1  0
 26 27  1  0
 15 28  1  0
 28 29  2  0
 29 30  1  0
 29 31  1  0
 31 32  2  0
 32 33  1  0
 33 34  1  0
 34  2  1  0
 33 12  1  0
 32 14  1  0
 24 19  1  0
 27 22  1  0
M  END
>  <smiles>  (1078) 
C107090-P163

>  <fragmenstein_outcome>  (1078) 
acceptable

>  <inchikey>  (1078) 
XUOMQQFWNAYWJC-UHFFFAOYSA-N

>  <fragmenstein_mode>  (1078) 
expansion

>  <HIPPO Pose ID>  (1078) 
20262

>  <Energy>  (1078) 
79.425909

>  <fragmenstein_error>  (1078) 


>  <tags>  (1078) 
{'openbind_xx01zvns2b_c1_fragmenstein', 'fragmenstein_placed'}

>  <ref_pdb>  (1078) 
1

>  <scratch_subdir>  (1078) 
/opt/xchem-fragalysis-2/maxwin/BulkDock/SCRATCH/511027/C107090-P163

>  <alias>  (1078) 
C[C@@]1(CO)C[C@@](C)(S(C)(=O)=O)c2nc3c(C(=O)Nc4ccc5c(c4)CNC5)cc(F)cc3n2N1

>  <HIPPO Compound ID>  (1078) 
107090

>  <fragmenstein_runtime>  (1078) 
6.256485

$$$$
CC(C)(c1nc2c(C(=O)Nc3ccc4c(c3)CNC4)cc(F)cc2n1CN)S(C)(=O)=O
     RDKit          3D

 31 34  0  0  0  0  0  0  0  0999 V2000
   -2.7695    7.7353  -16.2720 C   0  0  0  0  0  0  0  0  0  0  0  0
   -3.9819    7.6640  -15.3410 C   0  0  0  0  0  0  0  0  0  0  0  0
   -3.4723    7.2479  -13.9399 C   0  0  0  0  0  0  0  0  0  0  0  0
   -5.0719    6.6926  -15.7857 C   0  0  0  0  0  0  0  0  0  0  0  0
   -5.6762    5.8939  -14.9157 N   0  0  0  0  0  0  0  0  0  0  0  0
   -6.6969    5.2636  -15.5705 C   0  0  0  0  0  0  0  0  0  0  0  0
   -7.6628    4.3497  -15.1237 C   0  0  0  0  0  0  0  0  0  0  0  0
   -7.6493    3.7401  -13.7789 C   0  0  0  0  0  0  0  0  0  0  0  0
   -7.6574    2.5745  -13.7076 O   0  0  0  0  0  0  0  0  0  0  0  0
   -7.7285    4.8114  -12.6697 N   0  0  0  0  0  0  0  0  0  0  0  0
   -7.9231    4.6796  -11.2961 C   0  0  0  0  0  0  0  0  0  0  0  0
   -7.8164    5.8205  -10.4845 C   0  0  0  0  0  0  0  0  0  0  0  0
   -8.0354    5.7383   -9.1042 C   0  0  0  0  0  0  0  0  0  0  0  0
   -8.3821    4.5115   -8.5643 C   0  0  0  0  0  0  0  0  0  0  0  0
   -8.5210    3.3901   -9.3701 C   0  0  0  0  0  0  0  0  0  0  0  0
   -8.2808    3.4496  -10.7344 C   0  0  0  0  0  0  0  0  0  0  0  0
   -8.9841    2.2348   -8.5506 C   0  0  0  0  0  0  0  0  0  0  0  0
   -8.9526    2.6931   -7.1316 N   0  0  0  0  0  0  0  0  0  0  0  0
   -8.6881    4.1482   -7.1531 C   0  0  0  0  0  0  0  0  0  0  0  0
   -8.6861    3.9622  -15.9974 C   0  0  0  0  0  0  0  0  0  0  0  0
   -8.6884    4.3796  -17.3147 C   0  0  0  0  0  0  0  0  0  0  0  0
   -9.6692    3.9633  -18.1278 F   0  0  0  0  0  0  0  0  0  0  0  0
   -7.6849    5.2034  -17.8118 C   0  0  0  0  0  0  0  0  0  0  0  0
   -6.7157    5.6597  -16.9040 C   0  0  0  0  0  0  0  0  0  0  0  0
   -5.6211    6.4994  -17.0481 N   0  0  0  0  0  0  0  0  0  0  0  0
   -5.1916    6.9854  -18.3543 C   0  0  0  0  0  0  0  0  0  0  0  0
   -5.9808    8.1625  -18.6899 N   0  0  0  0  0  0  0  0  0  0  0  0
   -4.8095    9.3025  -15.2105 S   0  0  0  0  0  0  0  0  0  0  0  0
   -3.5623   10.4121  -14.5957 C   0  0  0  0  0  0  0  0  0  0  0  0
   -5.1413    9.7644  -16.5501 O   0  0  0  0  0  0  0  0  0  0  0  0
   -5.8540    9.2588  -14.2038 O   0  0  0  0  0  0  0  0  0  0  0  0
  1  2  1  0
  2  3  1  0
  2  4  1  0
  4  5  2  0
  5  6  1  0
  6  7  2  0
  7  8  1  0
  8  9  2  0
  8 10  1  0
 10 11  1  0
 11 12  2  0
 12 13  1  0
 13 14  2  0
 14 15  1  0
 15 16  2  0
 15 17  1  0
 17 18  1  0
 18 19  1  0
  7 20  1  0
 20 21  2  0
 21 22  1  0
 21 23  1  0
 23 24  2  0
 24 25  1  0
 25 26  1  0
 26 27  1  0
  2 28  1  0
 28 29  1  0
 28 30  2  0
 28 31  2  0
 25  4  1  0
 24  6  1  0
 16 11  1  0
 19 14  1  0
M  END
>  <smiles>  (1079) 
C107092-P163

>  <fragmenstein_outcome>  (1079) 
acceptable

>  <inchikey>  (1079) 
FZKOCFZSFCBORM-UHFFFAOYSA-N

>  <fragmenstein_mode>  (1079) 
expansion

>  <HIPPO Pose ID>  (1079) 
20263

>  <Energy>  (1079) 
80.911397

>  <fragmenstein_error>  (1079) 


>  <tags>  (1079) 
{'openbind_xx01zvns2b_c1_fragmenstein', 'fragmenstein_placed'}

>  <ref_pdb>  (1079) 
1

>  <scratch_subdir>  (1079) 
/opt/xchem-fragalysis-2/maxwin/BulkDock/SCRATCH/511027/C107092-P163

>  <alias>  (1079) 
CC(C)(c1nc2c(C(=O)Nc3ccc4c(c3)CNC4)cc(F)cc2n1CN)S(C)(=O)=O

>  <HIPPO Compound ID>  (1079) 
93807

>  <fragmenstein_runtime>  (1079) 
4.197227

$$$$
CC(=O)N[C@](O)(Nc1ccc2c(c1)CNC2)c1cc(F)cc2[nH]c(C(C)(C)S(C)(=O)=O)nc12
     RDKit          3D

 33 36  0  0  0  0  0  0  0  0999 V2000
   -4.5598    2.2842  -12.5073 C   0  0  0  0  0  0  0  0  0  0  0  0
   -5.1447    3.6741  -12.3959 C   0  0  0  0  0  0  0  0  0  0  0  0
   -4.7187    4.4959  -11.6883 O   0  0  0  0  0  0  0  0  0  0  0  0
   -6.3384    3.7164  -13.3728 N   0  0  0  0  0  0  0  0  0  0  0  0
   -7.3007    4.7331  -13.6095 C   0  0  2  0  0  0  0  0  0  0  0  0
   -6.7956    5.9817  -13.2211 O   0  0  0  0  0  0  0  0  0  0  0  0
   -8.4698    4.3693  -12.8260 N   0  0  0  0  0  0  0  0  0  0  0  0
   -8.4124    4.3918  -11.4167 C   0  0  0  0  0  0  0  0  0  0  0  0
   -8.1310    5.5677  -10.6924 C   0  0  0  0  0  0  0  0  0  0  0  0
   -8.1289    5.5902   -9.2920 C   0  0  0  0  0  0  0  0  0  0  0  0
   -8.4410    4.4260   -8.6185 C   0  0  0  0  0  0  0  0  0  0  0  0
   -8.7440    3.2650   -9.3118 C   0  0  0  0  0  0  0  0  0  0  0  0
   -8.7285    3.2273  -10.6981 C   0  0  0  0  0  0  0  0  0  0  0  0
   -9.1273    2.1938   -8.3517 C   0  0  0  0  0  0  0  0  0  0  0  0
   -8.9042    2.7513   -6.9899 N   0  0  0  0  0  0  0  0  0  0  0  0
   -8.5869    4.1872   -7.1574 C   0  0  0  0  0  0  0  0  0  0  0  0
   -7.6011    4.8082  -15.0964 C   0  0  0  0  0  0  0  0  0  0  0  0
   -8.8157    4.3558  -15.6729 C   0  0  0  0  0  0  0  0  0  0  0  0
   -9.0530    4.3962  -17.0464 C   0  0  0  0  0  0  0  0  0  0  0  0
  -10.1979    3.9028  -17.5375 F   0  0  0  0  0  0  0  0  0  0  0  0
   -8.1351    4.9374  -17.9299 C   0  0  0  0  0  0  0  0  0  0  0  0
   -6.9545    5.4042  -17.3685 C   0  0  0  0  0  0  0  0  0  0  0  0
   -5.8783    6.0317  -17.9328 N   0  0  0  0  0  0  0  0  0  0  0  0
   -4.8889    6.1248  -16.9828 C   0  0  0  0  0  0  0  0  0  0  0  0
   -3.4905    6.6391  -17.2230 C   0  0  0  0  0  0  0  0  0  0  0  0
   -2.4682    5.7455  -16.5034 C   0  0  0  0  0  0  0  0  0  0  0  0
   -3.3932    8.0704  -16.6603 C   0  0  0  0  0  0  0  0  0  0  0  0
   -3.1060    6.7141  -19.0078 S   0  0  0  0  0  0  0  0  0  0  0  0
   -2.9970    5.0254  -19.5535 C   0  0  0  0  0  0  0  0  0  0  0  0
   -1.7856    7.2968  -19.1725 O   0  0  0  0  0  0  0  0  0  0  0  0
   -4.2404    7.3142  -19.6947 O   0  0  0  0  0  0  0  0  0  0  0  0
   -5.3561    5.7361  -15.8098 N   0  0  0  0  0  0  0  0  0  0  0  0
   -6.6491    5.3103  -16.0170 C   0  0  0  0  0  0  0  0  0  0  0  0
  1  2  1  0
  2  3  2  0
  2  4  1  0
  4  5  1  0
  5  6  1  1
  5  7  1  0
  7  8  1  0
  8  9  2  0
  9 10  1  0
 10 11  2  0
 11 12  1  0
 12 13  2  0
 12 14  1  0
 14 15  1  0
 15 16  1  0
  5 17  1  0
 17 18  2  0
 18 19  1  0
 19 20  1  0
 19 21  2  0
 21 22  1  0
 22 23  1  0
 23 24  1  0
 24 25  1  0
 25 26  1  0
 25 27  1  0
 25 28  1  0
 28 29  1  0
 28 30  2  0
 28 31  2  0
 24 32  2  0
 32 33  1  0
 13  8  1  0
 33 17  1  0
 16 11  1  0
 33 22  2  0
M  END
>  <smiles>  (1080) 
C107106-P163

>  <fragmenstein_outcome>  (1080) 
acceptable

>  <inchikey>  (1080) 
FIAOKMUCDNOCIW-UHFFFAOYSA-N

>  <fragmenstein_mode>  (1080) 
expansion

>  <HIPPO Pose ID>  (1080) 
20268

>  <Energy>  (1080) 
-80.823402

>  <fragmenstein_error>  (1080) 


>  <tags>  (1080) 
{'openbind_xx01zvns2b_c1_fragmenstein', 'fragmenstein_placed'}

>  <ref_pdb>  (1080) 
1

>  <scratch_subdir>  (1080) 
/opt/xchem-fragalysis-2/maxwin/BulkDock/SCRATCH/511027/C107106-P163

>  <alias>  (1080) 
CC(=O)N[C@](O)(Nc1ccc2c(c1)CNC2)c1cc(F)cc2[nH]c(C(C)(C)S(C)(=O)=O)nc12

>  <HIPPO Compound ID>  (1080) 
83827

>  <fragmenstein_runtime>  (1080) 
4.689674

$$$$
CC1(C)[C@@H]2N(CCl)[C@H]3C[C@H](F)C[C@@H](C(=O)Nc4ccc5c(c4)CNC5)[C@H]3N2NN=[S@]1(C)=O
     RDKit          3D

 32 36  0  0  0  0  0  0  0  0999 V2000
   -2.9304    7.8839  -16.5988 C   0  0  0  0  0  0  0  0  0  0  0  0
   -3.5055    6.8518  -15.6141 C   0  0  0  0  0  0  0  0  0  0  0  0
   -2.3073    6.0287  -15.0745 C   0  0  0  0  0  0  0  0  0  0  0  0
   -4.5862    5.8388  -16.2099 C   0  0  2  0  0  0  0  0  0  0  0  0
   -5.3420    6.2861  -17.4180 N   0  0  0  0  0  0  0  0  0  0  0  0
   -4.9555    5.6244  -18.6763 C   0  0  0  0  0  0  0  0  0  0  0  0
   -3.3711    6.1527  -19.2488 Cl  0  0  0  0  0  0  0  0  0  0  0  0
   -6.7843    5.9987  -17.1137 C   0  0  1  0  0  0  0  0  0  0  0  0
   -7.3428    4.6554  -17.6468 C   0  0  0  0  0  0  0  0  0  0  0  0
   -8.6664    4.2402  -17.0289 C   0  0  2  0  0  0  0  0  0  0  0  0
   -9.6311    5.1071  -17.4197 F   0  0  0  0  0  0  0  0  0  0  0  0
   -8.5945    4.2336  -15.5110 C   0  0  0  0  0  0  0  0  0  0  0  0
   -8.1954    5.6156  -15.0190 C   0  0  1  0  0  0  0  0  0  0  0  0
   -8.3475    5.9851  -13.5354 C   0  0  0  0  0  0  0  0  0  0  0  0
   -8.4476    7.1129  -13.2355 O   0  0  0  0  0  0  0  0  0  0  0  0
   -8.3145    4.7046  -12.6494 N   0  0  0  0  0  0  0  0  0  0  0  0
   -8.3026    4.5641  -11.2648 C   0  0  0  0  0  0  0  0  0  0  0  0
   -8.1132    5.6862  -10.4407 C   0  0  0  0  0  0  0  0  0  0  0  0
   -8.1879    5.5754   -9.0504 C   0  0  0  0  0  0  0  0  0  0  0  0
   -8.4732    4.3356   -8.5103 C   0  0  0  0  0  0  0  0  0  0  0  0
   -8.6482    3.2219   -9.3222 C   0  0  0  0  0  0  0  0  0  0  0  0
   -8.5425    3.3083  -10.7029 C   0  0  0  0  0  0  0  0  0  0  0  0
   -9.0040    2.0443   -8.4817 C   0  0  0  0  0  0  0  0  0  0  0  0
   -8.9989    2.5133   -7.0696 N   0  0  0  0  0  0  0  0  0  0  0  0
   -8.6962    3.9607   -7.0876 C   0  0  0  0  0  0  0  0  0  0  0  0
   -6.8470    6.0994  -15.5810 C   0  0  1  0  0  0  0  0  0  0  0  0
   -5.6290    5.3313  -15.2646 N   0  0  0  0  0  0  0  0  0  0  0  0
   -5.2320    5.3631  -13.9020 N   0  0  0  0  0  0  0  0  0  0  0  0
   -5.0114    6.7003  -13.3906 N   0  0  0  0  0  0  0  0  0  0  0  0
   -4.2903    7.7710  -14.2401 S   0  0  1  0  0  0  0  0  0  0  0  0
   -2.9649    8.3864  -13.2154 C   0  0  0  0  0  0  0  0  0  0  0  0
   -4.9350    8.9482  -14.7983 O   0  0  0  0  0  0  0  0  0  0  0  0
  1  2  1  0
  2  3  1  0
  2  4  1  0
  4  5  1  6
  5  6  1  0
  6  7  1  0
  5  8  1  0
  8  9  1  1
  9 10  1  0
 10 11  1  1
 10 12  1  0
 12 13  1  0
 13 14  1  1
 14 15  2  0
 14 16  1  0
 16 17  1  0
 17 18  2  0
 18 19  1  0
 19 20  2  0
 20 21  1  0
 21 22  2  0
 21 23  1  0
 23 24  1  0
 24 25  1  0
 13 26  1  0
 26 27  1  1
 27 28  1  0
 28 29  1  0
 29 30  2  0
 30 31  1  1
 30 32  2  0
 30  2  1  0
 27  4  1  0
 26  8  1  0
 22 17  1  0
 25 20  1  0
M  END
>  <smiles>  (1081) 
C107115-P163

>  <fragmenstein_outcome>  (1081) 
acceptable

>  <inchikey>  (1081) 
MMYOIOZFGCYIFM-UHFFFAOYSA-N

>  <fragmenstein_mode>  (1081) 
expansion

>  <HIPPO Pose ID>  (1081) 
20272

>  <Energy>  (1081) 
46.863316

>  <fragmenstein_error>  (1081) 


>  <tags>  (1081) 
{'openbind_xx01zvns2b_c1_fragmenstein', 'fragmenstein_placed'}

>  <ref_pdb>  (1081) 
1

>  <scratch_subdir>  (1081) 
/opt/xchem-fragalysis-2/maxwin/BulkDock/SCRATCH/511027/C107115-P163

>  <alias>  (1081) 
CC1(C)[C@@H]2N(CCl)[C@H]3C[C@H](F)C[C@@H](C(=O)Nc4ccc5c(c4)CNC5)[C@H]3N2NN=[S@]1(C)=O

>  <HIPPO Compound ID>  (1081) 
77878

>  <fragmenstein_runtime>  (1081) 
5.355491

$$$$
Cc1cc(NC(=O)c2cc(F)cc3nc(C(C)(C)S(C)(=O)=O)[nH]c23)cc2c1CNC2
     RDKit          3D

 30 33  0  0  0  0  0  0  0  0999 V2000
   -8.0375    6.4467   -7.9137 C   0  0  0  0  0  0  0  0  0  0  0  0
   -8.2539    5.2693   -8.8105 C   0  0  0  0  0  0  0  0  0  0  0  0
   -8.0912    5.3768  -10.2028 C   0  0  0  0  0  0  0  0  0  0  0  0
   -8.2976    4.2741  -11.0512 C   0  0  0  0  0  0  0  0  0  0  0  0
   -8.1909    4.3954  -12.4357 N   0  0  0  0  0  0  0  0  0  0  0  0
   -7.6999    5.5738  -13.3046 C   0  0  0  0  0  0  0  0  0  0  0  0
   -7.3800    6.6560  -13.0023 O   0  0  0  0  0  0  0  0  0  0  0  0
   -7.6363    5.2214  -14.7441 C   0  0  0  0  0  0  0  0  0  0  0  0
   -8.6303    4.5009  -15.4114 C   0  0  0  0  0  0  0  0  0  0  0  0
   -8.5549    4.3140  -16.7905 C   0  0  0  0  0  0  0  0  0  0  0  0
   -9.5409    3.6416  -17.4026 F   0  0  0  0  0  0  0  0  0  0  0  0
   -7.5035    4.8241  -17.5564 C   0  0  0  0  0  0  0  0  0  0  0  0
   -6.5068    5.5533  -16.8959 C   0  0  0  0  0  0  0  0  0  0  0  0
   -5.4064    6.2108  -17.3940 N   0  0  0  0  0  0  0  0  0  0  0  0
   -4.7916    6.7496  -16.3547 C   0  0  0  0  0  0  0  0  0  0  0  0
   -3.5472    7.6132  -16.4042 C   0  0  0  0  0  0  0  0  0  0  0  0
   -3.9560    9.0906  -16.3149 C   0  0  0  0  0  0  0  0  0  0  0  0
   -2.7791    7.3659  -17.7120 C   0  0  0  0  0  0  0  0  0  0  0  0
   -2.5059    7.1423  -14.9735 S   0  0  0  0  0  0  0  0  0  0  0  0
   -1.1109    8.2457  -15.0030 C   0  0  0  0  0  0  0  0  0  0  0  0
   -1.9803    5.8065  -15.1854 O   0  0  0  0  0  0  0  0  0  0  0  0
   -3.2462    7.4439  -13.7589 O   0  0  0  0  0  0  0  0  0  0  0  0
   -5.4966    6.4900  -15.2003 N   0  0  0  0  0  0  0  0  0  0  0  0
   -6.5911    5.7286  -15.5234 C   0  0  0  0  0  0  0  0  0  0  0  0
   -8.6380    3.0326  -10.5173 C   0  0  0  0  0  0  0  0  0  0  0  0
   -8.8101    2.9365   -9.1480 C   0  0  0  0  0  0  0  0  0  0  0  0
   -8.6430    4.0358   -8.3082 C   0  0  0  0  0  0  0  0  0  0  0  0
   -8.9482    3.6122   -6.9064 C   0  0  0  0  0  0  0  0  0  0  0  0
   -9.6175    2.2955   -7.0247 N   0  0  0  0  0  0  0  0  0  0  0  0
   -9.1522    1.7432   -8.3231 C   0  0  0  0  0  0  0  0  0  0  0  0
  1  2  1  0
  2  3  2  0
  3  4  1  0
  4  5  1  0
  5  6  1  0
  6  7  2  0
  6  8  1  0
  8  9  2  0
  9 10  1  0
 10 11  1  0
 10 12  2  0
 12 13  1  0
 13 14  1  0
 14 15  2  0
 15 16  1  0
 16 17  1  0
 16 18  1  0
 16 19  1  0
 19 20  1  0
 19 21  2  0
 19 22  2  0
 15 23  1  0
 23 24  1  0
  4 25  2  0
 25 26  1  0
 26 27  2  0
 27 28  1  0
 28 29  1  0
 29 30  1  0
 27  2  1  0
 24  8  1  0
 30 26  1  0
 24 13  2  0
M  END
>  <smiles>  (1082) 
C107127-P163

>  <fragmenstein_outcome>  (1082) 
acceptable

>  <inchikey>  (1082) 
GHBURXZYEIFANE-UHFFFAOYSA-N

>  <fragmenstein_mode>  (1082) 
expansion

>  <HIPPO Pose ID>  (1082) 
20273

>  <Energy>  (1082) 
44.447445

>  <fragmenstein_error>  (1082) 


>  <tags>  (1082) 
{'openbind_xx01zvns2b_c1_fragmenstein', 'fragmenstein_placed'}

>  <ref_pdb>  (1082) 
1

>  <scratch_subdir>  (1082) 
/opt/xchem-fragalysis-2/maxwin/BulkDock/SCRATCH/511027/C107127-P163

>  <alias>  (1082) 
Cc1cc(NC(=O)c2cc(F)cc3nc(C(C)(C)S(C)(=O)=O)[nH]c23)cc2c1CNC2

>  <HIPPO Compound ID>  (1082) 
71314

>  <fragmenstein_runtime>  (1082) 
2.434747

$$$$
CC[C@H]1NN[C@@H](Nc2cc(F)cc(C(=O)Nc3cc(C)c4c(c3)CNC4)c2)[C@](C)(S(C)(=O)=O)[C@@H]1C
     RDKit          3D

 35 38  0  0  0  0  0  0  0  0999 V2000
   -1.5177    5.6842  -22.5344 C   0  0  0  0  0  0  0  0  0  0  0  0
   -2.0758    6.8884  -21.7885 C   0  0  0  0  0  0  0  0  0  0  0  0
   -3.5920    6.8108  -21.4956 C   0  0  1  0  0  0  0  0  0  0  0  0
   -3.9064    5.6423  -20.6509 N   0  0  0  0  0  0  0  0  0  0  0  0
   -5.2549    5.7251  -20.1480 N   0  0  0  0  0  0  0  0  0  0  0  0
   -5.4316    6.7666  -19.1195 C   0  0  1  0  0  0  0  0  0  0  0  0
   -5.3119    6.2603  -17.7420 N   0  0  0  0  0  0  0  0  0  0  0  0
   -6.4672    5.7476  -17.1218 C   0  0  0  0  0  0  0  0  0  0  0  0
   -7.4414    4.9758  -17.7581 C   0  0  0  0  0  0  0  0  0  0  0  0
   -8.5077    4.4454  -17.0272 C   0  0  0  0  0  0  0  0  0  0  0  0
   -9.4440    3.7214  -17.6569 F   0  0  0  0  0  0  0  0  0  0  0  0
   -8.6279    4.6536  -15.6582 C   0  0  0  0  0  0  0  0  0  0  0  0
   -7.6478    5.3986  -15.0097 C   0  0  0  0  0  0  0  0  0  0  0  0
   -7.7312    5.7637  -13.5701 C   0  0  0  0  0  0  0  0  0  0  0  0
   -7.4403    6.8988  -13.3155 O   0  0  0  0  0  0  0  0  0  0  0  0
   -8.1276    4.6821  -12.7144 N   0  0  0  0  0  0  0  0  0  0  0  0
   -8.2066    4.5967  -11.3228 C   0  0  0  0  0  0  0  0  0  0  0  0
   -7.9757    5.7225  -10.5105 C   0  0  0  0  0  0  0  0  0  0  0  0
   -8.0702    5.6501   -9.1115 C   0  0  0  0  0  0  0  0  0  0  0  0
   -7.8713    6.8690   -8.2662 C   0  0  0  0  0  0  0  0  0  0  0  0
   -8.4201    4.4262   -8.5582 C   0  0  0  0  0  0  0  0  0  0  0  0
   -8.6475    3.3115   -9.3587 C   0  0  0  0  0  0  0  0  0  0  0  0
   -8.5379    3.3726  -10.7402 C   0  0  0  0  0  0  0  0  0  0  0  0
   -9.0532    2.1567   -8.5090 C   0  0  0  0  0  0  0  0  0  0  0  0
   -8.9791    2.6216   -7.0991 N   0  0  0  0  0  0  0  0  0  0  0  0
   -8.6639    4.0653   -7.1319 C   0  0  0  0  0  0  0  0  0  0  0  0
   -6.5661    5.9153  -15.7373 C   0  0  0  0  0  0  0  0  0  0  0  0
   -4.4111    7.9477  -19.3138 C   0  0  2  0  0  0  0  0  0  0  0  0
   -3.0632    7.7225  -18.5642 C   0  0  0  0  0  0  0  0  0  0  0  0
   -5.1437    9.5079  -18.6457 S   0  0  0  0  0  0  0  0  0  0  0  0
   -5.0101    9.4608  -16.8720 C   0  0  0  0  0  0  0  0  0  0  0  0
   -6.5655    9.5729  -18.9546 O   0  0  0  0  0  0  0  0  0  0  0  0
   -4.2998   10.6122  -19.0765 O   0  0  0  0  0  0  0  0  0  0  0  0
   -4.0886    8.1440  -20.8486 C   0  0  2  0  0  0  0  0  0  0  0  0
   -5.2565    8.6693  -21.7002 C   0  0  0  0  0  0  0  0  0  0  0  0
  1  2  1  0
  3  2  1  1
  3  4  1  0
  4  5  1  0
  5  6  1  0
  6  7  1  1
  7  8  1  0
  8  9  2  0
  9 10  1  0
 10 11  1  0
 10 12  2  0
 12 13  1  0
 13 14  1  0
 14 15  2  0
 14 16  1  0
 16 17  1  0
 17 18  2  0
 18 19  1  0
 19 20  1  0
 19 21  2  0
 21 22  1  0
 22 23  2  0
 22 24  1  0
 24 25  1  0
 25 26  1  0
 13 27  2  0
  6 28  1  0
 28 29  1  1
 28 30  1  0
 30 31  1  0
 30 32  2  0
 30 33  2  0
 28 34  1  0
 34 35  1  6
 34  3  1  0
 27  8  1  0
 23 17  1  0
 26 21  1  0
M  END
>  <smiles>  (1083) 
C107129-P163

>  <fragmenstein_outcome>  (1083) 
acceptable

>  <inchikey>  (1083) 
DSMTVFVYARPWFR-UHFFFAOYSA-N

>  <fragmenstein_mode>  (1083) 
expansion

>  <HIPPO Pose ID>  (1083) 
20274

>  <Energy>  (1083) 
51.842456

>  <fragmenstein_error>  (1083) 


>  <tags>  (1083) 
{'openbind_xx01zvns2b_c1_fragmenstein', 'fragmenstein_placed'}

>  <ref_pdb>  (1083) 
1

>  <scratch_subdir>  (1083) 
/opt/xchem-fragalysis-2/maxwin/BulkDock/SCRATCH/511027/C107129-P163

>  <alias>  (1083) 
CC[C@H]1NN[C@@H](Nc2cc(F)cc(C(=O)Nc3cc(C)c4c(c3)CNC4)c2)[C@](C)(S(C)(=O)=O)[C@@H]1C

>  <HIPPO Compound ID>  (1083) 
73293

>  <fragmenstein_runtime>  (1083) 
10.003831

$$$$
Cc1cc2c(c(N)c1NC(=O)c1cc(F)cc3nc(C(C)(C)S(C)(=O)=O)[nH]c13)CNC2
     RDKit          3D

 31 34  0  0  0  0  0  0  0  0999 V2000
   -7.9252    7.1394  -10.3380 C   0  0  0  0  0  0  0  0  0  0  0  0
   -8.1323    5.6994   -9.9757 C   0  0  0  0  0  0  0  0  0  0  0  0
   -8.3225    5.4255   -8.6004 C   0  0  0  0  0  0  0  0  0  0  0  0
   -8.6296    4.1423   -8.1862 C   0  0  0  0  0  0  0  0  0  0  0  0
   -8.6908    3.0961   -9.0932 C   0  0  0  0  0  0  0  0  0  0  0  0
   -8.4084    3.3050  -10.4337 C   0  0  0  0  0  0  0  0  0  0  0  0
   -8.5710    2.2647  -11.3868 N   0  0  0  0  0  0  0  0  0  0  0  0
   -8.1883    4.6340  -10.8998 C   0  0  0  0  0  0  0  0  0  0  0  0
   -8.0844    4.6820  -12.3044 N   0  0  0  0  0  0  0  0  0  0  0  0
   -7.6174    5.8200  -13.2380 C   0  0  0  0  0  0  0  0  0  0  0  0
   -7.3183    6.9228  -12.9967 O   0  0  0  0  0  0  0  0  0  0  0  0
   -7.5662    5.3894  -14.6621 C   0  0  0  0  0  0  0  0  0  0  0  0
   -8.5291    4.5769  -15.2748 C   0  0  0  0  0  0  0  0  0  0  0  0
   -8.4559    4.3054  -16.6422 C   0  0  0  0  0  0  0  0  0  0  0  0
   -9.4285    3.5815  -17.2175 F   0  0  0  0  0  0  0  0  0  0  0  0
   -7.4189    4.7864  -17.4425 C   0  0  0  0  0  0  0  0  0  0  0  0
   -6.4603    5.6083  -16.8425 C   0  0  0  0  0  0  0  0  0  0  0  0
   -5.3889    6.2612  -17.3985 N   0  0  0  0  0  0  0  0  0  0  0  0
   -4.8768    7.0125  -16.4413 C   0  0  0  0  0  0  0  0  0  0  0  0
   -3.7217    7.9776  -16.5873 C   0  0  0  0  0  0  0  0  0  0  0  0
   -3.1910    7.9687  -18.0295 C   0  0  0  0  0  0  0  0  0  0  0  0
   -2.5885    7.5977  -15.6239 C   0  0  0  0  0  0  0  0  0  0  0  0
   -4.4004    9.6297  -16.1805 S   0  0  0  0  0  0  0  0  0  0  0  0
   -3.0385   10.7612  -16.3504 C   0  0  0  0  0  0  0  0  0  0  0  0
   -4.7623    9.6331  -14.7727 O   0  0  0  0  0  0  0  0  0  0  0  0
   -5.3832   10.0172  -17.1790 O   0  0  0  0  0  0  0  0  0  0  0  0
   -5.5486    6.7999  -15.2569 N   0  0  0  0  0  0  0  0  0  0  0  0
   -6.5623    5.9031  -15.4916 C   0  0  0  0  0  0  0  0  0  0  0  0
   -9.0734    1.8532   -8.3604 C   0  0  0  0  0  0  0  0  0  0  0  0
   -9.5852    2.3096   -7.0408 N   0  0  0  0  0  0  0  0  0  0  0  0
   -8.9660    3.6355   -6.8229 C   0  0  0  0  0  0  0  0  0  0  0  0
  1  2  1  0
  2  3  2  0
  3  4  1  0
  4  5  2  0
  5  6  1  0
  6  7  1  0
  6  8  2  0
  8  9  1  0
  9 10  1  0
 10 11  2  0
 10 12  1  0
 12 13  2  0
 13 14  1  0
 14 15  1  0
 14 16  2  0
 16 17  1  0
 17 18  1  0
 18 19  2  0
 19 20  1  0
 20 21  1  0
 20 22  1  0
 20 23  1  0
 23 24  1  0
 23 25  2  0
 23 26  2  0
 19 27  1  0
 27 28  1  0
  5 29  1  0
 29 30  1  0
 30 31  1  0
  8  2  1  0
 28 12  1  0
 31  4  1  0
 28 17  2  0
M  END
>  <smiles>  (1084) 
C107137-P163

>  <fragmenstein_outcome>  (1084) 
acceptable

>  <inchikey>  (1084) 
KBEZHRUPGNUSQN-UHFFFAOYSA-N

>  <fragmenstein_mode>  (1084) 
expansion

>  <HIPPO Pose ID>  (1084) 
20277

>  <Energy>  (1084) 
66.537517

>  <fragmenstein_error>  (1084) 


>  <tags>  (1084) 
{'openbind_xx01zvns2b_c1_fragmenstein', 'fragmenstein_placed'}

>  <ref_pdb>  (1084) 
1

>  <scratch_subdir>  (1084) 
/opt/xchem-fragalysis-2/maxwin/BulkDock/SCRATCH/511027/C107137-P163

>  <alias>  (1084) 
Cc1cc2c(c(N)c1NC(=O)c1cc(F)cc3nc(C(C)(C)S(C)(=O)=O)[nH]c13)CNC2

>  <HIPPO Compound ID>  (1084) 
86110

>  <fragmenstein_runtime>  (1084) 
3.942723

$$$$
CC(C)(c1nc2c(C(=O)C(=O)c3ccc4c(c3)CNC4)cc(F)cc2n1CO)S(C)(=O)=O
     RDKit          3D

 32 35  0  0  0  0  0  0  0  0999 V2000
   -3.6110    8.0185  -14.7805 C   0  0  0  0  0  0  0  0  0  0  0  0
   -3.4770    7.1384  -16.0453 C   0  0  0  0  0  0  0  0  0  0  0  0
   -3.1398    8.0838  -17.2056 C   0  0  0  0  0  0  0  0  0  0  0  0
   -4.7443    6.3271  -16.2303 C   0  0  0  0  0  0  0  0  0  0  0  0
   -5.4512    5.8898  -15.2001 N   0  0  0  0  0  0  0  0  0  0  0  0
   -6.5569    5.2637  -15.7090 C   0  0  0  0  0  0  0  0  0  0  0  0
   -7.6056    4.5928  -15.0668 C   0  0  0  0  0  0  0  0  0  0  0  0
   -7.4841    4.3064  -13.6361 C   0  0  0  0  0  0  0  0  0  0  0  0
   -6.6118    3.5583  -13.2181 O   0  0  0  0  0  0  0  0  0  0  0  0
   -8.4277    5.0149  -12.6942 C   0  0  0  0  0  0  0  0  0  0  0  0
   -9.1891    5.8681  -13.1421 O   0  0  0  0  0  0  0  0  0  0  0  0
   -8.3719    4.7371  -11.2477 C   0  0  0  0  0  0  0  0  0  0  0  0
   -8.2116    5.8354  -10.3801 C   0  0  0  0  0  0  0  0  0  0  0  0
   -8.2564    5.6554   -8.9977 C   0  0  0  0  0  0  0  0  0  0  0  0
   -8.4963    4.3801   -8.5155 C   0  0  0  0  0  0  0  0  0  0  0  0
   -8.6548    3.2961   -9.3740 C   0  0  0  0  0  0  0  0  0  0  0  0
   -8.5752    3.4459  -10.7501 C   0  0  0  0  0  0  0  0  0  0  0  0
   -8.9419    2.0677   -8.5789 C   0  0  0  0  0  0  0  0  0  0  0  0
   -9.0259    2.4981   -7.1566 N   0  0  0  0  0  0  0  0  0  0  0  0
   -8.6708    3.9310   -7.1062 C   0  0  0  0  0  0  0  0  0  0  0  0
   -8.7159    4.1750  -15.8057 C   0  0  0  0  0  0  0  0  0  0  0  0
   -8.7271    4.3420  -17.1837 C   0  0  0  0  0  0  0  0  0  0  0  0
   -9.7820    3.8994  -17.8835 F   0  0  0  0  0  0  0  0  0  0  0  0
   -7.6499    4.9099  -17.8668 C   0  0  0  0  0  0  0  0  0  0  0  0
   -6.5739    5.3687  -17.0933 C   0  0  0  0  0  0  0  0  0  0  0  0
   -5.3345    5.8946  -17.4078 N   0  0  0  0  0  0  0  0  0  0  0  0
   -4.7563    5.7971  -18.7332 C   0  0  0  0  0  0  0  0  0  0  0  0
   -5.0724    6.9757  -19.4503 O   0  0  0  0  0  0  0  0  0  0  0  0
   -2.1128    5.9446  -15.8152 S   0  0  0  0  0  0  0  0  0  0  0  0
   -2.5700    4.8812  -14.4586 C   0  0  0  0  0  0  0  0  0  0  0  0
   -0.9339    6.6840  -15.3930 O   0  0  0  0  0  0  0  0  0  0  0  0
   -2.0281    5.1066  -17.0004 O   0  0  0  0  0  0  0  0  0  0  0  0
  1  2  1  0
  2  3  1  0
  2  4  1  0
  4  5  2  0
  5  6  1  0
  6  7  2  0
  7  8  1  0
  8  9  2  0
  8 10  1  0
 10 11  2  0
 10 12  1  0
 12 13  2  0
 13 14  1  0
 14 15  2  0
 15 16  1  0
 16 17  2  0
 16 18  1  0
 18 19  1  0
 19 20  1  0
  7 21  1  0
 21 22  2  0
 22 23  1  0
 22 24  1  0
 24 25  2  0
 25 26  1  0
 26 27  1  0
 27 28  1  0
  2 29  1  0
 29 30  1  0
 29 31  2  0
 29 32  2  0
 26  4  1  0
 25  6  1  0
 17 12  1  0
 20 15  1  0
M  END
>  <smiles>  (1085) 
C107146-P163

>  <fragmenstein_outcome>  (1085) 
acceptable

>  <inchikey>  (1085) 
VPKQZKFVNBXPSK-UHFFFAOYSA-N

>  <fragmenstein_mode>  (1085) 
expansion

>  <HIPPO Pose ID>  (1085) 
20284

>  <Energy>  (1085) 
129.4936

>  <fragmenstein_error>  (1085) 


>  <tags>  (1085) 
{'openbind_xx01zvns2b_c1_fragmenstein', 'fragmenstein_placed'}

>  <ref_pdb>  (1085) 
1

>  <scratch_subdir>  (1085) 
/opt/xchem-fragalysis-2/maxwin/BulkDock/SCRATCH/511027/C107146-P163

>  <alias>  (1085) 
CC(C)(c1nc2c(C(=O)C(=O)c3ccc4c(c3)CNC4)cc(F)cc2n1CO)S(C)(=O)=O

>  <HIPPO Compound ID>  (1085) 
107146

>  <fragmenstein_runtime>  (1085) 
3.021686

$$$$
CC(C)(c1nc2c(C(=O)Nc3ccc4c(c3)CNC4)cc(F)cc2n1N)S(C)(=O)=O
     RDKit          3D

 30 33  0  0  0  0  0  0  0  0999 V2000
   -3.6223    8.4217  -16.4463 C   0  0  0  0  0  0  0  0  0  0  0  0
   -3.6113    7.0642  -15.7290 C   0  0  0  0  0  0  0  0  0  0  0  0
   -3.4268    7.3227  -14.2182 C   0  0  0  0  0  0  0  0  0  0  0  0
   -4.8940    6.2863  -15.9562 C   0  0  0  0  0  0  0  0  0  0  0  0
   -5.6153    5.7282  -14.9925 N   0  0  0  0  0  0  0  0  0  0  0  0
   -6.6933    5.1379  -15.6063 C   0  0  0  0  0  0  0  0  0  0  0  0
   -7.7297    4.3369  -15.1056 C   0  0  0  0  0  0  0  0  0  0  0  0
   -7.6964    3.7161  -13.7678 C   0  0  0  0  0  0  0  0  0  0  0  0
   -7.6696    2.5502  -13.7117 O   0  0  0  0  0  0  0  0  0  0  0  0
   -7.8061    4.7695  -12.6451 N   0  0  0  0  0  0  0  0  0  0  0  0
   -7.9951    4.6139  -11.2725 C   0  0  0  0  0  0  0  0  0  0  0  0
   -7.9348    5.7461  -10.4425 C   0  0  0  0  0  0  0  0  0  0  0  0
   -8.1698    5.6376   -9.0658 C   0  0  0  0  0  0  0  0  0  0  0  0
   -8.4967    4.3947   -8.5523 C   0  0  0  0  0  0  0  0  0  0  0  0
   -8.5708    3.2760   -9.3748 C   0  0  0  0  0  0  0  0  0  0  0  0
   -8.3041    3.3616  -10.7313 C   0  0  0  0  0  0  0  0  0  0  0  0
   -8.9560    2.0845   -8.5607 C   0  0  0  0  0  0  0  0  0  0  0  0
   -9.4182    2.6391   -7.2564 N   0  0  0  0  0  0  0  0  0  0  0  0
   -8.8060    3.9812   -7.1526 C   0  0  0  0  0  0  0  0  0  0  0  0
   -8.8023    4.0067  -15.9452 C   0  0  0  0  0  0  0  0  0  0  0  0
   -8.7968    4.3658  -17.2806 C   0  0  0  0  0  0  0  0  0  0  0  0
   -9.8220    3.9957  -18.0599 F   0  0  0  0  0  0  0  0  0  0  0  0
   -7.7286    5.0569  -17.8359 C   0  0  0  0  0  0  0  0  0  0  0  0
   -6.6930    5.4344  -16.9690 C   0  0  0  0  0  0  0  0  0  0  0  0
   -5.4900    6.0540  -17.1830 N   0  0  0  0  0  0  0  0  0  0  0  0
   -4.9890    6.3746  -18.4697 N   0  0  0  0  0  0  0  0  0  0  0  0
   -2.2466    6.0012  -16.3348 S   0  0  0  0  0  0  0  0  0  0  0  0
   -0.7639    6.9485  -16.0771 C   0  0  0  0  0  0  0  0  0  0  0  0
   -2.3647    5.8296  -17.7741 O   0  0  0  0  0  0  0  0  0  0  0  0
   -2.1304    4.8342  -15.4818 O   0  0  0  0  0  0  0  0  0  0  0  0
  1  2  1  0
  2  3  1  0
  2  4  1  0
  4  5  2  0
  5  6  1  0
  6  7  2  0
  7  8  1  0
  8  9  2  0
  8 10  1  0
 10 11  1  0
 11 12  2  0
 12 13  1  0
 13 14  2  0
 14 15  1  0
 15 16  2  0
 15 17  1  0
 17 18  1  0
 18 19  1  0
  7 20  1  0
 20 21  2  0
 21 22  1  0
 21 23  1  0
 23 24  2  0
 24 25  1  0
 25 26  1  0
  2 27  1  0
 27 28  1  0
 27 29  2  0
 27 30  2  0
 25  4  1  0
 24  6  1  0
 16 11  1  0
 19 14  1  0
M  END
>  <smiles>  (1086) 
C107094-P163

>  <fragmenstein_outcome>  (1086) 
acceptable

>  <inchikey>  (1086) 
XRCCUFJVDXJIBZ-UHFFFAOYSA-N

>  <fragmenstein_mode>  (1086) 
expansion

>  <HIPPO Pose ID>  (1086) 
20285

>  <Energy>  (1086) 
52.684322

>  <fragmenstein_error>  (1086) 


>  <tags>  (1086) 
{'openbind_xx01zvns2b_c1_fragmenstein', 'fragmenstein_placed'}

>  <ref_pdb>  (1086) 
1

>  <scratch_subdir>  (1086) 
/opt/xchem-fragalysis-2/maxwin/BulkDock/SCRATCH/511027/C107094-P163

>  <alias>  (1086) 
CC(C)(c1nc2c(C(=O)Nc3ccc4c(c3)CNC4)cc(F)cc2n1N)S(C)(=O)=O

>  <HIPPO Compound ID>  (1086) 
107094

>  <fragmenstein_runtime>  (1086) 
4.537772

$$$$
Cc1cc2c(cc1NC(O)(O)c1cc(F)cc3nc(C(C)(C)S(C)(=O)=O)[nH]c13)CNC2
     RDKit          3D

 31 34  0  0  0  0  0  0  0  0999 V2000
   -8.0509    7.1111  -11.2424 C   0  0  0  0  0  0  0  0  0  0  0  0
   -8.2396    5.7515  -10.6230 C   0  0  0  0  0  0  0  0  0  0  0  0
   -8.2455    5.6466   -9.2200 C   0  0  0  0  0  0  0  0  0  0  0  0
   -8.4811    4.4121   -8.6418 C   0  0  0  0  0  0  0  0  0  0  0  0
   -8.6828    3.2853   -9.4212 C   0  0  0  0  0  0  0  0  0  0  0  0
   -8.6450    3.3521  -10.8043 C   0  0  0  0  0  0  0  0  0  0  0  0
   -8.4512    4.5951  -11.4250 C   0  0  0  0  0  0  0  0  0  0  0  0
   -8.4673    4.6890  -12.8321 N   0  0  0  0  0  0  0  0  0  0  0  0
   -7.3554    4.1313  -13.5605 C   0  0  0  0  0  0  0  0  0  0  0  0
   -7.3069    2.7295  -13.4868 O   0  0  0  0  0  0  0  0  0  0  0  0
   -6.1525    4.6320  -13.0286 O   0  0  0  0  0  0  0  0  0  0  0  0
   -7.4623    4.5830  -15.0119 C   0  0  0  0  0  0  0  0  0  0  0  0
   -8.5349    4.1555  -15.8268 C   0  0  0  0  0  0  0  0  0  0  0  0
   -8.6182    4.4783  -17.1777 C   0  0  0  0  0  0  0  0  0  0  0  0
   -9.6453    4.0020  -17.8976 F   0  0  0  0  0  0  0  0  0  0  0  0
   -7.6650    5.2851  -17.7903 C   0  0  0  0  0  0  0  0  0  0  0  0
   -6.6343    5.8008  -16.9979 C   0  0  0  0  0  0  0  0  0  0  0  0
   -5.6261    6.6780  -17.3245 N   0  0  0  0  0  0  0  0  0  0  0  0
   -4.8914    6.8215  -16.2343 C   0  0  0  0  0  0  0  0  0  0  0  0
   -3.6860    7.7334  -16.1042 C   0  0  0  0  0  0  0  0  0  0  0  0
   -4.1675    9.1316  -15.6893 C   0  0  0  0  0  0  0  0  0  0  0  0
   -2.9445    7.8162  -17.4482 C   0  0  0  0  0  0  0  0  0  0  0  0
   -2.5777    7.0329  -14.8288 S   0  0  0  0  0  0  0  0  0  0  0  0
   -1.2252    8.1774  -14.6681 C   0  0  0  0  0  0  0  0  0  0  0  0
   -3.2872    7.0477  -13.5596 O   0  0  0  0  0  0  0  0  0  0  0  0
   -2.0133    5.7896  -15.3205 O   0  0  0  0  0  0  0  0  0  0  0  0
   -5.4302    6.0845  -15.2038 N   0  0  0  0  0  0  0  0  0  0  0  0
   -6.5537    5.4383  -15.6614 C   0  0  0  0  0  0  0  0  0  0  0  0
   -8.9727    2.1130   -8.5495 C   0  0  0  0  0  0  0  0  0  0  0  0
   -8.9569    2.6184   -7.1476 N   0  0  0  0  0  0  0  0  0  0  0  0
   -8.6128    4.0546   -7.2030 C   0  0  0  0  0  0  0  0  0  0  0  0
  1  2  1  0
  2  3  2  0
  3  4  1  0
  4  5  2  0
  5  6  1  0
  6  7  2  0
  7  8  1  0
  8  9  1  0
  9 10  1  0
  9 11  1  0
  9 12  1  0
 12 13  2  0
 13 14  1  0
 14 15  1  0
 14 16  2  0
 16 17  1  0
 17 18  1  0
 18 19  2  0
 19 20  1  0
 20 21  1  0
 20 22  1  0
 20 23  1  0
 23 24  1  0
 23 25  2  0
 23 26  2  0
 19 27  1  0
 27 28  1  0
  5 29  1  0
 29 30  1  0
 30 31  1  0
  7  2  1  0
 28 12  1  0
 31  4  1  0
 28 17  2  0
M  END
>  <smiles>  (1087) 
C107156-P163

>  <fragmenstein_outcome>  (1087) 
acceptable

>  <inchikey>  (1087) 
ALURSGBJQIQOLU-UHFFFAOYSA-N

>  <fragmenstein_mode>  (1087) 
expansion

>  <HIPPO Pose ID>  (1087) 
20292

>  <Energy>  (1087) 
-74.651268

>  <fragmenstein_error>  (1087) 


>  <tags>  (1087) 
{'openbind_xx01zvns2b_c1_fragmenstein', 'fragmenstein_placed'}

>  <ref_pdb>  (1087) 
1

>  <scratch_subdir>  (1087) 
/opt/xchem-fragalysis-2/maxwin/BulkDock/SCRATCH/511027/C107156-P163

>  <alias>  (1087) 
Cc1cc2c(cc1NC(O)(O)c1cc(F)cc3nc(C(C)(C)S(C)(=O)=O)[nH]c13)CNC2

>  <HIPPO Compound ID>  (1087) 
80074

>  <fragmenstein_runtime>  (1087) 
3.239707

$$$$
CC[C@](C)(c1nc2cc(F)cc(C(=O)Nc3ccc4c(c3)[C@@H](N)NC4)c2[nH]1)S(C)(=O)=O
     RDKit          3D

 31 34  0  0  0  0  0  0  0  0999 V2000
   -2.3060    5.0556  -14.4221 C   0  0  0  0  0  0  0  0  0  0  0  0
   -2.3267    6.1021  -15.5306 C   0  0  0  0  0  0  0  0  0  0  0  0
   -3.4927    7.1298  -15.4949 C   0  0  2  0  0  0  0  0  0  0  0  0
   -3.5748    7.8563  -14.1375 C   0  0  0  0  0  0  0  0  0  0  0  0
   -4.8148    6.4805  -15.8403 C   0  0  0  0  0  0  0  0  0  0  0  0
   -5.4638    6.5205  -16.9870 N   0  0  0  0  0  0  0  0  0  0  0  0
   -6.5656    5.7120  -16.8511 C   0  0  0  0  0  0  0  0  0  0  0  0
   -7.5497    5.3568  -17.7847 C   0  0  0  0  0  0  0  0  0  0  0  0
   -8.6012    4.5414  -17.3617 C   0  0  0  0  0  0  0  0  0  0  0  0
   -9.5745    4.2065  -18.2206 F   0  0  0  0  0  0  0  0  0  0  0  0
   -8.6747    4.0703  -16.0607 C   0  0  0  0  0  0  0  0  0  0  0  0
   -7.6694    4.3741  -15.1433 C   0  0  0  0  0  0  0  0  0  0  0  0
   -7.7248    3.7887  -13.7956 C   0  0  0  0  0  0  0  0  0  0  0  0
   -7.6242    2.6340  -13.6679 O   0  0  0  0  0  0  0  0  0  0  0  0
   -8.0136    4.8901  -12.7518 N   0  0  0  0  0  0  0  0  0  0  0  0
   -8.1402    4.8130  -11.3698 C   0  0  0  0  0  0  0  0  0  0  0  0
   -8.0072    5.9740  -10.5911 C   0  0  0  0  0  0  0  0  0  0  0  0
   -8.1389    5.9160   -9.1979 C   0  0  0  0  0  0  0  0  0  0  0  0
   -8.4468    4.6982   -8.6196 C   0  0  0  0  0  0  0  0  0  0  0  0
   -8.6388    3.5666   -9.4003 C   0  0  0  0  0  0  0  0  0  0  0  0
   -8.4582    3.5955  -10.7725 C   0  0  0  0  0  0  0  0  0  0  0  0
   -9.0729    2.4357   -8.5371 C   0  0  1  0  0  0  0  0  0  0  0  0
   -8.1924    1.3276   -8.6597 N   0  0  0  0  0  0  0  0  0  0  0  0
   -8.8927    2.8760   -7.1544 N   0  0  0  0  0  0  0  0  0  0  0  0
   -8.6630    4.3360   -7.1904 C   0  0  0  0  0  0  0  0  0  0  0  0
   -6.6358    5.2152  -15.5571 C   0  0  0  0  0  0  0  0  0  0  0  0
   -5.5096    5.6946  -14.9413 N   0  0  0  0  0  0  0  0  0  0  0  0
   -3.0965    8.4079  -16.7997 S   0  0  0  0  0  0  0  0  0  0  0  0
   -4.5773    9.3571  -17.0910 C   0  0  0  0  0  0  0  0  0  0  0  0
   -2.1464    9.3408  -16.2092 O   0  0  0  0  0  0  0  0  0  0  0  0
   -2.7365    7.7564  -18.0471 O   0  0  0  0  0  0  0  0  0  0  0  0
  1  2  1  0
  2  3  1  0
  3  4  1  1
  3  5  1  0
  5  6  2  0
  6  7  1  0
  7  8  2  0
  8  9  1  0
  9 10  1  0
  9 11  2  0
 11 12  1  0
 12 13  1  0
 13 14  2  0
 13 15  1  0
 15 16  1  0
 16 17  2  0
 17 18  1  0
 18 19  2  0
 19 20  1  0
 20 21  2  0
 20 22  1  0
 22 23  1  6
 22 24  1  0
 24 25  1  0
 12 26  2  0
 26 27  1  0
  3 28  1  0
 28 29  1  0
 28 30  2  0
 28 31  2  0
 27  5  1  0
 26  7  1  0
 21 16  1  0
 25 19  1  0
M  END
>  <smiles>  (1088) 
C107167-P163

>  <fragmenstein_outcome>  (1088) 
acceptable

>  <inchikey>  (1088) 
KJMXQVGGUQGCBA-UHFFFAOYSA-N

>  <fragmenstein_mode>  (1088) 
expansion

>  <HIPPO Pose ID>  (1088) 
20294

>  <Energy>  (1088) 
-19.137837

>  <fragmenstein_error>  (1088) 


>  <tags>  (1088) 
{'openbind_xx01zvns2b_c1_fragmenstein', 'fragmenstein_placed'}

>  <ref_pdb>  (1088) 
1

>  <scratch_subdir>  (1088) 
/opt/xchem-fragalysis-2/maxwin/BulkDock/SCRATCH/511027/C107167-P163

>  <alias>  (1088) 
CC[C@](C)(c1nc2cc(F)cc(C(=O)Nc3ccc4c(c3)[C@@H](N)NC4)c2[nH]1)S(C)(=O)=O

>  <HIPPO Compound ID>  (1088) 
88677

>  <fragmenstein_runtime>  (1088) 
4.447971

$$$$
CC(C)([C@H]1Nc2c(C(=O)Nc3ccc4c(c3)CNC4)cc(F)c3[nH]c(=O)n1c23)S(C)(=O)=O
     RDKit          3D

 32 36  0  0  0  0  0  0  0  0999 V2000
   -2.9581    7.4638  -14.1459 C   0  0  0  0  0  0  0  0  0  0  0  0
   -4.1101    7.6553  -15.1597 C   0  0  0  0  0  0  0  0  0  0  0  0
   -5.3203    8.2363  -14.3980 C   0  0  0  0  0  0  0  0  0  0  0  0
   -4.4196    6.2888  -15.8271 C   0  0  1  0  0  0  0  0  0  0  0  0
   -5.0888    5.3358  -14.8100 N   0  0  0  0  0  0  0  0  0  0  0  0
   -6.3526    5.0259  -15.3337 C   0  0  0  0  0  0  0  0  0  0  0  0
   -7.4339    4.2537  -14.9881 C   0  0  0  0  0  0  0  0  0  0  0  0
   -7.5597    3.6026  -13.6691 C   0  0  0  0  0  0  0  0  0  0  0  0
   -7.5387    2.4381  -13.5915 O   0  0  0  0  0  0  0  0  0  0  0  0
   -7.8071    4.6761  -12.5822 N   0  0  0  0  0  0  0  0  0  0  0  0
   -7.9800    4.5471  -11.2064 C   0  0  0  0  0  0  0  0  0  0  0  0
   -7.8989    5.7017  -10.4065 C   0  0  0  0  0  0  0  0  0  0  0  0
   -8.1064    5.6309   -9.0246 C   0  0  0  0  0  0  0  0  0  0  0  0
   -8.4246    4.4026   -8.4736 C   0  0  0  0  0  0  0  0  0  0  0  0
   -8.5349    3.2699   -9.2694 C   0  0  0  0  0  0  0  0  0  0  0  0
   -8.2950    3.3154  -10.6335 C   0  0  0  0  0  0  0  0  0  0  0  0
   -8.9832    2.1146   -8.4427 C   0  0  0  0  0  0  0  0  0  0  0  0
   -8.9938    2.5924   -7.0303 N   0  0  0  0  0  0  0  0  0  0  0  0
   -8.7365    4.0481   -7.0612 C   0  0  0  0  0  0  0  0  0  0  0  0
   -8.4898    4.0615  -15.9400 C   0  0  0  0  0  0  0  0  0  0  0  0
   -8.4161    4.5685  -17.2632 C   0  0  0  0  0  0  0  0  0  0  0  0
   -9.4052    4.3148  -18.1287 F   0  0  0  0  0  0  0  0  0  0  0  0
   -7.3168    5.3061  -17.5989 C   0  0  0  0  0  0  0  0  0  0  0  0
   -6.7415    5.9332  -18.7132 N   0  0  0  0  0  0  0  0  0  0  0  0
   -5.4476    6.4551  -18.3368 C   0  0  0  0  0  0  0  0  0  0  0  0
   -4.6129    6.9401  -19.0786 O   0  0  0  0  0  0  0  0  0  0  0  0
   -5.3505    6.2563  -16.9589 N   0  0  0  0  0  0  0  0  0  0  0  0
   -6.4213    5.5055  -16.5976 C   0  0  0  0  0  0  0  0  0  0  0  0
   -3.5968    8.9100  -16.3826 S   0  0  0  0  0  0  0  0  0  0  0  0
   -2.3115    8.1741  -17.3752 C   0  0  0  0  0  0  0  0  0  0  0  0
   -4.7379    9.2263  -17.2207 O   0  0  0  0  0  0  0  0  0  0  0  0
   -2.9621    9.9944  -15.6494 O   0  0  0  0  0  0  0  0  0  0  0  0
  1  2  1  0
  2  3  1  0
  4  2  1  1
  4  5  1  0
  5  6  1  0
  6  7  2  0
  7  8  1  0
  8  9  2  0
  8 10  1  0
 10 11  1  0
 11 12  2  0
 12 13  1  0
 13 14  2  0
 14 15  1  0
 15 16  2  0
 15 17  1  0
 17 18  1  0
 18 19  1  0
  7 20  1  0
 20 21  2  0
 21 22  1  0
 21 23  1  0
 23 24  1  0
 24 25  1  0
 25 26  2  0
 25 27  1  0
 27 28  1  0
  2 29  1  0
 29 30  1  0
 29 31  2  0
 29 32  2  0
 27  4  1  0
 28  6  1  0
 16 11  1  0
 28 23  2  0
 19 14  1  0
M  END
>  <smiles>  (1089) 
C107177-P163

>  <fragmenstein_outcome>  (1089) 
acceptable

>  <inchikey>  (1089) 
UABQNNQFNXRWNA-UHFFFAOYSA-N

>  <fragmenstein_mode>  (1089) 
expansion

>  <HIPPO Pose ID>  (1089) 
20295

>  <Energy>  (1089) 
45.03422

>  <fragmenstein_error>  (1089) 


>  <tags>  (1089) 
{'openbind_xx01zvns2b_c1_fragmenstein', 'fragmenstein_placed'}

>  <ref_pdb>  (1089) 
1

>  <scratch_subdir>  (1089) 
/opt/xchem-fragalysis-2/maxwin/BulkDock/SCRATCH/511027/C107177-P163

>  <alias>  (1089) 
CC(C)([C@H]1Nc2c(C(=O)Nc3ccc4c(c3)CNC4)cc(F)c3[nH]c(=O)n1c23)S(C)(=O)=O

>  <HIPPO Compound ID>  (1089) 
97530

>  <fragmenstein_runtime>  (1089) 
4.542188

$$$$
CC(C)CNC(=O)[C@](O)(Nc1ccc2c(c1)CNC2)c1cc(F)cc2[nH]c(C(C)(C)S(C)(=O)=O)nc12
     RDKit          3D

 36 39  0  0  0  0  0  0  0  0999 V2000
   -1.9899    1.5381  -11.8934 C   0  0  0  0  0  0  0  0  0  0  0  0
   -3.2668    2.3766  -11.9639 C   0  0  0  0  0  0  0  0  0  0  0  0
   -4.2595    1.9050  -10.8974 C   0  0  0  0  0  0  0  0  0  0  0  0
   -3.8558    2.3155  -13.3795 C   0  0  0  0  0  0  0  0  0  0  0  0
   -4.9940    3.1757  -13.5326 N   0  0  0  0  0  0  0  0  0  0  0  0
   -6.5222    2.8542  -13.4809 C   0  0  0  0  0  0  0  0  0  0  0  0
   -7.0791    1.8272  -13.3827 O   0  0  0  0  0  0  0  0  0  0  0  0
   -7.2671    4.2821  -13.5550 C   0  0  2  0  0  0  0  0  0  0  0  0
   -6.4504    5.3073  -12.9973 O   0  0  0  0  0  0  0  0  0  0  0  0
   -8.5483    4.2258  -12.8173 N   0  0  0  0  0  0  0  0  0  0  0  0
   -8.4979    4.2655  -11.4079 C   0  0  0  0  0  0  0  0  0  0  0  0
   -8.2313    5.4723  -10.7261 C   0  0  0  0  0  0  0  0  0  0  0  0
   -8.2056    5.5344   -9.3287 C   0  0  0  0  0  0  0  0  0  0  0  0
   -8.4774    4.3786   -8.6220 C   0  0  0  0  0  0  0  0  0  0  0  0
   -8.7506    3.1887   -9.2807 C   0  0  0  0  0  0  0  0  0  0  0  0
   -8.7424    3.1075  -10.6632 C   0  0  0  0  0  0  0  0  0  0  0  0
   -9.0984    2.1315   -8.2930 C   0  0  0  0  0  0  0  0  0  0  0  0
   -8.9066    2.7390   -6.9465 N   0  0  0  0  0  0  0  0  0  0  0  0
   -8.6043    4.1719   -7.1537 C   0  0  0  0  0  0  0  0  0  0  0  0
   -7.4974    4.6133  -15.0256 C   0  0  0  0  0  0  0  0  0  0  0  0
   -8.7057    4.2873  -15.6906 C   0  0  0  0  0  0  0  0  0  0  0  0
   -8.8720    4.4630  -17.0611 C   0  0  0  0  0  0  0  0  0  0  0  0
  -10.0164    4.0730  -17.6376 F   0  0  0  0  0  0  0  0  0  0  0  0
   -7.8766    5.0155  -17.8524 C   0  0  0  0  0  0  0  0  0  0  0  0
   -6.6972    5.3587  -17.2008 C   0  0  0  0  0  0  0  0  0  0  0  0
   -5.5296    5.8968  -17.6709 N   0  0  0  0  0  0  0  0  0  0  0  0
   -4.6081    5.8940  -16.6464 C   0  0  0  0  0  0  0  0  0  0  0  0
   -3.1625    6.3233  -16.7922 C   0  0  0  0  0  0  0  0  0  0  0  0
   -2.2984    5.6172  -15.7368 C   0  0  0  0  0  0  0  0  0  0  0  0
   -3.0653    7.8440  -16.6125 C   0  0  0  0  0  0  0  0  0  0  0  0
   -2.6198    5.8381  -18.4714 S   0  0  0  0  0  0  0  0  0  0  0  0
   -0.9007    6.2815  -18.5900 C   0  0  0  0  0  0  0  0  0  0  0  0
   -2.6965    4.3956  -18.6046 O   0  0  0  0  0  0  0  0  0  0  0  0
   -3.3400    6.6696  -19.4244 O   0  0  0  0  0  0  0  0  0  0  0  0
   -5.1787    5.4931  -15.5257 N   0  0  0  0  0  0  0  0  0  0  0  0
   -6.4762    5.1493  -15.8453 C   0  0  0  0  0  0  0  0  0  0  0  0
  1  2  1  0
  2  3  1  0
  2  4  1  0
  4  5  1  0
  5  6  1  0
  6  7  2  0
  6  8  1  0
  8  9  1  1
  8 10  1  0
 10 11  1  0
 11 12  2  0
 12 13  1  0
 13 14  2  0
 14 15  1  0
 15 16  2  0
 15 17  1  0
 17 18  1  0
 18 19  1  0
  8 20  1  0
 20 21  2  0
 21 22  1  0
 22 23  1  0
 22 24  2  0
 24 25  1  0
 25 26  1  0
 26 27  1  0
 27 28  1  0
 28 29  1  0
 28 30  1  0
 28 31  1  0
 31 32  1  0
 31 33  2  0
 31 34  2  0
 27 35  2  0
 35 36  1  0
 16 11  1  0
 36 20  1  0
 19 14  1  0
 36 25  2  0
M  END
>  <smiles>  (1090) 
C107181-P163

>  <fragmenstein_outcome>  (1090) 
acceptable

>  <inchikey>  (1090) 
GPBZPTLHZMFYJP-UHFFFAOYSA-N

>  <fragmenstein_mode>  (1090) 
expansion

>  <HIPPO Pose ID>  (1090) 
20297

>  <Energy>  (1090) 
94.712518

>  <fragmenstein_error>  (1090) 


>  <tags>  (1090) 
{'openbind_xx01zvns2b_c1_fragmenstein', 'fragmenstein_placed'}

>  <ref_pdb>  (1090) 
1

>  <scratch_subdir>  (1090) 
/opt/xchem-fragalysis-2/maxwin/BulkDock/SCRATCH/511027/C107181-P163

>  <alias>  (1090) 
CC(C)CNC(=O)[C@](O)(Nc1ccc2c(c1)CNC2)c1cc(F)cc2[nH]c(C(C)(C)S(C)(=O)=O)nc12

>  <HIPPO Compound ID>  (1090) 
72846

>  <fragmenstein_runtime>  (1090) 
8.878185

$$$$
Cc1ccc(S(=O)(=O)CNC(=O)[C@](O)(Nc2ccc3c(c2)CNC3)c2cc(F)cc3[nH]c(C(C)(C)S(C)(=O)=O)nc23)cc1
     RDKit          3D

 43 47  0  0  0  0  0  0  0  0999 V2000
   -0.1900    7.6627  -12.6205 C   0  0  0  0  0  0  0  0  0  0  0  0
   -0.8210    6.3076  -12.7470 C   0  0  0  0  0  0  0  0  0  0  0  0
   -1.3261    5.8737  -13.9789 C   0  0  0  0  0  0  0  0  0  0  0  0
   -1.9745    4.6428  -14.0974 C   0  0  0  0  0  0  0  0  0  0  0  0
   -2.0838    3.8222  -12.9769 C   0  0  0  0  0  0  0  0  0  0  0  0
   -2.8023    2.1965  -13.1124 S   0  0  0  0  0  0  0  0  0  0  0  0
   -1.9032    1.3133  -12.3959 O   0  0  0  0  0  0  0  0  0  0  0  0
   -3.0754    1.9578  -14.5189 O   0  0  0  0  0  0  0  0  0  0  0  0
   -4.3360    2.3423  -12.1786 C   0  0  0  0  0  0  0  0  0  0  0  0
   -5.3092    3.2815  -12.6750 N   0  0  0  0  0  0  0  0  0  0  0  0
   -6.6558    3.0444  -13.4011 C   0  0  0  0  0  0  0  0  0  0  0  0
   -7.1484    2.0544  -13.7779 O   0  0  0  0  0  0  0  0  0  0  0  0
   -7.3280    4.5089  -13.5686 C   0  0  2  0  0  0  0  0  0  0  0  0
   -6.4710    5.5191  -13.0197 O   0  0  0  0  0  0  0  0  0  0  0  0
   -8.6109    4.5051  -12.8319 N   0  0  0  0  0  0  0  0  0  0  0  0
   -8.4934    4.4571  -11.4183 C   0  0  0  0  0  0  0  0  0  0  0  0
   -8.1441    5.6106  -10.6877 C   0  0  0  0  0  0  0  0  0  0  0  0
   -8.1001    5.6042   -9.2896 C   0  0  0  0  0  0  0  0  0  0  0  0
   -8.4168    4.4303   -8.6322 C   0  0  0  0  0  0  0  0  0  0  0  0
   -8.7415    3.2816   -9.3391 C   0  0  0  0  0  0  0  0  0  0  0  0
   -8.7666    3.2691  -10.7252 C   0  0  0  0  0  0  0  0  0  0  0  0
   -9.1042    2.1925   -8.3907 C   0  0  0  0  0  0  0  0  0  0  0  0
   -8.8970    2.7412   -7.0220 N   0  0  0  0  0  0  0  0  0  0  0  0
   -8.5438    4.1692   -7.1728 C   0  0  0  0  0  0  0  0  0  0  0  0
   -7.5709    4.7692  -15.0615 C   0  0  0  0  0  0  0  0  0  0  0  0
   -8.6236    4.1379  -15.7683 C   0  0  0  0  0  0  0  0  0  0  0  0
   -8.7867    4.2632  -17.1462 C   0  0  0  0  0  0  0  0  0  0  0  0
   -9.8077    3.6359  -17.7479 F   0  0  0  0  0  0  0  0  0  0  0  0
   -7.9047    5.0029  -17.9179 C   0  0  0  0  0  0  0  0  0  0  0  0
   -6.9052    5.6754  -17.2245 C   0  0  0  0  0  0  0  0  0  0  0  0
   -5.9097    6.5116  -17.6502 N   0  0  0  0  0  0  0  0  0  0  0  0
   -5.2694    7.0231  -16.5404 C   0  0  0  0  0  0  0  0  0  0  0  0
   -4.2664    8.1574  -16.6220 C   0  0  0  0  0  0  0  0  0  0  0  0
   -3.6808    8.4553  -15.2385 C   0  0  0  0  0  0  0  0  0  0  0  0
   -4.9502    9.4308  -17.1488 C   0  0  0  0  0  0  0  0  0  0  0  0
   -2.9738    7.6084  -17.7915 S   0  0  0  0  0  0  0  0  0  0  0  0
   -1.7588    8.9075  -17.8271 C   0  0  0  0  0  0  0  0  0  0  0  0
   -2.3054    6.4348  -17.2636 O   0  0  0  0  0  0  0  0  0  0  0  0
   -3.5745    7.5630  -19.1166 O   0  0  0  0  0  0  0  0  0  0  0  0
   -5.7130    6.4281  -15.4448 N   0  0  0  0  0  0  0  0  0  0  0  0
   -6.7378    5.5932  -15.8501 C   0  0  0  0  0  0  0  0  0  0  0  0
   -1.5625    4.2272  -11.7447 C   0  0  0  0  0  0  0  0  0  0  0  0
   -0.9526    5.4774  -11.6284 C   0  0  0  0  0  0  0  0  0  0  0  0
  1  2  1  0
  2  3  2  0
  3  4  1  0
  4  5  2  0
  5  6  1  0
  6  7  2  0
  6  8  2  0
  6  9  1  0
  9 10  1  0
 10 11  1  0
 11 12  2  0
 11 13  1  0
 13 14  1  1
 13 15  1  0
 15 16  1  0
 16 17  2  0
 17 18  1  0
 18 19  2  0
 19 20  1  0
 20 21  2  0
 20 22  1  0
 22 23  1  0
 23 24  1  0
 13 25  1  0
 25 26  2  0
 26 27  1  0
 27 28  1  0
 27 29  2  0
 29 30  1  0
 30 31  1  0
 31 32  1  0
 32 33  1  0
 33 34  1  0
 33 35  1  0
 33 36  1  0
 36 37  1  0
 36 38  2  0
 36 39  2  0
 32 40  2  0
 40 41  1  0
  5 42  1  0
 42 43  2  0
 43  2  1  0
 21 16  1  0
 41 25  1  0
 24 19  1  0
 41 30  2  0
M  END
>  <smiles>  (1091) 
C107186-P163

>  <fragmenstein_outcome>  (1091) 
acceptable

>  <inchikey>  (1091) 
AXIFKBAPABAUCT-UHFFFAOYSA-N

>  <fragmenstein_mode>  (1091) 
expansion

>  <HIPPO Pose ID>  (1091) 
20299

>  <Energy>  (1091) 
181.992105

>  <fragmenstein_error>  (1091) 


>  <tags>  (1091) 
{'openbind_xx01zvns2b_c1_fragmenstein', 'fragmenstein_placed'}

>  <ref_pdb>  (1091) 
1

>  <scratch_subdir>  (1091) 
/opt/xchem-fragalysis-2/maxwin/BulkDock/SCRATCH/511027/C107186-P163

>  <alias>  (1091) 
Cc1ccc(S(=O)(=O)CNC(=O)[C@](O)(Nc2ccc3c(c2)CNC3)c2cc(F)cc3[nH]c(C(C)(C)S(C)(=O)=O)nc23)cc1

>  <HIPPO Compound ID>  (1091) 
87938

>  <fragmenstein_runtime>  (1091) 
11.727589

$$$$
CS(=O)(=O)C[C@H]1CCCC[C@]12Nc1cc(F)cc(C(=O)Nc3ccc4c(c3)CNC4)c1N2
     RDKit          3D

 32 36  0  0  0  0  0  0  0  0999 V2000
   -6.0843   11.7796  -15.9855 C   0  0  0  0  0  0  0  0  0  0  0  0
   -5.5769   10.7774  -17.3623 S   0  0  0  0  0  0  0  0  0  0  0  0
   -6.7652   10.4664  -18.1435 O   0  0  0  0  0  0  0  0  0  0  0  0
   -4.4481   11.4407  -17.9851 O   0  0  0  0  0  0  0  0  0  0  0  0
   -4.9856    9.2787  -16.5664 C   0  0  0  0  0  0  0  0  0  0  0  0
   -4.7781    8.1409  -17.5842 C   0  0  1  0  0  0  0  0  0  0  0  0
   -3.4686    8.3184  -18.3780 C   0  0  0  0  0  0  0  0  0  0  0  0
   -2.2173    8.1579  -17.5125 C   0  0  0  0  0  0  0  0  0  0  0  0
   -2.3874    7.1343  -16.3904 C   0  0  0  0  0  0  0  0  0  0  0  0
   -3.4247    6.0786  -16.7496 C   0  0  0  0  0  0  0  0  0  0  0  0
   -4.8308    6.6929  -16.9826 C   0  0  2  0  0  0  0  0  0  0  0  0
   -5.5177    5.8264  -17.9601 N   0  0  0  0  0  0  0  0  0  0  0  0
   -6.7114    5.4519  -17.3172 C   0  0  0  0  0  0  0  0  0  0  0  0
   -7.7415    4.7215  -17.8701 C   0  0  0  0  0  0  0  0  0  0  0  0
   -8.7816    4.3418  -17.0331 C   0  0  0  0  0  0  0  0  0  0  0  0
   -9.8137    3.6574  -17.5468 F   0  0  0  0  0  0  0  0  0  0  0  0
   -8.7735    4.6544  -15.6680 C   0  0  0  0  0  0  0  0  0  0  0  0
   -7.7229    5.4098  -15.1263 C   0  0  0  0  0  0  0  0  0  0  0  0
   -7.7246    5.8162  -13.6928 C   0  0  0  0  0  0  0  0  0  0  0  0
   -7.4267    6.9157  -13.4297 O   0  0  0  0  0  0  0  0  0  0  0  0
   -8.0631    4.6173  -12.7674 N   0  0  0  0  0  0  0  0  0  0  0  0
   -8.1926    4.5522  -11.3797 C   0  0  0  0  0  0  0  0  0  0  0  0
   -7.9777    5.6887  -10.5821 C   0  0  0  0  0  0  0  0  0  0  0  0
   -8.0982    5.6245   -9.1901 C   0  0  0  0  0  0  0  0  0  0  0  0
   -8.4379    4.4132   -8.6175 C   0  0  0  0  0  0  0  0  0  0  0  0
   -8.6581    3.2880   -9.4011 C   0  0  0  0  0  0  0  0  0  0  0  0
   -8.5359    3.3345  -10.7835 C   0  0  0  0  0  0  0  0  0  0  0  0
   -9.0520    2.1451   -8.5291 C   0  0  0  0  0  0  0  0  0  0  0  0
   -8.9668    2.6344   -7.1264 N   0  0  0  0  0  0  0  0  0  0  0  0
   -8.6630    4.0797   -7.1843 C   0  0  0  0  0  0  0  0  0  0  0  0
   -6.6988    5.8179  -15.9767 C   0  0  0  0  0  0  0  0  0  0  0  0
   -5.5923    6.6663  -15.7169 N   0  0  0  0  0  0  0  0  0  0  0  0
  1  2  1  0
  2  3  2  0
  2  4  2  0
  2  5  1  0
  6  5  1  1
  6  7  1  0
  7  8  1  0
  8  9  1  0
  9 10  1  0
 11 10  1  1
 11 12  1  0
 12 13  1  0
 13 14  2  0
 14 15  1  0
 15 16  1  0
 15 17  2  0
 17 18  1  0
 18 19  1  0
 19 20  2  0
 19 21  1  0
 21 22  1  0
 22 23  2  0
 23 24  1  0
 24 25  2  0
 25 26  1  0
 26 27  2  0
 26 28  1  0
 28 29  1  0
 29 30  1  0
 18 31  2  0
 31 32  1  0
 11  6  1  0
 31 13  1  0
 32 11  1  0
 27 22  1  0
 30 25  1  0
M  END
>  <smiles>  (1092) 
C107192-P163

>  <fragmenstein_outcome>  (1092) 
acceptable

>  <inchikey>  (1092) 
TYLYQHCVNAUEJP-UHFFFAOYSA-N

>  <fragmenstein_mode>  (1092) 
expansion

>  <HIPPO Pose ID>  (1092) 
20302

>  <Energy>  (1092) 
32.603249

>  <fragmenstein_error>  (1092) 


>  <tags>  (1092) 
{'openbind_xx01zvns2b_c1_fragmenstein', 'fragmenstein_placed'}

>  <ref_pdb>  (1092) 
1

>  <scratch_subdir>  (1092) 
/opt/xchem-fragalysis-2/maxwin/BulkDock/SCRATCH/511027/C107192-P163

>  <alias>  (1092) 
CS(=O)(=O)C[C@H]1CCCC[C@]12Nc1cc(F)cc(C(=O)Nc3ccc4c(c3)CNC4)c1N2

>  <HIPPO Compound ID>  (1092) 
107192

>  <fragmenstein_runtime>  (1092) 
5.106304

$$$$
CC(C)(c1nc2cc(F)cc(C(=O)Nc3ccc4c(c3)CNC4)c2n1OCCCO)S(C)(=O)=O
     RDKit          3D

 34 37  0  0  0  0  0  0  0  0999 V2000
   -4.0436    9.0253  -16.5796 C   0  0  0  0  0  0  0  0  0  0  0  0
   -3.6679    7.5794  -16.9424 C   0  0  0  0  0  0  0  0  0  0  0  0
   -2.4479    7.1339  -16.1197 C   0  0  0  0  0  0  0  0  0  0  0  0
   -4.8625    6.6722  -16.7712 C   0  0  0  0  0  0  0  0  0  0  0  0
   -5.5859    6.1578  -17.7447 N   0  0  0  0  0  0  0  0  0  0  0  0
   -6.6554    5.5359  -17.1622 C   0  0  0  0  0  0  0  0  0  0  0  0
   -7.7142    4.8582  -17.7750 C   0  0  0  0  0  0  0  0  0  0  0  0
   -8.7338    4.3710  -16.9639 C   0  0  0  0  0  0  0  0  0  0  0  0
   -9.7650    3.7326  -17.5329 F   0  0  0  0  0  0  0  0  0  0  0  0
   -8.7320    4.5634  -15.5857 C   0  0  0  0  0  0  0  0  0  0  0  0
   -7.6806    5.2519  -14.9634 C   0  0  0  0  0  0  0  0  0  0  0  0
   -7.7454    5.6401  -13.5336 C   0  0  0  0  0  0  0  0  0  0  0  0
   -7.4611    6.7397  -13.2621 O   0  0  0  0  0  0  0  0  0  0  0  0
   -8.1975    4.4709  -12.6311 N   0  0  0  0  0  0  0  0  0  0  0  0
   -8.2997    4.3852  -11.2429 C   0  0  0  0  0  0  0  0  0  0  0  0
   -8.1283    5.5232  -10.4338 C   0  0  0  0  0  0  0  0  0  0  0  0
   -8.2597    5.4461   -9.0437 C   0  0  0  0  0  0  0  0  0  0  0  0
   -8.5866    4.2241   -8.4901 C   0  0  0  0  0  0  0  0  0  0  0  0
   -8.7480    3.0941   -9.2872 C   0  0  0  0  0  0  0  0  0  0  0  0
   -8.5999    3.1510  -10.6635 C   0  0  0  0  0  0  0  0  0  0  0  0
   -9.0749    1.9279   -8.4145 C   0  0  0  0  0  0  0  0  0  0  0  0
   -9.4774    2.5226   -7.1117 N   0  0  0  0  0  0  0  0  0  0  0  0
   -8.8318    3.8531   -7.0662 C   0  0  0  0  0  0  0  0  0  0  0  0
   -6.6270    5.6949  -15.7814 C   0  0  0  0  0  0  0  0  0  0  0  0
   -5.4255    6.3285  -15.5573 N   0  0  0  0  0  0  0  0  0  0  0  0
   -4.9096    6.6887  -14.3117 O   0  0  0  0  0  0  0  0  0  0  0  0
   -4.3147    5.5485  -13.6842 C   0  0  0  0  0  0  0  0  0  0  0  0
   -3.6152    5.9910  -12.4006 C   0  0  0  0  0  0  0  0  0  0  0  0
   -4.5825    6.4688  -11.3227 C   0  0  0  0  0  0  0  0  0  0  0  0
   -5.2288    7.6756  -11.6977 O   0  0  0  0  0  0  0  0  0  0  0  0
   -3.1287    7.5192  -18.7207 S   0  0  0  0  0  0  0  0  0  0  0  0
   -4.5375    7.8799  -19.7562 C   0  0  0  0  0  0  0  0  0  0  0  0
   -2.6723    6.1777  -19.0478 O   0  0  0  0  0  0  0  0  0  0  0  0
   -2.2079    8.6300  -18.9234 O   0  0  0  0  0  0  0  0  0  0  0  0
  1  2  1  0
  2  3  1  0
  2  4  1  0
  4  5  2  0
  5  6  1  0
  6  7  2  0
  7  8  1  0
  8  9  1  0
  8 10  2  0
 10 11  1  0
 11 12  1  0
 12 13  2  0
 12 14  1  0
 14 15  1  0
 15 16  2  0
 16 17  1  0
 17 18  2  0
 18 19  1  0
 19 20  2  0
 19 21  1  0
 21 22  1  0
 22 23  1  0
 11 24  2  0
 24 25  1  0
 25 26  1  0
 26 27  1  0
 27 28  1  0
 28 29  1  0
 29 30  1  0
  2 31  1  0
 31 32  1  0
 31 33  2  0
 31 34  2  0
 25  4  1  0
 24  6  1  0
 20 15  1  0
 23 18  1  0
M  END
>  <smiles>  (1093) 
C107210-P163

>  <fragmenstein_outcome>  (1093) 
acceptable

>  <inchikey>  (1093) 
WSMIKPJDVRZLIW-UHFFFAOYSA-N

>  <fragmenstein_mode>  (1093) 
expansion

>  <HIPPO Pose ID>  (1093) 
20312

>  <Energy>  (1093) 
37.296187

>  <fragmenstein_error>  (1093) 


>  <tags>  (1093) 
{'openbind_xx01zvns2b_c1_fragmenstein', 'fragmenstein_placed'}

>  <ref_pdb>  (1093) 
1

>  <scratch_subdir>  (1093) 
/opt/xchem-fragalysis-2/maxwin/BulkDock/SCRATCH/511027/C107210-P163

>  <alias>  (1093) 
CC(C)(c1nc2cc(F)cc(C(=O)Nc3ccc4c(c3)CNC4)c2n1OCCCO)S(C)(=O)=O

>  <HIPPO Compound ID>  (1093) 
107210

>  <fragmenstein_runtime>  (1093) 
4.298092

$$$$
CN[C@H]([C@@H](NC)c1nc2c(C(=O)Nc3ccc4c(c3)CNC4)cc(F)cc2[nH]1)S(C)(=O)=O
     RDKit          3D

 32 35  0  0  0  0  0  0  0  0999 V2000
   -2.2115    7.1244  -15.2642 C   0  0  0  0  0  0  0  0  0  0  0  0
   -3.1682    8.2243  -15.3563 N   0  0  0  0  0  0  0  0  0  0  0  0
   -4.0043    8.1222  -16.5961 C   0  0  1  0  0  0  0  0  0  0  0  0
   -5.0808    7.0845  -16.3895 C   0  0  0  0  0  0  0  0  0  0  0  0
   -5.6583    6.7794  -15.2437 N   0  0  0  0  0  0  0  0  0  0  0  0
   -6.7011    5.9310  -15.5511 C   0  0  0  0  0  0  0  0  0  0  0  0
   -7.7172    5.3699  -14.7468 C   0  0  0  0  0  0  0  0  0  0  0  0
   -7.8103    5.7423  -13.3093 C   0  0  0  0  0  0  0  0  0  0  0  0
   -7.6867    6.8705  -13.0284 O   0  0  0  0  0  0  0  0  0  0  0  0
   -8.1199    4.5109  -12.4153 N   0  0  0  0  0  0  0  0  0  0  0  0
   -8.2424    4.4051  -11.0272 C   0  0  0  0  0  0  0  0  0  0  0  0
   -8.0570    5.5196  -10.1916 C   0  0  0  0  0  0  0  0  0  0  0  0
   -8.2092    5.4150   -8.8028 C   0  0  0  0  0  0  0  0  0  0  0  0
   -8.5566    4.1871   -8.2710 C   0  0  0  0  0  0  0  0  0  0  0  0
   -8.7342    3.0808   -9.0922 C   0  0  0  0  0  0  0  0  0  0  0  0
   -8.5732    3.1662  -10.4691 C   0  0  0  0  0  0  0  0  0  0  0  0
   -9.0924    1.8988   -8.2573 C   0  0  0  0  0  0  0  0  0  0  0  0
   -9.3166    2.4165   -6.8845 N   0  0  0  0  0  0  0  0  0  0  0  0
   -8.8065    3.8015   -6.8528 C   0  0  0  0  0  0  0  0  0  0  0  0
   -8.6952    4.5733  -15.3625 C   0  0  0  0  0  0  0  0  0  0  0  0
   -8.6469    4.3373  -16.7344 C   0  0  0  0  0  0  0  0  0  0  0  0
   -9.6113    3.6043  -17.3066 F   0  0  0  0  0  0  0  0  0  0  0  0
   -7.6444    4.8587  -17.5476 C   0  0  0  0  0  0  0  0  0  0  0  0
   -6.6955    5.6590  -16.9184 C   0  0  0  0  0  0  0  0  0  0  0  0
   -5.6389    6.3714  -17.4203 N   0  0  0  0  0  0  0  0  0  0  0  0
   -4.6647    9.5212  -16.8918 C   0  0  1  0  0  0  0  0  0  0  0  0
   -3.7336   10.6423  -16.5140 N   0  0  0  0  0  0  0  0  0  0  0  0
   -4.4769   11.7718  -15.9658 C   0  0  0  0  0  0  0  0  0  0  0  0
   -5.2666    9.5416  -18.6492 S   0  0  0  0  0  0  0  0  0  0  0  0
   -4.2608   10.7640  -19.4581 C   0  0  0  0  0  0  0  0  0  0  0  0
   -4.9609    8.2731  -19.2932 O   0  0  0  0  0  0  0  0  0  0  0  0
   -6.6393   10.0279  -18.6812 O   0  0  0  0  0  0  0  0  0  0  0  0
  1  2  1  0
  3  2  1  1
  3  4  1  0
  4  5  2  0
  5  6  1  0
  6  7  2  0
  7  8  1  0
  8  9  2  0
  8 10  1  0
 10 11  1  0
 11 12  2  0
 12 13  1  0
 13 14  2  0
 14 15  1  0
 15 16  2  0
 15 17  1  0
 17 18  1  0
 18 19  1  0
  7 20  1  0
 20 21  2  0
 21 22  1  0
 21 23  1  0
 23 24  2  0
 24 25  1  0
  3 26  1  0
 26 27  1  6
 27 28  1  0
 26 29  1  0
 29 30  1  0
 29 31  2  0
 29 32  2  0
 25  4  1  0
 24  6  1  0
 16 11  1  0
 19 14  1  0
M  END
>  <smiles>  (1094) 
C107230-P163

>  <fragmenstein_outcome>  (1094) 
acceptable

>  <inchikey>  (1094) 
WPMBZARABJUFTM-UHFFFAOYSA-N

>  <fragmenstein_mode>  (1094) 
expansion

>  <HIPPO Pose ID>  (1094) 
20324

>  <Energy>  (1094) 
131.543493

>  <fragmenstein_error>  (1094) 


>  <tags>  (1094) 
{'openbind_xx01zvns2b_c1_fragmenstein', 'fragmenstein_placed'}

>  <ref_pdb>  (1094) 
1

>  <scratch_subdir>  (1094) 
/opt/xchem-fragalysis-2/maxwin/BulkDock/SCRATCH/511027/C107230-P163

>  <alias>  (1094) 
CN[C@H]([C@@H](NC)c1nc2c(C(=O)Nc3ccc4c(c3)CNC4)cc(F)cc2[nH]1)S(C)(=O)=O

>  <HIPPO Compound ID>  (1094) 
72356

>  <fragmenstein_runtime>  (1094) 
3.185988

$$$$
CCN(C[C@](C)(NC)c1nc2c(C(=O)Nc3ccc4c(c3)CNC4)cc(F)c(NC=O)c2[nH]1)[S@@](C)=O
     RDKit          3D

 36 39  0  0  0  0  0  0  0  0999 V2000
   -4.0964    9.8697  -12.6820 C   0  0  0  0  0  0  0  0  0  0  0  0
   -3.4483    8.7842  -11.8265 C   0  0  0  0  0  0  0  0  0  0  0  0
   -2.8300    7.7015  -12.6255 N   0  0  0  0  0  0  0  0  0  0  0  0
   -3.8970    6.8176  -13.1854 C   0  0  0  0  0  0  0  0  0  0  0  0
   -3.5368    5.8192  -14.3734 C   0  0  2  0  0  0  0  0  0  0  0  0
   -2.8705    4.5512  -13.8107 C   0  0  0  0  0  0  0  0  0  0  0  0
   -2.6129    6.4025  -15.3712 N   0  0  0  0  0  0  0  0  0  0  0  0
   -3.1048    7.6148  -16.0057 C   0  0  0  0  0  0  0  0  0  0  0  0
   -4.8351    5.3696  -15.0250 C   0  0  0  0  0  0  0  0  0  0  0  0
   -5.9680    5.2073  -14.3870 N   0  0  0  0  0  0  0  0  0  0  0  0
   -6.8959    4.8927  -15.3374 C   0  0  0  0  0  0  0  0  0  0  0  0
   -8.2649    4.6693  -15.1823 C   0  0  0  0  0  0  0  0  0  0  0  0
   -8.8371    4.9524  -13.8632 C   0  0  0  0  0  0  0  0  0  0  0  0
   -9.5755    5.8508  -13.7587 O   0  0  0  0  0  0  0  0  0  0  0  0
   -8.2451    4.0152  -12.7918 N   0  0  0  0  0  0  0  0  0  0  0  0
   -8.3564    4.0425  -11.4129 C   0  0  0  0  0  0  0  0  0  0  0  0
   -8.3912    5.2625  -10.7224 C   0  0  0  0  0  0  0  0  0  0  0  0
   -8.4645    5.2807   -9.3264 C   0  0  0  0  0  0  0  0  0  0  0  0
   -8.5950    4.0721   -8.6638 C   0  0  0  0  0  0  0  0  0  0  0  0
   -8.6061    2.8729   -9.3624 C   0  0  0  0  0  0  0  0  0  0  0  0
   -8.4192    2.8331  -10.7309 C   0  0  0  0  0  0  0  0  0  0  0  0
   -8.8814    1.7459   -8.4321 C   0  0  0  0  0  0  0  0  0  0  0  0
   -9.0299    2.3456   -7.0795 N   0  0  0  0  0  0  0  0  0  0  0  0
   -8.7674    3.7960   -7.2107 C   0  0  0  0  0  0  0  0  0  0  0  0
   -9.0410    4.3529  -16.2911 C   0  0  0  0  0  0  0  0  0  0  0  0
   -8.4597    4.3512  -17.5515 C   0  0  0  0  0  0  0  0  0  0  0  0
   -9.2544    4.0876  -18.5994 F   0  0  0  0  0  0  0  0  0  0  0  0
   -7.1022    4.6658  -17.7575 C   0  0  0  0  0  0  0  0  0  0  0  0
   -6.6167    4.8140  -19.0519 N   0  0  0  0  0  0  0  0  0  0  0  0
   -5.2190    5.2400  -19.5576 C   0  0  0  0  0  0  0  0  0  0  0  0
   -4.2356    5.4583  -18.9685 O   0  0  0  0  0  0  0  0  0  0  0  0
   -6.3367    4.8683  -16.6063 C   0  0  0  0  0  0  0  0  0  0  0  0
   -5.0057    5.1036  -16.3683 N   0  0  0  0  0  0  0  0  0  0  0  0
   -1.4840    6.9518  -11.9406 S   0  0  0  0  0  0  0  0  0  0  0  0
   -0.3029    7.8998  -12.9393 C   0  0  0  0  0  0  0  0  0  0  0  0
   -1.2504    7.3271  -10.5081 O   0  0  0  0  0  0  0  0  0  0  0  0
  1  2  1  0
  2  3  1  0
  3  4  1  0
  4  5  1  0
  5  6  1  1
  5  7  1  0
  7  8  1  0
  5  9  1  0
  9 10  2  0
 10 11  1  0
 11 12  2  0
 12 13  1  0
 13 14  2  0
 13 15  1  0
 15 16  1  0
 16 17  2  0
 17 18  1  0
 18 19  2  0
 19 20  1  0
 20 21  2  0
 20 22  1  0
 22 23  1  0
 23 24  1  0
 12 25  1  0
 25 26  2  0
 26 27  1  0
 26 28  1  0
 28 29  1  0
 29 30  1  0
 30 31  2  0
 28 32  2  0
 32 33  1  0
  3 34  1  0
 34 35  1  6
 34 36  2  0
 33  9  1  0
 32 11  1  0
 21 16  1  0
 24 19  1  0
M  END
>  <smiles>  (1095) 
C107245-P164

>  <fragmenstein_outcome>  (1095) 
acceptable

>  <inchikey>  (1095) 
GXQFQUSXVFOMKW-UHFFFAOYSA-N

>  <fragmenstein_mode>  (1095) 
expansion

>  <HIPPO Pose ID>  (1095) 
20335

>  <Energy>  (1095) 
87.544599

>  <fragmenstein_error>  (1095) 


>  <tags>  (1095) 
{'openbind_xx01zvns2b_c1_fragmenstein', 'fragmenstein_placed'}

>  <ref_pdb>  (1095) 
1

>  <scratch_subdir>  (1095) 
/opt/xchem-fragalysis-2/maxwin/BulkDock/SCRATCH/511027/C107245-P164

>  <alias>  (1095) 
CCN(C[C@](C)(NC)c1nc2c(C(=O)Nc3ccc4c(c3)CNC4)cc(F)c(NC=O)c2[nH]1)[S@@](C)=O

>  <HIPPO Compound ID>  (1095) 
107245

>  <fragmenstein_runtime>  (1095) 
10.402905

$$$$
C[C@H](NCNS(C)(=O)=O)c1nc2cc(F)cc(C(=O)Nc3ccc4c(c3)CNC4)c2[nH]1
     RDKit          3D

 31 34  0  0  0  0  0  0  0  0999 V2000
   -2.9219    4.8770  -14.0422 C   0  0  0  0  0  0  0  0  0  0  0  0
   -3.3413    5.6058  -15.3175 C   0  0  2  0  0  0  0  0  0  0  0  0
   -3.2474    7.0510  -15.0723 N   0  0  0  0  0  0  0  0  0  0  0  0
   -4.0113    7.8864  -15.9869 C   0  0  0  0  0  0  0  0  0  0  0  0
   -3.6152    7.6927  -17.3704 N   0  0  0  0  0  0  0  0  0  0  0  0
   -4.1497    8.8593  -18.4647 S   0  0  0  0  0  0  0  0  0  0  0  0
   -2.9641   10.1622  -18.2054 C   0  0  0  0  0  0  0  0  0  0  0  0
   -3.9259    8.3322  -19.7912 O   0  0  0  0  0  0  0  0  0  0  0  0
   -5.4572    9.3277  -18.0549 O   0  0  0  0  0  0  0  0  0  0  0  0
   -4.7043    5.2050  -15.7903 C   0  0  0  0  0  0  0  0  0  0  0  0
   -5.0823    5.0188  -17.0461 N   0  0  0  0  0  0  0  0  0  0  0  0
   -6.4344    4.7656  -16.9910 C   0  0  0  0  0  0  0  0  0  0  0  0
   -7.3504    4.4413  -18.0028 C   0  0  0  0  0  0  0  0  0  0  0  0
   -8.6735    4.1939  -17.6260 C   0  0  0  0  0  0  0  0  0  0  0  0
   -9.5750    3.8193  -18.5439 F   0  0  0  0  0  0  0  0  0  0  0  0
   -9.1071    4.3411  -16.3142 C   0  0  0  0  0  0  0  0  0  0  0  0
   -8.2207    4.7399  -15.3243 C   0  0  0  0  0  0  0  0  0  0  0  0
   -8.6384    5.1445  -13.9733 C   0  0  0  0  0  0  0  0  0  0  0  0
   -9.0716    6.2149  -13.8203 O   0  0  0  0  0  0  0  0  0  0  0  0
   -8.3144    4.0450  -12.9500 N   0  0  0  0  0  0  0  0  0  0  0  0
   -8.3635    4.0612  -11.5609 C   0  0  0  0  0  0  0  0  0  0  0  0
   -8.3172    5.2757  -10.8549 C   0  0  0  0  0  0  0  0  0  0  0  0
   -8.3889    5.2937   -9.4582 C   0  0  0  0  0  0  0  0  0  0  0  0
   -8.5805    4.0916   -8.8031 C   0  0  0  0  0  0  0  0  0  0  0  0
   -8.6452    2.8924   -9.5062 C   0  0  0  0  0  0  0  0  0  0  0  0
   -8.4828    2.8515  -10.8794 C   0  0  0  0  0  0  0  0  0  0  0  0
   -8.9340    1.7793   -8.5538 C   0  0  0  0  0  0  0  0  0  0  0  0
   -9.3501    2.4482   -7.2916 N   0  0  0  0  0  0  0  0  0  0  0  0
   -8.7724    3.8082   -7.3513 C   0  0  0  0  0  0  0  0  0  0  0  0
   -6.8858    4.8843  -15.6830 C   0  0  0  0  0  0  0  0  0  0  0  0
   -5.7761    5.1738  -14.9433 N   0  0  0  0  0  0  0  0  0  0  0  0
  2  1  1  1
  2  3  1  0
  3  4  1  0
  4  5  1  0
  5  6  1  0
  6  7  1  0
  6  8  2  0
  6  9  2  0
  2 10  1  0
 10 11  2  0
 11 12  1  0
 12 13  2  0
 13 14  1  0
 14 15  1  0
 14 16  2  0
 16 17  1  0
 17 18  1  0
 18 19  2  0
 18 20  1  0
 20 21  1  0
 21 22  2  0
 22 23  1  0
 23 24  2  0
 24 25  1  0
 25 26  2  0
 25 27  1  0
 27 28  1  0
 28 29  1  0
 17 30  2  0
 30 31  1  0
 31 10  1  0
 30 12  1  0
 26 21  1  0
 29 24  1  0
M  END
>  <smiles>  (1096) 
C107272-P164

>  <fragmenstein_outcome>  (1096) 
acceptable

>  <inchikey>  (1096) 
FIODYFXLBIWUAG-UHFFFAOYSA-N

>  <fragmenstein_mode>  (1096) 
expansion

>  <HIPPO Pose ID>  (1096) 
20349

>  <Energy>  (1096) 
-102.777286

>  <fragmenstein_error>  (1096) 


>  <tags>  (1096) 
{'openbind_xx01zvns2b_c1_fragmenstein', 'fragmenstein_placed'}

>  <ref_pdb>  (1096) 
1

>  <scratch_subdir>  (1096) 
/opt/xchem-fragalysis-2/maxwin/BulkDock/SCRATCH/511027/C107272-P164

>  <alias>  (1096) 
C[C@H](NCNS(C)(=O)=O)c1nc2cc(F)cc(C(=O)Nc3ccc4c(c3)CNC4)c2[nH]1

>  <HIPPO Compound ID>  (1096) 
106026

>  <fragmenstein_runtime>  (1096) 
5.772048

$$$$
C[C@]1(S(C)(=O)=O)NCC[C@]12Nc1cc(F)cc(C(=O)Nc3ccc4c(c3)CNC4)c1N2
     RDKit          3D

 31 35  0  0  0  0  0  0  0  0999 V2000
   -2.6444    6.8797  -18.6987 C   0  0  0  0  0  0  0  0  0  0  0  0
   -3.2844    7.0172  -17.2801 C   0  0  2  0  0  0  0  0  0  0  0  0
   -4.1851    8.6140  -17.3229 S   0  0  0  0  0  0  0  0  0  0  0  0
   -4.7803    8.9193  -15.6789 C   0  0  0  0  0  0  0  0  0  0  0  0
   -5.3373    8.5602  -18.2032 O   0  0  0  0  0  0  0  0  0  0  0  0
   -3.1818    9.6467  -17.5496 O   0  0  0  0  0  0  0  0  0  0  0  0
   -2.1369    6.9849  -16.2877 N   0  0  0  0  0  0  0  0  0  0  0  0
   -1.8263    5.5772  -16.0969 C   0  0  0  0  0  0  0  0  0  0  0  0
   -2.9858    4.7717  -16.6694 C   0  0  0  0  0  0  0  0  0  0  0  0
   -4.1412    5.7654  -16.9367 C   0  0  2  0  0  0  0  0  0  0  0  0
   -5.0089    5.3062  -18.0422 N   0  0  0  0  0  0  0  0  0  0  0  0
   -6.2480    5.0085  -17.4231 C   0  0  0  0  0  0  0  0  0  0  0  0
   -7.3829    4.4950  -18.0288 C   0  0  0  0  0  0  0  0  0  0  0  0
   -8.5041    4.2724  -17.2309 C   0  0  0  0  0  0  0  0  0  0  0  0
   -9.6210    3.7646  -17.7724 F   0  0  0  0  0  0  0  0  0  0  0  0
   -8.4992    4.5781  -15.8660 C   0  0  0  0  0  0  0  0  0  0  0  0
   -7.3469    5.1208  -15.2790 C   0  0  0  0  0  0  0  0  0  0  0  0
   -7.3314    5.5334  -13.8549 C   0  0  0  0  0  0  0  0  0  0  0  0
   -6.9245    6.6014  -13.6013 O   0  0  0  0  0  0  0  0  0  0  0  0
   -7.9317    4.4403  -12.9311 N   0  0  0  0  0  0  0  0  0  0  0  0
   -8.0628    4.3994  -11.5445 C   0  0  0  0  0  0  0  0  0  0  0  0
   -7.6946    5.4992  -10.7542 C   0  0  0  0  0  0  0  0  0  0  0  0
   -7.8297    5.4614   -9.3635 C   0  0  0  0  0  0  0  0  0  0  0  0
   -8.3209    4.3072   -8.7844 C   0  0  0  0  0  0  0  0  0  0  0  0
   -8.6842    3.2151   -9.5612 C   0  0  0  0  0  0  0  0  0  0  0  0
   -8.5721    3.2436  -10.9440 C   0  0  0  0  0  0  0  0  0  0  0  0
   -9.1968    2.1311   -8.6768 C   0  0  0  0  0  0  0  0  0  0  0  0
   -8.9870    2.5918   -7.2790 N   0  0  0  0  0  0  0  0  0  0  0  0
   -8.5809    4.0107   -7.3485 C   0  0  0  0  0  0  0  0  0  0  0  0
   -6.2290    5.3506  -16.0751 C   0  0  0  0  0  0  0  0  0  0  0  0
   -4.9373    5.7626  -15.6989 N   0  0  0  0  0  0  0  0  0  0  0  0
  2  1  1  6
  2  3  1  0
  3  4  1  0
  3  5  2  0
  3  6  2  0
  2  7  1  0
  7  8  1  0
  8  9  1  0
 10  9  1  1
 10 11  1  0
 11 12  1  0
 12 13  2  0
 13 14  1  0
 14 15  1  0
 14 16  2  0
 16 17  1  0
 17 18  1  0
 18 19  2  0
 18 20  1  0
 20 21  1  0
 21 22  2  0
 22 23  1  0
 23 24  2  0
 24 25  1  0
 25 26  2  0
 25 27  1  0
 27 28  1  0
 28 29  1  0
 17 30  2  0
 30 31  1  0
 10  2  1  0
 30 12  1  0
 31 10  1  0
 26 21  1  0
 29 24  1  0
M  END
>  <smiles>  (1097) 
C17999-P175

>  <fragmenstein_outcome>  (1097) 
acceptable

>  <inchikey>  (1097) 
XVFGCYYFPXNIEY-UHFFFAOYSA-N

>  <fragmenstein_mode>  (1097) 
expansion

>  <HIPPO Pose ID>  (1097) 
20350

>  <Energy>  (1097) 
151.425239

>  <fragmenstein_error>  (1097) 


>  <tags>  (1097) 
{'openbind_xx01zvns2b_c1_fragmenstein', 'fragmenstein_placed'}

>  <ref_pdb>  (1097) 
175

>  <scratch_subdir>  (1097) 
/opt/xchem-fragalysis-2/maxwin/BulkDock/SCRATCH/511028/C17999-P175

>  <alias>  (1097) 
C[C@]1(S(C)(=O)=O)NCC[C@]12Nc1cc(F)cc(C(=O)Nc3ccc4c(c3)CNC4)c1N2

>  <HIPPO Compound ID>  (1097) 
19516

>  <fragmenstein_runtime>  (1097) 
7.890422

$$$$
CNCn1c(C(C)(C)S(C)(=O)=O)nc2c(C(=O)Nc3ccc4c(c3)[C@@H](N)NC4)cc(F)cc21
     RDKit          3D

 33 36  0  0  0  0  0  0  0  0999 V2000
   -4.1386    6.8052  -21.4219 C   0  0  0  0  0  0  0  0  0  0  0  0
   -4.8862    6.7663  -20.1763 N   0  0  0  0  0  0  0  0  0  0  0  0
   -5.0295    5.4247  -19.6360 C   0  0  0  0  0  0  0  0  0  0  0  0
   -5.3771    5.4837  -18.2108 N   0  0  0  0  0  0  0  0  0  0  0  0
   -4.5748    5.8675  -17.1421 C   0  0  0  0  0  0  0  0  0  0  0  0
   -3.1649    6.4128  -17.1187 C   0  0  0  0  0  0  0  0  0  0  0  0
   -2.2488    5.9595  -18.2562 C   0  0  0  0  0  0  0  0  0  0  0  0
   -2.4664    5.9834  -15.8073 C   0  0  0  0  0  0  0  0  0  0  0  0
   -3.3406    8.2400  -17.1426 S   0  0  0  0  0  0  0  0  0  0  0  0
   -4.1872    8.7152  -15.6470 C   0  0  0  0  0  0  0  0  0  0  0  0
   -4.2031    8.6157  -18.2532 O   0  0  0  0  0  0  0  0  0  0  0  0
   -2.0082    8.8163  -17.0805 O   0  0  0  0  0  0  0  0  0  0  0  0
   -5.2449    5.7521  -16.0128 N   0  0  0  0  0  0  0  0  0  0  0  0
   -6.4767    5.2581  -16.3013 C   0  0  0  0  0  0  0  0  0  0  0  0
   -7.5628    4.9874  -15.4416 C   0  0  0  0  0  0  0  0  0  0  0  0
   -7.4969    5.4791  -14.0383 C   0  0  0  0  0  0  0  0  0  0  0  0
   -7.0772    6.5573  -13.8674 O   0  0  0  0  0  0  0  0  0  0  0  0
   -7.9670    4.4101  -13.0173 N   0  0  0  0  0  0  0  0  0  0  0  0
   -8.1023    4.4795  -11.6283 C   0  0  0  0  0  0  0  0  0  0  0  0
   -7.6887    5.6234  -10.9229 C   0  0  0  0  0  0  0  0  0  0  0  0
   -7.7819    5.6941   -9.5273 C   0  0  0  0  0  0  0  0  0  0  0  0
   -8.3194    4.6177   -8.8546 C   0  0  0  0  0  0  0  0  0  0  0  0
   -8.7656    3.5003   -9.5487 C   0  0  0  0  0  0  0  0  0  0  0  0
   -8.6438    3.3979  -10.9315 C   0  0  0  0  0  0  0  0  0  0  0  0
   -9.4049    2.5693   -8.5836 C   0  0  1  0  0  0  0  0  0  0  0  0
   -8.6926    1.3635   -8.4217 N   0  0  0  0  0  0  0  0  0  0  0  0
   -9.3418    3.1905   -7.2629 N   0  0  0  0  0  0  0  0  0  0  0  0
   -8.5380    4.4164   -7.3931 C   0  0  0  0  0  0  0  0  0  0  0  0
   -8.7043    4.3845  -15.9742 C   0  0  0  0  0  0  0  0  0  0  0  0
   -8.7544    4.1021  -17.3363 C   0  0  0  0  0  0  0  0  0  0  0  0
   -9.8550    3.5304  -17.8398 F   0  0  0  0  0  0  0  0  0  0  0  0
   -7.7131    4.4154  -18.2136 C   0  0  0  0  0  0  0  0  0  0  0  0
   -6.5707    5.0107  -17.6683 C   0  0  0  0  0  0  0  0  0  0  0  0
  1  2  1  0
  2  3  1  0
  3  4  1  0
  4  5  1  0
  5  6  1  0
  6  7  1  0
  6  8  1  0
  6  9  1  0
  9 10  1  0
  9 11  2  0
  9 12  2  0
  5 13  2  0
 13 14  1  0
 14 15  2  0
 15 16  1  0
 16 17  2  0
 16 18  1  0
 18 19  1  0
 19 20  2  0
 20 21  1  0
 21 22  2  0
 22 23  1  0
 23 24  2  0
 23 25  1  0
 25 26  1  1
 25 27  1  0
 27 28  1  0
 15 29  1  0
 29 30  2  0
 30 31  1  0
 30 32  1  0
 32 33  2  0
 33  4  1  0
 33 14  1  0
 24 19  1  0
 28 22  1  0
M  END
>  <smiles>  (1098) 
C18011-P175

>  <fragmenstein_outcome>  (1098) 
acceptable

>  <inchikey>  (1098) 
HYPGHBIRDABGAR-UHFFFAOYSA-N

>  <fragmenstein_mode>  (1098) 
expansion

>  <HIPPO Pose ID>  (1098) 
20351

>  <Energy>  (1098) 
16.179088

>  <fragmenstein_error>  (1098) 


>  <tags>  (1098) 
{'openbind_xx01zvns2b_c1_fragmenstein', 'fragmenstein_placed'}

>  <ref_pdb>  (1098) 
175

>  <scratch_subdir>  (1098) 
/opt/xchem-fragalysis-2/maxwin/BulkDock/SCRATCH/511028/C18011-P175

>  <alias>  (1098) 
CNCn1c(C(C)(C)S(C)(=O)=O)nc2c(C(=O)Nc3ccc4c(c3)[C@@H](N)NC4)cc(F)cc21

>  <HIPPO Compound ID>  (1098) 
33064

>  <fragmenstein_runtime>  (1098) 
7.388876

$$$$
O=C(Nc1ccc2c(c1)CNC2)c1cc(Br)c2[nH]cc(C3CCNCC3)c2c1
     RDKit          3D

 28 32  0  0  0  0  0  0  0  0999 V2000
   -6.8306    6.4373  -12.9445 O   0  0  0  0  0  0  0  0  0  0  0  0
   -7.2256    5.3863  -13.2675 C   0  0  0  0  0  0  0  0  0  0  0  0
   -7.8828    4.2629  -12.4331 N   0  0  0  0  0  0  0  0  0  0  0  0
   -8.0975    4.1629  -11.0605 C   0  0  0  0  0  0  0  0  0  0  0  0
   -7.9126    5.2773  -10.2259 C   0  0  0  0  0  0  0  0  0  0  0  0
   -8.1137    5.1817   -8.8461 C   0  0  0  0  0  0  0  0  0  0  0  0
   -8.4937    3.9595   -8.3247 C   0  0  0  0  0  0  0  0  0  0  0  0
   -8.6761    2.8548   -9.1483 C   0  0  0  0  0  0  0  0  0  0  0  0
   -8.4954    2.9379  -10.5207 C   0  0  0  0  0  0  0  0  0  0  0  0
   -9.0102    1.6679   -8.3096 C   0  0  0  0  0  0  0  0  0  0  0  0
   -9.2783    2.1937   -6.9466 N   0  0  0  0  0  0  0  0  0  0  0  0
   -8.7438    3.5700   -6.9079 C   0  0  0  0  0  0  0  0  0  0  0  0
   -7.1698    5.0415  -14.7118 C   0  0  0  0  0  0  0  0  0  0  0  0
   -8.2960    4.5580  -15.3682 C   0  0  0  0  0  0  0  0  0  0  0  0
   -8.2880    4.4507  -16.7569 C   0  0  0  0  0  0  0  0  0  0  0  0
   -9.8545    4.0302  -17.6672 Br  0  0  0  0  0  0  0  0  0  0  0  0
   -7.1458    4.8019  -17.4737 C   0  0  0  0  0  0  0  0  0  0  0  0
   -6.9090    4.8486  -18.8298 N   0  0  0  0  0  0  0  0  0  0  0  0
   -5.6360    5.2961  -19.0618 C   0  0  0  0  0  0  0  0  0  0  0  0
   -5.0412    5.5644  -17.8443 C   0  0  0  0  0  0  0  0  0  0  0  0
   -3.6801    6.1305  -17.5847 C   0  0  0  0  0  0  0  0  0  0  0  0
   -3.6651    7.6572  -17.7791 C   0  0  0  0  0  0  0  0  0  0  0  0
   -2.3043    8.1669  -18.2468 C   0  0  0  0  0  0  0  0  0  0  0  0
   -1.2115    7.4493  -17.5996 N   0  0  0  0  0  0  0  0  0  0  0  0
   -1.2047    6.0248  -17.9630 C   0  0  0  0  0  0  0  0  0  0  0  0
   -2.5661    5.4596  -18.3823 C   0  0  0  0  0  0  0  0  0  0  0  0
   -6.0008    5.2585  -16.8331 C   0  0  0  0  0  0  0  0  0  0  0  0
   -6.0155    5.3860  -15.4289 C   0  0  0  0  0  0  0  0  0  0  0  0
  1  2  2  0
  2  3  1  0
  3  4  1  0
  4  5  2  0
  5  6  1  0
  6  7  2  0
  7  8  1  0
  8  9  2  0
  8 10  1  0
 10 11  1  0
 11 12  1  0
  2 13  1  0
 13 14  2  0
 14 15  1  0
 15 16  1  0
 15 17  2  0
 17 18  1  0
 18 19  1  0
 19 20  2  0
 20 21  1  0
 21 22  1  0
 22 23  1  0
 23 24  1  0
 24 25  1  0
 25 26  1  0
 20 27  1  0
 27 28  2  0
  9  4  1  0
 28 13  1  0
 12  7  1  0
 27 17  1  0
 26 21  1  0
M  END
>  <smiles>  (1099) 
C18030-P176

>  <fragmenstein_outcome>  (1099) 
acceptable

>  <inchikey>  (1099) 
CLJQVLFIRBDKLD-UHFFFAOYSA-N

>  <fragmenstein_mode>  (1099) 
expansion

>  <HIPPO Pose ID>  (1099) 
20359

>  <Energy>  (1099) 
45.348211

>  <fragmenstein_error>  (1099) 


>  <tags>  (1099) 
{'openbind_xx01zvns2b_c1_fragmenstein', 'fragmenstein_placed'}

>  <ref_pdb>  (1099) 
175

>  <scratch_subdir>  (1099) 
/opt/xchem-fragalysis-2/maxwin/BulkDock/SCRATCH/511028/C18030-P176

>  <alias>  (1099) 
O=C(Nc1ccc2c(c1)CNC2)c1cc(Br)c2[nH]cc(C3CCNCC3)c2c1

>  <HIPPO Compound ID>  (1099) 
18030

>  <fragmenstein_runtime>  (1099) 
4.458163

$$$$
C=Cc1cc(C(=O)Nc2ccc3c(c2)CNC3)c(C)c2c(C3CCNCC3)c[nH]c12
     RDKit          3D

 30 34  0  0  0  0  0  0  0  0999 V2000
  -10.5568    4.2547  -17.6173 C   0  0  0  0  0  0  0  0  0  0  0  0
   -9.3896    3.6144  -17.5877 C   0  0  0  0  0  0  0  0  0  0  0  0
   -8.2868    4.2266  -16.8813 C   0  0  0  0  0  0  0  0  0  0  0  0
   -8.3312    4.4364  -15.5050 C   0  0  0  0  0  0  0  0  0  0  0  0
   -7.2747    5.0683  -14.8614 C   0  0  0  0  0  0  0  0  0  0  0  0
   -7.4801    5.4730  -13.4405 C   0  0  0  0  0  0  0  0  0  0  0  0
   -7.3439    6.5982  -13.1589 O   0  0  0  0  0  0  0  0  0  0  0  0
   -7.8824    4.2633  -12.5668 N   0  0  0  0  0  0  0  0  0  0  0  0
   -8.1011    4.1714  -11.1936 C   0  0  0  0  0  0  0  0  0  0  0  0
   -8.0064    5.3068  -10.3706 C   0  0  0  0  0  0  0  0  0  0  0  0
   -8.2193    5.2157   -8.9916 C   0  0  0  0  0  0  0  0  0  0  0  0
   -8.5519    3.9831   -8.4652 C   0  0  0  0  0  0  0  0  0  0  0  0
   -8.6525    2.8575   -9.2785 C   0  0  0  0  0  0  0  0  0  0  0  0
   -8.4211    2.9282  -10.6425 C   0  0  0  0  0  0  0  0  0  0  0  0
   -9.0024    1.6802   -8.4303 C   0  0  0  0  0  0  0  0  0  0  0  0
   -9.4848    2.2589   -7.1484 N   0  0  0  0  0  0  0  0  0  0  0  0
   -8.8462    3.5909   -7.0560 C   0  0  0  0  0  0  0  0  0  0  0  0
   -6.1025    5.4483  -15.5595 C   0  0  0  0  0  0  0  0  0  0  0  0
   -4.9559    6.0562  -14.8026 C   0  0  0  0  0  0  0  0  0  0  0  0
   -6.0893    5.2888  -16.9782 C   0  0  0  0  0  0  0  0  0  0  0  0
   -5.1666    5.6474  -18.0272 C   0  0  0  0  0  0  0  0  0  0  0  0
   -3.8360    6.3209  -17.8596 C   0  0  0  0  0  0  0  0  0  0  0  0
   -3.5521    7.4177  -18.8829 C   0  0  0  0  0  0  0  0  0  0  0  0
   -2.2679    8.1633  -18.4986 C   0  0  0  0  0  0  0  0  0  0  0  0
   -1.2812    7.3372  -17.7952 N   0  0  0  0  0  0  0  0  0  0  0  0
   -1.3433    5.9398  -18.2128 C   0  0  0  0  0  0  0  0  0  0  0  0
   -2.6793    5.3085  -17.8202 C   0  0  0  0  0  0  0  0  0  0  0  0
   -5.7445    5.2696  -19.2228 C   0  0  0  0  0  0  0  0  0  0  0  0
   -6.9684    4.7256  -18.9592 N   0  0  0  0  0  0  0  0  0  0  0  0
   -7.1876    4.6919  -17.6016 C   0  0  0  0  0  0  0  0  0  0  0  0
  1  2  2  0
  2  3  1  0
  3  4  2  0
  4  5  1  0
  5  6  1  0
  6  7  2  0
  6  8  1  0
  8  9  1  0
  9 10  2  0
 10 11  1  0
 11 12  2  0
 12 13  1  0
 13 14  2  0
 13 15  1  0
 15 16  1  0
 16 17  1  0
  5 18  2  0
 18 19  1  0
 18 20  1  0
 20 21  1  0
 21 22  1  0
 22 23  1  0
 23 24  1  0
 24 25  1  0
 25 26  1  0
 26 27  1  0
 21 28  2  0
 28 29  1  0
 29 30  1  0
 30  3  1  0
 14  9  1  0
 30 20  2  0
 17 12  1  0
 27 22  1  0
M  END
>  <smiles>  (1100) 
C18031-P176

>  <fragmenstein_outcome>  (1100) 
acceptable

>  <inchikey>  (1100) 
SHSOKTVLUHUISJ-UHFFFAOYSA-N

>  <fragmenstein_mode>  (1100) 
expansion

>  <HIPPO Pose ID>  (1100) 
20360

>  <Energy>  (1100) 
62.865134

>  <fragmenstein_error>  (1100) 


>  <tags>  (1100) 
{'openbind_xx01zvns2b_c1_fragmenstein', 'fragmenstein_placed'}

>  <ref_pdb>  (1100) 
175

>  <scratch_subdir>  (1100) 
/opt/xchem-fragalysis-2/maxwin/BulkDock/SCRATCH/511028/C18031-P176

>  <alias>  (1100) 
C=Cc1cc(C(=O)Nc2ccc3c(c2)CNC3)c(C)c2c(C3CCNCC3)c[nH]c12

>  <HIPPO Compound ID>  (1100) 
18031

>  <fragmenstein_runtime>  (1100) 
11.551574

$$$$
O=C(Nc1ccc2c(c1)CNC2)c1ccc2[nH]cc([C@H]3CCNC[C@@H]3C[SH](=O)=O)c2c1
     RDKit          3D

 31 35  0  0  0  0  0  0  0  0999 V2000
   -7.8108    6.6023  -13.4017 O   0  0  0  0  0  0  0  0  0  0  0  0
   -7.9534    5.4708  -13.6533 C   0  0  0  0  0  0  0  0  0  0  0  0
   -8.2387    4.2655  -12.7261 N   0  0  0  0  0  0  0  0  0  0  0  0
   -8.3110    4.1897  -11.3340 C   0  0  0  0  0  0  0  0  0  0  0  0
   -8.1272    5.3319  -10.5375 C   0  0  0  0  0  0  0  0  0  0  0  0
   -8.2039    5.2559   -9.1427 C   0  0  0  0  0  0  0  0  0  0  0  0
   -8.4811    4.0297   -8.5672 C   0  0  0  0  0  0  0  0  0  0  0  0
   -8.6590    2.8956   -9.3499 C   0  0  0  0  0  0  0  0  0  0  0  0
   -8.5686    2.9532  -10.7335 C   0  0  0  0  0  0  0  0  0  0  0  0
   -8.9198    1.7227   -8.4650 C   0  0  0  0  0  0  0  0  0  0  0  0
   -9.1239    2.2768   -7.1020 N   0  0  0  0  0  0  0  0  0  0  0  0
   -8.6362    3.6710   -7.1290 C   0  0  0  0  0  0  0  0  0  0  0  0
   -7.8131    5.0494  -15.0750 C   0  0  0  0  0  0  0  0  0  0  0  0
   -8.7587    4.2416  -15.6944 C   0  0  0  0  0  0  0  0  0  0  0  0
   -8.6827    3.9771  -17.0637 C   0  0  0  0  0  0  0  0  0  0  0  0
   -7.5921    4.4974  -17.7698 C   0  0  0  0  0  0  0  0  0  0  0  0
   -7.3070    4.4291  -19.1079 N   0  0  0  0  0  0  0  0  0  0  0  0
   -6.0873    4.9905  -19.3527 C   0  0  0  0  0  0  0  0  0  0  0  0
   -5.5864    5.5251  -18.1804 C   0  0  0  0  0  0  0  0  0  0  0  0
   -4.2277    6.1926  -18.1143 C   0  0  1  0  0  0  0  0  0  0  0  0
   -4.2532    7.5761  -18.7823 C   0  0  0  0  0  0  0  0  0  0  0  0
   -2.8423    8.1526  -18.8767 C   0  0  0  0  0  0  0  0  0  0  0  0
   -2.1957    8.2211  -17.5740 N   0  0  0  0  0  0  0  0  0  0  0  0
   -2.1496    6.9231  -16.9097 C   0  0  0  0  0  0  0  0  0  0  0  0
   -3.5661    6.3398  -16.7323 C   0  0  2  0  0  0  0  0  0  0  0  0
   -3.4833    5.0242  -15.9797 C   0  0  0  0  0  0  0  0  0  0  0  0
   -3.2383    5.2444  -14.2349 S   0  0  0  0  0  0  0  0  0  0  0  0
   -4.2568    6.1256  -13.7093 O   0  0  0  0  0  0  0  0  0  0  0  0
   -1.8272    5.4664  -13.9906 O   0  0  0  0  0  0  0  0  0  0  0  0
   -6.5835    5.2593  -17.1756 C   0  0  0  0  0  0  0  0  0  0  0  0
   -6.7405    5.5729  -15.8094 C   0  0  0  0  0  0  0  0  0  0  0  0
  1  2  2  0
  2  3  1  0
  3  4  1  0
  4  5  2  0
  5  6  1  0
  6  7  2  0
  7  8  1  0
  8  9  2  0
  8 10  1  0
 10 11  1  0
 11 12  1  0
  2 13  1  0
 13 14  2  0
 14 15  1  0
 15 16  2  0
 16 17  1  0
 17 18  1  0
 18 19  2  0
 20 19  1  1
 20 21  1  0
 21 22  1  0
 22 23  1  0
 23 24  1  0
 24 25  1  0
 25 26  1  6
 26 27  1  0
 27 28  2  0
 27 29  2  0
 19 30  1  0
 30 31  2  0
  9  4  1  0
 31 13  1  0
 12  7  1  0
 30 16  1  0
 25 20  1  0
M  END
>  <smiles>  (1101) 
C18041-P176

>  <fragmenstein_outcome>  (1101) 
acceptable

>  <inchikey>  (1101) 
JVEJBJTVGZSPNA-UHFFFAOYSA-N

>  <fragmenstein_mode>  (1101) 
expansion

>  <HIPPO Pose ID>  (1101) 
20362

>  <Energy>  (1101) 
47.373565

>  <fragmenstein_error>  (1101) 


>  <tags>  (1101) 
{'openbind_xx01zvns2b_c1_fragmenstein', 'fragmenstein_placed'}

>  <ref_pdb>  (1101) 
175

>  <scratch_subdir>  (1101) 
/opt/xchem-fragalysis-2/maxwin/BulkDock/SCRATCH/511028/C18041-P176

>  <alias>  (1101) 
O=C(Nc1ccc2c(c1)CNC2)c1ccc2[nH]cc([C@H]3CCNC[C@@H]3C[SH](=O)=O)c2c1

>  <HIPPO Compound ID>  (1101) 
18041

>  <fragmenstein_runtime>  (1101) 
5.376732

$$$$
Cc1cc(C(=O)Nc2ccc3c(c2)CNC3)c(O)c2c(C3CCNCC3)c[nH]c12
     RDKit          3D

 29 33  0  0  0  0  0  0  0  0999 V2000
   -9.4618    3.7430  -17.7132 C   0  0  0  0  0  0  0  0  0  0  0  0
   -8.3488    4.3168  -16.9006 C   0  0  0  0  0  0  0  0  0  0  0  0
   -8.4713    4.4205  -15.5004 C   0  0  0  0  0  0  0  0  0  0  0  0
   -7.4830    5.0398  -14.7394 C   0  0  0  0  0  0  0  0  0  0  0  0
   -7.6976    5.3873  -13.3118 C   0  0  0  0  0  0  0  0  0  0  0  0
   -7.4099    6.4774  -13.0027 O   0  0  0  0  0  0  0  0  0  0  0  0
   -8.1923    4.2033  -12.4567 N   0  0  0  0  0  0  0  0  0  0  0  0
   -8.3424    4.0838  -11.0760 C   0  0  0  0  0  0  0  0  0  0  0  0
   -8.1536    5.2068  -10.2488 C   0  0  0  0  0  0  0  0  0  0  0  0
   -8.2694    5.1097   -8.8604 C   0  0  0  0  0  0  0  0  0  0  0  0
   -8.5819    3.8784   -8.3210 C   0  0  0  0  0  0  0  0  0  0  0  0
   -8.7624    2.7642   -9.1341 C   0  0  0  0  0  0  0  0  0  0  0  0
   -8.6500    2.8454  -10.5148 C   0  0  0  0  0  0  0  0  0  0  0  0
   -9.0182    1.5733   -8.2739 C   0  0  0  0  0  0  0  0  0  0  0  0
   -9.2818    2.1062   -6.9135 N   0  0  0  0  0  0  0  0  0  0  0  0
   -8.7657    3.4893   -6.8941 C   0  0  0  0  0  0  0  0  0  0  0  0
   -6.3110    5.5173  -15.3497 C   0  0  0  0  0  0  0  0  0  0  0  0
   -5.3505    6.1697  -14.6018 O   0  0  0  0  0  0  0  0  0  0  0  0
   -6.1398    5.3894  -16.7457 C   0  0  0  0  0  0  0  0  0  0  0  0
   -5.1215    5.8200  -17.6666 C   0  0  0  0  0  0  0  0  0  0  0  0
   -3.8637    6.5507  -17.2636 C   0  0  0  0  0  0  0  0  0  0  0  0
   -3.6075    7.8460  -18.0395 C   0  0  0  0  0  0  0  0  0  0  0  0
   -2.7275    7.6524  -19.2620 C   0  0  0  0  0  0  0  0  0  0  0  0
   -1.5109    6.9106  -18.9442 N   0  0  0  0  0  0  0  0  0  0  0  0
   -1.8506    5.5667  -18.4698 C   0  0  0  0  0  0  0  0  0  0  0  0
   -2.6380    5.6360  -17.1708 C   0  0  0  0  0  0  0  0  0  0  0  0
   -5.5518    5.4579  -18.9272 C   0  0  0  0  0  0  0  0  0  0  0  0
   -6.7883    4.8758  -18.8137 N   0  0  0  0  0  0  0  0  0  0  0  0
   -7.1657    4.8062  -17.4878 C   0  0  0  0  0  0  0  0  0  0  0  0
  1  2  1  0
  2  3  2  0
  3  4  1  0
  4  5  1  0
  5  6  2  0
  5  7  1  0
  7  8  1  0
  8  9  2  0
  9 10  1  0
 10 11  2  0
 11 12  1  0
 12 13  2  0
 12 14  1  0
 14 15  1  0
 15 16  1  0
  4 17  2  0
 17 18  1  0
 17 19  1  0
 19 20  1  0
 20 21  1  0
 21 22  1  0
 22 23  1  0
 23 24  1  0
 24 25  1  0
 25 26  1  0
 20 27  2  0
 27 28  1  0
 28 29  1  0
 29  2  1  0
 13  8  1  0
 29 19  2  0
 16 11  1  0
 26 21  1  0
M  END
>  <smiles>  (1102) 
C18056-P176

>  <fragmenstein_outcome>  (1102) 
acceptable

>  <inchikey>  (1102) 
WNMIUXACIAGSSF-UHFFFAOYSA-N

>  <fragmenstein_mode>  (1102) 
expansion

>  <HIPPO Pose ID>  (1102) 
20366

>  <Energy>  (1102) 
61.371804

>  <fragmenstein_error>  (1102) 


>  <tags>  (1102) 
{'openbind_xx01zvns2b_c1_fragmenstein', 'fragmenstein_placed'}

>  <ref_pdb>  (1102) 
175

>  <scratch_subdir>  (1102) 
/opt/xchem-fragalysis-2/maxwin/BulkDock/SCRATCH/511028/C18056-P176

>  <alias>  (1102) 
Cc1cc(C(=O)Nc2ccc3c(c2)CNC3)c(O)c2c(C3CCNCC3)c[nH]c12

>  <HIPPO Compound ID>  (1102) 
18056

>  <fragmenstein_runtime>  (1102) 
5.357429

$$$$
Cc1cc2c(cc1NC(=O)c1ccc3c(c1)[C@]1(CN3)NCC[C@H]3CNCC[C@@H]31)CNC2
     RDKit          3D

 31 36  0  0  0  0  0  0  0  0999 V2000
   -7.9945    6.8756  -10.9018 C   0  0  0  0  0  0  0  0  0  0  0  0
   -8.0950    5.4534  -10.4300 C   0  0  0  0  0  0  0  0  0  0  0  0
   -8.2899    5.2785   -9.0419 C   0  0  0  0  0  0  0  0  0  0  0  0
   -8.5605    4.0194   -8.5472 C   0  0  0  0  0  0  0  0  0  0  0  0
   -8.6280    2.9247   -9.3934 C   0  0  0  0  0  0  0  0  0  0  0  0
   -8.3783    3.0548  -10.7511 C   0  0  0  0  0  0  0  0  0  0  0  0
   -8.0679    4.3225  -11.2817 C   0  0  0  0  0  0  0  0  0  0  0  0
   -7.7508    4.3406  -12.6518 N   0  0  0  0  0  0  0  0  0  0  0  0
   -7.0466    5.4250  -13.5089 C   0  0  0  0  0  0  0  0  0  0  0  0
   -6.5524    6.4377  -13.1940 O   0  0  0  0  0  0  0  0  0  0  0  0
   -7.0424    5.1063  -14.9664 C   0  0  0  0  0  0  0  0  0  0  0  0
   -8.1552    4.5314  -15.6107 C   0  0  0  0  0  0  0  0  0  0  0  0
   -8.1643    4.3927  -17.0028 C   0  0  0  0  0  0  0  0  0  0  0  0
   -7.0907    4.8905  -17.7252 C   0  0  0  0  0  0  0  0  0  0  0  0
   -5.9647    5.4448  -17.0890 C   0  0  0  0  0  0  0  0  0  0  0  0
   -5.9267    5.5343  -15.7086 C   0  0  0  0  0  0  0  0  0  0  0  0
   -4.8978    5.7477  -18.1249 C   0  0  2  0  0  0  0  0  0  0  0  0
   -5.8564    5.7737  -19.3764 C   0  0  0  0  0  0  0  0  0  0  0  0
   -6.9209    4.7833  -19.1239 N   0  0  0  0  0  0  0  0  0  0  0  0
   -4.0400    4.5583  -18.1695 N   0  0  0  0  0  0  0  0  0  0  0  0
   -2.8645    4.6664  -19.0086 C   0  0  0  0  0  0  0  0  0  0  0  0
   -1.8820    5.6131  -18.3482 C   0  0  0  0  0  0  0  0  0  0  0  0
   -2.5962    6.6355  -17.4509 C   0  0  1  0  0  0  0  0  0  0  0  0
   -1.6816    7.8416  -17.2819 C   0  0  0  0  0  0  0  0  0  0  0  0
   -2.3448    8.9142  -16.5527 N   0  0  0  0  0  0  0  0  0  0  0  0
   -3.5550    9.3412  -17.2519 C   0  0  0  0  0  0  0  0  0  0  0  0
   -4.5823    8.2148  -17.3485 C   0  0  0  0  0  0  0  0  0  0  0  0
   -3.9842    6.9981  -18.0513 C   0  0  2  0  0  0  0  0  0  0  0  0
   -8.9539    1.7119   -8.5843 C   0  0  0  0  0  0  0  0  0  0  0  0
   -9.4371    2.2350   -7.2779 N   0  0  0  0  0  0  0  0  0  0  0  0
   -8.8367    3.5798   -7.1490 C   0  0  0  0  0  0  0  0  0  0  0  0
  1  2  1  0
  2  3  2  0
  3  4  1  0
  4  5  2  0
  5  6  1  0
  6  7  2  0
  7  8  1  0
  8  9  1  0
  9 10  2  0
  9 11  1  0
 11 12  2  0
 12 13  1  0
 13 14  2  0
 14 15  1  0
 15 16  2  0
 15 17  1  0
 17 18  1  6
 18 19  1  0
 17 20  1  0
 20 21  1  0
 21 22  1  0
 23 22  1  6
 23 24  1  0
 24 25  1  0
 25 26  1  0
 26 27  1  0
 28 27  1  1
  5 29  1  0
 29 30  1  0
 30 31  1  0
  7  2  1  0
 16 11  1  0
 28 17  1  0
 31  4  1  0
 19 14  1  0
 28 23  1  0
M  END
>  <smiles>  (1103) 
C18063-P176

>  <fragmenstein_outcome>  (1103) 
acceptable

>  <inchikey>  (1103) 
AOOKYXQZMCVCHC-UHFFFAOYSA-N

>  <fragmenstein_mode>  (1103) 
expansion

>  <HIPPO Pose ID>  (1103) 
20367

>  <Energy>  (1103) 
107.547211

>  <fragmenstein_error>  (1103) 


>  <tags>  (1103) 
{'openbind_xx01zvns2b_c1_fragmenstein', 'fragmenstein_placed'}

>  <ref_pdb>  (1103) 
175

>  <scratch_subdir>  (1103) 
/opt/xchem-fragalysis-2/maxwin/BulkDock/SCRATCH/511028/C18063-P176

>  <alias>  (1103) 
Cc1cc2c(cc1NC(=O)c1ccc3c(c1)[C@]1(CN3)NCC[C@H]3CNCC[C@@H]31)CNC2

>  <HIPPO Compound ID>  (1103) 
18063

>  <fragmenstein_runtime>  (1103) 
7.170099

$$$$
Nc1[nH]c2cc(Cl)c(C(=O)Nc3ccc4c(c3)CNC4)cc2c1C1CCNCC1
     RDKit          3D

 29 33  0  0  0  0  0  0  0  0999 V2000
   -5.1733    5.5638  -20.3966 N   0  0  0  0  0  0  0  0  0  0  0  0
   -5.5512    5.3941  -19.1165 C   0  0  0  0  0  0  0  0  0  0  0  0
   -6.8037    4.9202  -18.8234 N   0  0  0  0  0  0  0  0  0  0  0  0
   -6.9733    4.8589  -17.4572 C   0  0  0  0  0  0  0  0  0  0  0  0
   -8.0800    4.4991  -16.6875 C   0  0  0  0  0  0  0  0  0  0  0  0
   -7.9611    4.6719  -15.2992 C   0  0  0  0  0  0  0  0  0  0  0  0
   -9.3769    4.5128  -14.3693 Cl  0  0  0  0  0  0  0  0  0  0  0  0
   -6.7780    5.0843  -14.6843 C   0  0  0  0  0  0  0  0  0  0  0  0
   -6.7059    5.3825  -13.2203 C   0  0  0  0  0  0  0  0  0  0  0  0
   -6.3074    6.4298  -12.8875 O   0  0  0  0  0  0  0  0  0  0  0  0
   -7.2949    4.2202  -12.3830 N   0  0  0  0  0  0  0  0  0  0  0  0
   -7.5931    4.1444  -11.0257 C   0  0  0  0  0  0  0  0  0  0  0  0
   -7.4912    5.2653  -10.1885 C   0  0  0  0  0  0  0  0  0  0  0  0
   -7.8870    5.1945   -8.8480 C   0  0  0  0  0  0  0  0  0  0  0  0
   -8.3837    3.9946   -8.3739 C   0  0  0  0  0  0  0  0  0  0  0  0
   -8.4849    2.8826   -9.2033 C   0  0  0  0  0  0  0  0  0  0  0  0
   -8.0997    2.9379  -10.5312 C   0  0  0  0  0  0  0  0  0  0  0  0
   -9.0023    1.7292   -8.4113 C   0  0  0  0  0  0  0  0  0  0  0  0
   -9.5519    2.3278   -7.1665 N   0  0  0  0  0  0  0  0  0  0  0  0
   -8.8468    3.6199   -7.0058 C   0  0  0  0  0  0  0  0  0  0  0  0
   -5.6823    5.4040  -15.4753 C   0  0  0  0  0  0  0  0  0  0  0  0
   -5.7874    5.3087  -16.8790 C   0  0  0  0  0  0  0  0  0  0  0  0
   -4.8919    5.6510  -17.9348 C   0  0  0  0  0  0  0  0  0  0  0  0
   -3.5327    6.2395  -17.7129 C   0  0  0  0  0  0  0  0  0  0  0  0
   -3.4576    7.7118  -18.1456 C   0  0  0  0  0  0  0  0  0  0  0  0
   -2.0359    8.1245  -18.5194 C   0  0  0  0  0  0  0  0  0  0  0  0
   -1.0570    7.4588  -17.6708 N   0  0  0  0  0  0  0  0  0  0  0  0
   -1.0490    6.0031  -17.8618 C   0  0  0  0  0  0  0  0  0  0  0  0
   -2.3934    5.4192  -18.3069 C   0  0  0  0  0  0  0  0  0  0  0  0
  1  2  1  0
  2  3  1  0
  3  4  1  0
  4  5  2  0
  5  6  1  0
  6  7  1  0
  6  8  2  0
  8  9  1  0
  9 10  2  0
  9 11  1  0
 11 12  1  0
 12 13  2  0
 13 14  1  0
 14 15  2  0
 15 16  1  0
 16 17  2  0
 16 18  1  0
 18 19  1  0
 19 20  1  0
  8 21  1  0
 21 22  2  0
 22 23  1  0
 23 24  1  0
 24 25  1  0
 25 26  1  0
 26 27  1  0
 27 28  1  0
 28 29  1  0
 23  2  2  0
 29 24  1  0
 22  4  1  0
 17 12  1  0
 20 15  1  0
M  END
>  <smiles>  (1104) 
C18079-P176

>  <fragmenstein_outcome>  (1104) 
acceptable

>  <inchikey>  (1104) 
NOTRMCDWIGMMGD-UHFFFAOYSA-N

>  <fragmenstein_mode>  (1104) 
expansion

>  <HIPPO Pose ID>  (1104) 
20371

>  <Energy>  (1104) 
43.446474

>  <fragmenstein_error>  (1104) 


>  <tags>  (1104) 
{'openbind_xx01zvns2b_c1_fragmenstein', 'fragmenstein_placed'}

>  <ref_pdb>  (1104) 
175

>  <scratch_subdir>  (1104) 
/opt/xchem-fragalysis-2/maxwin/BulkDock/SCRATCH/511028/C18079-P176

>  <alias>  (1104) 
Nc1[nH]c2cc(Cl)c(C(=O)Nc3ccc4c(c3)CNC4)cc2c1C1CCNCC1

>  <HIPPO Compound ID>  (1104) 
18079

>  <fragmenstein_runtime>  (1104) 
9.900786

$$$$
Nc1cc(C(=O)Nc2ccc3c(c2)CNC3)cc2c(C3CCNCC3)c(Br)[nH]c12
     RDKit          3D

 29 33  0  0  0  0  0  0  0  0999 V2000
   -9.4824    3.8097  -17.5298 N   0  0  0  0  0  0  0  0  0  0  0  0
   -8.3395    4.3326  -16.9186 C   0  0  0  0  0  0  0  0  0  0  0  0
   -8.2948    4.4285  -15.5198 C   0  0  0  0  0  0  0  0  0  0  0  0
   -7.1950    4.9902  -14.8753 C   0  0  0  0  0  0  0  0  0  0  0  0
   -7.2380    5.3380  -13.4283 C   0  0  0  0  0  0  0  0  0  0  0  0
   -6.8654    6.4018  -13.1206 O   0  0  0  0  0  0  0  0  0  0  0  0
   -7.7753    4.1752  -12.5628 N   0  0  0  0  0  0  0  0  0  0  0  0
   -8.0463    4.1133  -11.1964 C   0  0  0  0  0  0  0  0  0  0  0  0
   -7.8986    5.2498  -10.3833 C   0  0  0  0  0  0  0  0  0  0  0  0
   -8.1209    5.1828   -9.0042 C   0  0  0  0  0  0  0  0  0  0  0  0
   -8.4876    3.9670   -8.4593 C   0  0  0  0  0  0  0  0  0  0  0  0
   -8.6431    2.8427   -9.2608 C   0  0  0  0  0  0  0  0  0  0  0  0
   -8.4375    2.8970  -10.6324 C   0  0  0  0  0  0  0  0  0  0  0  0
   -8.9781    1.6701   -8.4022 C   0  0  0  0  0  0  0  0  0  0  0  0
   -9.2451    2.2149   -7.0458 N   0  0  0  0  0  0  0  0  0  0  0  0
   -8.7433    3.6042   -7.0366 C   0  0  0  0  0  0  0  0  0  0  0  0
   -6.0754    5.4057  -15.6067 C   0  0  0  0  0  0  0  0  0  0  0  0
   -6.0792    5.3087  -17.0115 C   0  0  0  0  0  0  0  0  0  0  0  0
   -5.1486    5.7059  -18.0296 C   0  0  0  0  0  0  0  0  0  0  0  0
   -3.7804    6.3084  -17.8729 C   0  0  0  0  0  0  0  0  0  0  0  0
   -3.8279    7.7437  -17.3465 C   0  0  0  0  0  0  0  0  0  0  0  0
   -2.4195    8.3289  -17.3135 C   0  0  0  0  0  0  0  0  0  0  0  0
   -1.5165    7.5019  -16.5159 N   0  0  0  0  0  0  0  0  0  0  0  0
   -1.4378    6.1285  -17.0151 C   0  0  0  0  0  0  0  0  0  0  0  0
   -2.8106    5.4597  -17.0509 C   0  0  0  0  0  0  0  0  0  0  0  0
   -5.8026    5.5169  -19.2250 C   0  0  0  0  0  0  0  0  0  0  0  0
   -5.1644    6.0938  -20.9266 Br  0  0  0  0  0  0  0  0  0  0  0  0
   -7.0059    4.9165  -18.9965 N   0  0  0  0  0  0  0  0  0  0  0  0
   -7.2207    4.7932  -17.6380 C   0  0  0  0  0  0  0  0  0  0  0  0
  1  2  1  0
  2  3  2  0
  3  4  1  0
  4  5  1  0
  5  6  2  0
  5  7  1  0
  7  8  1  0
  8  9  2  0
  9 10  1  0
 10 11  2  0
 11 12  1  0
 12 13  2  0
 12 14  1  0
 14 15  1  0
 15 16  1  0
  4 17  2  0
 17 18  1  0
 18 19  1  0
 19 20  1  0
 20 21  1  0
 21 22  1  0
 22 23  1  0
 23 24  1  0
 24 25  1  0
 19 26  2  0
 26 27  1  0
 26 28  1  0
 28 29  1  0
 29  2  1  0
 13  8  1  0
 29 18  2  0
 16 11  1  0
 25 20  1  0
M  END
>  <smiles>  (1105) 
C18080-P176

>  <fragmenstein_outcome>  (1105) 
acceptable

>  <inchikey>  (1105) 
ANUWQMSHWKPXRK-UHFFFAOYSA-N

>  <fragmenstein_mode>  (1105) 
expansion

>  <HIPPO Pose ID>  (1105) 
20372

>  <Energy>  (1105) 
24.104343

>  <fragmenstein_error>  (1105) 


>  <tags>  (1105) 
{'openbind_xx01zvns2b_c1_fragmenstein', 'fragmenstein_placed'}

>  <ref_pdb>  (1105) 
175

>  <scratch_subdir>  (1105) 
/opt/xchem-fragalysis-2/maxwin/BulkDock/SCRATCH/511028/C18080-P176

>  <alias>  (1105) 
Nc1cc(C(=O)Nc2ccc3c(c2)CNC3)cc2c(C3CCNCC3)c(Br)[nH]c12

>  <HIPPO Compound ID>  (1105) 
18080

>  <fragmenstein_runtime>  (1105) 
7.740685

$$$$
C[C@@]1(C2CCNCC2)c2cc(C(=O)C(=O)c3ccc4c(c3)CNC4)ccc2N[C@H]1O
     RDKit          3D

 30 34  0  0  0  0  0  0  0  0999 V2000
   -5.7643    7.5511  -18.3769 C   0  0  0  0  0  0  0  0  0  0  0  0
   -5.1302    6.1704  -18.1406 C   0  0  1  0  0  0  0  0  0  0  0  0
   -3.6467    6.3898  -17.7182 C   0  0  0  0  0  0  0  0  0  0  0  0
   -2.9566    7.5553  -18.4641 C   0  0  0  0  0  0  0  0  0  0  0  0
   -1.5381    7.8075  -17.9541 C   0  0  0  0  0  0  0  0  0  0  0  0
   -0.7822    6.5951  -17.6687 N   0  0  0  0  0  0  0  0  0  0  0  0
   -1.3595    5.4292  -18.3202 C   0  0  0  0  0  0  0  0  0  0  0  0
   -2.7444    5.1403  -17.7356 C   0  0  0  0  0  0  0  0  0  0  0  0
   -5.9970    5.4329  -17.1270 C   0  0  0  0  0  0  0  0  0  0  0  0
   -6.0272    5.4930  -15.7411 C   0  0  0  0  0  0  0  0  0  0  0  0
   -7.0634    4.8319  -15.0563 C   0  0  0  0  0  0  0  0  0  0  0  0
   -7.0865    4.9309  -13.5689 C   0  0  0  0  0  0  0  0  0  0  0  0
   -6.1032    5.3266  -12.9516 O   0  0  0  0  0  0  0  0  0  0  0  0
   -8.3548    4.6286  -12.7998 C   0  0  0  0  0  0  0  0  0  0  0  0
   -9.4343    4.7315  -13.3698 O   0  0  0  0  0  0  0  0  0  0  0  0
   -8.2921    4.3666  -11.3489 C   0  0  0  0  0  0  0  0  0  0  0  0
   -8.0104    5.4477  -10.4898 C   0  0  0  0  0  0  0  0  0  0  0  0
   -8.0887    5.2905   -9.1046 C   0  0  0  0  0  0  0  0  0  0  0  0
   -8.4542    4.0511   -8.6112 C   0  0  0  0  0  0  0  0  0  0  0  0
   -8.6954    2.9709   -9.4608 C   0  0  0  0  0  0  0  0  0  0  0  0
   -8.6312    3.1083  -10.8393 C   0  0  0  0  0  0  0  0  0  0  0  0
   -9.0102    1.7714   -8.6261 C   0  0  0  0  0  0  0  0  0  0  0  0
   -9.3704    2.3163   -7.2914 N   0  0  0  0  0  0  0  0  0  0  0  0
   -8.6781    3.6203   -7.1985 C   0  0  0  0  0  0  0  0  0  0  0  0
   -8.0522    4.1377  -15.7815 C   0  0  0  0  0  0  0  0  0  0  0  0
   -8.0049    4.0731  -17.1740 C   0  0  0  0  0  0  0  0  0  0  0  0
   -6.9491    4.6803  -17.8225 C   0  0  0  0  0  0  0  0  0  0  0  0
   -6.7894    4.7582  -19.2138 N   0  0  0  0  0  0  0  0  0  0  0  0
   -5.4409    5.2727  -19.3900 C   0  0  1  0  0  0  0  0  0  0  0  0
   -5.4437    5.9633  -20.6124 O   0  0  0  0  0  0  0  0  0  0  0  0
  2  1  1  6
  2  3  1  0
  3  4  1  0
  4  5  1  0
  5  6  1  0
  6  7  1  0
  7  8  1  0
  2  9  1  0
  9 10  2  0
 10 11  1  0
 11 12  1  0
 12 13  2  0
 12 14  1  0
 14 15  2  0
 14 16  1  0
 16 17  2  0
 17 18  1  0
 18 19  2  0
 19 20  1  0
 20 21  2  0
 20 22  1  0
 22 23  1  0
 23 24  1  0
 11 25  2  0
 25 26  1  0
 26 27  2  0
 27 28  1  0
 28 29  1  0
 29 30  1  6
 29  2  1  0
  8  3  1  0
 27  9  1  0
 21 16  1  0
 24 19  1  0
M  END
>  <smiles>  (1106) 
C18090-P176

>  <fragmenstein_outcome>  (1106) 
acceptable

>  <inchikey>  (1106) 
KYKVRFVIYVTTNS-UHFFFAOYSA-N

>  <fragmenstein_mode>  (1106) 
expansion

>  <HIPPO Pose ID>  (1106) 
20376

>  <Energy>  (1106) 
112.369363

>  <fragmenstein_error>  (1106) 


>  <tags>  (1106) 
{'openbind_xx01zvns2b_c1_fragmenstein', 'fragmenstein_placed'}

>  <ref_pdb>  (1106) 
175

>  <scratch_subdir>  (1106) 
/opt/xchem-fragalysis-2/maxwin/BulkDock/SCRATCH/511028/C18090-P176

>  <alias>  (1106) 
C[C@@]1(C2CCNCC2)c2cc(C(=O)C(=O)c3ccc4c(c3)CNC4)ccc2N[C@H]1O

>  <HIPPO Compound ID>  (1106) 
18090

>  <fragmenstein_runtime>  (1106) 
3.797715

$$$$
C[C@@H]1Nc2c(C(=O)C(=O)c3ccc4c(c3)CNC4)ccc3[nH]c(O)c(c23)C12CCNCC2
     RDKit          3D

 32 37  0  0  0  0  0  0  0  0999 V2000
   -2.9483    4.9395  -15.2912 C   0  0  0  0  0  0  0  0  0  0  0  0
   -3.7480    6.1461  -15.7921 C   0  0  2  0  0  0  0  0  0  0  0  0
   -5.0523    6.1431  -15.0660 N   0  0  0  0  0  0  0  0  0  0  0  0
   -6.0649    5.3503  -15.6419 C   0  0  0  0  0  0  0  0  0  0  0  0
   -7.1619    4.8200  -14.9459 C   0  0  0  0  0  0  0  0  0  0  0  0
   -7.1139    4.8689  -13.4655 C   0  0  0  0  0  0  0  0  0  0  0  0
   -6.0500    4.8995  -12.8529 O   0  0  0  0  0  0  0  0  0  0  0  0
   -8.3818    5.0320  -12.6824 C   0  0  0  0  0  0  0  0  0  0  0  0
   -9.3092    5.6471  -13.2009 O   0  0  0  0  0  0  0  0  0  0  0  0
   -8.3855    4.6422  -11.2574 C   0  0  0  0  0  0  0  0  0  0  0  0
   -8.2081    5.6781  -10.3185 C   0  0  0  0  0  0  0  0  0  0  0  0
   -8.2671    5.4122   -8.9507 C   0  0  0  0  0  0  0  0  0  0  0  0
   -8.5335    4.1146   -8.5548 C   0  0  0  0  0  0  0  0  0  0  0  0
   -8.6841    3.0826   -9.4839 C   0  0  0  0  0  0  0  0  0  0  0  0
   -8.5998    3.3203  -10.8496 C   0  0  0  0  0  0  0  0  0  0  0  0
   -8.9435    1.8116   -8.7374 C   0  0  0  0  0  0  0  0  0  0  0  0
   -9.3556    2.2431   -7.3747 N   0  0  0  0  0  0  0  0  0  0  0  0
   -8.7331    3.5687   -7.1787 C   0  0  0  0  0  0  0  0  0  0  0  0
   -8.2491    4.2478  -15.6369 C   0  0  0  0  0  0  0  0  0  0  0  0
   -8.2888    4.1980  -17.0428 C   0  0  0  0  0  0  0  0  0  0  0  0
   -7.1786    4.7118  -17.7160 C   0  0  0  0  0  0  0  0  0  0  0  0
   -6.8875    4.8878  -19.0514 N   0  0  0  0  0  0  0  0  0  0  0  0
   -5.6614    5.5041  -19.1950 C   0  0  0  0  0  0  0  0  0  0  0  0
   -5.2419    5.8446  -20.4040 O   0  0  0  0  0  0  0  0  0  0  0  0
   -5.1230    5.6836  -17.9392 C   0  0  0  0  0  0  0  0  0  0  0  0
   -6.0960    5.2329  -17.0298 C   0  0  0  0  0  0  0  0  0  0  0  0
   -3.8497    6.3262  -17.4060 C   0  0  0  0  0  0  0  0  0  0  0  0
   -3.9179    7.8579  -17.7034 C   0  0  0  0  0  0  0  0  0  0  0  0
   -2.5978    8.4282  -18.2191 C   0  0  0  0  0  0  0  0  0  0  0  0
   -1.4458    7.8553  -17.5384 N   0  0  0  0  0  0  0  0  0  0  0  0
   -1.3012    6.4282  -17.8187 C   0  0  0  0  0  0  0  0  0  0  0  0
   -2.6180    5.7087  -18.1182 C   0  0  0  0  0  0  0  0  0  0  0  0
  2  1  1  6
  2  3  1  0
  3  4  1  0
  4  5  1  0
  5  6  1  0
  6  7  2  0
  6  8  1  0
  8  9  2  0
  8 10  1  0
 10 11  2  0
 11 12  1  0
 12 13  2  0
 13 14  1  0
 14 15  2  0
 14 16  1  0
 16 17  1  0
 17 18  1  0
  5 19  2  0
 19 20  1  0
 20 21  2  0
 21 22  1  0
 22 23  1  0
 23 24  1  0
 23 25  2  0
 25 26  1  0
 25 27  1  0
 27 28  1  0
 28 29  1  0
 29 30  1  0
 30 31  1  0
 31 32  1  0
 27  2  1  0
 26  4  2  0
 32 27  1  0
 15 10  1  0
 26 21  1  0
 18 13  1  0
M  END
>  <smiles>  (1107) 
C18091-P176

>  <fragmenstein_outcome>  (1107) 
acceptable

>  <inchikey>  (1107) 
WWNLNEJKINNTMN-UHFFFAOYSA-N

>  <fragmenstein_mode>  (1107) 
expansion

>  <HIPPO Pose ID>  (1107) 
20377

>  <Energy>  (1107) 
155.960238

>  <fragmenstein_error>  (1107) 


>  <tags>  (1107) 
{'openbind_xx01zvns2b_c1_fragmenstein', 'fragmenstein_placed'}

>  <ref_pdb>  (1107) 
175

>  <scratch_subdir>  (1107) 
/opt/xchem-fragalysis-2/maxwin/BulkDock/SCRATCH/511028/C18091-P176

>  <alias>  (1107) 
C[C@@H]1Nc2c(C(=O)C(=O)c3ccc4c(c3)CNC4)ccc3[nH]c(O)c(c23)C12CCNCC2

>  <HIPPO Compound ID>  (1107) 
18091

>  <fragmenstein_runtime>  (1107) 
3.053615

$$$$
C[C@]1(C2CCNCC2)c2cc(C(=O)C(=O)c3ccc4c(c3)CNC4)ccc2N[C@H]1O
     RDKit          3D

 30 34  0  0  0  0  0  0  0  0999 V2000
   -4.1529    4.5118  -18.3334 C   0  0  0  0  0  0  0  0  0  0  0  0
   -4.9652    5.7781  -18.0777 C   0  0  2  0  0  0  0  0  0  0  0  0
   -3.9334    6.9142  -17.8811 C   0  0  0  0  0  0  0  0  0  0  0  0
   -4.4751    8.2367  -17.3393 C   0  0  0  0  0  0  0  0  0  0  0  0
   -3.3543    9.2794  -17.2984 C   0  0  0  0  0  0  0  0  0  0  0  0
   -2.2157    8.8386  -16.4946 N   0  0  0  0  0  0  0  0  0  0  0  0
   -1.6521    7.5906  -16.9858 C   0  0  0  0  0  0  0  0  0  0  0  0
   -2.7091    6.4987  -17.0145 C   0  0  0  0  0  0  0  0  0  0  0  0
   -6.0171    5.4683  -17.0328 C   0  0  0  0  0  0  0  0  0  0  0  0
   -5.9528    5.4668  -15.6506 C   0  0  0  0  0  0  0  0  0  0  0  0
   -7.0585    4.9911  -14.9218 C   0  0  0  0  0  0  0  0  0  0  0  0
   -6.9537    4.9830  -13.4450 C   0  0  0  0  0  0  0  0  0  0  0  0
   -6.2913    5.8488  -12.8842 O   0  0  0  0  0  0  0  0  0  0  0  0
   -7.5722    3.8590  -12.6410 C   0  0  0  0  0  0  0  0  0  0  0  0
   -7.5809    2.7450  -13.1589 O   0  0  0  0  0  0  0  0  0  0  0  0
   -8.0197    4.0587  -11.2317 C   0  0  0  0  0  0  0  0  0  0  0  0
   -7.9652    5.2891  -10.5499 C   0  0  0  0  0  0  0  0  0  0  0  0
   -8.2204    5.3586   -9.1713 C   0  0  0  0  0  0  0  0  0  0  0  0
   -8.5486    4.1948   -8.4977 C   0  0  0  0  0  0  0  0  0  0  0  0
   -8.6693    2.9945   -9.1772 C   0  0  0  0  0  0  0  0  0  0  0  0
   -8.4149    2.9135  -10.5347 C   0  0  0  0  0  0  0  0  0  0  0  0
   -9.0017    1.9001   -8.2221 C   0  0  0  0  0  0  0  0  0  0  0  0
   -9.2417    2.5626   -6.9126 N   0  0  0  0  0  0  0  0  0  0  0  0
   -8.7724    3.9569   -7.0424 C   0  0  0  0  0  0  0  0  0  0  0  0
   -8.2108    4.5338  -15.5805 C   0  0  0  0  0  0  0  0  0  0  0  0
   -8.2721    4.5471  -16.9749 C   0  0  0  0  0  0  0  0  0  0  0  0
   -7.1862    5.0394  -17.6798 C   0  0  0  0  0  0  0  0  0  0  0  0
   -7.0583    5.0344  -19.0830 N   0  0  0  0  0  0  0  0  0  0  0  0
   -5.9065    5.8986  -19.3268 C   0  0  1  0  0  0  0  0  0  0  0  0
   -6.3960    7.1948  -19.5909 O   0  0  0  0  0  0  0  0  0  0  0  0
  2  1  1  6
  2  3  1  0
  3  4  1  0
  4  5  1  0
  5  6  1  0
  6  7  1  0
  7  8  1  0
  2  9  1  0
  9 10  2  0
 10 11  1  0
 11 12  1  0
 12 13  2  0
 12 14  1  0
 14 15  2  0
 14 16  1  0
 16 17  2  0
 17 18  1  0
 18 19  2  0
 19 20  1  0
 20 21  2  0
 20 22  1  0
 22 23  1  0
 23 24  1  0
 11 25  2  0
 25 26  1  0
 26 27  2  0
 27 28  1  0
 28 29  1  0
 29 30  1  1
 29  2  1  0
  8  3  1  0
 27  9  1  0
 21 16  1  0
 24 19  1  0
M  END
>  <smiles>  (1108) 
C18090-P104

>  <fragmenstein_outcome>  (1108) 
acceptable

>  <inchikey>  (1108) 
XQODRUOBZUFPLN-UHFFFAOYSA-N

>  <fragmenstein_mode>  (1108) 
expansion

>  <HIPPO Pose ID>  (1108) 
20381

>  <Energy>  (1108) 
107.029608

>  <fragmenstein_error>  (1108) 


>  <tags>  (1108) 
{'openbind_xx01zvns2b_c1_fragmenstein', 'fragmenstein_placed'}

>  <ref_pdb>  (1108) 
175

>  <scratch_subdir>  (1108) 
/opt/xchem-fragalysis-2/maxwin/BulkDock/SCRATCH/511028/C18090-P104

>  <alias>  (1108) 
C[C@]1(C2CCNCC2)c2cc(C(=O)C(=O)c3ccc4c(c3)CNC4)ccc2N[C@H]1O

>  <HIPPO Compound ID>  (1108) 
38536

>  <fragmenstein_runtime>  (1108) 
3.694366

$$$$
Cc1[nH]c2ccc(C(=O)O)cc2c1C1CCNCC1
     RDKit          3D

 19 21  0  0  0  0  0  0  0  0999 V2000
   -5.0368    5.8233  -20.6219 C   0  0  0  0  0  0  0  0  0  0  0  0
   -5.6770    5.4525  -19.3321 C   0  0  0  0  0  0  0  0  0  0  0  0
   -6.9101    4.8615  -19.2650 N   0  0  0  0  0  0  0  0  0  0  0  0
   -7.2828    4.6785  -17.9549 C   0  0  0  0  0  0  0  0  0  0  0  0
   -8.4672    4.1471  -17.4315 C   0  0  0  0  0  0  0  0  0  0  0  0
   -8.6354    4.1749  -16.0451 C   0  0  0  0  0  0  0  0  0  0  0  0
   -7.6402    4.6885  -15.2128 C   0  0  0  0  0  0  0  0  0  0  0  0
   -7.8721    4.8832  -13.7600 C   0  0  0  0  0  0  0  0  0  0  0  0
   -7.3318    5.7855  -13.1379 O   0  0  0  0  0  0  0  0  0  0  0  0
   -8.7769    4.0583  -13.1976 O   0  0  0  0  0  0  0  0  0  0  0  0
   -6.4367    5.1750  -15.7591 C   0  0  0  0  0  0  0  0  0  0  0  0
   -6.2509    5.1793  -17.1585 C   0  0  0  0  0  0  0  0  0  0  0  0
   -5.2164    5.6400  -18.0409 C   0  0  0  0  0  0  0  0  0  0  0  0
   -3.8919    6.2788  -17.7364 C   0  0  0  0  0  0  0  0  0  0  0  0
   -4.0269    7.6761  -17.1330 C   0  0  0  0  0  0  0  0  0  0  0  0
   -2.6422    8.3025  -16.9890 C   0  0  0  0  0  0  0  0  0  0  0  0
   -1.7464    7.4682  -16.1865 N   0  0  0  0  0  0  0  0  0  0  0  0
   -1.6041    6.1233  -16.7500 C   0  0  0  0  0  0  0  0  0  0  0  0
   -2.9497    5.4150  -16.9026 C   0  0  0  0  0  0  0  0  0  0  0  0
  1  2  1  0
  2  3  1  0
  3  4  1  0
  4  5  2  0
  5  6  1  0
  6  7  2  0
  7  8  1  0
  8  9  2  0
  8 10  1  0
  7 11  1  0
 11 12  2  0
 12 13  1  0
 13 14  1  0
 14 15  1  0
 15 16  1  0
 16 17  1  0
 17 18  1  0
 18 19  1  0
 13  2  2  0
 19 14  1  0
 12  4  1  0
M  END
>  <smiles>  (1109) 
C18098-P176

>  <fragmenstein_outcome>  (1109) 
acceptable

>  <inchikey>  (1109) 
RWQBLNKDDLDZAH-UHFFFAOYSA-N

>  <fragmenstein_mode>  (1109) 
expansion

>  <HIPPO Pose ID>  (1109) 
20384

>  <Energy>  (1109) 
17.209244

>  <fragmenstein_error>  (1109) 


>  <tags>  (1109) 
{'openbind_xx01zvns2b_c1_fragmenstein', 'fragmenstein_placed'}

>  <ref_pdb>  (1109) 
175

>  <scratch_subdir>  (1109) 
/opt/xchem-fragalysis-2/maxwin/BulkDock/SCRATCH/511028/C18098-P176

>  <alias>  (1109) 
Cc1[nH]c2ccc(C(=O)O)cc2c1C1CCNCC1

>  <HIPPO Compound ID>  (1109) 
18098

>  <fragmenstein_runtime>  (1109) 
1.155086

$$$$
O=C(NCC(F)F)[C@](O)(Nc1ccc2c(c1)CNC2)c1cc(Cl)c2[nH]cc(C3CCNCC3)c2c1
     RDKit          3D

 35 39  0  0  0  0  0  0  0  0999 V2000
   -5.0246    4.3878  -12.5697 O   0  0  0  0  0  0  0  0  0  0  0  0
   -5.7690    5.2866  -12.6540 C   0  0  0  0  0  0  0  0  0  0  0  0
   -5.5935    6.7837  -12.2554 N   0  0  0  0  0  0  0  0  0  0  0  0
   -4.4350    7.4935  -11.7619 C   0  0  0  0  0  0  0  0  0  0  0  0
   -4.7601    8.8418  -11.1332 C   0  0  0  0  0  0  0  0  0  0  0  0
   -5.3610    9.6431  -12.0516 F   0  0  0  0  0  0  0  0  0  0  0  0
   -5.6403    8.6928  -10.1122 F   0  0  0  0  0  0  0  0  0  0  0  0
   -7.2584    5.1794  -13.2695 C   0  0  2  0  0  0  0  0  0  0  0  0
   -8.0052    6.3825  -13.1549 O   0  0  0  0  0  0  0  0  0  0  0  0
   -8.0244    4.1471  -12.5760 N   0  0  0  0  0  0  0  0  0  0  0  0
   -8.1332    4.1043  -11.1720 C   0  0  0  0  0  0  0  0  0  0  0  0
   -8.0176    5.2316  -10.3282 C   0  0  0  0  0  0  0  0  0  0  0  0
   -8.2128    5.1506   -8.9429 C   0  0  0  0  0  0  0  0  0  0  0  0
   -8.5673    3.9331   -8.4064 C   0  0  0  0  0  0  0  0  0  0  0  0
   -8.7104    2.8159   -9.2178 C   0  0  0  0  0  0  0  0  0  0  0  0
   -8.5129    2.8860  -10.5873 C   0  0  0  0  0  0  0  0  0  0  0  0
   -9.0566    1.6421   -8.3649 C   0  0  0  0  0  0  0  0  0  0  0  0
   -9.5245    2.2308   -7.0811 N   0  0  0  0  0  0  0  0  0  0  0  0
   -8.8542    3.5476   -6.9946 C   0  0  0  0  0  0  0  0  0  0  0  0
   -7.2336    4.9231  -14.7790 C   0  0  0  0  0  0  0  0  0  0  0  0
   -8.3693    4.4468  -15.4563 C   0  0  0  0  0  0  0  0  0  0  0  0
   -8.4151    4.3705  -16.8531 C   0  0  0  0  0  0  0  0  0  0  0  0
   -9.8621    3.9438  -17.6523 Cl  0  0  0  0  0  0  0  0  0  0  0  0
   -7.2970    4.7687  -17.5850 C   0  0  0  0  0  0  0  0  0  0  0  0
   -7.0796    4.8512  -18.9413 N   0  0  0  0  0  0  0  0  0  0  0  0
   -5.8225    5.3449  -19.1846 C   0  0  0  0  0  0  0  0  0  0  0  0
   -5.2222    5.6232  -17.9737 C   0  0  0  0  0  0  0  0  0  0  0  0
   -3.8815    6.2401  -17.7152 C   0  0  0  0  0  0  0  0  0  0  0  0
   -3.6191    7.4967  -18.5414 C   0  0  0  0  0  0  0  0  0  0  0  0
   -2.3211    8.1658  -18.0778 C   0  0  0  0  0  0  0  0  0  0  0  0
   -1.2864    7.2395  -17.6042 N   0  0  0  0  0  0  0  0  0  0  0  0
   -1.4131    5.9229  -18.2321 C   0  0  0  0  0  0  0  0  0  0  0  0
   -2.7276    5.2381  -17.8520 C   0  0  0  0  0  0  0  0  0  0  0  0
   -6.1493    5.2371  -16.9591 C   0  0  0  0  0  0  0  0  0  0  0  0
   -6.1219    5.3056  -15.5511 C   0  0  0  0  0  0  0  0  0  0  0  0
  1  2  2  0
  2  3  1  0
  3  4  1  0
  4  5  1  0
  5  6  1  0
  5  7  1  0
  2  8  1  0
  8  9  1  6
  8 10  1  0
 10 11  1  0
 11 12  2  0
 12 13  1  0
 13 14  2  0
 14 15  1  0
 15 16  2  0
 15 17  1  0
 17 18  1  0
 18 19  1  0
  8 20  1  0
 20 21  2  0
 21 22  1  0
 22 23  1  0
 22 24  2  0
 24 25  1  0
 25 26  1  0
 26 27  2  0
 27 28  1  0
 28 29  1  0
 29 30  1  0
 30 31  1  0
 31 32  1  0
 32 33  1  0
 27 34  1  0
 34 35  2  0
 16 11  1  0
 35 20  1  0
 19 14  1  0
 34 24  1  0
 33 28  1  0
M  END
>  <smiles>  (1110) 
C18111-P176

>  <fragmenstein_outcome>  (1110) 
acceptable

>  <inchikey>  (1110) 
QOSCPEKGZIPEDK-UHFFFAOYSA-N

>  <fragmenstein_mode>  (1110) 
expansion

>  <HIPPO Pose ID>  (1110) 
20389

>  <Energy>  (1110) 
117.082872

>  <fragmenstein_error>  (1110) 


>  <tags>  (1110) 
{'openbind_xx01zvns2b_c1_fragmenstein', 'fragmenstein_placed'}

>  <ref_pdb>  (1110) 
175

>  <scratch_subdir>  (1110) 
/opt/xchem-fragalysis-2/maxwin/BulkDock/SCRATCH/511028/C18111-P176

>  <alias>  (1110) 
O=C(NCC(F)F)[C@](O)(Nc1ccc2c(c1)CNC2)c1cc(Cl)c2[nH]cc(C3CCNCC3)c2c1

>  <HIPPO Compound ID>  (1110) 
18111

>  <fragmenstein_runtime>  (1110) 
7.313595

$$$$
O=C(Nc1ccc2c(c1)CNC2)c1cc(F)c2[nH]cc(C3CCNCC3)c2c1
     RDKit          3D

 28 32  0  0  0  0  0  0  0  0999 V2000
   -7.1503    6.4654  -13.2708 O   0  0  0  0  0  0  0  0  0  0  0  0
   -7.4233    5.3606  -13.5374 C   0  0  0  0  0  0  0  0  0  0  0  0
   -7.9289    4.2067  -12.6373 N   0  0  0  0  0  0  0  0  0  0  0  0
   -8.1068    4.1472  -11.2554 C   0  0  0  0  0  0  0  0  0  0  0  0
   -7.9007    5.2792  -10.4501 C   0  0  0  0  0  0  0  0  0  0  0  0
   -8.0725    5.2159   -9.0630 C   0  0  0  0  0  0  0  0  0  0  0  0
   -8.4438    4.0078   -8.5029 C   0  0  0  0  0  0  0  0  0  0  0  0
   -8.6440    2.8842   -9.2949 C   0  0  0  0  0  0  0  0  0  0  0  0
   -8.4902    2.9356  -10.6731 C   0  0  0  0  0  0  0  0  0  0  0  0
   -8.9728    1.7196   -8.4228 C   0  0  0  0  0  0  0  0  0  0  0  0
   -9.1984    2.2754   -7.0635 N   0  0  0  0  0  0  0  0  0  0  0  0
   -8.6699    3.6552   -7.0725 C   0  0  0  0  0  0  0  0  0  0  0  0
   -7.3688    4.9687  -14.9721 C   0  0  0  0  0  0  0  0  0  0  0  0
   -8.4688    4.3701  -15.5823 C   0  0  0  0  0  0  0  0  0  0  0  0
   -8.4765    4.1901  -16.9594 C   0  0  0  0  0  0  0  0  0  0  0  0
   -9.5551    3.6819  -17.5646 F   0  0  0  0  0  0  0  0  0  0  0  0
   -7.3805    4.6121  -17.7082 C   0  0  0  0  0  0  0  0  0  0  0  0
   -7.1922    4.6052  -19.0653 N   0  0  0  0  0  0  0  0  0  0  0  0
   -5.9646    5.1251  -19.3647 C   0  0  0  0  0  0  0  0  0  0  0  0
   -5.3453    5.5155  -18.1938 C   0  0  0  0  0  0  0  0  0  0  0  0
   -3.9984    6.1810  -18.1396 C   0  0  0  0  0  0  0  0  0  0  0  0
   -4.0659    7.6138  -17.6014 C   0  0  0  0  0  0  0  0  0  0  0  0
   -2.6794    8.2516  -17.6137 C   0  0  0  0  0  0  0  0  0  0  0  0
   -1.7182    7.4536  -16.8560 N   0  0  0  0  0  0  0  0  0  0  0  0
   -1.6032    6.0947  -17.3858 C   0  0  0  0  0  0  0  0  0  0  0  0
   -2.9468    5.3691  -17.3801 C   0  0  0  0  0  0  0  0  0  0  0  0
   -6.2508    5.1908  -17.1281 C   0  0  0  0  0  0  0  0  0  0  0  0
   -6.2497    5.3692  -15.7275 C   0  0  0  0  0  0  0  0  0  0  0  0
  1  2  2  0
  2  3  1  0
  3  4  1  0
  4  5  2  0
  5  6  1  0
  6  7  2  0
  7  8  1  0
  8  9  2  0
  8 10  1  0
 10 11  1  0
 11 12  1  0
  2 13  1  0
 13 14  2  0
 14 15  1  0
 15 16  1  0
 15 17  2  0
 17 18  1  0
 18 19  1  0
 19 20  2  0
 20 21  1  0
 21 22  1  0
 22 23  1  0
 23 24  1  0
 24 25  1  0
 25 26  1  0
 20 27  1  0
 27 28  2  0
  9  4  1  0
 28 13  1  0
 12  7  1  0
 27 17  1  0
 26 21  1  0
M  END
>  <smiles>  (1111) 
C231-P176

>  <fragmenstein_outcome>  (1111) 
acceptable

>  <inchikey>  (1111) 
UXDVGLDSYRCDPJ-UHFFFAOYSA-N

>  <fragmenstein_mode>  (1111) 
expansion

>  <HIPPO Pose ID>  (1111) 
20390

>  <Energy>  (1111) 
33.394348

>  <fragmenstein_error>  (1111) 


>  <tags>  (1111) 
{'openbind_xx01zvns2b_c1_fragmenstein', 'fragmenstein_placed'}

>  <ref_pdb>  (1111) 
175

>  <scratch_subdir>  (1111) 
/opt/xchem-fragalysis-2/maxwin/BulkDock/SCRATCH/511028/C231-P176

>  <alias>  (1111) 
O=C(Nc1ccc2c(c1)CNC2)c1cc(F)c2[nH]cc(C3CCNCC3)c2c1

>  <HIPPO Compound ID>  (1111) 
231

>  <fragmenstein_runtime>  (1111) 
4.673211

$$$$
CNC(=O)[C@@](O)(Nc1ccc2c(c1)CNC2)c1cc(Cl)c2[nH]cc(C3CCNCC3)c2c1
     RDKit          3D

 32 36  0  0  0  0  0  0  0  0999 V2000
   -9.5586    8.3714  -12.7352 C   0  0  0  0  0  0  0  0  0  0  0  0
   -8.8577    7.1369  -12.9318 N   0  0  0  0  0  0  0  0  0  0  0  0
   -7.3372    6.8533  -13.0871 C   0  0  0  0  0  0  0  0  0  0  0  0
   -6.4314    7.5915  -13.1555 O   0  0  0  0  0  0  0  0  0  0  0  0
   -7.1726    5.2494  -13.2654 C   0  0  1  0  0  0  0  0  0  0  0  0
   -5.9279    4.7741  -12.8055 O   0  0  0  0  0  0  0  0  0  0  0  0
   -8.2307    4.4668  -12.5952 N   0  0  0  0  0  0  0  0  0  0  0  0
   -8.2501    4.3205  -11.1912 C   0  0  0  0  0  0  0  0  0  0  0  0
   -8.0380    5.3898  -10.2960 C   0  0  0  0  0  0  0  0  0  0  0  0
   -8.1648    5.2335   -8.9093 C   0  0  0  0  0  0  0  0  0  0  0  0
   -8.5268    3.9966   -8.4215 C   0  0  0  0  0  0  0  0  0  0  0  0
   -8.7331    2.9267   -9.2817 C   0  0  0  0  0  0  0  0  0  0  0  0
   -8.6198    3.0735  -10.6553 C   0  0  0  0  0  0  0  0  0  0  0  0
   -9.0580    1.7154   -8.4722 C   0  0  0  0  0  0  0  0  0  0  0  0
   -9.4614    2.2439   -7.1432 N   0  0  0  0  0  0  0  0  0  0  0  0
   -8.7794    3.5517   -7.0198 C   0  0  0  0  0  0  0  0  0  0  0  0
   -7.2135    4.9865  -14.7845 C   0  0  0  0  0  0  0  0  0  0  0  0
   -8.3404    4.4984  -15.4628 C   0  0  0  0  0  0  0  0  0  0  0  0
   -8.3583    4.3864  -16.8586 C   0  0  0  0  0  0  0  0  0  0  0  0
   -9.7700    3.8881  -17.6736 Cl  0  0  0  0  0  0  0  0  0  0  0  0
   -7.2403    4.7884  -17.5864 C   0  0  0  0  0  0  0  0  0  0  0  0
   -7.0107    4.8462  -18.9419 N   0  0  0  0  0  0  0  0  0  0  0  0
   -5.7596    5.3528  -19.1822 C   0  0  0  0  0  0  0  0  0  0  0  0
   -5.1713    5.6508  -17.9693 C   0  0  0  0  0  0  0  0  0  0  0  0
   -3.8320    6.2713  -17.7073 C   0  0  0  0  0  0  0  0  0  0  0  0
   -3.5546    7.4983  -18.5730 C   0  0  0  0  0  0  0  0  0  0  0  0
   -2.2478    8.1679  -18.1376 C   0  0  0  0  0  0  0  0  0  0  0  0
   -1.2428    7.2408  -17.6126 N   0  0  0  0  0  0  0  0  0  0  0  0
   -1.3620    5.9084  -18.1960 C   0  0  0  0  0  0  0  0  0  0  0  0
   -2.6868    5.2541  -17.8043 C   0  0  0  0  0  0  0  0  0  0  0  0
   -6.1026    5.2741  -16.9566 C   0  0  0  0  0  0  0  0  0  0  0  0
   -6.0879    5.3514  -15.5506 C   0  0  0  0  0  0  0  0  0  0  0  0
  1  2  1  0
  2  3  1  0
  3  4  2  0
  3  5  1  0
  5  6  1  1
  5  7  1  0
  7  8  1  0
  8  9  2  0
  9 10  1  0
 10 11  2  0
 11 12  1  0
 12 13  2  0
 12 14  1  0
 14 15  1  0
 15 16  1  0
  5 17  1  0
 17 18  2  0
 18 19  1  0
 19 20  1  0
 19 21  2  0
 21 22  1  0
 22 23  1  0
 23 24  2  0
 24 25  1  0
 25 26  1  0
 26 27  1  0
 27 28  1  0
 28 29  1  0
 29 30  1  0
 24 31  1  0
 31 32  2  0
 13  8  1  0
 32 17  1  0
 16 11  1  0
 31 21  1  0
 30 25  1  0
M  END
>  <smiles>  (1112) 
C18112-P176

>  <fragmenstein_outcome>  (1112) 
acceptable

>  <inchikey>  (1112) 
CKZAXQHEQNZHBO-UHFFFAOYSA-N

>  <fragmenstein_mode>  (1112) 
expansion

>  <HIPPO Pose ID>  (1112) 
20391

>  <Energy>  (1112) 
87.813663

>  <fragmenstein_error>  (1112) 


>  <tags>  (1112) 
{'openbind_xx01zvns2b_c1_fragmenstein', 'fragmenstein_placed'}

>  <ref_pdb>  (1112) 
175

>  <scratch_subdir>  (1112) 
/opt/xchem-fragalysis-2/maxwin/BulkDock/SCRATCH/511028/C18112-P176

>  <alias>  (1112) 
CNC(=O)[C@@](O)(Nc1ccc2c(c1)CNC2)c1cc(Cl)c2[nH]cc(C3CCNCC3)c2c1

>  <HIPPO Compound ID>  (1112) 
18112

>  <fragmenstein_runtime>  (1112) 
10.689882

$$$$
O=C(Nc1ccc2c(c1)CNC2)[C@@H]1C[C@H](Cl)c2[nH]cc(C3CCNCC3)c2[C@]12CNCN2
     RDKit          3D

 32 37  0  0  0  0  0  0  0  0999 V2000
   -8.0272    6.8683  -13.0778 O   0  0  0  0  0  0  0  0  0  0  0  0
   -7.9258    5.7426  -13.3897 C   0  0  0  0  0  0  0  0  0  0  0  0
   -8.0291    4.4472  -12.5357 N   0  0  0  0  0  0  0  0  0  0  0  0
   -8.1773    4.2801  -11.1649 C   0  0  0  0  0  0  0  0  0  0  0  0
   -8.0949    5.3857  -10.3039 C   0  0  0  0  0  0  0  0  0  0  0  0
   -8.2624    5.2322   -8.9271 C   0  0  0  0  0  0  0  0  0  0  0  0
   -8.5359    3.9679   -8.4411 C   0  0  0  0  0  0  0  0  0  0  0  0
   -8.6197    2.8723   -9.2919 C   0  0  0  0  0  0  0  0  0  0  0  0
   -8.4271    3.0035  -10.6579 C   0  0  0  0  0  0  0  0  0  0  0  0
   -8.9055    1.6477   -8.4914 C   0  0  0  0  0  0  0  0  0  0  0  0
   -9.1949    2.1153   -7.1111 N   0  0  0  0  0  0  0  0  0  0  0  0
   -8.7706    3.5278   -7.0378 C   0  0  0  0  0  0  0  0  0  0  0  0
   -7.6966    5.3990  -14.8680 C   0  0  2  0  0  0  0  0  0  0  0  0
   -8.3860    4.1379  -15.4184 C   0  0  0  0  0  0  0  0  0  0  0  0
   -8.5387    4.2790  -16.9323 C   0  0  2  0  0  0  0  0  0  0  0  0
   -9.1204    2.8256  -17.7142 Cl  0  0  0  0  0  0  0  0  0  0  0  0
   -7.2630    4.7415  -17.5405 C   0  0  0  0  0  0  0  0  0  0  0  0
   -7.0479    4.7019  -18.8879 N   0  0  0  0  0  0  0  0  0  0  0  0
   -5.8147    5.2061  -19.1440 C   0  0  0  0  0  0  0  0  0  0  0  0
   -5.2177    5.6150  -17.9587 C   0  0  0  0  0  0  0  0  0  0  0  0
   -3.8453    6.2402  -17.9978 C   0  0  0  0  0  0  0  0  0  0  0  0
   -3.8241    7.7462  -17.7399 C   0  0  0  0  0  0  0  0  0  0  0  0
   -2.4127    8.2976  -17.9312 C   0  0  0  0  0  0  0  0  0  0  0  0
   -1.4296    7.5835  -17.1144 N   0  0  0  0  0  0  0  0  0  0  0  0
   -1.4057    6.1543  -17.4317 C   0  0  0  0  0  0  0  0  0  0  0  0
   -2.7703    5.5108  -17.2001 C   0  0  0  0  0  0  0  0  0  0  0  0
   -6.1687    5.3307  -16.8985 C   0  0  0  0  0  0  0  0  0  0  0  0
   -6.2071    5.5831  -15.3694 C   0  0  2  0  0  0  0  0  0  0  0  0
   -5.2431    4.7347  -14.5420 C   0  0  0  0  0  0  0  0  0  0  0  0
   -4.8283    5.6316  -13.4646 N   0  0  0  0  0  0  0  0  0  0  0  0
   -4.6673    6.8991  -14.1305 C   0  0  0  0  0  0  0  0  0  0  0  0
   -5.7503    6.9751  -15.0999 N   0  0  0  0  0  0  0  0  0  0  0  0
  1  2  2  0
  2  3  1  0
  3  4  1  0
  4  5  2  0
  5  6  1  0
  6  7  2  0
  7  8  1  0
  8  9  2  0
  8 10  1  0
 10 11  1  0
 11 12  1  0
 13  2  1  1
 13 14  1  0
 14 15  1  0
 15 16  1  6
 15 17  1  0
 17 18  1  0
 18 19  1  0
 19 20  2  0
 20 21  1  0
 21 22  1  0
 22 23  1  0
 23 24  1  0
 24 25  1  0
 25 26  1  0
 20 27  1  0
 27 28  1  0
 28 29  1  1
 29 30  1  0
 30 31  1  0
 31 32  1  0
  9  4  1  0
 28 13  1  0
 12  7  1  0
 27 17  2  0
 32 28  1  0
 26 21  1  0
M  END
>  <smiles>  (1113) 
C18120-P176

>  <fragmenstein_outcome>  (1113) 
acceptable

>  <inchikey>  (1113) 
VJNPBHUBBULPMP-UHFFFAOYSA-N

>  <fragmenstein_mode>  (1113) 
expansion

>  <HIPPO Pose ID>  (1113) 
20395

>  <Energy>  (1113) 
32.047866

>  <fragmenstein_error>  (1113) 


>  <tags>  (1113) 
{'openbind_xx01zvns2b_c1_fragmenstein', 'fragmenstein_placed'}

>  <ref_pdb>  (1113) 
175

>  <scratch_subdir>  (1113) 
/opt/xchem-fragalysis-2/maxwin/BulkDock/SCRATCH/511028/C18120-P176

>  <alias>  (1113) 
O=C(Nc1ccc2c(c1)CNC2)[C@@H]1C[C@H](Cl)c2[nH]cc(C3CCNCC3)c2[C@]12CNCN2

>  <HIPPO Compound ID>  (1113) 
18120

>  <fragmenstein_runtime>  (1113) 
4.810829

$$$$
O=C(Nc1ccc2c(c1)CNC2)c1cc(Cl)c2[nH]cc3c2c1CCC31CCNCC1
     RDKit          3D

 30 35  0  0  0  0  0  0  0  0999 V2000
   -7.6310    6.5647  -13.1411 O   0  0  0  0  0  0  0  0  0  0  0  0
   -7.6985    5.4290  -13.3996 C   0  0  0  0  0  0  0  0  0  0  0  0
   -8.0111    4.2177  -12.5020 N   0  0  0  0  0  0  0  0  0  0  0  0
   -8.2065    4.1383  -11.1287 C   0  0  0  0  0  0  0  0  0  0  0  0
   -8.0777    5.2817  -10.3226 C   0  0  0  0  0  0  0  0  0  0  0  0
   -8.2418    5.2030   -8.9386 C   0  0  0  0  0  0  0  0  0  0  0  0
   -8.5469    3.9727   -8.3888 C   0  0  0  0  0  0  0  0  0  0  0  0
   -8.6791    2.8416   -9.1859 C   0  0  0  0  0  0  0  0  0  0  0  0
   -8.5073    2.9015  -10.5588 C   0  0  0  0  0  0  0  0  0  0  0  0
   -8.9663    1.6605   -8.3234 C   0  0  0  0  0  0  0  0  0  0  0  0
   -9.2406    2.2037   -6.9680 N   0  0  0  0  0  0  0  0  0  0  0  0
   -8.7610    3.6005   -6.9624 C   0  0  0  0  0  0  0  0  0  0  0  0
   -7.4545    5.0165  -14.7955 C   0  0  0  0  0  0  0  0  0  0  0  0
   -8.5073    4.5122  -15.5541 C   0  0  0  0  0  0  0  0  0  0  0  0
   -8.3761    4.3748  -16.9383 C   0  0  0  0  0  0  0  0  0  0  0  0
   -9.7133    3.8938  -17.8575 Cl  0  0  0  0  0  0  0  0  0  0  0  0
   -7.1762    4.7455  -17.5406 C   0  0  0  0  0  0  0  0  0  0  0  0
   -6.7551    4.8384  -18.8493 N   0  0  0  0  0  0  0  0  0  0  0  0
   -5.4407    5.2763  -18.8882 C   0  0  0  0  0  0  0  0  0  0  0  0
   -5.0107    5.4784  -17.5927 C   0  0  0  0  0  0  0  0  0  0  0  0
   -6.1170    5.1716  -16.7676 C   0  0  0  0  0  0  0  0  0  0  0  0
   -6.2166    5.2984  -15.3769 C   0  0  0  0  0  0  0  0  0  0  0  0
   -5.0215    5.8172  -14.6337 C   0  0  0  0  0  0  0  0  0  0  0  0
   -3.7334    5.4974  -15.4143 C   0  0  0  0  0  0  0  0  0  0  0  0
   -3.7256    5.9725  -16.9347 C   0  0  0  0  0  0  0  0  0  0  0  0
   -3.6666    7.5201  -16.9549 C   0  0  0  0  0  0  0  0  0  0  0  0
   -3.1522    8.0835  -18.2734 C   0  0  0  0  0  0  0  0  0  0  0  0
   -1.8519    7.5163  -18.6196 N   0  0  0  0  0  0  0  0  0  0  0  0
   -1.9739    6.0732  -18.8234 C   0  0  0  0  0  0  0  0  0  0  0  0
   -2.4540    5.3660  -17.5653 C   0  0  0  0  0  0  0  0  0  0  0  0
  1  2  2  0
  2  3  1  0
  3  4  1  0
  4  5  2  0
  5  6  1  0
  6  7  2  0
  7  8  1  0
  8  9  2  0
  8 10  1  0
 10 11  1  0
 11 12  1  0
  2 13  1  0
 13 14  2  0
 14 15  1  0
 15 16  1  0
 15 17  2  0
 17 18  1  0
 18 19  1  0
 19 20  2  0
 20 21  1  0
 21 22  2  0
 22 23  1  0
 23 24  1  0
 24 25  1  0
 25 26  1  0
 26 27  1  0
 27 28  1  0
 28 29  1  0
 29 30  1  0
  9  4  1  0
 22 13  1  0
 30 25  1  0
 12  7  1  0
 21 17  1  0
 25 20  1  0
M  END
>  <smiles>  (1114) 
C18125-P176

>  <fragmenstein_outcome>  (1114) 
acceptable

>  <inchikey>  (1114) 
WRNZPNZTYPVUFB-UHFFFAOYSA-N

>  <fragmenstein_mode>  (1114) 
expansion

>  <HIPPO Pose ID>  (1114) 
20397

>  <Energy>  (1114) 
54.446584

>  <fragmenstein_error>  (1114) 


>  <tags>  (1114) 
{'openbind_xx01zvns2b_c1_fragmenstein', 'fragmenstein_placed'}

>  <ref_pdb>  (1114) 
175

>  <scratch_subdir>  (1114) 
/opt/xchem-fragalysis-2/maxwin/BulkDock/SCRATCH/511028/C18125-P176

>  <alias>  (1114) 
O=C(Nc1ccc2c(c1)CNC2)c1cc(Cl)c2[nH]cc3c2c1CCC31CCNCC1

>  <HIPPO Compound ID>  (1114) 
18125

>  <fragmenstein_runtime>  (1114) 
6.249717

$$$$
Cc1c(C(=O)Nc2ccc3c(c2)CNC3)cc(CC(C)(F)F)c2[nH]cc(C3CCNCC3)c12
     RDKit          3D

 33 37  0  0  0  0  0  0  0  0999 V2000
   -4.4697    6.5284  -14.8074 C   0  0  0  0  0  0  0  0  0  0  0  0
   -5.5145    5.6825  -15.4788 C   0  0  0  0  0  0  0  0  0  0  0  0
   -6.5478    5.1600  -14.6485 C   0  0  0  0  0  0  0  0  0  0  0  0
   -6.7094    5.5329  -13.1972 C   0  0  0  0  0  0  0  0  0  0  0  0
   -6.5632    6.6506  -12.8860 O   0  0  0  0  0  0  0  0  0  0  0  0
   -7.1603    4.3054  -12.3587 N   0  0  0  0  0  0  0  0  0  0  0  0
   -7.5988    4.2232  -11.0379 C   0  0  0  0  0  0  0  0  0  0  0  0
   -7.6507    5.3586  -10.2162 C   0  0  0  0  0  0  0  0  0  0  0  0
   -8.0609    5.2588   -8.8823 C   0  0  0  0  0  0  0  0  0  0  0  0
   -8.4321    4.0172   -8.3982 C   0  0  0  0  0  0  0  0  0  0  0  0
   -8.4252    2.8997   -9.2207 C   0  0  0  0  0  0  0  0  0  0  0  0
   -8.0089    2.9804  -10.5419 C   0  0  0  0  0  0  0  0  0  0  0  0
   -8.8739    1.7076   -8.4457 C   0  0  0  0  0  0  0  0  0  0  0  0
   -9.2324    2.1967   -7.0884 N   0  0  0  0  0  0  0  0  0  0  0  0
   -8.8470    3.6222   -7.0228 C   0  0  0  0  0  0  0  0  0  0  0  0
   -7.5583    4.3802  -15.1856 C   0  0  0  0  0  0  0  0  0  0  0  0
   -7.6079    4.1096  -16.5503 C   0  0  0  0  0  0  0  0  0  0  0  0
   -8.7767    3.3578  -17.0831 C   0  0  0  0  0  0  0  0  0  0  0  0
   -9.7750    4.4034  -17.4430 C   0  0  0  0  0  0  0  0  0  0  0  0
  -11.1033    3.8352  -17.6624 C   0  0  0  0  0  0  0  0  0  0  0  0
   -9.3884    4.9889  -18.6046 F   0  0  0  0  0  0  0  0  0  0  0  0
   -9.8397    5.3220  -16.4580 F   0  0  0  0  0  0  0  0  0  0  0  0
   -6.6698    4.7157  -17.3801 C   0  0  0  0  0  0  0  0  0  0  0  0
   -6.6614    4.7594  -18.7556 N   0  0  0  0  0  0  0  0  0  0  0  0
   -5.5295    5.3611  -19.1874 C   0  0  0  0  0  0  0  0  0  0  0  0
   -4.8082    5.7697  -18.0812 C   0  0  0  0  0  0  0  0  0  0  0  0
   -3.4556    6.3926  -18.2344 C   0  0  0  0  0  0  0  0  0  0  0  0
   -3.4258    7.8687  -17.8349 C   0  0  0  0  0  0  0  0  0  0  0  0
   -2.0054    8.4152  -17.8692 C   0  0  0  0  0  0  0  0  0  0  0  0
   -1.0792    7.5854  -17.0999 N   0  0  0  0  0  0  0  0  0  0  0  0
   -1.0062    6.2342  -17.6595 C   0  0  0  0  0  0  0  0  0  0  0  0
   -2.3536    5.5287  -17.6088 C   0  0  0  0  0  0  0  0  0  0  0  0
   -5.5877    5.4520  -16.8990 C   0  0  0  0  0  0  0  0  0  0  0  0
  1  2  1  0
  2  3  2  0
  3  4  1  0
  4  5  2  0
  4  6  1  0
  6  7  1  0
  7  8  2  0
  8  9  1  0
  9 10  2  0
 10 11  1  0
 11 12  2  0
 11 13  1  0
 13 14  1  0
 14 15  1  0
  3 16  1  0
 16 17  2  0
 17 18  1  0
 18 19  1  0
 19 20  1  0
 19 21  1  0
 19 22  1  0
 17 23  1  0
 23 24  1  0
 24 25  1  0
 25 26  2  0
 26 27  1  0
 27 28  1  0
 28 29  1  0
 29 30  1  0
 30 31  1  0
 31 32  1  0
 26 33  1  0
 33  2  1  0
 12  7  1  0
 33 23  2  0
 15 10  1  0
 32 27  1  0
M  END
>  <smiles>  (1115) 
C18129-P176

>  <fragmenstein_outcome>  (1115) 
acceptable

>  <inchikey>  (1115) 
HYXWIMXBBPCKIS-UHFFFAOYSA-N

>  <fragmenstein_mode>  (1115) 
expansion

>  <HIPPO Pose ID>  (1115) 
20399

>  <Energy>  (1115) 
93.233271

>  <fragmenstein_error>  (1115) 


>  <tags>  (1115) 
{'openbind_xx01zvns2b_c1_fragmenstein', 'fragmenstein_placed'}

>  <ref_pdb>  (1115) 
175

>  <scratch_subdir>  (1115) 
/opt/xchem-fragalysis-2/maxwin/BulkDock/SCRATCH/511028/C18129-P176

>  <alias>  (1115) 
Cc1c(C(=O)Nc2ccc3c(c2)CNC3)cc(CC(C)(F)F)c2[nH]cc(C3CCNCC3)c12

>  <HIPPO Compound ID>  (1115) 
18129

>  <fragmenstein_runtime>  (1115) 
6.192471

$$$$
Clc1cc([C@H](N=CNC[C@H]2CCCO2)Nc2ccc3c(c2)CNC3)cc2c(C3CCNCC3)c[nH]c12
     RDKit          3D

 36 41  0  0  0  0  0  0  0  0999 V2000
   -9.3604    3.7354  -17.7100 Cl  0  0  0  0  0  0  0  0  0  0  0  0
   -7.9930    4.4361  -16.9667 C   0  0  0  0  0  0  0  0  0  0  0  0
   -7.9425    4.5717  -15.5795 C   0  0  0  0  0  0  0  0  0  0  0  0
   -6.8360    5.1537  -14.9471 C   0  0  0  0  0  0  0  0  0  0  0  0
   -6.8538    5.3895  -13.4299 C   0  0  2  0  0  0  0  0  0  0  0  0
   -5.5722    5.8795  -12.9095 N   0  0  0  0  0  0  0  0  0  0  0  0
   -4.6592    5.0579  -12.7330 C   0  0  0  0  0  0  0  0  0  0  0  0
   -3.3079    5.2344  -12.3015 N   0  0  0  0  0  0  0  0  0  0  0  0
   -2.6051    6.4021  -11.8456 C   0  0  0  0  0  0  0  0  0  0  0  0
   -1.1381    6.4388  -12.2863 C   0  0  1  0  0  0  0  0  0  0  0  0
   -0.2567    5.3375  -11.7199 C   0  0  0  0  0  0  0  0  0  0  0  0
    0.9003    5.3623  -12.6886 C   0  0  0  0  0  0  0  0  0  0  0  0
    0.2107    5.6384  -14.0092 C   0  0  0  0  0  0  0  0  0  0  0  0
   -0.9983    6.3585  -13.7189 O   0  0  0  0  0  0  0  0  0  0  0  0
   -7.4420    4.2423  -12.7514 N   0  0  0  0  0  0  0  0  0  0  0  0
   -7.7037    4.2440  -11.3801 C   0  0  0  0  0  0  0  0  0  0  0  0
   -7.6791    5.4077  -10.5835 C   0  0  0  0  0  0  0  0  0  0  0  0
   -7.9672    5.3765   -9.2125 C   0  0  0  0  0  0  0  0  0  0  0  0
   -8.3140    4.1680   -8.6448 C   0  0  0  0  0  0  0  0  0  0  0  0
   -8.4075    3.0233   -9.4209 C   0  0  0  0  0  0  0  0  0  0  0  0
   -8.1226    3.0469  -10.7790 C   0  0  0  0  0  0  0  0  0  0  0  0
   -8.8632    1.8852   -8.5736 C   0  0  0  0  0  0  0  0  0  0  0  0
   -8.8198    2.3752   -7.1678 N   0  0  0  0  0  0  0  0  0  0  0  0
   -8.6685    3.8452   -7.2359 C   0  0  0  0  0  0  0  0  0  0  0  0
   -5.7606    5.5979  -15.7503 C   0  0  0  0  0  0  0  0  0  0  0  0
   -5.7991    5.4893  -17.1590 C   0  0  0  0  0  0  0  0  0  0  0  0
   -4.9117    5.8573  -18.2258 C   0  0  0  0  0  0  0  0  0  0  0  0
   -3.5444    6.4805  -18.1500 C   0  0  0  0  0  0  0  0  0  0  0  0
   -3.5317    7.8337  -17.4282 C   0  0  0  0  0  0  0  0  0  0  0  0
   -2.1180    8.4103  -17.3872 C   0  0  0  0  0  0  0  0  0  0  0  0
   -1.1531    7.4821  -16.7974 N   0  0  0  0  0  0  0  0  0  0  0  0
   -1.1295    6.2111  -17.5254 C   0  0  0  0  0  0  0  0  0  0  0  0
   -2.5002    5.5380  -17.5405 C   0  0  0  0  0  0  0  0  0  0  0  0
   -5.5557    5.5249  -19.4021 C   0  0  0  0  0  0  0  0  0  0  0  0
   -6.7713    4.9769  -19.0986 N   0  0  0  0  0  0  0  0  0  0  0  0
   -6.9331    4.9206  -17.7352 C   0  0  0  0  0  0  0  0  0  0  0  0
  1  2  1  0
  2  3  2  0
  3  4  1  0
  4  5  1  0
  5  6  1  0
  6  7  2  3
  7  8  1  0
  8  9  1  0
 10  9  1  6
 10 11  1  0
 11 12  1  0
 12 13  1  0
 13 14  1  0
  5 15  1  1
 15 16  1  0
 16 17  2  0
 17 18  1  0
 18 19  2  0
 19 20  1  0
 20 21  2  0
 20 22  1  0
 22 23  1  0
 23 24  1  0
  4 25  2  0
 25 26  1  0
 26 27  1  0
 27 28  1  0
 28 29  1  0
 29 30  1  0
 30 31  1  0
 31 32  1  0
 32 33  1  0
 27 34  2  0
 34 35  1  0
 35 36  1  0
 36  2  1  0
 14 10  1  0
 21 16  1  0
 36 26  2  0
 24 19  1  0
 33 28  1  0
M  END
>  <smiles>  (1116) 
C18132-P176

>  <fragmenstein_outcome>  (1116) 
acceptable

>  <inchikey>  (1116) 
JNNPZPOSGWCIPN-UHFFFAOYSA-N

>  <fragmenstein_mode>  (1116) 
expansion

>  <HIPPO Pose ID>  (1116) 
20400

>  <Energy>  (1116) 
1.618239

>  <fragmenstein_error>  (1116) 


>  <tags>  (1116) 
{'openbind_xx01zvns2b_c1_fragmenstein', 'fragmenstein_placed'}

>  <ref_pdb>  (1116) 
175

>  <scratch_subdir>  (1116) 
/opt/xchem-fragalysis-2/maxwin/BulkDock/SCRATCH/511028/C18132-P176

>  <alias>  (1116) 
Clc1cc([C@H](N=CNC[C@H]2CCCO2)Nc2ccc3c(c2)CNC3)cc2c(C3CCNCC3)c[nH]c12

>  <HIPPO Compound ID>  (1116) 
18132

>  <fragmenstein_runtime>  (1116) 
12.057913

$$$$
N#Cc1cc2c(cc1NC(=O)c1cc(F)c3[nH]cc(C4CCNCC4)c3c1)CNC2
     RDKit          3D

 30 34  0  0  0  0  0  0  0  0999 V2000
   -8.0862    7.8708  -11.2106 N   0  0  0  0  0  0  0  0  0  0  0  0
   -8.0445    6.7370  -10.9560 C   0  0  0  0  0  0  0  0  0  0  0  0
   -8.1112    5.3810  -10.4873 C   0  0  0  0  0  0  0  0  0  0  0  0
   -8.2781    5.2461   -9.0936 C   0  0  0  0  0  0  0  0  0  0  0  0
   -8.5594    4.0021   -8.5678 C   0  0  0  0  0  0  0  0  0  0  0  0
   -8.6649    2.8906   -9.3901 C   0  0  0  0  0  0  0  0  0  0  0  0
   -8.4674    2.9869  -10.7578 C   0  0  0  0  0  0  0  0  0  0  0  0
   -8.1667    4.2392  -11.3241 C   0  0  0  0  0  0  0  0  0  0  0  0
   -7.9290    4.2262  -12.7073 N   0  0  0  0  0  0  0  0  0  0  0  0
   -7.2713    5.2823  -13.6222 C   0  0  0  0  0  0  0  0  0  0  0  0
   -6.7550    6.2949  -13.3587 O   0  0  0  0  0  0  0  0  0  0  0  0
   -7.3218    4.9074  -15.0637 C   0  0  0  0  0  0  0  0  0  0  0  0
   -8.4593    4.3531  -15.6513 C   0  0  0  0  0  0  0  0  0  0  0  0
   -8.5099    4.1765  -17.0323 C   0  0  0  0  0  0  0  0  0  0  0  0
   -9.6215    3.6980  -17.6104 F   0  0  0  0  0  0  0  0  0  0  0  0
   -7.4151    4.5689  -17.8035 C   0  0  0  0  0  0  0  0  0  0  0  0
   -7.2413    4.5576  -19.1618 N   0  0  0  0  0  0  0  0  0  0  0  0
   -6.0106    5.0651  -19.4788 C   0  0  0  0  0  0  0  0  0  0  0  0
   -5.3691    5.4482  -18.3198 C   0  0  0  0  0  0  0  0  0  0  0  0
   -4.0235    6.1210  -18.2750 C   0  0  0  0  0  0  0  0  0  0  0  0
   -4.0984    7.5504  -17.7240 C   0  0  0  0  0  0  0  0  0  0  0  0
   -2.7182    8.2016  -17.7321 C   0  0  0  0  0  0  0  0  0  0  0  0
   -1.7476    7.4037  -16.9876 N   0  0  0  0  0  0  0  0  0  0  0  0
   -1.6211    6.0536  -17.5355 C   0  0  0  0  0  0  0  0  0  0  0  0
   -2.9569    5.3129  -17.5314 C   0  0  0  0  0  0  0  0  0  0  0  0
   -6.2591    5.1180  -17.2465 C   0  0  0  0  0  0  0  0  0  0  0  0
   -6.2160    5.2790  -15.8499 C   0  0  0  0  0  0  0  0  0  0  0  0
   -8.9727    1.6961   -8.5471 C   0  0  0  0  0  0  0  0  0  0  0  0
   -9.4302    2.2553   -7.2479 N   0  0  0  0  0  0  0  0  0  0  0  0
   -8.8147    3.5950   -7.1557 C   0  0  0  0  0  0  0  0  0  0  0  0
  1  2  3  0
  2  3  1  0
  3  4  2  0
  4  5  1  0
  5  6  2  0
  6  7  1  0
  7  8  2  0
  8  9  1  0
  9 10  1  0
 10 11  2  0
 10 12  1  0
 12 13  2  0
 13 14  1  0
 14 15  1  0
 14 16  2  0
 16 17  1  0
 17 18  1  0
 18 19  2  0
 19 20  1  0
 20 21  1  0
 21 22  1  0
 22 23  1  0
 23 24  1  0
 24 25  1  0
 19 26  1  0
 26 27  2  0
  6 28  1  0
 28 29  1  0
 29 30  1  0
  8  3  1  0
 27 12  1  0
 30  5  1  0
 26 16  1  0
 25 20  1  0
M  END
>  <smiles>  (1117) 
C18134-P176

>  <fragmenstein_outcome>  (1117) 
acceptable

>  <inchikey>  (1117) 
UXQPXKCBHNKXMR-UHFFFAOYSA-N

>  <fragmenstein_mode>  (1117) 
expansion

>  <HIPPO Pose ID>  (1117) 
20401

>  <Energy>  (1117) 
59.611387

>  <fragmenstein_error>  (1117) 


>  <tags>  (1117) 
{'openbind_xx01zvns2b_c1_fragmenstein', 'fragmenstein_placed'}

>  <ref_pdb>  (1117) 
175

>  <scratch_subdir>  (1117) 
/opt/xchem-fragalysis-2/maxwin/BulkDock/SCRATCH/511028/C18134-P176

>  <alias>  (1117) 
N#Cc1cc2c(cc1NC(=O)c1cc(F)c3[nH]cc(C4CCNCC4)c3c1)CNC2

>  <HIPPO Compound ID>  (1117) 
27129

>  <fragmenstein_runtime>  (1117) 
3.103153

$$$$
CN[C@]1(O)CNC[C@@H](C)[C@@]1(C)c1c[nH]c2c(F)cc(C(=O)Nc3ccc4c(c3)CNC4)cc12
     RDKit          3D

 33 37  0  0  0  0  0  0  0  0999 V2000
   -1.8511    3.8941  -18.9885 C   0  0  0  0  0  0  0  0  0  0  0  0
   -2.8095    4.4665  -18.0566 N   0  0  0  0  0  0  0  0  0  0  0  0
   -2.8660    5.9169  -18.0682 C   0  0  2  0  0  0  0  0  0  0  0  0
   -3.0620    6.3116  -19.4233 O   0  0  0  0  0  0  0  0  0  0  0  0
   -1.5069    6.5266  -17.5426 C   0  0  0  0  0  0  0  0  0  0  0  0
   -1.5427    7.9357  -17.1113 N   0  0  0  0  0  0  0  0  0  0  0  0
   -2.6661    8.6403  -17.7084 C   0  0  0  0  0  0  0  0  0  0  0  0
   -4.0596    8.0765  -17.3273 C   0  0  1  0  0  0  0  0  0  0  0  0
   -5.0543    8.7037  -18.3156 C   0  0  0  0  0  0  0  0  0  0  0  0
   -4.0811    6.4910  -17.2002 C   0  0  2  0  0  0  0  0  0  0  0  0
   -3.8223    6.1393  -15.7019 C   0  0  0  0  0  0  0  0  0  0  0  0
   -5.4544    5.8740  -17.6290 C   0  0  0  0  0  0  0  0  0  0  0  0
   -5.8855    5.7080  -18.9404 C   0  0  0  0  0  0  0  0  0  0  0  0
   -7.1167    5.1196  -18.9592 N   0  0  0  0  0  0  0  0  0  0  0  0
   -7.5194    4.8723  -17.6762 C   0  0  0  0  0  0  0  0  0  0  0  0
   -8.6966    4.2828  -17.2260 C   0  0  0  0  0  0  0  0  0  0  0  0
   -9.6488    3.8904  -18.0772 F   0  0  0  0  0  0  0  0  0  0  0  0
   -8.8799    4.1137  -15.8680 C   0  0  0  0  0  0  0  0  0  0  0  0
   -7.9090    4.5278  -14.9664 C   0  0  0  0  0  0  0  0  0  0  0  0
   -8.0172    4.0226  -13.5823 C   0  0  0  0  0  0  0  0  0  0  0  0
   -8.1462    2.8732  -13.5044 O   0  0  0  0  0  0  0  0  0  0  0  0
   -7.9354    5.0868  -12.4884 N   0  0  0  0  0  0  0  0  0  0  0  0
   -8.0851    4.9786  -11.1093 C   0  0  0  0  0  0  0  0  0  0  0  0
   -7.9122    6.0795  -10.2673 C   0  0  0  0  0  0  0  0  0  0  0  0
   -8.0567    5.9275   -8.8801 C   0  0  0  0  0  0  0  0  0  0  0  0
   -8.3914    4.6792   -8.3728 C   0  0  0  0  0  0  0  0  0  0  0  0
   -8.5709    3.5906   -9.2114 C   0  0  0  0  0  0  0  0  0  0  0  0
   -8.4155    3.7216  -10.5748 C   0  0  0  0  0  0  0  0  0  0  0  0
   -8.9083    2.3764   -8.4131 C   0  0  0  0  0  0  0  0  0  0  0  0
   -9.2212    2.8904   -7.0525 N   0  0  0  0  0  0  0  0  0  0  0  0
   -8.6007    4.2304   -6.9659 C   0  0  0  0  0  0  0  0  0  0  0  0
   -6.7382    5.1406  -15.4162 C   0  0  0  0  0  0  0  0  0  0  0  0
   -6.5200    5.3286  -16.8081 C   0  0  0  0  0  0  0  0  0  0  0  0
  1  2  1  0
  2  3  1  0
  3  4  1  6
  3  5  1  0
  5  6  1  0
  6  7  1  0
  7  8  1  0
  8  9  1  6
  8 10  1  0
 10 11  1  1
 10 12  1  0
 12 13  2  0
 13 14  1  0
 14 15  1  0
 15 16  2  0
 16 17  1  0
 16 18  1  0
 18 19  2  0
 19 20  1  0
 20 21  2  0
 20 22  1  0
 22 23  1  0
 23 24  2  0
 24 25  1  0
 25 26  2  0
 26 27  1  0
 27 28  2  0
 27 29  1  0
 29 30  1  0
 30 31  1  0
 19 32  1  0
 32 33  2  0
 10  3  1  0
 33 12  1  0
 33 15  1  0
 28 23  1  0
 31 26  1  0
M  END
>  <smiles>  (1118) 
C18136-P176

>  <fragmenstein_outcome>  (1118) 
acceptable

>  <inchikey>  (1118) 
QHKHINVFIPHZHN-UHFFFAOYSA-N

>  <fragmenstein_mode>  (1118) 
expansion

>  <HIPPO Pose ID>  (1118) 
20402

>  <Energy>  (1118) 
104.179214

>  <fragmenstein_error>  (1118) 


>  <tags>  (1118) 
{'openbind_xx01zvns2b_c1_fragmenstein', 'fragmenstein_placed'}

>  <ref_pdb>  (1118) 
175

>  <scratch_subdir>  (1118) 
/opt/xchem-fragalysis-2/maxwin/BulkDock/SCRATCH/511028/C18136-P176

>  <alias>  (1118) 
CN[C@]1(O)CNC[C@@H](C)[C@@]1(C)c1c[nH]c2c(F)cc(C(=O)Nc3ccc4c(c3)CNC4)cc12

>  <HIPPO Compound ID>  (1118) 
18136

>  <fragmenstein_runtime>  (1118) 
9.433303

$$$$
CCc1c([C@](O)(Nc2ccc3c(c2)CNC3)C(=O)NCC(F)F)cc(Br)c2[nH]cc(C3CCNCC3)c12
     RDKit          3D

 37 41  0  0  0  0  0  0  0  0999 V2000
   -3.7046    4.7707  -14.2877 C   0  0  0  0  0  0  0  0  0  0  0  0
   -4.6211    5.8264  -14.8980 C   0  0  0  0  0  0  0  0  0  0  0  0
   -5.8790    5.3182  -15.5632 C   0  0  0  0  0  0  0  0  0  0  0  0
   -7.0347    4.9691  -14.7508 C   0  0  0  0  0  0  0  0  0  0  0  0
   -7.1828    5.2402  -13.2207 C   0  0  2  0  0  0  0  0  0  0  0  0
   -5.9314    5.2117  -12.5716 O   0  0  0  0  0  0  0  0  0  0  0  0
   -7.9828    4.2024  -12.5517 N   0  0  0  0  0  0  0  0  0  0  0  0
   -8.1878    4.1245  -11.1675 C   0  0  0  0  0  0  0  0  0  0  0  0
   -8.1079    5.2322  -10.2965 C   0  0  0  0  0  0  0  0  0  0  0  0
   -8.2819    5.1172   -8.9114 C   0  0  0  0  0  0  0  0  0  0  0  0
   -8.5751    3.8768   -8.3934 C   0  0  0  0  0  0  0  0  0  0  0  0
   -8.7030    2.7785   -9.2282 C   0  0  0  0  0  0  0  0  0  0  0  0
   -8.5313    2.8865  -10.6040 C   0  0  0  0  0  0  0  0  0  0  0  0
   -8.9849    1.5695   -8.4016 C   0  0  0  0  0  0  0  0  0  0  0  0
   -9.2636    2.0663   -7.0284 N   0  0  0  0  0  0  0  0  0  0  0  0
   -8.8007    3.4660   -6.9799 C   0  0  0  0  0  0  0  0  0  0  0  0
   -7.9228    6.6841  -13.0805 C   0  0  0  0  0  0  0  0  0  0  0  0
   -9.0486    6.8771  -13.3410 O   0  0  0  0  0  0  0  0  0  0  0  0
   -6.8385    7.6493  -12.5041 N   0  0  0  0  0  0  0  0  0  0  0  0
   -6.8975    9.0655  -12.2234 C   0  0  0  0  0  0  0  0  0  0  0  0
   -7.5375    9.9061  -13.3224 C   0  0  0  0  0  0  0  0  0  0  0  0
   -7.5769   11.2062  -12.9262 F   0  0  0  0  0  0  0  0  0  0  0  0
   -6.7604    9.8762  -14.4382 F   0  0  0  0  0  0  0  0  0  0  0  0
   -8.1926    4.4994  -15.3907 C   0  0  0  0  0  0  0  0  0  0  0  0
   -8.2594    4.3835  -16.7658 C   0  0  0  0  0  0  0  0  0  0  0  0
   -9.8619    3.9086  -17.5916 Br  0  0  0  0  0  0  0  0  0  0  0  0
   -7.1689    4.7406  -17.5435 C   0  0  0  0  0  0  0  0  0  0  0  0
   -7.0790    4.7375  -18.9135 N   0  0  0  0  0  0  0  0  0  0  0  0
   -5.8696    5.2064  -19.2976 C   0  0  0  0  0  0  0  0  0  0  0  0
   -5.1474    5.5581  -18.1717 C   0  0  0  0  0  0  0  0  0  0  0  0
   -3.7984    6.2133  -18.3393 C   0  0  0  0  0  0  0  0  0  0  0  0
   -3.7929    7.6883  -17.9130 C   0  0  0  0  0  0  0  0  0  0  0  0
   -2.3922    8.2855  -17.9864 C   0  0  0  0  0  0  0  0  0  0  0  0
   -1.4027    7.4632  -17.2916 N   0  0  0  0  0  0  0  0  0  0  0  0
   -1.3117    6.1393  -17.9116 C   0  0  0  0  0  0  0  0  0  0  0  0
   -2.6299    5.3829  -17.8108 C   0  0  0  0  0  0  0  0  0  0  0  0
   -5.9706    5.2216  -17.0082 C   0  0  0  0  0  0  0  0  0  0  0  0
  1  2  1  0
  2  3  1  0
  3  4  2  0
  4  5  1  0
  5  6  1  1
  5  7  1  0
  7  8  1  0
  8  9  2  0
  9 10  1  0
 10 11  2  0
 11 12  1  0
 12 13  2  0
 12 14  1  0
 14 15  1  0
 15 16  1  0
  5 17  1  0
 17 18  2  0
 17 19  1  0
 19 20  1  0
 20 21  1  0
 21 22  1  0
 21 23  1  0
  4 24  1  0
 24 25  2  0
 25 26  1  0
 25 27  1  0
 27 28  1  0
 28 29  1  0
 29 30  2  0
 30 31  1  0
 31 32  1  0
 32 33  1  0
 33 34  1  0
 34 35  1  0
 35 36  1  0
 30 37  1  0
 37  3  1  0
 13  8  1  0
 37 27  2  0
 16 11  1  0
 36 31  1  0
M  END
>  <smiles>  (1119) 
C18148-P176

>  <fragmenstein_outcome>  (1119) 
acceptable

>  <inchikey>  (1119) 
MMMURWXLRPHNQC-UHFFFAOYSA-N

>  <fragmenstein_mode>  (1119) 
expansion

>  <HIPPO Pose ID>  (1119) 
20404

>  <Energy>  (1119) 
137.1834

>  <fragmenstein_error>  (1119) 


>  <tags>  (1119) 
{'openbind_xx01zvns2b_c1_fragmenstein', 'fragmenstein_placed'}

>  <ref_pdb>  (1119) 
175

>  <scratch_subdir>  (1119) 
/opt/xchem-fragalysis-2/maxwin/BulkDock/SCRATCH/511028/C18148-P176

>  <alias>  (1119) 
CCc1c([C@](O)(Nc2ccc3c(c2)CNC3)C(=O)NCC(F)F)cc(Br)c2[nH]cc(C3CCNCC3)c12

>  <HIPPO Compound ID>  (1119) 
18148

>  <fragmenstein_runtime>  (1119) 
8.765864

$$$$
COCCO[C@@]1(C)C(=O)C2(CCNCC2)c2c[nH]c3c(F)cc(C(=O)Nc4ccc5c(c4)CNC5)c1c23
     RDKit          3D

 37 42  0  0  0  0  0  0  0  0999 V2000
    0.0375    6.9871  -13.5301 C   0  0  0  0  0  0  0  0  0  0  0  0
   -1.0911    6.2067  -13.1554 O   0  0  0  0  0  0  0  0  0  0  0  0
   -2.0234    6.0990  -14.2338 C   0  0  0  0  0  0  0  0  0  0  0  0
   -3.2254    5.2726  -13.7764 C   0  0  0  0  0  0  0  0  0  0  0  0
   -4.2258    5.0523  -14.7697 O   0  0  0  0  0  0  0  0  0  0  0  0
   -5.0538    6.1395  -15.2030 C   0  0  1  0  0  0  0  0  0  0  0  0
   -5.3255    7.1593  -14.0786 C   0  0  0  0  0  0  0  0  0  0  0  0
   -4.3867    6.9582  -16.4033 C   0  0  0  0  0  0  0  0  0  0  0  0
   -4.1547    8.1690  -16.2645 O   0  0  0  0  0  0  0  0  0  0  0  0
   -4.1283    6.2398  -17.7744 C   0  0  0  0  0  0  0  0  0  0  0  0
   -3.7826    7.3236  -18.8211 C   0  0  0  0  0  0  0  0  0  0  0  0
   -2.4308    8.0021  -18.5461 C   0  0  0  0  0  0  0  0  0  0  0  0
   -1.4941    7.1651  -17.7920 N   0  0  0  0  0  0  0  0  0  0  0  0
   -1.6254    5.7693  -18.1723 C   0  0  0  0  0  0  0  0  0  0  0  0
   -2.9723    5.2139  -17.7089 C   0  0  0  0  0  0  0  0  0  0  0  0
   -5.4216    5.5403  -18.1197 C   0  0  0  0  0  0  0  0  0  0  0  0
   -5.9458    5.1287  -19.3243 C   0  0  0  0  0  0  0  0  0  0  0  0
   -7.1761    4.5620  -19.0839 N   0  0  0  0  0  0  0  0  0  0  0  0
   -7.4354    4.5639  -17.7356 C   0  0  0  0  0  0  0  0  0  0  0  0
   -8.5193    4.0966  -17.0104 C   0  0  0  0  0  0  0  0  0  0  0  0
   -9.5538    3.4935  -17.6049 F   0  0  0  0  0  0  0  0  0  0  0  0
   -8.5266    4.3248  -15.6419 C   0  0  0  0  0  0  0  0  0  0  0  0
   -7.4677    5.0077  -15.0142 C   0  0  0  0  0  0  0  0  0  0  0  0
   -7.7624    5.4064  -13.6176 C   0  0  0  0  0  0  0  0  0  0  0  0
   -7.9950    6.5319  -13.4152 O   0  0  0  0  0  0  0  0  0  0  0  0
   -7.8019    4.1909  -12.6689 N   0  0  0  0  0  0  0  0  0  0  0  0
   -8.0360    4.1206  -11.2960 C   0  0  0  0  0  0  0  0  0  0  0  0
   -8.0373    5.2861  -10.5111 C   0  0  0  0  0  0  0  0  0  0  0  0
   -8.2459    5.2225   -9.1294 C   0  0  0  0  0  0  0  0  0  0  0  0
   -8.4936    3.9870   -8.5608 C   0  0  0  0  0  0  0  0  0  0  0  0
   -8.5259    2.8366   -9.3383 C   0  0  0  0  0  0  0  0  0  0  0  0
   -8.2751    2.8789  -10.7031 C   0  0  0  0  0  0  0  0  0  0  0  0
   -8.8447    1.6635   -8.4733 C   0  0  0  0  0  0  0  0  0  0  0  0
   -9.1399    2.2091   -7.1227 N   0  0  0  0  0  0  0  0  0  0  0  0
   -8.7495    3.6331   -7.1361 C   0  0  0  0  0  0  0  0  0  0  0  0
   -6.3246    5.4511  -15.7307 C   0  0  0  0  0  0  0  0  0  0  0  0
   -6.3659    5.1923  -17.1195 C   0  0  0  0  0  0  0  0  0  0  0  0
  1  2  1  0
  2  3  1  0
  3  4  1  0
  4  5  1  0
  5  6  1  0
  6  7  1  1
  6  8  1  0
  8  9  2  0
  8 10  1  0
 10 11  1  0
 11 12  1  0
 12 13  1  0
 13 14  1  0
 14 15  1  0
 10 16  1  0
 16 17  2  0
 17 18  1  0
 18 19  1  0
 19 20  1  0
 20 21  1  0
 20 22  2  0
 22 23  1  0
 23 24  1  0
 24 25  2  0
 24 26  1  0
 26 27  1  0
 27 28  2  0
 28 29  1  0
 29 30  2  0
 30 31  1  0
 31 32  2  0
 31 33  1  0
 33 34  1  0
 34 35  1  0
 23 36  2  0
 36 37  1  0
 36  6  1  0
 15 10  1  0
 37 16  1  0
 37 19  2  0
 32 27  1  0
 35 30  1  0
M  END
>  <smiles>  (1120) 
C18153-P176

>  <fragmenstein_outcome>  (1120) 
acceptable

>  <inchikey>  (1120) 
IGUXRBNXCVYCFQ-UHFFFAOYSA-N

>  <fragmenstein_mode>  (1120) 
expansion

>  <HIPPO Pose ID>  (1120) 
20405

>  <Energy>  (1120) 
121.158544

>  <fragmenstein_error>  (1120) 


>  <tags>  (1120) 
{'openbind_xx01zvns2b_c1_fragmenstein', 'fragmenstein_placed'}

>  <ref_pdb>  (1120) 
175

>  <scratch_subdir>  (1120) 
/opt/xchem-fragalysis-2/maxwin/BulkDock/SCRATCH/511028/C18153-P176

>  <alias>  (1120) 
COCCO[C@@]1(C)C(=O)C2(CCNCC2)c2c[nH]c3c(F)cc(C(=O)Nc4ccc5c(c4)CNC5)c1c23

>  <HIPPO Compound ID>  (1120) 
39384

>  <fragmenstein_runtime>  (1120) 
5.7093

$$$$
CSc1cc2c(cc1NC(=O)c1cc(F)c3[nH]cc(C4CCNCC4)c3c1)CNC2
     RDKit          3D

 30 34  0  0  0  0  0  0  0  0999 V2000
   -8.8609    8.1130   -9.5710 C   0  0  0  0  0  0  0  0  0  0  0  0
   -7.9120    7.1301  -10.7591 S   0  0  0  0  0  0  0  0  0  0  0  0
   -8.1387    5.4288  -10.2063 C   0  0  0  0  0  0  0  0  0  0  0  0
   -8.2216    5.2160   -8.8151 C   0  0  0  0  0  0  0  0  0  0  0  0
   -8.5325    3.9603   -8.3270 C   0  0  0  0  0  0  0  0  0  0  0  0
   -8.7361    2.8941   -9.1831 C   0  0  0  0  0  0  0  0  0  0  0  0
   -8.6302    3.0519  -10.5544 C   0  0  0  0  0  0  0  0  0  0  0  0
   -8.2982    4.3150  -11.0866 C   0  0  0  0  0  0  0  0  0  0  0  0
   -8.1516    4.3262  -12.4896 N   0  0  0  0  0  0  0  0  0  0  0  0
   -7.2934    5.2338  -13.4036 C   0  0  0  0  0  0  0  0  0  0  0  0
   -6.6335    6.1630  -13.1443 O   0  0  0  0  0  0  0  0  0  0  0  0
   -7.3611    4.8688  -14.8528 C   0  0  0  0  0  0  0  0  0  0  0  0
   -8.4822    4.3354  -15.4889 C   0  0  0  0  0  0  0  0  0  0  0  0
   -8.5038    4.2020  -16.8832 C   0  0  0  0  0  0  0  0  0  0  0  0
   -9.6010    3.7409  -17.4993 F   0  0  0  0  0  0  0  0  0  0  0  0
   -7.4005    4.6283  -17.6252 C   0  0  0  0  0  0  0  0  0  0  0  0
   -7.1824    4.6836  -18.9802 N   0  0  0  0  0  0  0  0  0  0  0  0
   -5.9388    5.2135  -19.2335 C   0  0  0  0  0  0  0  0  0  0  0  0
   -5.3450    5.5379  -18.0310 C   0  0  0  0  0  0  0  0  0  0  0  0
   -4.0172    6.1953  -17.7768 C   0  0  0  0  0  0  0  0  0  0  0  0
   -3.7573    7.4128  -18.6612 C   0  0  0  0  0  0  0  0  0  0  0  0
   -2.4708    8.1222  -18.2229 C   0  0  0  0  0  0  0  0  0  0  0  0
   -1.4523    7.2313  -17.6617 N   0  0  0  0  0  0  0  0  0  0  0  0
   -1.5280    5.8869  -18.2232 C   0  0  0  0  0  0  0  0  0  0  0  0
   -2.8442    5.2064  -17.8445 C   0  0  0  0  0  0  0  0  0  0  0  0
   -6.2662    5.1492  -17.0133 C   0  0  0  0  0  0  0  0  0  0  0  0
   -6.2433    5.2470  -15.6134 C   0  0  0  0  0  0  0  0  0  0  0  0
   -8.9971    1.6642   -8.3806 C   0  0  0  0  0  0  0  0  0  0  0  0
   -9.2347    2.1360   -6.9927 N   0  0  0  0  0  0  0  0  0  0  0  0
   -8.7052    3.5111   -6.9166 C   0  0  0  0  0  0  0  0  0  0  0  0
  1  2  1  0
  2  3  1  0
  3  4  2  0
  4  5  1  0
  5  6  2  0
  6  7  1  0
  7  8  2  0
  8  9  1  0
  9 10  1  0
 10 11  2  0
 10 12  1  0
 12 13  2  0
 13 14  1  0
 14 15  1  0
 14 16  2  0
 16 17  1  0
 17 18  1  0
 18 19  2  0
 19 20  1  0
 20 21  1  0
 21 22  1  0
 22 23  1  0
 23 24  1  0
 24 25  1  0
 19 26  1  0
 26 27  2  0
  6 28  1  0
 28 29  1  0
 29 30  1  0
  8  3  1  0
 27 12  1  0
 30  5  1  0
 26 16  1  0
 25 20  1  0
M  END
>  <smiles>  (1121) 
C18155-P176

>  <fragmenstein_outcome>  (1121) 
acceptable

>  <inchikey>  (1121) 
ZQOMQZNITUGNLF-UHFFFAOYSA-N

>  <fragmenstein_mode>  (1121) 
expansion

>  <HIPPO Pose ID>  (1121) 
20406

>  <Energy>  (1121) 
67.669745

>  <fragmenstein_error>  (1121) 


>  <tags>  (1121) 
{'openbind_xx01zvns2b_c1_fragmenstein', 'fragmenstein_placed'}

>  <ref_pdb>  (1121) 
175

>  <scratch_subdir>  (1121) 
/opt/xchem-fragalysis-2/maxwin/BulkDock/SCRATCH/511028/C18155-P176

>  <alias>  (1121) 
CSc1cc2c(cc1NC(=O)c1cc(F)c3[nH]cc(C4CCNCC4)c3c1)CNC2

>  <HIPPO Compound ID>  (1121) 
22808

>  <fragmenstein_runtime>  (1121) 
5.403243

$$$$
O=C(O)C[C@H]1NCc2cc(NC(=O)c3cc(Cl)c4[nH]cc(C5CCNCC5)c4c3)ccc21
     RDKit          3D

 32 36  0  0  0  0  0  0  0  0999 V2000
   -7.2387    4.0040   -4.4036 O   0  0  0  0  0  0  0  0  0  0  0  0
   -8.3750    4.3813   -4.6596 C   0  0  0  0  0  0  0  0  0  0  0  0
   -9.2108    4.7282   -3.6579 O   0  0  0  0  0  0  0  0  0  0  0  0
   -8.9874    4.6167   -6.0167 C   0  0  0  0  0  0  0  0  0  0  0  0
   -8.3791    3.6531   -7.0258 C   0  0  1  0  0  0  0  0  0  0  0  0
   -9.1053    2.3586   -7.0427 N   0  0  0  0  0  0  0  0  0  0  0  0
   -8.9451    1.8086   -8.4094 C   0  0  0  0  0  0  0  0  0  0  0  0
   -8.6379    2.9900   -9.2710 C   0  0  0  0  0  0  0  0  0  0  0  0
   -8.5229    3.0572  -10.6519 C   0  0  0  0  0  0  0  0  0  0  0  0
   -8.0884    4.2577  -11.2204 C   0  0  0  0  0  0  0  0  0  0  0  0
   -7.8793    4.3198  -12.5971 N   0  0  0  0  0  0  0  0  0  0  0  0
   -7.1823    5.4008  -13.4612 C   0  0  0  0  0  0  0  0  0  0  0  0
   -6.7436    6.4425  -13.1628 O   0  0  0  0  0  0  0  0  0  0  0  0
   -7.1664    5.0360  -14.9057 C   0  0  0  0  0  0  0  0  0  0  0  0
   -8.3045    4.5027  -15.5020 C   0  0  0  0  0  0  0  0  0  0  0  0
   -8.3493    4.3485  -16.8822 C   0  0  0  0  0  0  0  0  0  0  0  0
   -9.7871    3.8437  -17.6359 Cl  0  0  0  0  0  0  0  0  0  0  0  0
   -7.2501    4.7249  -17.6528 C   0  0  0  0  0  0  0  0  0  0  0  0
   -7.0857    4.7269  -19.0169 N   0  0  0  0  0  0  0  0  0  0  0  0
   -5.8523    5.2167  -19.3341 C   0  0  0  0  0  0  0  0  0  0  0  0
   -5.2020    5.5713  -18.1691 C   0  0  0  0  0  0  0  0  0  0  0  0
   -3.8466    6.2151  -18.1305 C   0  0  0  0  0  0  0  0  0  0  0  0
   -3.9015    7.6476  -17.5865 C   0  0  0  0  0  0  0  0  0  0  0  0
   -2.5095    8.2706  -17.5877 C   0  0  0  0  0  0  0  0  0  0  0  0
   -1.5535    7.4620  -16.8320 N   0  0  0  0  0  0  0  0  0  0  0  0
   -1.4528    6.1079  -17.3821 C   0  0  0  0  0  0  0  0  0  0  0  0
   -2.7997    5.3876  -17.3809 C   0  0  0  0  0  0  0  0  0  0  0  0
   -6.0891    5.2504  -17.0874 C   0  0  0  0  0  0  0  0  0  0  0  0
   -6.0518    5.4046  -15.6832 C   0  0  0  0  0  0  0  0  0  0  0  0
   -7.8371    5.3739  -10.4073 C   0  0  0  0  0  0  0  0  0  0  0  0
   -7.9678    5.2958   -9.0176 C   0  0  0  0  0  0  0  0  0  0  0  0
   -8.3553    4.0904   -8.4613 C   0  0  0  0  0  0  0  0  0  0  0  0
  1  2  2  0
  2  3  1  0
  2  4  1  0
  5  4  1  1
  5  6  1  0
  6  7  1  0
  7  8  1  0
  8  9  2  0
  9 10  1  0
 10 11  1  0
 11 12  1  0
 12 13  2  0
 12 14  1  0
 14 15  2  0
 15 16  1  0
 16 17  1  0
 16 18  2  0
 18 19  1  0
 19 20  1  0
 20 21  2  0
 21 22  1  0
 22 23  1  0
 23 24  1  0
 24 25  1  0
 25 26  1  0
 26 27  1  0
 21 28  1  0
 28 29  2  0
 10 30  2  0
 30 31  1  0
 31 32  2  0
 32  5  1  0
 32  8  1  0
 29 14  1  0
 28 18  1  0
 27 22  1  0
M  END
>  <smiles>  (1122) 
C18158-P176

>  <fragmenstein_outcome>  (1122) 
acceptable

>  <inchikey>  (1122) 
CNLILXDEVGGAKC-UHFFFAOYSA-N

>  <fragmenstein_mode>  (1122) 
expansion

>  <HIPPO Pose ID>  (1122) 
20408

>  <Energy>  (1122) 
13.804479

>  <fragmenstein_error>  (1122) 


>  <tags>  (1122) 
{'openbind_xx01zvns2b_c1_fragmenstein', 'fragmenstein_placed'}

>  <ref_pdb>  (1122) 
175

>  <scratch_subdir>  (1122) 
/opt/xchem-fragalysis-2/maxwin/BulkDock/SCRATCH/511028/C18158-P176

>  <alias>  (1122) 
O=C(O)C[C@H]1NCc2cc(NC(=O)c3cc(Cl)c4[nH]cc(C5CCNCC5)c4c3)ccc21

>  <HIPPO Compound ID>  (1122) 
18158

>  <fragmenstein_runtime>  (1122) 
5.651443

$$$$
CCOC(C)(C)[C@@H]1CNCC[C@@H]1c1c[nH]c2c(F)cc(C(=O)Nc3ccc4c(c3)CNC4)cc12
     RDKit          3D

 34 38  0  0  0  0  0  0  0  0999 V2000
   -3.1844    3.9051  -12.5972 C   0  0  0  0  0  0  0  0  0  0  0  0
   -3.9587    5.0169  -13.2852 C   0  0  0  0  0  0  0  0  0  0  0  0
   -3.7650    4.9914  -14.7026 O   0  0  0  0  0  0  0  0  0  0  0  0
   -2.9524    6.0164  -15.3257 C   0  0  0  0  0  0  0  0  0  0  0  0
   -1.5415    5.9351  -14.6884 C   0  0  0  0  0  0  0  0  0  0  0  0
   -3.4914    7.4268  -15.0268 C   0  0  0  0  0  0  0  0  0  0  0  0
   -2.9139    5.6349  -16.8836 C   0  0  2  0  0  0  0  0  0  0  0  0
   -1.6094    6.1407  -17.5671 C   0  0  0  0  0  0  0  0  0  0  0  0
   -1.5990    7.6012  -17.6848 N   0  0  0  0  0  0  0  0  0  0  0  0
   -2.6786    8.0830  -18.5480 C   0  0  0  0  0  0  0  0  0  0  0  0
   -4.0708    7.5761  -18.1551 C   0  0  0  0  0  0  0  0  0  0  0  0
   -4.0393    6.0643  -17.8925 C   0  0  2  0  0  0  0  0  0  0  0  0
   -5.4033    5.4065  -17.9853 C   0  0  0  0  0  0  0  0  0  0  0  0
   -5.9323    4.9786  -19.1988 C   0  0  0  0  0  0  0  0  0  0  0  0
   -7.1832    4.4630  -19.0063 N   0  0  0  0  0  0  0  0  0  0  0  0
   -7.4937    4.5141  -17.6758 C   0  0  0  0  0  0  0  0  0  0  0  0
   -8.6363    4.0756  -17.0039 C   0  0  0  0  0  0  0  0  0  0  0  0
   -9.6412    3.4811  -17.6578 F   0  0  0  0  0  0  0  0  0  0  0  0
   -8.7429    4.2973  -15.6389 C   0  0  0  0  0  0  0  0  0  0  0  0
   -7.7480    5.0055  -14.9856 C   0  0  0  0  0  0  0  0  0  0  0  0
   -7.8939    5.4387  -13.5791 C   0  0  0  0  0  0  0  0  0  0  0  0
   -7.7781    6.5747  -13.3373 O   0  0  0  0  0  0  0  0  0  0  0  0
   -8.1753    4.2423  -12.6484 N   0  0  0  0  0  0  0  0  0  0  0  0
   -8.2757    4.1797  -11.2635 C   0  0  0  0  0  0  0  0  0  0  0  0
   -8.0681    5.3217  -10.4708 C   0  0  0  0  0  0  0  0  0  0  0  0
   -8.1703    5.2545   -9.0790 C   0  0  0  0  0  0  0  0  0  0  0  0
   -8.4930    4.0375   -8.5093 C   0  0  0  0  0  0  0  0  0  0  0  0
   -8.6898    2.9050   -9.2934 C   0  0  0  0  0  0  0  0  0  0  0  0
   -8.5782    2.9534  -10.6717 C   0  0  0  0  0  0  0  0  0  0  0  0
   -8.9831    1.7399   -8.4095 C   0  0  0  0  0  0  0  0  0  0  0  0
   -9.2631    2.3231   -7.0757 N   0  0  0  0  0  0  0  0  0  0  0  0
   -8.6783    3.6769   -7.0743 C   0  0  0  0  0  0  0  0  0  0  0  0
   -6.6042    5.4350  -15.6654 C   0  0  0  0  0  0  0  0  0  0  0  0
   -6.4321    5.1556  -17.0267 C   0  0  0  0  0  0  0  0  0  0  0  0
  1  2  1  0
  2  3  1  0
  3  4  1  0
  4  5  1  0
  4  6  1  0
  7  4  1  1
  7  8  1  0
  8  9  1  0
  9 10  1  0
 10 11  1  0
 11 12  1  0
 12 13  1  1
 13 14  2  0
 14 15  1  0
 15 16  1  0
 16 17  2  0
 17 18  1  0
 17 19  1  0
 19 20  2  0
 20 21  1  0
 21 22  2  0
 21 23  1  0
 23 24  1  0
 24 25  2  0
 25 26  1  0
 26 27  2  0
 27 28  1  0
 28 29  2  0
 28 30  1  0
 30 31  1  0
 31 32  1  0
 20 33  1  0
 33 34  2  0
 12  7  1  0
 34 13  1  0
 34 16  1  0
 29 24  1  0
 32 27  1  0
M  END
>  <smiles>  (1123) 
C18159-P176

>  <fragmenstein_outcome>  (1123) 
acceptable

>  <inchikey>  (1123) 
BASQSKKWKWHFSI-UHFFFAOYSA-N

>  <fragmenstein_mode>  (1123) 
expansion

>  <HIPPO Pose ID>  (1123) 
20409

>  <Energy>  (1123) 
84.885958

>  <fragmenstein_error>  (1123) 


>  <tags>  (1123) 
{'openbind_xx01zvns2b_c1_fragmenstein', 'fragmenstein_placed'}

>  <ref_pdb>  (1123) 
175

>  <scratch_subdir>  (1123) 
/opt/xchem-fragalysis-2/maxwin/BulkDock/SCRATCH/511028/C18159-P176

>  <alias>  (1123) 
CCOC(C)(C)[C@@H]1CNCC[C@@H]1c1c[nH]c2c(F)cc(C(=O)Nc3ccc4c(c3)CNC4)cc12

>  <HIPPO Compound ID>  (1123) 
18159

>  <fragmenstein_runtime>  (1123) 
8.484983

$$$$
O=C(NCC(F)F)[C@](O)(Nc1ccc2c(c1)CNC2)c1cc(Br)c2[nH]cc(C3CCNCC3)c2c1OCc1ccccn1
     RDKit          3D

 43 48  0  0  0  0  0  0  0  0999 V2000
   -8.7660    6.9855  -11.9187 O   0  0  0  0  0  0  0  0  0  0  0  0
   -8.0292    6.8162  -12.8130 C   0  0  0  0  0  0  0  0  0  0  0  0
   -7.1562    7.8279  -13.6006 N   0  0  0  0  0  0  0  0  0  0  0  0
   -7.0799    9.2744  -13.5139 C   0  0  0  0  0  0  0  0  0  0  0  0
   -5.8233    9.8824  -14.1207 C   0  0  0  0  0  0  0  0  0  0  0  0
   -5.8984   11.2352  -14.0707 F   0  0  0  0  0  0  0  0  0  0  0  0
   -5.7578    9.5481  -15.4378 F   0  0  0  0  0  0  0  0  0  0  0  0
   -7.7416    5.2686  -13.2986 C   0  0  2  0  0  0  0  0  0  0  0  0
   -9.0126    4.6423  -13.0569 O   0  0  0  0  0  0  0  0  0  0  0  0
   -6.7805    4.5377  -12.4625 N   0  0  0  0  0  0  0  0  0  0  0  0
   -7.1519    4.3385  -11.1080 C   0  0  0  0  0  0  0  0  0  0  0  0
   -7.0314    5.3935  -10.1841 C   0  0  0  0  0  0  0  0  0  0  0  0
   -7.5178    5.2850   -8.8784 C   0  0  0  0  0  0  0  0  0  0  0  0
   -8.0977    4.0933   -8.4939 C   0  0  0  0  0  0  0  0  0  0  0  0
   -8.2133    3.0354   -9.3844 C   0  0  0  0  0  0  0  0  0  0  0  0
   -7.7608    3.1408  -10.6933 C   0  0  0  0  0  0  0  0  0  0  0  0
   -8.8694    1.8855   -8.6973 C   0  0  0  0  0  0  0  0  0  0  0  0
   -8.9903    2.2655   -7.2625 N   0  0  0  0  0  0  0  0  0  0  0  0
   -8.6707    3.7063   -7.1752 C   0  0  0  0  0  0  0  0  0  0  0  0
   -7.4146    5.0973  -14.8010 C   0  0  0  0  0  0  0  0  0  0  0  0
   -8.5086    4.7178  -15.5803 C   0  0  0  0  0  0  0  0  0  0  0  0
   -8.4405    4.5357  -16.9405 C   0  0  0  0  0  0  0  0  0  0  0  0
  -10.0047    4.0918  -17.8201 Br  0  0  0  0  0  0  0  0  0  0  0  0
   -7.2694    4.8214  -17.6073 C   0  0  0  0  0  0  0  0  0  0  0  0
   -7.0301    4.7965  -18.9563 N   0  0  0  0  0  0  0  0  0  0  0  0
   -5.7563    5.1894  -19.1963 C   0  0  0  0  0  0  0  0  0  0  0  0
   -5.1424    5.4848  -17.9897 C   0  0  0  0  0  0  0  0  0  0  0  0
   -3.7714    6.1046  -17.9849 C   0  0  0  0  0  0  0  0  0  0  0  0
   -3.8127    7.5803  -17.5790 C   0  0  0  0  0  0  0  0  0  0  0  0
   -2.4213    8.1978  -17.6257 C   0  0  0  0  0  0  0  0  0  0  0  0
   -1.4620    7.4359  -16.8310 N   0  0  0  0  0  0  0  0  0  0  0  0
   -1.3575    6.0555  -17.3105 C   0  0  0  0  0  0  0  0  0  0  0  0
   -2.6938    5.3158  -17.2554 C   0  0  0  0  0  0  0  0  0  0  0  0
   -6.1071    5.2083  -16.9340 C   0  0  0  0  0  0  0  0  0  0  0  0
   -6.1642    5.2533  -15.4873 C   0  0  0  0  0  0  0  0  0  0  0  0
   -4.9717    5.1572  -14.8180 O   0  0  0  0  0  0  0  0  0  0  0  0
   -4.5426    6.2759  -14.0569 C   0  0  0  0  0  0  0  0  0  0  0  0
   -3.1160    6.0788  -13.5936 C   0  0  0  0  0  0  0  0  0  0  0  0
   -2.7523    4.9091  -12.9275 C   0  0  0  0  0  0  0  0  0  0  0  0
   -1.4393    4.7627  -12.4921 C   0  0  0  0  0  0  0  0  0  0  0  0
   -0.5285    5.7858  -12.7220 C   0  0  0  0  0  0  0  0  0  0  0  0
   -0.9719    6.9213  -13.3779 C   0  0  0  0  0  0  0  0  0  0  0  0
   -2.2408    7.0948  -13.8175 N   0  0  0  0  0  0  0  0  0  0  0  0
  1  2  2  0
  2  3  1  0
  3  4  1  0
  4  5  1  0
  5  6  1  0
  5  7  1  0
  2  8  1  0
  8  9  1  6
  8 10  1  0
 10 11  1  0
 11 12  2  0
 12 13  1  0
 13 14  2  0
 14 15  1  0
 15 16  2  0
 15 17  1  0
 17 18  1  0
 18 19  1  0
  8 20  1  0
 20 21  2  0
 21 22  1  0
 22 23  1  0
 22 24  2  0
 24 25  1  0
 25 26  1  0
 26 27  2  0
 27 28  1  0
 28 29  1  0
 29 30  1  0
 30 31  1  0
 31 32  1  0
 32 33  1  0
 27 34  1  0
 34 35  2  0
 35 36  1  0
 36 37  1  0
 37 38  1  0
 38 39  2  0
 39 40  1  0
 40 41  2  0
 41 42  1  0
 42 43  2  0
 16 11  1  0
 35 20  1  0
 43 38  1  0
 19 14  1  0
 34 24  1  0
 33 28  1  0
M  END
>  <smiles>  (1124) 
C18162-P176

>  <fragmenstein_outcome>  (1124) 
acceptable

>  <inchikey>  (1124) 
LFNHZUUUSTWNQW-UHFFFAOYSA-N

>  <fragmenstein_mode>  (1124) 
expansion

>  <HIPPO Pose ID>  (1124) 
20411

>  <Energy>  (1124) 
186.359955

>  <fragmenstein_error>  (1124) 


>  <tags>  (1124) 
{'openbind_xx01zvns2b_c1_fragmenstein', 'fragmenstein_placed'}

>  <ref_pdb>  (1124) 
175

>  <scratch_subdir>  (1124) 
/opt/xchem-fragalysis-2/maxwin/BulkDock/SCRATCH/511028/C18162-P176

>  <alias>  (1124) 
O=C(NCC(F)F)[C@](O)(Nc1ccc2c(c1)CNC2)c1cc(Br)c2[nH]cc(C3CCNCC3)c2c1OCc1ccccn1

>  <HIPPO Compound ID>  (1124) 
18162

>  <fragmenstein_runtime>  (1124) 
11.256867

$$$$
O=C(Nc1ccc2c(c1)CNC2)c1cc2c3c(c1)[C@@H](C1CCNCC1)CN3CS2
     RDKit          3D

 29 34  0  0  0  0  0  0  0  0999 V2000
   -7.1227    6.6573  -12.7378 O   0  0  0  0  0  0  0  0  0  0  0  0
   -7.3627    5.5634  -13.0701 C   0  0  0  0  0  0  0  0  0  0  0  0
   -7.7814    4.3315  -12.2351 N   0  0  0  0  0  0  0  0  0  0  0  0
   -8.0731    4.2154  -10.8813 C   0  0  0  0  0  0  0  0  0  0  0  0
   -7.9885    5.3268  -10.0289 C   0  0  0  0  0  0  0  0  0  0  0  0
   -8.2313    5.1960   -8.6598 C   0  0  0  0  0  0  0  0  0  0  0  0
   -8.5693    3.9474   -8.1726 C   0  0  0  0  0  0  0  0  0  0  0  0
   -8.6707    2.8497   -9.0186 C   0  0  0  0  0  0  0  0  0  0  0  0
   -8.4269    2.9617  -10.3774 C   0  0  0  0  0  0  0  0  0  0  0  0
   -9.0024    1.6375   -8.2173 C   0  0  0  0  0  0  0  0  0  0  0  0
   -9.3276    2.1264   -6.8530 N   0  0  0  0  0  0  0  0  0  0  0  0
   -8.8470    3.5205   -6.7723 C   0  0  0  0  0  0  0  0  0  0  0  0
   -7.2277    5.2172  -14.5103 C   0  0  0  0  0  0  0  0  0  0  0  0
   -8.2003    4.4199  -15.1501 C   0  0  0  0  0  0  0  0  0  0  0  0
   -8.0602    4.1977  -16.5016 C   0  0  0  0  0  0  0  0  0  0  0  0
   -6.9808    4.7306  -17.1697 C   0  0  0  0  0  0  0  0  0  0  0  0
   -6.1010    5.6059  -16.5953 C   0  0  0  0  0  0  0  0  0  0  0  0
   -6.1859    5.8395  -15.2380 C   0  0  0  0  0  0  0  0  0  0  0  0
   -5.4169    6.3384  -17.7062 C   0  0  1  0  0  0  0  0  0  0  0  0
   -3.9233    6.5949  -17.5335 C   0  0  0  0  0  0  0  0  0  0  0  0
   -3.4595    7.6877  -18.5149 C   0  0  0  0  0  0  0  0  0  0  0  0
   -1.9522    7.6703  -18.7602 C   0  0  0  0  0  0  0  0  0  0  0  0
   -1.2410    7.1784  -17.5913 N   0  0  0  0  0  0  0  0  0  0  0  0
   -1.5547    5.7686  -17.3340 C   0  0  0  0  0  0  0  0  0  0  0  0
   -3.0111    5.3756  -17.6283 C   0  0  0  0  0  0  0  0  0  0  0  0
   -5.9236    5.5843  -18.9866 C   0  0  0  0  0  0  0  0  0  0  0  0
   -6.8113    4.5131  -18.5465 N   0  0  0  0  0  0  0  0  0  0  0  0
   -8.1524    4.2778  -19.0575 C   0  0  0  0  0  0  0  0  0  0  0  0
   -9.1320    3.5048  -17.6972 S   0  0  0  0  0  0  0  0  0  0  0  0
  1  2  2  0
  2  3  1  0
  3  4  1  0
  4  5  2  0
  5  6  1  0
  6  7  2  0
  7  8  1  0
  8  9  2  0
  8 10  1  0
 10 11  1  0
 11 12  1  0
  2 13  1  0
 13 14  2  0
 14 15  1  0
 15 16  2  0
 16 17  1  0
 17 18  2  0
 17 19  1  0
 19 20  1  1
 20 21  1  0
 21 22  1  0
 22 23  1  0
 23 24  1  0
 24 25  1  0
 19 26  1  0
 26 27  1  0
 27 28  1  0
 28 29  1  0
  9  4  1  0
 18 13  1  0
 25 20  1  0
 12  7  1  0
 29 15  1  0
 27 16  1  0
M  END
>  <smiles>  (1125) 
C18166-P176

>  <fragmenstein_outcome>  (1125) 
acceptable

>  <inchikey>  (1125) 
MONPXLKYTKHEHC-UHFFFAOYSA-N

>  <fragmenstein_mode>  (1125) 
expansion

>  <HIPPO Pose ID>  (1125) 
20412

>  <Energy>  (1125) 
85.855105

>  <fragmenstein_error>  (1125) 


>  <tags>  (1125) 
{'openbind_xx01zvns2b_c1_fragmenstein', 'fragmenstein_placed'}

>  <ref_pdb>  (1125) 
175

>  <scratch_subdir>  (1125) 
/opt/xchem-fragalysis-2/maxwin/BulkDock/SCRATCH/511028/C18166-P176

>  <alias>  (1125) 
O=C(Nc1ccc2c(c1)CNC2)c1cc2c3c(c1)[C@@H](C1CCNCC1)CN3CS2

>  <HIPPO Compound ID>  (1125) 
18166

>  <fragmenstein_runtime>  (1125) 
6.368101

$$$$
O=C(O)N=C(Nc1ccc2c(c1)CNC2)c1cc(Cl)c2[nH]cc(C3CCNCC3)c2c1
     RDKit          3D

 31 35  0  0  0  0  0  0  0  0999 V2000
   -5.8803    8.0271  -14.3690 O   0  0  0  0  0  0  0  0  0  0  0  0
   -6.8187    7.8059  -13.6219 C   0  0  0  0  0  0  0  0  0  0  0  0
   -7.7090    8.7817  -13.3674 O   0  0  0  0  0  0  0  0  0  0  0  0
   -7.1018    6.7134  -12.8881 N   0  0  0  0  0  0  0  0  0  0  0  0
   -7.2985    5.5684  -13.2519 C   0  0  0  0  0  0  0  0  0  0  0  0
   -7.6922    4.2769  -12.4184 N   0  0  0  0  0  0  0  0  0  0  0  0
   -8.0060    4.1297  -11.0692 C   0  0  0  0  0  0  0  0  0  0  0  0
   -7.9140    5.2273  -10.1851 C   0  0  0  0  0  0  0  0  0  0  0  0
   -8.1932    5.1109   -8.8210 C   0  0  0  0  0  0  0  0  0  0  0  0
   -8.5775    3.8768   -8.3480 C   0  0  0  0  0  0  0  0  0  0  0  0
   -8.6694    2.7816   -9.2013 C   0  0  0  0  0  0  0  0  0  0  0  0
   -8.3824    2.8853  -10.5548 C   0  0  0  0  0  0  0  0  0  0  0  0
   -9.0554    1.5853   -8.3979 C   0  0  0  0  0  0  0  0  0  0  0  0
   -9.5789    2.1316   -7.1180 N   0  0  0  0  0  0  0  0  0  0  0  0
   -8.9242    3.4488   -6.9622 C   0  0  0  0  0  0  0  0  0  0  0  0
   -7.2406    5.1930  -14.7265 C   0  0  0  0  0  0  0  0  0  0  0  0
   -8.3719    4.6671  -15.3538 C   0  0  0  0  0  0  0  0  0  0  0  0
   -8.3705    4.4373  -16.7331 C   0  0  0  0  0  0  0  0  0  0  0  0
   -9.7699    3.8879  -17.5374 Cl  0  0  0  0  0  0  0  0  0  0  0  0
   -7.2373    4.7775  -17.4712 C   0  0  0  0  0  0  0  0  0  0  0  0
   -7.0052    4.7662  -18.8288 N   0  0  0  0  0  0  0  0  0  0  0  0
   -5.7480    5.2453  -19.0892 C   0  0  0  0  0  0  0  0  0  0  0  0
   -5.1521    5.5795  -17.8889 C   0  0  0  0  0  0  0  0  0  0  0  0
   -3.8106    6.2086  -17.6588 C   0  0  0  0  0  0  0  0  0  0  0  0
   -3.5804    7.4584  -18.5061 C   0  0  0  0  0  0  0  0  0  0  0  0
   -2.2687    8.1372  -18.1004 C   0  0  0  0  0  0  0  0  0  0  0  0
   -1.2355    7.2135  -17.6253 N   0  0  0  0  0  0  0  0  0  0  0  0
   -1.3537    5.8924  -18.2338 C   0  0  0  0  0  0  0  0  0  0  0  0
   -2.6572    5.2108  -17.8180 C   0  0  0  0  0  0  0  0  0  0  0  0
   -6.0873    5.2617  -16.8585 C   0  0  0  0  0  0  0  0  0  0  0  0
   -6.0694    5.4069  -15.4564 C   0  0  0  0  0  0  0  0  0  0  0  0
  1  2  2  0
  2  3  1  0
  2  4  1  0
  4  5  2  3
  5  6  1  0
  6  7  1  0
  7  8  2  0
  8  9  1  0
  9 10  2  0
 10 11  1  0
 11 12  2  0
 11 13  1  0
 13 14  1  0
 14 15  1  0
  5 16  1  0
 16 17  2  0
 17 18  1  0
 18 19  1  0
 18 20  2  0
 20 21  1  0
 21 22  1  0
 22 23  2  0
 23 24  1  0
 24 25  1  0
 25 26  1  0
 26 27  1  0
 27 28  1  0
 28 29  1  0
 23 30  1  0
 30 31  2  0
 12  7  1  0
 31 16  1  0
 15 10  1  0
 30 20  1  0
 29 24  1  0
M  END
>  <smiles>  (1126) 
C18176-P176

>  <fragmenstein_outcome>  (1126) 
acceptable

>  <inchikey>  (1126) 
IYBJSZMWUFVBDE-UHFFFAOYSA-N

>  <fragmenstein_mode>  (1126) 
expansion

>  <HIPPO Pose ID>  (1126) 
20413

>  <Energy>  (1126) 
-9.711524

>  <fragmenstein_error>  (1126) 


>  <tags>  (1126) 
{'openbind_xx01zvns2b_c1_fragmenstein', 'fragmenstein_placed'}

>  <ref_pdb>  (1126) 
175

>  <scratch_subdir>  (1126) 
/opt/xchem-fragalysis-2/maxwin/BulkDock/SCRATCH/511028/C18176-P176

>  <alias>  (1126) 
O=C(O)N=C(Nc1ccc2c(c1)CNC2)c1cc(Cl)c2[nH]cc(C3CCNCC3)c2c1

>  <HIPPO Compound ID>  (1126) 
18176

>  <fragmenstein_runtime>  (1126) 
7.961482

$$$$
CNCc1[nH]c2ccc(C(=O)Nc3cc(Br)c4c(c3)CNC4)cc2c1C1CCNCC1
     RDKit          3D

 31 35  0  0  0  0  0  0  0  0999 V2000
   -4.6698    7.6558  -20.8202 C   0  0  0  0  0  0  0  0  0  0  0  0
   -4.7505    6.2298  -21.0443 N   0  0  0  0  0  0  0  0  0  0  0  0
   -4.1664    5.4477  -19.9737 C   0  0  0  0  0  0  0  0  0  0  0  0
   -5.0924    5.3449  -18.8139 C   0  0  0  0  0  0  0  0  0  0  0  0
   -6.3847    4.8599  -18.9407 N   0  0  0  0  0  0  0  0  0  0  0  0
   -6.9820    4.7516  -17.7004 C   0  0  0  0  0  0  0  0  0  0  0  0
   -8.2351    4.2496  -17.3019 C   0  0  0  0  0  0  0  0  0  0  0  0
   -8.5950    4.3687  -15.9450 C   0  0  0  0  0  0  0  0  0  0  0  0
   -7.7317    4.9825  -15.0442 C   0  0  0  0  0  0  0  0  0  0  0  0
   -8.0916    5.3690  -13.6626 C   0  0  0  0  0  0  0  0  0  0  0  0
   -8.1677    6.5097  -13.4291 O   0  0  0  0  0  0  0  0  0  0  0  0
   -8.2078    4.1491  -12.7303 N   0  0  0  0  0  0  0  0  0  0  0  0
   -8.3432    4.0778  -11.3430 C   0  0  0  0  0  0  0  0  0  0  0  0
   -8.2077    5.2377  -10.5577 C   0  0  0  0  0  0  0  0  0  0  0  0
   -8.2964    5.1734   -9.1644 C   0  0  0  0  0  0  0  0  0  0  0  0
   -8.0428    6.7377   -8.1354 Br  0  0  0  0  0  0  0  0  0  0  0  0
   -8.5752    3.9572   -8.5751 C   0  0  0  0  0  0  0  0  0  0  0  0
   -8.7057    2.8080   -9.3541 C   0  0  0  0  0  0  0  0  0  0  0  0
   -8.5671    2.8434  -10.7341 C   0  0  0  0  0  0  0  0  0  0  0  0
   -8.9788    1.6445   -8.4586 C   0  0  0  0  0  0  0  0  0  0  0  0
   -9.3876    2.2435   -7.1636 N   0  0  0  0  0  0  0  0  0  0  0  0
   -8.7809    3.5932   -7.1430 C   0  0  0  0  0  0  0  0  0  0  0  0
   -6.4690    5.4175  -15.4461 C   0  0  0  0  0  0  0  0  0  0  0  0
   -6.0841    5.2985  -16.7896 C   0  0  0  0  0  0  0  0  0  0  0  0
   -4.8902    5.6642  -17.4838 C   0  0  0  0  0  0  0  0  0  0  0  0
   -3.6819    6.2719  -16.8106 C   0  0  0  0  0  0  0  0  0  0  0  0
   -3.5436    7.7809  -17.0538 C   0  0  0  0  0  0  0  0  0  0  0  0
   -2.3344    8.1809  -17.8809 C   0  0  0  0  0  0  0  0  0  0  0  0
   -1.1264    7.5037  -17.4260 N   0  0  0  0  0  0  0  0  0  0  0  0
   -1.2427    6.0729  -17.6829 C   0  0  0  0  0  0  0  0  0  0  0  0
   -2.3999    5.4354  -16.9243 C   0  0  0  0  0  0  0  0  0  0  0  0
  1  2  1  0
  2  3  1  0
  3  4  1  0
  4  5  1  0
  5  6  1  0
  6  7  2  0
  7  8  1  0
  8  9  2  0
  9 10  1  0
 10 11  2  0
 10 12  1  0
 12 13  1  0
 13 14  2  0
 14 15  1  0
 15 16  1  0
 15 17  2  0
 17 18  1  0
 18 19  2  0
 18 20  1  0
 20 21  1  0
 21 22  1  0
  9 23  1  0
 23 24  2  0
 24 25  1  0
 25 26  1  0
 26 27  1  0
 27 28  1  0
 28 29  1  0
 29 30  1  0
 30 31  1  0
 25  4  2  0
 31 26  1  0
 24  6  1  0
 19 13  1  0
 22 17  1  0
M  END
>  <smiles>  (1127) 
C18177-P176

>  <fragmenstein_outcome>  (1127) 
acceptable

>  <inchikey>  (1127) 
QYGPAJWPDHYFLP-UHFFFAOYSA-N

>  <fragmenstein_mode>  (1127) 
expansion

>  <HIPPO Pose ID>  (1127) 
20414

>  <Energy>  (1127) 
37.630903

>  <fragmenstein_error>  (1127) 


>  <tags>  (1127) 
{'openbind_xx01zvns2b_c1_fragmenstein', 'fragmenstein_placed'}

>  <ref_pdb>  (1127) 
175

>  <scratch_subdir>  (1127) 
/opt/xchem-fragalysis-2/maxwin/BulkDock/SCRATCH/511028/C18177-P176

>  <alias>  (1127) 
CNCc1[nH]c2ccc(C(=O)Nc3cc(Br)c4c(c3)CNC4)cc2c1C1CCNCC1

>  <HIPPO Compound ID>  (1127) 
19498

>  <fragmenstein_runtime>  (1127) 
5.10401

$$$$
CNCc1[nH]c2c(F)cc(C(=O)Nc3ccc4c(c3)CNC4)cc2c1C1CCNCC1
     RDKit          3D

 31 35  0  0  0  0  0  0  0  0999 V2000
   -4.9299    7.0263  -22.1320 C   0  0  0  0  0  0  0  0  0  0  0  0
   -5.5745    6.8735  -20.8333 N   0  0  0  0  0  0  0  0  0  0  0  0
   -5.1067    5.6642  -20.1693 C   0  0  0  0  0  0  0  0  0  0  0  0
   -5.6929    5.5636  -18.8128 C   0  0  0  0  0  0  0  0  0  0  0  0
   -6.9628    5.0412  -18.6391 N   0  0  0  0  0  0  0  0  0  0  0  0
   -7.2259    4.8729  -17.3020 C   0  0  0  0  0  0  0  0  0  0  0  0
   -8.3347    4.3450  -16.6355 C   0  0  0  0  0  0  0  0  0  0  0  0
   -9.4138    3.9362  -17.3196 F   0  0  0  0  0  0  0  0  0  0  0  0
   -8.2868    4.2311  -15.2407 C   0  0  0  0  0  0  0  0  0  0  0  0
   -7.1391    4.6236  -14.5461 C   0  0  0  0  0  0  0  0  0  0  0  0
   -6.8949    4.2606  -13.1252 C   0  0  0  0  0  0  0  0  0  0  0  0
   -5.9652    3.6019  -12.8909 O   0  0  0  0  0  0  0  0  0  0  0  0
   -7.9969    4.7876  -12.2013 N   0  0  0  0  0  0  0  0  0  0  0  0
   -8.2353    4.5491  -10.8616 C   0  0  0  0  0  0  0  0  0  0  0  0
   -8.3568    5.6255   -9.9787 C   0  0  0  0  0  0  0  0  0  0  0  0
   -8.5056    5.3859   -8.6103 C   0  0  0  0  0  0  0  0  0  0  0  0
   -8.6364    4.0748   -8.1792 C   0  0  0  0  0  0  0  0  0  0  0  0
   -8.5707    3.0130   -9.0721 C   0  0  0  0  0  0  0  0  0  0  0  0
   -8.3096    3.2275  -10.4123 C   0  0  0  0  0  0  0  0  0  0  0  0
   -8.8243    1.7322   -8.3521 C   0  0  0  0  0  0  0  0  0  0  0  0
   -9.1893    2.1137   -6.9617 N   0  0  0  0  0  0  0  0  0  0  0  0
   -8.8646    3.5449   -6.8051 C   0  0  0  0  0  0  0  0  0  0  0  0
   -6.0640    5.2012  -15.2184 C   0  0  0  0  0  0  0  0  0  0  0  0
   -6.1095    5.3349  -16.6159 C   0  0  0  0  0  0  0  0  0  0  0  0
   -5.1780    5.8636  -17.5632 C   0  0  0  0  0  0  0  0  0  0  0  0
   -3.8964    6.5493  -17.1422 C   0  0  0  0  0  0  0  0  0  0  0  0
   -3.6271    7.9039  -17.8061 C   0  0  0  0  0  0  0  0  0  0  0  0
   -2.5123    7.8972  -18.8390 C   0  0  0  0  0  0  0  0  0  0  0  0
   -1.3403    7.1669  -18.3637 N   0  0  0  0  0  0  0  0  0  0  0  0
   -1.6817    5.7596  -18.1630 C   0  0  0  0  0  0  0  0  0  0  0  0
   -2.6890    5.6114  -17.0370 C   0  0  0  0  0  0  0  0  0  0  0  0
  1  2  1  0
  2  3  1  0
  3  4  1  0
  4  5  1  0
  5  6  1  0
  6  7  2  0
  7  8  1  0
  7  9  1  0
  9 10  2  0
 10 11  1  0
 11 12  2  0
 11 13  1  0
 13 14  1  0
 14 15  2  0
 15 16  1  0
 16 17  2  0
 17 18  1  0
 18 19  2  0
 18 20  1  0
 20 21  1  0
 21 22  1  0
 10 23  1  0
 23 24  2  0
 24 25  1  0
 25 26  1  0
 26 27  1  0
 27 28  1  0
 28 29  1  0
 29 30  1  0
 30 31  1  0
 25  4  2  0
 31 26  1  0
 24  6  1  0
 19 14  1  0
 22 17  1  0
M  END
>  <smiles>  (1128) 
C18179-P176

>  <fragmenstein_outcome>  (1128) 
acceptable

>  <inchikey>  (1128) 
DBDHSWUZPQGZND-UHFFFAOYSA-N

>  <fragmenstein_mode>  (1128) 
expansion

>  <HIPPO Pose ID>  (1128) 
20417

>  <Energy>  (1128) 
43.348516

>  <fragmenstein_error>  (1128) 


>  <tags>  (1128) 
{'openbind_xx01zvns2b_c1_fragmenstein', 'fragmenstein_placed'}

>  <ref_pdb>  (1128) 
175

>  <scratch_subdir>  (1128) 
/opt/xchem-fragalysis-2/maxwin/BulkDock/SCRATCH/511028/C18179-P176

>  <alias>  (1128) 
CNCc1[nH]c2c(F)cc(C(=O)Nc3ccc4c(c3)CNC4)cc2c1C1CCNCC1

>  <HIPPO Compound ID>  (1128) 
18179

>  <fragmenstein_runtime>  (1128) 
8.360034

$$$$
O=C(Nc1ccc2c(c1)CNC2)c1cc(Cl)c2[nH]cc(C3CCNCC3)c2c1
     RDKit          3D

 28 32  0  0  0  0  0  0  0  0999 V2000
   -6.7858    6.4267  -13.1504 O   0  0  0  0  0  0  0  0  0  0  0  0
   -7.1826    5.3699  -13.4536 C   0  0  0  0  0  0  0  0  0  0  0  0
   -7.8309    4.2565  -12.5940 N   0  0  0  0  0  0  0  0  0  0  0  0
   -8.0318    4.1771  -11.2160 C   0  0  0  0  0  0  0  0  0  0  0  0
   -7.8396    5.3000  -10.3952 C   0  0  0  0  0  0  0  0  0  0  0  0
   -8.0421    5.2228   -9.0133 C   0  0  0  0  0  0  0  0  0  0  0  0
   -8.4299    4.0102   -8.4743 C   0  0  0  0  0  0  0  0  0  0  0  0
   -8.6202    2.8964   -9.2826 C   0  0  0  0  0  0  0  0  0  0  0  0
   -8.4383    2.9620  -10.6567 C   0  0  0  0  0  0  0  0  0  0  0  0
   -8.9718    1.7238   -8.4302 C   0  0  0  0  0  0  0  0  0  0  0  0
   -9.2127    2.2636   -7.0668 N   0  0  0  0  0  0  0  0  0  0  0  0
   -8.6834    3.6428   -7.0523 C   0  0  0  0  0  0  0  0  0  0  0  0
   -7.1742    5.0169  -14.9016 C   0  0  0  0  0  0  0  0  0  0  0  0
   -8.3213    4.4962  -15.4961 C   0  0  0  0  0  0  0  0  0  0  0  0
   -8.3791    4.3566  -16.8786 C   0  0  0  0  0  0  0  0  0  0  0  0
   -9.8322    3.8880  -17.6367 Cl  0  0  0  0  0  0  0  0  0  0  0  0
   -7.2766    4.7262  -17.6494 C   0  0  0  0  0  0  0  0  0  0  0  0
   -7.1175    4.7354  -19.0139 N   0  0  0  0  0  0  0  0  0  0  0  0
   -5.8804    5.2147  -19.3339 C   0  0  0  0  0  0  0  0  0  0  0  0
   -5.2236    5.5611  -18.1700 C   0  0  0  0  0  0  0  0  0  0  0  0
   -3.8651    6.1995  -18.1345 C   0  0  0  0  0  0  0  0  0  0  0  0
   -3.9097    7.6339  -17.5970 C   0  0  0  0  0  0  0  0  0  0  0  0
   -2.5168    8.2546  -17.6236 C   0  0  0  0  0  0  0  0  0  0  0  0
   -1.5592    7.4440  -16.8752 N   0  0  0  0  0  0  0  0  0  0  0  0
   -1.4661    6.0842  -17.4076 C   0  0  0  0  0  0  0  0  0  0  0  0
   -2.8177    5.3737  -17.3859 C   0  0  0  0  0  0  0  0  0  0  0  0
   -6.1083    5.2394  -17.0861 C   0  0  0  0  0  0  0  0  0  0  0  0
   -6.0625    5.3869  -15.6815 C   0  0  0  0  0  0  0  0  0  0  0  0
  1  2  2  0
  2  3  1  0
  3  4  1  0
  4  5  2  0
  5  6  1  0
  6  7  2  0
  7  8  1  0
  8  9  2  0
  8 10  1  0
 10 11  1  0
 11 12  1  0
  2 13  1  0
 13 14  2  0
 14 15  1  0
 15 16  1  0
 15 17  2  0
 17 18  1  0
 18 19  1  0
 19 20  2  0
 20 21  1  0
 21 22  1  0
 22 23  1  0
 23 24  1  0
 24 25  1  0
 25 26  1  0
 20 27  1  0
 27 28  2  0
  9  4  1  0
 28 13  1  0
 12  7  1  0
 27 17  1  0
 26 21  1  0
M  END
>  <smiles>  (1129) 
C230-P176

>  <fragmenstein_outcome>  (1129) 
acceptable

>  <inchikey>  (1129) 
SUEZCPCHMYQALM-UHFFFAOYSA-N

>  <fragmenstein_mode>  (1129) 
expansion

>  <HIPPO Pose ID>  (1129) 
20418

>  <Energy>  (1129) 
35.212006

>  <fragmenstein_error>  (1129) 


>  <tags>  (1129) 
{'openbind_xx01zvns2b_c1_fragmenstein', 'fragmenstein_placed'}

>  <ref_pdb>  (1129) 
175

>  <scratch_subdir>  (1129) 
/opt/xchem-fragalysis-2/maxwin/BulkDock/SCRATCH/511028/C230-P176

>  <alias>  (1129) 
O=C(Nc1ccc2c(c1)CNC2)c1cc(Cl)c2[nH]cc(C3CCNCC3)c2c1

>  <HIPPO Compound ID>  (1129) 
33377

>  <fragmenstein_runtime>  (1129) 
4.623295

$$$$
CNCc1[nH]c2c(Cl)cc(C(=O)Nc3ccc4c(c3)CNC4)cc2c1C1CCNCC1
     RDKit          3D

 31 35  0  0  0  0  0  0  0  0999 V2000
   -5.0919    7.8674  -21.0151 C   0  0  0  0  0  0  0  0  0  0  0  0
   -4.2013    6.7713  -20.7037 N   0  0  0  0  0  0  0  0  0  0  0  0
   -4.9114    5.5338  -20.3873 C   0  0  0  0  0  0  0  0  0  0  0  0
   -5.5086    5.4604  -19.0163 C   0  0  0  0  0  0  0  0  0  0  0  0
   -6.7923    4.9650  -18.8572 N   0  0  0  0  0  0  0  0  0  0  0  0
   -7.1143    4.8651  -17.5211 C   0  0  0  0  0  0  0  0  0  0  0  0
   -8.2652    4.4036  -16.8687 C   0  0  0  0  0  0  0  0  0  0  0  0
   -9.5958    3.8226  -17.7579 Cl  0  0  0  0  0  0  0  0  0  0  0  0
   -8.3583    4.5088  -15.4774 C   0  0  0  0  0  0  0  0  0  0  0  0
   -7.3141    5.0811  -14.7627 C   0  0  0  0  0  0  0  0  0  0  0  0
   -7.4406    5.4316  -13.3265 C   0  0  0  0  0  0  0  0  0  0  0  0
   -7.1427    6.5160  -13.0114 O   0  0  0  0  0  0  0  0  0  0  0  0
   -7.8892    4.2281  -12.4698 N   0  0  0  0  0  0  0  0  0  0  0  0
   -8.1477    4.1357  -11.1037 C   0  0  0  0  0  0  0  0  0  0  0  0
   -8.0172    5.2633  -10.2748 C   0  0  0  0  0  0  0  0  0  0  0  0
   -8.2137    5.1688   -8.8942 C   0  0  0  0  0  0  0  0  0  0  0  0
   -8.5460    3.9365   -8.3656 C   0  0  0  0  0  0  0  0  0  0  0  0
   -8.6850    2.8210   -9.1831 C   0  0  0  0  0  0  0  0  0  0  0  0
   -8.4947    2.8997  -10.5553 C   0  0  0  0  0  0  0  0  0  0  0  0
   -8.9885    1.6298   -8.3385 C   0  0  0  0  0  0  0  0  0  0  0  0
   -9.2727    2.1544   -6.9782 N   0  0  0  0  0  0  0  0  0  0  0  0
   -8.7816    3.5465   -6.9466 C   0  0  0  0  0  0  0  0  0  0  0  0
   -6.1439    5.4914  -15.4121 C   0  0  0  0  0  0  0  0  0  0  0  0
   -6.0370    5.3770  -16.8115 C   0  0  0  0  0  0  0  0  0  0  0  0
   -5.0025    5.7065  -17.7444 C   0  0  0  0  0  0  0  0  0  0  0  0
   -3.6528    6.2192  -17.3120 C   0  0  0  0  0  0  0  0  0  0  0  0
   -3.5404    7.7480  -17.4317 C   0  0  0  0  0  0  0  0  0  0  0  0
   -2.1398    8.1974  -17.8393 C   0  0  0  0  0  0  0  0  0  0  0  0
   -1.1300    7.4658  -17.0913 N   0  0  0  0  0  0  0  0  0  0  0  0
   -1.1507    6.0227  -17.3429 C   0  0  0  0  0  0  0  0  0  0  0  0
   -2.4609    5.4865  -17.9232 C   0  0  0  0  0  0  0  0  0  0  0  0
  1  2  1  0
  2  3  1  0
  3  4  1  0
  4  5  1  0
  5  6  1  0
  6  7  2  0
  7  8  1  0
  7  9  1  0
  9 10  2  0
 10 11  1  0
 11 12  2  0
 11 13  1  0
 13 14  1  0
 14 15  2  0
 15 16  1  0
 16 17  2  0
 17 18  1  0
 18 19  2  0
 18 20  1  0
 20 21  1  0
 21 22  1  0
 10 23  1  0
 23 24  2  0
 24 25  1  0
 25 26  1  0
 26 27  1  0
 27 28  1  0
 28 29  1  0
 29 30  1  0
 30 31  1  0
 25  4  2  0
 31 26  1  0
 24  6  1  0
 19 14  1  0
 22 17  1  0
M  END
>  <smiles>  (1130) 
C18181-P176

>  <fragmenstein_outcome>  (1130) 
acceptable

>  <inchikey>  (1130) 
BZIVVDYHODAOFI-UHFFFAOYSA-N

>  <fragmenstein_mode>  (1130) 
expansion

>  <HIPPO Pose ID>  (1130) 
20419

>  <Energy>  (1130) 
31.776113

>  <fragmenstein_error>  (1130) 


>  <tags>  (1130) 
{'openbind_xx01zvns2b_c1_fragmenstein', 'fragmenstein_placed'}

>  <ref_pdb>  (1130) 
175

>  <scratch_subdir>  (1130) 
/opt/xchem-fragalysis-2/maxwin/BulkDock/SCRATCH/511028/C18181-P176

>  <alias>  (1130) 
CNCc1[nH]c2c(Cl)cc(C(=O)Nc3ccc4c(c3)CNC4)cc2c1C1CCNCC1

>  <HIPPO Compound ID>  (1130) 
18181

>  <fragmenstein_runtime>  (1130) 
7.005832

$$$$
CNCc1[nH]c2c(Cl)cc(C(=O)Nc3cc(F)c4c(c3)CNC4=O)cc2c1C1CCNCC1
     RDKit          3D

 33 37  0  0  0  0  0  0  0  0999 V2000
   -2.9127    6.1923  -21.0825 C   0  0  0  0  0  0  0  0  0  0  0  0
   -4.3159    5.9437  -21.3236 N   0  0  0  0  0  0  0  0  0  0  0  0
   -5.2406    6.6267  -20.4388 C   0  0  0  0  0  0  0  0  0  0  0  0
   -5.5895    5.9035  -19.1720 C   0  0  0  0  0  0  0  0  0  0  0  0
   -6.7499    5.1685  -19.0183 N   0  0  0  0  0  0  0  0  0  0  0  0
   -6.9817    4.9270  -17.6741 C   0  0  0  0  0  0  0  0  0  0  0  0
   -8.0773    4.3678  -16.9997 C   0  0  0  0  0  0  0  0  0  0  0  0
   -9.4059    3.7547  -17.8649 Cl  0  0  0  0  0  0  0  0  0  0  0  0
   -8.1314    4.4069  -15.6015 C   0  0  0  0  0  0  0  0  0  0  0  0
   -7.0728    4.9602  -14.8933 C   0  0  0  0  0  0  0  0  0  0  0  0
   -7.1975    5.3171  -13.4537 C   0  0  0  0  0  0  0  0  0  0  0  0
   -6.9302    6.4177  -13.1658 O   0  0  0  0  0  0  0  0  0  0  0  0
   -7.6652    4.1355  -12.5720 N   0  0  0  0  0  0  0  0  0  0  0  0
   -7.9826    4.0880  -11.2112 C   0  0  0  0  0  0  0  0  0  0  0  0
   -7.8552    5.2425  -10.4160 C   0  0  0  0  0  0  0  0  0  0  0  0
   -8.0908    5.1915   -9.0432 C   0  0  0  0  0  0  0  0  0  0  0  0
   -7.9513    6.3000   -8.3051 F   0  0  0  0  0  0  0  0  0  0  0  0
   -8.4431    3.9876   -8.4839 C   0  0  0  0  0  0  0  0  0  0  0  0
   -8.5878    2.8354   -9.2559 C   0  0  0  0  0  0  0  0  0  0  0  0
   -8.3743    2.8737  -10.6301 C   0  0  0  0  0  0  0  0  0  0  0  0
   -8.9131    1.6807   -8.3656 C   0  0  0  0  0  0  0  0  0  0  0  0
   -9.0373    2.3051   -7.0661 N   0  0  0  0  0  0  0  0  0  0  0  0
   -8.6865    3.6382   -7.0825 C   0  0  0  0  0  0  0  0  0  0  0  0
   -8.5747    4.3772   -6.1236 O   0  0  0  0  0  0  0  0  0  0  0  0
   -5.9269    5.4160  -15.5651 C   0  0  0  0  0  0  0  0  0  0  0  0
   -5.8865    5.4265  -16.9753 C   0  0  0  0  0  0  0  0  0  0  0  0
   -4.9649    5.9472  -17.9345 C   0  0  0  0  0  0  0  0  0  0  0  0
   -3.6307    6.5713  -17.6800 C   0  0  0  0  0  0  0  0  0  0  0  0
   -3.6906    7.8747  -16.8893 C   0  0  0  0  0  0  0  0  0  0  0  0
   -2.2875    8.4712  -16.8113 C   0  0  0  0  0  0  0  0  0  0  0  0
   -1.3273    7.5344  -16.2239 N   0  0  0  0  0  0  0  0  0  0  0  0
   -1.2587    6.2760  -16.9716 C   0  0  0  0  0  0  0  0  0  0  0  0
   -2.6219    5.5975  -17.0693 C   0  0  0  0  0  0  0  0  0  0  0  0
  1  2  1  0
  2  3  1  0
  3  4  1  0
  4  5  1  0
  5  6  1  0
  6  7  2  0
  7  8  1  0
  7  9  1  0
  9 10  2  0
 10 11  1  0
 11 12  2  0
 11 13  1  0
 13 14  1  0
 14 15  2  0
 15 16  1  0
 16 17  1  0
 16 18  2  0
 18 19  1  0
 19 20  2  0
 19 21  1  0
 21 22  1  0
 22 23  1  0
 23 24  2  0
 10 25  1  0
 25 26  2  0
 26 27  1  0
 27 28  1  0
 28 29  1  0
 29 30  1  0
 30 31  1  0
 31 32  1  0
 32 33  1  0
 27  4  2  0
 33 28  1  0
 26  6  1  0
 20 14  1  0
 23 18  1  0
M  END
>  <smiles>  (1131) 
C18184-P176

>  <fragmenstein_outcome>  (1131) 
acceptable

>  <inchikey>  (1131) 
BXBBOTPJLWNCRK-UHFFFAOYSA-N

>  <fragmenstein_mode>  (1131) 
expansion

>  <HIPPO Pose ID>  (1131) 
20420

>  <Energy>  (1131) 
9.006547

>  <fragmenstein_error>  (1131) 


>  <tags>  (1131) 
{'openbind_xx01zvns2b_c1_fragmenstein', 'fragmenstein_placed'}

>  <ref_pdb>  (1131) 
175

>  <scratch_subdir>  (1131) 
/opt/xchem-fragalysis-2/maxwin/BulkDock/SCRATCH/511028/C18184-P176

>  <alias>  (1131) 
CNCc1[nH]c2c(Cl)cc(C(=O)Nc3cc(F)c4c(c3)CNC4=O)cc2c1C1CCNCC1

>  <HIPPO Compound ID>  (1131) 
18184

>  <fragmenstein_runtime>  (1131) 
14.976704

$$$$
CNCc1[nH]c2c(Cl)cc(C(=O)Nc3cc4c(c5c3OC(C)(C)C5)CNC4)cc2c1C1CCNCC1
     RDKit          3D

 36 41  0  0  0  0  0  0  0  0999 V2000
   -2.9258    4.9170  -20.2108 C   0  0  0  0  0  0  0  0  0  0  0  0
   -3.6852    6.1354  -20.4260 N   0  0  0  0  0  0  0  0  0  0  0  0
   -5.1295    5.9624  -20.2894 C   0  0  0  0  0  0  0  0  0  0  0  0
   -5.6064    5.6379  -18.9117 C   0  0  0  0  0  0  0  0  0  0  0  0
   -6.8117    4.9672  -18.7712 N   0  0  0  0  0  0  0  0  0  0  0  0
   -7.1486    4.8410  -17.4433 C   0  0  0  0  0  0  0  0  0  0  0  0
   -8.2951    4.3415  -16.8133 C   0  0  0  0  0  0  0  0  0  0  0  0
   -9.6161    3.7914  -17.7380 Cl  0  0  0  0  0  0  0  0  0  0  0  0
   -8.4084    4.4276  -15.4210 C   0  0  0  0  0  0  0  0  0  0  0  0
   -7.3820    5.0041  -14.6839 C   0  0  0  0  0  0  0  0  0  0  0  0
   -7.5241    5.3853  -13.2565 C   0  0  0  0  0  0  0  0  0  0  0  0
   -7.1552    6.4534  -12.9597 O   0  0  0  0  0  0  0  0  0  0  0  0
   -8.1226    4.2555  -12.3894 N   0  0  0  0  0  0  0  0  0  0  0  0
   -8.2996    4.1696  -11.0040 C   0  0  0  0  0  0  0  0  0  0  0  0
   -8.6074    2.9160  -10.4584 C   0  0  0  0  0  0  0  0  0  0  0  0
   -8.7419    2.7940   -9.0761 C   0  0  0  0  0  0  0  0  0  0  0  0
   -8.5822    3.8802   -8.2240 C   0  0  0  0  0  0  0  0  0  0  0  0
   -8.2828    5.1098   -8.7505 C   0  0  0  0  0  0  0  0  0  0  0  0
   -8.1615    5.2512  -10.1271 C   0  0  0  0  0  0  0  0  0  0  0  0
   -7.9472    6.5545  -10.4899 O   0  0  0  0  0  0  0  0  0  0  0  0
   -7.7325    7.2986   -9.2666 C   0  0  0  0  0  0  0  0  0  0  0  0
   -8.6217    8.5423   -9.3238 C   0  0  0  0  0  0  0  0  0  0  0  0
   -6.2570    7.7112   -9.2308 C   0  0  0  0  0  0  0  0  0  0  0  0
   -8.0999    6.4054   -8.0663 C   0  0  0  0  0  0  0  0  0  0  0  0
   -8.7883    3.4519   -6.8159 C   0  0  0  0  0  0  0  0  0  0  0  0
   -9.2906    2.0658   -6.8842 N   0  0  0  0  0  0  0  0  0  0  0  0
   -9.0108    1.5758   -8.2582 C   0  0  0  0  0  0  0  0  0  0  0  0
   -6.2165    5.4490  -15.3164 C   0  0  0  0  0  0  0  0  0  0  0  0
   -6.1090    5.3991  -16.7169 C   0  0  0  0  0  0  0  0  0  0  0  0
   -5.1459    5.9340  -17.6338 C   0  0  0  0  0  0  0  0  0  0  0  0
   -3.9356    6.7087  -17.1505 C   0  0  0  0  0  0  0  0  0  0  0  0
   -3.6284    8.0241  -17.8784 C   0  0  0  0  0  0  0  0  0  0  0  0
   -2.1692    8.2229  -18.2625 C   0  0  0  0  0  0  0  0  0  0  0  0
   -1.2514    7.6898  -17.2586 N   0  0  0  0  0  0  0  0  0  0  0  0
   -1.3883    6.2372  -17.2340 C   0  0  0  0  0  0  0  0  0  0  0  0
   -2.7605    5.7976  -16.7474 C   0  0  0  0  0  0  0  0  0  0  0  0
  1  2  1  0
  2  3  1  0
  3  4  1  0
  4  5  1  0
  5  6  1  0
  6  7  2  0
  7  8  1  0
  7  9  1  0
  9 10  2  0
 10 11  1  0
 11 12  2  0
 11 13  1  0
 13 14  1  0
 14 15  2  0
 15 16  1  0
 16 17  2  0
 17 18  1  0
 18 19  2  0
 19 20  1  0
 20 21  1  0
 21 22  1  0
 21 23  1  0
 21 24  1  0
 17 25  1  0
 25 26  1  0
 26 27  1  0
 10 28  1  0
 28 29  2  0
 29 30  1  0
 30 31  1  0
 31 32  1  0
 32 33  1  0
 33 34  1  0
 34 35  1  0
 35 36  1  0
 30  4  2  0
 36 31  1  0
 29  6  1  0
 19 14  1  0
 27 16  1  0
 24 18  1  0
M  END
>  <smiles>  (1132) 
C18188-P176

>  <fragmenstein_outcome>  (1132) 
acceptable

>  <inchikey>  (1132) 
LCAGCZYMEXNBSV-UHFFFAOYSA-N

>  <fragmenstein_mode>  (1132) 
expansion

>  <HIPPO Pose ID>  (1132) 
20422

>  <Energy>  (1132) 
76.410231

>  <fragmenstein_error>  (1132) 


>  <tags>  (1132) 
{'openbind_xx01zvns2b_c1_fragmenstein', 'fragmenstein_placed'}

>  <ref_pdb>  (1132) 
175

>  <scratch_subdir>  (1132) 
/opt/xchem-fragalysis-2/maxwin/BulkDock/SCRATCH/511028/C18188-P176

>  <alias>  (1132) 
CNCc1[nH]c2c(Cl)cc(C(=O)Nc3cc4c(c5c3OC(C)(C)C5)CNC4)cc2c1C1CCNCC1

>  <HIPPO Compound ID>  (1132) 
18188

>  <fragmenstein_runtime>  (1132) 
6.774694

$$$$
CNCc1[nH]c2c(Cl)cc(C(=O)Nc3cc(F)c4c(c3)CNC4)cc2c1C1CCNCC1
     RDKit          3D

 32 36  0  0  0  0  0  0  0  0999 V2000
   -2.8107    4.9007  -20.1864 C   0  0  0  0  0  0  0  0  0  0  0  0
   -4.0111    5.3138  -20.8782 N   0  0  0  0  0  0  0  0  0  0  0  0
   -4.8279    6.2981  -20.1872 C   0  0  0  0  0  0  0  0  0  0  0  0
   -5.3994    5.8249  -18.8880 C   0  0  0  0  0  0  0  0  0  0  0  0
   -6.5949    5.1155  -18.8388 N   0  0  0  0  0  0  0  0  0  0  0  0
   -6.9905    4.9220  -17.5280 C   0  0  0  0  0  0  0  0  0  0  0  0
   -8.1496    4.3739  -16.9534 C   0  0  0  0  0  0  0  0  0  0  0  0
   -9.4111    3.7799  -17.9286 Cl  0  0  0  0  0  0  0  0  0  0  0  0
   -8.3322    4.4286  -15.5635 C   0  0  0  0  0  0  0  0  0  0  0  0
   -7.3548    5.0113  -14.7719 C   0  0  0  0  0  0  0  0  0  0  0  0
   -7.5632    5.3707  -13.3500 C   0  0  0  0  0  0  0  0  0  0  0  0
   -7.3628    6.4803  -13.0494 O   0  0  0  0  0  0  0  0  0  0  0  0
   -7.9235    4.1511  -12.4825 N   0  0  0  0  0  0  0  0  0  0  0  0
   -8.1973    4.0590  -11.1204 C   0  0  0  0  0  0  0  0  0  0  0  0
   -8.0945    5.1960  -10.2994 C   0  0  0  0  0  0  0  0  0  0  0  0
   -8.3056    5.0945   -8.9282 C   0  0  0  0  0  0  0  0  0  0  0  0
   -8.2014    6.1777   -8.1473 F   0  0  0  0  0  0  0  0  0  0  0  0
   -8.6367    3.8743   -8.3909 C   0  0  0  0  0  0  0  0  0  0  0  0
   -8.7441    2.7492   -9.2021 C   0  0  0  0  0  0  0  0  0  0  0  0
   -8.5228    2.8186  -10.5687 C   0  0  0  0  0  0  0  0  0  0  0  0
   -9.0669    1.5745   -8.3418 C   0  0  0  0  0  0  0  0  0  0  0  0
   -9.5387    2.1564   -7.0581 N   0  0  0  0  0  0  0  0  0  0  0  0
   -8.9148    3.4978   -6.9803 C   0  0  0  0  0  0  0  0  0  0  0  0
   -6.1671    5.4779  -15.3369 C   0  0  0  0  0  0  0  0  0  0  0  0
   -5.9944    5.4674  -16.7325 C   0  0  0  0  0  0  0  0  0  0  0  0
   -4.9911    6.0432  -17.5773 C   0  0  0  0  0  0  0  0  0  0  0  0
   -3.8187    6.8051  -16.9864 C   0  0  0  0  0  0  0  0  0  0  0  0
   -3.4681    8.1504  -17.6222 C   0  0  0  0  0  0  0  0  0  0  0  0
   -2.1103    8.1894  -18.2979 C   0  0  0  0  0  0  0  0  0  0  0  0
   -1.0831    7.6244  -17.4290 N   0  0  0  0  0  0  0  0  0  0  0  0
   -1.3095    6.1965  -17.2397 C   0  0  0  0  0  0  0  0  0  0  0  0
   -2.6451    5.8998  -16.5747 C   0  0  0  0  0  0  0  0  0  0  0  0
  1  2  1  0
  2  3  1  0
  3  4  1  0
  4  5  1  0
  5  6  1  0
  6  7  2  0
  7  8  1  0
  7  9  1  0
  9 10  2  0
 10 11  1  0
 11 12  2  0
 11 13  1  0
 13 14  1  0
 14 15  2  0
 15 16  1  0
 16 17  1  0
 16 18  2  0
 18 19  1  0
 19 20  2  0
 19 21  1  0
 21 22  1  0
 22 23  1  0
 10 24  1  0
 24 25  2  0
 25 26  1  0
 26 27  1  0
 27 28  1  0
 28 29  1  0
 29 30  1  0
 30 31  1  0
 31 32  1  0
 26  4  2  0
 32 27  1  0
 25  6  1  0
 20 14  1  0
 23 18  1  0
M  END
>  <smiles>  (1133) 
C18189-P176

>  <fragmenstein_outcome>  (1133) 
acceptable

>  <inchikey>  (1133) 
YLUFFWRQKGFJLY-UHFFFAOYSA-N

>  <fragmenstein_mode>  (1133) 
expansion

>  <HIPPO Pose ID>  (1133) 
20423

>  <Energy>  (1133) 
29.383905

>  <fragmenstein_error>  (1133) 


>  <tags>  (1133) 
{'openbind_xx01zvns2b_c1_fragmenstein', 'fragmenstein_placed'}

>  <ref_pdb>  (1133) 
175

>  <scratch_subdir>  (1133) 
/opt/xchem-fragalysis-2/maxwin/BulkDock/SCRATCH/511028/C18189-P176

>  <alias>  (1133) 
CNCc1[nH]c2c(Cl)cc(C(=O)Nc3cc(F)c4c(c3)CNC4)cc2c1C1CCNCC1

>  <HIPPO Compound ID>  (1133) 
40884

>  <fragmenstein_runtime>  (1133) 
7.068773

$$$$
CNCc1[nH]c2c(Cl)cc(C(=O)Nc3cc(F)c4c(c3)CNC43CCCC3)cc2c1C1CCNCC1
     RDKit          3D

 36 41  0  0  0  0  0  0  0  0999 V2000
   -2.7455    5.1430  -20.3312 C   0  0  0  0  0  0  0  0  0  0  0  0
   -3.9979    5.3887  -21.0141 N   0  0  0  0  0  0  0  0  0  0  0  0
   -4.9619    6.2548  -20.3468 C   0  0  0  0  0  0  0  0  0  0  0  0
   -5.4917    5.7334  -19.0432 C   0  0  0  0  0  0  0  0  0  0  0  0
   -6.6889    5.0565  -18.9155 N   0  0  0  0  0  0  0  0  0  0  0  0
   -6.9976    4.8897  -17.5744 C   0  0  0  0  0  0  0  0  0  0  0  0
   -8.1245    4.3538  -16.9336 C   0  0  0  0  0  0  0  0  0  0  0  0
   -9.4149    3.7162  -17.8397 Cl  0  0  0  0  0  0  0  0  0  0  0  0
   -8.2425    4.4366  -15.5404 C   0  0  0  0  0  0  0  0  0  0  0  0
   -7.2294    5.0336  -14.8020 C   0  0  0  0  0  0  0  0  0  0  0  0
   -7.4302    5.4402  -13.3855 C   0  0  0  0  0  0  0  0  0  0  0  0
   -7.2438    6.5676  -13.1399 O   0  0  0  0  0  0  0  0  0  0  0  0
   -7.8905    4.2781  -12.4737 N   0  0  0  0  0  0  0  0  0  0  0  0
   -8.1184    4.2414  -11.0948 C   0  0  0  0  0  0  0  0  0  0  0  0
   -7.9485    5.4022  -10.3239 C   0  0  0  0  0  0  0  0  0  0  0  0
   -8.1304    5.3713   -8.9425 C   0  0  0  0  0  0  0  0  0  0  0  0
   -7.9426    6.4879   -8.2265 F   0  0  0  0  0  0  0  0  0  0  0  0
   -8.4871    4.1927   -8.3234 C   0  0  0  0  0  0  0  0  0  0  0  0
   -8.6626    3.0409   -9.0890 C   0  0  0  0  0  0  0  0  0  0  0  0
   -8.4872    3.0443  -10.4725 C   0  0  0  0  0  0  0  0  0  0  0  0
   -8.9910    1.8995   -8.1868 C   0  0  0  0  0  0  0  0  0  0  0  0
   -9.2267    2.4986   -6.8530 N   0  0  0  0  0  0  0  0  0  0  0  0
   -8.7041    3.8900   -6.8685 C   0  0  0  0  0  0  0  0  0  0  0  0
   -7.4085    4.0419   -6.0372 C   0  0  0  0  0  0  0  0  0  0  0  0
   -7.5987    5.2747   -5.1661 C   0  0  0  0  0  0  0  0  0  0  0  0
   -9.0713    5.2087   -4.8278 C   0  0  0  0  0  0  0  0  0  0  0  0
   -9.7084    4.8282   -6.1585 C   0  0  0  0  0  0  0  0  0  0  0  0
   -6.0647    5.4937  -15.4350 C   0  0  0  0  0  0  0  0  0  0  0  0
   -5.9499    5.4378  -16.8393 C   0  0  0  0  0  0  0  0  0  0  0  0
   -4.9783    5.9134  -17.7661 C   0  0  0  0  0  0  0  0  0  0  0  0
   -3.6669    6.5675  -17.4663 C   0  0  0  0  0  0  0  0  0  0  0  0
   -3.7730    7.9392  -16.8121 C   0  0  0  0  0  0  0  0  0  0  0  0
   -2.3743    8.5522  -16.7410 C   0  0  0  0  0  0  0  0  0  0  0  0
   -1.4313    7.6811  -16.0372 N   0  0  0  0  0  0  0  0  0  0  0  0
   -1.3379    6.3444  -16.6251 C   0  0  0  0  0  0  0  0  0  0  0  0
   -2.7046    5.6714  -16.6868 C   0  0  0  0  0  0  0  0  0  0  0  0
  1  2  1  0
  2  3  1  0
  3  4  1  0
  4  5  1  0
  5  6  1  0
  6  7  2  0
  7  8  1  0
  7  9  1  0
  9 10  2  0
 10 11  1  0
 11 12  2  0
 11 13  1  0
 13 14  1  0
 14 15  2  0
 15 16  1  0
 16 17  1  0
 16 18  2  0
 18 19  1  0
 19 20  2  0
 19 21  1  0
 21 22  1  0
 22 23  1  0
 23 24  1  0
 24 25  1  0
 25 26  1  0
 26 27  1  0
 10 28  1  0
 28 29  2  0
 29 30  1  0
 30 31  1  0
 31 32  1  0
 32 33  1  0
 33 34  1  0
 34 35  1  0
 35 36  1  0
 30  4  2  0
 36 31  1  0
 29  6  1  0
 20 14  1  0
 27 23  1  0
 23 18  1  0
M  END
>  <smiles>  (1134) 
C18191-P176

>  <fragmenstein_outcome>  (1134) 
acceptable

>  <inchikey>  (1134) 
FECNRXLBSBFZDO-UHFFFAOYSA-N

>  <fragmenstein_mode>  (1134) 
expansion

>  <HIPPO Pose ID>  (1134) 
20424

>  <Energy>  (1134) 
33.375039

>  <fragmenstein_error>  (1134) 


>  <tags>  (1134) 
{'openbind_xx01zvns2b_c1_fragmenstein', 'fragmenstein_placed'}

>  <ref_pdb>  (1134) 
175

>  <scratch_subdir>  (1134) 
/opt/xchem-fragalysis-2/maxwin/BulkDock/SCRATCH/511028/C18191-P176

>  <alias>  (1134) 
CNCc1[nH]c2c(Cl)cc(C(=O)Nc3cc(F)c4c(c3)CNC43CCCC3)cc2c1C1CCNCC1

>  <HIPPO Compound ID>  (1134) 
18191

>  <fragmenstein_runtime>  (1134) 
8.266297

$$$$
CNCc1[nH]c2c(Cl)cc(C(=O)Nc3ccc4c(c3)CN(C(F)F)C4)cc2c1C1CCNCC1
     RDKit          3D

 34 38  0  0  0  0  0  0  0  0999 V2000
   -5.4155    7.8875  -20.1457 C   0  0  0  0  0  0  0  0  0  0  0  0
   -4.5908    6.8247  -20.6777 N   0  0  0  0  0  0  0  0  0  0  0  0
   -5.0415    5.4800  -20.3089 C   0  0  0  0  0  0  0  0  0  0  0  0
   -5.5834    5.3267  -18.9314 C   0  0  0  0  0  0  0  0  0  0  0  0
   -6.8802    4.8688  -18.7827 N   0  0  0  0  0  0  0  0  0  0  0  0
   -7.2159    4.7851  -17.4549 C   0  0  0  0  0  0  0  0  0  0  0  0
   -8.3969    4.3834  -16.8237 C   0  0  0  0  0  0  0  0  0  0  0  0
   -9.7496    3.9068  -17.7419 Cl  0  0  0  0  0  0  0  0  0  0  0  0
   -8.4985    4.4916  -15.4372 C   0  0  0  0  0  0  0  0  0  0  0  0
   -7.4411    5.0285  -14.7184 C   0  0  0  0  0  0  0  0  0  0  0  0
   -7.5924    5.4357  -13.3081 C   0  0  0  0  0  0  0  0  0  0  0  0
   -7.3760    6.5534  -13.0488 O   0  0  0  0  0  0  0  0  0  0  0  0
   -7.9396    4.2454  -12.3905 N   0  0  0  0  0  0  0  0  0  0  0  0
   -8.1782    4.1998  -11.0201 C   0  0  0  0  0  0  0  0  0  0  0  0
   -7.9883    5.3574  -10.2447 C   0  0  0  0  0  0  0  0  0  0  0  0
   -8.1135    5.3221   -8.8581 C   0  0  0  0  0  0  0  0  0  0  0  0
   -8.4336    4.1159   -8.2706 C   0  0  0  0  0  0  0  0  0  0  0  0
   -8.6533    2.9724   -9.0320 C   0  0  0  0  0  0  0  0  0  0  0  0
   -8.5334    2.9931  -10.4140 C   0  0  0  0  0  0  0  0  0  0  0  0
   -8.9441    1.8229   -8.1190 C   0  0  0  0  0  0  0  0  0  0  0  0
   -8.9770    2.3878   -6.7470 N   0  0  0  0  0  0  0  0  0  0  0  0
  -10.3028    2.3009   -6.1936 C   0  0  0  0  0  0  0  0  0  0  0  0
  -10.3046    2.8048   -4.9295 F   0  0  0  0  0  0  0  0  0  0  0  0
  -10.6755    1.0068   -6.1047 F   0  0  0  0  0  0  0  0  0  0  0  0
   -8.5500    3.7908   -6.8214 C   0  0  0  0  0  0  0  0  0  0  0  0
   -6.2413    5.3797  -15.3449 C   0  0  0  0  0  0  0  0  0  0  0  0
   -6.1220    5.2480  -16.7394 C   0  0  0  0  0  0  0  0  0  0  0  0
   -5.0582    5.5237  -17.6620 C   0  0  0  0  0  0  0  0  0  0  0  0
   -3.6799    5.9318  -17.1897 C   0  0  0  0  0  0  0  0  0  0  0  0
   -3.4955    7.4404  -16.9700 C   0  0  0  0  0  0  0  0  0  0  0  0
   -2.4832    8.1109  -17.8886 C   0  0  0  0  0  0  0  0  0  0  0  0
   -1.2678    7.3131  -18.0118 N   0  0  0  0  0  0  0  0  0  0  0  0
   -1.5946    6.0587  -18.6903 C   0  0  0  0  0  0  0  0  0  0  0  0
   -2.5068    5.2002  -17.8361 C   0  0  0  0  0  0  0  0  0  0  0  0
  1  2  1  0
  2  3  1  0
  3  4  1  0
  4  5  1  0
  5  6  1  0
  6  7  2  0
  7  8  1  0
  7  9  1  0
  9 10  2  0
 10 11  1  0
 11 12  2  0
 11 13  1  0
 13 14  1  0
 14 15  2  0
 15 16  1  0
 16 17  2  0
 17 18  1  0
 18 19  2  0
 18 20  1  0
 20 21  1  0
 21 22  1  0
 22 23  1  0
 22 24  1  0
 21 25  1  0
 10 26  1  0
 26 27  2  0
 27 28  1  0
 28 29  1  0
 29 30  1  0
 30 31  1  0
 31 32  1  0
 32 33  1  0
 33 34  1  0
 28  4  2  0
 34 29  1  0
 27  6  1  0
 19 14  1  0
 25 17  1  0
M  END
>  <smiles>  (1135) 
C18194-P176

>  <fragmenstein_outcome>  (1135) 
acceptable

>  <inchikey>  (1135) 
WWTRDLFXHKTWPV-UHFFFAOYSA-N

>  <fragmenstein_mode>  (1135) 
expansion

>  <HIPPO Pose ID>  (1135) 
20426

>  <Energy>  (1135) 
6.832129

>  <fragmenstein_error>  (1135) 


>  <tags>  (1135) 
{'openbind_xx01zvns2b_c1_fragmenstein', 'fragmenstein_placed'}

>  <ref_pdb>  (1135) 
175

>  <scratch_subdir>  (1135) 
/opt/xchem-fragalysis-2/maxwin/BulkDock/SCRATCH/511028/C18194-P176

>  <alias>  (1135) 
CNCc1[nH]c2c(Cl)cc(C(=O)Nc3ccc4c(c3)CN(C(F)F)C4)cc2c1C1CCNCC1

>  <HIPPO Compound ID>  (1135) 
18194

>  <fragmenstein_runtime>  (1135) 
8.375503

$$$$
O=Cc1cc(C(=O)Nc2ccc3c(c2)CNC3)cc2c(C3CCNCC3)c[nH]c12
     RDKit          3D

 29 33  0  0  0  0  0  0  0  0999 V2000
   -9.5907    4.3267  -18.8897 O   0  0  0  0  0  0  0  0  0  0  0  0
   -9.6269    4.1668  -17.6771 C   0  0  0  0  0  0  0  0  0  0  0  0
   -8.4140    4.4231  -16.8969 C   0  0  0  0  0  0  0  0  0  0  0  0
   -8.4522    4.5014  -15.5029 C   0  0  0  0  0  0  0  0  0  0  0  0
   -7.3361    4.9795  -14.8161 C   0  0  0  0  0  0  0  0  0  0  0  0
   -7.4300    5.3561  -13.3844 C   0  0  0  0  0  0  0  0  0  0  0  0
   -7.1181    6.4407  -13.0867 O   0  0  0  0  0  0  0  0  0  0  0  0
   -7.9824    4.2024  -12.5225 N   0  0  0  0  0  0  0  0  0  0  0  0
   -8.1715    4.1121  -11.1457 C   0  0  0  0  0  0  0  0  0  0  0  0
   -8.0013    5.2397  -10.3230 C   0  0  0  0  0  0  0  0  0  0  0  0
   -8.1940    5.1580   -8.9410 C   0  0  0  0  0  0  0  0  0  0  0  0
   -8.5650    3.9393   -8.4092 C   0  0  0  0  0  0  0  0  0  0  0  0
   -8.7221    2.8187   -9.2210 C   0  0  0  0  0  0  0  0  0  0  0  0
   -8.5326    2.8837  -10.5909 C   0  0  0  0  0  0  0  0  0  0  0  0
   -9.0652    1.6485   -8.3614 C   0  0  0  0  0  0  0  0  0  0  0  0
   -9.5180    2.2393   -7.0757 N   0  0  0  0  0  0  0  0  0  0  0  0
   -8.8474    3.5565   -6.9948 C   0  0  0  0  0  0  0  0  0  0  0  0
   -6.1540    5.3193  -15.4895 C   0  0  0  0  0  0  0  0  0  0  0  0
   -6.0981    5.2075  -16.8906 C   0  0  0  0  0  0  0  0  0  0  0  0
   -5.1106    5.5319  -17.8704 C   0  0  0  0  0  0  0  0  0  0  0  0
   -3.7556    6.1016  -17.5733 C   0  0  0  0  0  0  0  0  0  0  0  0
   -3.7283    7.6251  -17.7985 C   0  0  0  0  0  0  0  0  0  0  0  0
   -2.3583    8.1248  -18.2523 C   0  0  0  0  0  0  0  0  0  0  0  0
   -1.2939    7.4142  -17.5598 N   0  0  0  0  0  0  0  0  0  0  0  0
   -1.2707    5.9849  -17.8905 C   0  0  0  0  0  0  0  0  0  0  0  0
   -2.6221    5.4127  -18.3281 C   0  0  0  0  0  0  0  0  0  0  0  0
   -5.6752    5.2865  -19.1070 C   0  0  0  0  0  0  0  0  0  0  0  0
   -6.9575    4.8507  -18.9152 N   0  0  0  0  0  0  0  0  0  0  0  0
   -7.2311    4.7725  -17.5653 C   0  0  0  0  0  0  0  0  0  0  0  0
  1  2  2  0
  2  3  1  0
  3  4  2  0
  4  5  1  0
  5  6  1  0
  6  7  2  0
  6  8  1  0
  8  9  1  0
  9 10  2  0
 10 11  1  0
 11 12  2  0
 12 13  1  0
 13 14  2  0
 13 15  1  0
 15 16  1  0
 16 17  1  0
  5 18  2  0
 18 19  1  0
 19 20  1  0
 20 21  1  0
 21 22  1  0
 22 23  1  0
 23 24  1  0
 24 25  1  0
 25 26  1  0
 20 27  2  0
 27 28  1  0
 28 29  1  0
 29  3  1  0
 14  9  1  0
 29 19  2  0
 17 12  1  0
 26 21  1  0
M  END
>  <smiles>  (1136) 
C18195-P176

>  <fragmenstein_outcome>  (1136) 
acceptable

>  <inchikey>  (1136) 
CTIOECLROTWXRJ-UHFFFAOYSA-N

>  <fragmenstein_mode>  (1136) 
expansion

>  <HIPPO Pose ID>  (1136) 
20427

>  <Energy>  (1136) 
56.379577

>  <fragmenstein_error>  (1136) 


>  <tags>  (1136) 
{'openbind_xx01zvns2b_c1_fragmenstein', 'fragmenstein_placed'}

>  <ref_pdb>  (1136) 
175

>  <scratch_subdir>  (1136) 
/opt/xchem-fragalysis-2/maxwin/BulkDock/SCRATCH/511028/C18195-P176

>  <alias>  (1136) 
O=Cc1cc(C(=O)Nc2ccc3c(c2)CNC3)cc2c(C3CCNCC3)c[nH]c12

>  <HIPPO Compound ID>  (1136) 
19497

>  <fragmenstein_runtime>  (1136) 
4.934818

$$$$
O=C(Nc1ccc2c(c1)CNC2)c1cc(F)c2[nH]c3nnc4c(c3c2c1)CCNC4
     RDKit          3D

 30 35  0  0  0  0  0  0  0  0999 V2000
   -7.5428    6.2992  -13.3274 O   0  0  0  0  0  0  0  0  0  0  0  0
   -7.7446    5.1739  -13.5614 C   0  0  0  0  0  0  0  0  0  0  0  0
   -8.0490    3.9974  -12.6174 N   0  0  0  0  0  0  0  0  0  0  0  0
   -8.2568    3.9724  -11.2396 C   0  0  0  0  0  0  0  0  0  0  0  0
   -8.0748    5.1345  -10.4663 C   0  0  0  0  0  0  0  0  0  0  0  0
   -8.2396    5.1117   -9.0781 C   0  0  0  0  0  0  0  0  0  0  0  0
   -8.5940    3.9153   -8.4886 C   0  0  0  0  0  0  0  0  0  0  0  0
   -8.7622    2.7615   -9.2502 C   0  0  0  0  0  0  0  0  0  0  0  0
   -8.5992    2.7695  -10.6252 C   0  0  0  0  0  0  0  0  0  0  0  0
   -9.0761    1.6254   -8.3355 C   0  0  0  0  0  0  0  0  0  0  0  0
   -9.5068    2.2667   -7.0657 N   0  0  0  0  0  0  0  0  0  0  0  0
   -8.8418    3.5890   -7.0539 C   0  0  0  0  0  0  0  0  0  0  0  0
   -7.5991    4.7476  -14.9729 C   0  0  0  0  0  0  0  0  0  0  0  0
   -8.6597    4.2361  -15.7142 C   0  0  0  0  0  0  0  0  0  0  0  0
   -8.5801    4.2015  -17.1094 C   0  0  0  0  0  0  0  0  0  0  0  0
   -9.6435    3.8201  -17.8316 F   0  0  0  0  0  0  0  0  0  0  0  0
   -7.4312    4.7054  -17.7278 C   0  0  0  0  0  0  0  0  0  0  0  0
   -7.1553    4.9900  -19.0490 N   0  0  0  0  0  0  0  0  0  0  0  0
   -5.9537    5.6440  -19.1355 C   0  0  0  0  0  0  0  0  0  0  0  0
   -5.4597    6.2513  -20.2257 N   0  0  0  0  0  0  0  0  0  0  0  0
   -4.2803    6.8401  -20.1025 N   0  0  0  0  0  0  0  0  0  0  0  0
   -3.5807    6.7702  -18.9366 C   0  0  0  0  0  0  0  0  0  0  0  0
   -4.0411    6.1077  -17.7963 C   0  0  0  0  0  0  0  0  0  0  0  0
   -5.3414    5.5984  -17.8990 C   0  0  0  0  0  0  0  0  0  0  0  0
   -6.3194    5.1158  -16.9889 C   0  0  0  0  0  0  0  0  0  0  0  0
   -6.3984    5.1181  -15.5879 C   0  0  0  0  0  0  0  0  0  0  0  0
   -3.1791    6.0162  -16.5696 C   0  0  0  0  0  0  0  0  0  0  0  0
   -1.7004    6.2441  -16.8948 C   0  0  0  0  0  0  0  0  0  0  0  0
   -1.5417    7.5007  -17.6303 N   0  0  0  0  0  0  0  0  0  0  0  0
   -2.1978    7.3898  -18.9476 C   0  0  0  0  0  0  0  0  0  0  0  0
  1  2  2  0
  2  3  1  0
  3  4  1  0
  4  5  2  0
  5  6  1  0
  6  7  2  0
  7  8  1  0
  8  9  2  0
  8 10  1  0
 10 11  1  0
 11 12  1  0
  2 13  1  0
 13 14  2  0
 14 15  1  0
 15 16  1  0
 15 17  2  0
 17 18  1  0
 18 19  1  0
 19 20  2  0
 20 21  1  0
 21 22  2  0
 22 23  1  0
 23 24  2  0
 24 25  1  0
 25 26  2  0
 23 27  1  0
 27 28  1  0
 28 29  1  0
 29 30  1  0
  9  4  1  0
 26 13  1  0
 12  7  1  0
 25 17  1  0
 24 19  1  0
 30 22  1  0
M  END
>  <smiles>  (1137) 
C18197-P176

>  <fragmenstein_outcome>  (1137) 
acceptable

>  <inchikey>  (1137) 
IXAYYKVZQBSDRV-UHFFFAOYSA-N

>  <fragmenstein_mode>  (1137) 
expansion

>  <HIPPO Pose ID>  (1137) 
20429

>  <Energy>  (1137) 
84.789569

>  <fragmenstein_error>  (1137) 


>  <tags>  (1137) 
{'openbind_xx01zvns2b_c1_fragmenstein', 'fragmenstein_placed'}

>  <ref_pdb>  (1137) 
175

>  <scratch_subdir>  (1137) 
/opt/xchem-fragalysis-2/maxwin/BulkDock/SCRATCH/511028/C18197-P176

>  <alias>  (1137) 
O=C(Nc1ccc2c(c1)CNC2)c1cc(F)c2[nH]c3nnc4c(c3c2c1)CCNC4

>  <HIPPO Compound ID>  (1137) 
18197

>  <fragmenstein_runtime>  (1137) 
6.121654

$$$$
CNCc1[nH]c2c(F)cc(C(=O)Nc3ccc4c(c3)CNC4)cc2c1[C@@H]1CCN[C@H](OC)C1
     RDKit          3D

 33 37  0  0  0  0  0  0  0  0999 V2000
   -3.0148    5.2298  -20.3163 C   0  0  0  0  0  0  0  0  0  0  0  0
   -4.2127    5.6049  -21.0315 N   0  0  0  0  0  0  0  0  0  0  0  0
   -5.1400    6.4314  -20.2758 C   0  0  0  0  0  0  0  0  0  0  0  0
   -5.6389    5.8228  -19.0011 C   0  0  0  0  0  0  0  0  0  0  0  0
   -6.8019    5.0617  -18.9737 N   0  0  0  0  0  0  0  0  0  0  0  0
   -7.1849    4.8128  -17.6717 C   0  0  0  0  0  0  0  0  0  0  0  0
   -8.3315    4.2171  -17.1208 C   0  0  0  0  0  0  0  0  0  0  0  0
   -9.2882    3.6943  -17.8985 F   0  0  0  0  0  0  0  0  0  0  0  0
   -8.5358    4.2711  -15.7361 C   0  0  0  0  0  0  0  0  0  0  0  0
   -7.5868    4.8813  -14.9260 C   0  0  0  0  0  0  0  0  0  0  0  0
   -7.8535    5.2910  -13.5246 C   0  0  0  0  0  0  0  0  0  0  0  0
   -7.6962    6.4197  -13.2716 O   0  0  0  0  0  0  0  0  0  0  0  0
   -8.2039    4.1020  -12.6101 N   0  0  0  0  0  0  0  0  0  0  0  0
   -8.3376    4.0340  -11.2225 C   0  0  0  0  0  0  0  0  0  0  0  0
   -8.1722    5.1873  -10.4335 C   0  0  0  0  0  0  0  0  0  0  0  0
   -8.2711    5.1306   -9.0399 C   0  0  0  0  0  0  0  0  0  0  0  0
   -8.5530    3.9110   -8.4567 C   0  0  0  0  0  0  0  0  0  0  0  0
   -8.7171    2.7688   -9.2321 C   0  0  0  0  0  0  0  0  0  0  0  0
   -8.6071    2.8080  -10.6151 C   0  0  0  0  0  0  0  0  0  0  0  0
   -8.9705    1.6033   -8.3366 C   0  0  0  0  0  0  0  0  0  0  0  0
   -9.2178    2.1734   -6.9880 N   0  0  0  0  0  0  0  0  0  0  0  0
   -8.7223    3.5638   -7.0170 C   0  0  0  0  0  0  0  0  0  0  0  0
   -6.3887    5.3590  -15.4668 C   0  0  0  0  0  0  0  0  0  0  0  0
   -6.1987    5.3615  -16.8603 C   0  0  0  0  0  0  0  0  0  0  0  0
   -5.1925    5.9546  -17.6902 C   0  0  0  0  0  0  0  0  0  0  0  0
   -3.9938    6.6782  -17.1083 C   0  0  2  0  0  0  0  0  0  0  0  0
   -3.5636    7.9619  -17.8029 C   0  0  0  0  0  0  0  0  0  0  0  0
   -2.5047    8.6877  -16.9710 C   0  0  0  0  0  0  0  0  0  0  0  0
   -1.6350    7.8136  -16.1762 N   0  0  0  0  0  0  0  0  0  0  0  0
   -1.4584    6.5001  -16.7715 C   0  0  2  0  0  0  0  0  0  0  0  0
   -0.8535    6.6716  -18.0428 O   0  0  0  0  0  0  0  0  0  0  0  0
   -0.0284    5.5850  -18.4290 C   0  0  0  0  0  0  0  0  0  0  0  0
   -2.7976    5.7472  -16.8276 C   0  0  0  0  0  0  0  0  0  0  0  0
  1  2  1  0
  2  3  1  0
  3  4  1  0
  4  5  1  0
  5  6  1  0
  6  7  2  0
  7  8  1  0
  7  9  1  0
  9 10  2  0
 10 11  1  0
 11 12  2  0
 11 13  1  0
 13 14  1  0
 14 15  2  0
 15 16  1  0
 16 17  2  0
 17 18  1  0
 18 19  2  0
 18 20  1  0
 20 21  1  0
 21 22  1  0
 10 23  1  0
 23 24  2  0
 24 25  1  0
 26 25  1  6
 26 27  1  0
 27 28  1  0
 28 29  1  0
 29 30  1  0
 30 31  1  6
 31 32  1  0
 30 33  1  0
 25  4  2  0
 33 26  1  0
 24  6  1  0
 19 14  1  0
 22 17  1  0
M  END
>  <smiles>  (1138) 
C18200-P176

>  <fragmenstein_outcome>  (1138) 
acceptable

>  <inchikey>  (1138) 
SJEMKEXSVOQQMU-UHFFFAOYSA-N

>  <fragmenstein_mode>  (1138) 
expansion

>  <HIPPO Pose ID>  (1138) 
20430

>  <Energy>  (1138) 
11.876482

>  <fragmenstein_error>  (1138) 


>  <tags>  (1138) 
{'openbind_xx01zvns2b_c1_fragmenstein', 'fragmenstein_placed'}

>  <ref_pdb>  (1138) 
175

>  <scratch_subdir>  (1138) 
/opt/xchem-fragalysis-2/maxwin/BulkDock/SCRATCH/511028/C18200-P176

>  <alias>  (1138) 
CNCc1[nH]c2c(F)cc(C(=O)Nc3ccc4c(c3)CNC4)cc2c1[C@@H]1CCN[C@H](OC)C1

>  <HIPPO Compound ID>  (1138) 
18200

>  <fragmenstein_runtime>  (1138) 
6.717264

$$$$
CNCc1[nH]c2c(Cl)cc(C(=O)Nc3cc(C)c4c(c3)CNC4)cc2c1C1CCNCC1
     RDKit          3D

 32 36  0  0  0  0  0  0  0  0999 V2000
   -6.7300    3.6841  -20.1292 C   0  0  0  0  0  0  0  0  0  0  0  0
   -5.5705    4.5475  -20.3448 N   0  0  0  0  0  0  0  0  0  0  0  0
   -5.6441    5.9197  -19.9184 C   0  0  0  0  0  0  0  0  0  0  0  0
   -5.9877    5.8931  -18.5003 C   0  0  0  0  0  0  0  0  0  0  0  0
   -7.2551    5.5578  -18.1644 N   0  0  0  0  0  0  0  0  0  0  0  0
   -7.2891    5.1547  -16.8698 C   0  0  0  0  0  0  0  0  0  0  0  0
   -8.3255    4.5185  -16.2090 C   0  0  0  0  0  0  0  0  0  0  0  0
   -9.6214    3.9024  -17.1398 Cl  0  0  0  0  0  0  0  0  0  0  0  0
   -8.2795    4.5129  -14.8280 C   0  0  0  0  0  0  0  0  0  0  0  0
   -7.1756    5.0895  -14.1841 C   0  0  0  0  0  0  0  0  0  0  0  0
   -7.2283    5.3963  -12.7395 C   0  0  0  0  0  0  0  0  0  0  0  0
   -6.9510    6.4788  -12.4043 O   0  0  0  0  0  0  0  0  0  0  0  0
   -7.7229    4.1927  -11.9172 N   0  0  0  0  0  0  0  0  0  0  0  0
   -8.0587    4.0955  -10.5766 C   0  0  0  0  0  0  0  0  0  0  0  0
   -7.9421    5.2124   -9.7322 C   0  0  0  0  0  0  0  0  0  0  0  0
   -8.2438    5.1237   -8.3685 C   0  0  0  0  0  0  0  0  0  0  0  0
   -8.0895    6.3054   -7.4649 C   0  0  0  0  0  0  0  0  0  0  0  0
   -8.6415    3.8846   -7.8888 C   0  0  0  0  0  0  0  0  0  0  0  0
   -8.7631    2.7834   -8.7327 C   0  0  0  0  0  0  0  0  0  0  0  0
   -8.4902    2.8688  -10.0841 C   0  0  0  0  0  0  0  0  0  0  0  0
   -9.1135    1.5799   -7.9306 C   0  0  0  0  0  0  0  0  0  0  0  0
   -9.4727    2.0808   -6.5827 N   0  0  0  0  0  0  0  0  0  0  0  0
   -8.9527    3.4598   -6.4926 C   0  0  0  0  0  0  0  0  0  0  0  0
   -6.0553    5.5729  -14.8885 C   0  0  0  0  0  0  0  0  0  0  0  0
   -6.1110    5.6023  -16.2846 C   0  0  0  0  0  0  0  0  0  0  0  0
   -5.2340    5.9868  -17.3495 C   0  0  0  0  0  0  0  0  0  0  0  0
   -3.7876    6.3728  -17.3620 C   0  0  0  0  0  0  0  0  0  0  0  0
   -3.6031    7.8828  -17.2107 C   0  0  0  0  0  0  0  0  0  0  0  0
   -2.1334    8.2435  -17.4000 C   0  0  0  0  0  0  0  0  0  0  0  0
   -1.2737    7.5025  -16.4788 N   0  0  0  0  0  0  0  0  0  0  0  0
   -1.4366    6.0530  -16.6106 C   0  0  0  0  0  0  0  0  0  0  0  0
   -2.8869    5.6264  -16.3853 C   0  0  0  0  0  0  0  0  0  0  0  0
  1  2  1  0
  2  3  1  0
  3  4  1  0
  4  5  1  0
  5  6  1  0
  6  7  2  0
  7  8  1  0
  7  9  1  0
  9 10  2  0
 10 11  1  0
 11 12  2  0
 11 13  1  0
 13 14  1  0
 14 15  2  0
 15 16  1  0
 16 17  1  0
 16 18  2  0
 18 19  1  0
 19 20  2  0
 19 21  1  0
 21 22  1  0
 22 23  1  0
 10 24  1  0
 24 25  2  0
 25 26  1  0
 26 27  1  0
 27 28  1  0
 28 29  1  0
 29 30  1  0
 30 31  1  0
 31 32  1  0
 26  4  2  0
 32 27  1  0
 25  6  1  0
 20 14  1  0
 23 18  1  0
M  END
>  <smiles>  (1139) 
C18202-P176

>  <fragmenstein_outcome>  (1139) 
acceptable

>  <inchikey>  (1139) 
GQEHBFDXMOEWGD-UHFFFAOYSA-N

>  <fragmenstein_mode>  (1139) 
expansion

>  <HIPPO Pose ID>  (1139) 
20431

>  <Energy>  (1139) 
46.370379

>  <fragmenstein_error>  (1139) 


>  <tags>  (1139) 
{'openbind_xx01zvns2b_c1_fragmenstein', 'fragmenstein_placed'}

>  <ref_pdb>  (1139) 
175

>  <scratch_subdir>  (1139) 
/opt/xchem-fragalysis-2/maxwin/BulkDock/SCRATCH/511028/C18202-P176

>  <alias>  (1139) 
CNCc1[nH]c2c(Cl)cc(C(=O)Nc3cc(C)c4c(c3)CNC4)cc2c1C1CCNCC1

>  <HIPPO Compound ID>  (1139) 
28794

>  <fragmenstein_runtime>  (1139) 
6.454792

$$$$
CC(C)NC(=O)[C@](O)(Nc1ccc2c(c1)CNC2)c1cc(Cl)c2[nH]cc(C3CCNCC3)c2c1
     RDKit          3D

 34 38  0  0  0  0  0  0  0  0999 V2000
   -2.8059    4.3454  -12.6723 C   0  0  0  0  0  0  0  0  0  0  0  0
   -3.9307    3.8944  -11.7464 C   0  0  0  0  0  0  0  0  0  0  0  0
   -3.7952    2.4181  -11.3927 C   0  0  0  0  0  0  0  0  0  0  0  0
   -5.2141    4.1611  -12.3478 N   0  0  0  0  0  0  0  0  0  0  0  0
   -5.9582    5.5094  -12.5886 C   0  0  0  0  0  0  0  0  0  0  0  0
   -5.6081    6.6137  -12.4054 O   0  0  0  0  0  0  0  0  0  0  0  0
   -7.3952    5.1574  -13.2355 C   0  0  2  0  0  0  0  0  0  0  0  0
   -8.3118    6.2413  -13.1616 O   0  0  0  0  0  0  0  0  0  0  0  0
   -7.9601    4.0016  -12.5313 N   0  0  0  0  0  0  0  0  0  0  0  0
   -8.2213    4.0196  -11.1512 C   0  0  0  0  0  0  0  0  0  0  0  0
   -8.0467    5.1442  -10.3166 C   0  0  0  0  0  0  0  0  0  0  0  0
   -8.2211    5.0804   -8.9277 C   0  0  0  0  0  0  0  0  0  0  0  0
   -8.5653    3.8698   -8.3681 C   0  0  0  0  0  0  0  0  0  0  0  0
   -8.7355    2.7485   -9.1645 C   0  0  0  0  0  0  0  0  0  0  0  0
   -8.5741    2.8067  -10.5424 C   0  0  0  0  0  0  0  0  0  0  0  0
   -9.0183    1.5711   -8.2959 C   0  0  0  0  0  0  0  0  0  0  0  0
   -9.2850    2.1188   -6.9412 N   0  0  0  0  0  0  0  0  0  0  0  0
   -8.7801    3.5063   -6.9395 C   0  0  0  0  0  0  0  0  0  0  0  0
   -7.2577    4.9016  -14.7444 C   0  0  0  0  0  0  0  0  0  0  0  0
   -8.3420    4.4159  -15.4866 C   0  0  0  0  0  0  0  0  0  0  0  0
   -8.2975    4.3362  -16.8792 C   0  0  0  0  0  0  0  0  0  0  0  0
   -9.6624    3.8145  -17.7446 Cl  0  0  0  0  0  0  0  0  0  0  0  0
   -7.1593    4.7680  -17.5535 C   0  0  0  0  0  0  0  0  0  0  0  0
   -6.8928    4.8713  -18.8993 N   0  0  0  0  0  0  0  0  0  0  0  0
   -5.6309    5.3687  -19.0840 C   0  0  0  0  0  0  0  0  0  0  0  0
   -5.0723    5.6134  -17.8441 C   0  0  0  0  0  0  0  0  0  0  0  0
   -3.7202    6.1922  -17.5599 C   0  0  0  0  0  0  0  0  0  0  0  0
   -3.5588    7.5915  -18.1558 C   0  0  0  0  0  0  0  0  0  0  0  0
   -2.2096    8.1878  -17.7534 C   0  0  0  0  0  0  0  0  0  0  0  0
   -1.1107    7.2212  -17.6666 N   0  0  0  0  0  0  0  0  0  0  0  0
   -1.3551    6.0348  -18.4879 C   0  0  0  0  0  0  0  0  0  0  0  0
   -2.5792    5.2621  -18.0011 C   0  0  0  0  0  0  0  0  0  0  0  0
   -6.0474    5.2387  -16.8690 C   0  0  0  0  0  0  0  0  0  0  0  0
   -6.1012    5.2949  -15.4576 C   0  0  0  0  0  0  0  0  0  0  0  0
  1  2  1  0
  2  3  1  0
  2  4  1  0
  4  5  1  0
  5  6  2  0
  5  7  1  0
  7  8  1  6
  7  9  1  0
  9 10  1  0
 10 11  2  0
 11 12  1  0
 12 13  2  0
 13 14  1  0
 14 15  2  0
 14 16  1  0
 16 17  1  0
 17 18  1  0
  7 19  1  0
 19 20  2  0
 20 21  1  0
 21 22  1  0
 21 23  2  0
 23 24  1  0
 24 25  1  0
 25 26  2  0
 26 27  1  0
 27 28  1  0
 28 29  1  0
 29 30  1  0
 30 31  1  0
 31 32  1  0
 26 33  1  0
 33 34  2  0
 15 10  1  0
 34 19  1  0
 18 13  1  0
 33 23  1  0
 32 27  1  0
M  END
>  <smiles>  (1140) 
C18204-P176

>  <fragmenstein_outcome>  (1140) 
acceptable

>  <inchikey>  (1140) 
ONZHBVOHMJASLX-UHFFFAOYSA-N

>  <fragmenstein_mode>  (1140) 
expansion

>  <HIPPO Pose ID>  (1140) 
20432

>  <Energy>  (1140) 
92.403799

>  <fragmenstein_error>  (1140) 


>  <tags>  (1140) 
{'openbind_xx01zvns2b_c1_fragmenstein', 'fragmenstein_placed'}

>  <ref_pdb>  (1140) 
175

>  <scratch_subdir>  (1140) 
/opt/xchem-fragalysis-2/maxwin/BulkDock/SCRATCH/511028/C18204-P176

>  <alias>  (1140) 
CC(C)NC(=O)[C@](O)(Nc1ccc2c(c1)CNC2)c1cc(Cl)c2[nH]cc(C3CCNCC3)c2c1

>  <HIPPO Compound ID>  (1140) 
18204

>  <fragmenstein_runtime>  (1140) 
7.726185

$$$$
Nc1[nH]c2c(Br)cc(C(=O)Nc3ccc4c(c3)CNC4)cc2c1C1CCNCC1
     RDKit          3D

 29 33  0  0  0  0  0  0  0  0999 V2000
   -5.5150    5.7794  -20.5266 N   0  0  0  0  0  0  0  0  0  0  0  0
   -5.7997    5.5201  -19.2357 C   0  0  0  0  0  0  0  0  0  0  0  0
   -7.0097    4.9889  -18.9110 N   0  0  0  0  0  0  0  0  0  0  0  0
   -7.1196    4.8734  -17.5471 C   0  0  0  0  0  0  0  0  0  0  0  0
   -8.1931    4.4452  -16.7711 C   0  0  0  0  0  0  0  0  0  0  0  0
   -9.7752    3.9321  -17.6102 Br  0  0  0  0  0  0  0  0  0  0  0  0
   -8.1158    4.5287  -15.3861 C   0  0  0  0  0  0  0  0  0  0  0  0
   -6.9599    5.0349  -14.7952 C   0  0  0  0  0  0  0  0  0  0  0  0
   -6.9468    5.3475  -13.3383 C   0  0  0  0  0  0  0  0  0  0  0  0
   -6.5368    6.3911  -13.0089 O   0  0  0  0  0  0  0  0  0  0  0  0
   -7.5623    4.2011  -12.4996 N   0  0  0  0  0  0  0  0  0  0  0  0
   -7.8772    4.1400  -11.1432 C   0  0  0  0  0  0  0  0  0  0  0  0
   -7.7446    5.2697  -10.3201 C   0  0  0  0  0  0  0  0  0  0  0  0
   -8.0306    5.1998   -8.9527 C   0  0  0  0  0  0  0  0  0  0  0  0
   -8.4404    3.9874   -8.4299 C   0  0  0  0  0  0  0  0  0  0  0  0
   -8.5841    2.8707   -9.2432 C   0  0  0  0  0  0  0  0  0  0  0  0
   -8.3213    2.9293  -10.6044 C   0  0  0  0  0  0  0  0  0  0  0  0
   -8.9731    1.6984   -8.4076 C   0  0  0  0  0  0  0  0  0  0  0  0
   -9.2586    2.2327   -7.0505 N   0  0  0  0  0  0  0  0  0  0  0  0
   -8.7523    3.6203   -7.0195 C   0  0  0  0  0  0  0  0  0  0  0  0
   -5.8604    5.4309  -15.5805 C   0  0  0  0  0  0  0  0  0  0  0  0
   -5.9368    5.3505  -16.9893 C   0  0  0  0  0  0  0  0  0  0  0  0
   -5.0771    5.7210  -18.0797 C   0  0  0  0  0  0  0  0  0  0  0  0
   -3.7046    6.3202  -18.0298 C   0  0  0  0  0  0  0  0  0  0  0  0
   -3.7136    7.7379  -17.4518 C   0  0  0  0  0  0  0  0  0  0  0  0
   -2.3068    8.3238  -17.4803 C   0  0  0  0  0  0  0  0  0  0  0  0
   -1.3592    7.4688  -16.7680 N   0  0  0  0  0  0  0  0  0  0  0  0
   -1.3086    6.1197  -17.3327 C   0  0  0  0  0  0  0  0  0  0  0  0
   -2.6781    5.4453  -17.3091 C   0  0  0  0  0  0  0  0  0  0  0  0
  1  2  1  0
  2  3  1  0
  3  4  1  0
  4  5  2  0
  5  6  1  0
  5  7  1  0
  7  8  2  0
  8  9  1  0
  9 10  2  0
  9 11  1  0
 11 12  1  0
 12 13  2  0
 13 14  1  0
 14 15  2  0
 15 16  1  0
 16 17  2  0
 16 18  1  0
 18 19  1  0
 19 20  1  0
  8 21  1  0
 21 22  2  0
 22 23  1  0
 23 24  1  0
 24 25  1  0
 25 26  1  0
 26 27  1  0
 27 28  1  0
 28 29  1  0
 23  2  2  0
 29 24  1  0
 22  4  1  0
 17 12  1  0
 20 15  1  0
M  END
>  <smiles>  (1141) 
C18209-P176

>  <fragmenstein_outcome>  (1141) 
acceptable

>  <inchikey>  (1141) 
HGLRUVFDNQDKCW-UHFFFAOYSA-N

>  <fragmenstein_mode>  (1141) 
expansion

>  <HIPPO Pose ID>  (1141) 
20435

>  <Energy>  (1141) 
31.032759

>  <fragmenstein_error>  (1141) 


>  <tags>  (1141) 
{'openbind_xx01zvns2b_c1_fragmenstein', 'fragmenstein_placed'}

>  <ref_pdb>  (1141) 
175

>  <scratch_subdir>  (1141) 
/opt/xchem-fragalysis-2/maxwin/BulkDock/SCRATCH/511028/C18209-P176

>  <alias>  (1141) 
Nc1[nH]c2c(Br)cc(C(=O)Nc3ccc4c(c3)CNC4)cc2c1C1CCNCC1

>  <HIPPO Compound ID>  (1141) 
18209

>  <fragmenstein_runtime>  (1141) 
4.018061

$$$$
O=C(Nc1ccc2c(c1)CNC2)c1cc(Cl)c2[nH]c(NC3CNC3)c(C3CCNCC3)c2c1
     RDKit          3D

 33 38  0  0  0  0  0  0  0  0999 V2000
   -7.0732    6.4128  -12.9958 O   0  0  0  0  0  0  0  0  0  0  0  0
   -7.4267    5.3420  -13.2999 C   0  0  0  0  0  0  0  0  0  0  0  0
   -8.0183    4.2023  -12.4428 N   0  0  0  0  0  0  0  0  0  0  0  0
   -8.2048    4.1092  -11.0654 C   0  0  0  0  0  0  0  0  0  0  0  0
   -8.0136    5.2339  -10.2443 C   0  0  0  0  0  0  0  0  0  0  0  0
   -8.1767    5.1493   -8.8591 C   0  0  0  0  0  0  0  0  0  0  0  0
   -8.5305    3.9283   -8.3185 C   0  0  0  0  0  0  0  0  0  0  0  0
   -8.7178    2.8135   -9.1279 C   0  0  0  0  0  0  0  0  0  0  0  0
   -8.5686    2.8842  -10.5049 C   0  0  0  0  0  0  0  0  0  0  0  0
   -9.0204    1.6321   -8.2699 C   0  0  0  0  0  0  0  0  0  0  0  0
   -9.2814    2.1727   -6.9117 N   0  0  0  0  0  0  0  0  0  0  0  0
   -8.7490    3.5500   -6.8934 C   0  0  0  0  0  0  0  0  0  0  0  0
   -7.3308    4.9771  -14.7368 C   0  0  0  0  0  0  0  0  0  0  0  0
   -8.4109    4.4360  -15.4249 C   0  0  0  0  0  0  0  0  0  0  0  0
   -8.3703    4.3546  -16.8175 C   0  0  0  0  0  0  0  0  0  0  0  0
   -9.7433    3.8519  -17.6872 Cl  0  0  0  0  0  0  0  0  0  0  0  0
   -7.2417    4.8175  -17.4971 C   0  0  0  0  0  0  0  0  0  0  0  0
   -6.9834    4.9509  -18.8393 N   0  0  0  0  0  0  0  0  0  0  0  0
   -5.7854    5.6014  -19.0460 C   0  0  0  0  0  0  0  0  0  0  0  0
   -5.5058    5.9551  -20.3262 N   0  0  0  0  0  0  0  0  0  0  0  0
   -4.6002    6.9836  -20.7752 C   0  0  0  0  0  0  0  0  0  0  0  0
   -4.9789    7.5956  -22.1473 C   0  0  0  0  0  0  0  0  0  0  0  0
   -4.1492    6.5644  -22.8120 N   0  0  0  0  0  0  0  0  0  0  0  0
   -3.3839    6.4320  -21.5473 C   0  0  0  0  0  0  0  0  0  0  0  0
   -5.1679    5.7268  -17.8086 C   0  0  0  0  0  0  0  0  0  0  0  0
   -3.8075    6.2297  -17.4031 C   0  0  0  0  0  0  0  0  0  0  0  0
   -3.6953    7.7597  -17.3960 C   0  0  0  0  0  0  0  0  0  0  0  0
   -2.3406    8.2380  -17.9119 C   0  0  0  0  0  0  0  0  0  0  0  0
   -1.2585    7.4883  -17.2900 N   0  0  0  0  0  0  0  0  0  0  0  0
   -1.3085    6.0501  -17.5650 C   0  0  0  0  0  0  0  0  0  0  0  0
   -2.6446    5.5434  -18.1087 C   0  0  0  0  0  0  0  0  0  0  0  0
   -6.1348    5.3141  -16.8282 C   0  0  0  0  0  0  0  0  0  0  0  0
   -6.1770    5.3823  -15.4211 C   0  0  0  0  0  0  0  0  0  0  0  0
  1  2  2  0
  2  3  1  0
  3  4  1  0
  4  5  2  0
  5  6  1  0
  6  7  2  0
  7  8  1  0
  8  9  2  0
  8 10  1  0
 10 11  1  0
 11 12  1  0
  2 13  1  0
 13 14  2  0
 14 15  1  0
 15 16  1  0
 15 17  2  0
 17 18  1  0
 18 19  1  0
 19 20  1  0
 20 21  1  0
 21 22  1  0
 22 23  1  0
 23 24  1  0
 19 25  2  0
 25 26  1  0
 26 27  1  0
 27 28  1  0
 28 29  1  0
 29 30  1  0
 30 31  1  0
 25 32  1  0
 32 33  2  0
  9  4  1  0
 33 13  1  0
 12  7  1  0
 32 17  1  0
 24 21  1  0
 31 26  1  0
M  END
>  <smiles>  (1142) 
C18211-P176

>  <fragmenstein_outcome>  (1142) 
acceptable

>  <inchikey>  (1142) 
ZIGXPMDSIHVQAZ-UHFFFAOYSA-N

>  <fragmenstein_mode>  (1142) 
expansion

>  <HIPPO Pose ID>  (1142) 
20437

>  <Energy>  (1142) 
82.096905

>  <fragmenstein_error>  (1142) 


>  <tags>  (1142) 
{'openbind_xx01zvns2b_c1_fragmenstein', 'fragmenstein_placed'}

>  <ref_pdb>  (1142) 
175

>  <scratch_subdir>  (1142) 
/opt/xchem-fragalysis-2/maxwin/BulkDock/SCRATCH/511028/C18211-P176

>  <alias>  (1142) 
O=C(Nc1ccc2c(c1)CNC2)c1cc(Cl)c2[nH]c(NC3CNC3)c(C3CCNCC3)c2c1

>  <HIPPO Compound ID>  (1142) 
43527

>  <fragmenstein_runtime>  (1142) 
6.936698

$$$$
C[C@@H]1C=C(C2=C(CN)CNCC2)c2ccc(C(=O)Nc3ccc4c(c3)CNC4)cc21
     RDKit          3D

 30 34  0  0  0  0  0  0  0  0999 V2000
   -9.1294    3.1084  -17.8492 C   0  0  0  0  0  0  0  0  0  0  0  0
   -8.2074    4.2739  -18.0527 C   0  0  2  0  0  0  0  0  0  0  0  0
   -7.1171    4.2107  -19.0880 C   0  0  0  0  0  0  0  0  0  0  0  0
   -5.9664    4.7973  -18.6918 C   0  0  0  0  0  0  0  0  0  0  0  0
   -4.9599    5.3236  -19.6174 C   0  0  0  0  0  0  0  0  0  0  0  0
   -3.6152    5.2304  -19.5186 C   0  0  0  0  0  0  0  0  0  0  0  0
   -2.8747    4.3664  -18.5557 C   0  0  0  0  0  0  0  0  0  0  0  0
   -2.1573    3.3721  -19.3290 N   0  0  0  0  0  0  0  0  0  0  0  0
   -2.6906    5.9717  -20.4616 C   0  0  0  0  0  0  0  0  0  0  0  0
   -3.3131    7.1043  -21.1461 N   0  0  0  0  0  0  0  0  0  0  0  0
   -4.5325    6.6469  -21.7983 C   0  0  0  0  0  0  0  0  0  0  0  0
   -5.5407    6.0632  -20.8078 C   0  0  0  0  0  0  0  0  0  0  0  0
   -6.1341    5.0633  -17.2485 C   0  0  0  0  0  0  0  0  0  0  0  0
   -5.2384    5.5850  -16.3292 C   0  0  0  0  0  0  0  0  0  0  0  0
   -5.6440    5.7319  -14.9998 C   0  0  0  0  0  0  0  0  0  0  0  0
   -6.9392    5.3585  -14.5935 C   0  0  0  0  0  0  0  0  0  0  0  0
   -7.3220    5.6765  -13.1919 C   0  0  0  0  0  0  0  0  0  0  0  0
   -7.1774    6.7793  -12.8329 O   0  0  0  0  0  0  0  0  0  0  0  0
   -7.7877    4.4214  -12.4148 N   0  0  0  0  0  0  0  0  0  0  0  0
   -8.0722    4.2474  -11.0548 C   0  0  0  0  0  0  0  0  0  0  0  0
   -8.0219    5.3376  -10.1688 C   0  0  0  0  0  0  0  0  0  0  0  0
   -8.2465    5.1686   -8.7974 C   0  0  0  0  0  0  0  0  0  0  0  0
   -8.5424    3.9017   -8.3323 C   0  0  0  0  0  0  0  0  0  0  0  0
   -8.6107    2.8201   -9.2027 C   0  0  0  0  0  0  0  0  0  0  0  0
   -8.3732    2.9710  -10.5650 C   0  0  0  0  0  0  0  0  0  0  0  0
   -8.9280    1.5875   -8.4208 C   0  0  0  0  0  0  0  0  0  0  0  0
   -9.2787    2.0490   -7.0570 N   0  0  0  0  0  0  0  0  0  0  0  0
   -8.8115    3.4412   -6.9395 C   0  0  0  0  0  0  0  0  0  0  0  0
   -7.8543    4.8415  -15.5156 C   0  0  0  0  0  0  0  0  0  0  0  0
   -7.4358    4.7114  -16.8411 C   0  0  0  0  0  0  0  0  0  0  0  0
  2  1  1  1
  2  3  1  0
  3  4  2  0
  4  5  1  0
  5  6  2  0
  6  7  1  0
  7  8  1  0
  6  9  1  0
  9 10  1  0
 10 11  1  0
 11 12  1  0
  4 13  1  0
 13 14  2  0
 14 15  1  0
 15 16  2  0
 16 17  1  0
 17 18  2  0
 17 19  1  0
 19 20  1  0
 20 21  2  0
 21 22  1  0
 22 23  2  0
 23 24  1  0
 24 25  2  0
 24 26  1  0
 26 27  1  0
 27 28  1  0
 16 29  1  0
 29 30  2  0
 30  2  1  0
 12  5  1  0
 30 13  1  0
 25 20  1  0
 28 23  1  0
M  END
>  <smiles>  (1143) 
C18245-P177

>  <fragmenstein_outcome>  (1143) 
acceptable

>  <inchikey>  (1143) 
BHOCOKSTLLGKRE-UHFFFAOYSA-N

>  <fragmenstein_mode>  (1143) 
expansion

>  <HIPPO Pose ID>  (1143) 
20449

>  <Energy>  (1143) 
77.77756

>  <fragmenstein_error>  (1143) 


>  <tags>  (1143) 
{'openbind_xx01zvns2b_c1_fragmenstein', 'fragmenstein_placed'}

>  <ref_pdb>  (1143) 
175

>  <scratch_subdir>  (1143) 
/opt/xchem-fragalysis-2/maxwin/BulkDock/SCRATCH/511028/C18245-P177

>  <alias>  (1143) 
C[C@@H]1C=C(C2=C(CN)CNCC2)c2ccc(C(=O)Nc3ccc4c(c3)CNC4)cc21

>  <HIPPO Compound ID>  (1143) 
18245

>  <fragmenstein_runtime>  (1143) 
9.958942

$$$$
CN[C@@](O)(Nc1ccc2c(c1)CNC2)c1ccc2c(C3=CCNCC3)csc2c1
     RDKit          3D

 29 33  0  0  0  0  0  0  0  0999 V2000
   -7.6423    7.6234  -12.7566 C   0  0  0  0  0  0  0  0  0  0  0  0
   -8.3106    6.3355  -12.6822 N   0  0  0  0  0  0  0  0  0  0  0  0
   -7.4279    5.1858  -12.7844 C   0  0  1  0  0  0  0  0  0  0  0  0
   -6.1863    5.4236  -12.1556 O   0  0  0  0  0  0  0  0  0  0  0  0
   -7.8763    3.9663  -12.1577 N   0  0  0  0  0  0  0  0  0  0  0  0
   -8.1780    3.9039  -10.7810 C   0  0  0  0  0  0  0  0  0  0  0  0
   -7.9010    4.9389   -9.8506 C   0  0  0  0  0  0  0  0  0  0  0  0
   -8.1626    4.8199   -8.4807 C   0  0  0  0  0  0  0  0  0  0  0  0
   -8.6574    3.6226   -8.0267 C   0  0  0  0  0  0  0  0  0  0  0  0
   -8.8623    2.5665   -8.9059 C   0  0  0  0  0  0  0  0  0  0  0  0
   -8.6390    2.6886  -10.2687 C   0  0  0  0  0  0  0  0  0  0  0  0
   -9.2440    1.3660   -8.1134 C   0  0  0  0  0  0  0  0  0  0  0  0
   -9.7220    1.9040   -6.8161 N   0  0  0  0  0  0  0  0  0  0  0  0
   -8.9902    3.1787   -6.6419 C   0  0  0  0  0  0  0  0  0  0  0  0
   -7.1167    4.9725  -14.2779 C   0  0  0  0  0  0  0  0  0  0  0  0
   -5.8832    5.3922  -14.7956 C   0  0  0  0  0  0  0  0  0  0  0  0
   -5.6011    5.3466  -16.1562 C   0  0  0  0  0  0  0  0  0  0  0  0
   -6.5462    4.8426  -17.0744 C   0  0  0  0  0  0  0  0  0  0  0  0
   -6.4588    4.6884  -18.5081 C   0  0  0  0  0  0  0  0  0  0  0  0
   -5.2964    5.0302  -19.3005 C   0  0  0  0  0  0  0  0  0  0  0  0
   -4.0291    4.7127  -18.9748 C   0  0  0  0  0  0  0  0  0  0  0  0
   -2.8360    5.1667  -19.7514 C   0  0  0  0  0  0  0  0  0  0  0  0
   -3.1049    6.3839  -20.5166 N   0  0  0  0  0  0  0  0  0  0  0  0
   -4.3001    6.2325  -21.3376 C   0  0  0  0  0  0  0  0  0  0  0  0
   -5.5578    5.8394  -20.5444 C   0  0  0  0  0  0  0  0  0  0  0  0
   -7.6242    4.1635  -19.0223 C   0  0  0  0  0  0  0  0  0  0  0  0
   -8.8114    3.8721  -17.8298 S   0  0  0  0  0  0  0  0  0  0  0  0
   -7.7814    4.4266  -16.5666 C   0  0  0  0  0  0  0  0  0  0  0  0
   -8.0808    4.4914  -15.1847 C   0  0  0  0  0  0  0  0  0  0  0  0
  1  2  1  0
  2  3  1  0
  3  4  1  1
  3  5  1  0
  5  6  1  0
  6  7  2  0
  7  8  1  0
  8  9  2  0
  9 10  1  0
 10 11  2  0
 10 12  1  0
 12 13  1  0
 13 14  1  0
  3 15  1  0
 15 16  2  0
 16 17  1  0
 17 18  2  0
 18 19  1  0
 19 20  1  0
 20 21  2  0
 21 22  1  0
 22 23  1  0
 23 24  1  0
 24 25  1  0
 19 26  2  0
 26 27  1  0
 27 28  1  0
 28 29  2  0
 11  6  1  0
 29 15  1  0
 14  9  1  0
 28 18  1  0
 25 20  1  0
M  END
>  <smiles>  (1144) 
C18257-P177

>  <fragmenstein_outcome>  (1144) 
acceptable

>  <inchikey>  (1144) 
GKOBYQOSAFENIF-UHFFFAOYSA-N

>  <fragmenstein_mode>  (1144) 
expansion

>  <HIPPO Pose ID>  (1144) 
20451

>  <Energy>  (1144) 
-79.700863

>  <fragmenstein_error>  (1144) 


>  <tags>  (1144) 
{'openbind_xx01zvns2b_c1_fragmenstein', 'fragmenstein_placed'}

>  <ref_pdb>  (1144) 
175

>  <scratch_subdir>  (1144) 
/opt/xchem-fragalysis-2/maxwin/BulkDock/SCRATCH/511028/C18257-P177

>  <alias>  (1144) 
CN[C@@](O)(Nc1ccc2c(c1)CNC2)c1ccc2c(C3=CCNCC3)csc2c1

>  <HIPPO Compound ID>  (1144) 
18257

>  <fragmenstein_runtime>  (1144) 
6.419194

$$$$
Cc1cc(C(=O)C(=O)c2ccc3c(c2N)CNC3)cc2scc(C3=CCNCC3)c12
     RDKit          3D

 30 34  0  0  0  0  0  0  0  0999 V2000
   -3.7286    5.9913  -16.5229 C   0  0  0  0  0  0  0  0  0  0  0  0
   -5.0683    5.4584  -16.0825 C   0  0  0  0  0  0  0  0  0  0  0  0
   -5.3088    5.3870  -14.6960 C   0  0  0  0  0  0  0  0  0  0  0  0
   -6.5181    4.9302  -14.1751 C   0  0  0  0  0  0  0  0  0  0  0  0
   -6.6928    4.9752  -12.7032 C   0  0  0  0  0  0  0  0  0  0  0  0
   -5.7359    5.1751  -11.9619 O   0  0  0  0  0  0  0  0  0  0  0  0
   -8.0701    4.9442  -12.0953 C   0  0  0  0  0  0  0  0  0  0  0  0
   -9.0103    5.4225  -12.7198 O   0  0  0  0  0  0  0  0  0  0  0  0
   -8.2059    4.5198  -10.6946 C   0  0  0  0  0  0  0  0  0  0  0  0
   -8.2004    5.5343   -9.7167 C   0  0  0  0  0  0  0  0  0  0  0  0
   -8.3748    5.2144   -8.3726 C   0  0  0  0  0  0  0  0  0  0  0  0
   -8.6195    3.8924   -8.0526 C   0  0  0  0  0  0  0  0  0  0  0  0
   -8.6225    2.8890   -9.0282 C   0  0  0  0  0  0  0  0  0  0  0  0
   -8.3388    3.1658  -10.3608 C   0  0  0  0  0  0  0  0  0  0  0  0
   -8.3764    2.1687  -11.3477 N   0  0  0  0  0  0  0  0  0  0  0  0
   -8.9584    1.5942   -8.3573 C   0  0  0  0  0  0  0  0  0  0  0  0
   -9.4986    1.9631   -7.0238 N   0  0  0  0  0  0  0  0  0  0  0  0
   -8.9203    3.2866   -6.7208 C   0  0  0  0  0  0  0  0  0  0  0  0
   -7.5241    4.4972  -15.0332 C   0  0  0  0  0  0  0  0  0  0  0  0
   -7.2893    4.5383  -16.4165 C   0  0  0  0  0  0  0  0  0  0  0  0
   -8.4179    4.0308  -17.6136 S   0  0  0  0  0  0  0  0  0  0  0  0
   -7.3318    4.3790  -18.8676 C   0  0  0  0  0  0  0  0  0  0  0  0
   -6.1421    4.9065  -18.4144 C   0  0  0  0  0  0  0  0  0  0  0  0
   -5.0924    5.2562  -19.3247 C   0  0  0  0  0  0  0  0  0  0  0  0
   -3.8962    4.6484  -19.3723 C   0  0  0  0  0  0  0  0  0  0  0  0
   -2.8255    4.9774  -20.3577 C   0  0  0  0  0  0  0  0  0  0  0  0
   -3.0953    6.1223  -21.2350 N   0  0  0  0  0  0  0  0  0  0  0  0
   -4.5262    6.2598  -21.5398 C   0  0  0  0  0  0  0  0  0  0  0  0
   -5.3863    6.3755  -20.2776 C   0  0  0  0  0  0  0  0  0  0  0  0
   -6.0877    4.9998  -16.9718 C   0  0  0  0  0  0  0  0  0  0  0  0
  1  2  1  0
  2  3  2  0
  3  4  1  0
  4  5  1  0
  5  6  2  0
  5  7  1  0
  7  8  2  0
  7  9  1  0
  9 10  2  0
 10 11  1  0
 11 12  2  0
 12 13  1  0
 13 14  2  0
 14 15  1  0
 13 16  1  0
 16 17  1  0
 17 18  1  0
  4 19  2  0
 19 20  1  0
 20 21  1  0
 21 22  1  0
 22 23  2  0
 23 24  1  0
 24 25  2  0
 25 26  1  0
 26 27  1  0
 27 28  1  0
 28 29  1  0
 23 30  1  0
 30  2  1  0
 14  9  1  0
 30 20  2  0
 18 12  1  0
 29 24  1  0
M  END
>  <smiles>  (1145) 
C18299-P177

>  <fragmenstein_outcome>  (1145) 
acceptable

>  <inchikey>  (1145) 
UWYHJNJMIMOXSW-UHFFFAOYSA-N

>  <fragmenstein_mode>  (1145) 
expansion

>  <HIPPO Pose ID>  (1145) 
20466

>  <Energy>  (1145) 
131.764782

>  <fragmenstein_error>  (1145) 


>  <tags>  (1145) 
{'openbind_xx01zvns2b_c1_fragmenstein', 'fragmenstein_placed'}

>  <ref_pdb>  (1145) 
175

>  <scratch_subdir>  (1145) 
/opt/xchem-fragalysis-2/maxwin/BulkDock/SCRATCH/511028/C18299-P177

>  <alias>  (1145) 
Cc1cc(C(=O)C(=O)c2ccc3c(c2N)CNC3)cc2scc(C3=CCNCC3)c12

>  <HIPPO Compound ID>  (1145) 
28862

>  <fragmenstein_runtime>  (1145) 
3.170821

$$$$
O=C(Nc1cc(C(=O)Nc2ccc3c(c2)CNC3)c(Cl)c2scc(C3=CCNCC3)c12)OCc1ccccc1
     RDKit          3D

 39 44  0  0  0  0  0  0  0  0999 V2000
   -4.8244    7.9758  -18.5878 O   0  0  0  0  0  0  0  0  0  0  0  0
   -4.0313    7.6788  -17.7903 C   0  0  0  0  0  0  0  0  0  0  0  0
   -4.0988    6.6507  -16.6572 N   0  0  0  0  0  0  0  0  0  0  0  0
   -5.1592    5.8560  -16.2141 C   0  0  0  0  0  0  0  0  0  0  0  0
   -5.3016    5.8125  -14.8196 C   0  0  0  0  0  0  0  0  0  0  0  0
   -6.4754    5.3530  -14.2403 C   0  0  0  0  0  0  0  0  0  0  0  0
   -6.6427    5.5851  -12.7727 C   0  0  0  0  0  0  0  0  0  0  0  0
   -6.3275    6.6303  -12.3541 O   0  0  0  0  0  0  0  0  0  0  0  0
   -7.2497    4.3559  -12.0509 N   0  0  0  0  0  0  0  0  0  0  0  0
   -7.6681    4.1964  -10.7301 C   0  0  0  0  0  0  0  0  0  0  0  0
   -7.5916    5.2523   -9.8081 C   0  0  0  0  0  0  0  0  0  0  0  0
   -8.0128    5.0828   -8.4844 C   0  0  0  0  0  0  0  0  0  0  0  0
   -8.5041    3.8480   -8.1078 C   0  0  0  0  0  0  0  0  0  0  0  0
   -8.5866    2.8014   -9.0208 C   0  0  0  0  0  0  0  0  0  0  0  0
   -8.1846    2.9571  -10.3375 C   0  0  0  0  0  0  0  0  0  0  0  0
   -9.0953    1.5880   -8.3180 C   0  0  0  0  0  0  0  0  0  0  0  0
   -9.6640    2.0867   -7.0402 N   0  0  0  0  0  0  0  0  0  0  0  0
   -8.9734    3.3685   -6.7745 C   0  0  0  0  0  0  0  0  0  0  0  0
   -7.5082    4.8901  -15.0574 C   0  0  0  0  0  0  0  0  0  0  0  0
   -9.0734    4.6377  -14.4030 Cl  0  0  0  0  0  0  0  0  0  0  0  0
   -7.2929    4.7443  -16.4505 C   0  0  0  0  0  0  0  0  0  0  0  0
   -8.3869    4.0629  -17.6082 S   0  0  0  0  0  0  0  0  0  0  0  0
   -7.3027    4.3002  -18.8864 C   0  0  0  0  0  0  0  0  0  0  0  0
   -6.1221    4.8872  -18.4859 C   0  0  0  0  0  0  0  0  0  0  0  0
   -5.0321    5.0448  -19.4112 C   0  0  0  0  0  0  0  0  0  0  0  0
   -3.7722    4.6574  -19.1572 C   0  0  0  0  0  0  0  0  0  0  0  0
   -2.6423    4.8040  -20.1202 C   0  0  0  0  0  0  0  0  0  0  0  0
   -2.9764    5.2824  -21.4716 N   0  0  0  0  0  0  0  0  0  0  0  0
   -4.0994    6.2358  -21.4252 C   0  0  0  0  0  0  0  0  0  0  0  0
   -5.3560    5.6875  -20.7340 C   0  0  0  0  0  0  0  0  0  0  0  0
   -6.1140    5.2122  -17.0645 C   0  0  0  0  0  0  0  0  0  0  0  0
   -2.7974    8.2419  -17.6721 O   0  0  0  0  0  0  0  0  0  0  0  0
   -2.4737    9.2931  -18.5957 C   0  0  0  0  0  0  0  0  0  0  0  0
   -1.5524    8.7950  -19.6827 C   0  0  0  0  0  0  0  0  0  0  0  0
   -1.7346    9.2115  -21.0095 C   0  0  0  0  0  0  0  0  0  0  0  0
   -0.8820    8.7613  -22.0199 C   0  0  0  0  0  0  0  0  0  0  0  0
    0.1683    7.8986  -21.7143 C   0  0  0  0  0  0  0  0  0  0  0  0
    0.3726    7.4931  -20.3975 C   0  0  0  0  0  0  0  0  0  0  0  0
   -0.4762    7.9464  -19.3857 C   0  0  0  0  0  0  0  0  0  0  0  0
  1  2  2  0
  2  3  1  0
  3  4  1  0
  4  5  2  0
  5  6  1  0
  6  7  1  0
  7  8  2  0
  7  9  1  0
  9 10  1  0
 10 11  2  0
 11 12  1  0
 12 13  2  0
 13 14  1  0
 14 15  2  0
 14 16  1  0
 16 17  1  0
 17 18  1  0
  6 19  2  0
 19 20  1  0
 19 21  1  0
 21 22  1  0
 22 23  1  0
 23 24  2  0
 24 25  1  0
 25 26  2  0
 26 27  1  0
 27 28  1  0
 28 29  1  0
 29 30  1  0
 24 31  1  0
  2 32  1  0
 32 33  1  0
 33 34  1  0
 34 35  2  0
 35 36  1  0
 36 37  2  0
 37 38  1  0
 38 39  2  0
 31  4  1  0
 39 34  1  0
 15 10  1  0
 31 21  2  0
 18 13  1  0
 30 25  1  0
M  END
>  <smiles>  (1146) 
C18312-P177

>  <fragmenstein_outcome>  (1146) 
acceptable

>  <inchikey>  (1146) 
IZKCLHLCHLPFGS-UHFFFAOYSA-N

>  <fragmenstein_mode>  (1146) 
expansion

>  <HIPPO Pose ID>  (1146) 
20470

>  <Energy>  (1146) 
53.339769

>  <fragmenstein_error>  (1146) 


>  <tags>  (1146) 
{'openbind_xx01zvns2b_c1_fragmenstein', 'fragmenstein_placed'}

>  <ref_pdb>  (1146) 
175

>  <scratch_subdir>  (1146) 
/opt/xchem-fragalysis-2/maxwin/BulkDock/SCRATCH/511028/C18312-P177

>  <alias>  (1146) 
O=C(Nc1cc(C(=O)Nc2ccc3c(c2)CNC3)c(Cl)c2scc(C3=CCNCC3)c12)OCc1ccccc1

>  <HIPPO Compound ID>  (1146) 
36786

>  <fragmenstein_runtime>  (1146) 
11.704744

$$$$
O=C(Nc1ccc2c(c1)CNC2)c1cc(O)c2c(c1)C[C@](O)(c1ccncc1F)N2
     RDKit          3D

 30 34  0  0  0  0  0  0  0  0999 V2000
   -6.6030    6.1308  -13.3407 O   0  0  0  0  0  0  0  0  0  0  0  0
   -7.1143    5.1107  -13.5879 C   0  0  0  0  0  0  0  0  0  0  0  0
   -7.8629    4.1196  -12.6730 N   0  0  0  0  0  0  0  0  0  0  0  0
   -8.0512    4.1278  -11.2951 C   0  0  0  0  0  0  0  0  0  0  0  0
   -7.7831    5.2907  -10.5530 C   0  0  0  0  0  0  0  0  0  0  0  0
   -7.9683    5.3181   -9.1696 C   0  0  0  0  0  0  0  0  0  0  0  0
   -8.4015    4.1628   -8.5506 C   0  0  0  0  0  0  0  0  0  0  0  0
   -8.6686    3.0119   -9.2834 C   0  0  0  0  0  0  0  0  0  0  0  0
   -8.5150    2.9770  -10.6596 C   0  0  0  0  0  0  0  0  0  0  0  0
   -9.1325    1.9395   -8.3607 C   0  0  0  0  0  0  0  0  0  0  0  0
   -8.8983    2.4513   -6.9830 N   0  0  0  0  0  0  0  0  0  0  0  0
   -8.6831    3.9095   -7.1110 C   0  0  0  0  0  0  0  0  0  0  0  0
   -7.1646    4.7009  -15.0124 C   0  0  0  0  0  0  0  0  0  0  0  0
   -8.4042    4.4373  -15.6234 C   0  0  0  0  0  0  0  0  0  0  0  0
   -8.4911    4.4281  -17.0138 C   0  0  0  0  0  0  0  0  0  0  0  0
   -9.7030    4.3028  -17.6305 O   0  0  0  0  0  0  0  0  0  0  0  0
   -7.3415    4.6582  -17.7650 C   0  0  0  0  0  0  0  0  0  0  0  0
   -6.1033    4.7803  -17.1425 C   0  0  0  0  0  0  0  0  0  0  0  0
   -5.9936    4.8270  -15.7670 C   0  0  0  0  0  0  0  0  0  0  0  0
   -5.0357    4.9749  -18.1725 C   0  0  0  0  0  0  0  0  0  0  0  0
   -5.8711    5.1460  -19.4833 C   0  0  2  0  0  0  0  0  0  0  0  0
   -5.6775    4.0515  -20.3744 O   0  0  0  0  0  0  0  0  0  0  0  0
   -5.4843    6.4379  -20.1985 C   0  0  0  0  0  0  0  0  0  0  0  0
   -5.1311    6.4669  -21.5625 C   0  0  0  0  0  0  0  0  0  0  0  0
   -4.7753    7.6697  -22.1616 C   0  0  0  0  0  0  0  0  0  0  0  0
   -4.7296    8.8493  -21.5098 N   0  0  0  0  0  0  0  0  0  0  0  0
   -5.0638    8.8128  -20.2016 C   0  0  0  0  0  0  0  0  0  0  0  0
   -5.4547    7.6635  -19.5288 C   0  0  0  0  0  0  0  0  0  0  0  0
   -5.7829    7.7667  -18.2351 F   0  0  0  0  0  0  0  0  0  0  0  0
   -7.2671    5.0903  -19.0918 N   0  0  0  0  0  0  0  0  0  0  0  0
  1  2  2  0
  2  3  1  0
  3  4  1  0
  4  5  2  0
  5  6  1  0
  6  7  2  0
  7  8  1  0
  8  9  2  0
  8 10  1  0
 10 11  1  0
 11 12  1  0
  2 13  1  0
 13 14  2  0
 14 15  1  0
 15 16  1  0
 15 17  2  0
 17 18  1  0
 18 19  2  0
 18 20  1  0
 20 21  1  0
 21 22  1  6
 21 23  1  0
 23 24  2  0
 24 25  1  0
 25 26  2  0
 26 27  1  0
 27 28  2  0
 28 29  1  0
 21 30  1  0
  9  4  1  0
 19 13  1  0
 28 23  1  0
 12  7  1  0
 30 17  1  0
M  END
>  <smiles>  (1147) 
C18489-P178

>  <fragmenstein_outcome>  (1147) 
acceptable

>  <inchikey>  (1147) 
RAOWMCLKXDIMPF-UHFFFAOYSA-N

>  <fragmenstein_mode>  (1147) 
expansion

>  <HIPPO Pose ID>  (1147) 
20516

>  <Energy>  (1147) 
62.011251

>  <fragmenstein_error>  (1147) 


>  <tags>  (1147) 
{'openbind_xx01zvns2b_c1_fragmenstein', 'fragmenstein_placed'}

>  <ref_pdb>  (1147) 
175

>  <scratch_subdir>  (1147) 
/opt/xchem-fragalysis-2/maxwin/BulkDock/SCRATCH/511028/C18489-P178

>  <alias>  (1147) 
O=C(Nc1ccc2c(c1)CNC2)c1cc(O)c2c(c1)C[C@](O)(c1ccncc1F)N2

>  <HIPPO Compound ID>  (1147) 
20941

>  <fragmenstein_runtime>  (1147) 
3.375031

$$$$
Cc1cc([C@@](O)(F)Nc2ccc3c(c2)CNC3)cc2c1NC(=O)[C@@]21CCCNC1
     RDKit          3D

 29 33  0  0  0  0  0  0  0  0999 V2000
   -9.8502    3.6365  -17.8776 C   0  0  0  0  0  0  0  0  0  0  0  0
   -8.5895    4.0967  -17.2400 C   0  0  0  0  0  0  0  0  0  0  0  0
   -8.4554    4.2963  -15.8625 C   0  0  0  0  0  0  0  0  0  0  0  0
   -7.2546    4.8004  -15.3014 C   0  0  0  0  0  0  0  0  0  0  0  0
   -7.1471    5.0541  -13.8004 C   0  0  1  0  0  0  0  0  0  0  0  0
   -5.7952    5.0154  -13.4052 O   0  0  0  0  0  0  0  0  0  0  0  0
   -7.5955    6.2998  -13.5064 F   0  0  0  0  0  0  0  0  0  0  0  0
   -7.8641    4.0656  -13.0290 N   0  0  0  0  0  0  0  0  0  0  0  0
   -8.0400    4.1281  -11.6425 C   0  0  0  0  0  0  0  0  0  0  0  0
   -8.0128    5.3250  -10.8967 C   0  0  0  0  0  0  0  0  0  0  0  0
   -8.2123    5.3430   -9.5079 C   0  0  0  0  0  0  0  0  0  0  0  0
   -8.4977    4.1535   -8.8714 C   0  0  0  0  0  0  0  0  0  0  0  0
   -8.5912    2.9719   -9.5909 C   0  0  0  0  0  0  0  0  0  0  0  0
   -8.3702    2.9446  -10.9603 C   0  0  0  0  0  0  0  0  0  0  0  0
   -8.9389    1.8570   -8.6599 C   0  0  0  0  0  0  0  0  0  0  0  0
   -9.3631    2.5206   -7.3955 N   0  0  0  0  0  0  0  0  0  0  0  0
   -8.7523    3.8675   -7.4307 C   0  0  0  0  0  0  0  0  0  0  0  0
   -6.1999    5.1702  -16.1719 C   0  0  0  0  0  0  0  0  0  0  0  0
   -6.3333    4.9573  -17.5360 C   0  0  0  0  0  0  0  0  0  0  0  0
   -7.4916    4.3699  -18.0261 C   0  0  0  0  0  0  0  0  0  0  0  0
   -7.3642    4.1078  -19.3772 N   0  0  0  0  0  0  0  0  0  0  0  0
   -6.1252    4.5005  -19.8534 C   0  0  0  0  0  0  0  0  0  0  0  0
   -5.7240    4.2812  -20.9869 O   0  0  0  0  0  0  0  0  0  0  0  0
   -5.4240    5.2969  -18.7080 C   0  0  1  0  0  0  0  0  0  0  0  0
   -5.5244    6.8061  -19.0143 C   0  0  0  0  0  0  0  0  0  0  0  0
   -4.5386    7.2344  -20.1025 C   0  0  0  0  0  0  0  0  0  0  0  0
   -3.1189    6.7698  -19.7977 C   0  0  0  0  0  0  0  0  0  0  0  0
   -3.0550    5.3286  -19.5838 N   0  0  0  0  0  0  0  0  0  0  0  0
   -3.9579    4.9123  -18.5062 C   0  0  0  0  0  0  0  0  0  0  0  0
  1  2  1  0
  2  3  2  0
  3  4  1  0
  4  5  1  0
  5  6  1  1
  5  7  1  0
  5  8  1  0
  8  9  1  0
  9 10  2  0
 10 11  1  0
 11 12  2  0
 12 13  1  0
 13 14  2  0
 13 15  1  0
 15 16  1  0
 16 17  1  0
  4 18  2  0
 18 19  1  0
 19 20  2  0
 20 21  1  0
 21 22  1  0
 22 23  2  0
 22 24  1  0
 24 25  1  6
 25 26  1  0
 26 27  1  0
 27 28  1  0
 28 29  1  0
 20  2  1  0
 29 24  1  0
 14  9  1  0
 24 19  1  0
 17 12  1  0
M  END
>  <smiles>  (1148) 
C18493-P178

>  <fragmenstein_outcome>  (1148) 
acceptable

>  <inchikey>  (1148) 
MVZJODLAOBLCAT-UHFFFAOYSA-N

>  <fragmenstein_mode>  (1148) 
expansion

>  <HIPPO Pose ID>  (1148) 
20520

>  <Energy>  (1148) 
5.051682

>  <fragmenstein_error>  (1148) 


>  <tags>  (1148) 
{'openbind_xx01zvns2b_c1_fragmenstein', 'fragmenstein_placed'}

>  <ref_pdb>  (1148) 
175

>  <scratch_subdir>  (1148) 
/opt/xchem-fragalysis-2/maxwin/BulkDock/SCRATCH/511028/C18493-P178

>  <alias>  (1148) 
Cc1cc([C@@](O)(F)Nc2ccc3c(c2)CNC3)cc2c1NC(=O)[C@@]21CCCNC1

>  <HIPPO Compound ID>  (1148) 
18493

>  <fragmenstein_runtime>  (1148) 
2.481051

$$$$
Cc1cc(C(=O)Nc2ccc3c(c2)CNC3)cc2c1NC(=O)C21CCNCC1
     RDKit          3D

 28 32  0  0  0  0  0  0  0  0999 V2000
   -9.6978    3.6000  -17.8512 C   0  0  0  0  0  0  0  0  0  0  0  0
   -8.5333    4.1278  -17.0910 C   0  0  0  0  0  0  0  0  0  0  0  0
   -8.5738    4.3775  -15.7139 C   0  0  0  0  0  0  0  0  0  0  0  0
   -7.4823    4.9890  -15.0663 C   0  0  0  0  0  0  0  0  0  0  0  0
   -7.5806    5.4380  -13.6561 C   0  0  0  0  0  0  0  0  0  0  0  0
   -7.2963    6.5436  -13.4114 O   0  0  0  0  0  0  0  0  0  0  0  0
   -8.0639    4.3007  -12.7310 N   0  0  0  0  0  0  0  0  0  0  0  0
   -8.2032    4.2588  -11.3468 C   0  0  0  0  0  0  0  0  0  0  0  0
   -8.0362    5.4183  -10.5733 C   0  0  0  0  0  0  0  0  0  0  0  0
   -8.1771    5.3785   -9.1839 C   0  0  0  0  0  0  0  0  0  0  0  0
   -8.4853    4.1678   -8.5931 C   0  0  0  0  0  0  0  0  0  0  0  0
   -8.6531    3.0202   -9.3567 C   0  0  0  0  0  0  0  0  0  0  0  0
   -8.5153    3.0434  -10.7352 C   0  0  0  0  0  0  0  0  0  0  0  0
   -9.0073    1.8789   -8.4688 C   0  0  0  0  0  0  0  0  0  0  0  0
   -8.9076    2.3862   -7.0727 N   0  0  0  0  0  0  0  0  0  0  0  0
   -8.7262    3.8517   -7.1589 C   0  0  0  0  0  0  0  0  0  0  0  0
   -6.3217    5.3245  -15.7688 C   0  0  0  0  0  0  0  0  0  0  0  0
   -6.2733    5.0298  -17.1170 C   0  0  0  0  0  0  0  0  0  0  0  0
   -7.3575    4.4294  -17.7472 C   0  0  0  0  0  0  0  0  0  0  0  0
   -7.0743    4.2229  -19.0836 N   0  0  0  0  0  0  0  0  0  0  0  0
   -5.7970    4.6471  -19.4066 C   0  0  0  0  0  0  0  0  0  0  0  0
   -5.2979    4.5333  -20.5150 O   0  0  0  0  0  0  0  0  0  0  0  0
   -5.1923    5.3298  -18.1295 C   0  0  0  0  0  0  0  0  0  0  0  0
   -3.8163    4.7851  -17.7106 C   0  0  0  0  0  0  0  0  0  0  0  0
   -2.8461    5.8871  -17.3012 C   0  0  0  0  0  0  0  0  0  0  0  0
   -2.6382    6.8697  -18.3554 N   0  0  0  0  0  0  0  0  0  0  0  0
   -3.8464    7.1943  -19.1132 C   0  0  0  0  0  0  0  0  0  0  0  0
   -5.1408    6.8425  -18.3891 C   0  0  0  0  0  0  0  0  0  0  0  0
  1  2  1  0
  2  3  2  0
  3  4  1  0
  4  5  1  0
  5  6  2  0
  5  7  1  0
  7  8  1  0
  8  9  2  0
  9 10  1  0
 10 11  2  0
 11 12  1  0
 12 13  2  0
 12 14  1  0
 14 15  1  0
 15 16  1  0
  4 17  2  0
 17 18  1  0
 18 19  2  0
 19 20  1  0
 20 21  1  0
 21 22  2  0
 21 23  1  0
 23 24  1  0
 24 25  1  0
 25 26  1  0
 26 27  1  0
 27 28  1  0
 19  2  1  0
 28 23  1  0
 13  8  1  0
 23 18  1  0
 16 11  1  0
M  END
>  <smiles>  (1149) 
C18494-P178

>  <fragmenstein_outcome>  (1149) 
acceptable

>  <inchikey>  (1149) 
VSKQBTHQSHQYKQ-UHFFFAOYSA-N

>  <fragmenstein_mode>  (1149) 
expansion

>  <HIPPO Pose ID>  (1149) 
20521

>  <Energy>  (1149) 
52.503402

>  <fragmenstein_error>  (1149) 


>  <tags>  (1149) 
{'openbind_xx01zvns2b_c1_fragmenstein', 'fragmenstein_placed'}

>  <ref_pdb>  (1149) 
175

>  <scratch_subdir>  (1149) 
/opt/xchem-fragalysis-2/maxwin/BulkDock/SCRATCH/511028/C18494-P178

>  <alias>  (1149) 
Cc1cc(C(=O)Nc2ccc3c(c2)CNC3)cc2c1NC(=O)C21CCNCC1

>  <HIPPO Compound ID>  (1149) 
25304

>  <fragmenstein_runtime>  (1149) 
4.947541

$$$$
CC(=O)N[C@H]1CCC[C@]2(C1)C(=O)Nc1c(O)cc(C(=O)Nc3ccc4c(c3)CNC4)cc12
     RDKit          3D

 32 36  0  0  0  0  0  0  0  0999 V2000
    0.6683    5.7570  -18.7076 C   0  0  0  0  0  0  0  0  0  0  0  0
   -0.5677    6.5201  -18.2965 C   0  0  0  0  0  0  0  0  0  0  0  0
   -0.5207    7.5183  -17.6942 O   0  0  0  0  0  0  0  0  0  0  0  0
   -1.7870    5.7271  -18.8326 N   0  0  0  0  0  0  0  0  0  0  0  0
   -3.1936    6.0497  -18.8193 C   0  0  1  0  0  0  0  0  0  0  0  0
   -3.6121    6.5958  -20.1769 C   0  0  0  0  0  0  0  0  0  0  0  0
   -5.0177    7.1821  -20.1270 C   0  0  0  0  0  0  0  0  0  0  0  0
   -5.8212    6.7101  -18.9141 C   0  0  0  0  0  0  0  0  0  0  0  0
   -5.6049    5.2140  -18.5745 C   0  0  2  0  0  0  0  0  0  0  0  0
   -4.1054    4.8813  -18.4242 C   0  0  0  0  0  0  0  0  0  0  0  0
   -6.3698    4.4004  -19.6759 C   0  0  0  0  0  0  0  0  0  0  0  0
   -5.9766    4.1005  -20.7936 O   0  0  0  0  0  0  0  0  0  0  0  0
   -7.6382    4.1323  -19.1654 N   0  0  0  0  0  0  0  0  0  0  0  0
   -7.6930    4.3867  -17.8034 C   0  0  0  0  0  0  0  0  0  0  0  0
   -8.7422    4.1348  -16.9448 C   0  0  0  0  0  0  0  0  0  0  0  0
   -9.9624    3.7831  -17.4303 O   0  0  0  0  0  0  0  0  0  0  0  0
   -8.5001    4.2309  -15.5800 C   0  0  0  0  0  0  0  0  0  0  0  0
   -7.2173    4.6056  -15.1142 C   0  0  0  0  0  0  0  0  0  0  0  0
   -6.8791    4.3016  -13.6963 C   0  0  0  0  0  0  0  0  0  0  0  0
   -5.9723    3.6006  -13.4915 O   0  0  0  0  0  0  0  0  0  0  0  0
   -7.8984    4.9226  -12.7259 N   0  0  0  0  0  0  0  0  0  0  0  0
   -8.0681    4.7431  -11.3634 C   0  0  0  0  0  0  0  0  0  0  0  0
   -8.3026    5.8403  -10.5315 C   0  0  0  0  0  0  0  0  0  0  0  0
   -8.4840    5.6463   -9.1587 C   0  0  0  0  0  0  0  0  0  0  0  0
   -8.5457    4.3488   -8.6738 C   0  0  0  0  0  0  0  0  0  0  0  0
   -8.3991    3.2613   -9.5219 C   0  0  0  0  0  0  0  0  0  0  0  0
   -8.0918    3.4377  -10.8591 C   0  0  0  0  0  0  0  0  0  0  0  0
   -8.6912    2.0015   -8.7822 C   0  0  0  0  0  0  0  0  0  0  0  0
   -8.8752    2.3895   -7.3557 N   0  0  0  0  0  0  0  0  0  0  0  0
   -8.8006    3.8642   -7.2883 C   0  0  0  0  0  0  0  0  0  0  0  0
   -6.2028    4.9852  -16.0041 C   0  0  0  0  0  0  0  0  0  0  0  0
   -6.4647    4.8889  -17.3626 C   0  0  0  0  0  0  0  0  0  0  0  0
  1  2  1  0
  2  3  2  0
  2  4  1  0
  5  4  1  6
  5  6  1  0
  6  7  1  0
  7  8  1  0
  9  8  1  6
  9 10  1  0
  9 11  1  0
 11 12  2  0
 11 13  1  0
 13 14  1  0
 14 15  2  0
 15 16  1  0
 15 17  1  0
 17 18  2  0
 18 19  1  0
 19 20  2  0
 19 21  1  0
 21 22  1  0
 22 23  2  0
 23 24  1  0
 24 25  2  0
 25 26  1  0
 26 27  2  0
 26 28  1  0
 28 29  1  0
 29 30  1  0
 18 31  1  0
 31 32  2  0
 10  5  1  0
 32 14  1  0
 32  9  1  0
 27 22  1  0
 30 25  1  0
M  END
>  <smiles>  (1150) 
C18499-P178

>  <fragmenstein_outcome>  (1150) 
acceptable

>  <inchikey>  (1150) 
UEBRJXIBFRNERG-UHFFFAOYSA-N

>  <fragmenstein_mode>  (1150) 
expansion

>  <HIPPO Pose ID>  (1150) 
20524

>  <Energy>  (1150) 
77.402601

>  <fragmenstein_error>  (1150) 


>  <tags>  (1150) 
{'openbind_xx01zvns2b_c1_fragmenstein', 'fragmenstein_placed'}

>  <ref_pdb>  (1150) 
175

>  <scratch_subdir>  (1150) 
/opt/xchem-fragalysis-2/maxwin/BulkDock/SCRATCH/511028/C18499-P178

>  <alias>  (1150) 
CC(=O)N[C@H]1CCC[C@]2(C1)C(=O)Nc1c(O)cc(C(=O)Nc3ccc4c(c3)CNC4)cc12

>  <HIPPO Compound ID>  (1150) 
18499

>  <fragmenstein_runtime>  (1150) 
8.664895

$$$$
Cc1cc(NC(=O)c2ccc3c(c2C(F)(F)F)CC(=O)N3)cc2c1CNC2
     RDKit          3D

 27 30  0  0  0  0  0  0  0  0999 V2000
   -7.5935    6.7857   -8.8784 C   0  0  0  0  0  0  0  0  0  0  0  0
   -7.8066    5.5103   -9.6325 C   0  0  0  0  0  0  0  0  0  0  0  0
   -7.5686    5.4425  -11.0184 C   0  0  0  0  0  0  0  0  0  0  0  0
   -7.7676    4.2522  -11.7332 C   0  0  0  0  0  0  0  0  0  0  0  0
   -7.5818    4.1835  -13.1171 N   0  0  0  0  0  0  0  0  0  0  0  0
   -7.0614    5.2500  -14.1188 C   0  0  0  0  0  0  0  0  0  0  0  0
   -6.6362    6.3219  -13.9305 O   0  0  0  0  0  0  0  0  0  0  0  0
   -7.2530    4.8057  -15.5355 C   0  0  0  0  0  0  0  0  0  0  0  0
   -8.5258    4.2585  -15.8596 C   0  0  0  0  0  0  0  0  0  0  0  0
   -8.8524    3.8846  -17.1619 C   0  0  0  0  0  0  0  0  0  0  0  0
   -7.8852    4.0644  -18.1150 C   0  0  0  0  0  0  0  0  0  0  0  0
   -6.6465    4.6380  -17.8325 C   0  0  0  0  0  0  0  0  0  0  0  0
   -6.2915    5.0339  -16.5434 C   0  0  0  0  0  0  0  0  0  0  0  0
   -4.9446    5.6650  -16.3121 C   0  0  0  0  0  0  0  0  0  0  0  0
   -5.0135    6.9655  -15.9211 F   0  0  0  0  0  0  0  0  0  0  0  0
   -4.1718    5.6986  -17.4460 F   0  0  0  0  0  0  0  0  0  0  0  0
   -4.1781    5.0090  -15.4025 F   0  0  0  0  0  0  0  0  0  0  0  0
   -5.8561    4.7182  -19.1087 C   0  0  0  0  0  0  0  0  0  0  0  0
   -6.7527    3.9906  -20.0933 C   0  0  0  0  0  0  0  0  0  0  0  0
   -6.4720    3.7052  -21.2457 O   0  0  0  0  0  0  0  0  0  0  0  0
   -7.9405    3.6993  -19.4449 N   0  0  0  0  0  0  0  0  0  0  0  0
   -8.2159    3.1069  -11.0637 C   0  0  0  0  0  0  0  0  0  0  0  0
   -8.4306    3.1730   -9.6942 C   0  0  0  0  0  0  0  0  0  0  0  0
   -8.2213    4.3506   -8.9877 C   0  0  0  0  0  0  0  0  0  0  0  0
   -8.5308    4.1181   -7.5461 C   0  0  0  0  0  0  0  0  0  0  0  0
   -8.7908    2.6706   -7.3918 N   0  0  0  0  0  0  0  0  0  0  0  0
   -8.9171    2.1123   -8.7651 C   0  0  0  0  0  0  0  0  0  0  0  0
  1  2  1  0
  2  3  2  0
  3  4  1  0
  4  5  1  0
  5  6  1  0
  6  7  2  0
  6  8  1  0
  8  9  2  0
  9 10  1  0
 10 11  2  0
 11 12  1  0
 12 13  2  0
 13 14  1  0
 14 15  1  0
 14 16  1  0
 14 17  1  0
 12 18  1  0
 18 19  1  0
 19 20  2  0
 19 21  1  0
  4 22  2  0
 22 23  1  0
 23 24  2  0
 24 25  1  0
 25 26  1  0
 26 27  1  0
 24  2  1  0
 13  8  1  0
 27 23  1  0
 21 11  1  0
M  END
>  <smiles>  (1151) 
C18500-P178

>  <fragmenstein_outcome>  (1151) 
acceptable

>  <inchikey>  (1151) 
LYYFSPGAOYTAEA-UHFFFAOYSA-N

>  <fragmenstein_mode>  (1151) 
expansion

>  <HIPPO Pose ID>  (1151) 
20525

>  <Energy>  (1151) 
44.220437

>  <fragmenstein_error>  (1151) 


>  <tags>  (1151) 
{'openbind_xx01zvns2b_c1_fragmenstein', 'fragmenstein_placed'}

>  <ref_pdb>  (1151) 
175

>  <scratch_subdir>  (1151) 
/opt/xchem-fragalysis-2/maxwin/BulkDock/SCRATCH/511028/C18500-P178

>  <alias>  (1151) 
Cc1cc(NC(=O)c2ccc3c(c2C(F)(F)F)CC(=O)N3)cc2c1CNC2

>  <HIPPO Compound ID>  (1151) 
18500

>  <fragmenstein_runtime>  (1151) 
5.258252

$$$$
C[C@@H]1NCc2ccc(NC(=O)c3cc(Cl)c4c(c3)[C@H](O)C(=NC(C)(C)CO)N4)cc21
     RDKit          3D

 30 33  0  0  0  0  0  0  0  0999 V2000
   -9.8532    1.6403   -8.2407 C   0  0  0  0  0  0  0  0  0  0  0  0
   -8.5813    2.4346   -8.2276 C   0  0  2  0  0  0  0  0  0  0  0  0
   -8.4734    3.1597   -6.9315 N   0  0  0  0  0  0  0  0  0  0  0  0
   -8.5513    4.5933   -7.2071 C   0  0  0  0  0  0  0  0  0  0  0  0
   -8.4192    4.7326   -8.6828 C   0  0  0  0  0  0  0  0  0  0  0  0
   -8.2510    5.8793   -9.4298 C   0  0  0  0  0  0  0  0  0  0  0  0
   -8.1130    5.7472  -10.8111 C   0  0  0  0  0  0  0  0  0  0  0  0
   -8.1595    4.4858  -11.4290 C   0  0  0  0  0  0  0  0  0  0  0  0
   -7.9564    4.3829  -12.8029 N   0  0  0  0  0  0  0  0  0  0  0  0
   -7.4519    5.4255  -13.8223 C   0  0  0  0  0  0  0  0  0  0  0  0
   -7.1999    6.5576  -13.6858 O   0  0  0  0  0  0  0  0  0  0  0  0
   -7.3187    4.8671  -15.1836 C   0  0  0  0  0  0  0  0  0  0  0  0
   -8.4539    4.3989  -15.8563 C   0  0  0  0  0  0  0  0  0  0  0  0
   -8.4111    4.2164  -17.2418 C   0  0  0  0  0  0  0  0  0  0  0  0
   -9.8511    3.8369  -18.0648 Cl  0  0  0  0  0  0  0  0  0  0  0  0
   -7.2419    4.4810  -17.9342 C   0  0  0  0  0  0  0  0  0  0  0  0
   -6.0955    4.8612  -17.2281 C   0  0  0  0  0  0  0  0  0  0  0  0
   -6.1157    5.0732  -15.8593 C   0  0  0  0  0  0  0  0  0  0  0  0
   -4.9753    5.1430  -18.1923 C   0  0  2  0  0  0  0  0  0  0  0  0
   -4.4989    6.4331  -17.8987 O   0  0  0  0  0  0  0  0  0  0  0  0
   -5.7093    4.9238  -19.5652 C   0  0  0  0  0  0  0  0  0  0  0  0
   -5.2897    5.1940  -20.7501 N   0  0  0  0  0  0  0  0  0  0  0  0
   -3.9997    5.8224  -21.1165 C   0  0  0  0  0  0  0  0  0  0  0  0
   -3.8616    7.2528  -20.5737 C   0  0  0  0  0  0  0  0  0  0  0  0
   -4.0641    5.9809  -22.6509 C   0  0  0  0  0  0  0  0  0  0  0  0
   -2.7905    4.9361  -20.7383 C   0  0  0  0  0  0  0  0  0  0  0  0
   -1.5606    5.4248  -21.2724 O   0  0  0  0  0  0  0  0  0  0  0  0
   -6.9775    4.4104  -19.3121 N   0  0  0  0  0  0  0  0  0  0  0  0
   -8.3701    3.3357  -10.6665 C   0  0  0  0  0  0  0  0  0  0  0  0
   -8.4837    3.4821   -9.2892 C   0  0  0  0  0  0  0  0  0  0  0  0
  2  1  1  1
  2  3  1  0
  3  4  1  0
  4  5  1  0
  5  6  2  0
  6  7  1  0
  7  8  2  0
  8  9  1  0
  9 10  1  0
 10 11  2  0
 10 12  1  0
 12 13  2  0
 13 14  1  0
 14 15  1  0
 14 16  2  0
 16 17  1  0
 17 18  2  0
 17 19  1  0
 19 20  1  6
 19 21  1  0
 21 22  2  3
 22 23  1  0
 23 24  1  0
 23 25  1  0
 23 26  1  0
 26 27  1  0
 21 28  1  0
  8 29  1  0
 29 30  2  0
 30  2  1  0
 30  5  1  0
 18 12  1  0
 28 16  1  0
M  END
>  <smiles>  (1152) 
C18507-P178

>  <fragmenstein_outcome>  (1152) 
acceptable

>  <inchikey>  (1152) 
VHPDNHZKPKIXFP-UHFFFAOYSA-N

>  <fragmenstein_mode>  (1152) 
expansion

>  <HIPPO Pose ID>  (1152) 
20532

>  <Energy>  (1152) 
130.491803

>  <fragmenstein_error>  (1152) 


>  <tags>  (1152) 
{'openbind_xx01zvns2b_c1_fragmenstein', 'fragmenstein_placed'}

>  <ref_pdb>  (1152) 
175

>  <scratch_subdir>  (1152) 
/opt/xchem-fragalysis-2/maxwin/BulkDock/SCRATCH/511028/C18507-P178

>  <alias>  (1152) 
C[C@@H]1NCc2ccc(NC(=O)c3cc(Cl)c4c(c3)[C@H](O)C(=NC(C)(C)CO)N4)cc21

>  <HIPPO Compound ID>  (1152) 
18507

>  <fragmenstein_runtime>  (1152) 
10.544891

$$$$
CS(=O)(=O)c1cc2c(cc1NC(=O)c1ccc3c4c(cccc14)C(=O)N3)CNC2
     RDKit          3D

 29 33  0  0  0  0  0  0  0  0999 V2000
   -7.6255    8.0510  -11.6486 C   0  0  0  0  0  0  0  0  0  0  0  0
   -6.4548    6.8118  -11.1396 S   0  0  0  0  0  0  0  0  0  0  0  0
   -5.8822    7.2944   -9.8888 O   0  0  0  0  0  0  0  0  0  0  0  0
   -5.5394    6.4641  -12.2098 O   0  0  0  0  0  0  0  0  0  0  0  0
   -7.4693    5.3926  -10.7414 C   0  0  0  0  0  0  0  0  0  0  0  0
   -7.8432    5.3270   -9.3766 C   0  0  0  0  0  0  0  0  0  0  0  0
   -8.3446    4.1482   -8.8666 C   0  0  0  0  0  0  0  0  0  0  0  0
   -8.4594    3.0301   -9.6714 C   0  0  0  0  0  0  0  0  0  0  0  0
   -8.1258    3.0799  -11.0188 C   0  0  0  0  0  0  0  0  0  0  0  0
   -7.6606    4.2840  -11.5966 C   0  0  0  0  0  0  0  0  0  0  0  0
   -7.4976    4.2064  -12.9954 N   0  0  0  0  0  0  0  0  0  0  0  0
   -7.4980    5.3191  -14.0706 C   0  0  0  0  0  0  0  0  0  0  0  0
   -7.5562    6.4796  -13.9585 O   0  0  0  0  0  0  0  0  0  0  0  0
   -7.5226    4.7574  -15.4400 C   0  0  0  0  0  0  0  0  0  0  0  0
   -8.7344    4.1504  -15.8544 C   0  0  0  0  0  0  0  0  0  0  0  0
   -8.9530    3.7874  -17.1910 C   0  0  0  0  0  0  0  0  0  0  0  0
   -7.9265    4.0077  -18.0734 C   0  0  0  0  0  0  0  0  0  0  0  0
   -6.7498    4.5732  -17.6636 C   0  0  0  0  0  0  0  0  0  0  0  0
   -5.8965    4.6757  -18.7321 C   0  0  0  0  0  0  0  0  0  0  0  0
   -4.6399    5.2202  -18.5724 C   0  0  0  0  0  0  0  0  0  0  0  0
   -4.2852    5.6656  -17.2858 C   0  0  0  0  0  0  0  0  0  0  0  0
   -5.1804    5.5564  -16.1919 C   0  0  0  0  0  0  0  0  0  0  0  0
   -6.4678    4.9840  -16.3625 C   0  0  0  0  0  0  0  0  0  0  0  0
   -6.6006    4.0935  -19.9037 C   0  0  0  0  0  0  0  0  0  0  0  0
   -6.1690    3.9435  -21.0310 O   0  0  0  0  0  0  0  0  0  0  0  0
   -7.8479    3.7202  -19.4282 N   0  0  0  0  0  0  0  0  0  0  0  0
   -8.9270    1.8811   -8.8370 C   0  0  0  0  0  0  0  0  0  0  0  0
   -9.4125    2.4877   -7.5685 N   0  0  0  0  0  0  0  0  0  0  0  0
   -8.7343    3.7970   -7.4701 C   0  0  0  0  0  0  0  0  0  0  0  0
  1  2  1  0
  2  3  2  0
  2  4  2  0
  2  5  1  0
  5  6  2  0
  6  7  1  0
  7  8  2  0
  8  9  1  0
  9 10  2  0
 10 11  1  0
 11 12  1  0
 12 13  2  0
 12 14  1  0
 14 15  2  0
 15 16  1  0
 16 17  2  0
 17 18  1  0
 18 19  2  0
 19 20  1  0
 20 21  2  0
 21 22  1  0
 22 23  2  0
 19 24  1  0
 24 25  2  0
 24 26  1  0
  8 27  1  0
 27 28  1  0
 28 29  1  0
 10  5  1  0
 23 14  1  0
 29  7  1  0
 26 17  1  0
 23 18  1  0
M  END
>  <smiles>  (1153) 
C18508-P178

>  <fragmenstein_outcome>  (1153) 
acceptable

>  <inchikey>  (1153) 
GCBSBQFYTZRXFL-UHFFFAOYSA-N

>  <fragmenstein_mode>  (1153) 
expansion

>  <HIPPO Pose ID>  (1153) 
20533

>  <Energy>  (1153) 
111.710098

>  <fragmenstein_error>  (1153) 


>  <tags>  (1153) 
{'openbind_xx01zvns2b_c1_fragmenstein', 'fragmenstein_placed'}

>  <ref_pdb>  (1153) 
175

>  <scratch_subdir>  (1153) 
/opt/xchem-fragalysis-2/maxwin/BulkDock/SCRATCH/511028/C18508-P178

>  <alias>  (1153) 
CS(=O)(=O)c1cc2c(cc1NC(=O)c1ccc3c4c(cccc14)C(=O)N3)CNC2

>  <HIPPO Compound ID>  (1153) 
18508

>  <fragmenstein_runtime>  (1153) 
4.425327

$$$$
CO[C@H]1CC[C@@]2(CN1)C1=C(CC[C@@H]2C(=O)Nc2cc(C)c3c(c2)CNC3)NC(=O)C1
     RDKit          3D

 30 34  0  0  0  0  0  0  0  0999 V2000
   -1.3656    7.2436  -15.1986 C   0  0  0  0  0  0  0  0  0  0  0  0
   -2.7296    7.5153  -15.4853 O   0  0  0  0  0  0  0  0  0  0  0  0
   -3.3928    6.4440  -16.1457 C   0  0  1  0  0  0  0  0  0  0  0  0
   -3.6864    5.2947  -15.1735 C   0  0  0  0  0  0  0  0  0  0  0  0
   -4.7682    4.3664  -15.7216 C   0  0  0  0  0  0  0  0  0  0  0  0
   -6.0912    5.1182  -16.0410 C   0  0  1  0  0  0  0  0  0  0  0  0
   -5.8171    6.6477  -16.0619 C   0  0  0  0  0  0  0  0  0  0  0  0
   -4.5806    7.0032  -16.7751 N   0  0  0  0  0  0  0  0  0  0  0  0
   -6.6068    4.7643  -17.4380 C   0  0  0  0  0  0  0  0  0  0  0  0
   -7.8780    4.4519  -17.7205 C   0  0  0  0  0  0  0  0  0  0  0  0
   -9.0113    4.3848  -16.7754 C   0  0  0  0  0  0  0  0  0  0  0  0
   -8.6326    5.0216  -15.4421 C   0  0  0  0  0  0  0  0  0  0  0  0
   -7.2007    4.6577  -14.9954 C   0  0  2  0  0  0  0  0  0  0  0  0
   -7.0309    5.1778  -13.5475 C   0  0  0  0  0  0  0  0  0  0  0  0
   -6.4466    6.1565  -13.2906 O   0  0  0  0  0  0  0  0  0  0  0  0
   -7.8506    4.2208  -12.6291 N   0  0  0  0  0  0  0  0  0  0  0  0
   -8.0280    4.2261  -11.2493 C   0  0  0  0  0  0  0  0  0  0  0  0
   -7.7377    5.3760  -10.4977 C   0  0  0  0  0  0  0  0  0  0  0  0
   -7.8979    5.3934   -9.1031 C   0  0  0  0  0  0  0  0  0  0  0  0
   -7.5841    6.6198   -8.3061 C   0  0  0  0  0  0  0  0  0  0  0  0
   -8.3139    4.2179   -8.4920 C   0  0  0  0  0  0  0  0  0  0  0  0
   -8.5928    3.0775   -9.2381 C   0  0  0  0  0  0  0  0  0  0  0  0
   -8.4858    3.0729  -10.6193 C   0  0  0  0  0  0  0  0  0  0  0  0
   -8.9134    1.9497   -8.3166 C   0  0  0  0  0  0  0  0  0  0  0  0
   -9.1092    2.5635   -6.9794 N   0  0  0  0  0  0  0  0  0  0  0  0
   -8.4979    3.9066   -7.0426 C   0  0  0  0  0  0  0  0  0  0  0  0
   -8.0148    4.1742  -19.0366 N   0  0  0  0  0  0  0  0  0  0  0  0
   -6.8051    4.2396  -19.6973 C   0  0  0  0  0  0  0  0  0  0  0  0
   -6.6011    3.8606  -20.8382 O   0  0  0  0  0  0  0  0  0  0  0  0
   -5.7875    4.7908  -18.7142 C   0  0  0  0  0  0  0  0  0  0  0  0
  1  2  1  0
  3  2  1  1
  3  4  1  0
  4  5  1  0
  6  5  1  1
  6  7  1  0
  7  8  1  0
  6  9  1  0
  9 10  2  0
 10 11  1  0
 11 12  1  0
 12 13  1  0
 13 14  1  1
 14 15  2  0
 14 16  1  0
 16 17  1  0
 17 18  2  0
 18 19  1  0
 19 20  1  0
 19 21  2  0
 21 22  1  0
 22 23  2  0
 22 24  1  0
 24 25  1  0
 25 26  1  0
 10 27  1  0
 27 28  1  0
 28 29  2  0
 28 30  1  0
  8  3  1  0
 30  9  1  0
 13  6  1  0
 23 17  1  0
 26 21  1  0
M  END
>  <smiles>  (1154) 
C18509-P28

>  <fragmenstein_outcome>  (1154) 
acceptable

>  <inchikey>  (1154) 
MLIFFQFSCKZXIZ-UHFFFAOYSA-N

>  <fragmenstein_mode>  (1154) 
expansion

>  <HIPPO Pose ID>  (1154) 
20535

>  <Energy>  (1154) 
35.181756

>  <fragmenstein_error>  (1154) 


>  <tags>  (1154) 
{'openbind_xx01zvns2b_c1_fragmenstein', 'fragmenstein_placed'}

>  <ref_pdb>  (1154) 
175

>  <scratch_subdir>  (1154) 
/opt/xchem-fragalysis-2/maxwin/BulkDock/SCRATCH/511028/C18509-P28

>  <alias>  (1154) 
CO[C@H]1CC[C@@]2(CN1)C1=C(CC[C@@H]2C(=O)Nc2cc(C)c3c(c2)CNC3)NC(=O)C1

>  <HIPPO Compound ID>  (1154) 
18509

>  <fragmenstein_runtime>  (1154) 
7.994912

$$$$
Nc1cc(C(=O)Nc2ccc3c(c2)CNC3)cc2c1NC(=O)[C@@H]2Br
     RDKit          3D

 24 27  0  0  0  0  0  0  0  0999 V2000
  -10.0267    3.6022  -17.4694 N   0  0  0  0  0  0  0  0  0  0  0  0
   -8.7967    4.1114  -17.0604 C   0  0  0  0  0  0  0  0  0  0  0  0
   -8.5422    4.3654  -15.7167 C   0  0  0  0  0  0  0  0  0  0  0  0
   -7.3259    4.9471  -15.3089 C   0  0  0  0  0  0  0  0  0  0  0  0
   -7.1770    5.3492  -13.8807 C   0  0  0  0  0  0  0  0  0  0  0  0
   -6.8053    6.4317  -13.6426 O   0  0  0  0  0  0  0  0  0  0  0  0
   -7.6633    4.2223  -12.9326 N   0  0  0  0  0  0  0  0  0  0  0  0
   -7.8749    4.2267  -11.5541 C   0  0  0  0  0  0  0  0  0  0  0  0
   -7.7399    5.3952  -10.7901 C   0  0  0  0  0  0  0  0  0  0  0  0
   -7.9968    5.3840   -9.4131 C   0  0  0  0  0  0  0  0  0  0  0  0
   -8.3924    4.1952   -8.8269 C   0  0  0  0  0  0  0  0  0  0  0  0
   -8.5257    3.0349   -9.5803 C   0  0  0  0  0  0  0  0  0  0  0  0
   -8.2702    3.0308  -10.9421 C   0  0  0  0  0  0  0  0  0  0  0  0
   -8.9328    1.9118   -8.6839 C   0  0  0  0  0  0  0  0  0  0  0  0
   -9.3635    2.5599   -7.4151 N   0  0  0  0  0  0  0  0  0  0  0  0
   -8.7060    3.8859   -7.4017 C   0  0  0  0  0  0  0  0  0  0  0  0
   -6.3465    5.2929  -16.2531 C   0  0  0  0  0  0  0  0  0  0  0  0
   -6.5717    4.9482  -17.5788 C   0  0  0  0  0  0  0  0  0  0  0  0
   -7.7489    4.2938  -17.9399 C   0  0  0  0  0  0  0  0  0  0  0  0
   -7.7019    3.9178  -19.2765 N   0  0  0  0  0  0  0  0  0  0  0  0
   -6.5042    4.3200  -19.8646 C   0  0  0  0  0  0  0  0  0  0  0  0
   -6.1448    4.0145  -20.9920 O   0  0  0  0  0  0  0  0  0  0  0  0
   -5.8131    5.2342  -18.8399 C   0  0  2  0  0  0  0  0  0  0  0  0
   -3.9390    4.9024  -18.7181 Br  0  0  0  0  0  0  0  0  0  0  0  0
  1  2  1  0
  2  3  2  0
  3  4  1  0
  4  5  1  0
  5  6  2  0
  5  7  1  0
  7  8  1  0
  8  9  2  0
  9 10  1  0
 10 11  2  0
 11 12  1  0
 12 13  2  0
 12 14  1  0
 14 15  1  0
 15 16  1  0
  4 17  2  0
 17 18  1  0
 18 19  2  0
 19 20  1  0
 20 21  1  0
 21 22  2  0
 21 23  1  0
 23 24  1  1
 19  2  1  0
 13  8  1  0
 23 18  1  0
 16 11  1  0
M  END
>  <smiles>  (1155) 
C18520-P178

>  <fragmenstein_outcome>  (1155) 
acceptable

>  <inchikey>  (1155) 
SHWUFEVHIVZGKD-UHFFFAOYSA-N

>  <fragmenstein_mode>  (1155) 
expansion

>  <HIPPO Pose ID>  (1155) 
20540

>  <Energy>  (1155) 
73.780696

>  <fragmenstein_error>  (1155) 


>  <tags>  (1155) 
{'openbind_xx01zvns2b_c1_fragmenstein', 'fragmenstein_placed'}

>  <ref_pdb>  (1155) 
175

>  <scratch_subdir>  (1155) 
/opt/xchem-fragalysis-2/maxwin/BulkDock/SCRATCH/511028/C18520-P178

>  <alias>  (1155) 
Nc1cc(C(=O)Nc2ccc3c(c2)CNC3)cc2c1NC(=O)[C@@H]2Br

>  <HIPPO Compound ID>  (1155) 
173

>  <fragmenstein_runtime>  (1155) 
2.195344

$$$$
Cc1cc2c(cc1C(=O)C(=O)c1cc(Cl)c3c(c1)[C@@H](O)C(=NCC(C)(C)N)N3)CNC2
     RDKit          3D

 31 34  0  0  0  0  0  0  0  0999 V2000
   -8.0985    6.7040  -11.4266 C   0  0  0  0  0  0  0  0  0  0  0  0
   -8.1692    5.3808  -10.7187 C   0  0  0  0  0  0  0  0  0  0  0  0
   -8.3365    5.4232   -9.3160 C   0  0  0  0  0  0  0  0  0  0  0  0
   -8.5414    4.2474   -8.6138 C   0  0  0  0  0  0  0  0  0  0  0  0
   -8.6028    3.0340   -9.2702 C   0  0  0  0  0  0  0  0  0  0  0  0
   -8.3608    2.9491  -10.6246 C   0  0  0  0  0  0  0  0  0  0  0  0
   -8.1003    4.1217  -11.3635 C   0  0  0  0  0  0  0  0  0  0  0  0
   -7.7837    3.8719  -12.7938 C   0  0  0  0  0  0  0  0  0  0  0  0
   -8.1025    2.8002  -13.2984 O   0  0  0  0  0  0  0  0  0  0  0  0
   -6.9859    4.8088  -13.6717 C   0  0  0  0  0  0  0  0  0  0  0  0
   -6.1752    5.5813  -13.1771 O   0  0  0  0  0  0  0  0  0  0  0  0
   -7.1236    4.7397  -15.1510 C   0  0  0  0  0  0  0  0  0  0  0  0
   -8.3145    4.3240  -15.7699 C   0  0  0  0  0  0  0  0  0  0  0  0
   -8.3810    4.2162  -17.1611 C   0  0  0  0  0  0  0  0  0  0  0  0
   -9.8410    3.7584  -17.9053 Cl  0  0  0  0  0  0  0  0  0  0  0  0
   -7.2737    4.5244  -17.9278 C   0  0  0  0  0  0  0  0  0  0  0  0
   -6.0993    4.9690  -17.3085 C   0  0  0  0  0  0  0  0  0  0  0  0
   -6.0119    5.0949  -15.9305 C   0  0  0  0  0  0  0  0  0  0  0  0
   -5.0627    5.2653  -18.3616 C   0  0  1  0  0  0  0  0  0  0  0  0
   -3.8538    4.6334  -18.0304 O   0  0  0  0  0  0  0  0  0  0  0  0
   -5.8329    4.8121  -19.6620 C   0  0  0  0  0  0  0  0  0  0  0  0
   -5.4173    4.8990  -20.8802 N   0  0  0  0  0  0  0  0  0  0  0  0
   -4.1079    5.5152  -21.1640 C   0  0  0  0  0  0  0  0  0  0  0  0
   -4.2882    6.8786  -21.8947 C   0  0  0  0  0  0  0  0  0  0  0  0
   -2.9695    7.2977  -22.5543 C   0  0  0  0  0  0  0  0  0  0  0  0
   -4.7397    7.9663  -20.9104 C   0  0  0  0  0  0  0  0  0  0  0  0
   -5.3271    6.7650  -22.9348 N   0  0  0  0  0  0  0  0  0  0  0  0
   -7.0810    4.3415  -19.3040 N   0  0  0  0  0  0  0  0  0  0  0  0
   -8.9773    1.9548   -8.3176 C   0  0  0  0  0  0  0  0  0  0  0  0
   -8.8796    2.5645   -6.9630 N   0  0  0  0  0  0  0  0  0  0  0  0
   -8.7806    4.0287   -7.1598 C   0  0  0  0  0  0  0  0  0  0  0  0
  1  2  1  0
  2  3  2  0
  3  4  1  0
  4  5  2  0
  5  6  1  0
  6  7  2  0
  7  8  1  0
  8  9  2  0
  8 10  1  0
 10 11  2  0
 10 12  1  0
 12 13  2  0
 13 14  1  0
 14 15  1  0
 14 16  2  0
 16 17  1  0
 17 18  2  0
 17 19  1  0
 19 20  1  1
 19 21  1  0
 21 22  2  3
 22 23  1  0
 23 24  1  0
 24 25  1  0
 24 26  1  0
 24 27  1  0
 21 28  1  0
  5 29  1  0
 29 30  1  0
 30 31  1  0
  7  2  1  0
 18 12  1  0
 31  4  1  0
 28 16  1  0
M  END
>  <smiles>  (1156) 
C18538-P178

>  <fragmenstein_outcome>  (1156) 
acceptable

>  <inchikey>  (1156) 
PPGXTQVKLVSAGH-UHFFFAOYSA-N

>  <fragmenstein_mode>  (1156) 
expansion

>  <HIPPO Pose ID>  (1156) 
20552

>  <Energy>  (1156) 
166.370497

>  <fragmenstein_error>  (1156) 


>  <tags>  (1156) 
{'openbind_xx01zvns2b_c1_fragmenstein', 'fragmenstein_placed'}

>  <ref_pdb>  (1156) 
175

>  <scratch_subdir>  (1156) 
/opt/xchem-fragalysis-2/maxwin/BulkDock/SCRATCH/511028/C18538-P178

>  <alias>  (1156) 
Cc1cc2c(cc1C(=O)C(=O)c1cc(Cl)c3c(c1)[C@@H](O)C(=NCC(C)(C)N)N3)CNC2

>  <HIPPO Compound ID>  (1156) 
18538

>  <fragmenstein_runtime>  (1156) 
5.205321

$$$$
NN1Cc2ccc(NC(=O)c3cc(Cl)c4c(c3)[C@@H](C(=O)OCc3ccccc3)C(=O)N4)cc2C1
     RDKit          3D

 34 38  0  0  0  0  0  0  0  0999 V2000
   -9.0842    2.0533   -6.3775 N   0  0  0  0  0  0  0  0  0  0  0  0
   -9.3759    2.8128   -7.5600 N   0  0  0  0  0  0  0  0  0  0  0  0
   -8.6486    4.1066   -7.5362 C   0  0  0  0  0  0  0  0  0  0  0  0
   -8.3117    4.3741   -8.9671 C   0  0  0  0  0  0  0  0  0  0  0  0
   -7.8746    5.5421   -9.5614 C   0  0  0  0  0  0  0  0  0  0  0  0
   -7.5965    5.5218  -10.9312 C   0  0  0  0  0  0  0  0  0  0  0  0
   -7.7503    4.3442  -11.6784 C   0  0  0  0  0  0  0  0  0  0  0  0
   -7.5021    4.3169  -13.0484 N   0  0  0  0  0  0  0  0  0  0  0  0
   -6.9799    5.4238  -13.9990 C   0  0  0  0  0  0  0  0  0  0  0  0
   -6.6042    6.5057  -13.7673 O   0  0  0  0  0  0  0  0  0  0  0  0
   -7.0957    4.9975  -15.4195 C   0  0  0  0  0  0  0  0  0  0  0  0
   -8.3116    4.4344  -15.8493 C   0  0  0  0  0  0  0  0  0  0  0  0
   -8.4811    4.1206  -17.1879 C   0  0  0  0  0  0  0  0  0  0  0  0
   -9.9797    3.6123  -17.7845 Cl  0  0  0  0  0  0  0  0  0  0  0  0
   -7.4417    4.3393  -18.0597 C   0  0  0  0  0  0  0  0  0  0  0  0
   -6.2612    4.9572  -17.6683 C   0  0  0  0  0  0  0  0  0  0  0  0
   -6.0711    5.2983  -16.3359 C   0  0  0  0  0  0  0  0  0  0  0  0
   -5.4432    5.2307  -18.9136 C   0  0  1  0  0  0  0  0  0  0  0  0
   -3.9753    4.9499  -18.8374 C   0  0  0  0  0  0  0  0  0  0  0  0
   -3.3775    4.5600  -17.8421 O   0  0  0  0  0  0  0  0  0  0  0  0
   -3.3839    5.2852  -20.0164 O   0  0  0  0  0  0  0  0  0  0  0  0
   -1.9594    5.1502  -20.0691 C   0  0  0  0  0  0  0  0  0  0  0  0
   -1.3262    6.4704  -19.7095 C   0  0  0  0  0  0  0  0  0  0  0  0
   -1.2935    7.5191  -20.6393 C   0  0  0  0  0  0  0  0  0  0  0  0
   -0.7285    8.7491  -20.2990 C   0  0  0  0  0  0  0  0  0  0  0  0
   -0.1987    8.9446  -19.0245 C   0  0  0  0  0  0  0  0  0  0  0  0
   -0.2356    7.9119  -18.0890 C   0  0  0  0  0  0  0  0  0  0  0  0
   -0.7989    6.6811  -18.4285 C   0  0  0  0  0  0  0  0  0  0  0  0
   -6.2034    4.4236  -19.9810 C   0  0  0  0  0  0  0  0  0  0  0  0
   -5.8858    4.1755  -21.1337 O   0  0  0  0  0  0  0  0  0  0  0  0
   -7.3983    4.0195  -19.4063 N   0  0  0  0  0  0  0  0  0  0  0  0
   -8.1954    3.1691  -11.0615 C   0  0  0  0  0  0  0  0  0  0  0  0
   -8.4736    3.2040   -9.7059 C   0  0  0  0  0  0  0  0  0  0  0  0
   -8.9435    2.1074   -8.8021 C   0  0  0  0  0  0  0  0  0  0  0  0
  1  2  1  0
  2  3  1  0
  3  4  1  0
  4  5  2  0
  5  6  1  0
  6  7  2  0
  7  8  1  0
  8  9  1  0
  9 10  2  0
  9 11  1  0
 11 12  2  0
 12 13  1  0
 13 14  1  0
 13 15  2  0
 15 16  1  0
 16 17  2  0
 16 18  1  0
 18 19  1  1
 19 20  2  0
 19 21  1  0
 21 22  1  0
 22 23  1  0
 23 24  2  0
 24 25  1  0
 25 26  2  0
 26 27  1  0
 27 28  2  0
 18 29  1  0
 29 30  2  0
 29 31  1  0
  7 32  1  0
 32 33  2  0
 33 34  1  0
 34  2  1  0
 33  4  1  0
 17 11  1  0
 28 23  1  0
 31 15  1  0
M  END
>  <smiles>  (1157) 
C18544-P178

>  <fragmenstein_outcome>  (1157) 
acceptable

>  <inchikey>  (1157) 
VALBWZNNVWWFQQ-UHFFFAOYSA-N

>  <fragmenstein_mode>  (1157) 
expansion

>  <HIPPO Pose ID>  (1157) 
20555

>  <Energy>  (1157) 
133.974155

>  <fragmenstein_error>  (1157) 


>  <tags>  (1157) 
{'openbind_xx01zvns2b_c1_fragmenstein', 'fragmenstein_placed'}

>  <ref_pdb>  (1157) 
175

>  <scratch_subdir>  (1157) 
/opt/xchem-fragalysis-2/maxwin/BulkDock/SCRATCH/511028/C18544-P178

>  <alias>  (1157) 
NN1Cc2ccc(NC(=O)c3cc(Cl)c4c(c3)[C@@H](C(=O)OCc3ccccc3)C(=O)N4)cc2C1

>  <HIPPO Compound ID>  (1157) 
18544

>  <fragmenstein_runtime>  (1157) 
13.021225

$$$$
O=C1Cc2c(c(Cl)cc(C(=O)Nc3ccc4c(c3)CNC4)c2NC(=O)OCc2ccccc2)N1
     RDKit          3D

 34 38  0  0  0  0  0  0  0  0999 V2000
   -5.9828    4.0753  -21.1158 O   0  0  0  0  0  0  0  0  0  0  0  0
   -6.2743    4.2716  -19.9465 C   0  0  0  0  0  0  0  0  0  0  0  0
   -5.3807    4.8367  -18.8359 C   0  0  0  0  0  0  0  0  0  0  0  0
   -6.2529    4.7629  -17.6087 C   0  0  0  0  0  0  0  0  0  0  0  0
   -7.5044    4.2930  -18.0236 C   0  0  0  0  0  0  0  0  0  0  0  0
   -8.5831    4.1733  -17.1778 C   0  0  0  0  0  0  0  0  0  0  0  0
  -10.1164    3.8005  -17.8071 Cl  0  0  0  0  0  0  0  0  0  0  0  0
   -8.4071    4.4627  -15.8362 C   0  0  0  0  0  0  0  0  0  0  0  0
   -7.1517    4.9121  -15.3809 C   0  0  0  0  0  0  0  0  0  0  0  0
   -7.0629    5.3199  -13.9436 C   0  0  0  0  0  0  0  0  0  0  0  0
   -6.5991    6.3667  -13.7054 O   0  0  0  0  0  0  0  0  0  0  0  0
   -7.6531    4.2426  -12.9961 N   0  0  0  0  0  0  0  0  0  0  0  0
   -7.8735    4.2701  -11.6178 C   0  0  0  0  0  0  0  0  0  0  0  0
   -7.6609    5.4406  -10.8733 C   0  0  0  0  0  0  0  0  0  0  0  0
   -7.8769    5.4624   -9.4907 C   0  0  0  0  0  0  0  0  0  0  0  0
   -8.2904    4.2979   -8.8715 C   0  0  0  0  0  0  0  0  0  0  0  0
   -8.5120    3.1395   -9.6038 C   0  0  0  0  0  0  0  0  0  0  0  0
   -8.3198    3.1081  -10.9783 C   0  0  0  0  0  0  0  0  0  0  0  0
   -8.9722    2.0571   -8.6873 C   0  0  0  0  0  0  0  0  0  0  0  0
   -8.8361    2.5933   -7.3045 N   0  0  0  0  0  0  0  0  0  0  0  0
   -8.5820    4.0441   -7.4334 C   0  0  0  0  0  0  0  0  0  0  0  0
   -6.0524    5.1003  -16.2724 C   0  0  0  0  0  0  0  0  0  0  0  0
   -4.8669    5.6286  -15.7372 N   0  0  0  0  0  0  0  0  0  0  0  0
   -3.4924    5.8330  -16.3752 C   0  0  0  0  0  0  0  0  0  0  0  0
   -3.1373    5.6687  -17.4699 O   0  0  0  0  0  0  0  0  0  0  0  0
   -2.7030    6.2972  -15.3695 O   0  0  0  0  0  0  0  0  0  0  0  0
   -1.3518    6.6102  -15.7260 C   0  0  0  0  0  0  0  0  0  0  0  0
   -1.2388    8.0753  -16.0589 C   0  0  0  0  0  0  0  0  0  0  0  0
   -1.1891    9.0341  -15.0375 C   0  0  0  0  0  0  0  0  0  0  0  0
   -1.0997   10.3924  -15.3463 C   0  0  0  0  0  0  0  0  0  0  0  0
   -1.0675   10.8051  -16.6771 C   0  0  0  0  0  0  0  0  0  0  0  0
   -1.1308    9.8612  -17.7006 C   0  0  0  0  0  0  0  0  0  0  0  0
   -1.2204    8.5026  -17.3937 C   0  0  0  0  0  0  0  0  0  0  0  0
   -7.4991    3.9981  -19.3779 N   0  0  0  0  0  0  0  0  0  0  0  0
  1  2  2  0
  2  3  1  0
  3  4  1  0
  4  5  2  0
  5  6  1  0
  6  7  1  0
  6  8  2  0
  8  9  1  0
  9 10  1  0
 10 11  2  0
 10 12  1  0
 12 13  1  0
 13 14  2  0
 14 15  1  0
 15 16  2  0
 16 17  1  0
 17 18  2  0
 17 19  1  0
 19 20  1  0
 20 21  1  0
  9 22  2  0
 22 23  1  0
 23 24  1  0
 24 25  2  0
 24 26  1  0
 26 27  1  0
 27 28  1  0
 28 29  2  0
 29 30  1  0
 30 31  2  0
 31 32  1  0
 32 33  2  0
  5 34  1  0
 34  2  1  0
 22  4  1  0
 33 28  1  0
 18 13  1  0
 21 16  1  0
M  END
>  <smiles>  (1158) 
C18545-P178

>  <fragmenstein_outcome>  (1158) 
acceptable

>  <inchikey>  (1158) 
FVDADDPUPURNJU-UHFFFAOYSA-N

>  <fragmenstein_mode>  (1158) 
expansion

>  <HIPPO Pose ID>  (1158) 
20556

>  <Energy>  (1158) 
36.590109

>  <fragmenstein_error>  (1158) 


>  <tags>  (1158) 
{'openbind_xx01zvns2b_c1_fragmenstein', 'fragmenstein_placed'}

>  <ref_pdb>  (1158) 
175

>  <scratch_subdir>  (1158) 
/opt/xchem-fragalysis-2/maxwin/BulkDock/SCRATCH/511028/C18545-P178

>  <alias>  (1158) 
O=C1Cc2c(c(Cl)cc(C(=O)Nc3ccc4c(c3)CNC4)c2NC(=O)OCc2ccccc2)N1

>  <HIPPO Compound ID>  (1158) 
18545

>  <fragmenstein_runtime>  (1158) 
4.409705

$$$$
N[C@H]1C(=O)Nc2c(Cl)cc(C(=O)N[C@H]3CC4=C(CNC4)C4(C3)NNNN4)cc21
     RDKit          3D

 28 32  0  0  0  0  0  0  0  0999 V2000
   -4.0759    4.8617  -18.6288 N   0  0  0  0  0  0  0  0  0  0  0  0
   -5.4740    5.2551  -18.7769 C   0  0  1  0  0  0  0  0  0  0  0  0
   -6.2140    4.4656  -19.9067 C   0  0  0  0  0  0  0  0  0  0  0  0
   -5.8246    4.2318  -21.0412 O   0  0  0  0  0  0  0  0  0  0  0  0
   -7.4315    4.0677  -19.3768 N   0  0  0  0  0  0  0  0  0  0  0  0
   -7.5129    4.3695  -18.0246 C   0  0  0  0  0  0  0  0  0  0  0  0
   -8.5869    4.1669  -17.1908 C   0  0  0  0  0  0  0  0  0  0  0  0
  -10.1045    3.7893  -17.8502 Cl  0  0  0  0  0  0  0  0  0  0  0  0
   -8.4458    4.4424  -15.8378 C   0  0  0  0  0  0  0  0  0  0  0  0
   -7.2351    4.9722  -15.3530 C   0  0  0  0  0  0  0  0  0  0  0  0
   -7.1818    5.4234  -13.9321 C   0  0  0  0  0  0  0  0  0  0  0  0
   -6.7698    6.4919  -13.7110 O   0  0  0  0  0  0  0  0  0  0  0  0
   -7.8031    4.3745  -12.9845 N   0  0  0  0  0  0  0  0  0  0  0  0
   -8.1381    4.4585  -11.5683 C   0  0  1  0  0  0  0  0  0  0  0  0
   -8.3475    3.0575  -10.9456 C   0  0  0  0  0  0  0  0  0  0  0  0
   -8.4770    3.1490   -9.4649 C   0  0  0  0  0  0  0  0  0  0  0  0
   -8.1806    4.2343   -8.7422 C   0  0  0  0  0  0  0  0  0  0  0  0
   -8.5190    4.0036   -7.3175 C   0  0  0  0  0  0  0  0  0  0  0  0
   -8.9118    2.5778   -7.2154 N   0  0  0  0  0  0  0  0  0  0  0  0
   -8.9987    2.0639   -8.6022 C   0  0  0  0  0  0  0  0  0  0  0  0
   -7.6151    5.5082   -9.2935 C   0  0  0  0  0  0  0  0  0  0  0  0
   -7.1191    5.2621  -10.7482 C   0  0  0  0  0  0  0  0  0  0  0  0
   -8.6184    6.5826   -9.2632 N   0  0  0  0  0  0  0  0  0  0  0  0
   -8.3707    7.2693   -8.0366 N   0  0  0  0  0  0  0  0  0  0  0  0
   -6.9797    7.2202   -7.8287 N   0  0  0  0  0  0  0  0  0  0  0  0
   -6.4975    6.0220   -8.4751 N   0  0  0  0  0  0  0  0  0  0  0  0
   -6.1767    5.2665  -16.2326 C   0  0  0  0  0  0  0  0  0  0  0  0
   -6.3345    4.9593  -17.5782 C   0  0  0  0  0  0  0  0  0  0  0  0
  2  1  1  1
  2  3  1  0
  3  4  2  0
  3  5  1  0
  5  6  1  0
  6  7  2  0
  7  8  1  0
  7  9  1  0
  9 10  2  0
 10 11  1  0
 11 12  2  0
 11 13  1  0
 14 13  1  6
 14 15  1  0
 15 16  1  0
 16 17  2  0
 17 18  1  0
 18 19  1  0
 19 20  1  0
 17 21  1  0
 21 22  1  0
 21 23  1  0
 23 24  1  0
 24 25  1  0
 25 26  1  0
 10 27  1  0
 27 28  2  0
 28  2  1  0
 28  6  1  0
 22 14  1  0
 20 16  1  0
 26 21  1  0
M  END
>  <smiles>  (1159) 
C18549-P178

>  <fragmenstein_outcome>  (1159) 
acceptable

>  <inchikey>  (1159) 
CHDXHRSTAOAQQE-UHFFFAOYSA-N

>  <fragmenstein_mode>  (1159) 
expansion

>  <HIPPO Pose ID>  (1159) 
20557

>  <Energy>  (1159) 
65.144912

>  <fragmenstein_error>  (1159) 


>  <tags>  (1159) 
{'openbind_xx01zvns2b_c1_fragmenstein', 'fragmenstein_placed'}

>  <ref_pdb>  (1159) 
175

>  <scratch_subdir>  (1159) 
/opt/xchem-fragalysis-2/maxwin/BulkDock/SCRATCH/511028/C18549-P178

>  <alias>  (1159) 
N[C@H]1C(=O)Nc2c(Cl)cc(C(=O)N[C@H]3CC4=C(CNC4)C4(C3)NNNN4)cc21

>  <HIPPO Compound ID>  (1159) 
18549

>  <fragmenstein_runtime>  (1159) 
6.681556

$$$$
O=C1CC2=C(N1)[C@H](Cl)C[C@H]([C@](O)(Nc1ccc3c(c1)CNC3)C(=O)NCC(F)F)C2
     RDKit          3D

 30 33  0  0  0  0  0  0  0  0999 V2000
   -6.0419    4.0510  -21.0126 O   0  0  0  0  0  0  0  0  0  0  0  0
   -6.3751    4.2382  -19.8521 C   0  0  0  0  0  0  0  0  0  0  0  0
   -5.5619    4.9183  -18.7457 C   0  0  0  0  0  0  0  0  0  0  0  0
   -6.4997    4.7505  -17.5778 C   0  0  0  0  0  0  0  0  0  0  0  0
   -7.6298    4.1549  -17.9637 C   0  0  0  0  0  0  0  0  0  0  0  0
   -7.5723    3.8450  -19.2869 N   0  0  0  0  0  0  0  0  0  0  0  0
   -8.7893    3.8593  -17.0852 C   0  0  2  0  0  0  0  0  0  0  0  0
  -10.2774    4.2454  -17.9511 Cl  0  0  0  0  0  0  0  0  0  0  0  0
   -8.6950    4.6137  -15.7436 C   0  0  0  0  0  0  0  0  0  0  0  0
   -7.2620    4.5584  -15.1708 C   0  0  2  0  0  0  0  0  0  0  0  0
   -7.1030    5.0650  -13.6989 C   0  0  2  0  0  0  0  0  0  0  0  0
   -5.7802    4.7264  -13.3311 O   0  0  0  0  0  0  0  0  0  0  0  0
   -8.0202    4.2768  -12.8404 N   0  0  0  0  0  0  0  0  0  0  0  0
   -7.9802    4.2583  -11.4355 C   0  0  0  0  0  0  0  0  0  0  0  0
   -7.5630    5.3512  -10.6507 C   0  0  0  0  0  0  0  0  0  0  0  0
   -7.6810    5.3538   -9.2556 C   0  0  0  0  0  0  0  0  0  0  0  0
   -8.2102    4.2411   -8.6411 C   0  0  0  0  0  0  0  0  0  0  0  0
   -8.6227    3.1491   -9.3873 C   0  0  0  0  0  0  0  0  0  0  0  0
   -8.5380    3.1511  -10.7720 C   0  0  0  0  0  0  0  0  0  0  0  0
   -9.1918    2.1202   -8.4716 C   0  0  0  0  0  0  0  0  0  0  0  0
   -8.8411    2.5611   -7.0937 N   0  0  0  0  0  0  0  0  0  0  0  0
   -8.4963    3.9959   -7.2011 C   0  0  0  0  0  0  0  0  0  0  0  0
   -7.3965    6.6468  -13.6362 C   0  0  0  0  0  0  0  0  0  0  0  0
   -6.6035    7.4391  -13.9705 O   0  0  0  0  0  0  0  0  0  0  0  0
   -8.8457    6.8345  -13.1072 N   0  0  0  0  0  0  0  0  0  0  0  0
   -9.5843    8.0441  -12.7899 C   0  0  0  0  0  0  0  0  0  0  0  0
   -9.3068    8.6118  -11.3965 C   0  0  0  0  0  0  0  0  0  0  0  0
   -9.6179    7.7106  -10.4362 F   0  0  0  0  0  0  0  0  0  0  0  0
   -7.9881    8.8987  -11.2513 F   0  0  0  0  0  0  0  0  0  0  0  0
   -6.2187    5.1548  -16.1652 C   0  0  0  0  0  0  0  0  0  0  0  0
  1  2  2  0
  2  3  1  0
  3  4  1  0
  4  5  2  0
  5  6  1  0
  5  7  1  0
  7  8  1  6
  7  9  1  0
 10  9  1  6
 10 11  1  0
 11 12  1  1
 11 13  1  0
 13 14  1  0
 14 15  2  0
 15 16  1  0
 16 17  2  0
 17 18  1  0
 18 19  2  0
 18 20  1  0
 20 21  1  0
 21 22  1  0
 11 23  1  0
 23 24  2  0
 23 25  1  0
 25 26  1  0
 26 27  1  0
 27 28  1  0
 27 29  1  0
 10 30  1  0
  6  2  1  0
 19 14  1  0
 30  4  1  0
 22 17  1  0
M  END
>  <smiles>  (1160) 
C18554-P178

>  <fragmenstein_outcome>  (1160) 
acceptable

>  <inchikey>  (1160) 
RMMPDFXJAHFBQE-UHFFFAOYSA-N

>  <fragmenstein_mode>  (1160) 
expansion

>  <HIPPO Pose ID>  (1160) 
20559

>  <Energy>  (1160) 
106.07436

>  <fragmenstein_error>  (1160) 


>  <tags>  (1160) 
{'openbind_xx01zvns2b_c1_fragmenstein', 'fragmenstein_placed'}

>  <ref_pdb>  (1160) 
175

>  <scratch_subdir>  (1160) 
/opt/xchem-fragalysis-2/maxwin/BulkDock/SCRATCH/511028/C18554-P178

>  <alias>  (1160) 
O=C1CC2=C(N1)[C@H](Cl)C[C@H]([C@](O)(Nc1ccc3c(c1)CNC3)C(=O)NCC(F)F)C2

>  <HIPPO Compound ID>  (1160) 
21705

>  <fragmenstein_runtime>  (1160) 
2.961155

$$$$
O=C1N=c2c(F)cc(C(=O)Nc3ccc4c(c3)CNC4)c3c2=C1N=N3
     RDKit          3D

 25 29  0  0  0  0  0  0  0  0999 V2000
   -5.4465    4.4440  -20.7186 O   0  0  0  0  0  0  0  0  0  0  0  0
   -6.0703    4.4203  -19.6718 C   0  0  0  0  0  0  0  0  0  0  0  0
   -7.3674    3.8715  -19.4915 N   0  0  0  0  0  0  0  0  0  0  0  0
   -7.6666    4.0571  -18.2515 C   0  0  0  0  0  0  0  0  0  0  0  0
   -8.7555    3.8340  -17.2770 C   0  0  0  0  0  0  0  0  0  0  0  0
   -9.8899    3.2825  -17.7299 F   0  0  0  0  0  0  0  0  0  0  0  0
   -8.5836    4.1924  -15.9789 C   0  0  0  0  0  0  0  0  0  0  0  0
   -7.3281    4.8159  -15.4394 C   0  0  0  0  0  0  0  0  0  0  0  0
   -7.2592    5.3517  -14.0438 C   0  0  0  0  0  0  0  0  0  0  0  0
   -6.9011    6.4458  -13.8396 O   0  0  0  0  0  0  0  0  0  0  0  0
   -7.8175    4.2756  -13.0693 N   0  0  0  0  0  0  0  0  0  0  0  0
   -7.9546    4.2947  -11.6790 C   0  0  0  0  0  0  0  0  0  0  0  0
   -7.7437    5.4701  -10.9428 C   0  0  0  0  0  0  0  0  0  0  0  0
   -7.9150    5.4876   -9.5533 C   0  0  0  0  0  0  0  0  0  0  0  0
   -8.2911    4.3171   -8.9202 C   0  0  0  0  0  0  0  0  0  0  0  0
   -8.5079    3.1529   -9.6434 C   0  0  0  0  0  0  0  0  0  0  0  0
   -8.3481    3.1223  -11.0221 C   0  0  0  0  0  0  0  0  0  0  0  0
   -8.9393    2.0672   -8.7166 C   0  0  0  0  0  0  0  0  0  0  0  0
   -8.8116    2.6163   -7.3385 N   0  0  0  0  0  0  0  0  0  0  0  0
   -8.5531    4.0655   -7.4760 C   0  0  0  0  0  0  0  0  0  0  0  0
   -6.3239    5.0378  -16.3020 C   0  0  0  0  0  0  0  0  0  0  0  0
   -6.5855    4.6648  -17.6017 C   0  0  0  0  0  0  0  0  0  0  0  0
   -5.5844    4.9303  -18.3741 C   0  0  0  0  0  0  0  0  0  0  0  0
   -4.5890    5.4878  -17.6205 N   0  0  0  0  0  0  0  0  0  0  0  0
   -5.0373    5.5672  -16.3799 N   0  0  0  0  0  0  0  0  0  0  0  0
  1  2  2  0
  2  3  1  0
  3  4  2  0
  4  5  1  0
  5  6  1  0
  5  7  2  0
  7  8  1  0
  8  9  1  0
  9 10  2  0
  9 11  1  0
 11 12  1  0
 12 13  2  0
 13 14  1  0
 14 15  2  0
 15 16  1  0
 16 17  2  0
 16 18  1  0
 18 19  1  0
 19 20  1  0
  8 21  2  0
 21 22  1  0
 22 23  2  0
 23 24  1  0
 24 25  2  0
 23  2  1  0
 22  4  1  0
 17 12  1  0
 25 21  1  0
 20 15  1  0
M  END
>  <smiles>  (1161) 
C18556-P178

>  <fragmenstein_outcome>  (1161) 
acceptable

>  <inchikey>  (1161) 
JQWPJPZDMYTZQU-UHFFFAOYSA-N

>  <fragmenstein_mode>  (1161) 
expansion

>  <HIPPO Pose ID>  (1161) 
20560

>  <Energy>  (1161) 
100.012108

>  <fragmenstein_error>  (1161) 


>  <tags>  (1161) 
{'openbind_xx01zvns2b_c1_fragmenstein', 'fragmenstein_placed'}

>  <ref_pdb>  (1161) 
175

>  <scratch_subdir>  (1161) 
/opt/xchem-fragalysis-2/maxwin/BulkDock/SCRATCH/511028/C18556-P178

>  <alias>  (1161) 
O=C1N=c2c(F)cc(C(=O)Nc3ccc4c(c3)CNC4)c3c2=C1N=N3

>  <HIPPO Compound ID>  (1161) 
18556

>  <fragmenstein_runtime>  (1161) 
2.983805

$$$$
CC(=O)[C@H]1C(=O)Nc2ccc(C(=O)Nc3ccc4c(c3)CNC4)cc21
     RDKit          3D

 25 28  0  0  0  0  0  0  0  0999 V2000
   -3.7203    5.4376  -16.7908 C   0  0  0  0  0  0  0  0  0  0  0  0
   -4.2432    4.9800  -18.1336 C   0  0  0  0  0  0  0  0  0  0  0  0
   -3.4415    4.4668  -18.9184 O   0  0  0  0  0  0  0  0  0  0  0  0
   -5.6956    5.2511  -18.4839 C   0  0  1  0  0  0  0  0  0  0  0  0
   -6.2659    4.4451  -19.6792 C   0  0  0  0  0  0  0  0  0  0  0  0
   -5.8133    4.3261  -20.8070 O   0  0  0  0  0  0  0  0  0  0  0  0
   -7.4653    3.8738  -19.2601 N   0  0  0  0  0  0  0  0  0  0  0  0
   -7.7113    4.1370  -17.9283 C   0  0  0  0  0  0  0  0  0  0  0  0
   -8.7896    3.7094  -17.1877 C   0  0  0  0  0  0  0  0  0  0  0  0
   -8.8212    4.0619  -15.8365 C   0  0  0  0  0  0  0  0  0  0  0  0
   -7.8163    4.8682  -15.2800 C   0  0  0  0  0  0  0  0  0  0  0  0
   -7.8740    5.3505  -13.8714 C   0  0  0  0  0  0  0  0  0  0  0  0
   -7.6258    6.4740  -13.6695 O   0  0  0  0  0  0  0  0  0  0  0  0
   -8.2495    4.2157  -12.8916 N   0  0  0  0  0  0  0  0  0  0  0  0
   -8.3038    4.2030  -11.4985 C   0  0  0  0  0  0  0  0  0  0  0  0
   -8.1232    5.3771  -10.7498 C   0  0  0  0  0  0  0  0  0  0  0  0
   -8.2190    5.3584   -9.3538 C   0  0  0  0  0  0  0  0  0  0  0  0
   -8.5144    4.1582   -8.7349 C   0  0  0  0  0  0  0  0  0  0  0  0
   -8.6800    2.9912   -9.4733 C   0  0  0  0  0  0  0  0  0  0  0  0
   -8.5642    2.9911  -10.8528 C   0  0  0  0  0  0  0  0  0  0  0  0
   -8.9827    1.8625   -8.5442 C   0  0  0  0  0  0  0  0  0  0  0  0
   -9.3475    2.5112   -7.2551 N   0  0  0  0  0  0  0  0  0  0  0  0
   -8.7112    3.8472   -7.2895 C   0  0  0  0  0  0  0  0  0  0  0  0
   -6.7585    5.3242  -16.0736 C   0  0  0  0  0  0  0  0  0  0  0  0
   -6.6924    4.9207  -17.3964 C   0  0  0  0  0  0  0  0  0  0  0  0
  1  2  1  0
  2  3  2  0
  4  2  1  1
  4  5  1  0
  5  6  2  0
  5  7  1  0
  7  8  1  0
  8  9  2  0
  9 10  1  0
 10 11  2  0
 11 12  1  0
 12 13  2  0
 12 14  1  0
 14 15  1  0
 15 16  2  0
 16 17  1  0
 17 18  2  0
 18 19  1  0
 19 20  2  0
 19 21  1  0
 21 22  1  0
 22 23  1  0
 11 24  1  0
 24 25  2  0
 25  4  1  0
 25  8  1  0
 20 15  1  0
 23 18  1  0
M  END
>  <smiles>  (1162) 
C18560-P178

>  <fragmenstein_outcome>  (1162) 
acceptable

>  <inchikey>  (1162) 
MPNRWBNVZAZJTH-UHFFFAOYSA-N

>  <fragmenstein_mode>  (1162) 
expansion

>  <HIPPO Pose ID>  (1162) 
20563

>  <Energy>  (1162) 
55.128549

>  <fragmenstein_error>  (1162) 


>  <tags>  (1162) 
{'openbind_xx01zvns2b_c1_fragmenstein', 'fragmenstein_placed'}

>  <ref_pdb>  (1162) 
175

>  <scratch_subdir>  (1162) 
/opt/xchem-fragalysis-2/maxwin/BulkDock/SCRATCH/511028/C18560-P178

>  <alias>  (1162) 
CC(=O)[C@H]1C(=O)Nc2ccc(C(=O)Nc3ccc4c(c3)CNC4)cc21

>  <HIPPO Compound ID>  (1162) 
18560

>  <fragmenstein_runtime>  (1162) 
5.119861

$$$$
O=C1N=c2c(C(=O)Nc3ccc4c(c3)CNC4)cc(Br)c3c2=C1C(=O)N3
     RDKit          3D

 26 30  0  0  0  0  0  0  0  0999 V2000
   -3.1180    5.3512  -17.6405 O   0  0  0  0  0  0  0  0  0  0  0  0
   -4.2755    5.1572  -17.3237 C   0  0  0  0  0  0  0  0  0  0  0  0
   -4.7903    5.2408  -16.0073 N   0  0  0  0  0  0  0  0  0  0  0  0
   -6.0386    4.9194  -16.0841 C   0  0  0  0  0  0  0  0  0  0  0  0
   -7.2239    4.8061  -15.1908 C   0  0  0  0  0  0  0  0  0  0  0  0
   -7.2267    5.3076  -13.7907 C   0  0  0  0  0  0  0  0  0  0  0  0
   -6.9069    6.4054  -13.5505 O   0  0  0  0  0  0  0  0  0  0  0  0
   -7.7932    4.1993  -12.8635 N   0  0  0  0  0  0  0  0  0  0  0  0
   -7.9861    4.1853  -11.4824 C   0  0  0  0  0  0  0  0  0  0  0  0
   -7.8432    5.3524  -10.7153 C   0  0  0  0  0  0  0  0  0  0  0  0
   -8.0718    5.3351   -9.3345 C   0  0  0  0  0  0  0  0  0  0  0  0
   -8.4502    4.1419   -8.7482 C   0  0  0  0  0  0  0  0  0  0  0  0
   -8.5889    2.9834   -9.5049 C   0  0  0  0  0  0  0  0  0  0  0  0
   -8.3592    2.9844  -10.8709 C   0  0  0  0  0  0  0  0  0  0  0  0
   -8.9746    1.8557   -8.6051 C   0  0  0  0  0  0  0  0  0  0  0  0
   -9.4026    2.5002   -7.3340 N   0  0  0  0  0  0  0  0  0  0  0  0
   -8.7459    3.8265   -7.3205 C   0  0  0  0  0  0  0  0  0  0  0  0
   -8.4244    4.4816  -15.7546 C   0  0  0  0  0  0  0  0  0  0  0  0
   -8.6253    4.2369  -17.2007 C   0  0  0  0  0  0  0  0  0  0  0  0
  -10.3125    4.1019  -17.8924 Br  0  0  0  0  0  0  0  0  0  0  0  0
   -7.5681    4.3007  -18.0000 C   0  0  0  0  0  0  0  0  0  0  0  0
   -6.3540    4.6042  -17.4273 C   0  0  0  0  0  0  0  0  0  0  0  0
   -5.3426    4.7903  -18.2326 C   0  0  0  0  0  0  0  0  0  0  0  0
   -5.9211    4.5345  -19.5553 C   0  0  0  0  0  0  0  0  0  0  0  0
   -5.3716    4.5680  -20.6379 O   0  0  0  0  0  0  0  0  0  0  0  0
   -7.2889    4.2425  -19.3258 N   0  0  0  0  0  0  0  0  0  0  0  0
  1  2  2  0
  2  3  1  0
  3  4  2  0
  4  5  1  0
  5  6  1  0
  6  7  2  0
  6  8  1  0
  8  9  1  0
  9 10  2  0
 10 11  1  0
 11 12  2  0
 12 13  1  0
 13 14  2  0
 13 15  1  0
 15 16  1  0
 16 17  1  0
  5 18  2  0
 18 19  1  0
 19 20  1  0
 19 21  2  0
 21 22  1  0
 22 23  2  0
 23 24  1  0
 24 25  2  0
 24 26  1  0
 23  2  1  0
 22  4  1  0
 14  9  1  0
 26 21  1  0
 17 12  1  0
M  END
>  <smiles>  (1163) 
C18561-P178

>  <fragmenstein_outcome>  (1163) 
acceptable

>  <inchikey>  (1163) 
KKMVIZRGNUNJGH-UHFFFAOYSA-N

>  <fragmenstein_mode>  (1163) 
expansion

>  <HIPPO Pose ID>  (1163) 
20564

>  <Energy>  (1163) 
33.107437

>  <fragmenstein_error>  (1163) 


>  <tags>  (1163) 
{'openbind_xx01zvns2b_c1_fragmenstein', 'fragmenstein_placed'}

>  <ref_pdb>  (1163) 
175

>  <scratch_subdir>  (1163) 
/opt/xchem-fragalysis-2/maxwin/BulkDock/SCRATCH/511028/C18561-P178

>  <alias>  (1163) 
O=C1N=c2c(C(=O)Nc3ccc4c(c3)CNC4)cc(Br)c3c2=C1C(=O)N3

>  <HIPPO Compound ID>  (1163) 
29218

>  <fragmenstein_runtime>  (1163) 
2.294659

$$$$
O=C1N=c2ccc(C(=O)Nc3ccc4c(c3)CNC4)c3c2=C1C(C(F)(F)F)=N3
     RDKit          3D

 28 32  0  0  0  0  0  0  0  0999 V2000
   -5.5047    4.4023  -20.5170 O   0  0  0  0  0  0  0  0  0  0  0  0
   -6.2004    4.3548  -19.5184 C   0  0  0  0  0  0  0  0  0  0  0  0
   -7.5033    3.8275  -19.4235 N   0  0  0  0  0  0  0  0  0  0  0  0
   -7.8659    3.9865  -18.1963 C   0  0  0  0  0  0  0  0  0  0  0  0
   -9.0444    3.7023  -17.3501 C   0  0  0  0  0  0  0  0  0  0  0  0
   -8.9764    4.0183  -16.0275 C   0  0  0  0  0  0  0  0  0  0  0  0
   -7.8308    4.6940  -15.3756 C   0  0  0  0  0  0  0  0  0  0  0  0
   -7.8765    5.2771  -14.0034 C   0  0  0  0  0  0  0  0  0  0  0  0
   -7.7400    6.4248  -13.8345 O   0  0  0  0  0  0  0  0  0  0  0  0
   -8.0613    4.1274  -12.9827 N   0  0  0  0  0  0  0  0  0  0  0  0
   -8.2063    4.1620  -11.5965 C   0  0  0  0  0  0  0  0  0  0  0  0
   -8.0972    5.3686  -10.8863 C   0  0  0  0  0  0  0  0  0  0  0  0
   -8.2208    5.3954   -9.4929 C   0  0  0  0  0  0  0  0  0  0  0  0
   -8.4702    4.2060   -8.8335 C   0  0  0  0  0  0  0  0  0  0  0  0
   -8.5970    3.0149   -9.5340 C   0  0  0  0  0  0  0  0  0  0  0  0
   -8.4526    2.9696  -10.9124 C   0  0  0  0  0  0  0  0  0  0  0  0
   -8.9228    1.9112   -8.5882 C   0  0  0  0  0  0  0  0  0  0  0  0
   -8.8577    2.4962   -7.2205 N   0  0  0  0  0  0  0  0  0  0  0  0
   -8.6716    3.9549   -7.3803 C   0  0  0  0  0  0  0  0  0  0  0  0
   -6.7432    4.9216  -16.1136 C   0  0  0  0  0  0  0  0  0  0  0  0
   -6.8211    4.5695  -17.4491 C   0  0  0  0  0  0  0  0  0  0  0  0
   -5.7930    4.8119  -18.2070 C   0  0  0  0  0  0  0  0  0  0  0  0
   -4.9335    5.3514  -17.1705 C   0  0  0  0  0  0  0  0  0  0  0  0
   -3.5198    5.7254  -17.4530 C   0  0  0  0  0  0  0  0  0  0  0  0
   -3.4288    6.8145  -18.2618 F   0  0  0  0  0  0  0  0  0  0  0  0
   -2.8412    4.7226  -18.0754 F   0  0  0  0  0  0  0  0  0  0  0  0
   -2.8219    6.0165  -16.3211 F   0  0  0  0  0  0  0  0  0  0  0  0
   -5.4941    5.4568  -15.9633 N   0  0  0  0  0  0  0  0  0  0  0  0
  1  2  2  0
  2  3  1  0
  3  4  2  0
  4  5  1  0
  5  6  2  0
  6  7  1  0
  7  8  1  0
  8  9  2  0
  8 10  1  0
 10 11  1  0
 11 12  2  0
 12 13  1  0
 13 14  2  0
 14 15  1  0
 15 16  2  0
 15 17  1  0
 17 18  1  0
 18 19  1  0
  7 20  2  0
 20 21  1  0
 21 22  2  0
 22 23  1  0
 23 24  1  0
 24 25  1  0
 24 26  1  0
 24 27  1  0
 23 28  2  0
 22  2  1  0
 21  4  1  0
 16 11  1  0
 28 20  1  0
 19 14  1  0
M  END
>  <smiles>  (1164) 
C18566-P178

>  <fragmenstein_outcome>  (1164) 
acceptable

>  <inchikey>  (1164) 
WBWMDFWCOLMUOV-UHFFFAOYSA-N

>  <fragmenstein_mode>  (1164) 
expansion

>  <HIPPO Pose ID>  (1164) 
20567

>  <Energy>  (1164) 
97.687732

>  <fragmenstein_error>  (1164) 


>  <tags>  (1164) 
{'openbind_xx01zvns2b_c1_fragmenstein', 'fragmenstein_placed'}

>  <ref_pdb>  (1164) 
175

>  <scratch_subdir>  (1164) 
/opt/xchem-fragalysis-2/maxwin/BulkDock/SCRATCH/511028/C18566-P178

>  <alias>  (1164) 
O=C1N=c2ccc(C(=O)Nc3ccc4c(c3)CNC4)c3c2=C1C(C(F)(F)F)=N3

>  <HIPPO Compound ID>  (1164) 
18566

>  <fragmenstein_runtime>  (1164) 
4.864285

$$$$
CC1=Nc2c(C(=O)Nc3ccc4c(c3)CNC4)cc(Cl)c3c2=C1C(=O)N=3
     RDKit          3D

 26 30  0  0  0  0  0  0  0  0999 V2000
   -2.9201    5.6126  -16.9502 C   0  0  0  0  0  0  0  0  0  0  0  0
   -4.3651    5.3066  -16.7523 C   0  0  0  0  0  0  0  0  0  0  0  0
   -4.9211    5.3815  -15.5484 N   0  0  0  0  0  0  0  0  0  0  0  0
   -6.2220    4.9948  -15.7400 C   0  0  0  0  0  0  0  0  0  0  0  0
   -7.3490    4.8745  -15.0328 C   0  0  0  0  0  0  0  0  0  0  0  0
   -7.4060    5.3898  -13.6381 C   0  0  0  0  0  0  0  0  0  0  0  0
   -7.1982    6.5122  -13.3910 O   0  0  0  0  0  0  0  0  0  0  0  0
   -7.8664    4.2283  -12.7215 N   0  0  0  0  0  0  0  0  0  0  0  0
   -8.0670    4.1884  -11.3442 C   0  0  0  0  0  0  0  0  0  0  0  0
   -7.9632    5.3502  -10.5622 C   0  0  0  0  0  0  0  0  0  0  0  0
   -8.1830    5.3062   -9.1820 C   0  0  0  0  0  0  0  0  0  0  0  0
   -8.5257    4.0940   -8.6144 C   0  0  0  0  0  0  0  0  0  0  0  0
   -8.6334    2.9430   -9.3883 C   0  0  0  0  0  0  0  0  0  0  0  0
   -8.3971    2.9670  -10.7520 C   0  0  0  0  0  0  0  0  0  0  0  0
   -9.0049    1.7960   -8.5086 C   0  0  0  0  0  0  0  0  0  0  0  0
   -9.4570    2.4155   -7.2331 N   0  0  0  0  0  0  0  0  0  0  0  0
   -8.8182    3.7500   -7.1930 C   0  0  0  0  0  0  0  0  0  0  0  0
   -8.5752    4.4248  -15.7346 C   0  0  0  0  0  0  0  0  0  0  0  0
   -8.6369    4.1884  -17.0679 C   0  0  0  0  0  0  0  0  0  0  0  0
  -10.0831    3.8642  -17.8807 Cl  0  0  0  0  0  0  0  0  0  0  0  0
   -7.4164    4.3338  -17.8898 C   0  0  0  0  0  0  0  0  0  0  0  0
   -6.3137    4.7190  -17.0959 C   0  0  0  0  0  0  0  0  0  0  0  0
   -5.2577    4.9115  -17.8331 C   0  0  0  0  0  0  0  0  0  0  0  0
   -5.7081    4.5928  -19.1790 C   0  0  0  0  0  0  0  0  0  0  0  0
   -5.0144    4.6465  -20.1788 O   0  0  0  0  0  0  0  0  0  0  0  0
   -7.0621    4.2221  -19.1257 N   0  0  0  0  0  0  0  0  0  0  0  0
  1  2  1  0
  2  3  2  0
  3  4  1  0
  4  5  2  0
  5  6  1  0
  6  7  2  0
  6  8  1  0
  8  9  1  0
  9 10  2  0
 10 11  1  0
 11 12  2  0
 12 13  1  0
 13 14  2  0
 13 15  1  0
 15 16  1  0
 16 17  1  0
  5 18  1  0
 18 19  2  0
 19 20  1  0
 19 21  1  0
 21 22  1  0
 22 23  2  0
 23 24  1  0
 24 25  2  0
 24 26  1  0
 23  2  1  0
 22  4  1  0
 14  9  1  0
 26 21  2  0
 17 12  1  0
M  END
>  <smiles>  (1165) 
C18567-P178

>  <fragmenstein_outcome>  (1165) 
acceptable

>  <inchikey>  (1165) 
KDAKCIVXGBBDGW-UHFFFAOYSA-N

>  <fragmenstein_mode>  (1165) 
expansion

>  <HIPPO Pose ID>  (1165) 
20568

>  <Energy>  (1165) 
69.70334

>  <fragmenstein_error>  (1165) 


>  <tags>  (1165) 
{'openbind_xx01zvns2b_c1_fragmenstein', 'fragmenstein_placed'}

>  <ref_pdb>  (1165) 
175

>  <scratch_subdir>  (1165) 
/opt/xchem-fragalysis-2/maxwin/BulkDock/SCRATCH/511028/C18567-P178

>  <alias>  (1165) 
CC1=Nc2c(C(=O)Nc3ccc4c(c3)CNC4)cc(Cl)c3c2=C1C(=O)N=3

>  <HIPPO Compound ID>  (1165) 
18567

>  <fragmenstein_runtime>  (1165) 
2.603475

$$$$
CCCNC(=O)[C@](O)(Nc1ccc2c(c1)CNC2)[C@@H]1C[C@@H](Cl)C2=C(CC(=O)N2)C12CNNC2
     RDKit          3D

 33 37  0  0  0  0  0  0  0  0999 V2000
   -5.9553   10.4925  -14.6730 C   0  0  0  0  0  0  0  0  0  0  0  0
   -6.8832   10.4192  -13.4709 C   0  0  0  0  0  0  0  0  0  0  0  0
   -6.6118    9.2083  -12.5871 C   0  0  0  0  0  0  0  0  0  0  0  0
   -7.1106    7.9752  -13.1353 N   0  0  0  0  0  0  0  0  0  0  0  0
   -6.4780    6.5504  -13.1615 C   0  0  0  0  0  0  0  0  0  0  0  0
   -5.4251    6.1833  -12.8106 O   0  0  0  0  0  0  0  0  0  0  0  0
   -7.5987    5.5799  -13.7630 C   0  0  2  0  0  0  0  0  0  0  0  0
   -8.8895    6.2064  -13.6256 O   0  0  0  0  0  0  0  0  0  0  0  0
   -7.7081    4.3468  -12.9529 N   0  0  0  0  0  0  0  0  0  0  0  0
   -7.9693    4.3118  -11.5659 C   0  0  0  0  0  0  0  0  0  0  0  0
   -8.0270    5.4495  -10.7315 C   0  0  0  0  0  0  0  0  0  0  0  0
   -8.2729    5.3621   -9.3550 C   0  0  0  0  0  0  0  0  0  0  0  0
   -8.5249    4.1216   -8.8168 C   0  0  0  0  0  0  0  0  0  0  0  0
   -8.5261    2.9888   -9.6187 C   0  0  0  0  0  0  0  0  0  0  0  0
   -8.2281    3.0621  -10.9755 C   0  0  0  0  0  0  0  0  0  0  0  0
   -8.8843    1.8073   -8.7759 C   0  0  0  0  0  0  0  0  0  0  0  0
   -9.3995    2.3745   -7.4965 N   0  0  0  0  0  0  0  0  0  0  0  0
   -8.8213    3.7308   -7.4096 C   0  0  0  0  0  0  0  0  0  0  0  0
   -7.5161    5.2866  -15.3274 C   0  0  2  0  0  0  0  0  0  0  0  0
   -8.4111    4.0436  -15.6641 C   0  0  0  0  0  0  0  0  0  0  0  0
   -8.6269    3.7144  -17.1463 C   0  0  1  0  0  0  0  0  0  0  0  0
  -10.1126    4.3727  -17.8527 Cl  0  0  0  0  0  0  0  0  0  0  0  0
   -7.4779    4.1404  -17.9733 C   0  0  0  0  0  0  0  0  0  0  0  0
   -6.3878    4.8032  -17.5694 C   0  0  0  0  0  0  0  0  0  0  0  0
   -5.4428    4.9788  -18.7500 C   0  0  0  0  0  0  0  0  0  0  0  0
   -6.2336    4.2938  -19.8646 C   0  0  0  0  0  0  0  0  0  0  0  0
   -5.9066    4.1462  -21.0315 O   0  0  0  0  0  0  0  0  0  0  0  0
   -7.4042    3.8431  -19.2994 N   0  0  0  0  0  0  0  0  0  0  0  0
   -6.1379    5.3217  -16.1411 C   0  0  0  0  0  0  0  0  0  0  0  0
   -4.9679    4.5786  -15.4819 C   0  0  0  0  0  0  0  0  0  0  0  0
   -3.9438    5.5738  -15.1544 N   0  0  0  0  0  0  0  0  0  0  0  0
   -4.0796    6.5835  -16.1478 N   0  0  0  0  0  0  0  0  0  0  0  0
   -5.5314    6.7477  -16.2480 C   0  0  0  0  0  0  0  0  0  0  0  0
  1  2  1  0
  2  3  1  0
  3  4  1  0
  4  5  1  0
  5  6  2  0
  5  7  1  0
  7  8  1  6
  7  9  1  0
  9 10  1  0
 10 11  2  0
 11 12  1  0
 12 13  2  0
 13 14  1  0
 14 15  2  0
 14 16  1  0
 16 17  1  0
 17 18  1  0
  7 19  1  0
 19 20  1  1
 20 21  1  0
 21 22  1  6
 21 23  1  0
 23 24  2  0
 24 25  1  0
 25 26  1  0
 26 27  2  0
 26 28  1  0
 24 29  1  0
 29 30  1  0
 30 31  1  0
 31 32  1  0
 32 33  1  0
 15 10  1  0
 29 19  1  0
 18 13  1  0
 28 23  1  0
 33 29  1  0
M  END
>  <smiles>  (1166) 
C18570-P178

>  <fragmenstein_outcome>  (1166) 
acceptable

>  <inchikey>  (1166) 
PKXWRFMYUVXMBR-UHFFFAOYSA-N

>  <fragmenstein_mode>  (1166) 
expansion

>  <HIPPO Pose ID>  (1166) 
20569

>  <Energy>  (1166) 
150.143078

>  <fragmenstein_error>  (1166) 


>  <tags>  (1166) 
{'openbind_xx01zvns2b_c1_fragmenstein', 'fragmenstein_placed'}

>  <ref_pdb>  (1166) 
175

>  <scratch_subdir>  (1166) 
/opt/xchem-fragalysis-2/maxwin/BulkDock/SCRATCH/511028/C18570-P178

>  <alias>  (1166) 
CCCNC(=O)[C@](O)(Nc1ccc2c(c1)CNC2)[C@@H]1C[C@@H](Cl)C2=C(CC(=O)N2)C12CNNC2

>  <HIPPO Compound ID>  (1166) 
18570

>  <fragmenstein_runtime>  (1166) 
10.834061

$$$$
O=C(Nc1ccc2c(c1)CNC2)c1cc(Cl)c2c3c(c[nH]c13)C(=O)N2
     RDKit          3D

 25 29  0  0  0  0  0  0  0  0999 V2000
   -6.4109    6.1983  -13.7052 O   0  0  0  0  0  0  0  0  0  0  0  0
   -7.0035    5.2151  -13.9279 C   0  0  0  0  0  0  0  0  0  0  0  0
   -7.6888    4.2139  -12.9617 N   0  0  0  0  0  0  0  0  0  0  0  0
   -7.8619    4.2639  -11.5789 C   0  0  0  0  0  0  0  0  0  0  0  0
   -7.5405    5.4151  -10.8454 C   0  0  0  0  0  0  0  0  0  0  0  0
   -7.7321    5.4588   -9.4598 C   0  0  0  0  0  0  0  0  0  0  0  0
   -8.2224    4.3314   -8.8277 C   0  0  0  0  0  0  0  0  0  0  0  0
   -8.5432    3.1891   -9.5493 C   0  0  0  0  0  0  0  0  0  0  0  0
   -8.3851    3.1411  -10.9264 C   0  0  0  0  0  0  0  0  0  0  0  0
   -9.0705    2.1514   -8.6174 C   0  0  0  0  0  0  0  0  0  0  0  0
   -8.8150    2.6640   -7.2430 N   0  0  0  0  0  0  0  0  0  0  0  0
   -8.5154    4.1056   -7.3849 C   0  0  0  0  0  0  0  0  0  0  0  0
   -7.2078    4.8280  -15.3421 C   0  0  0  0  0  0  0  0  0  0  0  0
   -8.4889    4.4047  -15.8304 C   0  0  0  0  0  0  0  0  0  0  0  0
   -8.7339    4.1356  -17.1971 C   0  0  0  0  0  0  0  0  0  0  0  0
  -10.2947    3.8757  -17.7945 Cl  0  0  0  0  0  0  0  0  0  0  0  0
   -7.6977    4.2210  -18.0771 C   0  0  0  0  0  0  0  0  0  0  0  0
   -6.5110    4.6587  -17.5868 C   0  0  0  0  0  0  0  0  0  0  0  0
   -5.5144    4.8591  -18.5050 C   0  0  0  0  0  0  0  0  0  0  0  0
   -4.4686    5.3530  -17.7721 C   0  0  0  0  0  0  0  0  0  0  0  0
   -4.9028    5.4300  -16.4240 N   0  0  0  0  0  0  0  0  0  0  0  0
   -6.2090    4.9930  -16.3093 C   0  0  0  0  0  0  0  0  0  0  0  0
   -6.1133    4.4572  -19.7814 C   0  0  0  0  0  0  0  0  0  0  0  0
   -5.5973    4.4382  -20.8866 O   0  0  0  0  0  0  0  0  0  0  0  0
   -7.4574    4.0716  -19.4551 N   0  0  0  0  0  0  0  0  0  0  0  0
  1  2  2  0
  2  3  1  0
  3  4  1  0
  4  5  2  0
  5  6  1  0
  6  7  2  0
  7  8  1  0
  8  9  2  0
  8 10  1  0
 10 11  1  0
 11 12  1  0
  2 13  1  0
 13 14  2  0
 14 15  1  0
 15 16  1  0
 15 17  2  0
 17 18  1  0
 18 19  1  0
 19 20  2  0
 20 21  1  0
 21 22  1  0
 19 23  1  0
 23 24  2  0
 23 25  1  0
  9  4  1  0
 22 13  1  0
 12  7  1  0
 25 17  1  0
 22 18  2  0
M  END
>  <smiles>  (1167) 
C18572-P178

>  <fragmenstein_outcome>  (1167) 
acceptable

>  <inchikey>  (1167) 
NSHKDQIKQGUFLZ-UHFFFAOYSA-N

>  <fragmenstein_mode>  (1167) 
expansion

>  <HIPPO Pose ID>  (1167) 
20570

>  <Energy>  (1167) 
99.349283

>  <fragmenstein_error>  (1167) 


>  <tags>  (1167) 
{'openbind_xx01zvns2b_c1_fragmenstein', 'fragmenstein_placed'}

>  <ref_pdb>  (1167) 
175

>  <scratch_subdir>  (1167) 
/opt/xchem-fragalysis-2/maxwin/BulkDock/SCRATCH/511028/C18572-P178

>  <alias>  (1167) 
O=C(Nc1ccc2c(c1)CNC2)c1cc(Cl)c2c3c(c[nH]c13)C(=O)N2

>  <HIPPO Compound ID>  (1167) 
18572

>  <fragmenstein_runtime>  (1167) 
2.655273

$$$$
O=C1N=c2c(F)cc(C(=O)Nc3ccc4c(c3)CNC4)c3c2=C1C(c1ccccc1)=N3
     RDKit          3D

 31 36  0  0  0  0  0  0  0  0999 V2000
   -5.9174    4.0970  -20.9462 O   0  0  0  0  0  0  0  0  0  0  0  0
   -6.4579    4.1857  -19.8566 C   0  0  0  0  0  0  0  0  0  0  0  0
   -7.7390    3.7172  -19.5318 N   0  0  0  0  0  0  0  0  0  0  0  0
   -7.9143    3.9849  -18.2830 C   0  0  0  0  0  0  0  0  0  0  0  0
   -8.9551    3.8252  -17.2550 C   0  0  0  0  0  0  0  0  0  0  0  0
  -10.1309    3.3270  -17.6593 F   0  0  0  0  0  0  0  0  0  0  0  0
   -8.7073    4.1935  -15.9764 C   0  0  0  0  0  0  0  0  0  0  0  0
   -7.4217    4.8053  -15.5225 C   0  0  0  0  0  0  0  0  0  0  0  0
   -7.2936    5.3356  -14.1240 C   0  0  0  0  0  0  0  0  0  0  0  0
   -7.0220    6.4544  -13.9173 O   0  0  0  0  0  0  0  0  0  0  0  0
   -7.6782    4.1922  -13.1389 N   0  0  0  0  0  0  0  0  0  0  0  0
   -7.8916    4.2179  -11.7570 C   0  0  0  0  0  0  0  0  0  0  0  0
   -7.7931    5.4080  -11.0192 C   0  0  0  0  0  0  0  0  0  0  0  0
   -8.0297    5.4209   -9.6374 C   0  0  0  0  0  0  0  0  0  0  0  0
   -8.3783    4.2351   -9.0172 C   0  0  0  0  0  0  0  0  0  0  0  0
   -8.4869    3.0548   -9.7428 C   0  0  0  0  0  0  0  0  0  0  0  0
   -8.2391    3.0256  -11.1081 C   0  0  0  0  0  0  0  0  0  0  0  0
   -8.8663    1.9449   -8.8160 C   0  0  0  0  0  0  0  0  0  0  0  0
   -9.2910    2.6125   -7.5546 N   0  0  0  0  0  0  0  0  0  0  0  0
   -8.6592    3.9499   -7.5800 C   0  0  0  0  0  0  0  0  0  0  0  0
   -6.4635    4.9997  -16.4432 C   0  0  0  0  0  0  0  0  0  0  0  0
   -6.7648    4.5961  -17.7370 C   0  0  0  0  0  0  0  0  0  0  0  0
   -5.8642    4.7540  -18.6630 C   0  0  0  0  0  0  0  0  0  0  0  0
   -4.8388    5.3460  -17.8249 C   0  0  0  0  0  0  0  0  0  0  0  0
   -3.5155    5.6961  -18.3683 C   0  0  0  0  0  0  0  0  0  0  0  0
   -3.2892    5.8629  -19.7386 C   0  0  0  0  0  0  0  0  0  0  0  0
   -2.0030    6.1482  -20.2030 C   0  0  0  0  0  0  0  0  0  0  0  0
   -0.9458    6.2833  -19.3048 C   0  0  0  0  0  0  0  0  0  0  0  0
   -1.1703    6.1361  -17.9383 C   0  0  0  0  0  0  0  0  0  0  0  0
   -2.4517    5.8388  -17.4712 C   0  0  0  0  0  0  0  0  0  0  0  0
   -5.1849    5.5037  -16.5429 N   0  0  0  0  0  0  0  0  0  0  0  0
  1  2  2  0
  2  3  1  0
  3  4  2  0
  4  5  1  0
  5  6  1  0
  5  7  2  0
  7  8  1  0
  8  9  1  0
  9 10  2  0
  9 11  1  0
 11 12  1  0
 12 13  2  0
 13 14  1  0
 14 15  2  0
 15 16  1  0
 16 17  2  0
 16 18  1  0
 18 19  1  0
 19 20  1  0
  8 21  2  0
 21 22  1  0
 22 23  2  0
 23 24  1  0
 24 25  1  0
 25 26  2  0
 26 27  1  0
 27 28  2  0
 28 29  1  0
 29 30  2  0
 24 31  2  0
 23  2  1  0
 30 25  1  0
 22  4  1  0
 17 12  1  0
 31 21  1  0
 20 15  1  0
M  END
>  <smiles>  (1168) 
C18581-P178

>  <fragmenstein_outcome>  (1168) 
acceptable

>  <inchikey>  (1168) 
NDBFSCVFCYIJPJ-UHFFFAOYSA-N

>  <fragmenstein_mode>  (1168) 
expansion

>  <HIPPO Pose ID>  (1168) 
20576

>  <Energy>  (1168) 
100.513943

>  <fragmenstein_error>  (1168) 


>  <tags>  (1168) 
{'openbind_xx01zvns2b_c1_fragmenstein', 'fragmenstein_placed'}

>  <ref_pdb>  (1168) 
175

>  <scratch_subdir>  (1168) 
/opt/xchem-fragalysis-2/maxwin/BulkDock/SCRATCH/511028/C18581-P178

>  <alias>  (1168) 
O=C1N=c2c(F)cc(C(=O)Nc3ccc4c(c3)CNC4)c3c2=C1C(c1ccccc1)=N3

>  <HIPPO Compound ID>  (1168) 
18581

>  <fragmenstein_runtime>  (1168) 
4.8124

$$$$
O=C(Nc1cc2c3c(csc3c1)NC2)c1ccc2c(c1)[C@]1(CCOC1)C(=O)N2
     RDKit          3D

 28 33  0  0  0  0  0  0  0  0999 V2000
   -7.2043    6.3476  -13.6112 O   0  0  0  0  0  0  0  0  0  0  0  0
   -7.5633    5.2548  -13.8154 C   0  0  0  0  0  0  0  0  0  0  0  0
   -8.0857    4.1734  -12.8420 N   0  0  0  0  0  0  0  0  0  0  0  0
   -8.1830    4.1775  -11.4492 C   0  0  0  0  0  0  0  0  0  0  0  0
   -8.5375    2.9623  -10.8226 C   0  0  0  0  0  0  0  0  0  0  0  0
   -8.6693    2.9393   -9.4509 C   0  0  0  0  0  0  0  0  0  0  0  0
   -8.4469    4.1160   -8.7735 C   0  0  0  0  0  0  0  0  0  0  0  0
   -8.5928    4.0447   -7.4021 C   0  0  0  0  0  0  0  0  0  0  0  0
   -8.2901    5.2211   -6.7897 C   0  0  0  0  0  0  0  0  0  0  0  0
   -7.8769    6.4220   -8.0072 S   0  0  0  0  0  0  0  0  0  0  0  0
   -8.0758    5.3086   -9.3204 C   0  0  0  0  0  0  0  0  0  0  0  0
   -7.9404    5.3712  -10.7138 C   0  0  0  0  0  0  0  0  0  0  0  0
   -8.9718    2.7722   -7.0825 N   0  0  0  0  0  0  0  0  0  0  0  0
   -8.9903    1.9300   -8.3872 C   0  0  0  0  0  0  0  0  0  0  0  0
   -7.5839    4.7791  -15.2272 C   0  0  0  0  0  0  0  0  0  0  0  0
   -8.7132    4.1263  -15.7576 C   0  0  0  0  0  0  0  0  0  0  0  0
   -8.7891    3.8108  -17.1164 C   0  0  0  0  0  0  0  0  0  0  0  0
   -7.7145    4.1551  -17.9033 C   0  0  0  0  0  0  0  0  0  0  0  0
   -6.5898    4.8070  -17.3990 C   0  0  0  0  0  0  0  0  0  0  0  0
   -6.5054    5.1167  -16.0520 C   0  0  0  0  0  0  0  0  0  0  0  0
   -5.6535    5.1196  -18.5419 C   0  0  1  0  0  0  0  0  0  0  0  0
   -5.6085    6.6113  -18.8069 C   0  0  0  0  0  0  0  0  0  0  0  0
   -4.4450    7.0756  -17.9663 C   0  0  0  0  0  0  0  0  0  0  0  0
   -3.4825    6.0269  -18.0265 O   0  0  0  0  0  0  0  0  0  0  0  0
   -4.1866    4.7986  -18.3149 C   0  0  0  0  0  0  0  0  0  0  0  0
   -6.3251    4.3608  -19.7153 C   0  0  0  0  0  0  0  0  0  0  0  0
   -5.8962    4.1840  -20.8454 O   0  0  0  0  0  0  0  0  0  0  0  0
   -7.5622    3.9145  -19.2570 N   0  0  0  0  0  0  0  0  0  0  0  0
  1  2  2  0
  2  3  1  0
  3  4  1  0
  4  5  2  0
  5  6  1  0
  6  7  2  0
  7  8  1  0
  8  9  2  0
  9 10  1  0
 10 11  1  0
 11 12  2  0
  8 13  1  0
 13 14  1  0
  2 15  1  0
 15 16  2  0
 16 17  1  0
 17 18  2  0
 18 19  1  0
 19 20  2  0
 19 21  1  0
 21 22  1  6
 22 23  1  0
 23 24  1  0
 24 25  1  0
 21 26  1  0
 26 27  2  0
 26 28  1  0
 12  4  1  0
 20 15  1  0
 25 21  1  0
 14  6  1  0
 28 18  1  0
 11  7  1  0
M  END
>  <smiles>  (1169) 
C18588-P178

>  <fragmenstein_outcome>  (1169) 
acceptable

>  <inchikey>  (1169) 
XTGZDSWLMMXJSE-UHFFFAOYSA-N

>  <fragmenstein_mode>  (1169) 
expansion

>  <HIPPO Pose ID>  (1169) 
20580

>  <Energy>  (1169) 
96.416615

>  <fragmenstein_error>  (1169) 


>  <tags>  (1169) 
{'openbind_xx01zvns2b_c1_fragmenstein', 'fragmenstein_placed'}

>  <ref_pdb>  (1169) 
175

>  <scratch_subdir>  (1169) 
/opt/xchem-fragalysis-2/maxwin/BulkDock/SCRATCH/511028/C18588-P178

>  <alias>  (1169) 
O=C(Nc1cc2c3c(csc3c1)NC2)c1ccc2c(c1)[C@]1(CCOC1)C(=O)N2

>  <HIPPO Compound ID>  (1169) 
39629

>  <fragmenstein_runtime>  (1169) 
3.665676

$$$$
N#Cc1cc2c(cc1NC(=O)c1cc(F)c3c(c1)CC(=O)N3)CNC2
     RDKit          3D

 25 28  0  0  0  0  0  0  0  0999 V2000
   -8.1152    7.8373  -11.8247 N   0  0  0  0  0  0  0  0  0  0  0  0
   -8.0578    6.7351  -11.4589 C   0  0  0  0  0  0  0  0  0  0  0  0
   -8.0950    5.4212  -10.8826 C   0  0  0  0  0  0  0  0  0  0  0  0
   -8.2306    5.3772   -9.4783 C   0  0  0  0  0  0  0  0  0  0  0  0
   -8.4929    4.1675   -8.8651 C   0  0  0  0  0  0  0  0  0  0  0  0
   -8.6127    3.0058   -9.6116 C   0  0  0  0  0  0  0  0  0  0  0  0
   -8.4437    3.0173  -10.9876 C   0  0  0  0  0  0  0  0  0  0  0  0
   -8.1641    4.2308  -11.6429 C   0  0  0  0  0  0  0  0  0  0  0  0
   -7.9994    4.1414  -13.0355 N   0  0  0  0  0  0  0  0  0  0  0  0
   -7.3152    5.1117  -14.0331 C   0  0  0  0  0  0  0  0  0  0  0  0
   -6.7163    6.0964  -13.8415 O   0  0  0  0  0  0  0  0  0  0  0  0
   -7.5033    4.6986  -15.4575 C   0  0  0  0  0  0  0  0  0  0  0  0
   -8.7288    4.1710  -15.9071 C   0  0  0  0  0  0  0  0  0  0  0  0
   -8.9166    3.8856  -17.2559 C   0  0  0  0  0  0  0  0  0  0  0  0
  -10.0906    3.4290  -17.7055 F   0  0  0  0  0  0  0  0  0  0  0  0
   -7.8722    4.0957  -18.1225 C   0  0  0  0  0  0  0  0  0  0  0  0
   -6.6644    4.6432  -17.7035 C   0  0  0  0  0  0  0  0  0  0  0  0
   -6.4637    4.9603  -16.3708 C   0  0  0  0  0  0  0  0  0  0  0  0
   -5.7572    4.7853  -18.8886 C   0  0  0  0  0  0  0  0  0  0  0  0
   -6.5782    4.1196  -20.0039 C   0  0  0  0  0  0  0  0  0  0  0  0
   -6.2194    3.9031  -21.1515 O   0  0  0  0  0  0  0  0  0  0  0  0
   -7.8149    3.7911  -19.4707 N   0  0  0  0  0  0  0  0  0  0  0  0
   -8.9234    1.8668   -8.6946 C   0  0  0  0  0  0  0  0  0  0  0  0
   -9.3257    2.5039   -7.4110 N   0  0  0  0  0  0  0  0  0  0  0  0
   -8.7149    3.8495   -7.4248 C   0  0  0  0  0  0  0  0  0  0  0  0
  1  2  3  0
  2  3  1  0
  3  4  2  0
  4  5  1  0
  5  6  2  0
  6  7  1  0
  7  8  2  0
  8  9  1  0
  9 10  1  0
 10 11  2  0
 10 12  1  0
 12 13  2  0
 13 14  1  0
 14 15  1  0
 14 16  2  0
 16 17  1  0
 17 18  2  0
 17 19  1  0
 19 20  1  0
 20 21  2  0
 20 22  1  0
  6 23  1  0
 23 24  1  0
 24 25  1  0
  8  3  1  0
 18 12  1  0
 25  5  1  0
 22 16  1  0
M  END
>  <smiles>  (1170) 
C18589-P178

>  <fragmenstein_outcome>  (1170) 
acceptable

>  <inchikey>  (1170) 
BZFLESUJFSGUHN-UHFFFAOYSA-N

>  <fragmenstein_mode>  (1170) 
expansion

>  <HIPPO Pose ID>  (1170) 
20581

>  <Energy>  (1170) 
75.929536

>  <fragmenstein_error>  (1170) 


>  <tags>  (1170) 
{'openbind_xx01zvns2b_c1_fragmenstein', 'fragmenstein_placed'}

>  <ref_pdb>  (1170) 
175

>  <scratch_subdir>  (1170) 
/opt/xchem-fragalysis-2/maxwin/BulkDock/SCRATCH/511028/C18589-P178

>  <alias>  (1170) 
N#Cc1cc2c(cc1NC(=O)c1cc(F)c3c(c1)CC(=O)N3)CNC2

>  <HIPPO Compound ID>  (1170) 
18589

>  <fragmenstein_runtime>  (1170) 
1.780168

$$$$
CC(C)c1nnc(C2=Nc3c(C(=O)Nc4ccc5c(c4)CNC5)cc(F)c4c3=C2C(=O)N=4)s1
     RDKit          3D

 33 38  0  0  0  0  0  0  0  0999 V2000
    0.1007    6.4320  -21.0285 C   0  0  0  0  0  0  0  0  0  0  0  0
   -0.7327    7.5619  -20.4324 C   0  0  0  0  0  0  0  0  0  0  0  0
   -1.3862    8.4043  -21.5284 C   0  0  0  0  0  0  0  0  0  0  0  0
   -1.7376    7.0650  -19.4276 C   0  0  0  0  0  0  0  0  0  0  0  0
   -1.7224    7.4052  -18.1549 N   0  0  0  0  0  0  0  0  0  0  0  0
   -2.7841    6.8709  -17.4547 N   0  0  0  0  0  0  0  0  0  0  0  0
   -3.5763    6.1483  -18.2196 C   0  0  0  0  0  0  0  0  0  0  0  0
   -4.8042    5.5687  -17.7347 C   0  0  0  0  0  0  0  0  0  0  0  0
   -5.1940    5.6705  -16.4551 N   0  0  0  0  0  0  0  0  0  0  0  0
   -6.4261    5.0615  -16.3809 C   0  0  0  0  0  0  0  0  0  0  0  0
   -7.3990    4.8216  -15.4866 C   0  0  0  0  0  0  0  0  0  0  0  0
   -7.3329    5.3682  -14.0914 C   0  0  0  0  0  0  0  0  0  0  0  0
   -7.1372    6.5030  -13.8882 O   0  0  0  0  0  0  0  0  0  0  0  0
   -7.6623    4.2093  -13.1058 N   0  0  0  0  0  0  0  0  0  0  0  0
   -7.9032    4.2299  -11.7288 C   0  0  0  0  0  0  0  0  0  0  0  0
   -7.8405    5.4214  -10.9894 C   0  0  0  0  0  0  0  0  0  0  0  0
   -8.0839    5.4261   -9.6091 C   0  0  0  0  0  0  0  0  0  0  0  0
   -8.4104    4.2316   -8.9938 C   0  0  0  0  0  0  0  0  0  0  0  0
   -8.4923    3.0511   -9.7230 C   0  0  0  0  0  0  0  0  0  0  0  0
   -8.2289    3.0286  -11.0853 C   0  0  0  0  0  0  0  0  0  0  0  0
   -8.8649    1.9335   -8.8028 C   0  0  0  0  0  0  0  0  0  0  0  0
   -9.3071    2.5917   -7.5421 N   0  0  0  0  0  0  0  0  0  0  0  0
   -8.6902    3.9361   -7.5587 C   0  0  0  0  0  0  0  0  0  0  0  0
   -8.6449    4.1574  -15.9739 C   0  0  0  0  0  0  0  0  0  0  0  0
   -8.8416    3.7883  -17.2612 C   0  0  0  0  0  0  0  0  0  0  0  0
   -9.9903    3.2611  -17.7019 F   0  0  0  0  0  0  0  0  0  0  0  0
   -7.7805    3.9953  -18.2617 C   0  0  0  0  0  0  0  0  0  0  0  0
   -6.6635    4.6325  -17.6781 C   0  0  0  0  0  0  0  0  0  0  0  0
   -5.7583    4.8717  -18.5823 C   0  0  0  0  0  0  0  0  0  0  0  0
   -6.3026    4.3049  -19.7989 C   0  0  0  0  0  0  0  0  0  0  0  0
   -5.7398    4.2726  -20.8788 O   0  0  0  0  0  0  0  0  0  0  0  0
   -7.5661    3.7635  -19.5121 N   0  0  0  0  0  0  0  0  0  0  0  0
   -3.0447    6.0249  -19.8430 S   0  0  0  0  0  0  0  0  0  0  0  0
  1  2  1  0
  2  3  1  0
  2  4  1  0
  4  5  2  0
  5  6  1  0
  6  7  2  0
  7  8  1  0
  8  9  2  0
  9 10  1  0
 10 11  2  0
 11 12  1  0
 12 13  2  0
 12 14  1  0
 14 15  1  0
 15 16  2  0
 16 17  1  0
 17 18  2  0
 18 19  1  0
 19 20  2  0
 19 21  1  0
 21 22  1  0
 22 23  1  0
 11 24  1  0
 24 25  2  0
 25 26  1  0
 25 27  1  0
 27 28  1  0
 28 29  2  0
 29 30  1  0
 30 31  2  0
 30 32  1  0
  7 33  1  0
 33  4  1  0
 29  8  1  0
 28 10  1  0
 20 15  1  0
 32 27  2  0
 23 18  1  0
M  END
>  <smiles>  (1171) 
C18592-P178

>  <fragmenstein_outcome>  (1171) 
acceptable

>  <inchikey>  (1171) 
YFARYMTZXHFHEC-UHFFFAOYSA-N

>  <fragmenstein_mode>  (1171) 
expansion

>  <HIPPO Pose ID>  (1171) 
20582

>  <Energy>  (1171) 
84.030478

>  <fragmenstein_error>  (1171) 


>  <tags>  (1171) 
{'openbind_xx01zvns2b_c1_fragmenstein', 'fragmenstein_placed'}

>  <ref_pdb>  (1171) 
175

>  <scratch_subdir>  (1171) 
/opt/xchem-fragalysis-2/maxwin/BulkDock/SCRATCH/511028/C18592-P178

>  <alias>  (1171) 
CC(C)c1nnc(C2=Nc3c(C(=O)Nc4ccc5c(c4)CNC5)cc(F)c4c3=C2C(=O)N=4)s1

>  <HIPPO Compound ID>  (1171) 
18592

>  <fragmenstein_runtime>  (1171) 
4.405287

$$$$
CCc1c([C@@](O)(Nc2ccc3c(c2)CNC3)C(=O)NCC(F)F)cc(Br)c2c1CC(=O)N2
     RDKit          3D

 32 35  0  0  0  0  0  0  0  0999 V2000
   -3.6924    5.9853  -16.7516 C   0  0  0  0  0  0  0  0  0  0  0  0
   -4.6798    5.4033  -15.7564 C   0  0  0  0  0  0  0  0  0  0  0  0
   -6.0328    4.9298  -16.2333 C   0  0  0  0  0  0  0  0  0  0  0  0
   -7.1017    4.7108  -15.2872 C   0  0  0  0  0  0  0  0  0  0  0  0
   -7.0073    4.9712  -13.7524 C   0  0  1  0  0  0  0  0  0  0  0  0
   -7.3203    6.3491  -13.6422 O   0  0  0  0  0  0  0  0  0  0  0  0
   -8.0805    4.2562  -13.0225 N   0  0  0  0  0  0  0  0  0  0  0  0
   -8.1287    4.2724  -11.6075 C   0  0  0  0  0  0  0  0  0  0  0  0
   -7.9537    5.4398  -10.8352 C   0  0  0  0  0  0  0  0  0  0  0  0
   -8.0720    5.4330   -9.4386 C   0  0  0  0  0  0  0  0  0  0  0  0
   -8.3896    4.2469   -8.8118 C   0  0  0  0  0  0  0  0  0  0  0  0
   -8.6029    3.0948   -9.5488 C   0  0  0  0  0  0  0  0  0  0  0  0
   -8.4952    3.0941  -10.9336 C   0  0  0  0  0  0  0  0  0  0  0  0
   -8.9752    1.9801   -8.6324 C   0  0  0  0  0  0  0  0  0  0  0  0
   -8.8504    2.5150   -7.2477 N   0  0  0  0  0  0  0  0  0  0  0  0
   -8.6094    3.9677   -7.3669 C   0  0  0  0  0  0  0  0  0  0  0  0
   -5.6014    4.5333  -13.0947 C   0  0  0  0  0  0  0  0  0  0  0  0
   -5.1529    3.4559  -13.1677 O   0  0  0  0  0  0  0  0  0  0  0  0
   -5.0378    5.8166  -12.4147 N   0  0  0  0  0  0  0  0  0  0  0  0
   -3.8556    6.0074  -11.6075 C   0  0  0  0  0  0  0  0  0  0  0  0
   -2.5972    5.3738  -12.1937 C   0  0  0  0  0  0  0  0  0  0  0  0
   -1.5481    5.6071  -11.3615 F   0  0  0  0  0  0  0  0  0  0  0  0
   -2.2871    5.9792  -13.3727 F   0  0  0  0  0  0  0  0  0  0  0  0
   -8.3885    4.3836  -15.7999 C   0  0  0  0  0  0  0  0  0  0  0  0
   -8.6071    4.1937  -17.1554 C   0  0  0  0  0  0  0  0  0  0  0  0
  -10.3183    4.0244  -17.8548 Br  0  0  0  0  0  0  0  0  0  0  0  0
   -7.5494    4.2748  -18.0145 C   0  0  0  0  0  0  0  0  0  0  0  0
   -6.2878    4.6723  -17.5944 C   0  0  0  0  0  0  0  0  0  0  0  0
   -5.4295    4.7617  -18.8366 C   0  0  0  0  0  0  0  0  0  0  0  0
   -6.3366    4.2265  -19.9454 C   0  0  0  0  0  0  0  0  0  0  0  0
   -6.0427    4.0231  -21.1127 O   0  0  0  0  0  0  0  0  0  0  0  0
   -7.5687    4.0080  -19.3751 N   0  0  0  0  0  0  0  0  0  0  0  0
  1  2  1  0
  2  3  1  0
  3  4  2  0
  4  5  1  0
  5  6  1  6
  5  7  1  0
  7  8  1  0
  8  9  2  0
  9 10  1  0
 10 11  2  0
 11 12  1  0
 12 13  2  0
 12 14  1  0
 14 15  1  0
 15 16  1  0
  5 17  1  0
 17 18  2  0
 17 19  1  0
 19 20  1  0
 20 21  1  0
 21 22  1  0
 21 23  1  0
  4 24  1  0
 24 25  2  0
 25 26  1  0
 25 27  1  0
 27 28  2  0
 28 29  1  0
 29 30  1  0
 30 31  2  0
 30 32  1  0
 28  3  1  0
 13  8  1  0
 32 27  1  0
 16 11  1  0
M  END
>  <smiles>  (1172) 
C18597-P178

>  <fragmenstein_outcome>  (1172) 
acceptable

>  <inchikey>  (1172) 
XSPVQXFESGDKDB-UHFFFAOYSA-N

>  <fragmenstein_mode>  (1172) 
expansion

>  <HIPPO Pose ID>  (1172) 
20585

>  <Energy>  (1172) 
136.058662

>  <fragmenstein_error>  (1172) 


>  <tags>  (1172) 
{'openbind_xx01zvns2b_c1_fragmenstein', 'fragmenstein_placed'}

>  <ref_pdb>  (1172) 
175

>  <scratch_subdir>  (1172) 
/opt/xchem-fragalysis-2/maxwin/BulkDock/SCRATCH/511028/C18597-P178

>  <alias>  (1172) 
CCc1c([C@@](O)(Nc2ccc3c(c2)CNC3)C(=O)NCC(F)F)cc(Br)c2c1CC(=O)N2

>  <HIPPO Compound ID>  (1172) 
30797

>  <fragmenstein_runtime>  (1172) 
4.272937

$$$$
O=C1Nc2c(Br)cc([C@](O)(Nc3ccc4c(c3)CNC4)C(=O)NCC(F)F)c3cccc1c23
     RDKit          3D

 33 37  0  0  0  0  0  0  0  0999 V2000
   -5.4259    4.5467  -20.5906 O   0  0  0  0  0  0  0  0  0  0  0  0
   -5.9565    4.5564  -19.4988 C   0  0  0  0  0  0  0  0  0  0  0  0
   -7.2701    4.2858  -19.1924 N   0  0  0  0  0  0  0  0  0  0  0  0
   -7.4531    4.3974  -17.8182 C   0  0  0  0  0  0  0  0  0  0  0  0
   -8.5834    4.2528  -17.0708 C   0  0  0  0  0  0  0  0  0  0  0  0
  -10.2201    4.0260  -17.9133 Br  0  0  0  0  0  0  0  0  0  0  0  0
   -8.5045    4.4213  -15.6885 C   0  0  0  0  0  0  0  0  0  0  0  0
   -7.3027    4.8273  -15.0355 C   0  0  0  0  0  0  0  0  0  0  0  0
   -7.4142    5.1928  -13.5393 C   0  0  2  0  0  0  0  0  0  0  0  0
   -6.1565    5.5820  -13.0218 O   0  0  0  0  0  0  0  0  0  0  0  0
   -7.8063    4.0292  -12.7416 N   0  0  0  0  0  0  0  0  0  0  0  0
   -8.0903    4.0735  -11.3666 C   0  0  0  0  0  0  0  0  0  0  0  0
   -7.8752    5.1962  -10.5385 C   0  0  0  0  0  0  0  0  0  0  0  0
   -8.1128    5.1708   -9.1580 C   0  0  0  0  0  0  0  0  0  0  0  0
   -8.5365    3.9896   -8.5946 C   0  0  0  0  0  0  0  0  0  0  0  0
   -8.7009    2.8543   -9.3748 C   0  0  0  0  0  0  0  0  0  0  0  0
   -8.4803    2.8784  -10.7441 C   0  0  0  0  0  0  0  0  0  0  0  0
   -9.0727    1.7125   -8.4896 C   0  0  0  0  0  0  0  0  0  0  0  0
   -9.5175    2.3412   -7.2155 N   0  0  0  0  0  0  0  0  0  0  0  0
   -8.8417    3.6567   -7.1741 C   0  0  0  0  0  0  0  0  0  0  0  0
   -8.5090    6.3892  -13.3961 C   0  0  0  0  0  0  0  0  0  0  0  0
   -9.6615    6.2446  -13.5537 O   0  0  0  0  0  0  0  0  0  0  0  0
   -7.6976    7.6534  -12.9718 N   0  0  0  0  0  0  0  0  0  0  0  0
   -8.1303    9.0159  -12.7490 C   0  0  0  0  0  0  0  0  0  0  0  0
   -7.1106   10.0657  -13.1722 C   0  0  0  0  0  0  0  0  0  0  0  0
   -5.9227    9.8333  -12.5568 F   0  0  0  0  0  0  0  0  0  0  0  0
   -6.8789    9.9918  -14.5073 F   0  0  0  0  0  0  0  0  0  0  0  0
   -6.1176    4.9780  -15.8439 C   0  0  0  0  0  0  0  0  0  0  0  0
   -4.7820    5.3423  -15.5165 C   0  0  0  0  0  0  0  0  0  0  0  0
   -3.7688    5.4567  -16.4977 C   0  0  0  0  0  0  0  0  0  0  0  0
   -4.0375    5.2226  -17.8534 C   0  0  0  0  0  0  0  0  0  0  0  0
   -5.3219    4.8623  -18.1894 C   0  0  0  0  0  0  0  0  0  0  0  0
   -6.2848    4.7435  -17.2172 C   0  0  0  0  0  0  0  0  0  0  0  0
  1  2  2  0
  2  3  1  0
  3  4  1  0
  4  5  2  0
  5  6  1  0
  5  7  1  0
  7  8  2  0
  8  9  1  0
  9 10  1  1
  9 11  1  0
 11 12  1  0
 12 13  2  0
 13 14  1  0
 14 15  2  0
 15 16  1  0
 16 17  2  0
 16 18  1  0
 18 19  1  0
 19 20  1  0
  9 21  1  0
 21 22  2  0
 21 23  1  0
 23 24  1  0
 24 25  1  0
 25 26  1  0
 25 27  1  0
  8 28  1  0
 28 29  2  0
 29 30  1  0
 30 31  2  0
 31 32  1  0
 32 33  2  0
 32  2  1  0
 33  4  1  0
 17 12  1  0
 33 28  1  0
 20 15  1  0
M  END
>  <smiles>  (1173) 
C18598-P178

>  <fragmenstein_outcome>  (1173) 
acceptable

>  <inchikey>  (1173) 
RXDSTYKMTIZDDZ-UHFFFAOYSA-N

>  <fragmenstein_mode>  (1173) 
expansion

>  <HIPPO Pose ID>  (1173) 
20586

>  <Energy>  (1173) 
146.306213

>  <fragmenstein_error>  (1173) 


>  <tags>  (1173) 
{'openbind_xx01zvns2b_c1_fragmenstein', 'fragmenstein_placed'}

>  <ref_pdb>  (1173) 
175

>  <scratch_subdir>  (1173) 
/opt/xchem-fragalysis-2/maxwin/BulkDock/SCRATCH/511028/C18598-P178

>  <alias>  (1173) 
O=C1Nc2c(Br)cc([C@](O)(Nc3ccc4c(c3)CNC4)C(=O)NCC(F)F)c3cccc1c23

>  <HIPPO Compound ID>  (1173) 
41797

>  <fragmenstein_runtime>  (1173) 
5.157774

$$$$
C[C@@]1(OCCCO)C(=O)[C@@H]2C(=O)Nc3c(F)cc(C(=O)Nc4ccc5c(c4)CNC5)c1c32
     RDKit          3D

 32 36  0  0  0  0  0  0  0  0999 V2000
   -4.1065    5.0910  -15.1972 C   0  0  0  0  0  0  0  0  0  0  0  0
   -5.1318    5.8605  -16.0341 C   0  0  1  0  0  0  0  0  0  0  0  0
   -5.3546    7.1042  -15.4041 O   0  0  0  0  0  0  0  0  0  0  0  0
   -4.9274    8.2803  -16.0795 C   0  0  0  0  0  0  0  0  0  0  0  0
   -3.4288    8.5272  -15.9318 C   0  0  0  0  0  0  0  0  0  0  0  0
   -2.9409    9.6122  -16.8801 C   0  0  0  0  0  0  0  0  0  0  0  0
   -3.2420    9.2885  -18.2324 O   0  0  0  0  0  0  0  0  0  0  0  0
   -4.6716    5.7892  -17.6072 C   0  0  0  0  0  0  0  0  0  0  0  0
   -3.7556    6.4381  -18.1006 O   0  0  0  0  0  0  0  0  0  0  0  0
   -5.4198    4.6921  -18.2984 C   0  0  2  0  0  0  0  0  0  0  0  0
   -6.1605    4.5975  -19.6166 C   0  0  0  0  0  0  0  0  0  0  0  0
   -5.6973    4.7483  -20.7348 O   0  0  0  0  0  0  0  0  0  0  0  0
   -7.4691    4.1278  -19.3195 N   0  0  0  0  0  0  0  0  0  0  0  0
   -7.7023    4.1339  -17.9506 C   0  0  0  0  0  0  0  0  0  0  0  0
   -8.8021    3.9418  -17.1639 C   0  0  0  0  0  0  0  0  0  0  0  0
   -9.9515    3.4956  -17.6750 F   0  0  0  0  0  0  0  0  0  0  0  0
   -8.6958    4.2565  -15.7972 C   0  0  0  0  0  0  0  0  0  0  0  0
   -7.5280    4.8722  -15.2622 C   0  0  0  0  0  0  0  0  0  0  0  0
   -7.5756    5.3599  -13.8608 C   0  0  0  0  0  0  0  0  0  0  0  0
   -7.4788    6.5036  -13.6535 O   0  0  0  0  0  0  0  0  0  0  0  0
   -7.7982    4.1799  -12.8863 N   0  0  0  0  0  0  0  0  0  0  0  0
   -8.0343    4.1726  -11.5116 C   0  0  0  0  0  0  0  0  0  0  0  0
   -7.9302    5.3466  -10.7493 C   0  0  0  0  0  0  0  0  0  0  0  0
   -8.1574    5.3277   -9.3684 C   0  0  0  0  0  0  0  0  0  0  0  0
   -8.5070    4.1274   -8.7784 C   0  0  0  0  0  0  0  0  0  0  0  0
   -8.6177    2.9635   -9.5314 C   0  0  0  0  0  0  0  0  0  0  0  0
   -8.3735    2.9637  -10.8952 C   0  0  0  0  0  0  0  0  0  0  0  0
   -8.9899    1.8330   -8.6294 C   0  0  0  0  0  0  0  0  0  0  0  0
   -9.4386    2.4749   -7.3638 N   0  0  0  0  0  0  0  0  0  0  0  0
   -8.7969    3.8089   -7.3501 C   0  0  0  0  0  0  0  0  0  0  0  0
   -6.4371    5.0782  -16.0920 C   0  0  0  0  0  0  0  0  0  0  0  0
   -6.5495    4.5588  -17.3595 C   0  0  0  0  0  0  0  0  0  0  0  0
  2  1  1  1
  2  3  1  0
  3  4  1  0
  4  5  1  0
  5  6  1  0
  6  7  1  0
  2  8  1  0
  8  9  2  0
 10  8  1  6
 10 11  1  0
 11 12  2  0
 11 13  1  0
 13 14  1  0
 14 15  2  0
 15 16  1  0
 15 17  1  0
 17 18  2  0
 18 19  1  0
 19 20  2  0
 19 21  1  0
 21 22  1  0
 22 23  2  0
 23 24  1  0
 24 25  2  0
 25 26  1  0
 26 27  2  0
 26 28  1  0
 28 29  1  0
 29 30  1  0
 18 31  1  0
 31 32  2  0
 31  2  1  0
 32 10  1  0
 32 14  1  0
 27 22  1  0
 30 25  1  0
M  END
>  <smiles>  (1174) 
C18602-P178

>  <fragmenstein_outcome>  (1174) 
acceptable

>  <inchikey>  (1174) 
YAWPWHAMFGVESA-UHFFFAOYSA-N

>  <fragmenstein_mode>  (1174) 
expansion

>  <HIPPO Pose ID>  (1174) 
20587

>  <Energy>  (1174) 
111.383058

>  <fragmenstein_error>  (1174) 


>  <tags>  (1174) 
{'openbind_xx01zvns2b_c1_fragmenstein', 'fragmenstein_placed'}

>  <ref_pdb>  (1174) 
175

>  <scratch_subdir>  (1174) 
/opt/xchem-fragalysis-2/maxwin/BulkDock/SCRATCH/511028/C18602-P178

>  <alias>  (1174) 
C[C@@]1(OCCCO)C(=O)[C@@H]2C(=O)Nc3c(F)cc(C(=O)Nc4ccc5c(c4)CNC5)c1c32

>  <HIPPO Compound ID>  (1174) 
36266

>  <fragmenstein_runtime>  (1174) 
5.192209

$$$$
CC(C)O[C@@]1(C)C(=O)[C@@H]2C(=O)Nc3c(F)cc(C(=O)Nc4ccc5c(c4)CNC5)c1c32
     RDKit          3D

 31 35  0  0  0  0  0  0  0  0999 V2000
   -2.2559    4.5038  -13.8273 C   0  0  0  0  0  0  0  0  0  0  0  0
   -3.5437    5.3029  -13.9767 C   0  0  0  0  0  0  0  0  0  0  0  0
   -4.5087    4.8817  -12.8785 C   0  0  0  0  0  0  0  0  0  0  0  0
   -4.0535    5.0339  -15.2870 O   0  0  0  0  0  0  0  0  0  0  0  0
   -5.0565    5.9000  -15.8430 C   0  0  1  0  0  0  0  0  0  0  0  0
   -5.0701    7.3254  -15.2958 C   0  0  0  0  0  0  0  0  0  0  0  0
   -4.6702    6.0242  -17.4216 C   0  0  0  0  0  0  0  0  0  0  0  0
   -3.9714    6.9011  -17.9167 O   0  0  0  0  0  0  0  0  0  0  0  0
   -5.2588    4.8513  -18.1625 C   0  0  2  0  0  0  0  0  0  0  0  0
   -5.9723    4.7861  -19.5061 C   0  0  0  0  0  0  0  0  0  0  0  0
   -5.4997    5.0023  -20.6102 O   0  0  0  0  0  0  0  0  0  0  0  0
   -7.2766    4.2905  -19.2693 N   0  0  0  0  0  0  0  0  0  0  0  0
   -7.5451    4.2220  -17.9108 C   0  0  0  0  0  0  0  0  0  0  0  0
   -8.6913    4.0246  -17.1945 C   0  0  0  0  0  0  0  0  0  0  0  0
   -9.8314    3.6467  -17.7830 F   0  0  0  0  0  0  0  0  0  0  0  0
   -8.6519    4.3149  -15.8244 C   0  0  0  0  0  0  0  0  0  0  0  0
   -7.5080    4.9175  -15.2210 C   0  0  0  0  0  0  0  0  0  0  0  0
   -7.6708    5.4179  -13.8414 C   0  0  0  0  0  0  0  0  0  0  0  0
   -7.5458    6.5594  -13.6353 O   0  0  0  0  0  0  0  0  0  0  0  0
   -8.0114    4.2577  -12.8792 N   0  0  0  0  0  0  0  0  0  0  0  0
   -8.1702    4.2470  -11.4946 C   0  0  0  0  0  0  0  0  0  0  0  0
   -8.0750    5.4229  -10.7348 C   0  0  0  0  0  0  0  0  0  0  0  0
   -8.2361    5.3911   -9.3450 C   0  0  0  0  0  0  0  0  0  0  0  0
   -8.5214    4.1779   -8.7459 C   0  0  0  0  0  0  0  0  0  0  0  0
   -8.6252    3.0128   -9.4979 C   0  0  0  0  0  0  0  0  0  0  0  0
   -8.4342    3.0241  -10.8690 C   0  0  0  0  0  0  0  0  0  0  0  0
   -8.9537    1.8712   -8.5932 C   0  0  0  0  0  0  0  0  0  0  0  0
   -9.3693    2.5004   -7.3092 N   0  0  0  0  0  0  0  0  0  0  0  0
   -8.7595    3.8486   -7.3109 C   0  0  0  0  0  0  0  0  0  0  0  0
   -6.3602    5.1254  -15.9717 C   0  0  0  0  0  0  0  0  0  0  0  0
   -6.4105    4.6201  -17.2565 C   0  0  0  0  0  0  0  0  0  0  0  0
  1  2  1  0
  2  3  1  0
  2  4  1  0
  4  5  1  0
  5  6  1  1
  5  7  1  0
  7  8  2  0
  9  7  1  1
  9 10  1  0
 10 11  2  0
 10 12  1  0
 12 13  1  0
 13 14  2  0
 14 15  1  0
 14 16  1  0
 16 17  2  0
 17 18  1  0
 18 19  2  0
 18 20  1  0
 20 21  1  0
 21 22  2  0
 22 23  1  0
 23 24  2  0
 24 25  1  0
 25 26  2  0
 25 27  1  0
 27 28  1  0
 28 29  1  0
 17 30  1  0
 30 31  2  0
 30  5  1  0
 31  9  1  0
 31 13  1  0
 26 21  1  0
 29 24  1  0
M  END
>  <smiles>  (1175) 
C18610-P178

>  <fragmenstein_outcome>  (1175) 
acceptable

>  <inchikey>  (1175) 
QJJIDSRZXQIPQI-UHFFFAOYSA-N

>  <fragmenstein_mode>  (1175) 
expansion

>  <HIPPO Pose ID>  (1175) 
20589

>  <Energy>  (1175) 
111.699676

>  <fragmenstein_error>  (1175) 


>  <tags>  (1175) 
{'openbind_xx01zvns2b_c1_fragmenstein', 'fragmenstein_placed'}

>  <ref_pdb>  (1175) 
175

>  <scratch_subdir>  (1175) 
/opt/xchem-fragalysis-2/maxwin/BulkDock/SCRATCH/511028/C18610-P178

>  <alias>  (1175) 
CC(C)O[C@@]1(C)C(=O)[C@@H]2C(=O)Nc3c(F)cc(C(=O)Nc4ccc5c(c4)CNC5)c1c32

>  <HIPPO Compound ID>  (1175) 
18610

>  <fragmenstein_runtime>  (1175) 
4.223344

$$$$
C[C@@H]1C(=O)Nc2ccc(C(=O)Nc3ccc4c(c3)CNC4)cc21
     RDKit          3D

 23 26  0  0  0  0  0  0  0  0999 V2000
   -5.1049    6.1672  -18.7288 C   0  0  0  0  0  0  0  0  0  0  0  0
   -5.6142    4.7571  -18.5490 C   0  0  2  0  0  0  0  0  0  0  0  0
   -6.4475    4.2266  -19.7413 C   0  0  0  0  0  0  0  0  0  0  0  0
   -6.0790    4.0814  -20.8978 O   0  0  0  0  0  0  0  0  0  0  0  0
   -7.7016    3.8822  -19.2475 N   0  0  0  0  0  0  0  0  0  0  0  0
   -7.7906    4.1222  -17.8877 C   0  0  0  0  0  0  0  0  0  0  0  0
   -8.8696    3.8921  -17.0679 C   0  0  0  0  0  0  0  0  0  0  0  0
   -8.7163    4.2002  -15.7136 C   0  0  0  0  0  0  0  0  0  0  0  0
   -7.5187    4.7596  -15.2255 C   0  0  0  0  0  0  0  0  0  0  0  0
   -7.4236    5.2124  -13.8118 C   0  0  0  0  0  0  0  0  0  0  0  0
   -7.0303    6.2912  -13.5985 O   0  0  0  0  0  0  0  0  0  0  0  0
   -7.9005    4.1089  -12.8394 N   0  0  0  0  0  0  0  0  0  0  0  0
   -8.0763    4.1345  -11.4582 C   0  0  0  0  0  0  0  0  0  0  0  0
   -7.9036    5.3134  -10.7166 C   0  0  0  0  0  0  0  0  0  0  0  0
   -8.1011    5.3221   -9.3308 C   0  0  0  0  0  0  0  0  0  0  0  0
   -8.4747    4.1418   -8.7146 C   0  0  0  0  0  0  0  0  0  0  0  0
   -8.6384    2.9715   -9.4471 C   0  0  0  0  0  0  0  0  0  0  0  0
   -8.4425    2.9479  -10.8169 C   0  0  0  0  0  0  0  0  0  0  0  0
   -9.0056    1.8599   -8.5215 C   0  0  0  0  0  0  0  0  0  0  0  0
   -9.4021    2.5271   -7.2518 N   0  0  0  0  0  0  0  0  0  0  0  0
   -8.7412    3.8518   -7.2760 C   0  0  0  0  0  0  0  0  0  0  0  0
   -6.4392    4.9923  -16.0811 C   0  0  0  0  0  0  0  0  0  0  0  0
   -6.5913    4.6514  -17.4136 C   0  0  0  0  0  0  0  0  0  0  0  0
  2  1  1  6
  2  3  1  0
  3  4  2  0
  3  5  1  0
  5  6  1  0
  6  7  2  0
  7  8  1  0
  8  9  2  0
  9 10  1  0
 10 11  2  0
 10 12  1  0
 12 13  1  0
 13 14  2  0
 14 15  1  0
 15 16  2  0
 16 17  1  0
 17 18  2  0
 17 19  1  0
 19 20  1  0
 20 21  1  0
  9 22  1  0
 22 23  2  0
 23  2  1  0
 23  6  1  0
 18 13  1  0
 21 16  1  0
M  END
>  <smiles>  (1176) 
C18613-P178

>  <fragmenstein_outcome>  (1176) 
acceptable

>  <inchikey>  (1176) 
XFFIHLDPRDKNKR-UHFFFAOYSA-N

>  <fragmenstein_mode>  (1176) 
expansion

>  <HIPPO Pose ID>  (1176) 
20591

>  <Energy>  (1176) 
49.429612

>  <fragmenstein_error>  (1176) 


>  <tags>  (1176) 
{'openbind_xx01zvns2b_c1_fragmenstein', 'fragmenstein_placed'}

>  <ref_pdb>  (1176) 
175

>  <scratch_subdir>  (1176) 
/opt/xchem-fragalysis-2/maxwin/BulkDock/SCRATCH/511028/C18613-P178

>  <alias>  (1176) 
C[C@@H]1C(=O)Nc2ccc(C(=O)Nc3ccc4c(c3)CNC4)cc21

>  <HIPPO Compound ID>  (1176) 
18613

>  <fragmenstein_runtime>  (1176) 
2.407188

$$$$
O=C1Nc2ccc(C(=O)Nc3ccc4c(c3)CNC4)cc2C1=O
     RDKit          3D

 23 26  0  0  0  0  0  0  0  0999 V2000
   -6.1141    4.0041  -20.9493 O   0  0  0  0  0  0  0  0  0  0  0  0
   -6.5496    4.1714  -19.8300 C   0  0  0  0  0  0  0  0  0  0  0  0
   -7.7896    3.8060  -19.3416 N   0  0  0  0  0  0  0  0  0  0  0  0
   -7.8939    4.0981  -17.9879 C   0  0  0  0  0  0  0  0  0  0  0  0
   -8.9575    3.8326  -17.1610 C   0  0  0  0  0  0  0  0  0  0  0  0
   -8.8097    4.1583  -15.8067 C   0  0  0  0  0  0  0  0  0  0  0  0
   -7.6415    4.7836  -15.3197 C   0  0  0  0  0  0  0  0  0  0  0  0
   -7.5696    5.2471  -13.9085 C   0  0  0  0  0  0  0  0  0  0  0  0
   -7.2224    6.3435  -13.7052 O   0  0  0  0  0  0  0  0  0  0  0  0
   -7.9893    4.1300  -12.9250 N   0  0  0  0  0  0  0  0  0  0  0  0
   -8.1547    4.1570  -11.5422 C   0  0  0  0  0  0  0  0  0  0  0  0
   -8.0151    5.3439  -10.8089 C   0  0  0  0  0  0  0  0  0  0  0  0
   -8.1789    5.3479   -9.4190 C   0  0  0  0  0  0  0  0  0  0  0  0
   -8.4769    4.1539   -8.7868 C   0  0  0  0  0  0  0  0  0  0  0  0
   -8.6230    2.9806   -9.5112 C   0  0  0  0  0  0  0  0  0  0  0  0
   -8.4680    2.9624  -10.8879 C   0  0  0  0  0  0  0  0  0  0  0  0
   -8.9544    1.8592   -8.5897 C   0  0  0  0  0  0  0  0  0  0  0  0
   -8.9237    2.4213   -7.2113 N   0  0  0  0  0  0  0  0  0  0  0  0
   -8.7025    3.8786   -7.3415 C   0  0  0  0  0  0  0  0  0  0  0  0
   -6.5793    5.0685  -16.1763 C   0  0  0  0  0  0  0  0  0  0  0  0
   -6.7372    4.6953  -17.4948 C   0  0  0  0  0  0  0  0  0  0  0  0
   -5.8032    4.8071  -18.6080 C   0  0  0  0  0  0  0  0  0  0  0  0
   -4.6916    5.2793  -18.5456 O   0  0  0  0  0  0  0  0  0  0  0  0
  1  2  2  0
  2  3  1  0
  3  4  1  0
  4  5  2  0
  5  6  1  0
  6  7  2  0
  7  8  1  0
  8  9  2  0
  8 10  1  0
 10 11  1  0
 11 12  2  0
 12 13  1  0
 13 14  2  0
 14 15  1  0
 15 16  2  0
 15 17  1  0
 17 18  1  0
 18 19  1  0
  7 20  1  0
 20 21  2  0
 21 22  1  0
 22 23  2  0
 22  2  1  0
 21  4  1  0
 16 11  1  0
 19 14  1  0
M  END
>  <smiles>  (1177) 
C18568-P178

>  <fragmenstein_outcome>  (1177) 
acceptable

>  <inchikey>  (1177) 
NORPWCVCGQQMTR-UHFFFAOYSA-N

>  <fragmenstein_mode>  (1177) 
expansion

>  <HIPPO Pose ID>  (1177) 
20592

>  <Energy>  (1177) 
86.537674

>  <fragmenstein_error>  (1177) 


>  <tags>  (1177) 
{'openbind_xx01zvns2b_c1_fragmenstein', 'fragmenstein_placed'}

>  <ref_pdb>  (1177) 
175

>  <scratch_subdir>  (1177) 
/opt/xchem-fragalysis-2/maxwin/BulkDock/SCRATCH/511028/C18568-P178

>  <alias>  (1177) 
O=C1Nc2ccc(C(=O)Nc3ccc4c(c3)CNC4)cc2C1=O

>  <HIPPO Compound ID>  (1177) 
18568

>  <fragmenstein_runtime>  (1177) 
1.984504

$$$$
O=C1N=c2ccc(C(=O)Nc3ccc4c(c3)CNC4)c3c2=C1C(=O)N3
     RDKit          3D

 25 29  0  0  0  0  0  0  0  0999 V2000
   -5.7813    4.2165  -20.8174 O   0  0  0  0  0  0  0  0  0  0  0  0
   -6.3480    4.2634  -19.7394 C   0  0  0  0  0  0  0  0  0  0  0  0
   -7.6421    3.7733  -19.4660 N   0  0  0  0  0  0  0  0  0  0  0  0
   -7.8544    3.9962  -18.2157 C   0  0  0  0  0  0  0  0  0  0  0  0
   -8.9455    3.7867  -17.2393 C   0  0  0  0  0  0  0  0  0  0  0  0
   -8.7275    4.1318  -15.9406 C   0  0  0  0  0  0  0  0  0  0  0  0
   -7.4662    4.7393  -15.4218 C   0  0  0  0  0  0  0  0  0  0  0  0
   -7.3337    5.2477  -14.0186 C   0  0  0  0  0  0  0  0  0  0  0  0
   -6.9363    6.3267  -13.8064 O   0  0  0  0  0  0  0  0  0  0  0  0
   -7.8205    4.1440  -13.0403 N   0  0  0  0  0  0  0  0  0  0  0  0
   -8.0012    4.1747  -11.6562 C   0  0  0  0  0  0  0  0  0  0  0  0
   -7.8367    5.3581  -10.9194 C   0  0  0  0  0  0  0  0  0  0  0  0
   -8.0401    5.3752   -9.5332 C   0  0  0  0  0  0  0  0  0  0  0  0
   -8.4104    4.1985   -8.9083 C   0  0  0  0  0  0  0  0  0  0  0  0
   -8.5692    3.0231   -9.6328 C   0  0  0  0  0  0  0  0  0  0  0  0
   -8.3688    2.9923  -11.0041 C   0  0  0  0  0  0  0  0  0  0  0  0
   -8.9352    1.9172   -8.6972 C   0  0  0  0  0  0  0  0  0  0  0  0
   -9.3245    2.5913   -7.4289 N   0  0  0  0  0  0  0  0  0  0  0  0
   -8.6716    3.9187   -7.4663 C   0  0  0  0  0  0  0  0  0  0  0  0
   -6.4879    4.9597  -16.3056 C   0  0  0  0  0  0  0  0  0  0  0  0
   -6.7226    4.5927  -17.6205 C   0  0  0  0  0  0  0  0  0  0  0  0
   -5.7844    4.7896  -18.5080 C   0  0  0  0  0  0  0  0  0  0  0  0
   -4.7172    5.3798  -17.7042 C   0  0  0  0  0  0  0  0  0  0  0  0
   -3.6115    5.7208  -18.0771 O   0  0  0  0  0  0  0  0  0  0  0  0
   -5.2280    5.4751  -16.3726 N   0  0  0  0  0  0  0  0  0  0  0  0
  1  2  2  0
  2  3  1  0
  3  4  2  0
  4  5  1  0
  5  6  2  0
  6  7  1  0
  7  8  1  0
  8  9  2  0
  8 10  1  0
 10 11  1  0
 11 12  2  0
 12 13  1  0
 13 14  2  0
 14 15  1  0
 15 16  2  0
 15 17  1  0
 17 18  1  0
 18 19  1  0
  7 20  2  0
 20 21  1  0
 21 22  2  0
 22 23  1  0
 23 24  2  0
 23 25  1  0
 22  2  1  0
 21  4  1  0
 16 11  1  0
 25 20  1  0
 19 14  1  0
M  END
>  <smiles>  (1178) 
C18580-P178

>  <fragmenstein_outcome>  (1178) 
acceptable

>  <inchikey>  (1178) 
SEYDJKKXYTXCME-UHFFFAOYSA-N

>  <fragmenstein_mode>  (1178) 
expansion

>  <HIPPO Pose ID>  (1178) 
20593

>  <Energy>  (1178) 
36.469852

>  <fragmenstein_error>  (1178) 


>  <tags>  (1178) 
{'openbind_xx01zvns2b_c1_fragmenstein', 'fragmenstein_placed'}

>  <ref_pdb>  (1178) 
175

>  <scratch_subdir>  (1178) 
/opt/xchem-fragalysis-2/maxwin/BulkDock/SCRATCH/511028/C18580-P178

>  <alias>  (1178) 
O=C1N=c2ccc(C(=O)Nc3ccc4c(c3)CNC4)c3c2=C1C(=O)N3

>  <HIPPO Compound ID>  (1178) 
28093

>  <fragmenstein_runtime>  (1178) 
4.563269

$$$$
O=C1N[C@H]2CC[C@H](C(=O)Nc3ccc4c(c3)CNC4)[C@H]3NNC1=C23
     RDKit          3D

 24 28  0  0  0  0  0  0  0  0999 V2000
   -5.9823    3.8079  -20.8755 O   0  0  0  0  0  0  0  0  0  0  0  0
   -6.5323    4.0296  -19.8137 C   0  0  0  0  0  0  0  0  0  0  0  0
   -7.8487    3.7074  -19.4786 N   0  0  0  0  0  0  0  0  0  0  0  0
   -8.3018    4.4898  -18.3614 C   0  0  1  0  0  0  0  0  0  0  0  0
   -9.0445    3.7337  -17.2754 C   0  0  0  0  0  0  0  0  0  0  0  0
   -8.8346    4.3484  -15.8791 C   0  0  0  0  0  0  0  0  0  0  0  0
   -7.3486    4.4994  -15.4521 C   0  0  2  0  0  0  0  0  0  0  0  0
   -7.3133    5.1844  -14.0723 C   0  0  0  0  0  0  0  0  0  0  0  0
   -7.0131    6.3072  -13.9188 O   0  0  0  0  0  0  0  0  0  0  0  0
   -7.8398    4.1260  -13.0451 N   0  0  0  0  0  0  0  0  0  0  0  0
   -8.0038    4.2100  -11.6621 C   0  0  0  0  0  0  0  0  0  0  0  0
   -7.8382    5.4162  -10.9675 C   0  0  0  0  0  0  0  0  0  0  0  0
   -8.0098    5.4701   -9.5778 C   0  0  0  0  0  0  0  0  0  0  0  0
   -8.3465    4.3072   -8.9071 C   0  0  0  0  0  0  0  0  0  0  0  0
   -8.5326    3.1170   -9.5947 C   0  0  0  0  0  0  0  0  0  0  0  0
   -8.3654    3.0489  -10.9690 C   0  0  0  0  0  0  0  0  0  0  0  0
   -8.9451    2.0481   -8.6418 C   0  0  0  0  0  0  0  0  0  0  0  0
   -8.8067    2.6313   -7.2785 N   0  0  0  0  0  0  0  0  0  0  0  0
   -8.5909    4.0843   -7.4550 C   0  0  0  0  0  0  0  0  0  0  0  0
   -6.5667    5.3071  -16.4939 C   0  0  1  0  0  0  0  0  0  0  0  0
   -5.0681    5.0938  -16.5632 N   0  0  0  0  0  0  0  0  0  0  0  0
   -4.7903    4.7464  -17.9646 N   0  0  0  0  0  0  0  0  0  0  0  0
   -5.9844    4.7050  -18.6255 C   0  0  0  0  0  0  0  0  0  0  0  0
   -7.0173    4.9742  -17.8541 C   0  0  0  0  0  0  0  0  0  0  0  0
  1  2  2  0
  2  3  1  0
  3  4  1  0
  4  5  1  1
  5  6  1  0
  6  7  1  0
  7  8  1  1
  8  9  2  0
  8 10  1  0
 10 11  1  0
 11 12  2  0
 12 13  1  0
 13 14  2  0
 14 15  1  0
 15 16  2  0
 15 17  1  0
 17 18  1  0
 18 19  1  0
  7 20  1  0
 20 21  1  6
 21 22  1  0
 22 23  1  0
 23 24  2  0
 23  2  1  0
 24  4  1  0
 16 11  1  0
 24 20  1  0
 19 14  1  0
M  END
>  <smiles>  (1179) 
C18618-P178

>  <fragmenstein_outcome>  (1179) 
acceptable

>  <inchikey>  (1179) 
INODJFWMHZDKIL-UHFFFAOYSA-N

>  <fragmenstein_mode>  (1179) 
expansion

>  <HIPPO Pose ID>  (1179) 
20595

>  <Energy>  (1179) 
70.57592

>  <fragmenstein_error>  (1179) 


>  <tags>  (1179) 
{'openbind_xx01zvns2b_c1_fragmenstein', 'fragmenstein_placed'}

>  <ref_pdb>  (1179) 
175

>  <scratch_subdir>  (1179) 
/opt/xchem-fragalysis-2/maxwin/BulkDock/SCRATCH/511028/C18618-P178

>  <alias>  (1179) 
O=C1N[C@H]2CC[C@H](C(=O)Nc3ccc4c(c3)CNC4)[C@H]3NNC1=C23

>  <HIPPO Compound ID>  (1179) 
18618

>  <fragmenstein_runtime>  (1179) 
2.583882

$$$$
O=C1Nc2ccc(C(=O)Nc3cc4c(c(-c5ccncc5)c3)CNC4)cc2C1=O
     RDKit          3D

 29 33  0  0  0  0  0  0  0  0999 V2000
   -6.0716    4.0326  -20.9461 O   0  0  0  0  0  0  0  0  0  0  0  0
   -6.5006    4.2021  -19.8248 C   0  0  0  0  0  0  0  0  0  0  0  0
   -7.7399    3.8397  -19.3307 N   0  0  0  0  0  0  0  0  0  0  0  0
   -7.8384    4.1353  -17.9773 C   0  0  0  0  0  0  0  0  0  0  0  0
   -8.9025    3.8809  -17.1466 C   0  0  0  0  0  0  0  0  0  0  0  0
   -8.7514    4.2137  -15.7941 C   0  0  0  0  0  0  0  0  0  0  0  0
   -7.5732    4.8241  -15.3094 C   0  0  0  0  0  0  0  0  0  0  0  0
   -7.4813    5.2962  -13.9006 C   0  0  0  0  0  0  0  0  0  0  0  0
   -7.0504    6.3654  -13.7125 O   0  0  0  0  0  0  0  0  0  0  0  0
   -8.0494    4.2549  -12.9073 N   0  0  0  0  0  0  0  0  0  0  0  0
   -8.1158    4.2740  -11.5156 C   0  0  0  0  0  0  0  0  0  0  0  0
   -8.5445    3.1245  -10.8528 C   0  0  0  0  0  0  0  0  0  0  0  0
   -8.6338    3.1580   -9.4717 C   0  0  0  0  0  0  0  0  0  0  0  0
   -8.3082    4.3027   -8.7481 C   0  0  0  0  0  0  0  0  0  0  0  0
   -7.8601    5.4604   -9.3791 C   0  0  0  0  0  0  0  0  0  0  0  0
   -7.4487    6.6590   -8.6363 C   0  0  0  0  0  0  0  0  0  0  0  0
   -8.3506    7.3917   -7.8595 C   0  0  0  0  0  0  0  0  0  0  0  0
   -7.8977    8.5082   -7.1740 C   0  0  0  0  0  0  0  0  0  0  0  0
   -6.6211    8.9440   -7.2046 N   0  0  0  0  0  0  0  0  0  0  0  0
   -5.7641    8.2347   -7.9682 C   0  0  0  0  0  0  0  0  0  0  0  0
   -6.1236    7.1064   -8.6887 C   0  0  0  0  0  0  0  0  0  0  0  0
   -7.7754    5.4241  -10.7853 C   0  0  0  0  0  0  0  0  0  0  0  0
   -8.5317    4.0334   -7.2966 C   0  0  0  0  0  0  0  0  0  0  0  0
   -8.8336    2.5902   -7.1706 N   0  0  0  0  0  0  0  0  0  0  0  0
   -9.0836    2.0842   -8.5425 C   0  0  0  0  0  0  0  0  0  0  0  0
   -6.5115    5.0981  -16.1721 C   0  0  0  0  0  0  0  0  0  0  0  0
   -6.6770    4.7269  -17.4897 C   0  0  0  0  0  0  0  0  0  0  0  0
   -5.7470    4.8379  -18.6061 C   0  0  0  0  0  0  0  0  0  0  0  0
   -4.6361    5.3118  -18.5463 O   0  0  0  0  0  0  0  0  0  0  0  0
  1  2  2  0
  2  3  1  0
  3  4  1  0
  4  5  2  0
  5  6  1  0
  6  7  2  0
  7  8  1  0
  8  9  2  0
  8 10  1  0
 10 11  1  0
 11 12  2  0
 12 13  1  0
 13 14  2  0
 14 15  1  0
 15 16  1  0
 16 17  2  0
 17 18  1  0
 18 19  2  0
 19 20  1  0
 20 21  2  0
 15 22  2  0
 14 23  1  0
 23 24  1  0
 24 25  1  0
  7 26  1  0
 26 27  2  0
 27 28  1  0
 28 29  2  0
 28  2  1  0
 27  4  1  0
 22 11  1  0
 25 13  1  0
 21 16  1  0
M  END
>  <smiles>  (1180) 
C18619-P178

>  <fragmenstein_outcome>  (1180) 
acceptable

>  <inchikey>  (1180) 
RWEQECVCBUYOMR-UHFFFAOYSA-N

>  <fragmenstein_mode>  (1180) 
expansion

>  <HIPPO Pose ID>  (1180) 
20596

>  <Energy>  (1180) 
98.099063

>  <fragmenstein_error>  (1180) 


>  <tags>  (1180) 
{'openbind_xx01zvns2b_c1_fragmenstein', 'fragmenstein_placed'}

>  <ref_pdb>  (1180) 
175

>  <scratch_subdir>  (1180) 
/opt/xchem-fragalysis-2/maxwin/BulkDock/SCRATCH/511028/C18619-P178

>  <alias>  (1180) 
O=C1Nc2ccc(C(=O)Nc3cc4c(c(-c5ccncc5)c3)CNC4)cc2C1=O

>  <HIPPO Compound ID>  (1180) 
35383

>  <fragmenstein_runtime>  (1180) 
3.317173

$$$$
N=CN=C1N=c2c(Cl)cc(C(=O)Nc3ccc4c(c3)CNC4)c3c2=C1C=N3
     RDKit          3D

 27 31  0  0  0  0  0  0  0  0999 V2000
   -6.4074    3.7105  -21.4429 N   0  0  0  0  0  0  0  0  0  0  0  0
   -5.4029    4.4981  -21.2942 C   0  0  0  0  0  0  0  0  0  0  0  0
   -4.9427    4.9102  -20.0911 N   0  0  0  0  0  0  0  0  0  0  0  0
   -5.6604    4.7988  -19.0377 C   0  0  0  0  0  0  0  0  0  0  0  0
   -6.9699    4.2930  -18.9803 N   0  0  0  0  0  0  0  0  0  0  0  0
   -7.3337    4.3897  -17.7450 C   0  0  0  0  0  0  0  0  0  0  0  0
   -8.5395    4.1611  -16.9266 C   0  0  0  0  0  0  0  0  0  0  0  0
   -9.9487    3.7221  -17.7558 Cl  0  0  0  0  0  0  0  0  0  0  0  0
   -8.4928    4.4245  -15.5971 C   0  0  0  0  0  0  0  0  0  0  0  0
   -7.2974    4.9901  -14.9099 C   0  0  0  0  0  0  0  0  0  0  0  0
   -7.3829    5.4923  -13.5149 C   0  0  0  0  0  0  0  0  0  0  0  0
   -7.3181    6.6310  -13.2641 O   0  0  0  0  0  0  0  0  0  0  0  0
   -7.6403    4.2737  -12.5925 N   0  0  0  0  0  0  0  0  0  0  0  0
   -7.9535    4.2160  -11.2383 C   0  0  0  0  0  0  0  0  0  0  0  0
   -7.9116    5.3689  -10.4384 C   0  0  0  0  0  0  0  0  0  0  0  0
   -8.2016    5.3021   -9.0730 C   0  0  0  0  0  0  0  0  0  0  0  0
   -8.5537    4.0766   -8.5408 C   0  0  0  0  0  0  0  0  0  0  0  0
   -8.6130    2.9367   -9.3364 C   0  0  0  0  0  0  0  0  0  0  0  0
   -8.3030    2.9820  -10.6843 C   0  0  0  0  0  0  0  0  0  0  0  0
   -9.0127    1.7726   -8.4925 C   0  0  0  0  0  0  0  0  0  0  0  0
   -9.5181    2.3661   -7.2245 N   0  0  0  0  0  0  0  0  0  0  0  0
   -8.8921    3.7041   -7.1371 C   0  0  0  0  0  0  0  0  0  0  0  0
   -6.1879    5.2120  -15.6238 C   0  0  0  0  0  0  0  0  0  0  0  0
   -6.2659    4.8804  -16.9646 C   0  0  0  0  0  0  0  0  0  0  0  0
   -5.2495    5.1807  -17.7171 C   0  0  0  0  0  0  0  0  0  0  0  0
   -4.4047    5.7317  -16.6892 C   0  0  0  0  0  0  0  0  0  0  0  0
   -4.9323    5.7612  -15.4758 N   0  0  0  0  0  0  0  0  0  0  0  0
  1  2  2  3
  2  3  1  0
  3  4  2  3
  4  5  1  0
  5  6  2  0
  6  7  1  0
  7  8  1  0
  7  9  2  0
  9 10  1  0
 10 11  1  0
 11 12  2  0
 11 13  1  0
 13 14  1  0
 14 15  2  0
 15 16  1  0
 16 17  2  0
 17 18  1  0
 18 19  2  0
 18 20  1  0
 20 21  1  0
 21 22  1  0
 10 23  2  0
 23 24  1  0
 24 25  2  0
 25 26  1  0
 26 27  2  0
 25  4  1  0
 24  6  1  0
 19 14  1  0
 27 23  1  0
 22 17  1  0
M  END
>  <smiles>  (1181) 
C18631-P178

>  <fragmenstein_outcome>  (1181) 
acceptable

>  <inchikey>  (1181) 
UCMJVWYMCACCIU-UHFFFAOYSA-N

>  <fragmenstein_mode>  (1181) 
expansion

>  <HIPPO Pose ID>  (1181) 
20600

>  <Energy>  (1181) 
43.299945

>  <fragmenstein_error>  (1181) 


>  <tags>  (1181) 
{'openbind_xx01zvns2b_c1_fragmenstein', 'fragmenstein_placed'}

>  <ref_pdb>  (1181) 
175

>  <scratch_subdir>  (1181) 
/opt/xchem-fragalysis-2/maxwin/BulkDock/SCRATCH/511028/C18631-P178

>  <alias>  (1181) 
N=CN=C1N=c2c(Cl)cc(C(=O)Nc3ccc4c(c3)CNC4)c3c2=C1C=N3

>  <HIPPO Compound ID>  (1181) 
18631

>  <fragmenstein_runtime>  (1181) 
4.556341

$$$$
O=C(Nc1ccc2c(c1)CNC2)c1cc(F)c2c3c([nH]cc13)C(=O)N2
     RDKit          3D

 25 29  0  0  0  0  0  0  0  0999 V2000
   -6.7443    6.2680  -13.7028 O   0  0  0  0  0  0  0  0  0  0  0  0
   -7.2428    5.2305  -13.9034 C   0  0  0  0  0  0  0  0  0  0  0  0
   -7.8170    4.1846  -12.9153 N   0  0  0  0  0  0  0  0  0  0  0  0
   -7.9768    4.2388  -11.5321 C   0  0  0  0  0  0  0  0  0  0  0  0
   -7.7023    5.4099  -10.8108 C   0  0  0  0  0  0  0  0  0  0  0  0
   -7.8727    5.4521   -9.4227 C   0  0  0  0  0  0  0  0  0  0  0  0
   -8.3023    4.3069   -8.7783 C   0  0  0  0  0  0  0  0  0  0  0  0
   -8.5799    3.1470   -9.4895 C   0  0  0  0  0  0  0  0  0  0  0  0
   -8.4321    3.0955  -10.8667 C   0  0  0  0  0  0  0  0  0  0  0  0
   -9.0567    2.0933   -8.5496 C   0  0  0  0  0  0  0  0  0  0  0  0
   -8.8237    2.6274   -7.1793 N   0  0  0  0  0  0  0  0  0  0  0  0
   -8.5691    4.0768   -7.3314 C   0  0  0  0  0  0  0  0  0  0  0  0
   -7.4276    4.7966  -15.2957 C   0  0  0  0  0  0  0  0  0  0  0  0
   -8.6641    4.2437  -15.8173 C   0  0  0  0  0  0  0  0  0  0  0  0
   -8.9131    3.9046  -17.2164 C   0  0  0  0  0  0  0  0  0  0  0  0
  -10.1209    3.4598  -17.5797 F   0  0  0  0  0  0  0  0  0  0  0  0
   -7.9366    4.0568  -18.1752 C   0  0  0  0  0  0  0  0  0  0  0  0
   -6.8346    4.5832  -17.6076 C   0  0  0  0  0  0  0  0  0  0  0  0
   -5.8816    4.7503  -18.5411 C   0  0  0  0  0  0  0  0  0  0  0  0
   -4.8285    5.2809  -17.8444 N   0  0  0  0  0  0  0  0  0  0  0  0
   -5.2056    5.4170  -16.4758 C   0  0  0  0  0  0  0  0  0  0  0  0
   -6.5007    4.9576  -16.3313 C   0  0  0  0  0  0  0  0  0  0  0  0
   -6.3716    4.2917  -19.8215 C   0  0  0  0  0  0  0  0  0  0  0  0
   -5.8031    4.2481  -20.8995 O   0  0  0  0  0  0  0  0  0  0  0  0
   -7.6894    3.8563  -19.5309 N   0  0  0  0  0  0  0  0  0  0  0  0
  1  2  2  0
  2  3  1  0
  3  4  1  0
  4  5  2  0
  5  6  1  0
  6  7  2  0
  7  8  1  0
  8  9  2  0
  8 10  1  0
 10 11  1  0
 11 12  1  0
  2 13  1  0
 13 14  2  0
 14 15  1  0
 15 16  1  0
 15 17  2  0
 17 18  1  0
 18 19  2  0
 19 20  1  0
 20 21  1  0
 21 22  2  0
 19 23  1  0
 23 24  2  0
 23 25  1  0
  9  4  1  0
 22 13  1  0
 12  7  1  0
 25 17  1  0
 22 18  1  0
M  END
>  <smiles>  (1182) 
C18636-P178

>  <fragmenstein_outcome>  (1182) 
acceptable

>  <inchikey>  (1182) 
LNSUTYDCFRSLPH-UHFFFAOYSA-N

>  <fragmenstein_mode>  (1182) 
expansion

>  <HIPPO Pose ID>  (1182) 
20602

>  <Energy>  (1182) 
81.498957

>  <fragmenstein_error>  (1182) 


>  <tags>  (1182) 
{'openbind_xx01zvns2b_c1_fragmenstein', 'fragmenstein_placed'}

>  <ref_pdb>  (1182) 
175

>  <scratch_subdir>  (1182) 
/opt/xchem-fragalysis-2/maxwin/BulkDock/SCRATCH/511028/C18636-P178

>  <alias>  (1182) 
O=C(Nc1ccc2c(c1)CNC2)c1cc(F)c2c3c([nH]cc13)C(=O)N2

>  <HIPPO Compound ID>  (1182) 
29550

>  <fragmenstein_runtime>  (1182) 
4.414815

$$$$
CN1CCC2(CC1)C(=O)Nc1ccc(C(=O)Nc3ccc4c(c3)CNC4)cc12
     RDKit          3D

 28 32  0  0  0  0  0  0  0  0999 V2000
   -2.8401    8.2945  -17.3097 C   0  0  0  0  0  0  0  0  0  0  0  0
   -3.5929    7.3230  -18.1043 N   0  0  0  0  0  0  0  0  0  0  0  0
   -3.4981    5.9887  -17.5062 C   0  0  0  0  0  0  0  0  0  0  0  0
   -4.2357    4.9532  -18.3506 C   0  0  0  0  0  0  0  0  0  0  0  0
   -5.6916    5.3053  -18.6433 C   0  0  0  0  0  0  0  0  0  0  0  0
   -5.7766    6.7649  -19.1120 C   0  0  0  0  0  0  0  0  0  0  0  0
   -4.9913    7.7367  -18.2343 C   0  0  0  0  0  0  0  0  0  0  0  0
   -6.2922    4.4172  -19.7849 C   0  0  0  0  0  0  0  0  0  0  0  0
   -5.8325    4.2088  -20.8978 O   0  0  0  0  0  0  0  0  0  0  0  0
   -7.4952    3.8992  -19.3251 N   0  0  0  0  0  0  0  0  0  0  0  0
   -7.6959    4.1996  -17.9937 C   0  0  0  0  0  0  0  0  0  0  0  0
   -8.7510    3.7764  -17.2155 C   0  0  0  0  0  0  0  0  0  0  0  0
   -8.7295    4.1214  -15.8647 C   0  0  0  0  0  0  0  0  0  0  0  0
   -7.6760    4.8890  -15.3377 C   0  0  0  0  0  0  0  0  0  0  0  0
   -7.7035    5.3597  -13.9232 C   0  0  0  0  0  0  0  0  0  0  0  0
   -7.5071    6.4944  -13.7233 O   0  0  0  0  0  0  0  0  0  0  0  0
   -8.0690    4.2169  -12.9445 N   0  0  0  0  0  0  0  0  0  0  0  0
   -8.1719    4.2136  -11.5541 C   0  0  0  0  0  0  0  0  0  0  0  0
   -7.9915    5.3853  -10.8026 C   0  0  0  0  0  0  0  0  0  0  0  0
   -8.1350    5.3732   -9.4101 C   0  0  0  0  0  0  0  0  0  0  0  0
   -8.4678    4.1800   -8.7959 C   0  0  0  0  0  0  0  0  0  0  0  0
   -8.6332    3.0143   -9.5357 C   0  0  0  0  0  0  0  0  0  0  0  0
   -8.4820    3.0101  -10.9124 C   0  0  0  0  0  0  0  0  0  0  0  0
   -8.9654    1.8903   -8.6105 C   0  0  0  0  0  0  0  0  0  0  0  0
   -9.3435    2.5434   -7.3273 N   0  0  0  0  0  0  0  0  0  0  0  0
   -8.6962    3.8744   -7.3541 C   0  0  0  0  0  0  0  0  0  0  0  0
   -6.6321    5.3319  -16.1644 C   0  0  0  0  0  0  0  0  0  0  0  0
   -6.6480    4.9816  -17.5054 C   0  0  0  0  0  0  0  0  0  0  0  0
  1  2  1  0
  2  3  1  0
  3  4  1  0
  4  5  1  0
  5  6  1  0
  6  7  1  0
  5  8  1  0
  8  9  2  0
  8 10  1  0
 10 11  1  0
 11 12  2  0
 12 13  1  0
 13 14  2  0
 14 15  1  0
 15 16  2  0
 15 17  1  0
 17 18  1  0
 18 19  2  0
 19 20  1  0
 20 21  2  0
 21 22  1  0
 22 23  2  0
 22 24  1  0
 24 25  1  0
 25 26  1  0
 14 27  1  0
 27 28  2  0
  7  2  1  0
 28 11  1  0
 28  5  1  0
 23 18  1  0
 26 21  1  0
M  END
>  <smiles>  (1183) 
C18629-P178

>  <fragmenstein_outcome>  (1183) 
acceptable

>  <inchikey>  (1183) 
ILDVLUSBXLVHMO-UHFFFAOYSA-N

>  <fragmenstein_mode>  (1183) 
expansion

>  <HIPPO Pose ID>  (1183) 
20604

>  <Energy>  (1183) 
51.24779

>  <fragmenstein_error>  (1183) 


>  <tags>  (1183) 
{'openbind_xx01zvns2b_c1_fragmenstein', 'fragmenstein_placed'}

>  <ref_pdb>  (1183) 
175

>  <scratch_subdir>  (1183) 
/opt/xchem-fragalysis-2/maxwin/BulkDock/SCRATCH/511028/C18629-P178

>  <alias>  (1183) 
CN1CCC2(CC1)C(=O)Nc1ccc(C(=O)Nc3ccc4c(c3)CNC4)cc12

>  <HIPPO Compound ID>  (1183) 
24728

>  <fragmenstein_runtime>  (1183) 
5.539008

$$$$
O=C(Nc1ccc2c(c1)CNC2)c1cc(Br)c2c3c(n(C4CNC4)cc13)C(=O)N2
     RDKit          3D

 29 34  0  0  0  0  0  0  0  0999 V2000
   -6.3102    6.2407  -13.5763 O   0  0  0  0  0  0  0  0  0  0  0  0
   -6.8591    5.2389  -13.8213 C   0  0  0  0  0  0  0  0  0  0  0  0
   -7.5493    4.2162  -12.8832 N   0  0  0  0  0  0  0  0  0  0  0  0
   -7.7811    4.2609  -11.5094 C   0  0  0  0  0  0  0  0  0  0  0  0
   -7.5103    5.4167  -10.7628 C   0  0  0  0  0  0  0  0  0  0  0  0
   -7.7503    5.4520   -9.3849 C   0  0  0  0  0  0  0  0  0  0  0  0
   -8.2394    4.3125   -8.7740 C   0  0  0  0  0  0  0  0  0  0  0  0
   -8.5167    3.1682   -9.5105 C   0  0  0  0  0  0  0  0  0  0  0  0
   -8.3095    3.1273  -10.8810 C   0  0  0  0  0  0  0  0  0  0  0  0
   -9.0517    2.1156   -8.6005 C   0  0  0  0  0  0  0  0  0  0  0  0
   -8.8445    2.6241   -7.2161 N   0  0  0  0  0  0  0  0  0  0  0  0
   -8.5661    4.0718   -7.3411 C   0  0  0  0  0  0  0  0  0  0  0  0
   -7.0378    4.8540  -15.2272 C   0  0  0  0  0  0  0  0  0  0  0  0
   -8.3290    4.4883  -15.7811 C   0  0  0  0  0  0  0  0  0  0  0  0
   -8.5776    4.2277  -17.1935 C   0  0  0  0  0  0  0  0  0  0  0  0
  -10.3075    4.0452  -17.8466 Br  0  0  0  0  0  0  0  0  0  0  0  0
   -7.5713    4.2598  -18.1277 C   0  0  0  0  0  0  0  0  0  0  0  0
   -6.4288    4.6350  -17.5343 C   0  0  0  0  0  0  0  0  0  0  0  0
   -5.4768    4.7880  -18.4716 C   0  0  0  0  0  0  0  0  0  0  0  0
   -4.3947    5.2051  -17.7515 N   0  0  0  0  0  0  0  0  0  0  0  0
   -3.0540    5.3971  -18.3421 C   0  0  0  0  0  0  0  0  0  0  0  0
   -3.0320    6.5005  -19.4237 C   0  0  0  0  0  0  0  0  0  0  0  0
   -2.5871    7.4706  -18.3940 N   0  0  0  0  0  0  0  0  0  0  0  0
   -2.0974    6.3347  -17.5815 C   0  0  0  0  0  0  0  0  0  0  0  0
   -4.7470    5.2886  -16.3754 C   0  0  0  0  0  0  0  0  0  0  0  0
   -6.0805    4.9464  -16.2460 C   0  0  0  0  0  0  0  0  0  0  0  0
   -6.0117    4.4654  -19.7724 C   0  0  0  0  0  0  0  0  0  0  0  0
   -5.4767    4.4730  -20.8673 O   0  0  0  0  0  0  0  0  0  0  0  0
   -7.3525    4.1256  -19.4940 N   0  0  0  0  0  0  0  0  0  0  0  0
  1  2  2  0
  2  3  1  0
  3  4  1  0
  4  5  2  0
  5  6  1  0
  6  7  2  0
  7  8  1  0
  8  9  2  0
  8 10  1  0
 10 11  1  0
 11 12  1  0
  2 13  1  0
 13 14  2  0
 14 15  1  0
 15 16  1  0
 15 17  2  0
 17 18  1  0
 18 19  2  0
 19 20  1  0
 20 21  1  0
 21 22  1  0
 22 23  1  0
 23 24  1  0
 20 25  1  0
 25 26  2  0
 19 27  1  0
 27 28  2  0
 27 29  1  0
  9  4  1  0
 26 13  1  0
 12  7  1  0
 29 17  1  0
 26 18  1  0
 24 21  1  0
M  END
>  <smiles>  (1184) 
C18640-P178

>  <fragmenstein_outcome>  (1184) 
acceptable

>  <inchikey>  (1184) 
OUQDLIWACPBGGV-UHFFFAOYSA-N

>  <fragmenstein_mode>  (1184) 
expansion

>  <HIPPO Pose ID>  (1184) 
20605

>  <Energy>  (1184) 
93.974326

>  <fragmenstein_error>  (1184) 


>  <tags>  (1184) 
{'openbind_xx01zvns2b_c1_fragmenstein', 'fragmenstein_placed'}

>  <ref_pdb>  (1184) 
175

>  <scratch_subdir>  (1184) 
/opt/xchem-fragalysis-2/maxwin/BulkDock/SCRATCH/511028/C18640-P178

>  <alias>  (1184) 
O=C(Nc1ccc2c(c1)CNC2)c1cc(Br)c2c3c(n(C4CNC4)cc13)C(=O)N2

>  <HIPPO Compound ID>  (1184) 
18640

>  <fragmenstein_runtime>  (1184) 
3.668686

$$$$
O=C1Nc2c(Cl)cc([C@@](O)(Nc3ccc4c(c3)CNC4)C(=O)NCC(F)F)c3nccc1c23
     RDKit          3D

 33 37  0  0  0  0  0  0  0  0999 V2000
   -5.6192    4.4187  -20.6690 O   0  0  0  0  0  0  0  0  0  0  0  0
   -6.1563    4.4396  -19.5807 C   0  0  0  0  0  0  0  0  0  0  0  0
   -7.4698    4.1523  -19.2688 N   0  0  0  0  0  0  0  0  0  0  0  0
   -7.6529    4.2870  -17.8966 C   0  0  0  0  0  0  0  0  0  0  0  0
   -8.7700    4.1621  -17.1273 C   0  0  0  0  0  0  0  0  0  0  0  0
  -10.2821    3.9355  -17.8535 Cl  0  0  0  0  0  0  0  0  0  0  0  0
   -8.6394    4.3448  -15.7489 C   0  0  0  0  0  0  0  0  0  0  0  0
   -7.3993    4.7086  -15.1358 C   0  0  0  0  0  0  0  0  0  0  0  0
   -7.3985    5.0457  -13.6405 C   0  0  1  0  0  0  0  0  0  0  0  0
   -8.2633    6.1751  -13.5585 O   0  0  0  0  0  0  0  0  0  0  0  0
   -7.9765    3.9442  -12.8526 N   0  0  0  0  0  0  0  0  0  0  0  0
   -8.1831    4.0325  -11.4660 C   0  0  0  0  0  0  0  0  0  0  0  0
   -8.0157    5.2034  -10.6988 C   0  0  0  0  0  0  0  0  0  0  0  0
   -8.1848    5.2159   -9.3076 C   0  0  0  0  0  0  0  0  0  0  0  0
   -8.5066    4.0343   -8.6765 C   0  0  0  0  0  0  0  0  0  0  0  0
   -8.6677    2.8693   -9.4053 C   0  0  0  0  0  0  0  0  0  0  0  0
   -8.5145    2.8527  -10.7847 C   0  0  0  0  0  0  0  0  0  0  0  0
   -9.0026    1.7484   -8.4855 C   0  0  0  0  0  0  0  0  0  0  0  0
   -8.9503    2.3039   -7.1042 N   0  0  0  0  0  0  0  0  0  0  0  0
   -8.7512    3.7635   -7.2347 C   0  0  0  0  0  0  0  0  0  0  0  0
   -5.9407    5.3852  -13.0526 C   0  0  0  0  0  0  0  0  0  0  0  0
   -5.5784    6.4901  -12.8962 O   0  0  0  0  0  0  0  0  0  0  0  0
   -5.2094    4.0346  -12.7826 N   0  0  0  0  0  0  0  0  0  0  0  0
   -3.9282    3.7690  -12.1798 C   0  0  0  0  0  0  0  0  0  0  0  0
   -2.7769    4.5439  -12.8104 C   0  0  0  0  0  0  0  0  0  0  0  0
   -1.6552    4.3738  -12.0578 F   0  0  0  0  0  0  0  0  0  0  0  0
   -2.4813    4.0323  -14.0352 F   0  0  0  0  0  0  0  0  0  0  0  0
   -6.2676    4.8860  -15.9606 C   0  0  0  0  0  0  0  0  0  0  0  0
   -5.0216    5.2842  -15.6144 N   0  0  0  0  0  0  0  0  0  0  0  0
   -4.0612    5.4027  -16.5833 C   0  0  0  0  0  0  0  0  0  0  0  0
   -4.2561    5.1664  -17.9373 C   0  0  0  0  0  0  0  0  0  0  0  0
   -5.5231    4.7776  -18.2804 C   0  0  0  0  0  0  0  0  0  0  0  0
   -6.4792    4.6455  -17.3135 C   0  0  0  0  0  0  0  0  0  0  0  0
  1  2  2  0
  2  3  1  0
  3  4  1  0
  4  5  2  0
  5  6  1  0
  5  7  1  0
  7  8  2  0
  8  9  1  0
  9 10  1  6
  9 11  1  0
 11 12  1  0
 12 13  2  0
 13 14  1  0
 14 15  2  0
 15 16  1  0
 16 17  2  0
 16 18  1  0
 18 19  1  0
 19 20  1  0
  9 21  1  0
 21 22  2  0
 21 23  1  0
 23 24  1  0
 24 25  1  0
 25 26  1  0
 25 27  1  0
  8 28  1  0
 28 29  2  0
 29 30  1  0
 30 31  2  0
 31 32  1  0
 32 33  2  0
 32  2  1  0
 33  4  1  0
 17 12  1  0
 33 28  1  0
 20 15  1  0
M  END
>  <smiles>  (1185) 
C18641-P178

>  <fragmenstein_outcome>  (1185) 
acceptable

>  <inchikey>  (1185) 
FBMWPVHSXRVSLI-UHFFFAOYSA-N

>  <fragmenstein_mode>  (1185) 
expansion

>  <HIPPO Pose ID>  (1185) 
20606

>  <Energy>  (1185) 
113.633919

>  <fragmenstein_error>  (1185) 


>  <tags>  (1185) 
{'openbind_xx01zvns2b_c1_fragmenstein', 'fragmenstein_placed'}

>  <ref_pdb>  (1185) 
175

>  <scratch_subdir>  (1185) 
/opt/xchem-fragalysis-2/maxwin/BulkDock/SCRATCH/511028/C18641-P178

>  <alias>  (1185) 
O=C1Nc2c(Cl)cc([C@@](O)(Nc3ccc4c(c3)CNC4)C(=O)NCC(F)F)c3nccc1c23

>  <HIPPO Compound ID>  (1185) 
36226

>  <fragmenstein_runtime>  (1185) 
5.465255

$$$$
O=C(Nc1ccc2c(c1)CNC2)c1cc(Cl)c2c(c1)[C@@H](CC1CCNCC1)C(=O)N2
     RDKit          3D

 30 34  0  0  0  0  0  0  0  0999 V2000
   -6.8046    6.4454  -13.6031 O   0  0  0  0  0  0  0  0  0  0  0  0
   -7.1979    5.3730  -13.8513 C   0  0  0  0  0  0  0  0  0  0  0  0
   -7.8023    4.2850  -12.9259 N   0  0  0  0  0  0  0  0  0  0  0  0
   -7.9545    4.2573  -11.5396 C   0  0  0  0  0  0  0  0  0  0  0  0
   -7.7757    5.4109  -10.7615 C   0  0  0  0  0  0  0  0  0  0  0  0
   -7.9945    5.3830   -9.3788 C   0  0  0  0  0  0  0  0  0  0  0  0
   -8.3920    4.1914   -8.8003 C   0  0  0  0  0  0  0  0  0  0  0  0
   -8.5568    3.0428   -9.5661 C   0  0  0  0  0  0  0  0  0  0  0  0
   -8.3453    3.0566  -10.9353 C   0  0  0  0  0  0  0  0  0  0  0  0
   -8.9499    1.9120   -8.6733 C   0  0  0  0  0  0  0  0  0  0  0  0
   -9.3579    2.5501   -7.3918 N   0  0  0  0  0  0  0  0  0  0  0  0
   -8.6880    3.8700   -7.3742 C   0  0  0  0  0  0  0  0  0  0  0  0
   -7.2452    4.9514  -15.2820 C   0  0  0  0  0  0  0  0  0  0  0  0
   -8.4384    4.3956  -15.7787 C   0  0  0  0  0  0  0  0  0  0  0  0
   -8.5617    4.1280  -17.1346 C   0  0  0  0  0  0  0  0  0  0  0  0
  -10.0532    3.6820  -17.8044 Cl  0  0  0  0  0  0  0  0  0  0  0  0
   -7.4903    4.3707  -17.9600 C   0  0  0  0  0  0  0  0  0  0  0  0
   -6.3287    4.9812  -17.5024 C   0  0  0  0  0  0  0  0  0  0  0  0
   -6.1889    5.2810  -16.1531 C   0  0  0  0  0  0  0  0  0  0  0  0
   -5.4813    5.3300  -18.7057 C   0  0  1  0  0  0  0  0  0  0  0  0
   -3.9830    5.0930  -18.5644 C   0  0  0  0  0  0  0  0  0  0  0  0
   -3.1393    5.7821  -19.6592 C   0  0  0  0  0  0  0  0  0  0  0  0
   -1.6587    5.3807  -19.5442 C   0  0  0  0  0  0  0  0  0  0  0  0
   -0.8587    6.3748  -18.7097 C   0  0  0  0  0  0  0  0  0  0  0  0
   -0.8779    7.7389  -19.2452 N   0  0  0  0  0  0  0  0  0  0  0  0
   -2.0304    8.0203  -20.1041 C   0  0  0  0  0  0  0  0  0  0  0  0
   -3.2956    7.3146  -19.6256 C   0  0  0  0  0  0  0  0  0  0  0  0
   -6.1791    4.5143  -19.8298 C   0  0  0  0  0  0  0  0  0  0  0  0
   -5.7895    4.2946  -20.9654 O   0  0  0  0  0  0  0  0  0  0  0  0
   -7.3948    4.0963  -19.3149 N   0  0  0  0  0  0  0  0  0  0  0  0
  1  2  2  0
  2  3  1  0
  3  4  1  0
  4  5  2  0
  5  6  1  0
  6  7  2  0
  7  8  1  0
  8  9  2  0
  8 10  1  0
 10 11  1  0
 11 12  1  0
  2 13  1  0
 13 14  2  0
 14 15  1  0
 15 16  1  0
 15 17  2  0
 17 18  1  0
 18 19  2  0
 18 20  1  0
 20 21  1  1
 21 22  1  0
 22 23  1  0
 23 24  1  0
 24 25  1  0
 25 26  1  0
 26 27  1  0
 20 28  1  0
 28 29  2  0
 28 30  1  0
  9  4  1  0
 19 13  1  0
 27 22  1  0
 12  7  1  0
 30 17  1  0
M  END
>  <smiles>  (1186) 
C18644-P178

>  <fragmenstein_outcome>  (1186) 
acceptable

>  <inchikey>  (1186) 
GGAFUEWXMOTASM-UHFFFAOYSA-N

>  <fragmenstein_mode>  (1186) 
expansion

>  <HIPPO Pose ID>  (1186) 
20607

>  <Energy>  (1186) 
67.922201

>  <fragmenstein_error>  (1186) 


>  <tags>  (1186) 
{'openbind_xx01zvns2b_c1_fragmenstein', 'fragmenstein_placed'}

>  <ref_pdb>  (1186) 
175

>  <scratch_subdir>  (1186) 
/opt/xchem-fragalysis-2/maxwin/BulkDock/SCRATCH/511028/C18644-P178

>  <alias>  (1186) 
O=C(Nc1ccc2c(c1)CNC2)c1cc(Cl)c2c(c1)[C@@H](CC1CCNCC1)C(=O)N2

>  <HIPPO Compound ID>  (1186) 
18844

>  <fragmenstein_runtime>  (1186) 
4.687061

$$$$
CN(C)C[C@H]1C(=O)Nc2ccc(C(=O)Nc3ccc4c(c3)CNC4)cc21
     RDKit          3D

 26 29  0  0  0  0  0  0  0  0999 V2000
   -2.2099    5.8113  -17.3637 C   0  0  0  0  0  0  0  0  0  0  0  0
   -3.5977    6.2003  -17.6202 N   0  0  0  0  0  0  0  0  0  0  0  0
   -4.0689    7.0588  -16.5431 C   0  0  0  0  0  0  0  0  0  0  0  0
   -4.4199    5.0085  -17.9117 C   0  0  0  0  0  0  0  0  0  0  0  0
   -5.8525    5.3004  -18.3720 C   0  0  1  0  0  0  0  0  0  0  0  0
   -6.3489    4.4377  -19.5683 C   0  0  0  0  0  0  0  0  0  0  0  0
   -5.8047    4.2623  -20.6478 O   0  0  0  0  0  0  0  0  0  0  0  0
   -7.5746    3.8887  -19.1996 N   0  0  0  0  0  0  0  0  0  0  0  0
   -7.8593    4.1540  -17.8745 C   0  0  0  0  0  0  0  0  0  0  0  0
   -8.9243    3.6938  -17.1414 C   0  0  0  0  0  0  0  0  0  0  0  0
   -8.9533    4.0172  -15.7806 C   0  0  0  0  0  0  0  0  0  0  0  0
   -7.9580    4.8155  -15.2011 C   0  0  0  0  0  0  0  0  0  0  0  0
   -8.0145    5.2944  -13.7935 C   0  0  0  0  0  0  0  0  0  0  0  0
   -7.7826    6.4215  -13.5951 O   0  0  0  0  0  0  0  0  0  0  0  0
   -8.3488    4.1536  -12.8098 N   0  0  0  0  0  0  0  0  0  0  0  0
   -8.3743    4.1381  -11.4168 C   0  0  0  0  0  0  0  0  0  0  0  0
   -8.1810    5.3145  -10.6735 C   0  0  0  0  0  0  0  0  0  0  0  0
   -8.2554    5.3006   -9.2769 C   0  0  0  0  0  0  0  0  0  0  0  0
   -8.5457    4.1028   -8.6521 C   0  0  0  0  0  0  0  0  0  0  0  0
   -8.7200    2.9336   -9.3856 C   0  0  0  0  0  0  0  0  0  0  0  0
   -8.6207    2.9278  -10.7659 C   0  0  0  0  0  0  0  0  0  0  0  0
   -9.0154    1.8089   -8.4507 C   0  0  0  0  0  0  0  0  0  0  0  0
   -9.3753    2.4634   -7.1633 N   0  0  0  0  0  0  0  0  0  0  0  0
   -8.7335    3.7970   -7.2047 C   0  0  0  0  0  0  0  0  0  0  0  0
   -6.9020    5.2795  -15.9786 C   0  0  0  0  0  0  0  0  0  0  0  0
   -6.8626    4.9425  -17.3172 C   0  0  0  0  0  0  0  0  0  0  0  0
  1  2  1  0
  2  3  1  0
  2  4  1  0
  5  4  1  1
  5  6  1  0
  6  7  2  0
  6  8  1  0
  8  9  1  0
  9 10  2  0
 10 11  1  0
 11 12  2  0
 12 13  1  0
 13 14  2  0
 13 15  1  0
 15 16  1  0
 16 17  2  0
 17 18  1  0
 18 19  2  0
 19 20  1  0
 20 21  2  0
 20 22  1  0
 22 23  1  0
 23 24  1  0
 12 25  1  0
 25 26  2  0
 26  5  1  0
 26  9  1  0
 21 16  1  0
 24 19  1  0
M  END
>  <smiles>  (1187) 
C18645-P178

>  <fragmenstein_outcome>  (1187) 
acceptable

>  <inchikey>  (1187) 
IUVZMVXGFAOWKY-UHFFFAOYSA-N

>  <fragmenstein_mode>  (1187) 
expansion

>  <HIPPO Pose ID>  (1187) 
20608

>  <Energy>  (1187) 
75.175311

>  <fragmenstein_error>  (1187) 


>  <tags>  (1187) 
{'openbind_xx01zvns2b_c1_fragmenstein', 'fragmenstein_placed'}

>  <ref_pdb>  (1187) 
175

>  <scratch_subdir>  (1187) 
/opt/xchem-fragalysis-2/maxwin/BulkDock/SCRATCH/511028/C18645-P178

>  <alias>  (1187) 
CN(C)C[C@H]1C(=O)Nc2ccc(C(=O)Nc3ccc4c(c3)CNC4)cc21

>  <HIPPO Compound ID>  (1187) 
18645

>  <fragmenstein_runtime>  (1187) 
4.821314

$$$$
O=C(Nc1cc(F)c2c(c1)CN[C@@]21CCCC1=O)c1cc(Cl)c2c3c([nH]cc13)C(=O)N2
     RDKit          3D

 31 36  0  0  0  0  0  0  0  0999 V2000
   -6.9421    6.4393  -13.3522 O   0  0  0  0  0  0  0  0  0  0  0  0
   -7.3584    5.3669  -13.5532 C   0  0  0  0  0  0  0  0  0  0  0  0
   -8.0327    4.3577  -12.5950 N   0  0  0  0  0  0  0  0  0  0  0  0
   -8.2417    4.4175  -11.2205 C   0  0  0  0  0  0  0  0  0  0  0  0
   -7.9531    5.5979  -10.5206 C   0  0  0  0  0  0  0  0  0  0  0  0
   -8.0582    5.6372   -9.1364 C   0  0  0  0  0  0  0  0  0  0  0  0
   -7.7175    6.7519   -8.4766 F   0  0  0  0  0  0  0  0  0  0  0  0
   -8.4313    4.5024   -8.4533 C   0  0  0  0  0  0  0  0  0  0  0  0
   -8.7770    3.3468   -9.1530 C   0  0  0  0  0  0  0  0  0  0  0  0
   -8.6971    3.2858  -10.5384 C   0  0  0  0  0  0  0  0  0  0  0  0
   -9.1881    2.2909   -8.1851 C   0  0  0  0  0  0  0  0  0  0  0  0
   -8.6773    2.7429   -6.8615 N   0  0  0  0  0  0  0  0  0  0  0  0
   -8.3682    4.2026   -6.9990 C   0  0  1  0  0  0  0  0  0  0  0  0
   -7.0025    4.5866   -6.4143 C   0  0  0  0  0  0  0  0  0  0  0  0
   -7.1816    4.4595   -4.9043 C   0  0  0  0  0  0  0  0  0  0  0  0
   -8.5346    5.0958   -4.6531 C   0  0  0  0  0  0  0  0  0  0  0  0
   -9.2101    4.9831   -6.0029 C   0  0  0  0  0  0  0  0  0  0  0  0
  -10.2931    5.5161   -6.1965 O   0  0  0  0  0  0  0  0  0  0  0  0
   -7.3286    4.8786  -14.9341 C   0  0  0  0  0  0  0  0  0  0  0  0
   -8.4958    4.4247  -15.6571 C   0  0  0  0  0  0  0  0  0  0  0  0
   -8.5592    4.2397  -17.1101 C   0  0  0  0  0  0  0  0  0  0  0  0
  -10.0621    3.9002  -17.8384 Cl  0  0  0  0  0  0  0  0  0  0  0  0
   -7.4569    4.4494  -17.9188 C   0  0  0  0  0  0  0  0  0  0  0  0
   -6.4111    4.8004  -17.1480 C   0  0  0  0  0  0  0  0  0  0  0  0
   -5.3858    5.1841  -17.9271 C   0  0  0  0  0  0  0  0  0  0  0  0
   -4.4355    5.6255  -17.0516 N   0  0  0  0  0  0  0  0  0  0  0  0
   -4.9764    5.5717  -15.7375 C   0  0  0  0  0  0  0  0  0  0  0  0
   -6.2565    5.0569  -15.8117 C   0  0  0  0  0  0  0  0  0  0  0  0
   -5.7442    5.0552  -19.3140 C   0  0  0  0  0  0  0  0  0  0  0  0
   -5.0914    5.3633  -20.2941 O   0  0  0  0  0  0  0  0  0  0  0  0
   -7.0721    4.5665  -19.2593 N   0  0  0  0  0  0  0  0  0  0  0  0
  1  2  2  0
  2  3  1  0
  3  4  1  0
  4  5  2  0
  5  6  1  0
  6  7  1  0
  6  8  2  0
  8  9  1  0
  9 10  2  0
  9 11  1  0
 11 12  1  0
 12 13  1  0
 13 14  1  1
 14 15  1  0
 15 16  1  0
 16 17  1  0
 17 18  2  0
  2 19  1  0
 19 20  2  0
 20 21  1  0
 21 22  1  0
 21 23  2  0
 23 24  1  0
 24 25  2  0
 25 26  1  0
 26 27  1  0
 27 28  2  0
 25 29  1  0
 29 30  2  0
 29 31  1  0
 10  4  1  0
 17 13  1  0
 28 19  1  0
 13  8  1  0
 31 23  1  0
 28 24  1  0
M  END
>  <smiles>  (1188) 
C18647-P178

>  <fragmenstein_outcome>  (1188) 
acceptable

>  <inchikey>  (1188) 
RADGVWRQZIHZSL-UHFFFAOYSA-N

>  <fragmenstein_mode>  (1188) 
expansion

>  <HIPPO Pose ID>  (1188) 
20609

>  <Energy>  (1188) 
125.509302

>  <fragmenstein_error>  (1188) 


>  <tags>  (1188) 
{'openbind_xx01zvns2b_c1_fragmenstein', 'fragmenstein_placed'}

>  <ref_pdb>  (1188) 
175

>  <scratch_subdir>  (1188) 
/opt/xchem-fragalysis-2/maxwin/BulkDock/SCRATCH/511028/C18647-P178

>  <alias>  (1188) 
O=C(Nc1cc(F)c2c(c1)CN[C@@]21CCCC1=O)c1cc(Cl)c2c3c([nH]cc13)C(=O)N2

>  <HIPPO Compound ID>  (1188) 
18647

>  <fragmenstein_runtime>  (1188) 
5.697634

$$$$
CNC[C@]12NCc3c(C(=O)N[C@@H]4CC5=C(CNC5)C[C@]45CCCC5=O)cc(Cl)c(c31)NC2=O
     RDKit          3D

 33 38  0  0  0  0  0  0  0  0999 V2000
   -2.4580    6.1991  -19.9701 C   0  0  0  0  0  0  0  0  0  0  0  0
   -2.3781    5.6152  -18.6350 N   0  0  0  0  0  0  0  0  0  0  0  0
   -3.5407    4.7394  -18.3505 C   0  0  0  0  0  0  0  0  0  0  0  0
   -4.9645    5.3636  -18.3074 C   0  0  2  0  0  0  0  0  0  0  0  0
   -4.9291    6.7453  -17.7002 N   0  0  0  0  0  0  0  0  0  0  0  0
   -5.0103    6.4636  -16.1953 C   0  0  0  0  0  0  0  0  0  0  0  0
   -5.9541    5.3033  -16.1082 C   0  0  0  0  0  0  0  0  0  0  0  0
   -6.9725    4.9644  -15.2367 C   0  0  0  0  0  0  0  0  0  0  0  0
   -6.9790    5.4731  -13.8514 C   0  0  0  0  0  0  0  0  0  0  0  0
   -6.9301    6.6224  -13.6708 O   0  0  0  0  0  0  0  0  0  0  0  0
   -7.1129    4.3104  -12.8511 N   0  0  0  0  0  0  0  0  0  0  0  0
   -7.1196    4.3110  -11.3784 C   0  0  2  0  0  0  0  0  0  0  0  0
   -8.0775    3.1666  -10.9269 C   0  0  0  0  0  0  0  0  0  0  0  0
   -8.3983    3.1978   -9.4809 C   0  0  0  0  0  0  0  0  0  0  0  0
   -8.1227    4.2134   -8.6680 C   0  0  0  0  0  0  0  0  0  0  0  0
   -8.5598    3.9037   -7.2837 C   0  0  0  0  0  0  0  0  0  0  0  0
   -9.3040    2.6369   -7.3864 N   0  0  0  0  0  0  0  0  0  0  0  0
   -8.9937    2.0709   -8.7186 C   0  0  0  0  0  0  0  0  0  0  0  0
   -7.4007    5.4393   -9.0816 C   0  0  0  0  0  0  0  0  0  0  0  0
   -7.3804    5.6497  -10.6283 C   0  0  2  0  0  0  0  0  0  0  0  0
   -8.6355    6.4149  -11.0672 C   0  0  0  0  0  0  0  0  0  0  0  0
   -8.3446    7.8907  -10.8053 C   0  0  0  0  0  0  0  0  0  0  0  0
   -6.8553    8.0796  -11.0517 C   0  0  0  0  0  0  0  0  0  0  0  0
   -6.2953    6.6894  -10.8671 C   0  0  0  0  0  0  0  0  0  0  0  0
   -5.0905    6.4560  -10.8402 O   0  0  0  0  0  0  0  0  0  0  0  0
   -8.0985    4.2777  -15.7471 C   0  0  0  0  0  0  0  0  0  0  0  0
   -8.1842    4.0085  -17.1251 C   0  0  0  0  0  0  0  0  0  0  0  0
   -9.6600    3.5385  -17.8245 Cl  0  0  0  0  0  0  0  0  0  0  0  0
   -7.0892    4.2750  -17.9200 C   0  0  0  0  0  0  0  0  0  0  0  0
   -5.9393    4.7461  -17.3569 C   0  0  0  0  0  0  0  0  0  0  0  0
   -6.9686    4.4260  -19.2937 N   0  0  0  0  0  0  0  0  0  0  0  0
   -5.7713    5.0907  -19.6360 C   0  0  0  0  0  0  0  0  0  0  0  0
   -5.4351    5.3310  -20.7859 O   0  0  0  0  0  0  0  0  0  0  0  0
  1  2  1  0
  2  3  1  0
  4  3  1  6
  4  5  1  0
  5  6  1  0
  6  7  1  0
  7  8  2  0
  8  9  1  0
  9 10  2  0
  9 11  1  0
 12 11  1  6
 12 13  1  0
 13 14  1  0
 14 15  2  0
 15 16  1  0
 16 17  1  0
 17 18  1  0
 15 19  1  0
 20 19  1  1
 20 21  1  0
 21 22  1  0
 22 23  1  0
 23 24  1  0
 24 25  2  0
  8 26  1  0
 26 27  2  0
 27 28  1  0
 27 29  1  0
 29 30  2  0
 29 31  1  0
 31 32  1  0
 32 33  2  0
 30  4  1  0
 32  4  1  0
 30  7  1  0
 20 12  1  0
 18 14  1  0
 24 20  1  0
M  END
>  <smiles>  (1189) 
C18649-P178

>  <fragmenstein_outcome>  (1189) 
acceptable

>  <inchikey>  (1189) 
ZORNLLODVNZSDD-UHFFFAOYSA-N

>  <fragmenstein_mode>  (1189) 
expansion

>  <HIPPO Pose ID>  (1189) 
20610

>  <Energy>  (1189) 
151.630162

>  <fragmenstein_error>  (1189) 


>  <tags>  (1189) 
{'openbind_xx01zvns2b_c1_fragmenstein', 'fragmenstein_placed'}

>  <ref_pdb>  (1189) 
175

>  <scratch_subdir>  (1189) 
/opt/xchem-fragalysis-2/maxwin/BulkDock/SCRATCH/511028/C18649-P178

>  <alias>  (1189) 
CNC[C@]12NCc3c(C(=O)N[C@@H]4CC5=C(CNC5)C[C@]45CCCC5=O)cc(Cl)c(c31)NC2=O

>  <HIPPO Compound ID>  (1189) 
18649

>  <fragmenstein_runtime>  (1189) 
6.733515

$$$$
O=C(Nc1ccc2c(c1)CNC2)c1cc(Cl)c2c3c([nH]cc13)C(=O)N2
     RDKit          3D

 25 29  0  0  0  0  0  0  0  0999 V2000
   -6.5772    6.3637  -13.6147 O   0  0  0  0  0  0  0  0  0  0  0  0
   -7.0713    5.3312  -13.8489 C   0  0  0  0  0  0  0  0  0  0  0  0
   -7.6801    4.2698  -12.8971 N   0  0  0  0  0  0  0  0  0  0  0  0
   -7.8848    4.3012  -11.5188 C   0  0  0  0  0  0  0  0  0  0  0  0
   -7.6361    5.4607  -10.7706 C   0  0  0  0  0  0  0  0  0  0  0  0
   -7.8454    5.4786   -9.3873 C   0  0  0  0  0  0  0  0  0  0  0  0
   -8.2863    4.3206   -8.7739 C   0  0  0  0  0  0  0  0  0  0  0  0
   -8.5415    3.1724   -9.5120 C   0  0  0  0  0  0  0  0  0  0  0  0
   -8.3579    3.1457  -10.8860 C   0  0  0  0  0  0  0  0  0  0  0  0
   -9.0325    2.0995   -8.6012 C   0  0  0  0  0  0  0  0  0  0  0  0
   -8.8366    2.6114   -7.2163 N   0  0  0  0  0  0  0  0  0  0  0  0
   -8.5834    4.0639   -7.3375 C   0  0  0  0  0  0  0  0  0  0  0  0
   -7.2236    4.9151  -15.2494 C   0  0  0  0  0  0  0  0  0  0  0  0
   -8.4762    4.4435  -15.8047 C   0  0  0  0  0  0  0  0  0  0  0  0
   -8.6991    4.1371  -17.2150 C   0  0  0  0  0  0  0  0  0  0  0  0
  -10.2715    3.8681  -17.7940 Cl  0  0  0  0  0  0  0  0  0  0  0  0
   -7.6839    4.2031  -18.1414 C   0  0  0  0  0  0  0  0  0  0  0  0
   -6.5760    4.6718  -17.5455 C   0  0  0  0  0  0  0  0  0  0  0  0
   -5.6293    4.8845  -18.4763 C   0  0  0  0  0  0  0  0  0  0  0  0
   -4.5998    5.4384  -17.7675 N   0  0  0  0  0  0  0  0  0  0  0  0
   -4.9892    5.5412  -16.3993 C   0  0  0  0  0  0  0  0  0  0  0  0
   -6.2716    5.0524  -16.2648 C   0  0  0  0  0  0  0  0  0  0  0  0
   -6.1189    4.4825  -19.7751 C   0  0  0  0  0  0  0  0  0  0  0  0
   -5.5560    4.4970  -20.8562 O   0  0  0  0  0  0  0  0  0  0  0  0
   -7.4365    4.0487  -19.5031 N   0  0  0  0  0  0  0  0  0  0  0  0
  1  2  2  0
  2  3  1  0
  3  4  1  0
  4  5  2  0
  5  6  1  0
  6  7  2  0
  7  8  1  0
  8  9  2  0
  8 10  1  0
 10 11  1  0
 11 12  1  0
  2 13  1  0
 13 14  2  0
 14 15  1  0
 15 16  1  0
 15 17  2  0
 17 18  1  0
 18 19  2  0
 19 20  1  0
 20 21  1  0
 21 22  2  0
 19 23  1  0
 23 24  2  0
 23 25  1  0
  9  4  1  0
 22 13  1  0
 12  7  1  0
 25 17  1  0
 22 18  1  0
M  END
>  <smiles>  (1190) 
C18626-P178

>  <fragmenstein_outcome>  (1190) 
acceptable

>  <inchikey>  (1190) 
WMNBAJIVDBBPND-UHFFFAOYSA-N

>  <fragmenstein_mode>  (1190) 
expansion

>  <HIPPO Pose ID>  (1190) 
20611

>  <Energy>  (1190) 
83.953016

>  <fragmenstein_error>  (1190) 


>  <tags>  (1190) 
{'openbind_xx01zvns2b_c1_fragmenstein', 'fragmenstein_placed'}

>  <ref_pdb>  (1190) 
175

>  <scratch_subdir>  (1190) 
/opt/xchem-fragalysis-2/maxwin/BulkDock/SCRATCH/511028/C18626-P178

>  <alias>  (1190) 
O=C(Nc1ccc2c(c1)CNC2)c1cc(Cl)c2c3c([nH]cc13)C(=O)N2

>  <HIPPO Compound ID>  (1190) 
18626

>  <fragmenstein_runtime>  (1190) 
2.11396

$$$$
O=C(Nc1cc(F)c2c(c1)CNC2)c1cc(Cl)c2c3c([nH]cc13)C(=O)N2
     RDKit          3D

 26 30  0  0  0  0  0  0  0  0999 V2000
   -6.6530    6.3098  -13.7065 O   0  0  0  0  0  0  0  0  0  0  0  0
   -7.0541    5.2380  -13.9405 C   0  0  0  0  0  0  0  0  0  0  0  0
   -7.5931    4.1376  -12.9911 N   0  0  0  0  0  0  0  0  0  0  0  0
   -7.8294    4.1635  -11.6206 C   0  0  0  0  0  0  0  0  0  0  0  0
   -7.6667    5.3473  -10.8998 C   0  0  0  0  0  0  0  0  0  0  0  0
   -7.9349    5.3688   -9.5387 C   0  0  0  0  0  0  0  0  0  0  0  0
   -7.8120    6.5194   -8.8759 F   0  0  0  0  0  0  0  0  0  0  0  0
   -8.3236    4.2172   -8.8934 C   0  0  0  0  0  0  0  0  0  0  0  0
   -8.4930    3.0418   -9.6066 C   0  0  0  0  0  0  0  0  0  0  0  0
   -8.2659    2.9987  -10.9756 C   0  0  0  0  0  0  0  0  0  0  0  0
   -8.9355    1.9632   -8.6788 C   0  0  0  0  0  0  0  0  0  0  0  0
   -8.8803    2.5415   -7.3063 N   0  0  0  0  0  0  0  0  0  0  0  0
   -8.6263    3.9930   -7.4591 C   0  0  0  0  0  0  0  0  0  0  0  0
   -7.1905    4.8234  -15.3343 C   0  0  0  0  0  0  0  0  0  0  0  0
   -8.4633    4.3916  -15.8741 C   0  0  0  0  0  0  0  0  0  0  0  0
   -8.7119    4.0989  -17.2769 C   0  0  0  0  0  0  0  0  0  0  0  0
  -10.2997    3.8358  -17.8137 Cl  0  0  0  0  0  0  0  0  0  0  0  0
   -7.7068    4.1574  -18.2147 C   0  0  0  0  0  0  0  0  0  0  0  0
   -6.5765    4.5927  -17.6317 C   0  0  0  0  0  0  0  0  0  0  0  0
   -5.6316    4.7729  -18.5702 C   0  0  0  0  0  0  0  0  0  0  0  0
   -4.5663    5.2640  -17.8676 N   0  0  0  0  0  0  0  0  0  0  0  0
   -4.9354    5.3762  -16.4923 C   0  0  0  0  0  0  0  0  0  0  0  0
   -6.2395    4.9452  -16.3513 C   0  0  0  0  0  0  0  0  0  0  0  0
   -6.1520    4.3971  -19.8646 C   0  0  0  0  0  0  0  0  0  0  0  0
   -5.6042    4.4040  -20.9530 O   0  0  0  0  0  0  0  0  0  0  0  0
   -7.4779    3.9973  -19.5781 N   0  0  0  0  0  0  0  0  0  0  0  0
  1  2  2  0
  2  3  1  0
  3  4  1  0
  4  5  2  0
  5  6  1  0
  6  7  1  0
  6  8  2  0
  8  9  1  0
  9 10  2  0
  9 11  1  0
 11 12  1  0
 12 13  1  0
  2 14  1  0
 14 15  2  0
 15 16  1  0
 16 17  1  0
 16 18  2  0
 18 19  1  0
 19 20  2  0
 20 21  1  0
 21 22  1  0
 22 23  2  0
 20 24  1  0
 24 25  2  0
 24 26  1  0
 10  4  1  0
 23 14  1  0
 13  8  1  0
 26 18  1  0
 23 19  1  0
M  END
>  <smiles>  (1191) 
C18653-P178

>  <fragmenstein_outcome>  (1191) 
acceptable

>  <inchikey>  (1191) 
YZDPSEUPWKUIAR-UHFFFAOYSA-N

>  <fragmenstein_mode>  (1191) 
expansion

>  <HIPPO Pose ID>  (1191) 
20612

>  <Energy>  (1191) 
77.041354

>  <fragmenstein_error>  (1191) 


>  <tags>  (1191) 
{'openbind_xx01zvns2b_c1_fragmenstein', 'fragmenstein_placed'}

>  <ref_pdb>  (1191) 
175

>  <scratch_subdir>  (1191) 
/opt/xchem-fragalysis-2/maxwin/BulkDock/SCRATCH/511028/C18653-P178

>  <alias>  (1191) 
O=C(Nc1cc(F)c2c(c1)CNC2)c1cc(Cl)c2c3c([nH]cc13)C(=O)N2

>  <HIPPO Compound ID>  (1191) 
18653

>  <fragmenstein_runtime>  (1191) 
2.173217

$$$$
O=C(Nc1cc(F)c2c(c1)CNC21CCCC1)c1cc(Cl)c2c3c([nH]cc13)C(=O)N2
     RDKit          3D

 30 35  0  0  0  0  0  0  0  0999 V2000
   -6.8349    6.4889  -13.5905 O   0  0  0  0  0  0  0  0  0  0  0  0
   -7.2695    5.4204  -13.7798 C   0  0  0  0  0  0  0  0  0  0  0  0
   -7.9314    4.4150  -12.7987 N   0  0  0  0  0  0  0  0  0  0  0  0
   -8.1022    4.4780  -11.4136 C   0  0  0  0  0  0  0  0  0  0  0  0
   -7.9295    5.6871  -10.7297 C   0  0  0  0  0  0  0  0  0  0  0  0
   -8.1087    5.7454   -9.3484 C   0  0  0  0  0  0  0  0  0  0  0  0
   -7.9207    6.9076   -8.7084 F   0  0  0  0  0  0  0  0  0  0  0  0
   -8.4439    4.6060   -8.6452 C   0  0  0  0  0  0  0  0  0  0  0  0
   -8.6197    3.4046   -9.3256 C   0  0  0  0  0  0  0  0  0  0  0  0
   -8.4681    3.3231  -10.7084 C   0  0  0  0  0  0  0  0  0  0  0  0
   -8.9353    2.3200   -8.3513 C   0  0  0  0  0  0  0  0  0  0  0  0
   -8.9542    2.9610   -7.0091 N   0  0  0  0  0  0  0  0  0  0  0  0
   -8.5599    4.3870   -7.1727 C   0  0  0  0  0  0  0  0  0  0  0  0
   -9.4996    5.2969   -6.3608 C   0  0  0  0  0  0  0  0  0  0  0  0
   -9.0110    5.2107   -4.9095 C   0  0  0  0  0  0  0  0  0  0  0  0
   -7.5797    4.6847   -4.9754 C   0  0  0  0  0  0  0  0  0  0  0  0
   -7.2332    4.6959   -6.4577 C   0  0  0  0  0  0  0  0  0  0  0  0
   -7.3158    4.9219  -15.1630 C   0  0  0  0  0  0  0  0  0  0  0  0
   -8.5336    4.4203  -15.7644 C   0  0  0  0  0  0  0  0  0  0  0  0
   -8.7035    4.1172  -17.1825 C   0  0  0  0  0  0  0  0  0  0  0  0
  -10.2566    3.8544  -17.8145 Cl  0  0  0  0  0  0  0  0  0  0  0  0
   -7.6597    4.2041  -18.0746 C   0  0  0  0  0  0  0  0  0  0  0  0
   -6.5783    4.6817  -17.4374 C   0  0  0  0  0  0  0  0  0  0  0  0
   -5.6182    4.9469  -18.3415 C   0  0  0  0  0  0  0  0  0  0  0  0
   -4.6320    5.5362  -17.6000 N   0  0  0  0  0  0  0  0  0  0  0  0
   -5.0692    5.6248  -16.2446 C   0  0  0  0  0  0  0  0  0  0  0  0
   -6.3302    5.0742  -16.1460 C   0  0  0  0  0  0  0  0  0  0  0  0
   -6.0626    4.5599  -19.6616 C   0  0  0  0  0  0  0  0  0  0  0  0
   -5.4738    4.6159  -20.7272 O   0  0  0  0  0  0  0  0  0  0  0  0
   -7.3754    4.0900  -19.4337 N   0  0  0  0  0  0  0  0  0  0  0  0
  1  2  2  0
  2  3  1  0
  3  4  1  0
  4  5  2  0
  5  6  1  0
  6  7  1  0
  6  8  2  0
  8  9  1  0
  9 10  2  0
  9 11  1  0
 11 12  1  0
 12 13  1  0
 13 14  1  0
 14 15  1  0
 15 16  1  0
 16 17  1  0
  2 18  1  0
 18 19  2  0
 19 20  1  0
 20 21  1  0
 20 22  2  0
 22 23  1  0
 23 24  2  0
 24 25  1  0
 25 26  1  0
 26 27  2  0
 24 28  1  0
 28 29  2  0
 28 30  1  0
 10  4  1  0
 17 13  1  0
 27 18  1  0
 13  8  1  0
 30 22  1  0
 27 23  1  0
M  END
>  <smiles>  (1192) 
C18655-P178

>  <fragmenstein_outcome>  (1192) 
acceptable

>  <inchikey>  (1192) 
JEZAOPZXTCAMTD-UHFFFAOYSA-N

>  <fragmenstein_mode>  (1192) 
expansion

>  <HIPPO Pose ID>  (1192) 
20613

>  <Energy>  (1192) 
89.046996

>  <fragmenstein_error>  (1192) 


>  <tags>  (1192) 
{'openbind_xx01zvns2b_c1_fragmenstein', 'fragmenstein_placed'}

>  <ref_pdb>  (1192) 
175

>  <scratch_subdir>  (1192) 
/opt/xchem-fragalysis-2/maxwin/BulkDock/SCRATCH/511028/C18655-P178

>  <alias>  (1192) 
O=C(Nc1cc(F)c2c(c1)CNC21CCCC1)c1cc(Cl)c2c3c([nH]cc13)C(=O)N2

>  <HIPPO Compound ID>  (1192) 
32019

>  <fragmenstein_runtime>  (1192) 
3.86822

$$$$
N#Cc1cc(NC(=O)c2cc(Cl)c3c4c([nH]cc24)C(=O)N3)cc2c1CNC2
     RDKit          3D

 27 31  0  0  0  0  0  0  0  0999 V2000
   -7.3174    7.5813   -8.0440 N   0  0  0  0  0  0  0  0  0  0  0  0
   -7.5249    6.6395   -8.6910 C   0  0  0  0  0  0  0  0  0  0  0  0
   -7.7761    5.4579   -9.4589 C   0  0  0  0  0  0  0  0  0  0  0  0
   -7.5391    5.4431  -10.8417 C   0  0  0  0  0  0  0  0  0  0  0  0
   -7.7797    4.2858  -11.5954 C   0  0  0  0  0  0  0  0  0  0  0  0
   -7.5566    4.2547  -12.9725 N   0  0  0  0  0  0  0  0  0  0  0  0
   -6.9182    5.3109  -13.9144 C   0  0  0  0  0  0  0  0  0  0  0  0
   -6.4120    6.3355  -13.6705 O   0  0  0  0  0  0  0  0  0  0  0  0
   -7.0980    4.9184  -15.3207 C   0  0  0  0  0  0  0  0  0  0  0  0
   -8.3834    4.4814  -15.8438 C   0  0  0  0  0  0  0  0  0  0  0  0
   -8.6510    4.1671  -17.2412 C   0  0  0  0  0  0  0  0  0  0  0  0
  -10.2378    3.8785  -17.7778 Cl  0  0  0  0  0  0  0  0  0  0  0  0
   -7.6557    4.2118  -18.1887 C   0  0  0  0  0  0  0  0  0  0  0  0
   -6.5164    4.6563  -17.6301 C   0  0  0  0  0  0  0  0  0  0  0  0
   -5.5824    4.8008  -18.5874 C   0  0  0  0  0  0  0  0  0  0  0  0
   -4.4949    5.2804  -17.9103 N   0  0  0  0  0  0  0  0  0  0  0  0
   -4.8493    5.4415  -16.5340 C   0  0  0  0  0  0  0  0  0  0  0  0
   -6.1583    5.0274  -16.3582 C   0  0  0  0  0  0  0  0  0  0  0  0
   -6.1265    4.4028  -19.8665 C   0  0  0  0  0  0  0  0  0  0  0  0
   -5.6050    4.3792  -20.9683 O   0  0  0  0  0  0  0  0  0  0  0  0
   -7.4498    4.0212  -19.5516 N   0  0  0  0  0  0  0  0  0  0  0  0
   -8.2718    3.1327  -10.9705 C   0  0  0  0  0  0  0  0  0  0  0  0
   -8.4811    3.1544   -9.5989 C   0  0  0  0  0  0  0  0  0  0  0  0
   -8.2370    4.2995   -8.8523 C   0  0  0  0  0  0  0  0  0  0  0  0
   -8.5587    4.0359   -7.4203 C   0  0  0  0  0  0  0  0  0  0  0  0
   -8.8518    2.5913   -7.3142 N   0  0  0  0  0  0  0  0  0  0  0  0
   -8.9784    2.0718   -8.7021 C   0  0  0  0  0  0  0  0  0  0  0  0
  1  2  3  0
  2  3  1  0
  3  4  2  0
  4  5  1  0
  5  6  1  0
  6  7  1  0
  7  8  2  0
  7  9  1  0
  9 10  2  0
 10 11  1  0
 11 12  1  0
 11 13  2  0
 13 14  1  0
 14 15  2  0
 15 16  1  0
 16 17  1  0
 17 18  2  0
 15 19  1  0
 19 20  2  0
 19 21  1  0
  5 22  2  0
 22 23  1  0
 23 24  2  0
 24 25  1  0
 25 26  1  0
 26 27  1  0
 24  3  1  0
 18  9  1  0
 27 23  1  0
 21 13  1  0
 18 14  1  0
M  END
>  <smiles>  (1193) 
C18656-P178

>  <fragmenstein_outcome>  (1193) 
acceptable

>  <inchikey>  (1193) 
CDTMPAKLVNXYNA-UHFFFAOYSA-N

>  <fragmenstein_mode>  (1193) 
expansion

>  <HIPPO Pose ID>  (1193) 
20614

>  <Energy>  (1193) 
87.193575

>  <fragmenstein_error>  (1193) 


>  <tags>  (1193) 
{'openbind_xx01zvns2b_c1_fragmenstein', 'fragmenstein_placed'}

>  <ref_pdb>  (1193) 
175

>  <scratch_subdir>  (1193) 
/opt/xchem-fragalysis-2/maxwin/BulkDock/SCRATCH/511028/C18656-P178

>  <alias>  (1193) 
N#Cc1cc(NC(=O)c2cc(Cl)c3c4c([nH]cc24)C(=O)N3)cc2c1CNC2

>  <HIPPO Compound ID>  (1193) 
18656

>  <fragmenstein_runtime>  (1193) 
2.888745

$$$$
O=C(Nc1ccc2c(c1)CN(F)C2)c1cc(Cl)c2c3c([nH]cc13)C(=O)N2
     RDKit          3D

 26 30  0  0  0  0  0  0  0  0999 V2000
   -6.5107    6.3767  -13.6611 O   0  0  0  0  0  0  0  0  0  0  0  0
   -6.9829    5.3383  -13.9147 C   0  0  0  0  0  0  0  0  0  0  0  0
   -7.5829    4.2514  -12.9828 N   0  0  0  0  0  0  0  0  0  0  0  0
   -7.8034    4.2604  -11.6051 C   0  0  0  0  0  0  0  0  0  0  0  0
   -7.6006    5.4125  -10.8314 C   0  0  0  0  0  0  0  0  0  0  0  0
   -7.8555    5.4059   -9.4536 C   0  0  0  0  0  0  0  0  0  0  0  0
   -8.3096    4.2349   -8.8743 C   0  0  0  0  0  0  0  0  0  0  0  0
   -8.5086    3.0874   -9.6375 C   0  0  0  0  0  0  0  0  0  0  0  0
   -8.2657    3.0831  -11.0018 C   0  0  0  0  0  0  0  0  0  0  0  0
   -8.9667    1.9782   -8.7425 C   0  0  0  0  0  0  0  0  0  0  0  0
   -9.3726    2.6529   -7.4889 N   0  0  0  0  0  0  0  0  0  0  0  0
   -9.1386    1.8753   -6.3778 F   0  0  0  0  0  0  0  0  0  0  0  0
   -8.6364    3.9304   -7.4476 C   0  0  0  0  0  0  0  0  0  0  0  0
   -7.1511    4.9449  -15.3222 C   0  0  0  0  0  0  0  0  0  0  0  0
   -8.4193    4.4648  -15.8455 C   0  0  0  0  0  0  0  0  0  0  0  0
   -8.6755    4.1390  -17.2431 C   0  0  0  0  0  0  0  0  0  0  0  0
  -10.2608    3.8576  -17.7849 Cl  0  0  0  0  0  0  0  0  0  0  0  0
   -7.6791    4.1944  -18.1891 C   0  0  0  0  0  0  0  0  0  0  0  0
   -6.5600    4.6865  -17.6304 C   0  0  0  0  0  0  0  0  0  0  0  0
   -5.6403    4.8836  -18.5914 C   0  0  0  0  0  0  0  0  0  0  0  0
   -4.5969    5.4641  -17.9286 N   0  0  0  0  0  0  0  0  0  0  0  0
   -4.9462    5.5920  -16.5485 C   0  0  0  0  0  0  0  0  0  0  0  0
   -6.2217    5.0889  -16.3622 C   0  0  0  0  0  0  0  0  0  0  0  0
   -6.1578    4.4450  -19.8668 C   0  0  0  0  0  0  0  0  0  0  0  0
   -5.6207    4.4349  -20.9610 O   0  0  0  0  0  0  0  0  0  0  0  0
   -7.4636    4.0069  -19.5520 N   0  0  0  0  0  0  0  0  0  0  0  0
  1  2  2  0
  2  3  1  0
  3  4  1  0
  4  5  2  0
  5  6  1  0
  6  7  2  0
  7  8  1  0
  8  9  2  0
  8 10  1  0
 10 11  1  0
 11 12  1  0
 11 13  1  0
  2 14  1  0
 14 15  2  0
 15 16  1  0
 16 17  1  0
 16 18  2  0
 18 19  1  0
 19 20  2  0
 20 21  1  0
 21 22  1  0
 22 23  2  0
 20 24  1  0
 24 25  2  0
 24 26  1  0
  9  4  1  0
 23 14  1  0
 13  7  1  0
 26 18  1  0
 23 19  1  0
M  END
>  <smiles>  (1194) 
C18657-P178

>  <fragmenstein_outcome>  (1194) 
acceptable

>  <inchikey>  (1194) 
UTJXIVLNXCYGPX-UHFFFAOYSA-N

>  <fragmenstein_mode>  (1194) 
expansion

>  <HIPPO Pose ID>  (1194) 
20615

>  <Energy>  (1194) 
97.939847

>  <fragmenstein_error>  (1194) 


>  <tags>  (1194) 
{'openbind_xx01zvns2b_c1_fragmenstein', 'fragmenstein_placed'}

>  <ref_pdb>  (1194) 
175

>  <scratch_subdir>  (1194) 
/opt/xchem-fragalysis-2/maxwin/BulkDock/SCRATCH/511028/C18657-P178

>  <alias>  (1194) 
O=C(Nc1ccc2c(c1)CN(F)C2)c1cc(Cl)c2c3c([nH]cc13)C(=O)N2

>  <HIPPO Compound ID>  (1194) 
18657

>  <fragmenstein_runtime>  (1194) 
2.378892

$$$$
O=C(Nc1ccc2c(c1)CN(CC(F)F)C2)[C@@H]1C[C@H](Cl)[C@H]2N[C@H](O)C3=C2[C@H]1CN3
     RDKit          3D

 29 33  0  0  0  0  0  0  0  0999 V2000
   -7.1760    6.8394  -13.6030 O   0  0  0  0  0  0  0  0  0  0  0  0
   -7.4255    5.7202  -13.8398 C   0  0  0  0  0  0  0  0  0  0  0  0
   -7.7119    4.5299  -12.8854 N   0  0  0  0  0  0  0  0  0  0  0  0
   -7.8393    4.4930  -11.4999 C   0  0  0  0  0  0  0  0  0  0  0  0
   -7.4592    5.6357  -10.7700 C   0  0  0  0  0  0  0  0  0  0  0  0
   -7.5618    5.6793   -9.3868 C   0  0  0  0  0  0  0  0  0  0  0  0
   -8.0764    4.5717   -8.7578 C   0  0  0  0  0  0  0  0  0  0  0  0
   -8.4827    3.4349   -9.4676 C   0  0  0  0  0  0  0  0  0  0  0  0
   -8.3466    3.3652  -10.8466 C   0  0  0  0  0  0  0  0  0  0  0  0
   -9.0629    2.4560   -8.4862 C   0  0  0  0  0  0  0  0  0  0  0  0
   -9.3149    3.3056   -7.2908 N   0  0  0  0  0  0  0  0  0  0  0  0
   -9.3739    2.5897   -6.0236 C   0  0  0  0  0  0  0  0  0  0  0  0
  -10.7227    1.9137   -5.8344 C   0  0  0  0  0  0  0  0  0  0  0  0
  -11.0045    1.7926   -4.5153 F   0  0  0  0  0  0  0  0  0  0  0  0
  -10.6909    0.6711   -6.3652 F   0  0  0  0  0  0  0  0  0  0  0  0
   -8.3096    4.3645   -7.3043 C   0  0  0  0  0  0  0  0  0  0  0  0
   -7.3987    5.2653  -15.2937 C   0  0  2  0  0  0  0  0  0  0  0  0
   -8.4074    4.2082  -15.7765 C   0  0  0  0  0  0  0  0  0  0  0  0
   -8.4809    4.2351  -17.3208 C   0  0  2  0  0  0  0  0  0  0  0  0
   -9.6176    3.0512  -17.9176 Cl  0  0  0  0  0  0  0  0  0  0  0  0
   -7.1247    4.0705  -18.0078 C   0  0  1  0  0  0  0  0  0  0  0  0
   -6.9413    4.5604  -19.3962 N   0  0  0  0  0  0  0  0  0  0  0  0
   -5.8878    5.5849  -19.3717 C   0  0  2  0  0  0  0  0  0  0  0  0
   -4.8608    5.1608  -20.2237 O   0  0  0  0  0  0  0  0  0  0  0  0
   -5.4183    5.6149  -17.9621 C   0  0  0  0  0  0  0  0  0  0  0  0
   -6.0889    4.7444  -17.2332 C   0  0  0  0  0  0  0  0  0  0  0  0
   -5.9799    4.9555  -15.7717 C   0  0  1  0  0  0  0  0  0  0  0  0
   -4.9422    6.1278  -15.7480 C   0  0  0  0  0  0  0  0  0  0  0  0
   -4.7859    6.5465  -17.1695 N   0  0  0  0  0  0  0  0  0  0  0  0
  1  2  2  0
  2  3  1  0
  3  4  1  0
  4  5  2  0
  5  6  1  0
  6  7  2  0
  7  8  1  0
  8  9  2  0
  8 10  1  0
 10 11  1  0
 11 12  1  0
 12 13  1  0
 13 14  1  0
 13 15  1  0
 11 16  1  0
 17  2  1  1
 17 18  1  0
 18 19  1  0
 19 20  1  6
 19 21  1  0
 21 22  1  6
 22 23  1  0
 23 24  1  6
 23 25  1  0
 25 26  2  0
 26 27  1  0
 27 28  1  6
 28 29  1  0
  9  4  1  0
 27 17  1  0
 16  7  1  0
 26 21  1  0
 29 25  1  0
M  END
>  <smiles>  (1195) 
C18658-P178

>  <fragmenstein_outcome>  (1195) 
acceptable

>  <inchikey>  (1195) 
OEUAZLUVFDAKNZ-UHFFFAOYSA-N

>  <fragmenstein_mode>  (1195) 
expansion

>  <HIPPO Pose ID>  (1195) 
20616

>  <Energy>  (1195) 
102.597078

>  <fragmenstein_error>  (1195) 


>  <tags>  (1195) 
{'openbind_xx01zvns2b_c1_fragmenstein', 'fragmenstein_placed'}

>  <ref_pdb>  (1195) 
175

>  <scratch_subdir>  (1195) 
/opt/xchem-fragalysis-2/maxwin/BulkDock/SCRATCH/511028/C18658-P178

>  <alias>  (1195) 
O=C(Nc1ccc2c(c1)CN(CC(F)F)C2)[C@@H]1C[C@H](Cl)[C@H]2N[C@H](O)C3=C2[C@H]1CN3

>  <HIPPO Compound ID>  (1195) 
43015

>  <fragmenstein_runtime>  (1195) 
7.335203

$$$$
O=Cc1cc(C(=O)Nc2ccc3c(c2)CNC3)c2c3c1=NC(=O)C=3C(c1ccccc1)=N2
     RDKit          3D

 32 37  0  0  0  0  0  0  0  0999 V2000
  -10.9355    3.6105  -17.6600 O   0  0  0  0  0  0  0  0  0  0  0  0
   -9.9066    4.0102  -18.1736 C   0  0  0  0  0  0  0  0  0  0  0  0
   -8.6337    4.1387  -17.4592 C   0  0  0  0  0  0  0  0  0  0  0  0
   -8.5485    4.3782  -16.1214 C   0  0  0  0  0  0  0  0  0  0  0  0
   -7.2966    4.8404  -15.4393 C   0  0  0  0  0  0  0  0  0  0  0  0
   -7.3435    5.3815  -14.0441 C   0  0  0  0  0  0  0  0  0  0  0  0
   -7.1253    6.5091  -13.8253 O   0  0  0  0  0  0  0  0  0  0  0  0
   -7.8078    4.2431  -13.0939 N   0  0  0  0  0  0  0  0  0  0  0  0
   -8.0001    4.2384  -11.7086 C   0  0  0  0  0  0  0  0  0  0  0  0
   -7.8971    5.4195  -10.9555 C   0  0  0  0  0  0  0  0  0  0  0  0
   -8.1021    5.4117   -9.5697 C   0  0  0  0  0  0  0  0  0  0  0  0
   -8.4267    4.2141   -8.9608 C   0  0  0  0  0  0  0  0  0  0  0  0
   -8.5382    3.0424   -9.7008 C   0  0  0  0  0  0  0  0  0  0  0  0
   -8.3195    3.0333  -11.0713 C   0  0  0  0  0  0  0  0  0  0  0  0
   -8.8923    1.9184   -8.7812 C   0  0  0  0  0  0  0  0  0  0  0  0
   -9.3122    2.5687   -7.5092 N   0  0  0  0  0  0  0  0  0  0  0  0
   -8.6868    3.9091   -7.5239 C   0  0  0  0  0  0  0  0  0  0  0  0
   -6.1945    5.0116  -16.1857 C   0  0  0  0  0  0  0  0  0  0  0  0
   -6.3121    4.6892  -17.5266 C   0  0  0  0  0  0  0  0  0  0  0  0
   -7.4203    4.2554  -18.2749 C   0  0  0  0  0  0  0  0  0  0  0  0
   -7.1147    4.0976  -19.5161 N   0  0  0  0  0  0  0  0  0  0  0  0
   -5.7879    4.5311  -19.6351 C   0  0  0  0  0  0  0  0  0  0  0  0
   -5.1486    4.5828  -20.6690 O   0  0  0  0  0  0  0  0  0  0  0  0
   -5.3065    4.9235  -18.3199 C   0  0  0  0  0  0  0  0  0  0  0  0
   -4.3979    5.4458  -17.3076 C   0  0  0  0  0  0  0  0  0  0  0  0
   -3.0236    5.8860  -17.6303 C   0  0  0  0  0  0  0  0  0  0  0  0
   -2.5234    5.9116  -18.9373 C   0  0  0  0  0  0  0  0  0  0  0  0
   -1.2198    6.3546  -19.1828 C   0  0  0  0  0  0  0  0  0  0  0  0
   -0.4062    6.7638  -18.1281 C   0  0  0  0  0  0  0  0  0  0  0  0
   -0.8951    6.7375  -16.8242 C   0  0  0  0  0  0  0  0  0  0  0  0
   -2.1992    6.3036  -16.5760 C   0  0  0  0  0  0  0  0  0  0  0  0
   -4.9114    5.4966  -16.0737 N   0  0  0  0  0  0  0  0  0  0  0  0
  1  2  2  0
  2  3  1  0
  3  4  2  0
  4  5  1  0
  5  6  1  0
  6  7  2  0
  6  8  1  0
  8  9  1  0
  9 10  2  0
 10 11  1  0
 11 12  2  0
 12 13  1  0
 13 14  2  0
 13 15  1  0
 15 16  1  0
 16 17  1  0
  5 18  2  0
 18 19  1  0
 19 20  1  0
 20 21  2  0
 21 22  1  0
 22 23  2  0
 22 24  1  0
 24 25  1  0
 25 26  1  0
 26 27  2  0
 27 28  1  0
 28 29  2  0
 29 30  1  0
 30 31  2  0
 25 32  2  0
 20  3  1  0
 31 26  1  0
 14  9  1  0
 32 18  1  0
 17 12  1  0
 24 19  2  0
M  END
>  <smiles>  (1196) 
C18659-P178

>  <fragmenstein_outcome>  (1196) 
acceptable

>  <inchikey>  (1196) 
MRBYEXHTYDADIF-UHFFFAOYSA-N

>  <fragmenstein_mode>  (1196) 
expansion

>  <HIPPO Pose ID>  (1196) 
20618

>  <Energy>  (1196) 
96.278389

>  <fragmenstein_error>  (1196) 


>  <tags>  (1196) 
{'openbind_xx01zvns2b_c1_fragmenstein', 'fragmenstein_placed'}

>  <ref_pdb>  (1196) 
175

>  <scratch_subdir>  (1196) 
/opt/xchem-fragalysis-2/maxwin/BulkDock/SCRATCH/511028/C18659-P178

>  <alias>  (1196) 
O=Cc1cc(C(=O)Nc2ccc3c(c2)CNC3)c2c3c1=NC(=O)C=3C(c1ccccc1)=N2

>  <HIPPO Compound ID>  (1196) 
18659

>  <fragmenstein_runtime>  (1196) 
3.670191

$$$$
O=C(Nc1ccc2c(c1)CNC2)c1ccc2c(c1)[C@@H](NC1CCC1)C(=O)N2
     RDKit          3D

 27 31  0  0  0  0  0  0  0  0999 V2000
   -7.3327    6.4636  -13.7941 O   0  0  0  0  0  0  0  0  0  0  0  0
   -7.6404    5.3506  -13.9761 C   0  0  0  0  0  0  0  0  0  0  0  0
   -8.0919    4.2574  -12.9757 N   0  0  0  0  0  0  0  0  0  0  0  0
   -8.1648    4.2782  -11.5831 C   0  0  0  0  0  0  0  0  0  0  0  0
   -7.9457    5.4593  -10.8587 C   0  0  0  0  0  0  0  0  0  0  0  0
   -8.0514    5.4734   -9.4635 C   0  0  0  0  0  0  0  0  0  0  0  0
   -8.3770    4.2953   -8.8162 C   0  0  0  0  0  0  0  0  0  0  0  0
   -8.5973    3.1253   -9.5295 C   0  0  0  0  0  0  0  0  0  0  0  0
   -8.4918    3.0955  -10.9116 C   0  0  0  0  0  0  0  0  0  0  0  0
   -8.9806    2.0340   -8.5904 C   0  0  0  0  0  0  0  0  0  0  0  0
   -8.8149    2.5867   -7.2176 N   0  0  0  0  0  0  0  0  0  0  0  0
   -8.5888    4.0411   -7.3649 C   0  0  0  0  0  0  0  0  0  0  0  0
   -7.6735    4.8548  -15.3840 C   0  0  0  0  0  0  0  0  0  0  0  0
   -8.7595    4.0943  -15.8572 C   0  0  0  0  0  0  0  0  0  0  0  0
   -8.8431    3.7194  -17.1987 C   0  0  0  0  0  0  0  0  0  0  0  0
   -7.8127    4.1003  -18.0260 C   0  0  0  0  0  0  0  0  0  0  0  0
   -6.7336    4.8674  -17.5868 C   0  0  0  0  0  0  0  0  0  0  0  0
   -6.6594    5.2616  -16.2612 C   0  0  0  0  0  0  0  0  0  0  0  0
   -5.8408    5.1815  -18.7568 C   0  0  1  0  0  0  0  0  0  0  0  0
   -4.4180    4.8561  -18.5569 N   0  0  0  0  0  0  0  0  0  0  0  0
   -3.7105    5.9928  -17.9611 C   0  0  0  0  0  0  0  0  0  0  0  0
   -2.2463    5.9803  -18.4783 C   0  0  0  0  0  0  0  0  0  0  0  0
   -1.8197    6.2764  -17.0260 C   0  0  0  0  0  0  0  0  0  0  0  0
   -3.1289    5.5854  -16.5855 C   0  0  0  0  0  0  0  0  0  0  0  0
   -6.4779    4.2752  -19.8704 C   0  0  0  0  0  0  0  0  0  0  0  0
   -6.0396    4.0422  -20.9896 O   0  0  0  0  0  0  0  0  0  0  0  0
   -7.6707    3.7738  -19.3622 N   0  0  0  0  0  0  0  0  0  0  0  0
  1  2  2  0
  2  3  1  0
  3  4  1  0
  4  5  2  0
  5  6  1  0
  6  7  2  0
  7  8  1  0
  8  9  2  0
  8 10  1  0
 10 11  1  0
 11 12  1  0
  2 13  1  0
 13 14  2  0
 14 15  1  0
 15 16  2  0
 16 17  1  0
 17 18  2  0
 17 19  1  0
 19 20  1  1
 20 21  1  0
 21 22  1  0
 22 23  1  0
 23 24  1  0
 19 25  1  0
 25 26  2  0
 25 27  1  0
  9  4  1  0
 18 13  1  0
 24 21  1  0
 12  7  1  0
 27 16  1  0
M  END
>  <smiles>  (1197) 
C18660-P178

>  <fragmenstein_outcome>  (1197) 
acceptable

>  <inchikey>  (1197) 
GTDFHHGHSQROBD-UHFFFAOYSA-N

>  <fragmenstein_mode>  (1197) 
expansion

>  <HIPPO Pose ID>  (1197) 
20619

>  <Energy>  (1197) 
98.165629

>  <fragmenstein_error>  (1197) 


>  <tags>  (1197) 
{'openbind_xx01zvns2b_c1_fragmenstein', 'fragmenstein_placed'}

>  <ref_pdb>  (1197) 
175

>  <scratch_subdir>  (1197) 
/opt/xchem-fragalysis-2/maxwin/BulkDock/SCRATCH/511028/C18660-P178

>  <alias>  (1197) 
O=C(Nc1ccc2c(c1)CNC2)c1ccc2c(c1)[C@@H](NC1CCC1)C(=O)N2

>  <HIPPO Compound ID>  (1197) 
28271

>  <fragmenstein_runtime>  (1197) 
4.307109

$$$$
NNC[C@@H]1C(=O)Nc2c(F)cc(C(=O)Nc3ccc4c(c3)CNC4)cc21
     RDKit          3D

 26 29  0  0  0  0  0  0  0  0999 V2000
   -3.0762    5.6879  -16.8411 N   0  0  0  0  0  0  0  0  0  0  0  0
   -4.1768    6.5635  -17.1531 N   0  0  0  0  0  0  0  0  0  0  0  0
   -4.8790    6.1018  -18.3701 C   0  0  0  0  0  0  0  0  0  0  0  0
   -5.5096    4.7160  -18.3082 C   0  0  2  0  0  0  0  0  0  0  0  0
   -6.3007    4.3584  -19.5920 C   0  0  0  0  0  0  0  0  0  0  0  0
   -5.8728    4.3129  -20.7358 O   0  0  0  0  0  0  0  0  0  0  0  0
   -7.5988    4.0445  -19.2028 N   0  0  0  0  0  0  0  0  0  0  0  0
   -7.7567    4.1651  -17.8321 C   0  0  0  0  0  0  0  0  0  0  0  0
   -8.8843    3.9406  -17.0781 C   0  0  0  0  0  0  0  0  0  0  0  0
  -10.0323    3.5717  -17.6549 F   0  0  0  0  0  0  0  0  0  0  0  0
   -8.8153    4.1380  -15.7019 C   0  0  0  0  0  0  0  0  0  0  0  0
   -7.6257    4.5825  -15.1126 C   0  0  0  0  0  0  0  0  0  0  0  0
   -7.5878    5.0563  -13.7088 C   0  0  0  0  0  0  0  0  0  0  0  0
   -7.1618    6.1253  -13.5122 O   0  0  0  0  0  0  0  0  0  0  0  0
   -8.1720    4.0179  -12.7311 N   0  0  0  0  0  0  0  0  0  0  0  0
   -8.2656    4.0358  -11.3428 C   0  0  0  0  0  0  0  0  0  0  0  0
   -8.0257    5.2142  -10.6167 C   0  0  0  0  0  0  0  0  0  0  0  0
   -8.1551    5.2359   -9.2245 C   0  0  0  0  0  0  0  0  0  0  0  0
   -8.5258    4.0672   -8.5871 C   0  0  0  0  0  0  0  0  0  0  0  0
   -8.7417    2.8948   -9.3044 C   0  0  0  0  0  0  0  0  0  0  0  0
   -8.6172    2.8594  -10.6812 C   0  0  0  0  0  0  0  0  0  0  0  0
   -9.0787    1.7954   -8.3549 C   0  0  0  0  0  0  0  0  0  0  0  0
   -9.4356    2.4819   -7.0840 N   0  0  0  0  0  0  0  0  0  0  0  0
   -8.7502    3.7936   -7.1385 C   0  0  0  0  0  0  0  0  0  0  0  0
   -6.4749    4.7527  -15.8793 C   0  0  0  0  0  0  0  0  0  0  0  0
   -6.5615    4.5635  -17.2472 C   0  0  0  0  0  0  0  0  0  0  0  0
  1  2  1  0
  2  3  1  0
  4  3  1  6
  4  5  1  0
  5  6  2  0
  5  7  1  0
  7  8  1  0
  8  9  2  0
  9 10  1  0
  9 11  1  0
 11 12  2  0
 12 13  1  0
 13 14  2  0
 13 15  1  0
 15 16  1  0
 16 17  2  0
 17 18  1  0
 18 19  2  0
 19 20  1  0
 20 21  2  0
 20 22  1  0
 22 23  1  0
 23 24  1  0
 12 25  1  0
 25 26  2  0
 26  4  1  0
 26  8  1  0
 21 16  1  0
 24 19  1  0
M  END
>  <smiles>  (1198) 
C18661-P178

>  <fragmenstein_outcome>  (1198) 
acceptable

>  <inchikey>  (1198) 
RRVWLEUXNGMOIU-UHFFFAOYSA-N

>  <fragmenstein_mode>  (1198) 
expansion

>  <HIPPO Pose ID>  (1198) 
20620

>  <Energy>  (1198) 
105.398539

>  <fragmenstein_error>  (1198) 


>  <tags>  (1198) 
{'openbind_xx01zvns2b_c1_fragmenstein', 'fragmenstein_placed'}

>  <ref_pdb>  (1198) 
175

>  <scratch_subdir>  (1198) 
/opt/xchem-fragalysis-2/maxwin/BulkDock/SCRATCH/511028/C18661-P178

>  <alias>  (1198) 
NNC[C@@H]1C(=O)Nc2c(F)cc(C(=O)Nc3ccc4c(c3)CNC4)cc21

>  <HIPPO Compound ID>  (1198) 
18661

>  <fragmenstein_runtime>  (1198) 
3.406811

$$$$
NC[C@@H]1C(=O)Nc2c(Cl)cc(C(=O)Nc3ccc4c(c3)CNC4)cc21
     RDKit          3D

 25 28  0  0  0  0  0  0  0  0999 V2000
   -4.2228    6.7875  -17.1120 N   0  0  0  0  0  0  0  0  0  0  0  0
   -4.8400    6.2880  -18.3463 C   0  0  0  0  0  0  0  0  0  0  0  0
   -5.3321    4.8429  -18.2870 C   0  0  2  0  0  0  0  0  0  0  0  0
   -6.1195    4.4752  -19.5696 C   0  0  0  0  0  0  0  0  0  0  0  0
   -5.6903    4.4191  -20.7111 O   0  0  0  0  0  0  0  0  0  0  0  0
   -7.4217    4.2021  -19.1838 N   0  0  0  0  0  0  0  0  0  0  0  0
   -7.5776    4.3016  -17.8098 C   0  0  0  0  0  0  0  0  0  0  0  0
   -8.7278    4.1473  -17.0699 C   0  0  0  0  0  0  0  0  0  0  0  0
  -10.2163    3.9211  -17.8601 Cl  0  0  0  0  0  0  0  0  0  0  0  0
   -8.6587    4.3056  -15.6873 C   0  0  0  0  0  0  0  0  0  0  0  0
   -7.4429    4.6561  -15.0864 C   0  0  0  0  0  0  0  0  0  0  0  0
   -7.4053    5.1024  -13.6765 C   0  0  0  0  0  0  0  0  0  0  0  0
   -7.0363    6.1887  -13.4621 O   0  0  0  0  0  0  0  0  0  0  0  0
   -7.8887    4.0022  -12.7109 N   0  0  0  0  0  0  0  0  0  0  0  0
   -8.1026    4.0359  -11.3357 C   0  0  0  0  0  0  0  0  0  0  0  0
   -7.9025    5.2128  -10.5957 C   0  0  0  0  0  0  0  0  0  0  0  0
   -8.1132    5.2341   -9.2132 C   0  0  0  0  0  0  0  0  0  0  0  0
   -8.5177    4.0651   -8.5974 C   0  0  0  0  0  0  0  0  0  0  0  0
   -8.7030    2.8961   -9.3281 C   0  0  0  0  0  0  0  0  0  0  0  0
   -8.5063    2.8630  -10.6971 C   0  0  0  0  0  0  0  0  0  0  0  0
   -9.0755    1.7918   -8.3972 C   0  0  0  0  0  0  0  0  0  0  0  0
   -9.4768    2.4698   -7.1354 N   0  0  0  0  0  0  0  0  0  0  0  0
   -8.7940    3.7836   -7.1591 C   0  0  0  0  0  0  0  0  0  0  0  0
   -6.2797    4.7974  -15.8447 C   0  0  0  0  0  0  0  0  0  0  0  0
   -6.3692    4.6368  -17.2167 C   0  0  0  0  0  0  0  0  0  0  0  0
  1  2  1  0
  3  2  1  6
  3  4  1  0
  4  5  2  0
  4  6  1  0
  6  7  1  0
  7  8  2  0
  8  9  1  0
  8 10  1  0
 10 11  2  0
 11 12  1  0
 12 13  2  0
 12 14  1  0
 14 15  1  0
 15 16  2  0
 16 17  1  0
 17 18  2  0
 18 19  1  0
 19 20  2  0
 19 21  1  0
 21 22  1  0
 22 23  1  0
 11 24  1  0
 24 25  2  0
 25  3  1  0
 25  7  1  0
 20 15  1  0
 23 18  1  0
M  END
>  <smiles>  (1199) 
C18666-P178

>  <fragmenstein_outcome>  (1199) 
acceptable

>  <inchikey>  (1199) 
ODZRBIQKPUDPNP-UHFFFAOYSA-N

>  <fragmenstein_mode>  (1199) 
expansion

>  <HIPPO Pose ID>  (1199) 
20622

>  <Energy>  (1199) 
72.134013

>  <fragmenstein_error>  (1199) 


>  <tags>  (1199) 
{'openbind_xx01zvns2b_c1_fragmenstein', 'fragmenstein_placed'}

>  <ref_pdb>  (1199) 
175

>  <scratch_subdir>  (1199) 
/opt/xchem-fragalysis-2/maxwin/BulkDock/SCRATCH/511028/C18666-P178

>  <alias>  (1199) 
NC[C@@H]1C(=O)Nc2c(Cl)cc(C(=O)Nc3ccc4c(c3)CNC4)cc21

>  <HIPPO Compound ID>  (1199) 
18666

>  <fragmenstein_runtime>  (1199) 
3.615709

$$$$
CNC[C@@H]1C(=O)Nc2ccc(C(=O)Nc3ccc4c(c3)CNC4)cc21
     RDKit          3D

 25 28  0  0  0  0  0  0  0  0999 V2000
   -2.9804    5.8880  -16.9986 C   0  0  0  0  0  0  0  0  0  0  0  0
   -4.2549    6.5859  -17.1373 N   0  0  0  0  0  0  0  0  0  0  0  0
   -4.9862    6.1668  -18.3515 C   0  0  0  0  0  0  0  0  0  0  0  0
   -5.5556    4.7540  -18.2933 C   0  0  2  0  0  0  0  0  0  0  0  0
   -6.4378    4.4069  -19.5108 C   0  0  0  0  0  0  0  0  0  0  0  0
   -6.0654    4.2745  -20.6682 O   0  0  0  0  0  0  0  0  0  0  0  0
   -7.7385    4.2273  -19.0407 N   0  0  0  0  0  0  0  0  0  0  0  0
   -7.7927    4.3211  -17.6591 C   0  0  0  0  0  0  0  0  0  0  0  0
   -8.8714    4.1237  -16.8284 C   0  0  0  0  0  0  0  0  0  0  0  0
   -8.6312    4.1585  -15.4457 C   0  0  0  0  0  0  0  0  0  0  0  0
   -7.3378    4.3974  -14.9322 C   0  0  0  0  0  0  0  0  0  0  0  0
   -7.0243    4.1106  -13.5048 C   0  0  0  0  0  0  0  0  0  0  0  0
   -6.1537    3.3721  -13.2821 O   0  0  0  0  0  0  0  0  0  0  0  0
   -8.0132    4.7973  -12.5549 N   0  0  0  0  0  0  0  0  0  0  0  0
   -8.1957    4.6547  -11.1933 C   0  0  0  0  0  0  0  0  0  0  0  0
   -8.3744    5.7714  -10.3759 C   0  0  0  0  0  0  0  0  0  0  0  0
   -8.5233    5.5992   -8.9965 C   0  0  0  0  0  0  0  0  0  0  0  0
   -8.6070    4.3090   -8.4924 C   0  0  0  0  0  0  0  0  0  0  0  0
   -8.5071    3.2063   -9.3270 C   0  0  0  0  0  0  0  0  0  0  0  0
   -8.2336    3.3575  -10.6710 C   0  0  0  0  0  0  0  0  0  0  0  0
   -8.8064    1.9622   -8.5668 C   0  0  0  0  0  0  0  0  0  0  0  0
   -8.9051    2.3688   -7.1368 N   0  0  0  0  0  0  0  0  0  0  0  0
   -8.8587    3.8470   -7.0988 C   0  0  0  0  0  0  0  0  0  0  0  0
   -6.2784    4.6392  -15.7975 C   0  0  0  0  0  0  0  0  0  0  0  0
   -6.5271    4.6007  -17.1587 C   0  0  0  0  0  0  0  0  0  0  0  0
  1  2  1  0
  2  3  1  0
  4  3  1  6
  4  5  1  0
  5  6  2  0
  5  7  1  0
  7  8  1  0
  8  9  2  0
  9 10  1  0
 10 11  2  0
 11 12  1  0
 12 13  2  0
 12 14  1  0
 14 15  1  0
 15 16  2  0
 16 17  1  0
 17 18  2  0
 18 19  1  0
 19 20  2  0
 19 21  1  0
 21 22  1  0
 22 23  1  0
 11 24  1  0
 24 25  2  0
 25  4  1  0
 25  8  1  0
 20 15  1  0
 23 18  1  0
M  END
>  <smiles>  (1200) 
C18621-P178

>  <fragmenstein_outcome>  (1200) 
acceptable

>  <inchikey>  (1200) 
WRFIPADNDKERDN-UHFFFAOYSA-N

>  <fragmenstein_mode>  (1200) 
expansion

>  <HIPPO Pose ID>  (1200) 
20623

>  <Energy>  (1200) 
78.607556

>  <fragmenstein_error>  (1200) 


>  <tags>  (1200) 
{'openbind_xx01zvns2b_c1_fragmenstein', 'fragmenstein_placed'}

>  <ref_pdb>  (1200) 
175

>  <scratch_subdir>  (1200) 
/opt/xchem-fragalysis-2/maxwin/BulkDock/SCRATCH/511028/C18621-P178

>  <alias>  (1200) 
CNC[C@@H]1C(=O)Nc2ccc(C(=O)Nc3ccc4c(c3)CNC4)cc21

>  <HIPPO Compound ID>  (1200) 
18621

>  <fragmenstein_runtime>  (1200) 
4.163933

$$$$
CC(C)NC(=O)[C@](O)(Nc1ccc2c(c1)CNC2)c1cc(Cl)c2c3c1N=C(c1ccccc1)C=3C(=O)N=2
     RDKit          3D

 37 42  0  0  0  0  0  0  0  0999 V2000
   -3.8795    1.7797  -11.9979 C   0  0  0  0  0  0  0  0  0  0  0  0
   -4.0477    3.2910  -11.9106 C   0  0  0  0  0  0  0  0  0  0  0  0
   -4.1498    3.7348  -10.4534 C   0  0  0  0  0  0  0  0  0  0  0  0
   -5.2124    3.7309  -12.6431 N   0  0  0  0  0  0  0  0  0  0  0  0
   -5.6598    5.1639  -13.0685 C   0  0  0  0  0  0  0  0  0  0  0  0
   -5.1121    6.1963  -12.9564 O   0  0  0  0  0  0  0  0  0  0  0  0
   -7.1496    5.0823  -13.6954 C   0  0  2  0  0  0  0  0  0  0  0  0
   -7.7658    6.3682  -13.6252 O   0  0  0  0  0  0  0  0  0  0  0  0
   -7.9905    4.1245  -12.9592 N   0  0  0  0  0  0  0  0  0  0  0  0
   -8.1337    4.1492  -11.5678 C   0  0  0  0  0  0  0  0  0  0  0  0
   -8.0085    5.3196  -10.7916 C   0  0  0  0  0  0  0  0  0  0  0  0
   -8.1714    5.3132   -9.3992 C   0  0  0  0  0  0  0  0  0  0  0  0
   -8.4941    4.1222   -8.7853 C   0  0  0  0  0  0  0  0  0  0  0  0
   -8.6460    2.9608   -9.5287 C   0  0  0  0  0  0  0  0  0  0  0  0
   -8.4780    2.9595  -10.9055 C   0  0  0  0  0  0  0  0  0  0  0  0
   -8.9830    1.8345   -8.6087 C   0  0  0  0  0  0  0  0  0  0  0  0
   -9.3840    2.4843   -7.3296 N   0  0  0  0  0  0  0  0  0  0  0  0
   -8.7367    3.8156   -7.3471 C   0  0  0  0  0  0  0  0  0  0  0  0
   -7.1763    4.7471  -15.1783 C   0  0  0  0  0  0  0  0  0  0  0  0
   -8.4893    4.3677  -15.8165 C   0  0  0  0  0  0  0  0  0  0  0  0
   -8.6707    4.1465  -17.1430 C   0  0  0  0  0  0  0  0  0  0  0  0
  -10.1901    3.9211  -17.8574 Cl  0  0  0  0  0  0  0  0  0  0  0  0
   -7.5216    4.2599  -18.0613 C   0  0  0  0  0  0  0  0  0  0  0  0
   -6.3613    4.6521  -17.3646 C   0  0  0  0  0  0  0  0  0  0  0  0
   -6.1411    4.8928  -16.0191 C   0  0  0  0  0  0  0  0  0  0  0  0
   -4.8324    5.2955  -15.9573 N   0  0  0  0  0  0  0  0  0  0  0  0
   -4.3864    5.2612  -17.2159 C   0  0  0  0  0  0  0  0  0  0  0  0
   -3.0090    5.6359  -17.5871 C   0  0  0  0  0  0  0  0  0  0  0  0
   -2.2040    6.2419  -16.6106 C   0  0  0  0  0  0  0  0  0  0  0  0
   -0.8900    6.6103  -16.9046 C   0  0  0  0  0  0  0  0  0  0  0  0
   -0.3702    6.3697  -18.1736 C   0  0  0  0  0  0  0  0  0  0  0  0
   -1.1636    5.7637  -19.1463 C   0  0  0  0  0  0  0  0  0  0  0  0
   -2.4814    5.3975  -18.8586 C   0  0  0  0  0  0  0  0  0  0  0  0
   -5.3757    4.8402  -18.1941 C   0  0  0  0  0  0  0  0  0  0  0  0
   -5.9322    4.5125  -19.4919 C   0  0  0  0  0  0  0  0  0  0  0  0
   -5.3224    4.5645  -20.5457 O   0  0  0  0  0  0  0  0  0  0  0  0
   -7.2695    4.1245  -19.3206 N   0  0  0  0  0  0  0  0  0  0  0  0
  1  2  1  0
  2  3  1  0
  2  4  1  0
  4  5  1  0
  5  6  2  0
  5  7  1  0
  7  8  1  6
  7  9  1  0
  9 10  1  0
 10 11  2  0
 11 12  1  0
 12 13  2  0
 13 14  1  0
 14 15  2  0
 14 16  1  0
 16 17  1  0
 17 18  1  0
  7 19  1  0
 19 20  1  0
 20 21  2  0
 21 22  1  0
 21 23  1  0
 23 24  1  0
 24 25  1  0
 25 26  1  0
 26 27  2  0
 27 28  1  0
 28 29  2  0
 29 30  1  0
 30 31  2  0
 31 32  1  0
 32 33  2  0
 27 34  1  0
 34 35  1  0
 35 36  2  0
 35 37  1  0
 15 10  1  0
 25 19  2  0
 33 28  1  0
 18 13  1  0
 37 23  2  0
 34 24  2  0
M  END
>  <smiles>  (1201) 
C18670-P178

>  <fragmenstein_outcome>  (1201) 
acceptable

>  <inchikey>  (1201) 
AJIMTLIKSAEYNB-UHFFFAOYSA-N

>  <fragmenstein_mode>  (1201) 
expansion

>  <HIPPO Pose ID>  (1201) 
20624

>  <Energy>  (1201) 
134.376789

>  <fragmenstein_error>  (1201) 


>  <tags>  (1201) 
{'openbind_xx01zvns2b_c1_fragmenstein', 'fragmenstein_placed'}

>  <ref_pdb>  (1201) 
175

>  <scratch_subdir>  (1201) 
/opt/xchem-fragalysis-2/maxwin/BulkDock/SCRATCH/511028/C18670-P178

>  <alias>  (1201) 
CC(C)NC(=O)[C@](O)(Nc1ccc2c(c1)CNC2)c1cc(Cl)c2c3c1N=C(c1ccccc1)C=3C(=O)N=2

>  <HIPPO Compound ID>  (1201) 
18670

>  <fragmenstein_runtime>  (1201) 
7.390229

$$$$
O=C(Nc1ccc2c(c1)CNC2)c1cc(Cl)c2c(c1)[C@@]1(CCNC1)C(=O)N2
     RDKit          3D

 27 31  0  0  0  0  0  0  0  0999 V2000
   -6.9310    6.4170  -13.5485 O   0  0  0  0  0  0  0  0  0  0  0  0
   -7.3533    5.3516  -13.7760 C   0  0  0  0  0  0  0  0  0  0  0  0
   -7.9607    4.2902  -12.8285 N   0  0  0  0  0  0  0  0  0  0  0  0
   -8.0839    4.2807  -11.4409 C   0  0  0  0  0  0  0  0  0  0  0  0
   -7.8341    5.4389  -10.6888 C   0  0  0  0  0  0  0  0  0  0  0  0
   -7.9814    5.4360   -9.2989 C   0  0  0  0  0  0  0  0  0  0  0  0
   -8.3678    4.2601   -8.6843 C   0  0  0  0  0  0  0  0  0  0  0  0
   -8.6151    3.1116   -9.4254 C   0  0  0  0  0  0  0  0  0  0  0  0
   -8.4848    3.1023  -10.8054 C   0  0  0  0  0  0  0  0  0  0  0  0
   -9.0480    2.0173   -8.5117 C   0  0  0  0  0  0  0  0  0  0  0  0
   -8.8517    2.5300   -7.1276 N   0  0  0  0  0  0  0  0  0  0  0  0
   -8.6235    3.9866   -7.2434 C   0  0  0  0  0  0  0  0  0  0  0  0
   -7.4023    4.9181  -15.1975 C   0  0  0  0  0  0  0  0  0  0  0  0
   -8.5857    4.3891  -15.7352 C   0  0  0  0  0  0  0  0  0  0  0  0
   -8.6783    4.1527  -17.1033 C   0  0  0  0  0  0  0  0  0  0  0  0
  -10.1671    3.7815  -17.8286 Cl  0  0  0  0  0  0  0  0  0  0  0  0
   -7.5765    4.3817  -17.8933 C   0  0  0  0  0  0  0  0  0  0  0  0
   -6.4225    4.9617  -17.3840 C   0  0  0  0  0  0  0  0  0  0  0  0
   -6.3145    5.2253  -16.0272 C   0  0  0  0  0  0  0  0  0  0  0  0
   -5.5007    5.2676  -18.5409 C   0  0  2  0  0  0  0  0  0  0  0  0
   -4.0337    5.0404  -18.2624 C   0  0  0  0  0  0  0  0  0  0  0  0
   -3.5275    6.3795  -17.7309 C   0  0  0  0  0  0  0  0  0  0  0  0
   -4.5464    7.4019  -18.0094 N   0  0  0  0  0  0  0  0  0  0  0  0
   -5.5156    6.7522  -18.9112 C   0  0  0  0  0  0  0  0  0  0  0  0
   -6.1666    4.4881  -19.6996 C   0  0  0  0  0  0  0  0  0  0  0  0
   -5.7225    4.2674  -20.8143 O   0  0  0  0  0  0  0  0  0  0  0  0
   -7.4263    4.1178  -19.2478 N   0  0  0  0  0  0  0  0  0  0  0  0
  1  2  2  0
  2  3  1  0
  3  4  1  0
  4  5  2  0
  5  6  1  0
  6  7  2  0
  7  8  1  0
  8  9  2  0
  8 10  1  0
 10 11  1  0
 11 12  1  0
  2 13  1  0
 13 14  2  0
 14 15  1  0
 15 16  1  0
 15 17  2  0
 17 18  1  0
 18 19  2  0
 18 20  1  0
 20 21  1  1
 21 22  1  0
 22 23  1  0
 23 24  1  0
 20 25  1  0
 25 26  2  0
 25 27  1  0
  9  4  1  0
 19 13  1  0
 24 20  1  0
 12  7  1  0
 27 17  1  0
M  END
>  <smiles>  (1202) 
C18672-P178

>  <fragmenstein_outcome>  (1202) 
acceptable

>  <inchikey>  (1202) 
AACMWCFDDBWCGJ-UHFFFAOYSA-N

>  <fragmenstein_mode>  (1202) 
expansion

>  <HIPPO Pose ID>  (1202) 
20625

>  <Energy>  (1202) 
77.123223

>  <fragmenstein_error>  (1202) 


>  <tags>  (1202) 
{'openbind_xx01zvns2b_c1_fragmenstein', 'fragmenstein_placed'}

>  <ref_pdb>  (1202) 
175

>  <scratch_subdir>  (1202) 
/opt/xchem-fragalysis-2/maxwin/BulkDock/SCRATCH/511028/C18672-P178

>  <alias>  (1202) 
O=C(Nc1ccc2c(c1)CNC2)c1cc(Cl)c2c(c1)[C@@]1(CCNC1)C(=O)N2

>  <HIPPO Compound ID>  (1202) 
18672

>  <fragmenstein_runtime>  (1202) 
2.777707

$$$$
O=C(Nc1ccc2c(c1)CNC2)c1cc(F)c2c(c1)[C@@H](NCO)C(=O)N2
     RDKit          3D

 26 29  0  0  0  0  0  0  0  0999 V2000
   -7.6359    6.4539  -13.6372 O   0  0  0  0  0  0  0  0  0  0  0  0
   -7.8937    5.3333  -13.8430 C   0  0  0  0  0  0  0  0  0  0  0  0
   -8.2719    4.1972  -12.8671 N   0  0  0  0  0  0  0  0  0  0  0  0
   -8.3184    4.1781  -11.4741 C   0  0  0  0  0  0  0  0  0  0  0  0
   -8.1313    5.3508  -10.7238 C   0  0  0  0  0  0  0  0  0  0  0  0
   -8.2242    5.3319   -9.3279 C   0  0  0  0  0  0  0  0  0  0  0  0
   -8.5229    4.1322   -8.7101 C   0  0  0  0  0  0  0  0  0  0  0  0
   -8.6920    2.9663   -9.4498 C   0  0  0  0  0  0  0  0  0  0  0  0
   -8.5797    2.9665  -10.8296 C   0  0  0  0  0  0  0  0  0  0  0  0
   -8.9945    1.8375   -8.5212 C   0  0  0  0  0  0  0  0  0  0  0  0
   -9.3630    2.4869   -7.2329 N   0  0  0  0  0  0  0  0  0  0  0  0
   -8.7214    3.8205   -7.2654 C   0  0  0  0  0  0  0  0  0  0  0  0
   -7.8614    4.8664  -15.2556 C   0  0  0  0  0  0  0  0  0  0  0  0
   -8.8974    4.1126  -15.8197 C   0  0  0  0  0  0  0  0  0  0  0  0
   -8.8930    3.8290  -17.1821 C   0  0  0  0  0  0  0  0  0  0  0  0
   -9.9321    3.2150  -17.7559 F   0  0  0  0  0  0  0  0  0  0  0  0
   -7.8151    4.2229  -17.9376 C   0  0  0  0  0  0  0  0  0  0  0  0
   -6.7788    4.9704  -17.3941 C   0  0  0  0  0  0  0  0  0  0  0  0
   -6.8063    5.3169  -16.0532 C   0  0  0  0  0  0  0  0  0  0  0  0
   -5.7943    5.3257  -18.4740 C   0  0  1  0  0  0  0  0  0  0  0  0
   -4.4026    4.9941  -18.1672 N   0  0  0  0  0  0  0  0  0  0  0  0
   -3.8139    5.7801  -17.1185 C   0  0  0  0  0  0  0  0  0  0  0  0
   -3.7182    4.9802  -15.9637 O   0  0  0  0  0  0  0  0  0  0  0  0
   -6.3499    4.4719  -19.6806 C   0  0  0  0  0  0  0  0  0  0  0  0
   -5.8455    4.2821  -20.7783 O   0  0  0  0  0  0  0  0  0  0  0  0
   -7.5733    3.9458  -19.2718 N   0  0  0  0  0  0  0  0  0  0  0  0
  1  2  2  0
  2  3  1  0
  3  4  1  0
  4  5  2  0
  5  6  1  0
  6  7  2  0
  7  8  1  0
  8  9  2  0
  8 10  1  0
 10 11  1  0
 11 12  1  0
  2 13  1  0
 13 14  2  0
 14 15  1  0
 15 16  1  0
 15 17  2  0
 17 18  1  0
 18 19  2  0
 18 20  1  0
 20 21  1  1
 21 22  1  0
 22 23  1  0
 20 24  1  0
 24 25  2  0
 24 26  1  0
  9  4  1  0
 19 13  1  0
 12  7  1  0
 26 17  1  0
M  END
>  <smiles>  (1203) 
C18674-P178

>  <fragmenstein_outcome>  (1203) 
acceptable

>  <inchikey>  (1203) 
VKGAIGWHRDEBQO-UHFFFAOYSA-N

>  <fragmenstein_mode>  (1203) 
expansion

>  <HIPPO Pose ID>  (1203) 
20626

>  <Energy>  (1203) 
40.668426

>  <fragmenstein_error>  (1203) 


>  <tags>  (1203) 
{'openbind_xx01zvns2b_c1_fragmenstein', 'fragmenstein_placed'}

>  <ref_pdb>  (1203) 
175

>  <scratch_subdir>  (1203) 
/opt/xchem-fragalysis-2/maxwin/BulkDock/SCRATCH/511028/C18674-P178

>  <alias>  (1203) 
O=C(Nc1ccc2c(c1)CNC2)c1cc(F)c2c(c1)[C@@H](NCO)C(=O)N2

>  <HIPPO Compound ID>  (1203) 
18674

>  <fragmenstein_runtime>  (1203) 
5.332946

$$$$
CNN[C@@H]1C(=O)Nc2c(F)cc(C(=O)Nc3ccc4c(c3)CNC4)cc21
     RDKit          3D

 26 29  0  0  0  0  0  0  0  0999 V2000
   -3.0347    5.8813  -16.9704 C   0  0  0  0  0  0  0  0  0  0  0  0
   -4.2554    6.6320  -17.2257 N   0  0  0  0  0  0  0  0  0  0  0  0
   -4.9914    6.1665  -18.3881 N   0  0  0  0  0  0  0  0  0  0  0  0
   -5.5051    4.7889  -18.2921 C   0  0  2  0  0  0  0  0  0  0  0  0
   -6.2731    4.3929  -19.6033 C   0  0  0  0  0  0  0  0  0  0  0  0
   -5.8220    4.3481  -20.7403 O   0  0  0  0  0  0  0  0  0  0  0  0
   -7.5686    4.0450  -19.2343 N   0  0  0  0  0  0  0  0  0  0  0  0
   -7.7496    4.1746  -17.8669 C   0  0  0  0  0  0  0  0  0  0  0  0
   -8.8893    3.9247  -17.1393 C   0  0  0  0  0  0  0  0  0  0  0  0
  -10.0159    3.5314  -17.7451 F   0  0  0  0  0  0  0  0  0  0  0  0
   -8.8534    4.1180  -15.7614 C   0  0  0  0  0  0  0  0  0  0  0  0
   -7.6919    4.6012  -15.1473 C   0  0  0  0  0  0  0  0  0  0  0  0
   -7.6996    5.0852  -13.7471 C   0  0  0  0  0  0  0  0  0  0  0  0
   -7.3814    6.1931  -13.5622 O   0  0  0  0  0  0  0  0  0  0  0  0
   -8.1774    4.0041  -12.7573 N   0  0  0  0  0  0  0  0  0  0  0  0
   -8.2709    4.0271  -11.3689 C   0  0  0  0  0  0  0  0  0  0  0  0
   -8.0262    5.2061  -10.6445 C   0  0  0  0  0  0  0  0  0  0  0  0
   -8.1525    5.2313   -9.2518 C   0  0  0  0  0  0  0  0  0  0  0  0
   -8.5227    4.0648   -8.6107 C   0  0  0  0  0  0  0  0  0  0  0  0
   -8.7407    2.8911   -9.3249 C   0  0  0  0  0  0  0  0  0  0  0  0
   -8.6201    2.8527  -10.7025 C   0  0  0  0  0  0  0  0  0  0  0  0
   -9.0743    1.7939   -8.3715 C   0  0  0  0  0  0  0  0  0  0  0  0
   -9.4287    2.4833   -7.1014 N   0  0  0  0  0  0  0  0  0  0  0  0
   -8.7441    3.7952   -7.1609 C   0  0  0  0  0  0  0  0  0  0  0  0
   -6.5299    4.8104  -15.8884 C   0  0  0  0  0  0  0  0  0  0  0  0
   -6.5761    4.6083  -17.2573 C   0  0  0  0  0  0  0  0  0  0  0  0
  1  2  1  0
  2  3  1  0
  4  3  1  6
  4  5  1  0
  5  6  2  0
  5  7  1  0
  7  8  1  0
  8  9  2  0
  9 10  1  0
  9 11  1  0
 11 12  2  0
 12 13  1  0
 13 14  2  0
 13 15  1  0
 15 16  1  0
 16 17  2  0
 17 18  1  0
 18 19  2  0
 19 20  1  0
 20 21  2  0
 20 22  1  0
 22 23  1  0
 23 24  1  0
 12 25  1  0
 25 26  2  0
 26  4  1  0
 26  8  1  0
 21 16  1  0
 24 19  1  0
M  END
>  <smiles>  (1204) 
C18675-P178

>  <fragmenstein_outcome>  (1204) 
acceptable

>  <inchikey>  (1204) 
OUMZPDLIUZBUEJ-UHFFFAOYSA-N

>  <fragmenstein_mode>  (1204) 
expansion

>  <HIPPO Pose ID>  (1204) 
20627

>  <Energy>  (1204) 
138.098237

>  <fragmenstein_error>  (1204) 


>  <tags>  (1204) 
{'openbind_xx01zvns2b_c1_fragmenstein', 'fragmenstein_placed'}

>  <ref_pdb>  (1204) 
175

>  <scratch_subdir>  (1204) 
/opt/xchem-fragalysis-2/maxwin/BulkDock/SCRATCH/511028/C18675-P178

>  <alias>  (1204) 
CNN[C@@H]1C(=O)Nc2c(F)cc(C(=O)Nc3ccc4c(c3)CNC4)cc21

>  <HIPPO Compound ID>  (1204) 
43105

>  <fragmenstein_runtime>  (1204) 
3.680498

$$$$
CCN[C@H]1C(=O)Nc2c(F)cc(C(=O)Nc3ccc4c(c3)CNC4)cc21
     RDKit          3D

 26 29  0  0  0  0  0  0  0  0999 V2000
   -2.4572    5.7825  -16.9011 C   0  0  0  0  0  0  0  0  0  0  0  0
   -3.8642    6.1712  -17.3275 C   0  0  0  0  0  0  0  0  0  0  0  0
   -4.4652    5.0795  -18.0805 N   0  0  0  0  0  0  0  0  0  0  0  0
   -5.8511    5.3553  -18.4740 C   0  0  1  0  0  0  0  0  0  0  0  0
   -6.3461    4.4659  -19.6768 C   0  0  0  0  0  0  0  0  0  0  0  0
   -5.8133    4.2792  -20.7609 O   0  0  0  0  0  0  0  0  0  0  0  0
   -7.5668    3.9150  -19.2901 N   0  0  0  0  0  0  0  0  0  0  0  0
   -7.8441    4.1976  -17.9641 C   0  0  0  0  0  0  0  0  0  0  0  0
   -8.9208    3.7744  -17.2247 C   0  0  0  0  0  0  0  0  0  0  0  0
   -9.9297    3.1267  -17.8131 F   0  0  0  0  0  0  0  0  0  0  0  0
   -8.9540    4.0566  -15.8624 C   0  0  0  0  0  0  0  0  0  0  0  0
   -7.9463    4.8323  -15.2823 C   0  0  0  0  0  0  0  0  0  0  0  0
   -8.0117    5.3175  -13.8792 C   0  0  0  0  0  0  0  0  0  0  0  0
   -7.8244    6.4565  -13.7008 O   0  0  0  0  0  0  0  0  0  0  0  0
   -8.3049    4.1820  -12.8749 N   0  0  0  0  0  0  0  0  0  0  0  0
   -8.3343    4.1909  -11.4821 C   0  0  0  0  0  0  0  0  0  0  0  0
   -8.0924    5.3734  -10.7636 C   0  0  0  0  0  0  0  0  0  0  0  0
   -8.1488    5.3891   -9.3669 C   0  0  0  0  0  0  0  0  0  0  0  0
   -8.4484    4.2098   -8.7120 C   0  0  0  0  0  0  0  0  0  0  0  0
   -8.6792    3.0372   -9.4188 C   0  0  0  0  0  0  0  0  0  0  0  0
   -8.6189    3.0049  -10.8031 C   0  0  0  0  0  0  0  0  0  0  0  0
   -9.0237    1.9430   -8.4692 C   0  0  0  0  0  0  0  0  0  0  0  0
   -8.8398    2.5022   -7.1017 N   0  0  0  0  0  0  0  0  0  0  0  0
   -8.6288    3.9578   -7.2564 C   0  0  0  0  0  0  0  0  0  0  0  0
   -6.8861    5.3038  -16.0615 C   0  0  0  0  0  0  0  0  0  0  0  0
   -6.8388    4.9743  -17.4056 C   0  0  0  0  0  0  0  0  0  0  0  0
  1  2  1  0
  2  3  1  0
  4  3  1  1
  4  5  1  0
  5  6  2  0
  5  7  1  0
  7  8  1  0
  8  9  2  0
  9 10  1  0
  9 11  1  0
 11 12  2  0
 12 13  1  0
 13 14  2  0
 13 15  1  0
 15 16  1  0
 16 17  2  0
 17 18  1  0
 18 19  2  0
 19 20  1  0
 20 21  2  0
 20 22  1  0
 22 23  1  0
 23 24  1  0
 12 25  1  0
 25 26  2  0
 26  4  1  0
 26  8  1  0
 21 16  1  0
 24 19  1  0
M  END
>  <smiles>  (1205) 
C18677-P178

>  <fragmenstein_outcome>  (1205) 
acceptable

>  <inchikey>  (1205) 
MDRLCUWLBMWNSF-UHFFFAOYSA-N

>  <fragmenstein_mode>  (1205) 
expansion

>  <HIPPO Pose ID>  (1205) 
20628

>  <Energy>  (1205) 
86.081072

>  <fragmenstein_error>  (1205) 


>  <tags>  (1205) 
{'openbind_xx01zvns2b_c1_fragmenstein', 'fragmenstein_placed'}

>  <ref_pdb>  (1205) 
175

>  <scratch_subdir>  (1205) 
/opt/xchem-fragalysis-2/maxwin/BulkDock/SCRATCH/511028/C18677-P178

>  <alias>  (1205) 
CCN[C@H]1C(=O)Nc2c(F)cc(C(=O)Nc3ccc4c(c3)CNC4)cc21

>  <HIPPO Compound ID>  (1205) 
18677

>  <fragmenstein_runtime>  (1205) 
3.609441

$$$$
N[C@@H]1C(=O)Nc2c(Br)cc(C(=O)Nc3ccc4c(c3)CNC4)cc21
     RDKit          3D

 24 27  0  0  0  0  0  0  0  0999 V2000
   -4.5836    6.2087  -18.4968 N   0  0  0  0  0  0  0  0  0  0  0  0
   -5.1425    4.8584  -18.3879 C   0  0  2  0  0  0  0  0  0  0  0  0
   -5.9853    4.4864  -19.6546 C   0  0  0  0  0  0  0  0  0  0  0  0
   -5.6059    4.4497  -20.8153 O   0  0  0  0  0  0  0  0  0  0  0  0
   -7.2706    4.2227  -19.2169 N   0  0  0  0  0  0  0  0  0  0  0  0
   -7.3826    4.3864  -17.8435 C   0  0  0  0  0  0  0  0  0  0  0  0
   -8.5189    4.2740  -17.0788 C   0  0  0  0  0  0  0  0  0  0  0  0
  -10.1662    4.0118  -17.9035 Br  0  0  0  0  0  0  0  0  0  0  0  0
   -8.4326    4.4982  -15.7109 C   0  0  0  0  0  0  0  0  0  0  0  0
   -7.2050    4.8825  -15.1431 C   0  0  0  0  0  0  0  0  0  0  0  0
   -7.1984    5.3140  -13.7226 C   0  0  0  0  0  0  0  0  0  0  0  0
   -6.8452    6.3995  -13.4744 O   0  0  0  0  0  0  0  0  0  0  0  0
   -7.7840    4.2147  -12.8036 N   0  0  0  0  0  0  0  0  0  0  0  0
   -7.9618    4.1903  -11.4224 C   0  0  0  0  0  0  0  0  0  0  0  0
   -7.7602    5.3376  -10.6398 C   0  0  0  0  0  0  0  0  0  0  0  0
   -7.9944    5.3134   -9.2602 C   0  0  0  0  0  0  0  0  0  0  0  0
   -8.4214    4.1292   -8.6889 C   0  0  0  0  0  0  0  0  0  0  0  0
   -8.6017    2.9857   -9.4595 C   0  0  0  0  0  0  0  0  0  0  0  0
   -8.3848    2.9982  -10.8270 C   0  0  0  0  0  0  0  0  0  0  0  0
   -9.0055    1.8569   -8.5705 C   0  0  0  0  0  0  0  0  0  0  0  0
   -9.4207    2.4975   -7.2930 N   0  0  0  0  0  0  0  0  0  0  0  0
   -8.7329    3.8084   -7.2658 C   0  0  0  0  0  0  0  0  0  0  0  0
   -6.0574    5.0322  -15.9344 C   0  0  0  0  0  0  0  0  0  0  0  0
   -6.1630    4.7633  -17.2923 C   0  0  0  0  0  0  0  0  0  0  0  0
  2  1  1  6
  2  3  1  0
  3  4  2  0
  3  5  1  0
  5  6  1  0
  6  7  2  0
  7  8  1  0
  7  9  1  0
  9 10  2  0
 10 11  1  0
 11 12  2  0
 11 13  1  0
 13 14  1  0
 14 15  2  0
 15 16  1  0
 16 17  2  0
 17 18  1  0
 18 19  2  0
 18 20  1  0
 20 21  1  0
 21 22  1  0
 10 23  1  0
 23 24  2  0
 24  2  1  0
 24  6  1  0
 19 14  1  0
 22 17  1  0
M  END
>  <smiles>  (1206) 
C18680-P178

>  <fragmenstein_outcome>  (1206) 
acceptable

>  <inchikey>  (1206) 
KAQUHFFHLPUFOI-UHFFFAOYSA-N

>  <fragmenstein_mode>  (1206) 
expansion

>  <HIPPO Pose ID>  (1206) 
20630

>  <Energy>  (1206) 
83.213414

>  <fragmenstein_error>  (1206) 


>  <tags>  (1206) 
{'openbind_xx01zvns2b_c1_fragmenstein', 'fragmenstein_placed'}

>  <ref_pdb>  (1206) 
175

>  <scratch_subdir>  (1206) 
/opt/xchem-fragalysis-2/maxwin/BulkDock/SCRATCH/511028/C18680-P178

>  <alias>  (1206) 
N[C@@H]1C(=O)Nc2c(Br)cc(C(=O)Nc3ccc4c(c3)CNC4)cc21

>  <HIPPO Compound ID>  (1206) 
31361

>  <fragmenstein_runtime>  (1206) 
3.460423

$$$$
O=C(Nc1ccc2c(c1)CNC2)c1cc(F)c2c(c1)[C@H](Nc1ccccc1)C(=O)N2
     RDKit          3D

 30 34  0  0  0  0  0  0  0  0999 V2000
   -7.2347    6.2646  -13.6495 O   0  0  0  0  0  0  0  0  0  0  0  0
   -7.5965    5.1724  -13.8481 C   0  0  0  0  0  0  0  0  0  0  0  0
   -8.1169    4.0964  -12.8698 N   0  0  0  0  0  0  0  0  0  0  0  0
   -8.2087    4.1057  -11.4790 C   0  0  0  0  0  0  0  0  0  0  0  0
   -8.0011    5.2832  -10.7423 C   0  0  0  0  0  0  0  0  0  0  0  0
   -8.1399    5.2918   -9.3494 C   0  0  0  0  0  0  0  0  0  0  0  0
   -8.4931    4.1125   -8.7207 C   0  0  0  0  0  0  0  0  0  0  0  0
   -8.6794    2.9409   -9.4470 C   0  0  0  0  0  0  0  0  0  0  0  0
   -8.5375    2.9171  -10.8236 C   0  0  0  0  0  0  0  0  0  0  0  0
   -9.0228    1.8332   -8.5075 C   0  0  0  0  0  0  0  0  0  0  0  0
   -9.4259    2.5147   -7.2436 N   0  0  0  0  0  0  0  0  0  0  0  0
   -8.7326    3.8261   -7.2767 C   0  0  0  0  0  0  0  0  0  0  0  0
   -7.6244    4.6942  -15.2554 C   0  0  0  0  0  0  0  0  0  0  0  0
   -8.8023    4.1706  -15.8105 C   0  0  0  0  0  0  0  0  0  0  0  0
   -8.8846    3.9241  -17.1773 C   0  0  0  0  0  0  0  0  0  0  0  0
  -10.0318    3.5167  -17.7334 F   0  0  0  0  0  0  0  0  0  0  0  0
   -7.7691    4.1411  -17.9515 C   0  0  0  0  0  0  0  0  0  0  0  0
   -6.5804    4.6173  -17.4066 C   0  0  0  0  0  0  0  0  0  0  0  0
   -6.4978    4.9129  -16.0532 C   0  0  0  0  0  0  0  0  0  0  0  0
   -5.5442    4.7506  -18.4920 C   0  0  2  0  0  0  0  0  0  0  0  0
   -5.0903    6.1389  -18.6038 N   0  0  0  0  0  0  0  0  0  0  0  0
   -4.2219    6.6647  -17.6448 C   0  0  0  0  0  0  0  0  0  0  0  0
   -3.1818    5.9261  -17.0665 C   0  0  0  0  0  0  0  0  0  0  0  0
   -2.3109    6.5056  -16.1380 C   0  0  0  0  0  0  0  0  0  0  0  0
   -2.4490    7.8462  -15.7936 C   0  0  0  0  0  0  0  0  0  0  0  0
   -3.4457    8.6101  -16.3916 C   0  0  0  0  0  0  0  0  0  0  0  0
   -4.3120    8.0253  -17.3199 C   0  0  0  0  0  0  0  0  0  0  0  0
   -6.3585    4.2751  -19.7536 C   0  0  0  0  0  0  0  0  0  0  0  0
   -5.9725    4.1680  -20.9097 O   0  0  0  0  0  0  0  0  0  0  0  0
   -7.6382    3.9443  -19.3155 N   0  0  0  0  0  0  0  0  0  0  0  0
  1  2  2  0
  2  3  1  0
  3  4  1  0
  4  5  2  0
  5  6  1  0
  6  7  2  0
  7  8  1  0
  8  9  2  0
  8 10  1  0
 10 11  1  0
 11 12  1  0
  2 13  1  0
 13 14  2  0
 14 15  1  0
 15 16  1  0
 15 17  2  0
 17 18  1  0
 18 19  2  0
 18 20  1  0
 20 21  1  6
 21 22  1  0
 22 23  2  0
 23 24  1  0
 24 25  2  0
 25 26  1  0
 26 27  2  0
 20 28  1  0
 28 29  2  0
 28 30  1  0
  9  4  1  0
 19 13  1  0
 27 22  1  0
 12  7  1  0
 30 17  1  0
M  END
>  <smiles>  (1207) 
C18681-P178

>  <fragmenstein_outcome>  (1207) 
acceptable

>  <inchikey>  (1207) 
XKRRUJOUMPPWKO-UHFFFAOYSA-N

>  <fragmenstein_mode>  (1207) 
expansion

>  <HIPPO Pose ID>  (1207) 
20631

>  <Energy>  (1207) 
101.330791

>  <fragmenstein_error>  (1207) 


>  <tags>  (1207) 
{'openbind_xx01zvns2b_c1_fragmenstein', 'fragmenstein_placed'}

>  <ref_pdb>  (1207) 
175

>  <scratch_subdir>  (1207) 
/opt/xchem-fragalysis-2/maxwin/BulkDock/SCRATCH/511028/C18681-P178

>  <alias>  (1207) 
O=C(Nc1ccc2c(c1)CNC2)c1cc(F)c2c(c1)[C@H](Nc1ccccc1)C(=O)N2

>  <HIPPO Compound ID>  (1207) 
18681

>  <fragmenstein_runtime>  (1207) 
7.214664

$$$$
O=C(Nc1ccc2c(c1)CNC2)c1ccc2c(c1)C1(CCOCC1)C(=O)N2
     RDKit          3D

 27 31  0  0  0  0  0  0  0  0999 V2000
   -7.3449    6.4737  -13.6656 O   0  0  0  0  0  0  0  0  0  0  0  0
   -7.6287    5.3611  -13.8822 C   0  0  0  0  0  0  0  0  0  0  0  0
   -7.9789    4.2081  -12.9114 N   0  0  0  0  0  0  0  0  0  0  0  0
   -8.1397    4.2077  -11.5268 C   0  0  0  0  0  0  0  0  0  0  0  0
   -8.0036    5.3838  -10.7727 C   0  0  0  0  0  0  0  0  0  0  0  0
   -8.1743    5.3685   -9.3834 C   0  0  0  0  0  0  0  0  0  0  0  0
   -8.4961    4.1689   -8.7761 C   0  0  0  0  0  0  0  0  0  0  0  0
   -8.6300    3.0016   -9.5200 C   0  0  0  0  0  0  0  0  0  0  0  0
   -8.4455    2.9993  -10.8926 C   0  0  0  0  0  0  0  0  0  0  0  0
   -8.9664    1.8722   -8.6029 C   0  0  0  0  0  0  0  0  0  0  0  0
   -9.3700    2.5177   -7.3236 N   0  0  0  0  0  0  0  0  0  0  0  0
   -8.7380    3.8560   -7.3380 C   0  0  0  0  0  0  0  0  0  0  0  0
   -7.6452    4.9065  -15.3019 C   0  0  0  0  0  0  0  0  0  0  0  0
   -8.7109    4.1444  -15.8113 C   0  0  0  0  0  0  0  0  0  0  0  0
   -8.7541    3.7974  -17.1622 C   0  0  0  0  0  0  0  0  0  0  0  0
   -7.7067    4.2104  -17.9567 C   0  0  0  0  0  0  0  0  0  0  0  0
   -6.6492    4.9880  -17.4834 C   0  0  0  0  0  0  0  0  0  0  0  0
   -6.6118    5.3413  -16.1445 C   0  0  0  0  0  0  0  0  0  0  0  0
   -5.6982    5.2943  -18.6285 C   0  0  0  0  0  0  0  0  0  0  0  0
   -5.7841    6.7499  -19.1103 C   0  0  0  0  0  0  0  0  0  0  0  0
   -4.9660    7.7077  -18.2601 C   0  0  0  0  0  0  0  0  0  0  0  0
   -3.6139    7.2742  -18.1751 O   0  0  0  0  0  0  0  0  0  0  0  0
   -3.5065    6.0079  -17.5339 C   0  0  0  0  0  0  0  0  0  0  0  0
   -4.2451    4.9380  -18.3223 C   0  0  0  0  0  0  0  0  0  0  0  0
   -6.3111    4.4001  -19.7582 C   0  0  0  0  0  0  0  0  0  0  0  0
   -5.8556    4.1805  -20.8705 O   0  0  0  0  0  0  0  0  0  0  0  0
   -7.5177    3.8992  -19.2881 N   0  0  0  0  0  0  0  0  0  0  0  0
  1  2  2  0
  2  3  1  0
  3  4  1  0
  4  5  2  0
  5  6  1  0
  6  7  2  0
  7  8  1  0
  8  9  2  0
  8 10  1  0
 10 11  1  0
 11 12  1  0
  2 13  1  0
 13 14  2  0
 14 15  1  0
 15 16  2  0
 16 17  1  0
 17 18  2  0
 17 19  1  0
 19 20  1  0
 20 21  1  0
 21 22  1  0
 22 23  1  0
 23 24  1  0
 19 25  1  0
 25 26  2  0
 25 27  1  0
  9  4  1  0
 18 13  1  0
 24 19  1  0
 12  7  1  0
 27 16  1  0
M  END
>  <smiles>  (1208) 
C18682-P178

>  <fragmenstein_outcome>  (1208) 
acceptable

>  <inchikey>  (1208) 
CIWIMLBMRDLEFZ-UHFFFAOYSA-N

>  <fragmenstein_mode>  (1208) 
expansion

>  <HIPPO Pose ID>  (1208) 
20632

>  <Energy>  (1208) 
52.997772

>  <fragmenstein_error>  (1208) 


>  <tags>  (1208) 
{'openbind_xx01zvns2b_c1_fragmenstein', 'fragmenstein_placed'}

>  <ref_pdb>  (1208) 
175

>  <scratch_subdir>  (1208) 
/opt/xchem-fragalysis-2/maxwin/BulkDock/SCRATCH/511028/C18682-P178

>  <alias>  (1208) 
O=C(Nc1ccc2c(c1)CNC2)c1ccc2c(c1)C1(CCOCC1)C(=O)N2

>  <HIPPO Compound ID>  (1208) 
18682

>  <fragmenstein_runtime>  (1208) 
4.937786

$$$$
O=C(Nc1ccc2c(c1)CNC2)c1ccc2c(CCNCCCCS(=O)(=O)c3nccn3Cc3cscn3)csc2c1
     RDKit          3D

 42 47  0  0  0  0  0  0  0  0999 V2000
   -6.8997    6.6708  -13.1100 O   0  0  0  0  0  0  0  0  0  0  0  0
   -7.1227    5.5651  -13.4167 C   0  0  0  0  0  0  0  0  0  0  0  0
   -7.6727    4.3850  -12.5829 N   0  0  0  0  0  0  0  0  0  0  0  0
   -7.9631    4.2957  -11.2257 C   0  0  0  0  0  0  0  0  0  0  0  0
   -7.8580    5.4172  -10.3883 C   0  0  0  0  0  0  0  0  0  0  0  0
   -8.1377    5.3191   -9.0227 C   0  0  0  0  0  0  0  0  0  0  0  0
   -8.5256    4.0907   -8.5236 C   0  0  0  0  0  0  0  0  0  0  0  0
   -8.6317    2.9780   -9.3524 C   0  0  0  0  0  0  0  0  0  0  0  0
   -8.3567    3.0594  -10.7066 C   0  0  0  0  0  0  0  0  0  0  0  0
   -9.0301    1.7970   -8.5321 C   0  0  0  0  0  0  0  0  0  0  0  0
   -9.5155    2.3648   -7.2447 N   0  0  0  0  0  0  0  0  0  0  0  0
   -8.8647    3.6889   -7.1279 C   0  0  0  0  0  0  0  0  0  0  0  0
   -6.9265    5.1696  -14.8296 C   0  0  0  0  0  0  0  0  0  0  0  0
   -5.6963    5.4274  -15.4194 C   0  0  0  0  0  0  0  0  0  0  0  0
   -5.5082    5.1943  -16.7798 C   0  0  0  0  0  0  0  0  0  0  0  0
   -6.5694    4.7174  -17.5779 C   0  0  0  0  0  0  0  0  0  0  0  0
   -6.6316    4.4793  -19.0029 C   0  0  0  0  0  0  0  0  0  0  0  0
   -5.5054    4.6988  -19.9814 C   0  0  0  0  0  0  0  0  0  0  0  0
   -5.1734    6.1759  -20.2235 C   0  0  0  0  0  0  0  0  0  0  0  0
   -3.9105    6.3236  -20.9691 N   0  0  0  0  0  0  0  0  0  0  0  0
   -3.6027    7.7331  -21.2239 C   0  0  0  0  0  0  0  0  0  0  0  0
   -3.1518    8.4962  -19.9671 C   0  0  0  0  0  0  0  0  0  0  0  0
   -3.6634    9.9419  -19.9628 C   0  0  0  0  0  0  0  0  0  0  0  0
   -3.8479   10.5217  -18.5594 C   0  0  0  0  0  0  0  0  0  0  0  0
   -5.2664    9.8203  -17.7183 S   0  0  0  0  0  0  0  0  0  0  0  0
   -6.4458    9.9333  -18.5650 O   0  0  0  0  0  0  0  0  0  0  0  0
   -4.9044    8.5472  -17.1334 O   0  0  0  0  0  0  0  0  0  0  0  0
   -5.5476   10.9556  -16.3793 C   0  0  0  0  0  0  0  0  0  0  0  0
   -5.7190   12.2596  -16.5702 N   0  0  0  0  0  0  0  0  0  0  0  0
   -5.9328   12.8008  -15.3329 C   0  0  0  0  0  0  0  0  0  0  0  0
   -5.8944   11.8287  -14.3669 C   0  0  0  0  0  0  0  0  0  0  0  0
   -5.6371   10.6558  -15.0369 N   0  0  0  0  0  0  0  0  0  0  0  0
   -5.5137    9.3580  -14.3887 C   0  0  0  0  0  0  0  0  0  0  0  0
   -4.0859    9.0127  -14.0964 C   0  0  0  0  0  0  0  0  0  0  0  0
   -3.6698    8.1133  -13.1287 C   0  0  0  0  0  0  0  0  0  0  0  0
   -1.9629    7.9767  -13.1331 S   0  0  0  0  0  0  0  0  0  0  0  0
   -1.8952    9.1153  -14.4103 C   0  0  0  0  0  0  0  0  0  0  0  0
   -3.0480    9.5874  -14.8306 N   0  0  0  0  0  0  0  0  0  0  0  0
   -7.8774    4.0146  -19.3534 C   0  0  0  0  0  0  0  0  0  0  0  0
   -8.9451    3.8418  -18.0515 S   0  0  0  0  0  0  0  0  0  0  0  0
   -7.7880    4.4368  -16.9435 C   0  0  0  0  0  0  0  0  0  0  0  0
   -7.9904    4.6479  -15.5683 C   0  0  0  0  0  0  0  0  0  0  0  0
  1  2  2  0
  2  3  1  0
  3  4  1  0
  4  5  2  0
  5  6  1  0
  6  7  2  0
  7  8  1  0
  8  9  2  0
  8 10  1  0
 10 11  1  0
 11 12  1  0
  2 13  1  0
 13 14  2  0
 14 15  1  0
 15 16  2  0
 16 17  1  0
 17 18  1  0
 18 19  1  0
 19 20  1  0
 20 21  1  0
 21 22  1  0
 22 23  1  0
 23 24  1  0
 24 25  1  0
 25 26  2  0
 25 27  2  0
 25 28  1  0
 28 29  2  0
 29 30  1  0
 30 31  2  0
 31 32  1  0
 32 33  1  0
 33 34  1  0
 34 35  2  0
 35 36  1  0
 36 37  1  0
 37 38  2  0
 17 39  2  0
 39 40  1  0
 40 41  1  0
 41 42  2  0
  9  4  1  0
 42 13  1  0
 12  7  1  0
 41 16  1  0
 32 28  1  0
 38 34  1  0
M  END
>  <smiles>  (1209) 
C18717-P178

>  <fragmenstein_outcome>  (1209) 
acceptable

>  <inchikey>  (1209) 
WFRHSEBMWPSOSD-UHFFFAOYSA-N

>  <fragmenstein_mode>  (1209) 
expansion

>  <HIPPO Pose ID>  (1209) 
20641

>  <Energy>  (1209) 
125.0111

>  <fragmenstein_error>  (1209) 


>  <tags>  (1209) 
{'openbind_xx01zvns2b_c1_fragmenstein', 'fragmenstein_placed'}

>  <ref_pdb>  (1209) 
175

>  <scratch_subdir>  (1209) 
/opt/xchem-fragalysis-2/maxwin/BulkDock/SCRATCH/511028/C18717-P178

>  <alias>  (1209) 
O=C(Nc1ccc2c(c1)CNC2)c1ccc2c(CCNCCCCS(=O)(=O)c3nccn3Cc3cscn3)csc2c1

>  <HIPPO Compound ID>  (1209) 
18717

>  <fragmenstein_runtime>  (1209) 
12.489562

$$$$
NCCc1csc2cc(C(O)(O)Nc3ccc4c(c3)CNC4)c(OCF)c(F)c12
     RDKit          3D

 29 32  0  0  0  0  0  0  0  0999 V2000
   -4.2656    6.5328  -20.2795 N   0  0  0  0  0  0  0  0  0  0  0  0
   -5.6470    6.3602  -19.8113 C   0  0  0  0  0  0  0  0  0  0  0  0
   -6.0177    4.8778  -19.6767 C   0  0  0  0  0  0  0  0  0  0  0  0
   -7.1142    4.6196  -18.6793 C   0  0  0  0  0  0  0  0  0  0  0  0
   -8.4038    4.2555  -19.0021 C   0  0  0  0  0  0  0  0  0  0  0  0
   -9.3812    3.9945  -17.6370 S   0  0  0  0  0  0  0  0  0  0  0  0
   -8.1077    4.3988  -16.5548 C   0  0  0  0  0  0  0  0  0  0  0  0
   -8.1641    4.4239  -15.1432 C   0  0  0  0  0  0  0  0  0  0  0  0
   -7.0046    4.6918  -14.3821 C   0  0  0  0  0  0  0  0  0  0  0  0
   -6.9885    4.5965  -12.8631 C   0  0  0  0  0  0  0  0  0  0  0  0
   -6.5533    5.8381  -12.3678 O   0  0  0  0  0  0  0  0  0  0  0  0
   -6.0457    3.6198  -12.5031 O   0  0  0  0  0  0  0  0  0  0  0  0
   -8.2681    4.2383  -12.2960 N   0  0  0  0  0  0  0  0  0  0  0  0
   -8.4234    4.1561  -10.9009 C   0  0  0  0  0  0  0  0  0  0  0  0
   -8.3279    5.2939  -10.0730 C   0  0  0  0  0  0  0  0  0  0  0  0
   -8.4399    5.2019   -8.6807 C   0  0  0  0  0  0  0  0  0  0  0  0
   -8.6921    3.9607   -8.1316 C   0  0  0  0  0  0  0  0  0  0  0  0
   -8.7965    2.8306   -8.9348 C   0  0  0  0  0  0  0  0  0  0  0  0
   -8.6536    2.9065  -10.3083 C   0  0  0  0  0  0  0  0  0  0  0  0
   -9.0798    1.6450   -8.0745 C   0  0  0  0  0  0  0  0  0  0  0  0
   -9.5487    2.2199   -6.7884 N   0  0  0  0  0  0  0  0  0  0  0  0
   -8.9321    3.5649   -6.7126 C   0  0  0  0  0  0  0  0  0  0  0  0
   -5.8312    5.0092  -15.0838 C   0  0  0  0  0  0  0  0  0  0  0  0
   -4.6615    5.2852  -14.4157 O   0  0  0  0  0  0  0  0  0  0  0  0
   -4.4674    6.6958  -14.3279 C   0  0  0  0  0  0  0  0  0  0  0  0
   -3.8109    7.1056  -15.4458 F   0  0  0  0  0  0  0  0  0  0  0  0
   -5.7870    4.9801  -16.4811 C   0  0  0  0  0  0  0  0  0  0  0  0
   -4.6165    5.2049  -17.1034 F   0  0  0  0  0  0  0  0  0  0  0  0
   -6.9327    4.6863  -17.2472 C   0  0  0  0  0  0  0  0  0  0  0  0
  1  2  1  0
  2  3  1  0
  3  4  1  0
  4  5  2  0
  5  6  1  0
  6  7  1  0
  7  8  2  0
  8  9  1  0
  9 10  1  0
 10 11  1  0
 10 12  1  0
 10 13  1  0
 13 14  1  0
 14 15  2  0
 15 16  1  0
 16 17  2  0
 17 18  1  0
 18 19  2  0
 18 20  1  0
 20 21  1  0
 21 22  1  0
  9 23  2  0
 23 24  1  0
 24 25  1  0
 25 26  1  0
 23 27  1  0
 27 28  1  0
 27 29  2  0
 29  4  1  0
 29  7  1  0
 19 14  1  0
 22 17  1  0
M  END
>  <smiles>  (1210) 
C18735-P179

>  <fragmenstein_outcome>  (1210) 
acceptable

>  <inchikey>  (1210) 
COIXDSWWEWGKMA-UHFFFAOYSA-N

>  <fragmenstein_mode>  (1210) 
expansion

>  <HIPPO Pose ID>  (1210) 
20647

>  <Energy>  (1210) 
-42.772051

>  <fragmenstein_error>  (1210) 


>  <tags>  (1210) 
{'openbind_xx01zvns2b_c1_fragmenstein', 'fragmenstein_placed'}

>  <ref_pdb>  (1210) 
175

>  <scratch_subdir>  (1210) 
/opt/xchem-fragalysis-2/maxwin/BulkDock/SCRATCH/511028/C18735-P179

>  <alias>  (1210) 
NCCc1csc2cc(C(O)(O)Nc3ccc4c(c3)CNC4)c(OCF)c(F)c12

>  <HIPPO Compound ID>  (1210) 
18735

>  <fragmenstein_runtime>  (1210) 
2.969828

$$$$
CC(C)N(C)C1=Nc2cc(C(=O)Nc3ccc4c(c3)CNC4)cc3scc(c23)N1
     RDKit          3D

 29 33  0  0  0  0  0  0  0  0999 V2000
   -2.9268    8.1134  -18.4051 C   0  0  0  0  0  0  0  0  0  0  0  0
   -3.9205    7.9619  -19.5563 C   0  0  0  0  0  0  0  0  0  0  0  0
   -5.1047    8.9158  -19.3907 C   0  0  0  0  0  0  0  0  0  0  0  0
   -4.3954    6.5756  -19.7679 N   0  0  0  0  0  0  0  0  0  0  0  0
   -3.3871    5.7000  -20.3645 C   0  0  0  0  0  0  0  0  0  0  0  0
   -5.2467    5.9747  -18.8480 C   0  0  0  0  0  0  0  0  0  0  0  0
   -5.0795    6.1032  -17.5492 N   0  0  0  0  0  0  0  0  0  0  0  0
   -6.0229    5.4900  -16.6917 C   0  0  0  0  0  0  0  0  0  0  0  0
   -6.0516    5.6233  -15.3081 C   0  0  0  0  0  0  0  0  0  0  0  0
   -7.1499    5.1301  -14.5885 C   0  0  0  0  0  0  0  0  0  0  0  0
   -7.2544    5.4729  -13.1406 C   0  0  0  0  0  0  0  0  0  0  0  0
   -7.0093    6.5716  -12.8268 O   0  0  0  0  0  0  0  0  0  0  0  0
   -7.7849    4.2840  -12.3014 N   0  0  0  0  0  0  0  0  0  0  0  0
   -8.0250    4.1779  -10.9318 C   0  0  0  0  0  0  0  0  0  0  0  0
   -7.8876    5.2863  -10.0791 C   0  0  0  0  0  0  0  0  0  0  0  0
   -8.1591    5.1801   -8.7098 C   0  0  0  0  0  0  0  0  0  0  0  0
   -8.5672    3.9549   -8.2188 C   0  0  0  0  0  0  0  0  0  0  0  0
   -8.6911    2.8515   -9.0582 C   0  0  0  0  0  0  0  0  0  0  0  0
   -8.4291    2.9434  -10.4158 C   0  0  0  0  0  0  0  0  0  0  0  0
   -9.1025    1.6705   -8.2438 C   0  0  0  0  0  0  0  0  0  0  0  0
   -9.6094    2.2404   -6.9690 N   0  0  0  0  0  0  0  0  0  0  0  0
   -8.9278    3.5494   -6.8281 C   0  0  0  0  0  0  0  0  0  0  0  0
   -8.2300    4.4934  -15.2337 C   0  0  0  0  0  0  0  0  0  0  0  0
   -8.1779    4.3740  -16.6307 C   0  0  0  0  0  0  0  0  0  0  0  0
   -9.3510    3.7577  -17.7324 S   0  0  0  0  0  0  0  0  0  0  0  0
   -8.4054    4.1662  -19.1031 C   0  0  0  0  0  0  0  0  0  0  0  0
   -7.2217    4.7365  -18.7306 C   0  0  0  0  0  0  0  0  0  0  0  0
   -7.0840    4.8466  -17.3344 C   0  0  0  0  0  0  0  0  0  0  0  0
   -6.2408    5.2521  -19.5052 N   0  0  0  0  0  0  0  0  0  0  0  0
  1  2  1  0
  2  3  1  0
  2  4  1  0
  4  5  1  0
  4  6  1  0
  6  7  2  0
  7  8  1  0
  8  9  1  0
  9 10  2  0
 10 11  1  0
 11 12  2  0
 11 13  1  0
 13 14  1  0
 14 15  2  0
 15 16  1  0
 16 17  2  0
 17 18  1  0
 18 19  2  0
 18 20  1  0
 20 21  1  0
 21 22  1  0
 10 23  1  0
 23 24  2  0
 24 25  1  0
 25 26  1  0
 26 27  2  0
 27 28  1  0
 27 29  1  0
 29  6  1  0
 28  8  2  0
 19 14  1  0
 28 24  1  0
 22 17  1  0
M  END
>  <smiles>  (1211) 
C18781-P179

>  <fragmenstein_outcome>  (1211) 
acceptable

>  <inchikey>  (1211) 
OOYWYANUUOOHFR-UHFFFAOYSA-N

>  <fragmenstein_mode>  (1211) 
expansion

>  <HIPPO Pose ID>  (1211) 
20659

>  <Energy>  (1211) 
-16.523506

>  <fragmenstein_error>  (1211) 


>  <tags>  (1211) 
{'openbind_xx01zvns2b_c1_fragmenstein', 'fragmenstein_placed'}

>  <ref_pdb>  (1211) 
175

>  <scratch_subdir>  (1211) 
/opt/xchem-fragalysis-2/maxwin/BulkDock/SCRATCH/511028/C18781-P179

>  <alias>  (1211) 
CC(C)N(C)C1=Nc2cc(C(=O)Nc3ccc4c(c3)CNC4)cc3scc(c23)N1

>  <HIPPO Compound ID>  (1211) 
29555

>  <fragmenstein_runtime>  (1211) 
4.552288

$$$$
CC(C)N1CCC2=C1Nc1cc(C(=O)Nc3ccc4c(c3)CNC4)cc3scc2c13
     RDKit          3D

 30 35  0  0  0  0  0  0  0  0999 V2000
   -1.9104    7.2701  -17.6584 C   0  0  0  0  0  0  0  0  0  0  0  0
   -2.3170    6.3481  -18.8044 C   0  0  0  0  0  0  0  0  0  0  0  0
   -1.7783    4.9331  -18.6079 C   0  0  0  0  0  0  0  0  0  0  0  0
   -3.7718    6.3472  -19.0095 N   0  0  0  0  0  0  0  0  0  0  0  0
   -4.2295    6.1888  -20.4119 C   0  0  0  0  0  0  0  0  0  0  0  0
   -5.7136    5.8187  -20.2923 C   0  0  0  0  0  0  0  0  0  0  0  0
   -5.8047    5.3951  -18.8847 C   0  0  0  0  0  0  0  0  0  0  0  0
   -4.7190    5.7728  -18.1630 C   0  0  0  0  0  0  0  0  0  0  0  0
   -4.6704    5.6638  -16.7724 N   0  0  0  0  0  0  0  0  0  0  0  0
   -5.8671    5.3108  -16.1015 C   0  0  0  0  0  0  0  0  0  0  0  0
   -6.0367    5.4105  -14.7334 C   0  0  0  0  0  0  0  0  0  0  0  0
   -7.2749    5.0799  -14.1768 C   0  0  0  0  0  0  0  0  0  0  0  0
   -7.4779    5.4411  -12.7589 C   0  0  0  0  0  0  0  0  0  0  0  0
   -7.2772    6.5433  -12.4350 O   0  0  0  0  0  0  0  0  0  0  0  0
   -7.9640    4.2328  -11.9391 N   0  0  0  0  0  0  0  0  0  0  0  0
   -8.2065    4.1050  -10.5788 C   0  0  0  0  0  0  0  0  0  0  0  0
   -8.0773    5.2036   -9.7117 C   0  0  0  0  0  0  0  0  0  0  0  0
   -8.3317    5.0699   -8.3444 C   0  0  0  0  0  0  0  0  0  0  0  0
   -8.7193    3.8297   -7.8780 C   0  0  0  0  0  0  0  0  0  0  0  0
   -8.8303    2.7392   -8.7377 C   0  0  0  0  0  0  0  0  0  0  0  0
   -8.5796    2.8552  -10.0906 C   0  0  0  0  0  0  0  0  0  0  0  0
   -9.2148    1.5384   -7.9455 C   0  0  0  0  0  0  0  0  0  0  0  0
   -9.7628    2.0861   -6.6803 N   0  0  0  0  0  0  0  0  0  0  0  0
   -9.0775    3.3889   -6.4981 C   0  0  0  0  0  0  0  0  0  0  0  0
   -8.3431    4.5583  -14.9350 C   0  0  0  0  0  0  0  0  0  0  0  0
   -8.1563    4.4490  -16.3187 C   0  0  0  0  0  0  0  0  0  0  0  0
   -9.2286    3.9139  -17.5628 S   0  0  0  0  0  0  0  0  0  0  0  0
   -8.1256    4.3296  -18.8205 C   0  0  0  0  0  0  0  0  0  0  0  0
   -6.9686    4.8379  -18.2968 C   0  0  0  0  0  0  0  0  0  0  0  0
   -6.9546    4.8408  -16.8774 C   0  0  0  0  0  0  0  0  0  0  0  0
  1  2  1  0
  2  3  1  0
  2  4  1  0
  4  5  1  0
  5  6  1  0
  6  7  1  0
  7  8  2  0
  8  9  1  0
  9 10  1  0
 10 11  2  0
 11 12  1  0
 12 13  1  0
 13 14  2  0
 13 15  1  0
 15 16  1  0
 16 17  2  0
 17 18  1  0
 18 19  2  0
 19 20  1  0
 20 21  2  0
 20 22  1  0
 22 23  1  0
 23 24  1  0
 12 25  2  0
 25 26  1  0
 26 27  1  0
 27 28  1  0
 28 29  2  0
 29 30  1  0
  8  4  1  0
 30 10  1  0
 29  7  1  0
 21 16  1  0
 30 26  2  0
 24 19  1  0
M  END
>  <smiles>  (1212) 
C18782-P179

>  <fragmenstein_outcome>  (1212) 
acceptable

>  <inchikey>  (1212) 
IULZIRHXRUDLOK-UHFFFAOYSA-N

>  <fragmenstein_mode>  (1212) 
expansion

>  <HIPPO Pose ID>  (1212) 
20660

>  <Energy>  (1212) 
53.759081

>  <fragmenstein_error>  (1212) 


>  <tags>  (1212) 
{'openbind_xx01zvns2b_c1_fragmenstein', 'fragmenstein_placed'}

>  <ref_pdb>  (1212) 
175

>  <scratch_subdir>  (1212) 
/opt/xchem-fragalysis-2/maxwin/BulkDock/SCRATCH/511028/C18782-P179

>  <alias>  (1212) 
CC(C)N1CCC2=C1Nc1cc(C(=O)Nc3ccc4c(c3)CNC4)cc3scc2c13

>  <HIPPO Compound ID>  (1212) 
18782

>  <fragmenstein_runtime>  (1212) 
8.151007

$$$$
CO[C@H]1[C@@H]2C[C@@H](N)N[C@@H]3CS[C@H](C[C@@H]1C(=O)Nc1ccc4c(c1)CNC4)[C@H]23
     RDKit          3D

 27 31  0  0  0  0  0  0  0  0999 V2000
   -3.2519    6.1733  -14.6838 C   0  0  0  0  0  0  0  0  0  0  0  0
   -4.2051    5.1419  -14.8801 O   0  0  0  0  0  0  0  0  0  0  0  0
   -5.4868    5.6091  -15.3568 C   0  0  2  0  0  0  0  0  0  0  0  0
   -6.5736    4.8858  -14.5327 C   0  0  1  0  0  0  0  0  0  0  0  0
   -6.6990    5.4290  -13.0976 C   0  0  0  0  0  0  0  0  0  0  0  0
   -6.3526    6.5025  -12.7761 O   0  0  0  0  0  0  0  0  0  0  0  0
   -7.4387    4.3115  -12.2789 N   0  0  0  0  0  0  0  0  0  0  0  0
   -7.7970    4.2637  -10.9304 C   0  0  0  0  0  0  0  0  0  0  0  0
   -7.7132    5.3923  -10.1035 C   0  0  0  0  0  0  0  0  0  0  0  0
   -8.0433    5.3088   -8.7443 C   0  0  0  0  0  0  0  0  0  0  0  0
   -8.4480    4.0865   -8.2354 C   0  0  0  0  0  0  0  0  0  0  0  0
   -8.5502    2.9706   -9.0547 C   0  0  0  0  0  0  0  0  0  0  0  0
   -8.2408    3.0424  -10.4053 C   0  0  0  0  0  0  0  0  0  0  0  0
   -8.9735    1.7929   -8.2418 C   0  0  0  0  0  0  0  0  0  0  0  0
   -9.3001    2.3208   -6.8941 N   0  0  0  0  0  0  0  0  0  0  0  0
   -8.8013    3.7098   -6.8369 C   0  0  0  0  0  0  0  0  0  0  0  0
   -7.9436    5.0344  -15.2034 C   0  0  0  0  0  0  0  0  0  0  0  0
   -7.9288    4.2413  -16.4805 C   0  0  1  0  0  0  0  0  0  0  0  0
   -9.4151    4.2841  -17.4803 S   0  0  0  0  0  0  0  0  0  0  0  0
   -8.5355    4.0584  -19.0343 C   0  0  0  0  0  0  0  0  0  0  0  0
   -7.1197    4.6273  -18.8478 C   0  0  1  0  0  0  0  0  0  0  0  0
   -6.9767    6.0097  -19.2810 N   0  0  0  0  0  0  0  0  0  0  0  0
   -5.6454    6.5297  -19.1885 C   0  0  2  0  0  0  0  0  0  0  0  0
   -4.7619    5.7646  -20.0366 N   0  0  0  0  0  0  0  0  0  0  0  0
   -5.2098    6.5742  -17.7222 C   0  0  0  0  0  0  0  0  0  0  0  0
   -5.5179    5.3048  -16.8880 C   0  0  2  0  0  0  0  0  0  0  0  0
   -6.7155    4.4598  -17.3848 C   0  0  1  0  0  0  0  0  0  0  0  0
  1  2  1  0
  3  2  1  1
  3  4  1  0
  4  5  1  1
  5  6  2  0
  5  7  1  0
  7  8  1  0
  8  9  2  0
  9 10  1  0
 10 11  2  0
 11 12  1  0
 12 13  2  0
 12 14  1  0
 14 15  1  0
 15 16  1  0
  4 17  1  0
 18 17  1  1
 18 19  1  0
 19 20  1  0
 21 20  1  1
 21 22  1  0
 22 23  1  0
 23 24  1  6
 23 25  1  0
 26 25  1  6
 26 27  1  0
 26  3  1  0
 13  8  1  0
 27 18  1  1
 16 11  1  0
 27 21  1  0
M  END
>  <smiles>  (1213) 
C18784-P179

>  <fragmenstein_outcome>  (1213) 
acceptable

>  <inchikey>  (1213) 
LBCMNNUVTYYDNK-UHFFFAOYSA-N

>  <fragmenstein_mode>  (1213) 
expansion

>  <HIPPO Pose ID>  (1213) 
20661

>  <Energy>  (1213) 
16.011786

>  <fragmenstein_error>  (1213) 


>  <tags>  (1213) 
{'openbind_xx01zvns2b_c1_fragmenstein', 'fragmenstein_placed'}

>  <ref_pdb>  (1213) 
175

>  <scratch_subdir>  (1213) 
/opt/xchem-fragalysis-2/maxwin/BulkDock/SCRATCH/511028/C18784-P179

>  <alias>  (1213) 
CO[C@H]1[C@@H]2C[C@@H](N)N[C@@H]3CS[C@H](C[C@@H]1C(=O)Nc1ccc4c(c1)CNC4)[C@H]23

>  <HIPPO Compound ID>  (1213) 
18784

>  <fragmenstein_runtime>  (1213) 
5.991699

$$$$
NN[C@H]1NCc2ccc(NC(=O)c3ccc4c(c3)[C@H](Cl)C=C4[C@@](N)(O)CNc3ccccc3)cc21
     RDKit          3D

 35 39  0  0  0  0  0  0  0  0999 V2000
   -7.8455    0.8582   -8.5856 N   0  0  0  0  0  0  0  0  0  0  0  0
   -8.5544    1.3852   -7.4573 N   0  0  0  0  0  0  0  0  0  0  0  0
   -9.4244    2.4828   -7.7861 C   0  0  1  0  0  0  0  0  0  0  0  0
   -9.6455    3.1634   -6.4956 N   0  0  0  0  0  0  0  0  0  0  0  0
   -8.8633    4.4129   -6.5437 C   0  0  0  0  0  0  0  0  0  0  0  0
   -8.5910    4.6694   -7.9834 C   0  0  0  0  0  0  0  0  0  0  0  0
   -8.1446    5.8153   -8.6070 C   0  0  0  0  0  0  0  0  0  0  0  0
   -7.9996    5.7954   -9.9972 C   0  0  0  0  0  0  0  0  0  0  0  0
   -8.2741    4.6357  -10.7408 C   0  0  0  0  0  0  0  0  0  0  0  0
   -8.0926    4.6194  -12.1208 N   0  0  0  0  0  0  0  0  0  0  0  0
   -7.7377    5.7559  -13.0962 C   0  0  0  0  0  0  0  0  0  0  0  0
   -7.6163    6.9015  -12.9110 O   0  0  0  0  0  0  0  0  0  0  0  0
   -7.4321    5.2532  -14.4529 C   0  0  0  0  0  0  0  0  0  0  0  0
   -6.1439    5.5518  -14.9279 C   0  0  0  0  0  0  0  0  0  0  0  0
   -5.8403    5.3991  -16.2732 C   0  0  0  0  0  0  0  0  0  0  0  0
   -6.8401    4.9646  -17.1280 C   0  0  0  0  0  0  0  0  0  0  0  0
   -8.1129    4.6032  -16.6441 C   0  0  0  0  0  0  0  0  0  0  0  0
   -8.4204    4.7276  -15.2941 C   0  0  0  0  0  0  0  0  0  0  0  0
   -9.0035    4.2838  -17.8103 C   0  0  2  0  0  0  0  0  0  0  0  0
   -9.5026    2.6358  -17.9414 Cl  0  0  0  0  0  0  0  0  0  0  0  0
   -8.0752    4.5129  -18.9516 C   0  0  0  0  0  0  0  0  0  0  0  0
   -6.8371    4.8876  -18.5861 C   0  0  0  0  0  0  0  0  0  0  0  0
   -5.6853    5.1614  -19.4940 C   0  0  1  0  0  0  0  0  0  0  0  0
   -4.3992    4.7716  -18.9312 N   0  0  0  0  0  0  0  0  0  0  0  0
   -5.8362    4.2948  -20.5919 O   0  0  0  0  0  0  0  0  0  0  0  0
   -5.6514    6.6791  -19.9003 C   0  0  0  0  0  0  0  0  0  0  0  0
   -4.3081    7.1090  -20.3433 N   0  0  0  0  0  0  0  0  0  0  0  0
   -3.9244    7.1454  -21.6778 C   0  0  0  0  0  0  0  0  0  0  0  0
   -2.5628    7.0074  -21.9889 C   0  0  0  0  0  0  0  0  0  0  0  0
   -2.1010    7.0917  -23.3060 C   0  0  0  0  0  0  0  0  0  0  0  0
   -2.9957    7.3462  -24.3394 C   0  0  0  0  0  0  0  0  0  0  0  0
   -4.3438    7.5317  -24.0491 C   0  0  0  0  0  0  0  0  0  0  0  0
   -4.7978    7.4482  -22.7272 C   0  0  0  0  0  0  0  0  0  0  0  0
   -8.7149    3.4846  -10.0955 C   0  0  0  0  0  0  0  0  0  0  0  0
   -8.8786    3.5240   -8.7139 C   0  0  0  0  0  0  0  0  0  0  0  0
  1  2  1  0
  3  2  1  1
  3  4  1  0
  4  5  1  0
  5  6  1  0
  6  7  2  0
  7  8  1  0
  8  9  2  0
  9 10  1  0
 10 11  1  0
 11 12  2  0
 11 13  1  0
 13 14  2  0
 14 15  1  0
 15 16  2  0
 16 17  1  0
 17 18  2  0
 17 19  1  0
 19 20  1  1
 19 21  1  0
 21 22  2  0
 22 23  1  0
 23 24  1  1
 23 25  1  0
 23 26  1  0
 26 27  1  0
 27 28  1  0
 28 29  2  0
 29 30  1  0
 30 31  2  0
 31 32  1  0
 32 33  2  0
  9 34  1  0
 34 35  2  0
 35  3  1  0
 35  6  1  0
 18 13  1  0
 33 28  1  0
 22 16  1  0
M  END
>  <smiles>  (1214) 
C18786-P179

>  <fragmenstein_outcome>  (1214) 
acceptable

>  <inchikey>  (1214) 
UVEQRLQMPOVXPR-UHFFFAOYSA-N

>  <fragmenstein_mode>  (1214) 
expansion

>  <HIPPO Pose ID>  (1214) 
20662

>  <Energy>  (1214) 
107.053273

>  <fragmenstein_error>  (1214) 


>  <tags>  (1214) 
{'openbind_xx01zvns2b_c1_fragmenstein', 'fragmenstein_placed'}

>  <ref_pdb>  (1214) 
175

>  <scratch_subdir>  (1214) 
/opt/xchem-fragalysis-2/maxwin/BulkDock/SCRATCH/511028/C18786-P179

>  <alias>  (1214) 
NN[C@H]1NCc2ccc(NC(=O)c3ccc4c(c3)[C@H](Cl)C=C4[C@@](N)(O)CNc3ccccc3)cc21

>  <HIPPO Compound ID>  (1214) 
18786

>  <fragmenstein_runtime>  (1214) 
9.126567

$$$$
N[C@]1(C2CCC2)CNc2cc(C(=O)Nc3ccc4c(c3)CNC4)cc3scc(c23)C1
     RDKit          3D

 30 35  0  0  0  0  0  0  0  0999 V2000
   -4.1145    6.1784  -20.6067 N   0  0  0  0  0  0  0  0  0  0  0  0
   -4.8426    6.1669  -19.2983 C   0  0  2  0  0  0  0  0  0  0  0  0
   -4.8816    7.6111  -18.7397 C   0  0  0  0  0  0  0  0  0  0  0  0
   -5.1257    8.8537  -19.6610 C   0  0  0  0  0  0  0  0  0  0  0  0
   -4.2023    9.6438  -18.7126 C   0  0  0  0  0  0  0  0  0  0  0  0
   -3.5282    8.3011  -18.3710 C   0  0  0  0  0  0  0  0  0  0  0  0
   -4.0851    5.2418  -18.3226 C   0  0  0  0  0  0  0  0  0  0  0  0
   -4.3635    5.4766  -16.9037 N   0  0  0  0  0  0  0  0  0  0  0  0
   -5.5990    5.0595  -16.3635 C   0  0  0  0  0  0  0  0  0  0  0  0
   -5.6247    4.8628  -14.9620 C   0  0  0  0  0  0  0  0  0  0  0  0
   -6.7671    4.4198  -14.3159 C   0  0  0  0  0  0  0  0  0  0  0  0
   -6.6890    3.8807  -12.9356 C   0  0  0  0  0  0  0  0  0  0  0  0
   -6.0934    2.8949  -12.7537 O   0  0  0  0  0  0  0  0  0  0  0  0
   -7.5397    4.7259  -11.9696 N   0  0  0  0  0  0  0  0  0  0  0  0
   -7.9019    4.4955  -10.6492 C   0  0  0  0  0  0  0  0  0  0  0  0
   -8.1524    5.5860   -9.8049 C   0  0  0  0  0  0  0  0  0  0  0  0
   -8.4909    5.3762   -8.4643 C   0  0  0  0  0  0  0  0  0  0  0  0
   -8.6780    4.0750   -8.0314 C   0  0  0  0  0  0  0  0  0  0  0  0
   -8.5008    2.9968   -8.8926 C   0  0  0  0  0  0  0  0  0  0  0  0
   -8.0580    3.1834  -10.1896 C   0  0  0  0  0  0  0  0  0  0  0  0
   -8.8740    1.7357   -8.1857 C   0  0  0  0  0  0  0  0  0  0  0  0
   -9.5659    2.1787   -6.9442 N   0  0  0  0  0  0  0  0  0  0  0  0
   -9.0844    3.5551   -6.6932 C   0  0  0  0  0  0  0  0  0  0  0  0
   -7.9510    4.2233  -15.0188 C   0  0  0  0  0  0  0  0  0  0  0  0
   -7.9305    4.3874  -16.4137 C   0  0  0  0  0  0  0  0  0  0  0  0
   -9.2235    3.9863  -17.4701 S   0  0  0  0  0  0  0  0  0  0  0  0
   -8.3482    4.4920  -18.8226 C   0  0  0  0  0  0  0  0  0  0  0  0
   -7.1035    5.0152  -18.5119 C   0  0  0  0  0  0  0  0  0  0  0  0
   -6.7983    4.8427  -17.1076 C   0  0  0  0  0  0  0  0  0  0  0  0
   -6.2571    5.6363  -19.5884 C   0  0  0  0  0  0  0  0  0  0  0  0
  2  1  1  6
  2  3  1  0
  3  4  1  0
  4  5  1  0
  5  6  1  0
  2  7  1  0
  7  8  1  0
  8  9  1  0
  9 10  1  0
 10 11  2  0
 11 12  1  0
 12 13  2  0
 12 14  1  0
 14 15  1  0
 15 16  2  0
 16 17  1  0
 17 18  2  0
 18 19  1  0
 19 20  2  0
 19 21  1  0
 21 22  1  0
 22 23  1  0
 11 24  1  0
 24 25  2  0
 25 26  1  0
 26 27  1  0
 27 28  2  0
 28 29  1  0
 28 30  1  0
 30  2  1  0
  6  3  1  0
 29  9  2  0
 20 15  1  0
 29 25  1  0
 23 18  1  0
M  END
>  <smiles>  (1215) 
C18916-P179

>  <fragmenstein_outcome>  (1215) 
acceptable

>  <inchikey>  (1215) 
PLZLEIHKDCFDHT-UHFFFAOYSA-N

>  <fragmenstein_mode>  (1215) 
expansion

>  <HIPPO Pose ID>  (1215) 
20696

>  <Energy>  (1215) 
127.783718

>  <fragmenstein_error>  (1215) 


>  <tags>  (1215) 
{'openbind_xx01zvns2b_c1_fragmenstein', 'fragmenstein_placed'}

>  <ref_pdb>  (1215) 
175

>  <scratch_subdir>  (1215) 
/opt/xchem-fragalysis-2/maxwin/BulkDock/SCRATCH/511028/C18916-P179

>  <alias>  (1215) 
N[C@]1(C2CCC2)CNc2cc(C(=O)Nc3ccc4c(c3)CNC4)cc3scc(c23)C1

>  <HIPPO Compound ID>  (1215) 
41417

>  <fragmenstein_runtime>  (1215) 
6.85935

$$$$
Nn1cc2c(C(=O)Nc3cc4c(c(C5=CCOCC5)c3)CNC4)cc(F)cc2n1
     RDKit          3D

 29 33  0  0  0  0  0  0  0  0999 V2000
   -3.5688    5.6921  -17.7073 N   0  0  0  0  0  0  0  0  0  0  0  0
   -4.8903    5.3791  -17.4155 N   0  0  0  0  0  0  0  0  0  0  0  0
   -5.4389    5.4414  -16.1763 C   0  0  0  0  0  0  0  0  0  0  0  0
   -6.7245    5.0010  -16.3423 C   0  0  0  0  0  0  0  0  0  0  0  0
   -7.7082    4.8398  -15.3644 C   0  0  0  0  0  0  0  0  0  0  0  0
   -7.5778    5.2890  -13.9673 C   0  0  0  0  0  0  0  0  0  0  0  0
   -7.1538    6.3585  -13.7688 O   0  0  0  0  0  0  0  0  0  0  0  0
   -8.0505    4.1991  -12.9783 N   0  0  0  0  0  0  0  0  0  0  0  0
   -8.1845    4.2319  -11.5915 C   0  0  0  0  0  0  0  0  0  0  0  0
   -8.5254    3.0569  -10.9237 C   0  0  0  0  0  0  0  0  0  0  0  0
   -8.6536    3.0945   -9.5437 C   0  0  0  0  0  0  0  0  0  0  0  0
   -8.4572    4.2694   -8.8212 C   0  0  0  0  0  0  0  0  0  0  0  0
   -8.1412    5.4599   -9.4679 C   0  0  0  0  0  0  0  0  0  0  0  0
   -8.0002    6.7500   -8.7752 C   0  0  0  0  0  0  0  0  0  0  0  0
   -8.8255    7.7732   -9.0641 C   0  0  0  0  0  0  0  0  0  0  0  0
   -8.7121    9.1232   -8.4229 C   0  0  0  0  0  0  0  0  0  0  0  0
   -7.4742    9.2944   -7.7248 O   0  0  0  0  0  0  0  0  0  0  0  0
   -7.1788    8.1712   -6.8944 C   0  0  0  0  0  0  0  0  0  0  0  0
   -6.9161    6.9308   -7.7508 C   0  0  0  0  0  0  0  0  0  0  0  0
   -7.9930    5.4184  -10.8681 C   0  0  0  0  0  0  0  0  0  0  0  0
   -8.6656    3.9774   -7.3728 C   0  0  0  0  0  0  0  0  0  0  0  0
   -9.1427    2.5795   -7.2711 N   0  0  0  0  0  0  0  0  0  0  0  0
   -8.9977    1.9764   -8.6200 C   0  0  0  0  0  0  0  0  0  0  0  0
   -8.9056    4.3278  -15.9021 C   0  0  0  0  0  0  0  0  0  0  0  0
   -9.0730    4.0436  -17.2875 C   0  0  0  0  0  0  0  0  0  0  0  0
  -10.2719    3.6061  -17.6944 F   0  0  0  0  0  0  0  0  0  0  0  0
   -8.0800    4.2202  -18.2636 C   0  0  0  0  0  0  0  0  0  0  0  0
   -6.8709    4.7078  -17.7493 C   0  0  0  0  0  0  0  0  0  0  0  0
   -5.7145    4.9766  -18.3763 N   0  0  0  0  0  0  0  0  0  0  0  0
  1  2  1  0
  2  3  1  0
  3  4  2  0
  4  5  1  0
  5  6  1  0
  6  7  2  0
  6  8  1  0
  8  9  1  0
  9 10  2  0
 10 11  1  0
 11 12  2  0
 12 13  1  0
 13 14  1  0
 14 15  2  0
 15 16  1  0
 16 17  1  0
 17 18  1  0
 18 19  1  0
 13 20  2  0
 12 21  1  0
 21 22  1  0
 22 23  1  0
  5 24  2  0
 24 25  1  0
 25 26  1  0
 25 27  2  0
 27 28  1  0
 28 29  2  0
 29  2  1  0
 28  4  1  0
 20  9  1  0
 23 11  1  0
 19 14  1  0
M  END
>  <smiles>  (1216) 
C18971-P180

>  <fragmenstein_outcome>  (1216) 
acceptable

>  <inchikey>  (1216) 
SOVUXHYCFLALDV-UHFFFAOYSA-N

>  <fragmenstein_mode>  (1216) 
expansion

>  <HIPPO Pose ID>  (1216) 
20729

>  <Energy>  (1216) 
-17.328326

>  <fragmenstein_error>  (1216) 


>  <tags>  (1216) 
{'openbind_xx01zvns2b_c1_fragmenstein', 'fragmenstein_placed'}

>  <ref_pdb>  (1216) 
175

>  <scratch_subdir>  (1216) 
/opt/xchem-fragalysis-2/maxwin/BulkDock/SCRATCH/511028/C18971-P180

>  <alias>  (1216) 
Nn1cc2c(C(=O)Nc3cc4c(c(C5=CCOCC5)c3)CNC4)cc(F)cc2n1

>  <HIPPO Compound ID>  (1216) 
28003

>  <fragmenstein_runtime>  (1216) 
2.842038

$$$$
Cn1cc2c(C(=O)Nc3cc4c(c(C5=CCOCC5)c3)CNC4)cc(F)cc2c1N
     RDKit          3D

 30 34  0  0  0  0  0  0  0  0999 V2000
   -3.4498    5.8779  -17.7546 C   0  0  0  0  0  0  0  0  0  0  0  0
   -4.8240    5.5240  -17.4777 N   0  0  0  0  0  0  0  0  0  0  0  0
   -5.3765    5.5093  -16.2114 C   0  0  0  0  0  0  0  0  0  0  0  0
   -6.6624    5.0447  -16.3332 C   0  0  0  0  0  0  0  0  0  0  0  0
   -7.6138    4.8488  -15.3286 C   0  0  0  0  0  0  0  0  0  0  0  0
   -7.4683    5.2827  -13.9284 C   0  0  0  0  0  0  0  0  0  0  0  0
   -7.0644    6.3572  -13.7138 O   0  0  0  0  0  0  0  0  0  0  0  0
   -7.9471    4.1795  -12.9567 N   0  0  0  0  0  0  0  0  0  0  0  0
   -8.1122    4.2012  -11.5739 C   0  0  0  0  0  0  0  0  0  0  0  0
   -8.4640    3.0181  -10.9253 C   0  0  0  0  0  0  0  0  0  0  0  0
   -8.6526    3.0514   -9.5541 C   0  0  0  0  0  0  0  0  0  0  0  0
   -8.5017    4.2303   -8.8210 C   0  0  0  0  0  0  0  0  0  0  0  0
   -8.1539    5.4219   -9.4461 C   0  0  0  0  0  0  0  0  0  0  0  0
   -8.0203    6.7040   -8.7387 C   0  0  0  0  0  0  0  0  0  0  0  0
   -8.8073    7.7484   -9.0562 C   0  0  0  0  0  0  0  0  0  0  0  0
   -8.6815    9.0924   -8.4055 C   0  0  0  0  0  0  0  0  0  0  0  0
   -7.4566    9.2322   -7.6784 O   0  0  0  0  0  0  0  0  0  0  0  0
   -7.2150    8.1066   -6.8334 C   0  0  0  0  0  0  0  0  0  0  0  0
   -6.9736    6.8486   -7.6701 C   0  0  0  0  0  0  0  0  0  0  0  0
   -7.9533    5.3860  -10.8394 C   0  0  0  0  0  0  0  0  0  0  0  0
   -8.7838    3.9208   -7.3863 C   0  0  0  0  0  0  0  0  0  0  0  0
   -9.4552    2.5987   -7.3781 N   0  0  0  0  0  0  0  0  0  0  0  0
   -9.0164    1.9340   -8.6325 C   0  0  0  0  0  0  0  0  0  0  0  0
   -8.8235    4.3315  -15.8509 C   0  0  0  0  0  0  0  0  0  0  0  0
   -9.0261    4.0622  -17.2413 C   0  0  0  0  0  0  0  0  0  0  0  0
  -10.2313    3.6161  -17.6214 F   0  0  0  0  0  0  0  0  0  0  0  0
   -8.0704    4.2727  -18.2503 C   0  0  0  0  0  0  0  0  0  0  0  0
   -6.8879    4.7743  -17.7169 C   0  0  0  0  0  0  0  0  0  0  0  0
   -5.7657    5.1484  -18.4196 C   0  0  0  0  0  0  0  0  0  0  0  0
   -5.5277    5.1974  -19.7570 N   0  0  0  0  0  0  0  0  0  0  0  0
  1  2  1  0
  2  3  1  0
  3  4  2  0
  4  5  1  0
  5  6  1  0
  6  7  2  0
  6  8  1  0
  8  9  1  0
  9 10  2  0
 10 11  1  0
 11 12  2  0
 12 13  1  0
 13 14  1  0
 14 15  2  0
 15 16  1  0
 16 17  1  0
 17 18  1  0
 18 19  1  0
 13 20  2  0
 12 21  1  0
 21 22  1  0
 22 23  1  0
  5 24  2  0
 24 25  1  0
 25 26  1  0
 25 27  2  0
 27 28  1  0
 28 29  2  0
 29 30  1  0
 29  2  1  0
 28  4  1  0
 20  9  1  0
 23 11  1  0
 19 14  1  0
M  END
>  <smiles>  (1217) 
C19010-P180

>  <fragmenstein_outcome>  (1217) 
acceptable

>  <inchikey>  (1217) 
GJIIIESBNKHNGR-UHFFFAOYSA-N

>  <fragmenstein_mode>  (1217) 
expansion

>  <HIPPO Pose ID>  (1217) 
20730

>  <Energy>  (1217) 
73.05396

>  <fragmenstein_error>  (1217) 


>  <tags>  (1217) 
{'openbind_xx01zvns2b_c1_fragmenstein', 'fragmenstein_placed'}

>  <ref_pdb>  (1217) 
175

>  <scratch_subdir>  (1217) 
/opt/xchem-fragalysis-2/maxwin/BulkDock/SCRATCH/511028/C19010-P180

>  <alias>  (1217) 
Cn1cc2c(C(=O)Nc3cc4c(c(C5=CCOCC5)c3)CNC4)cc(F)cc2c1N

>  <HIPPO Compound ID>  (1217) 
19010

>  <fragmenstein_runtime>  (1217) 
3.823174

$$$$
Cn1ncc2c(C(=O)C(=O)c3cc4c(c(C5=CCOCC5)c3)CNC4)cc(F)cc21
     RDKit          3D

 30 34  0  0  0  0  0  0  0  0999 V2000
   -5.4382    5.3393  -19.7720 C   0  0  0  0  0  0  0  0  0  0  0  0
   -5.6571    5.2136  -18.3519 N   0  0  0  0  0  0  0  0  0  0  0  0
   -4.6687    5.5625  -17.5060 N   0  0  0  0  0  0  0  0  0  0  0  0
   -5.2115    5.3738  -16.3000 C   0  0  0  0  0  0  0  0  0  0  0  0
   -6.5478    4.9127  -16.3627 C   0  0  0  0  0  0  0  0  0  0  0  0
   -7.5653    4.5861  -15.4407 C   0  0  0  0  0  0  0  0  0  0  0  0
   -7.3137    4.7415  -13.9877 C   0  0  0  0  0  0  0  0  0  0  0  0
   -6.1850    4.8481  -13.5265 O   0  0  0  0  0  0  0  0  0  0  0  0
   -8.4825    4.9139  -13.0587 C   0  0  0  0  0  0  0  0  0  0  0  0
   -9.4889    5.4723  -13.4863 O   0  0  0  0  0  0  0  0  0  0  0  0
   -8.3443    4.6258  -11.6266 C   0  0  0  0  0  0  0  0  0  0  0  0
   -8.5502    3.3574  -11.0881 C   0  0  0  0  0  0  0  0  0  0  0  0
   -8.5897    3.2566   -9.7025 C   0  0  0  0  0  0  0  0  0  0  0  0
   -8.4157    4.3720   -8.8741 C   0  0  0  0  0  0  0  0  0  0  0  0
   -8.1995    5.6390   -9.4062 C   0  0  0  0  0  0  0  0  0  0  0  0
   -8.0634    6.8768   -8.6249 C   0  0  0  0  0  0  0  0  0  0  0  0
   -8.8715    7.9266   -8.8698 C   0  0  0  0  0  0  0  0  0  0  0  0
   -8.6987    9.2611   -8.2116 C   0  0  0  0  0  0  0  0  0  0  0  0
   -7.4286    9.3810   -7.5630 O   0  0  0  0  0  0  0  0  0  0  0  0
   -7.1516    8.2459   -6.7427 C   0  0  0  0  0  0  0  0  0  0  0  0
   -6.9654    6.9965   -7.6064 C   0  0  0  0  0  0  0  0  0  0  0  0
   -8.1575    5.7454  -10.8027 C   0  0  0  0  0  0  0  0  0  0  0  0
   -8.5665    3.9419   -7.4527 C   0  0  0  0  0  0  0  0  0  0  0  0
   -8.9877    2.5256   -7.4687 N   0  0  0  0  0  0  0  0  0  0  0  0
   -8.8605    2.0476   -8.8677 C   0  0  0  0  0  0  0  0  0  0  0  0
   -8.8050    4.1485  -15.9390 C   0  0  0  0  0  0  0  0  0  0  0  0
   -9.0190    4.0302  -17.3027 C   0  0  0  0  0  0  0  0  0  0  0  0
  -10.2105    3.6158  -17.7476 F   0  0  0  0  0  0  0  0  0  0  0  0
   -8.0316    4.3411  -18.2256 C   0  0  0  0  0  0  0  0  0  0  0  0
   -6.8056    4.7985  -17.7292 C   0  0  0  0  0  0  0  0  0  0  0  0
  1  2  1  0
  2  3  1  0
  3  4  2  0
  4  5  1  0
  5  6  2  0
  6  7  1  0
  7  8  2  0
  7  9  1  0
  9 10  2  0
  9 11  1  0
 11 12  2  0
 12 13  1  0
 13 14  2  0
 14 15  1  0
 15 16  1  0
 16 17  2  0
 17 18  1  0
 18 19  1  0
 19 20  1  0
 20 21  1  0
 15 22  2  0
 14 23  1  0
 23 24  1  0
 24 25  1  0
  6 26  1  0
 26 27  2  0
 27 28  1  0
 27 29  1  0
 29 30  2  0
 30  2  1  0
 30  5  1  0
 22 11  1  0
 25 13  1  0
 21 16  1  0
M  END
>  <smiles>  (1218) 
C19014-P180

>  <fragmenstein_outcome>  (1218) 
acceptable

>  <inchikey>  (1218) 
FIYSQGQKOQCXAK-UHFFFAOYSA-N

>  <fragmenstein_mode>  (1218) 
expansion

>  <HIPPO Pose ID>  (1218) 
20731

>  <Energy>  (1218) 
118.619676

>  <fragmenstein_error>  (1218) 


>  <tags>  (1218) 
{'openbind_xx01zvns2b_c1_fragmenstein', 'fragmenstein_placed'}

>  <ref_pdb>  (1218) 
175

>  <scratch_subdir>  (1218) 
/opt/xchem-fragalysis-2/maxwin/BulkDock/SCRATCH/511028/C19014-P180

>  <alias>  (1218) 
Cn1ncc2c(C(=O)C(=O)c3cc4c(c(C5=CCOCC5)c3)CNC4)cc(F)cc21

>  <HIPPO Compound ID>  (1218) 
19014

>  <fragmenstein_runtime>  (1218) 
2.432098

$$$$
Cc1nn(CO)c2cc(F)cc(C(=O)C(=O)c3cc4c(c(C5=CCOCC5)c3)CNC4)c12
     RDKit          3D

 32 36  0  0  0  0  0  0  0  0999 V2000
   -4.2746    5.8326  -15.0896 C   0  0  0  0  0  0  0  0  0  0  0  0
   -5.1063    5.4594  -16.2630 C   0  0  0  0  0  0  0  0  0  0  0  0
   -4.5677    5.6091  -17.4801 N   0  0  0  0  0  0  0  0  0  0  0  0
   -5.5330    5.1885  -18.3209 N   0  0  0  0  0  0  0  0  0  0  0  0
   -5.2320    5.1762  -19.7450 C   0  0  0  0  0  0  0  0  0  0  0  0
   -3.8294    4.9018  -19.9374 O   0  0  0  0  0  0  0  0  0  0  0  0
   -6.6936    4.8174  -17.6968 C   0  0  0  0  0  0  0  0  0  0  0  0
   -7.9143    4.3540  -18.2067 C   0  0  0  0  0  0  0  0  0  0  0  0
   -8.9174    4.0479  -17.3015 C   0  0  0  0  0  0  0  0  0  0  0  0
  -10.1002    3.6190  -17.7575 F   0  0  0  0  0  0  0  0  0  0  0  0
   -8.7190    4.1671  -15.9379 C   0  0  0  0  0  0  0  0  0  0  0  0
   -7.4858    4.6102  -15.4197 C   0  0  0  0  0  0  0  0  0  0  0  0
   -7.2878    4.6909  -13.9517 C   0  0  0  0  0  0  0  0  0  0  0  0
   -6.1840    4.6713  -13.4277 O   0  0  0  0  0  0  0  0  0  0  0  0
   -8.4753    4.8969  -13.0522 C   0  0  0  0  0  0  0  0  0  0  0  0
   -9.4632    5.4756  -13.4945 O   0  0  0  0  0  0  0  0  0  0  0  0
   -8.3653    4.6036  -11.6168 C   0  0  0  0  0  0  0  0  0  0  0  0
   -8.5694    3.3302  -11.0874 C   0  0  0  0  0  0  0  0  0  0  0  0
   -8.6398    3.2278   -9.7047 C   0  0  0  0  0  0  0  0  0  0  0  0
   -8.4894    4.3463   -8.8699 C   0  0  0  0  0  0  0  0  0  0  0  0
   -8.2471    5.6115   -9.3917 C   0  0  0  0  0  0  0  0  0  0  0  0
   -8.0968    6.8406   -8.6008 C   0  0  0  0  0  0  0  0  0  0  0  0
   -8.8665    7.9160   -8.8561 C   0  0  0  0  0  0  0  0  0  0  0  0
   -8.6646    9.2397   -8.1849 C   0  0  0  0  0  0  0  0  0  0  0  0
   -7.4004    9.3171   -7.5190 O   0  0  0  0  0  0  0  0  0  0  0  0
   -7.1708    8.1722   -6.6969 C   0  0  0  0  0  0  0  0  0  0  0  0
   -7.0183    6.9156   -7.5569 C   0  0  0  0  0  0  0  0  0  0  0  0
   -8.1855    5.7209  -10.7868 C   0  0  0  0  0  0  0  0  0  0  0  0
   -8.6959    3.9032   -7.4566 C   0  0  0  0  0  0  0  0  0  0  0  0
   -9.3378    2.5719   -7.5424 N   0  0  0  0  0  0  0  0  0  0  0  0
   -8.9246    2.0245   -8.8606 C   0  0  0  0  0  0  0  0  0  0  0  0
   -6.4472    4.9578  -16.3241 C   0  0  0  0  0  0  0  0  0  0  0  0
  1  2  1  0
  2  3  2  0
  3  4  1  0
  4  5  1  0
  5  6  1  0
  4  7  1  0
  7  8  2  0
  8  9  1  0
  9 10  1  0
  9 11  2  0
 11 12  1  0
 12 13  1  0
 13 14  2  0
 13 15  1  0
 15 16  2  0
 15 17  1  0
 17 18  2  0
 18 19  1  0
 19 20  2  0
 20 21  1  0
 21 22  1  0
 22 23  2  0
 23 24  1  0
 24 25  1  0
 25 26  1  0
 26 27  1  0
 21 28  2  0
 20 29  1  0
 29 30  1  0
 30 31  1  0
 12 32  2  0
 32  2  1  0
 32  7  1  0
 28 17  1  0
 31 19  1  0
 27 22  1  0
M  END
>  <smiles>  (1219) 
C19020-P180

>  <fragmenstein_outcome>  (1219) 
acceptable

>  <inchikey>  (1219) 
QQXVXXAHQDUTBY-UHFFFAOYSA-N

>  <fragmenstein_mode>  (1219) 
expansion

>  <HIPPO Pose ID>  (1219) 
20733

>  <Energy>  (1219) 
141.216717

>  <fragmenstein_error>  (1219) 


>  <tags>  (1219) 
{'openbind_xx01zvns2b_c1_fragmenstein', 'fragmenstein_placed'}

>  <ref_pdb>  (1219) 
175

>  <scratch_subdir>  (1219) 
/opt/xchem-fragalysis-2/maxwin/BulkDock/SCRATCH/511028/C19020-P180

>  <alias>  (1219) 
Cc1nn(CO)c2cc(F)cc(C(=O)C(=O)c3cc4c(c(C5=CCOCC5)c3)CNC4)c12

>  <HIPPO Compound ID>  (1219) 
19020

>  <fragmenstein_runtime>  (1219) 
3.217621

$$$$
Cc1nn(CO)c2cc(F)cc(C(=O)C(=O)c3cc(C4=CCOCC4)c4c(c3N)CNC4)c12
     RDKit          3D

 33 37  0  0  0  0  0  0  0  0999 V2000
   -4.2446    5.8117  -15.0147 C   0  0  0  0  0  0  0  0  0  0  0  0
   -5.1050    5.4622  -16.1743 C   0  0  0  0  0  0  0  0  0  0  0  0
   -4.6011    5.6502  -17.3989 N   0  0  0  0  0  0  0  0  0  0  0  0
   -5.5713    5.2264  -18.2285 N   0  0  0  0  0  0  0  0  0  0  0  0
   -5.3166    5.3360  -19.6554 C   0  0  0  0  0  0  0  0  0  0  0  0
   -5.9632    4.3043  -20.3821 O   0  0  0  0  0  0  0  0  0  0  0  0
   -6.7211    4.8421  -17.5858 C   0  0  0  0  0  0  0  0  0  0  0  0
   -7.9597    4.3906  -18.0662 C   0  0  0  0  0  0  0  0  0  0  0  0
   -8.9418    4.0733  -17.1440 C   0  0  0  0  0  0  0  0  0  0  0  0
  -10.1377    3.6679  -17.5865 F   0  0  0  0  0  0  0  0  0  0  0  0
   -8.7132    4.1793  -15.7862 C   0  0  0  0  0  0  0  0  0  0  0  0
   -7.4664    4.6118  -15.2956 C   0  0  0  0  0  0  0  0  0  0  0  0
   -7.2486    4.7187  -13.8346 C   0  0  0  0  0  0  0  0  0  0  0  0
   -6.1382    4.7053  -13.3237 O   0  0  0  0  0  0  0  0  0  0  0  0
   -8.4210    5.0053  -12.9399 C   0  0  0  0  0  0  0  0  0  0  0  0
   -9.3688    5.6474  -13.3870 O   0  0  0  0  0  0  0  0  0  0  0  0
   -8.3290    4.7095  -11.5066 C   0  0  0  0  0  0  0  0  0  0  0  0
   -8.2292    5.8344  -10.6773 C   0  0  0  0  0  0  0  0  0  0  0  0
   -8.2629    5.7162   -9.2849 C   0  0  0  0  0  0  0  0  0  0  0  0
   -8.1352    6.9529   -8.5023 C   0  0  0  0  0  0  0  0  0  0  0  0
   -8.9286    8.0102   -8.7615 C   0  0  0  0  0  0  0  0  0  0  0  0
   -8.7230    9.3548   -8.1349 C   0  0  0  0  0  0  0  0  0  0  0  0
   -7.4380    9.4666   -7.5146 O   0  0  0  0  0  0  0  0  0  0  0  0
   -7.1693    8.3508   -6.6660 C   0  0  0  0  0  0  0  0  0  0  0  0
   -7.0290    7.0710   -7.4922 C   0  0  0  0  0  0  0  0  0  0  0  0
   -8.4346    4.4382   -8.7654 C   0  0  0  0  0  0  0  0  0  0  0  0
   -8.5288    3.3170   -9.6036 C   0  0  0  0  0  0  0  0  0  0  0  0
   -8.4019    3.4153  -10.9870 C   0  0  0  0  0  0  0  0  0  0  0  0
   -8.5333    2.2953  -11.8163 N   0  0  0  0  0  0  0  0  0  0  0  0
   -8.7999    2.1036   -8.7713 C   0  0  0  0  0  0  0  0  0  0  0  0
   -8.9949    2.5776   -7.3792 N   0  0  0  0  0  0  0  0  0  0  0  0
   -8.5873    3.9959   -7.3481 C   0  0  0  0  0  0  0  0  0  0  0  0
   -6.4447    4.9614  -16.2166 C   0  0  0  0  0  0  0  0  0  0  0  0
  1  2  1  0
  2  3  2  0
  3  4  1  0
  4  5  1  0
  5  6  1  0
  4  7  1  0
  7  8  2  0
  8  9  1  0
  9 10  1  0
  9 11  2  0
 11 12  1  0
 12 13  1  0
 13 14  2  0
 13 15  1  0
 15 16  2  0
 15 17  1  0
 17 18  2  0
 18 19  1  0
 19 20  1  0
 20 21  2  0
 21 22  1  0
 22 23  1  0
 23 24  1  0
 24 25  1  0
 19 26  2  0
 26 27  1  0
 27 28  2  0
 28 29  1  0
 27 30  1  0
 30 31  1  0
 31 32  1  0
 12 33  2  0
 33  2  1  0
 33  7  1  0
 28 17  1  0
 25 20  1  0
 32 26  1  0
M  END
>  <smiles>  (1220) 
C19024-P180

>  <fragmenstein_outcome>  (1220) 
acceptable

>  <inchikey>  (1220) 
RYFSLQQESOBHMB-UHFFFAOYSA-N

>  <fragmenstein_mode>  (1220) 
expansion

>  <HIPPO Pose ID>  (1220) 
20736

>  <Energy>  (1220) 
161.549028

>  <fragmenstein_error>  (1220) 


>  <tags>  (1220) 
{'openbind_xx01zvns2b_c1_fragmenstein', 'fragmenstein_placed'}

>  <ref_pdb>  (1220) 
175

>  <scratch_subdir>  (1220) 
/opt/xchem-fragalysis-2/maxwin/BulkDock/SCRATCH/511028/C19024-P180

>  <alias>  (1220) 
Cc1nn(CO)c2cc(F)cc(C(=O)C(=O)c3cc(C4=CCOCC4)c4c(c3N)CNC4)c12

>  <HIPPO Compound ID>  (1220) 
40892

>  <fragmenstein_runtime>  (1220) 
2.814622

$$$$
CC(C)Nn1ncc2c(C(=O)Nc3cc4c(c(C5=CCOCC5)c3)CNC4)cc(F)cc21
     RDKit          3D

 32 36  0  0  0  0  0  0  0  0999 V2000
   -3.4728    6.4087  -20.0282 C   0  0  0  0  0  0  0  0  0  0  0  0
   -4.8814    5.8340  -19.8262 C   0  0  0  0  0  0  0  0  0  0  0  0
   -5.8186    6.9482  -19.3919 C   0  0  0  0  0  0  0  0  0  0  0  0
   -4.8272    4.6840  -18.9353 N   0  0  0  0  0  0  0  0  0  0  0  0
   -5.3315    4.9400  -17.6503 N   0  0  0  0  0  0  0  0  0  0  0  0
   -4.5285    5.3960  -16.6805 N   0  0  0  0  0  0  0  0  0  0  0  0
   -5.3241    5.4519  -15.6126 C   0  0  0  0  0  0  0  0  0  0  0  0
   -6.6349    5.0136  -15.8910 C   0  0  0  0  0  0  0  0  0  0  0  0
   -7.8254    4.8465  -15.1688 C   0  0  0  0  0  0  0  0  0  0  0  0
   -7.8740    5.3189  -13.7786 C   0  0  0  0  0  0  0  0  0  0  0  0
   -7.6478    6.4452  -13.5768 O   0  0  0  0  0  0  0  0  0  0  0  0
   -8.2426    4.1837  -12.8043 N   0  0  0  0  0  0  0  0  0  0  0  0
   -8.3154    4.1732  -11.4167 C   0  0  0  0  0  0  0  0  0  0  0  0
   -8.6217    2.9843  -10.7635 C   0  0  0  0  0  0  0  0  0  0  0  0
   -8.7456    3.0154   -9.3859 C   0  0  0  0  0  0  0  0  0  0  0  0
   -8.5651    4.1931   -8.6530 C   0  0  0  0  0  0  0  0  0  0  0  0
   -8.2402    5.3865   -9.2847 C   0  0  0  0  0  0  0  0  0  0  0  0
   -8.0687    6.6745   -8.5946 C   0  0  0  0  0  0  0  0  0  0  0  0
   -8.8180    7.7402   -8.9354 C   0  0  0  0  0  0  0  0  0  0  0  0
   -8.6364    9.0962   -8.3253 C   0  0  0  0  0  0  0  0  0  0  0  0
   -7.3983    9.2098   -7.6164 O   0  0  0  0  0  0  0  0  0  0  0  0
   -7.1922    8.1029   -6.7383 C   0  0  0  0  0  0  0  0  0  0  0  0
   -7.0129    6.8080   -7.5340 C   0  0  0  0  0  0  0  0  0  0  0  0
   -8.1076    5.3515  -10.6835 C   0  0  0  0  0  0  0  0  0  0  0  0
   -8.8128    3.8801   -7.2131 C   0  0  0  0  0  0  0  0  0  0  0  0
   -9.4950    2.5630   -7.1957 N   0  0  0  0  0  0  0  0  0  0  0  0
   -9.0794    1.8967   -8.4564 C   0  0  0  0  0  0  0  0  0  0  0  0
   -8.9610    4.3397  -15.8050 C   0  0  0  0  0  0  0  0  0  0  0  0
   -8.9241    4.0621  -17.1646 C   0  0  0  0  0  0  0  0  0  0  0  0
  -10.0362    3.6216  -17.7656 F   0  0  0  0  0  0  0  0  0  0  0  0
   -7.7703    4.2512  -17.9229 C   0  0  0  0  0  0  0  0  0  0  0  0
   -6.6242    4.7013  -17.2450 C   0  0  0  0  0  0  0  0  0  0  0  0
  1  2  1  0
  2  3  1  0
  2  4  1  0
  4  5  1  0
  5  6  1  0
  6  7  2  0
  7  8  1  0
  8  9  2  0
  9 10  1  0
 10 11  2  0
 10 12  1  0
 12 13  1  0
 13 14  2  0
 14 15  1  0
 15 16  2  0
 16 17  1  0
 17 18  1  0
 18 19  2  0
 19 20  1  0
 20 21  1  0
 21 22  1  0
 22 23  1  0
 17 24  2  0
 16 25  1  0
 25 26  1  0
 26 27  1  0
  9 28  1  0
 28 29  2  0
 29 30  1  0
 29 31  1  0
 31 32  2  0
 32  5  1  0
 32  8  1  0
 24 13  1  0
 27 15  1  0
 23 18  1  0
M  END
>  <smiles>  (1221) 
C18953-P180

>  <fragmenstein_outcome>  (1221) 
acceptable

>  <inchikey>  (1221) 
CBJYKCYSPGHIBJ-UHFFFAOYSA-N

>  <fragmenstein_mode>  (1221) 
expansion

>  <HIPPO Pose ID>  (1221) 
20740

>  <Energy>  (1221) 
16.645631

>  <fragmenstein_error>  (1221) 


>  <tags>  (1221) 
{'openbind_xx01zvns2b_c1_fragmenstein', 'fragmenstein_placed'}

>  <ref_pdb>  (1221) 
175

>  <scratch_subdir>  (1221) 
/opt/xchem-fragalysis-2/maxwin/BulkDock/SCRATCH/511028/C18953-P180

>  <alias>  (1221) 
CC(C)Nn1ncc2c(C(=O)Nc3cc4c(c(C5=CCOCC5)c3)CNC4)cc(F)cc21

>  <HIPPO Compound ID>  (1221) 
18953

>  <fragmenstein_runtime>  (1221) 
4.917573

$$$$
N[C@H]1NCc2c(C3=CCOCC3)cc(NC(=O)c3cc(F)cc4c3cnn4N)cc21
     RDKit          3D

 30 34  0  0  0  0  0  0  0  0999 V2000
   -8.0872    1.2609   -8.6235 N   0  0  0  0  0  0  0  0  0  0  0  0
   -9.1760    2.1630   -8.7015 C   0  0  1  0  0  0  0  0  0  0  0  0
   -9.3406    2.7321   -7.3667 N   0  0  0  0  0  0  0  0  0  0  0  0
   -8.7530    4.0965   -7.4174 C   0  0  0  0  0  0  0  0  0  0  0  0
   -8.5657    4.4331   -8.8597 C   0  0  0  0  0  0  0  0  0  0  0  0
   -8.2110    5.6139   -9.4942 C   0  0  0  0  0  0  0  0  0  0  0  0
   -8.0363    6.8847   -8.7815 C   0  0  0  0  0  0  0  0  0  0  0  0
   -8.8527    7.9233   -9.0367 C   0  0  0  0  0  0  0  0  0  0  0  0
   -8.7083    9.2560   -8.3671 C   0  0  0  0  0  0  0  0  0  0  0  0
   -7.4600    9.3902   -7.6796 O   0  0  0  0  0  0  0  0  0  0  0  0
   -7.1725    8.2443   -6.8775 C   0  0  0  0  0  0  0  0  0  0  0  0
   -6.9397    7.0196   -7.7639 C   0  0  0  0  0  0  0  0  0  0  0  0
   -8.0744    5.5816  -10.8965 C   0  0  0  0  0  0  0  0  0  0  0  0
   -8.3073    4.4060  -11.6273 C   0  0  0  0  0  0  0  0  0  0  0  0
   -8.2173    4.3721  -13.0112 N   0  0  0  0  0  0  0  0  0  0  0  0
   -7.6553    5.4064  -14.0021 C   0  0  0  0  0  0  0  0  0  0  0  0
   -7.2484    6.4838  -13.8206 O   0  0  0  0  0  0  0  0  0  0  0  0
   -7.7244    4.9075  -15.3941 C   0  0  0  0  0  0  0  0  0  0  0  0
   -8.8917    4.3199  -15.9017 C   0  0  0  0  0  0  0  0  0  0  0  0
   -8.9910    4.0327  -17.2568 C   0  0  0  0  0  0  0  0  0  0  0  0
  -10.1313    3.5184  -17.7312 F   0  0  0  0  0  0  0  0  0  0  0  0
   -7.9591    4.3113  -18.1476 C   0  0  0  0  0  0  0  0  0  0  0  0
   -6.7998    4.9003  -17.6215 C   0  0  0  0  0  0  0  0  0  0  0  0
   -6.6564    5.1812  -16.2662 C   0  0  0  0  0  0  0  0  0  0  0  0
   -5.3712    5.7515  -16.1591 C   0  0  0  0  0  0  0  0  0  0  0  0
   -4.7636    5.8694  -17.3396 N   0  0  0  0  0  0  0  0  0  0  0  0
   -5.6463    5.3613  -18.2069 N   0  0  0  0  0  0  0  0  0  0  0  0
   -5.4187    5.4163  -19.5685 N   0  0  0  0  0  0  0  0  0  0  0  0
   -8.6778    3.2406  -10.9765 C   0  0  0  0  0  0  0  0  0  0  0  0
   -8.8109    3.2820   -9.6015 C   0  0  0  0  0  0  0  0  0  0  0  0
  2  1  1  1
  2  3  1  0
  3  4  1  0
  4  5  1  0
  5  6  2  0
  6  7  1  0
  7  8  2  0
  8  9  1  0
  9 10  1  0
 10 11  1  0
 11 12  1  0
  6 13  1  0
 13 14  2  0
 14 15  1  0
 15 16  1  0
 16 17  2  0
 16 18  1  0
 18 19  2  0
 19 20  1  0
 20 21  1  0
 20 22  2  0
 22 23  1  0
 23 24  2  0
 24 25  1  0
 25 26  2  0
 26 27  1  0
 27 28  1  0
 14 29  1  0
 29 30  2  0
 30  2  1  0
 30  5  1  0
 12  7  1  0
 24 18  1  0
 27 23  1  0
M  END
>  <smiles>  (1222) 
C19033-P180

>  <fragmenstein_outcome>  (1222) 
acceptable

>  <inchikey>  (1222) 
YNXFVHWZVIWIIJ-UHFFFAOYSA-N

>  <fragmenstein_mode>  (1222) 
expansion

>  <HIPPO Pose ID>  (1222) 
20744

>  <Energy>  (1222) 
-67.471324

>  <fragmenstein_error>  (1222) 


>  <tags>  (1222) 
{'openbind_xx01zvns2b_c1_fragmenstein', 'fragmenstein_placed'}

>  <ref_pdb>  (1222) 
175

>  <scratch_subdir>  (1222) 
/opt/xchem-fragalysis-2/maxwin/BulkDock/SCRATCH/511028/C19033-P180

>  <alias>  (1222) 
N[C@H]1NCc2c(C3=CCOCC3)cc(NC(=O)c3cc(F)cc4c3cnn4N)cc21

>  <HIPPO Compound ID>  (1222) 
19033

>  <fragmenstein_runtime>  (1222) 
3.674883

$$$$
O=C(Nc1cc2c(c(C3=CCOCC3)c1)CNC2)c1cc(F)cc2nn(CN3CCCC3)cc12
     RDKit          3D

 34 39  0  0  0  0  0  0  0  0999 V2000
   -7.3723    6.4193  -13.7146 O   0  0  0  0  0  0  0  0  0  0  0  0
   -7.6687    5.3084  -13.9173 C   0  0  0  0  0  0  0  0  0  0  0  0
   -8.1274    4.2007  -12.9433 N   0  0  0  0  0  0  0  0  0  0  0  0
   -8.2228    4.2004  -11.5541 C   0  0  0  0  0  0  0  0  0  0  0  0
   -8.5539    3.0145  -10.9025 C   0  0  0  0  0  0  0  0  0  0  0  0
   -8.6945    3.0418   -9.5253 C   0  0  0  0  0  0  0  0  0  0  0  0
   -8.5183    4.2170   -8.7904 C   0  0  0  0  0  0  0  0  0  0  0  0
   -8.1810    5.4097   -9.4182 C   0  0  0  0  0  0  0  0  0  0  0  0
   -8.0286    6.6918   -8.7136 C   0  0  0  0  0  0  0  0  0  0  0  0
   -8.8058    7.7443   -9.0301 C   0  0  0  0  0  0  0  0  0  0  0  0
   -8.6623    9.0894   -8.3855 C   0  0  0  0  0  0  0  0  0  0  0  0
   -7.4327    9.2179   -7.6642 O   0  0  0  0  0  0  0  0  0  0  0  0
   -7.2008    8.0926   -6.8162 C   0  0  0  0  0  0  0  0  0  0  0  0
   -6.9763    6.8290   -7.6496 C   0  0  0  0  0  0  0  0  0  0  0  0
   -8.0228    5.3778  -10.8165 C   0  0  0  0  0  0  0  0  0  0  0  0
   -8.7770    3.9045   -7.3519 C   0  0  0  0  0  0  0  0  0  0  0  0
   -9.4555    2.5860   -7.3368 N   0  0  0  0  0  0  0  0  0  0  0  0
   -9.0380    1.9224   -8.5987 C   0  0  0  0  0  0  0  0  0  0  0  0
   -7.7143    4.8509  -15.3126 C   0  0  0  0  0  0  0  0  0  0  0  0
   -8.8813    4.3509  -15.9198 C   0  0  0  0  0  0  0  0  0  0  0  0
   -8.9645    4.0720  -17.3120 C   0  0  0  0  0  0  0  0  0  0  0  0
  -10.1373    3.6260  -17.7843 F   0  0  0  0  0  0  0  0  0  0  0  0
   -7.9103    4.2534  -18.2246 C   0  0  0  0  0  0  0  0  0  0  0  0
   -6.7225    4.7126  -17.6330 C   0  0  0  0  0  0  0  0  0  0  0  0
   -5.5154    4.9403  -18.1787 N   0  0  0  0  0  0  0  0  0  0  0  0
   -4.7211    5.2954  -17.1398 N   0  0  0  0  0  0  0  0  0  0  0  0
   -3.2723    5.4117  -17.3286 C   0  0  0  0  0  0  0  0  0  0  0  0
   -2.8577    6.7479  -17.7624 N   0  0  0  0  0  0  0  0  0  0  0  0
   -3.3503    7.1597  -19.0721 C   0  0  0  0  0  0  0  0  0  0  0  0
   -2.8935    8.6105  -19.1393 C   0  0  0  0  0  0  0  0  0  0  0  0
   -2.8061    9.0695  -17.6851 C   0  0  0  0  0  0  0  0  0  0  0  0
   -3.1633    7.8438  -16.8535 C   0  0  0  0  0  0  0  0  0  0  0  0
   -5.3814    5.3814  -15.9443 C   0  0  0  0  0  0  0  0  0  0  0  0
   -6.6651    4.9977  -16.2199 C   0  0  0  0  0  0  0  0  0  0  0  0
  1  2  2  0
  2  3  1  0
  3  4  1  0
  4  5  2  0
  5  6  1  0
  6  7  2  0
  7  8  1  0
  8  9  1  0
  9 10  2  0
 10 11  1  0
 11 12  1  0
 12 13  1  0
 13 14  1  0
  8 15  2  0
  7 16  1  0
 16 17  1  0
 17 18  1  0
  2 19  1  0
 19 20  2  0
 20 21  1  0
 21 22  1  0
 21 23  2  0
 23 24  1  0
 24 25  2  0
 25 26  1  0
 26 27  1  0
 27 28  1  0
 28 29  1  0
 29 30  1  0
 30 31  1  0
 31 32  1  0
 26 33  1  0
 33 34  2  0
 15  4  1  0
 34 19  1  0
 18  6  1  0
 34 24  1  0
 14  9  1  0
 32 28  1  0
M  END
>  <smiles>  (1223) 
C19034-P180

>  <fragmenstein_outcome>  (1223) 
acceptable

>  <inchikey>  (1223) 
BZGHXJXIYJQHPD-UHFFFAOYSA-N

>  <fragmenstein_mode>  (1223) 
expansion

>  <HIPPO Pose ID>  (1223) 
20745

>  <Energy>  (1223) 
90.977161

>  <fragmenstein_error>  (1223) 


>  <tags>  (1223) 
{'openbind_xx01zvns2b_c1_fragmenstein', 'fragmenstein_placed'}

>  <ref_pdb>  (1223) 
175

>  <scratch_subdir>  (1223) 
/opt/xchem-fragalysis-2/maxwin/BulkDock/SCRATCH/511028/C19034-P180

>  <alias>  (1223) 
O=C(Nc1cc2c(c(C3=CCOCC3)c1)CNC2)c1cc(F)cc2nn(CN3CCCC3)cc12

>  <HIPPO Compound ID>  (1223) 
32623

>  <fragmenstein_runtime>  (1223) 
6.722205

$$$$
Nn1ncc2c(C(=O)Nc3cc4c(c(C5=CCOCC5)c3)CNC4)cc(F)cc21
     RDKit          3D

 29 33  0  0  0  0  0  0  0  0999 V2000
   -5.7899    6.1030  -19.4986 N   0  0  0  0  0  0  0  0  0  0  0  0
   -5.8012    5.5903  -18.1969 N   0  0  0  0  0  0  0  0  0  0  0  0
   -4.8036    5.8547  -17.3443 N   0  0  0  0  0  0  0  0  0  0  0  0
   -5.3491    5.6361  -16.1459 C   0  0  0  0  0  0  0  0  0  0  0  0
   -6.6568    5.1131  -16.2330 C   0  0  0  0  0  0  0  0  0  0  0  0
   -7.6898    4.7835  -15.3331 C   0  0  0  0  0  0  0  0  0  0  0  0
   -7.5794    5.2154  -13.9181 C   0  0  0  0  0  0  0  0  0  0  0  0
   -7.1569    6.2848  -13.7153 O   0  0  0  0  0  0  0  0  0  0  0  0
   -8.1481    4.1621  -12.9425 N   0  0  0  0  0  0  0  0  0  0  0  0
   -8.2262    4.1659  -11.5517 C   0  0  0  0  0  0  0  0  0  0  0  0
   -8.5605    2.9866  -10.8910 C   0  0  0  0  0  0  0  0  0  0  0  0
   -8.6968    3.0251   -9.5139 C   0  0  0  0  0  0  0  0  0  0  0  0
   -8.5152    4.2053   -8.7884 C   0  0  0  0  0  0  0  0  0  0  0  0
   -8.1755    5.3925   -9.4256 C   0  0  0  0  0  0  0  0  0  0  0  0
   -8.0217    6.6788   -8.7285 C   0  0  0  0  0  0  0  0  0  0  0  0
   -8.8022    7.7287   -9.0455 C   0  0  0  0  0  0  0  0  0  0  0  0
   -8.6633    9.0750   -8.4019 C   0  0  0  0  0  0  0  0  0  0  0  0
   -7.4361    9.2080   -7.6777 O   0  0  0  0  0  0  0  0  0  0  0  0
   -7.2001    8.0827   -6.8310 C   0  0  0  0  0  0  0  0  0  0  0  0
   -6.9681    6.8217   -7.6663 C   0  0  0  0  0  0  0  0  0  0  0  0
   -8.0211    5.3493  -10.8240 C   0  0  0  0  0  0  0  0  0  0  0  0
   -8.7737    3.9047   -7.3473 C   0  0  0  0  0  0  0  0  0  0  0  0
   -9.4571    2.5887   -7.3215 N   0  0  0  0  0  0  0  0  0  0  0  0
   -9.0426    1.9141   -8.5784 C   0  0  0  0  0  0  0  0  0  0  0  0
   -8.8824    4.2452  -15.8354 C   0  0  0  0  0  0  0  0  0  0  0  0
   -9.0349    4.0444  -17.2017 C   0  0  0  0  0  0  0  0  0  0  0  0
  -10.1937    3.5652  -17.6673 F   0  0  0  0  0  0  0  0  0  0  0  0
   -8.0487    4.4001  -18.1160 C   0  0  0  0  0  0  0  0  0  0  0  0
   -6.8760    4.9697  -17.6022 C   0  0  0  0  0  0  0  0  0  0  0  0
  1  2  1  0
  2  3  1  0
  3  4  2  0
  4  5  1  0
  5  6  2  0
  6  7  1  0
  7  8  2  0
  7  9  1  0
  9 10  1  0
 10 11  2  0
 11 12  1  0
 12 13  2  0
 13 14  1  0
 14 15  1  0
 15 16  2  0
 16 17  1  0
 17 18  1  0
 18 19  1  0
 19 20  1  0
 14 21  2  0
 13 22  1  0
 22 23  1  0
 23 24  1  0
  6 25  1  0
 25 26  2  0
 26 27  1  0
 26 28  1  0
 28 29  2  0
 29  2  1  0
 29  5  1  0
 21 10  1  0
 24 12  1  0
 20 15  1  0
M  END
>  <smiles>  (1224) 
C18958-P180

>  <fragmenstein_outcome>  (1224) 
acceptable

>  <inchikey>  (1224) 
JNRXETOKGVKYRS-UHFFFAOYSA-N

>  <fragmenstein_mode>  (1224) 
expansion

>  <HIPPO Pose ID>  (1224) 
20746

>  <Energy>  (1224) 
12.590482

>  <fragmenstein_error>  (1224) 


>  <tags>  (1224) 
{'openbind_xx01zvns2b_c1_fragmenstein', 'fragmenstein_placed'}

>  <ref_pdb>  (1224) 
175

>  <scratch_subdir>  (1224) 
/opt/xchem-fragalysis-2/maxwin/BulkDock/SCRATCH/511028/C18958-P180

>  <alias>  (1224) 
Nn1ncc2c(C(=O)Nc3cc4c(c(C5=CCOCC5)c3)CNC4)cc(F)cc21

>  <HIPPO Compound ID>  (1224) 
18958

>  <fragmenstein_runtime>  (1224) 
3.152388

$$$$
CN1Cc2c(C(=O)Nc3cc4c(c(C5=CCOCC5)c3)CNC4)cc(F)cc2[N@+]1(C)[O-]
     RDKit          3D

 31 35  0  0  0  0  0  0  0  0999 V2000
   -3.1978    6.4351  -17.0543 C   0  0  0  0  0  0  0  0  0  0  0  0
   -4.6565    6.3726  -17.0677 N   0  0  0  0  0  0  0  0  0  0  0  0
   -5.1836    5.8862  -15.7738 C   0  0  0  0  0  0  0  0  0  0  0  0
   -6.4812    5.2328  -16.1222 C   0  0  0  0  0  0  0  0  0  0  0  0
   -7.5724    4.9382  -15.3122 C   0  0  0  0  0  0  0  0  0  0  0  0
   -7.5923    5.3936  -13.9026 C   0  0  0  0  0  0  0  0  0  0  0  0
   -7.3043    6.5034  -13.6842 O   0  0  0  0  0  0  0  0  0  0  0  0
   -7.9673    4.2486  -12.9376 N   0  0  0  0  0  0  0  0  0  0  0  0
   -8.1524    4.2529  -11.5567 C   0  0  0  0  0  0  0  0  0  0  0  0
   -8.4723    3.0622  -10.9088 C   0  0  0  0  0  0  0  0  0  0  0  0
   -8.6333    3.0859   -9.5311 C   0  0  0  0  0  0  0  0  0  0  0  0
   -8.4729    4.2571   -8.7916 C   0  0  0  0  0  0  0  0  0  0  0  0
   -8.1720    5.4606   -9.4191 C   0  0  0  0  0  0  0  0  0  0  0  0
   -8.0371    6.7464   -8.7167 C   0  0  0  0  0  0  0  0  0  0  0  0
   -8.8443    7.7797   -9.0209 C   0  0  0  0  0  0  0  0  0  0  0  0
   -8.7140    9.1331   -8.3911 C   0  0  0  0  0  0  0  0  0  0  0  0
   -7.4727    9.2932   -7.6963 O   0  0  0  0  0  0  0  0  0  0  0  0
   -7.1974    8.1778   -6.8490 C   0  0  0  0  0  0  0  0  0  0  0  0
   -6.9595    6.9179   -7.6838 C   0  0  0  0  0  0  0  0  0  0  0  0
   -8.0100    5.4365  -10.8169 C   0  0  0  0  0  0  0  0  0  0  0  0
   -8.6924    3.9436   -7.3496 C   0  0  0  0  0  0  0  0  0  0  0  0
   -9.1545    2.5395   -7.2723 N   0  0  0  0  0  0  0  0  0  0  0  0
   -8.9765    1.9528   -8.6249 C   0  0  0  0  0  0  0  0  0  0  0  0
   -8.6973    4.3464  -15.8893 C   0  0  0  0  0  0  0  0  0  0  0  0
   -8.6994    4.0671  -17.2598 C   0  0  0  0  0  0  0  0  0  0  0  0
   -9.8043    3.5400  -17.8048 F   0  0  0  0  0  0  0  0  0  0  0  0
   -7.5959    4.3466  -18.0710 C   0  0  0  0  0  0  0  0  0  0  0  0
   -6.4753    4.9218  -17.4829 C   0  0  0  0  0  0  0  0  0  0  0  0
   -5.1951    5.3823  -18.1061 N   0  0  1  0  0  0  0  0  0  0  0  0
   -5.3918    6.0306  -19.4209 C   0  0  0  0  0  0  0  0  0  0  0  0
   -4.3122    4.3747  -18.2157 O   0  0  0  0  0  0  0  0  0  0  0  0
  1  2  1  0
  2  3  1  0
  3  4  1  0
  4  5  2  0
  5  6  1  0
  6  7  2  0
  6  8  1  0
  8  9  1  0
  9 10  2  0
 10 11  1  0
 11 12  2  0
 12 13  1  0
 13 14  1  0
 14 15  2  0
 15 16  1  0
 16 17  1  0
 17 18  1  0
 18 19  1  0
 13 20  2  0
 12 21  1  0
 21 22  1  0
 22 23  1  0
  5 24  1  0
 24 25  2  0
 25 26  1  0
 25 27  1  0
 27 28  2  0
 28 29  1  0
 29 30  1  6
 29 31  1  0
 29  2  1  0
 28  4  1  0
 20  9  1  0
 23 11  1  0
 19 14  1  0
M  CHG  2  29   1  31  -1
M  END
>  <smiles>  (1225) 
C19044-P180

>  <fragmenstein_outcome>  (1225) 
acceptable

>  <inchikey>  (1225) 
HSGFTJXZLHDXNF-UHFFFAOYSA-N

>  <fragmenstein_mode>  (1225) 
expansion

>  <HIPPO Pose ID>  (1225) 
20749

>  <Energy>  (1225) 
48.32103

>  <fragmenstein_error>  (1225) 


>  <tags>  (1225) 
{'openbind_xx01zvns2b_c1_fragmenstein', 'fragmenstein_placed'}

>  <ref_pdb>  (1225) 
175

>  <scratch_subdir>  (1225) 
/opt/xchem-fragalysis-2/maxwin/BulkDock/SCRATCH/511028/C19044-P180

>  <alias>  (1225) 
CN1Cc2c(C(=O)Nc3cc4c(c(C5=CCOCC5)c3)CNC4)cc(F)cc2[N@+]1(C)[O-]

>  <HIPPO Compound ID>  (1225) 
19044

>  <fragmenstein_runtime>  (1225) 
11.361696

$$$$
CN1Cc2c(C(=O)Nc3cc4c(c(C5=CCOCC5)c3)CNC4)cc(F)cc2[N@@+]1(C)[O-]
     RDKit          3D

 31 35  0  0  0  0  0  0  0  0999 V2000
   -3.5904    6.9318  -17.0662 C   0  0  0  0  0  0  0  0  0  0  0  0
   -4.5519    5.8440  -16.9334 N   0  0  0  0  0  0  0  0  0  0  0  0
   -5.4144    6.0165  -15.7484 C   0  0  0  0  0  0  0  0  0  0  0  0
   -6.7129    5.3825  -16.1269 C   0  0  0  0  0  0  0  0  0  0  0  0
   -7.8010    5.0720  -15.3248 C   0  0  0  0  0  0  0  0  0  0  0  0
   -7.8045    5.4958  -13.9027 C   0  0  0  0  0  0  0  0  0  0  0  0
   -7.4283    6.5781  -13.6742 O   0  0  0  0  0  0  0  0  0  0  0  0
   -8.3059    4.3868  -12.9490 N   0  0  0  0  0  0  0  0  0  0  0  0
   -8.3580    4.3455  -11.5540 C   0  0  0  0  0  0  0  0  0  0  0  0
   -8.6139    3.1433  -10.9016 C   0  0  0  0  0  0  0  0  0  0  0  0
   -8.6634    3.1398   -9.5134 C   0  0  0  0  0  0  0  0  0  0  0  0
   -8.4701    4.3038   -8.7672 C   0  0  0  0  0  0  0  0  0  0  0  0
   -8.2266    5.5194   -9.3949 C   0  0  0  0  0  0  0  0  0  0  0  0
   -8.0428    6.7990   -8.6892 C   0  0  0  0  0  0  0  0  0  0  0  0
   -8.7927    7.8712   -9.0091 C   0  0  0  0  0  0  0  0  0  0  0  0
   -8.5784    9.2307   -8.4106 C   0  0  0  0  0  0  0  0  0  0  0  0
   -7.3564    9.3194   -7.6672 O   0  0  0  0  0  0  0  0  0  0  0  0
   -7.1860    8.1940   -6.8074 C   0  0  0  0  0  0  0  0  0  0  0  0
   -6.9765    6.9269   -7.6376 C   0  0  0  0  0  0  0  0  0  0  0  0
   -8.1602    5.5139  -10.8029 C   0  0  0  0  0  0  0  0  0  0  0  0
   -8.5843    3.9583   -7.3183 C   0  0  0  0  0  0  0  0  0  0  0  0
   -9.1221    2.5841   -7.2538 N   0  0  0  0  0  0  0  0  0  0  0  0
   -8.8980    1.9877   -8.5924 C   0  0  0  0  0  0  0  0  0  0  0  0
   -8.9322    4.5354  -15.9337 C   0  0  0  0  0  0  0  0  0  0  0  0
   -8.9644    4.3510  -17.3196 C   0  0  0  0  0  0  0  0  0  0  0  0
  -10.0824    3.8688  -17.8775 F   0  0  0  0  0  0  0  0  0  0  0  0
   -7.8916    4.7065  -18.1308 C   0  0  0  0  0  0  0  0  0  0  0  0
   -6.7625    5.2252  -17.5123 C   0  0  0  0  0  0  0  0  0  0  0  0
   -5.5285    5.7816  -18.1303 N   0  0  2  0  0  0  0  0  0  0  0  0
   -4.9626    4.8987  -19.1918 C   0  0  0  0  0  0  0  0  0  0  0  0
   -5.7834    7.0486  -18.5473 O   0  0  0  0  0  0  0  0  0  0  0  0
  1  2  1  0
  2  3  1  0
  3  4  1  0
  4  5  2  0
  5  6  1  0
  6  7  2  0
  6  8  1  0
  8  9  1  0
  9 10  2  0
 10 11  1  0
 11 12  2  0
 12 13  1  0
 13 14  1  0
 14 15  2  0
 15 16  1  0
 16 17  1  0
 17 18  1  0
 18 19  1  0
 13 20  2  0
 12 21  1  0
 21 22  1  0
 22 23  1  0
  5 24  1  0
 24 25  2  0
 25 26  1  0
 25 27  1  0
 27 28  2  0
 28 29  1  0
 29 30  1  6
 29 31  1  0
 29  2  1  0
 28  4  1  0
 20  9  1  0
 23 11  1  0
 19 14  1  0
M  CHG  2  29   1  31  -1
M  END
>  <smiles>  (1226) 
C19044-P74

>  <fragmenstein_outcome>  (1226) 
acceptable

>  <inchikey>  (1226) 
ODHFLZMNURYNAJ-UHFFFAOYSA-N

>  <fragmenstein_mode>  (1226) 
expansion

>  <HIPPO Pose ID>  (1226) 
20750

>  <Energy>  (1226) 
49.567684

>  <fragmenstein_error>  (1226) 


>  <tags>  (1226) 
{'openbind_xx01zvns2b_c1_fragmenstein', 'fragmenstein_placed'}

>  <ref_pdb>  (1226) 
175

>  <scratch_subdir>  (1226) 
/opt/xchem-fragalysis-2/maxwin/BulkDock/SCRATCH/511028/C19044-P74

>  <alias>  (1226) 
CN1Cc2c(C(=O)Nc3cc4c(c(C5=CCOCC5)c3)CNC4)cc(F)cc2[N@@+]1(C)[O-]

>  <HIPPO Compound ID>  (1226) 
30968

>  <fragmenstein_runtime>  (1226) 
5.785664

$$$$
Cn1cc2c(C(=O)Nc3cc4c(c(C5=CCOCC5)c3)CNC4)cc(F)cc2n1
     RDKit          3D

 29 33  0  0  0  0  0  0  0  0999 V2000
   -3.2768    5.7158  -16.6685 C   0  0  0  0  0  0  0  0  0  0  0  0
   -4.6937    5.4550  -16.6451 N   0  0  0  0  0  0  0  0  0  0  0  0
   -5.4749    5.5023  -15.5359 C   0  0  0  0  0  0  0  0  0  0  0  0
   -6.7012    5.0764  -15.9607 C   0  0  0  0  0  0  0  0  0  0  0  0
   -7.8271    4.8968  -15.1645 C   0  0  0  0  0  0  0  0  0  0  0  0
   -7.8849    5.3550  -13.7742 C   0  0  0  0  0  0  0  0  0  0  0  0
   -7.6554    6.4781  -13.5588 O   0  0  0  0  0  0  0  0  0  0  0  0
   -8.1564    4.1881  -12.8069 N   0  0  0  0  0  0  0  0  0  0  0  0
   -8.2918    4.1747  -11.4237 C   0  0  0  0  0  0  0  0  0  0  0  0
   -8.5779    2.9781  -10.7767 C   0  0  0  0  0  0  0  0  0  0  0  0
   -8.7313    3.0070   -9.4014 C   0  0  0  0  0  0  0  0  0  0  0  0
   -8.5805    4.1861   -8.6630 C   0  0  0  0  0  0  0  0  0  0  0  0
   -8.2705    5.3869   -9.2872 C   0  0  0  0  0  0  0  0  0  0  0  0
   -8.1006    6.6725   -8.5915 C   0  0  0  0  0  0  0  0  0  0  0  0
   -8.8390    7.7444   -8.9360 C   0  0  0  0  0  0  0  0  0  0  0  0
   -8.6470    9.0996   -8.3273 C   0  0  0  0  0  0  0  0  0  0  0  0
   -7.4065    9.2047   -7.6212 O   0  0  0  0  0  0  0  0  0  0  0  0
   -7.2098    8.0998   -6.7387 C   0  0  0  0  0  0  0  0  0  0  0  0
   -7.0463    6.7989   -7.5279 C   0  0  0  0  0  0  0  0  0  0  0  0
   -8.1307    5.3579  -10.6853 C   0  0  0  0  0  0  0  0  0  0  0  0
   -8.8336    3.8635   -7.2262 C   0  0  0  0  0  0  0  0  0  0  0  0
   -9.5016    2.5393   -7.2204 N   0  0  0  0  0  0  0  0  0  0  0  0
   -9.0641    1.8819   -8.4788 C   0  0  0  0  0  0  0  0  0  0  0  0
   -8.9081    4.3587  -15.8771 C   0  0  0  0  0  0  0  0  0  0  0  0
   -8.8443    4.0984  -17.2762 C   0  0  0  0  0  0  0  0  0  0  0  0
   -9.9515    3.6121  -17.8577 F   0  0  0  0  0  0  0  0  0  0  0  0
   -7.7121    4.3358  -18.0859 C   0  0  0  0  0  0  0  0  0  0  0  0
   -6.6002    4.8179  -17.3733 C   0  0  0  0  0  0  0  0  0  0  0  0
   -5.3478    5.1120  -17.7751 N   0  0  0  0  0  0  0  0  0  0  0  0
  1  2  1  0
  2  3  1  0
  3  4  2  0
  4  5  1  0
  5  6  1  0
  6  7  2  0
  6  8  1  0
  8  9  1  0
  9 10  2  0
 10 11  1  0
 11 12  2  0
 12 13  1  0
 13 14  1  0
 14 15  2  0
 15 16  1  0
 16 17  1  0
 17 18  1  0
 18 19  1  0
 13 20  2  0
 12 21  1  0
 21 22  1  0
 22 23  1  0
  5 24  2  0
 24 25  1  0
 25 26  1  0
 25 27  2  0
 27 28  1  0
 28 29  2  0
 29  2  1  0
 28  4  1  0
 20  9  1  0
 23 11  1  0
 19 14  1  0
M  END
>  <smiles>  (1227) 
C18947-P180

>  <fragmenstein_outcome>  (1227) 
acceptable

>  <inchikey>  (1227) 
HQSWEWUQCXVKEY-UHFFFAOYSA-N

>  <fragmenstein_mode>  (1227) 
expansion

>  <HIPPO Pose ID>  (1227) 
20751

>  <Energy>  (1227) 
56.222131

>  <fragmenstein_error>  (1227) 


>  <tags>  (1227) 
{'openbind_xx01zvns2b_c1_fragmenstein', 'fragmenstein_placed'}

>  <ref_pdb>  (1227) 
175

>  <scratch_subdir>  (1227) 
/opt/xchem-fragalysis-2/maxwin/BulkDock/SCRATCH/511028/C18947-P180

>  <alias>  (1227) 
Cn1cc2c(C(=O)Nc3cc4c(c(C5=CCOCC5)c3)CNC4)cc(F)cc2n1

>  <HIPPO Compound ID>  (1227) 
171

>  <fragmenstein_runtime>  (1227) 
3.777676

$$$$
O=C(Nc1cc2c(c(C3=CCOCC3)c1)CNC2)c1cc(F)cc2c1[C@]1(CCNC1)NN2
     RDKit          3D

 32 37  0  0  0  0  0  0  0  0999 V2000
   -7.3924    6.5700  -13.6965 O   0  0  0  0  0  0  0  0  0  0  0  0
   -7.4880    5.4255  -13.8974 C   0  0  0  0  0  0  0  0  0  0  0  0
   -7.7110    4.2531  -12.9187 N   0  0  0  0  0  0  0  0  0  0  0  0
   -7.9495    4.2531  -11.5454 C   0  0  0  0  0  0  0  0  0  0  0  0
   -8.2985    3.0643  -10.9090 C   0  0  0  0  0  0  0  0  0  0  0  0
   -8.5323    3.0957   -9.5412 C   0  0  0  0  0  0  0  0  0  0  0  0
   -8.4101    4.2700   -8.7997 C   0  0  0  0  0  0  0  0  0  0  0  0
   -8.0877    5.4709   -9.4194 C   0  0  0  0  0  0  0  0  0  0  0  0
   -7.9970    6.7601   -8.7196 C   0  0  0  0  0  0  0  0  0  0  0  0
   -8.8323    7.7681   -9.0307 C   0  0  0  0  0  0  0  0  0  0  0  0
   -8.7405    9.1271   -8.4056 C   0  0  0  0  0  0  0  0  0  0  0  0
   -7.5060    9.3235   -7.7076 O   0  0  0  0  0  0  0  0  0  0  0  0
   -7.2009    8.2184   -6.8565 C   0  0  0  0  0  0  0  0  0  0  0  0
   -6.9232    6.9658   -7.6895 C   0  0  0  0  0  0  0  0  0  0  0  0
   -7.8565    5.4419  -10.8064 C   0  0  0  0  0  0  0  0  0  0  0  0
   -8.7179    3.9703   -7.3717 C   0  0  0  0  0  0  0  0  0  0  0  0
   -8.9633    2.5132   -7.2699 N   0  0  0  0  0  0  0  0  0  0  0  0
   -8.9608    1.9765   -8.6550 C   0  0  0  0  0  0  0  0  0  0  0  0
   -7.4819    4.9651  -15.3027 C   0  0  0  0  0  0  0  0  0  0  0  0
   -8.6677    4.3610  -15.7656 C   0  0  0  0  0  0  0  0  0  0  0  0
   -8.8277    4.0653  -17.1190 C   0  0  0  0  0  0  0  0  0  0  0  0
   -9.9766    3.5296  -17.5475 F   0  0  0  0  0  0  0  0  0  0  0  0
   -7.8355    4.3607  -18.0366 C   0  0  0  0  0  0  0  0  0  0  0  0
   -6.6923    4.9854  -17.5695 C   0  0  0  0  0  0  0  0  0  0  0  0
   -6.4707    5.2690  -16.2114 C   0  0  0  0  0  0  0  0  0  0  0  0
   -5.1110    5.9423  -16.1388 C   0  0  1  0  0  0  0  0  0  0  0  0
   -4.9331    7.1633  -15.2387 C   0  0  0  0  0  0  0  0  0  0  0  0
   -4.3019    6.6552  -13.9402 C   0  0  0  0  0  0  0  0  0  0  0  0
   -3.9653    5.2383  -14.1354 N   0  0  0  0  0  0  0  0  0  0  0  0
   -3.9779    5.0552  -15.5921 C   0  0  0  0  0  0  0  0  0  0  0  0
   -4.8363    6.3060  -17.5767 N   0  0  0  0  0  0  0  0  0  0  0  0
   -5.6028    5.3929  -18.3644 N   0  0  0  0  0  0  0  0  0  0  0  0
  1  2  2  0
  2  3  1  0
  3  4  1  0
  4  5  2  0
  5  6  1  0
  6  7  2  0
  7  8  1  0
  8  9  1  0
  9 10  2  0
 10 11  1  0
 11 12  1  0
 12 13  1  0
 13 14  1  0
  8 15  2  0
  7 16  1  0
 16 17  1  0
 17 18  1  0
  2 19  1  0
 19 20  2  0
 20 21  1  0
 21 22  1  0
 21 23  2  0
 23 24  1  0
 24 25  2  0
 25 26  1  0
 26 27  1  1
 27 28  1  0
 28 29  1  0
 29 30  1  0
 26 31  1  0
 31 32  1  0
 15  4  1  0
 25 19  1  0
 30 26  1  0
 18  6  1  0
 32 24  1  0
 14  9  1  0
M  END
>  <smiles>  (1228) 
C19055-P180

>  <fragmenstein_outcome>  (1228) 
acceptable

>  <inchikey>  (1228) 
IRLJMHZZYODRNN-UHFFFAOYSA-N

>  <fragmenstein_mode>  (1228) 
expansion

>  <HIPPO Pose ID>  (1228) 
20752

>  <Energy>  (1228) 
118.682604

>  <fragmenstein_error>  (1228) 


>  <tags>  (1228) 
{'openbind_xx01zvns2b_c1_fragmenstein', 'fragmenstein_placed'}

>  <ref_pdb>  (1228) 
175

>  <scratch_subdir>  (1228) 
/opt/xchem-fragalysis-2/maxwin/BulkDock/SCRATCH/511028/C19055-P180

>  <alias>  (1228) 
O=C(Nc1cc2c(c(C3=CCOCC3)c1)CNC2)c1cc(F)cc2c1[C@]1(CCNC1)NN2

>  <HIPPO Compound ID>  (1228) 
22664

>  <fragmenstein_runtime>  (1228) 
5.147755

$$$$
O=C(Nc1cc2c(c(C3=CCOCC3)c1)CNC2)c1cc(F)cc2c1[C@@]1(CCNC1)NN2
     RDKit          3D

 32 37  0  0  0  0  0  0  0  0999 V2000
   -7.3273    6.5238  -13.8921 O   0  0  0  0  0  0  0  0  0  0  0  0
   -7.5257    5.3863  -14.0700 C   0  0  0  0  0  0  0  0  0  0  0  0
   -7.9238    4.2687  -13.0736 N   0  0  0  0  0  0  0  0  0  0  0  0
   -8.0629    4.2996  -11.6814 C   0  0  0  0  0  0  0  0  0  0  0  0
   -8.3936    3.1271  -11.0030 C   0  0  0  0  0  0  0  0  0  0  0  0
   -8.5287    3.1695   -9.6206 C   0  0  0  0  0  0  0  0  0  0  0  0
   -8.3473    4.3513   -8.9014 C   0  0  0  0  0  0  0  0  0  0  0  0
   -8.0434    5.5422   -9.5528 C   0  0  0  0  0  0  0  0  0  0  0  0
   -7.8995    6.8395   -8.8665 C   0  0  0  0  0  0  0  0  0  0  0  0
   -8.6235    7.9052   -9.2588 C   0  0  0  0  0  0  0  0  0  0  0  0
   -8.4846    9.2685   -8.6486 C   0  0  0  0  0  0  0  0  0  0  0  0
   -7.3477    9.3773   -7.7852 O   0  0  0  0  0  0  0  0  0  0  0  0
   -7.2335    8.2507   -6.9183 C   0  0  0  0  0  0  0  0  0  0  0  0
   -6.9276    6.9900   -7.7290 C   0  0  0  0  0  0  0  0  0  0  0  0
   -7.8909    5.4900  -10.9567 C   0  0  0  0  0  0  0  0  0  0  0  0
   -8.5401    4.0522   -7.4494 C   0  0  0  0  0  0  0  0  0  0  0  0
   -9.1171    2.6957   -7.3709 N   0  0  0  0  0  0  0  0  0  0  0  0
   -8.8441    2.0533   -8.6785 C   0  0  0  0  0  0  0  0  0  0  0  0
   -7.4967    4.9134  -15.4762 C   0  0  0  0  0  0  0  0  0  0  0  0
   -8.6727    4.3725  -16.0025 C   0  0  0  0  0  0  0  0  0  0  0  0
   -8.7974    4.1147  -17.3674 C   0  0  0  0  0  0  0  0  0  0  0  0
   -9.9602    3.6542  -17.8441 F   0  0  0  0  0  0  0  0  0  0  0  0
   -7.7439    4.3335  -18.2347 C   0  0  0  0  0  0  0  0  0  0  0  0
   -6.5659    4.8152  -17.6973 C   0  0  0  0  0  0  0  0  0  0  0  0
   -6.4266    5.1227  -16.3374 C   0  0  0  0  0  0  0  0  0  0  0  0
   -5.0063    5.5629  -16.1310 C   0  0  2  0  0  0  0  0  0  0  0  0
   -4.2049    4.6592  -15.1921 C   0  0  0  0  0  0  0  0  0  0  0  0
   -3.0825    5.5419  -14.6424 C   0  0  0  0  0  0  0  0  0  0  0  0
   -3.2551    6.8889  -15.2190 N   0  0  0  0  0  0  0  0  0  0  0  0
   -4.7043    6.9443  -15.5266 C   0  0  0  0  0  0  0  0  0  0  0  0
   -4.3782    5.5236  -17.5224 N   0  0  0  0  0  0  0  0  0  0  0  0
   -5.3426    4.9105  -18.3677 N   0  0  0  0  0  0  0  0  0  0  0  0
  1  2  2  0
  2  3  1  0
  3  4  1  0
  4  5  2  0
  5  6  1  0
  6  7  2  0
  7  8  1  0
  8  9  1  0
  9 10  2  0
 10 11  1  0
 11 12  1  0
 12 13  1  0
 13 14  1  0
  8 15  2  0
  7 16  1  0
 16 17  1  0
 17 18  1  0
  2 19  1  0
 19 20  2  0
 20 21  1  0
 21 22  1  0
 21 23  2  0
 23 24  1  0
 24 25  2  0
 25 26  1  0
 26 27  1  1
 27 28  1  0
 28 29  1  0
 29 30  1  0
 26 31  1  0
 31 32  1  0
 15  4  1  0
 25 19  1  0
 30 26  1  0
 18  6  1  0
 32 24  1  0
 14  9  1  0
M  END
>  <smiles>  (1229) 
C19055-P92

>  <fragmenstein_outcome>  (1229) 
acceptable

>  <inchikey>  (1229) 
GKAUMNZATPDVHS-UHFFFAOYSA-N

>  <fragmenstein_mode>  (1229) 
expansion

>  <HIPPO Pose ID>  (1229) 
20753

>  <Energy>  (1229) 
121.184936

>  <fragmenstein_error>  (1229) 


>  <tags>  (1229) 
{'openbind_xx01zvns2b_c1_fragmenstein', 'fragmenstein_placed'}

>  <ref_pdb>  (1229) 
175

>  <scratch_subdir>  (1229) 
/opt/xchem-fragalysis-2/maxwin/BulkDock/SCRATCH/511028/C19055-P92

>  <alias>  (1229) 
O=C(Nc1cc2c(c(C3=CCOCC3)c1)CNC2)c1cc(F)cc2c1[C@@]1(CCNC1)NN2

>  <HIPPO Compound ID>  (1229) 
19055

>  <fragmenstein_runtime>  (1229) 
6.947497

$$$$
O=C(Nc1cc2c(c(C3=CCOCC3)c1)CNC2)c1cc(F)cc2[nH][n+]([O-])cc12
     RDKit          3D

 29 33  0  0  0  0  0  0  0  0999 V2000
   -7.1211    6.2386  -13.9329 O   0  0  0  0  0  0  0  0  0  0  0  0
   -7.6164    5.1926  -14.0952 C   0  0  0  0  0  0  0  0  0  0  0  0
   -8.2066    4.1915  -13.0710 N   0  0  0  0  0  0  0  0  0  0  0  0
   -8.2236    4.2264  -11.6755 C   0  0  0  0  0  0  0  0  0  0  0  0
   -8.5722    3.0681  -10.9811 C   0  0  0  0  0  0  0  0  0  0  0  0
   -8.6489    3.1210   -9.5974 C   0  0  0  0  0  0  0  0  0  0  0  0
   -8.4047    4.2986   -8.8954 C   0  0  0  0  0  0  0  0  0  0  0  0
   -8.0816    5.4738   -9.5668 C   0  0  0  0  0  0  0  0  0  0  0  0
   -7.9404    6.7695   -8.8853 C   0  0  0  0  0  0  0  0  0  0  0  0
   -8.8109    7.7662   -9.1296 C   0  0  0  0  0  0  0  0  0  0  0  0
   -8.7275    9.1093   -8.4678 C   0  0  0  0  0  0  0  0  0  0  0  0
   -7.4880    9.3084   -7.7802 O   0  0  0  0  0  0  0  0  0  0  0  0
   -7.1330    8.1721   -6.9911 C   0  0  0  0  0  0  0  0  0  0  0  0
   -6.8276    6.9782   -7.8978 C   0  0  0  0  0  0  0  0  0  0  0  0
   -7.9694    5.4138  -10.9711 C   0  0  0  0  0  0  0  0  0  0  0  0
   -8.6340    4.0440   -7.4430 C   0  0  0  0  0  0  0  0  0  0  0  0
   -8.8982    2.5952   -7.2872 N   0  0  0  0  0  0  0  0  0  0  0  0
   -9.0443    2.0364   -8.6548 C   0  0  0  0  0  0  0  0  0  0  0  0
   -7.8292    4.7376  -15.4975 C   0  0  0  0  0  0  0  0  0  0  0  0
   -9.0949    4.2832  -15.8998 C   0  0  0  0  0  0  0  0  0  0  0  0
   -9.3747    4.0433  -17.2404 C   0  0  0  0  0  0  0  0  0  0  0  0
  -10.6134    3.6994  -17.6056 F   0  0  0  0  0  0  0  0  0  0  0  0
   -8.4258    4.2122  -18.2338 C   0  0  0  0  0  0  0  0  0  0  0  0
   -7.1735    4.6511  -17.8239 C   0  0  0  0  0  0  0  0  0  0  0  0
   -6.0523    4.9439  -18.5499 N   0  0  0  0  0  0  0  0  0  0  0  0
   -4.9767    5.3207  -17.6903 N   0  0  0  0  0  0  0  0  0  0  0  0
   -3.8567    5.5545  -18.1933 O   0  0  0  0  0  0  0  0  0  0  0  0
   -5.4234    5.3449  -16.4247 C   0  0  0  0  0  0  0  0  0  0  0  0
   -6.8197    4.9188  -16.4750 C   0  0  0  0  0  0  0  0  0  0  0  0
  1  2  2  0
  2  3  1  0
  3  4  1  0
  4  5  2  0
  5  6  1  0
  6  7  2  0
  7  8  1  0
  8  9  1  0
  9 10  2  0
 10 11  1  0
 11 12  1  0
 12 13  1  0
 13 14  1  0
  8 15  2  0
  7 16  1  0
 16 17  1  0
 17 18  1  0
  2 19  1  0
 19 20  2  0
 20 21  1  0
 21 22  1  0
 21 23  2  0
 23 24  1  0
 24 25  1  0
 25 26  1  0
 26 27  1  0
 26 28  2  0
 28 29  1  0
 15  4  1  0
 29 19  1  0
 18  6  1  0
 29 24  2  0
 14  9  1  0
M  CHG  2  26   1  27  -1
M  END
>  <smiles>  (1230) 
C19045-P180

>  <fragmenstein_outcome>  (1230) 
acceptable

>  <inchikey>  (1230) 
KEWUVLYRVXVQNZ-UHFFFAOYSA-N

>  <fragmenstein_mode>  (1230) 
expansion

>  <HIPPO Pose ID>  (1230) 
20756

>  <Energy>  (1230) 
45.765007

>  <fragmenstein_error>  (1230) 


>  <tags>  (1230) 
{'openbind_xx01zvns2b_c1_fragmenstein', 'fragmenstein_placed'}

>  <ref_pdb>  (1230) 
175

>  <scratch_subdir>  (1230) 
/opt/xchem-fragalysis-2/maxwin/BulkDock/SCRATCH/511028/C19045-P180

>  <alias>  (1230) 
O=C(Nc1cc2c(c(C3=CCOCC3)c1)CNC2)c1cc(F)cc2[nH][n+]([O-])cc12

>  <HIPPO Compound ID>  (1230) 
19045

>  <fragmenstein_runtime>  (1230) 
2.844987

$$$$
O=C(Nc1cc2c(c(C3=CCOCC3)c1)CNC2)c1cc(F)cc2c1CC1(CCNCC1)N2
     RDKit          3D

 33 38  0  0  0  0  0  0  0  0999 V2000
   -7.5772    6.4486  -13.5579 O   0  0  0  0  0  0  0  0  0  0  0  0
   -7.8201    5.3277  -13.7705 C   0  0  0  0  0  0  0  0  0  0  0  0
   -8.2157    4.1924  -12.8090 N   0  0  0  0  0  0  0  0  0  0  0  0
   -8.3011    4.1724  -11.4214 C   0  0  0  0  0  0  0  0  0  0  0  0
   -8.5904    2.9776  -10.7724 C   0  0  0  0  0  0  0  0  0  0  0  0
   -8.7293    3.0067   -9.3957 C   0  0  0  0  0  0  0  0  0  0  0  0
   -8.5671    4.1852   -8.6589 C   0  0  0  0  0  0  0  0  0  0  0  0
   -8.2537    5.3839   -9.2857 C   0  0  0  0  0  0  0  0  0  0  0  0
   -8.0850    6.6706   -8.5918 C   0  0  0  0  0  0  0  0  0  0  0  0
   -8.8290    7.7393   -8.9344 C   0  0  0  0  0  0  0  0  0  0  0  0
   -8.6429    9.0950   -8.3249 C   0  0  0  0  0  0  0  0  0  0  0  0
   -7.4050    9.2049   -7.6150 O   0  0  0  0  0  0  0  0  0  0  0  0
   -7.2032    8.0980   -6.7362 C   0  0  0  0  0  0  0  0  0  0  0  0
   -7.0301    6.8010   -7.5298 C   0  0  0  0  0  0  0  0  0  0  0  0
   -8.1215    5.3537  -10.6844 C   0  0  0  0  0  0  0  0  0  0  0  0
   -8.8194    3.8661   -7.2213 C   0  0  0  0  0  0  0  0  0  0  0  0
   -9.4948    2.5454   -7.2119 N   0  0  0  0  0  0  0  0  0  0  0  0
   -9.0644    1.8843   -8.4710 C   0  0  0  0  0  0  0  0  0  0  0  0
   -7.7490    4.8590  -15.1650 C   0  0  0  0  0  0  0  0  0  0  0  0
   -8.8746    4.3698  -15.8215 C   0  0  0  0  0  0  0  0  0  0  0  0
   -8.8120    4.1344  -17.1963 C   0  0  0  0  0  0  0  0  0  0  0  0
   -9.9060    3.6756  -17.8198 F   0  0  0  0  0  0  0  0  0  0  0  0
   -7.6525    4.3935  -17.9306 C   0  0  0  0  0  0  0  0  0  0  0  0
   -6.5364    4.8554  -17.2548 C   0  0  0  0  0  0  0  0  0  0  0  0
   -6.5790    5.0507  -15.8807 C   0  0  0  0  0  0  0  0  0  0  0  0
   -5.2269    5.4200  -15.3780 C   0  0  0  0  0  0  0  0  0  0  0  0
   -4.4711    5.7214  -16.7062 C   0  0  0  0  0  0  0  0  0  0  0  0
   -3.0519    5.1430  -16.6411 C   0  0  0  0  0  0  0  0  0  0  0  0
   -2.1800    5.5980  -17.8048 C   0  0  0  0  0  0  0  0  0  0  0  0
   -2.1056    7.0576  -17.8436 N   0  0  0  0  0  0  0  0  0  0  0  0
   -3.4362    7.6201  -18.0324 C   0  0  0  0  0  0  0  0  0  0  0  0
   -4.3974    7.2365  -16.9185 C   0  0  0  0  0  0  0  0  0  0  0  0
   -5.2505    5.0641  -17.7966 N   0  0  0  0  0  0  0  0  0  0  0  0
  1  2  2  0
  2  3  1  0
  3  4  1  0
  4  5  2  0
  5  6  1  0
  6  7  2  0
  7  8  1  0
  8  9  1  0
  9 10  2  0
 10 11  1  0
 11 12  1  0
 12 13  1  0
 13 14  1  0
  8 15  2  0
  7 16  1  0
 16 17  1  0
 17 18  1  0
  2 19  1  0
 19 20  2  0
 20 21  1  0
 21 22  1  0
 21 23  2  0
 23 24  1  0
 24 25  2  0
 25 26  1  0
 26 27  1  0
 27 28  1  0
 28 29  1  0
 29 30  1  0
 30 31  1  0
 31 32  1  0
 27 33  1  0
 15  4  1  0
 25 19  1  0
 32 27  1  0
 18  6  1  0
 33 24  1  0
 14  9  1  0
M  END
>  <smiles>  (1231) 
C19064-P180

>  <fragmenstein_outcome>  (1231) 
acceptable

>  <inchikey>  (1231) 
BQTLWPFLHYROHP-UHFFFAOYSA-N

>  <fragmenstein_mode>  (1231) 
expansion

>  <HIPPO Pose ID>  (1231) 
20758

>  <Energy>  (1231) 
56.982056

>  <fragmenstein_error>  (1231) 


>  <tags>  (1231) 
{'openbind_xx01zvns2b_c1_fragmenstein', 'fragmenstein_placed'}

>  <ref_pdb>  (1231) 
175

>  <scratch_subdir>  (1231) 
/opt/xchem-fragalysis-2/maxwin/BulkDock/SCRATCH/511028/C19064-P180

>  <alias>  (1231) 
O=C(Nc1cc2c(c(C3=CCOCC3)c1)CNC2)c1cc(F)cc2c1CC1(CCNCC1)N2

>  <HIPPO Compound ID>  (1231) 
42338

>  <fragmenstein_runtime>  (1231) 
5.684136

$$$$
O=N[C@@H](Nc1cc2c(c(C3=CCOCC3)c1)CNC2)c1cc(F)cc2c1CNC21CCNCC1
     RDKit          3D

 34 39  0  0  0  0  0  0  0  0999 V2000
   -7.0024    7.2975  -13.0729 O   0  0  0  0  0  0  0  0  0  0  0  0
   -7.9338    6.5621  -13.4281 N   0  0  0  0  0  0  0  0  0  0  0  0
   -7.5068    5.1239  -13.5658 C   0  0  1  0  0  0  0  0  0  0  0  0
   -8.4032    4.2220  -12.8423 N   0  0  0  0  0  0  0  0  0  0  0  0
   -8.3449    4.1778  -11.4337 C   0  0  0  0  0  0  0  0  0  0  0  0
   -8.6728    2.9874  -10.7786 C   0  0  0  0  0  0  0  0  0  0  0  0
   -8.7675    2.9748   -9.3932 C   0  0  0  0  0  0  0  0  0  0  0  0
   -8.5709    4.1231   -8.6242 C   0  0  0  0  0  0  0  0  0  0  0  0
   -8.2521    5.3246   -9.2268 C   0  0  0  0  0  0  0  0  0  0  0  0
   -8.0760    6.6062   -8.5216 C   0  0  0  0  0  0  0  0  0  0  0  0
   -8.8010    7.6869   -8.8706 C   0  0  0  0  0  0  0  0  0  0  0  0
   -8.5956    9.0419   -8.2662 C   0  0  0  0  0  0  0  0  0  0  0  0
   -7.3564    9.1316   -7.5560 O   0  0  0  0  0  0  0  0  0  0  0  0
   -7.1822    8.0283   -6.6664 C   0  0  0  0  0  0  0  0  0  0  0  0
   -7.0314    6.7205   -7.4480 C   0  0  0  0  0  0  0  0  0  0  0  0
   -8.1394    5.3187  -10.6310 C   0  0  0  0  0  0  0  0  0  0  0  0
   -8.8242    3.7771   -7.1943 C   0  0  0  0  0  0  0  0  0  0  0  0
   -9.5140    2.4657   -7.2134 N   0  0  0  0  0  0  0  0  0  0  0  0
   -9.1029    1.8329   -8.4926 C   0  0  0  0  0  0  0  0  0  0  0  0
   -7.4716    4.8367  -15.0622 C   0  0  0  0  0  0  0  0  0  0  0  0
   -8.5600    4.2947  -15.7658 C   0  0  0  0  0  0  0  0  0  0  0  0
   -8.5300    4.1921  -17.1615 C   0  0  0  0  0  0  0  0  0  0  0  0
   -9.5974    3.6772  -17.7902 F   0  0  0  0  0  0  0  0  0  0  0  0
   -7.4493    4.6718  -17.9082 C   0  0  0  0  0  0  0  0  0  0  0  0
   -6.3906    5.2656  -17.2349 C   0  0  0  0  0  0  0  0  0  0  0  0
   -6.3926    5.2962  -15.8323 C   0  0  0  0  0  0  0  0  0  0  0  0
   -5.1298    5.9538  -15.3743 C   0  0  0  0  0  0  0  0  0  0  0  0
   -4.7171    6.7654  -16.5214 N   0  0  0  0  0  0  0  0  0  0  0  0
   -5.1877    6.0521  -17.7408 C   0  0  0  0  0  0  0  0  0  0  0  0
   -4.0211    5.1802  -18.2011 C   0  0  0  0  0  0  0  0  0  0  0  0
   -4.0666    4.9916  -19.6980 C   0  0  0  0  0  0  0  0  0  0  0  0
   -3.9311    6.2194  -20.4781 N   0  0  0  0  0  0  0  0  0  0  0  0
   -4.3748    7.4041  -19.7362 C   0  0  0  0  0  0  0  0  0  0  0  0
   -5.5484    7.1052  -18.8063 C   0  0  0  0  0  0  0  0  0  0  0  0
  1  2  2  0
  2  3  1  0
  3  4  1  1
  4  5  1  0
  5  6  2  0
  6  7  1  0
  7  8  2  0
  8  9  1  0
  9 10  1  0
 10 11  2  0
 11 12  1  0
 12 13  1  0
 13 14  1  0
 14 15  1  0
  9 16  2  0
  8 17  1  0
 17 18  1  0
 18 19  1  0
  3 20  1  0
 20 21  2  0
 21 22  1  0
 22 23  1  0
 22 24  2  0
 24 25  1  0
 25 26  2  0
 26 27  1  0
 27 28  1  0
 28 29  1  0
 29 30  1  0
 30 31  1  0
 31 32  1  0
 32 33  1  0
 33 34  1  0
 16  5  1  0
 26 20  1  0
 34 29  1  0
 19  7  1  0
 29 25  1  0
 15 10  1  0
M  END
>  <smiles>  (1232) 
C19065-P180

>  <fragmenstein_outcome>  (1232) 
acceptable

>  <inchikey>  (1232) 
OCOMJEJHQGPPLN-UHFFFAOYSA-N

>  <fragmenstein_mode>  (1232) 
expansion

>  <HIPPO Pose ID>  (1232) 
20759

>  <Energy>  (1232) 
73.262345

>  <fragmenstein_error>  (1232) 


>  <tags>  (1232) 
{'openbind_xx01zvns2b_c1_fragmenstein', 'fragmenstein_placed'}

>  <ref_pdb>  (1232) 
175

>  <scratch_subdir>  (1232) 
/opt/xchem-fragalysis-2/maxwin/BulkDock/SCRATCH/511028/C19065-P180

>  <alias>  (1232) 
O=N[C@@H](Nc1cc2c(c(C3=CCOCC3)c1)CNC2)c1cc(F)cc2c1CNC21CCNCC1

>  <HIPPO Compound ID>  (1232) 
42552

>  <fragmenstein_runtime>  (1232) 
3.582082

$$$$
O=C(Nc1cc2c(c(C3=CCOCC3)c1)CNC2)[C@@H]1C[C@H](F)[C@@H]2NC(=O)N3NC[C@H]1[C@H]23
     RDKit          3D

 31 36  0  0  0  0  0  0  0  0999 V2000
   -6.9902    6.6370  -13.3670 O   0  0  0  0  0  0  0  0  0  0  0  0
   -7.4341    5.6047  -13.6956 C   0  0  0  0  0  0  0  0  0  0  0  0
   -7.9639    4.4230  -12.8451 N   0  0  0  0  0  0  0  0  0  0  0  0
   -8.1396    4.3069  -11.4692 C   0  0  0  0  0  0  0  0  0  0  0  0
   -8.4951    3.0980  -10.8835 C   0  0  0  0  0  0  0  0  0  0  0  0
   -8.6573    3.0701   -9.5025 C   0  0  0  0  0  0  0  0  0  0  0  0
   -8.4917    4.2099   -8.7105 C   0  0  0  0  0  0  0  0  0  0  0  0
   -8.1698    5.4313   -9.2821 C   0  0  0  0  0  0  0  0  0  0  0  0
   -8.0407    6.7024   -8.5539 C   0  0  0  0  0  0  0  0  0  0  0  0
   -8.8122    7.7557   -8.8846 C   0  0  0  0  0  0  0  0  0  0  0  0
   -8.6504    9.1119   -8.2696 C   0  0  0  0  0  0  0  0  0  0  0  0
   -7.4083    9.2420   -7.5706 O   0  0  0  0  0  0  0  0  0  0  0  0
   -7.1809    8.1370   -6.6955 C   0  0  0  0  0  0  0  0  0  0  0  0
   -6.9863    6.8463   -7.4947 C   0  0  0  0  0  0  0  0  0  0  0  0
   -7.9761    5.4507  -10.6714 C   0  0  0  0  0  0  0  0  0  0  0  0
   -8.7327    3.8452   -7.2848 C   0  0  0  0  0  0  0  0  0  0  0  0
   -9.2194    2.4488   -7.2718 N   0  0  0  0  0  0  0  0  0  0  0  0
   -9.0037    1.9053   -8.6368 C   0  0  0  0  0  0  0  0  0  0  0  0
   -7.6387    5.3723  -15.2009 C   0  0  2  0  0  0  0  0  0  0  0  0
   -8.2421    4.1215  -15.8004 C   0  0  0  0  0  0  0  0  0  0  0  0
   -8.5288    4.2421  -17.3022 C   0  0  2  0  0  0  0  0  0  0  0  0
   -8.9191    3.0581  -17.8272 F   0  0  0  0  0  0  0  0  0  0  0  0
   -7.4654    4.9682  -18.1607 C   0  0  2  0  0  0  0  0  0  0  0  0
   -6.6051    4.2839  -19.1019 N   0  0  0  0  0  0  0  0  0  0  0  0
   -5.3192    4.8376  -19.0953 C   0  0  0  0  0  0  0  0  0  0  0  0
   -4.4604    4.6907  -19.9549 O   0  0  0  0  0  0  0  0  0  0  0  0
   -5.1954    5.6353  -17.9436 N   0  0  0  0  0  0  0  0  0  0  0  0
   -4.2963    5.2124  -16.9265 N   0  0  0  0  0  0  0  0  0  0  0  0
   -5.0962    5.0452  -15.7020 C   0  0  0  0  0  0  0  0  0  0  0  0
   -6.3702    5.8401  -15.9302 C   0  0  1  0  0  0  0  0  0  0  0  0
   -6.5119    5.8936  -17.4267 C   0  0  2  0  0  0  0  0  0  0  0  0
  1  2  2  0
  2  3  1  0
  3  4  1  0
  4  5  2  0
  5  6  1  0
  6  7  2  0
  7  8  1  0
  8  9  1  0
  9 10  2  0
 10 11  1  0
 11 12  1  0
 12 13  1  0
 13 14  1  0
  8 15  2  0
  7 16  1  0
 16 17  1  0
 17 18  1  0
 19  2  1  1
 19 20  1  0
 20 21  1  0
 21 22  1  6
 21 23  1  0
 23 24  1  1
 24 25  1  0
 25 26  2  0
 25 27  1  0
 27 28  1  0
 28 29  1  0
 30 29  1  6
 30 31  1  0
 15  4  1  0
 30 19  1  0
 18  6  1  0
 31 23  1  0
 14  9  1  0
 31 27  1  6
M  END
>  <smiles>  (1233) 
C19066-P180

>  <fragmenstein_outcome>  (1233) 
acceptable

>  <inchikey>  (1233) 
SKPPWOQVDOGEDA-UHFFFAOYSA-N

>  <fragmenstein_mode>  (1233) 
expansion

>  <HIPPO Pose ID>  (1233) 
20760

>  <Energy>  (1233) 
89.266901

>  <fragmenstein_error>  (1233) 


>  <tags>  (1233) 
{'openbind_xx01zvns2b_c1_fragmenstein', 'fragmenstein_placed'}

>  <ref_pdb>  (1233) 
175

>  <scratch_subdir>  (1233) 
/opt/xchem-fragalysis-2/maxwin/BulkDock/SCRATCH/511028/C19066-P180

>  <alias>  (1233) 
O=C(Nc1cc2c(c(C3=CCOCC3)c1)CNC2)[C@@H]1C[C@H](F)[C@@H]2NC(=O)N3NC[C@H]1[C@H]23

>  <HIPPO Compound ID>  (1233) 
19066

>  <fragmenstein_runtime>  (1233) 
6.399999

$$$$
N#Cc1c(NC(=O)c2cc(F)cc3[nH]ncc23)cc2c(c1C1=CCOCC1)CNC2
     RDKit          3D

 30 34  0  0  0  0  0  0  0  0999 V2000
   -5.0799    5.5330  -11.5317 N   0  0  0  0  0  0  0  0  0  0  0  0
   -6.1854    5.3566  -11.2231 C   0  0  0  0  0  0  0  0  0  0  0  0
   -7.4864    4.8953  -10.8225 C   0  0  0  0  0  0  0  0  0  0  0  0
   -8.0552    3.8779  -11.6139 C   0  0  0  0  0  0  0  0  0  0  0  0
   -8.0218    3.9037  -13.0205 N   0  0  0  0  0  0  0  0  0  0  0  0
   -7.5929    5.0322  -13.9992 C   0  0  0  0  0  0  0  0  0  0  0  0
   -7.1294    6.0843  -13.7859 O   0  0  0  0  0  0  0  0  0  0  0  0
   -7.7937    4.6662  -15.4227 C   0  0  0  0  0  0  0  0  0  0  0  0
   -9.0330    4.1961  -15.8728 C   0  0  0  0  0  0  0  0  0  0  0  0
   -9.2613    4.0073  -17.2322 C   0  0  0  0  0  0  0  0  0  0  0  0
  -10.4727    3.6265  -17.6497 F   0  0  0  0  0  0  0  0  0  0  0  0
   -8.2871    4.2547  -18.1897 C   0  0  0  0  0  0  0  0  0  0  0  0
   -7.0658    4.7393  -17.7247 C   0  0  0  0  0  0  0  0  0  0  0  0
   -5.9463    5.1364  -18.4021 N   0  0  0  0  0  0  0  0  0  0  0  0
   -4.9436    5.5507  -17.6035 N   0  0  0  0  0  0  0  0  0  0  0  0
   -5.4623    5.4401  -16.3732 C   0  0  0  0  0  0  0  0  0  0  0  0
   -6.7894    4.9467  -16.3760 C   0  0  0  0  0  0  0  0  0  0  0  0
   -8.6757    2.8111  -10.9698 C   0  0  0  0  0  0  0  0  0  0  0  0
   -8.8074    2.8581   -9.5891 C   0  0  0  0  0  0  0  0  0  0  0  0
   -8.4870    4.0013   -8.8595 C   0  0  0  0  0  0  0  0  0  0  0  0
   -7.8656    5.0761   -9.4744 C   0  0  0  0  0  0  0  0  0  0  0  0
   -7.7143    6.3759   -8.7997 C   0  0  0  0  0  0  0  0  0  0  0  0
   -8.5052    7.4000   -9.1744 C   0  0  0  0  0  0  0  0  0  0  0  0
   -8.4743    8.7455   -8.5095 C   0  0  0  0  0  0  0  0  0  0  0  0
   -7.3322    8.9077   -7.6639 O   0  0  0  0  0  0  0  0  0  0  0  0
   -7.1307    7.7726   -6.8202 C   0  0  0  0  0  0  0  0  0  0  0  0
   -6.7590    6.5429   -7.6554 C   0  0  0  0  0  0  0  0  0  0  0  0
   -8.8585    3.7726   -7.4294 C   0  0  0  0  0  0  0  0  0  0  0  0
   -9.6408    2.5142   -7.4057 N   0  0  0  0  0  0  0  0  0  0  0  0
   -9.2598    1.7959   -8.6449 C   0  0  0  0  0  0  0  0  0  0  0  0
  1  2  3  0
  2  3  1  0
  3  4  2  0
  4  5  1  0
  5  6  1  0
  6  7  2  0
  6  8  1  0
  8  9  2  0
  9 10  1  0
 10 11  1  0
 10 12  2  0
 12 13  1  0
 13 14  1  0
 14 15  1  0
 15 16  2  0
 16 17  1  0
  4 18  1  0
 18 19  2  0
 19 20  1  0
 20 21  2  0
 21 22  1  0
 22 23  2  0
 23 24  1  0
 24 25  1  0
 25 26  1  0
 26 27  1  0
 20 28  1  0
 28 29  1  0
 29 30  1  0
 21  3  1  0
 27 22  1  0
 17  8  1  0
 30 19  1  0
 17 13  2  0
M  END
>  <smiles>  (1234) 
C19061-P180

>  <fragmenstein_outcome>  (1234) 
acceptable

>  <inchikey>  (1234) 
DUSBMIPXNKLNSD-UHFFFAOYSA-N

>  <fragmenstein_mode>  (1234) 
expansion

>  <HIPPO Pose ID>  (1234) 
20761

>  <Energy>  (1234) 
108.800688

>  <fragmenstein_error>  (1234) 


>  <tags>  (1234) 
{'openbind_xx01zvns2b_c1_fragmenstein', 'fragmenstein_placed'}

>  <ref_pdb>  (1234) 
175

>  <scratch_subdir>  (1234) 
/opt/xchem-fragalysis-2/maxwin/BulkDock/SCRATCH/511028/C19061-P180

>  <alias>  (1234) 
N#Cc1c(NC(=O)c2cc(F)cc3[nH]ncc23)cc2c(c1C1=CCOCC1)CNC2

>  <HIPPO Compound ID>  (1234) 
19061

>  <fragmenstein_runtime>  (1234) 
4.443452

$$$$
[O-][N@H+]1NC[C@@H]2[C@H]3[C@@H](C=N[C@H]3Nc3cc4c(c(C5=CCOCC5)c3)CNC4)[C@@H](F)C[C@@H]21
     RDKit          3D

 30 35  0  0  0  0  0  0  0  0999 V2000
   -4.5785    5.6176  -18.9457 O   0  0  0  0  0  0  0  0  0  0  0  0
   -5.1873    4.9092  -17.9839 N   0  0  1  0  0  0  0  0  0  0  0  0
   -4.2932    4.9833  -16.8097 N   0  0  0  0  0  0  0  0  0  0  0  0
   -5.1649    4.9610  -15.6331 C   0  0  0  0  0  0  0  0  0  0  0  0
   -6.4227    5.6541  -16.0727 C   0  0  2  0  0  0  0  0  0  0  0  0
   -7.7394    5.3303  -15.4226 C   0  0  2  0  0  0  0  0  0  0  0  0
   -8.0813    5.3345  -13.9339 C   0  0  2  0  0  0  0  0  0  0  0  0
   -7.2694    4.4361  -13.1380 N   0  0  0  0  0  0  0  0  0  0  0  0
   -7.6711    4.4203  -11.7696 C   0  0  0  0  0  0  0  0  0  0  0  0
   -8.0542    3.2134  -11.1688 C   0  0  0  0  0  0  0  0  0  0  0  0
   -8.4117    3.2106   -9.8291 C   0  0  0  0  0  0  0  0  0  0  0  0
   -8.3720    4.3703   -9.0582 C   0  0  0  0  0  0  0  0  0  0  0  0
   -8.0056    5.5845   -9.6215 C   0  0  0  0  0  0  0  0  0  0  0  0
   -7.9659    6.8390   -8.8623 C   0  0  0  0  0  0  0  0  0  0  0  0
   -8.8077    7.8454   -9.1568 C   0  0  0  0  0  0  0  0  0  0  0  0
   -8.7683    9.1657   -8.4488 C   0  0  0  0  0  0  0  0  0  0  0  0
   -7.5531    9.3457   -7.7136 O   0  0  0  0  0  0  0  0  0  0  0  0
   -7.2621    8.2113   -6.8955 C   0  0  0  0  0  0  0  0  0  0  0  0
   -6.9495    6.9927   -7.7654 C   0  0  0  0  0  0  0  0  0  0  0  0
   -7.6566    5.5928  -10.9869 C   0  0  0  0  0  0  0  0  0  0  0  0
   -8.7380    4.0067   -7.6555 C   0  0  0  0  0  0  0  0  0  0  0  0
   -9.3713    2.6678   -7.7329 N   0  0  0  0  0  0  0  0  0  0  0  0
   -8.8470    2.0605   -8.9809 C   0  0  0  0  0  0  0  0  0  0  0  0
   -9.5020    4.9124  -13.9808 N   0  0  0  0  0  0  0  0  0  0  0  0
   -9.6009    4.2238  -15.0759 C   0  0  0  0  0  0  0  0  0  0  0  0
   -8.4044    4.0892  -15.9203 C   0  0  1  0  0  0  0  0  0  0  0  0
   -8.7143    4.0345  -17.3915 C   0  0  1  0  0  0  0  0  0  0  0  0
   -9.9218    4.6176  -17.6419 F   0  0  0  0  0  0  0  0  0  0  0  0
   -7.6618    4.7031  -18.2588 C   0  0  0  0  0  0  0  0  0  0  0  0
   -6.5124    5.4818  -17.5954 C   0  0  2  0  0  0  0  0  0  0  0  0
  2  1  1  6
  2  3  1  0
  3  4  1  0
  5  4  1  1
  5  6  1  0
  6  7  1  1
  7  8  1  1
  8  9  1  0
  9 10  2  0
 10 11  1  0
 11 12  2  0
 12 13  1  0
 13 14  1  0
 14 15  2  0
 15 16  1  0
 16 17  1  0
 17 18  1  0
 18 19  1  0
 13 20  2  0
 12 21  1  0
 21 22  1  0
 22 23  1  0
  7 24  1  0
 24 25  2  0
 26 25  1  1
 26 27  1  0
 27 28  1  1
 27 29  1  0
 30 29  1  1
 30  2  1  0
 30  5  1  0
 26  6  1  0
 20  9  1  0
 23 11  1  0
 19 14  1  0
M  CHG  2   1  -1   2   1
M  END
>  <smiles>  (1235) 
C19079-P180

>  <fragmenstein_outcome>  (1235) 
acceptable

>  <inchikey>  (1235) 
SEMMAHCPRKTGJZ-UHFFFAOYSA-N

>  <fragmenstein_mode>  (1235) 
expansion

>  <HIPPO Pose ID>  (1235) 
20765

>  <Energy>  (1235) 
21.647949

>  <fragmenstein_error>  (1235) 


>  <tags>  (1235) 
{'openbind_xx01zvns2b_c1_fragmenstein', 'fragmenstein_placed'}

>  <ref_pdb>  (1235) 
175

>  <scratch_subdir>  (1235) 
/opt/xchem-fragalysis-2/maxwin/BulkDock/SCRATCH/511028/C19079-P180

>  <alias>  (1235) 
[O-][N@H+]1NC[C@@H]2[C@H]3[C@@H](C=N[C@H]3Nc3cc4c(c(C5=CCOCC5)c3)CNC4)[C@@H](F)C[C@@H]21

>  <HIPPO Compound ID>  (1235) 
39033

>  <fragmenstein_runtime>  (1235) 
2.85367

$$$$
O=C1NCc2cc(NC(=O)c3cc(F)cc4[nH][n+]([O-])cc34)cc(C3=CCOCC3)c21
     RDKit          3D

 30 34  0  0  0  0  0  0  0  0999 V2000
   -8.7996    4.6851   -6.4212 O   0  0  0  0  0  0  0  0  0  0  0  0
   -8.8095    3.9095   -7.3590 C   0  0  0  0  0  0  0  0  0  0  0  0
   -9.1117    2.5670   -7.2870 N   0  0  0  0  0  0  0  0  0  0  0  0
   -8.9664    1.8912   -8.5526 C   0  0  0  0  0  0  0  0  0  0  0  0
   -8.6544    3.0127   -9.4866 C   0  0  0  0  0  0  0  0  0  0  0  0
   -8.4905    2.9718  -10.8649 C   0  0  0  0  0  0  0  0  0  0  0  0
   -8.1692    4.1566  -11.5293 C   0  0  0  0  0  0  0  0  0  0  0  0
   -7.9942    4.1414  -12.9132 N   0  0  0  0  0  0  0  0  0  0  0  0
   -7.6569    5.2862  -13.8949 C   0  0  0  0  0  0  0  0  0  0  0  0
   -7.3969    6.4063  -13.6911 O   0  0  0  0  0  0  0  0  0  0  0  0
   -7.6648    4.8343  -15.3027 C   0  0  0  0  0  0  0  0  0  0  0  0
   -8.8416    4.3444  -15.8848 C   0  0  0  0  0  0  0  0  0  0  0  0
   -8.8893    4.0987  -17.2530 C   0  0  0  0  0  0  0  0  0  0  0  0
  -10.0325    3.6588  -17.7974 F   0  0  0  0  0  0  0  0  0  0  0  0
   -7.7956    4.3296  -18.0860 C   0  0  0  0  0  0  0  0  0  0  0  0
   -6.6212    4.7784  -17.4820 C   0  0  0  0  0  0  0  0  0  0  0  0
   -5.3762    5.0567  -17.9892 N   0  0  0  0  0  0  0  0  0  0  0  0
   -4.4652    5.4269  -16.9391 N   0  0  0  0  0  0  0  0  0  0  0  0
   -3.2595    5.6344  -17.2070 O   0  0  0  0  0  0  0  0  0  0  0  0
   -5.1413    5.4514  -15.7811 C   0  0  0  0  0  0  0  0  0  0  0  0
   -6.5055    5.0317  -16.0912 C   0  0  0  0  0  0  0  0  0  0  0  0
   -8.0106    5.3502  -10.8045 C   0  0  0  0  0  0  0  0  0  0  0  0
   -8.1900    5.4047   -9.4092 C   0  0  0  0  0  0  0  0  0  0  0  0
   -8.0273    6.7004   -8.7355 C   0  0  0  0  0  0  0  0  0  0  0  0
   -8.8308    7.7402   -9.0265 C   0  0  0  0  0  0  0  0  0  0  0  0
   -8.6911    9.0846   -8.3769 C   0  0  0  0  0  0  0  0  0  0  0  0
   -7.4571    9.2277   -7.6656 O   0  0  0  0  0  0  0  0  0  0  0  0
   -7.1919    8.0875   -6.8428 C   0  0  0  0  0  0  0  0  0  0  0  0
   -6.9313    6.8623   -7.7186 C   0  0  0  0  0  0  0  0  0  0  0  0
   -8.5164    4.2118   -8.7762 C   0  0  0  0  0  0  0  0  0  0  0  0
  1  2  2  0
  2  3  1  0
  3  4  1  0
  4  5  1  0
  5  6  2  0
  6  7  1  0
  7  8  1  0
  8  9  1  0
  9 10  2  0
  9 11  1  0
 11 12  2  0
 12 13  1  0
 13 14  1  0
 13 15  2  0
 15 16  1  0
 16 17  1  0
 17 18  1  0
 18 19  1  0
 18 20  2  0
 20 21  1  0
  7 22  2  0
 22 23  1  0
 23 24  1  0
 24 25  2  0
 25 26  1  0
 26 27  1  0
 27 28  1  0
 28 29  1  0
 23 30  2  0
 30  2  1  0
 30  5  1  0
 21 11  1  0
 29 24  1  0
 21 16  2  0
M  CHG  2  18   1  19  -1
M  END
>  <smiles>  (1236) 
C19093-P180

>  <fragmenstein_outcome>  (1236) 
acceptable

>  <inchikey>  (1236) 
YBDVERFAAGTODC-UHFFFAOYSA-N

>  <fragmenstein_mode>  (1236) 
expansion

>  <HIPPO Pose ID>  (1236) 
20767

>  <Energy>  (1236) 
34.284537

>  <fragmenstein_error>  (1236) 


>  <tags>  (1236) 
{'openbind_xx01zvns2b_c1_fragmenstein', 'fragmenstein_placed'}

>  <ref_pdb>  (1236) 
175

>  <scratch_subdir>  (1236) 
/opt/xchem-fragalysis-2/maxwin/BulkDock/SCRATCH/511028/C19093-P180

>  <alias>  (1236) 
O=C1NCc2cc(NC(=O)c3cc(F)cc4[nH][n+]([O-])cc34)cc(C3=CCOCC3)c21

>  <HIPPO Compound ID>  (1236) 
26530

>  <fragmenstein_runtime>  (1236) 
3.454232

$$$$
CNCn1cc2c(C(=O)Nc3cc4c(c(C5=CCOCC5)c3)CNC4)cc(F)cc2n1
     RDKit          3D

 31 35  0  0  0  0  0  0  0  0999 V2000
   -3.3451    4.4844  -13.9157 C   0  0  0  0  0  0  0  0  0  0  0  0
   -3.1649    5.8196  -14.4723 N   0  0  0  0  0  0  0  0  0  0  0  0
   -3.5007    5.9008  -15.9074 C   0  0  0  0  0  0  0  0  0  0  0  0
   -4.9268    5.6518  -16.1480 N   0  0  0  0  0  0  0  0  0  0  0  0
   -5.9214    5.7762  -15.2254 C   0  0  0  0  0  0  0  0  0  0  0  0
   -6.9969    5.1640  -15.7909 C   0  0  0  0  0  0  0  0  0  0  0  0
   -8.2016    4.9033  -15.1528 C   0  0  0  0  0  0  0  0  0  0  0  0
   -8.4652    5.3406  -13.7805 C   0  0  0  0  0  0  0  0  0  0  0  0
   -8.6032    6.4807  -13.5868 O   0  0  0  0  0  0  0  0  0  0  0  0
   -8.4109    4.1621  -12.7958 N   0  0  0  0  0  0  0  0  0  0  0  0
   -8.4196    4.1455  -11.4064 C   0  0  0  0  0  0  0  0  0  0  0  0
   -8.6219    2.9506  -10.7309 C   0  0  0  0  0  0  0  0  0  0  0  0
   -8.7035    2.9965   -9.3485 C   0  0  0  0  0  0  0  0  0  0  0  0
   -8.5265    4.1837   -8.6321 C   0  0  0  0  0  0  0  0  0  0  0  0
   -8.2810    5.3849   -9.2871 C   0  0  0  0  0  0  0  0  0  0  0  0
   -8.0975    6.6856   -8.6183 C   0  0  0  0  0  0  0  0  0  0  0  0
   -8.8592    7.7446   -8.9539 C   0  0  0  0  0  0  0  0  0  0  0  0
   -8.6731    9.1110   -8.3684 C   0  0  0  0  0  0  0  0  0  0  0  0
   -7.4214    9.2430   -7.6863 O   0  0  0  0  0  0  0  0  0  0  0  0
   -7.1905    8.1480   -6.8010 C   0  0  0  0  0  0  0  0  0  0  0  0
   -7.0146    6.8475   -7.5886 C   0  0  0  0  0  0  0  0  0  0  0  0
   -8.2384    5.3413  -10.6916 C   0  0  0  0  0  0  0  0  0  0  0  0
   -8.6864    3.8821   -7.1791 C   0  0  0  0  0  0  0  0  0  0  0  0
   -9.2014    2.4982   -7.0814 N   0  0  0  0  0  0  0  0  0  0  0  0
   -8.9963    1.8748   -8.4120 C   0  0  0  0  0  0  0  0  0  0  0  0
   -9.1248    4.2903  -16.0023 C   0  0  0  0  0  0  0  0  0  0  0  0
   -8.8492    4.0443  -17.3768 C   0  0  0  0  0  0  0  0  0  0  0  0
   -9.8387    3.4965  -18.0965 F   0  0  0  0  0  0  0  0  0  0  0  0
   -7.6257    4.3395  -18.0221 C   0  0  0  0  0  0  0  0  0  0  0  0
   -6.6581    4.8852  -17.1601 C   0  0  0  0  0  0  0  0  0  0  0  0
   -5.3674    5.2274  -17.3636 N   0  0  0  0  0  0  0  0  0  0  0  0
  1  2  1  0
  2  3  1  0
  3  4  1  0
  4  5  1  0
  5  6  2  0
  6  7  1  0
  7  8  1  0
  8  9  2  0
  8 10  1  0
 10 11  1  0
 11 12  2  0
 12 13  1  0
 13 14  2  0
 14 15  1  0
 15 16  1  0
 16 17  2  0
 17 18  1  0
 18 19  1  0
 19 20  1  0
 20 21  1  0
 15 22  2  0
 14 23  1  0
 23 24  1  0
 24 25  1  0
  7 26  2  0
 26 27  1  0
 27 28  1  0
 27 29  2  0
 29 30  1  0
 30 31  2  0
 31  4  1  0
 30  6  1  0
 22 11  1  0
 25 13  1  0
 21 16  1  0
M  END
>  <smiles>  (1237) 
C19100-P180

>  <fragmenstein_outcome>  (1237) 
acceptable

>  <inchikey>  (1237) 
VERRNBAEGUGNQH-UHFFFAOYSA-N

>  <fragmenstein_mode>  (1237) 
expansion

>  <HIPPO Pose ID>  (1237) 
20768

>  <Energy>  (1237) 
92.882723

>  <fragmenstein_error>  (1237) 


>  <tags>  (1237) 
{'openbind_xx01zvns2b_c1_fragmenstein', 'fragmenstein_placed'}

>  <ref_pdb>  (1237) 
175

>  <scratch_subdir>  (1237) 
/opt/xchem-fragalysis-2/maxwin/BulkDock/SCRATCH/511028/C19100-P180

>  <alias>  (1237) 
CNCn1cc2c(C(=O)Nc3cc4c(c(C5=CCOCC5)c3)CNC4)cc(F)cc2n1

>  <HIPPO Compound ID>  (1237) 
19100

>  <fragmenstein_runtime>  (1237) 
6.079731

$$$$
O=C(NCCCF)[C@@](O)(Nc1cc2c(c(C3=CCOCC3)c1)CNC2)c1cc(F)cc2[nH]ncc12
     RDKit          3D

 35 39  0  0  0  0  0  0  0  0999 V2000
   -5.7176    5.8431  -12.6953 O   0  0  0  0  0  0  0  0  0  0  0  0
   -6.0653    4.7606  -12.9841 C   0  0  0  0  0  0  0  0  0  0  0  0
   -5.3663    3.3757  -12.7571 N   0  0  0  0  0  0  0  0  0  0  0  0
   -4.1637    3.0468  -12.0548 C   0  0  0  0  0  0  0  0  0  0  0  0
   -2.9442    2.8935  -12.9432 C   0  0  0  0  0  0  0  0  0  0  0  0
   -2.7167    4.1016  -13.8334 C   0  0  0  0  0  0  0  0  0  0  0  0
   -3.4322    3.9747  -14.9740 F   0  0  0  0  0  0  0  0  0  0  0  0
   -7.4994    4.4316  -13.6321 C   0  0  1  0  0  0  0  0  0  0  0  0
   -7.8263    3.0678  -13.4412 O   0  0  0  0  0  0  0  0  0  0  0  0
   -8.6102    5.0764  -12.9165 N   0  0  0  0  0  0  0  0  0  0  0  0
   -8.5456    4.9337  -11.4978 C   0  0  0  0  0  0  0  0  0  0  0  0
   -8.8405    3.7246  -10.8412 C   0  0  0  0  0  0  0  0  0  0  0  0
   -8.7244    3.6485   -9.4653 C   0  0  0  0  0  0  0  0  0  0  0  0
   -8.3668    4.7599   -8.7135 C   0  0  0  0  0  0  0  0  0  0  0  0
   -8.1213    5.9814   -9.3307 C   0  0  0  0  0  0  0  0  0  0  0  0
   -7.9460    7.2347   -8.5971 C   0  0  0  0  0  0  0  0  0  0  0  0
   -8.8384    8.2286   -8.7639 C   0  0  0  0  0  0  0  0  0  0  0  0
   -8.6979    9.5635   -8.1014 C   0  0  0  0  0  0  0  0  0  0  0  0
   -7.4152    9.7414   -7.4902 O   0  0  0  0  0  0  0  0  0  0  0  0
   -7.0234    8.5923   -6.7375 C   0  0  0  0  0  0  0  0  0  0  0  0
   -6.7769    7.4120   -7.6766 C   0  0  0  0  0  0  0  0  0  0  0  0
   -8.1635    6.0391  -10.7349 C   0  0  0  0  0  0  0  0  0  0  0  0
   -8.4580    4.4004   -7.2686 C   0  0  0  0  0  0  0  0  0  0  0  0
   -8.7009    2.9418   -7.2037 N   0  0  0  0  0  0  0  0  0  0  0  0
   -9.0758    2.5090   -8.5698 C   0  0  0  0  0  0  0  0  0  0  0  0
   -7.5920    4.6693  -15.1522 C   0  0  0  0  0  0  0  0  0  0  0  0
   -8.7477    4.1751  -15.8327 C   0  0  0  0  0  0  0  0  0  0  0  0
   -8.8560    4.1179  -17.2164 C   0  0  0  0  0  0  0  0  0  0  0  0
   -9.9571    3.5996  -17.7777 F   0  0  0  0  0  0  0  0  0  0  0  0
   -7.8372    4.5718  -18.0280 C   0  0  0  0  0  0  0  0  0  0  0  0
   -6.7532    5.1718  -17.3911 C   0  0  0  0  0  0  0  0  0  0  0  0
   -5.6475    5.7697  -17.9321 N   0  0  0  0  0  0  0  0  0  0  0  0
   -4.8306    6.3209  -17.0232 N   0  0  0  0  0  0  0  0  0  0  0  0
   -5.3844    5.9612  -15.8594 C   0  0  0  0  0  0  0  0  0  0  0  0
   -6.6075    5.2517  -16.0023 C   0  0  0  0  0  0  0  0  0  0  0  0
  1  2  2  0
  2  3  1  0
  3  4  1  0
  4  5  1  0
  5  6  1  0
  6  7  1  0
  2  8  1  0
  8  9  1  6
  8 10  1  0
 10 11  1  0
 11 12  2  0
 12 13  1  0
 13 14  2  0
 14 15  1  0
 15 16  1  0
 16 17  2  0
 17 18  1  0
 18 19  1  0
 19 20  1  0
 20 21  1  0
 15 22  2  0
 14 23  1  0
 23 24  1  0
 24 25  1  0
  8 26  1  0
 26 27  2  0
 27 28  1  0
 28 29  1  0
 28 30  2  0
 30 31  1  0
 31 32  1  0
 32 33  1  0
 33 34  2  0
 34 35  1  0
 22 11  1  0
 35 26  1  0
 25 13  1  0
 35 31  2  0
 21 16  1  0
M  END
>  <smiles>  (1238) 
C19102-P180

>  <fragmenstein_outcome>  (1238) 
acceptable

>  <inchikey>  (1238) 
QDMGEZQPKIRNAN-UHFFFAOYSA-N

>  <fragmenstein_mode>  (1238) 
expansion

>  <HIPPO Pose ID>  (1238) 
20769

>  <Energy>  (1238) 
123.25161

>  <fragmenstein_error>  (1238) 


>  <tags>  (1238) 
{'openbind_xx01zvns2b_c1_fragmenstein', 'fragmenstein_placed'}

>  <ref_pdb>  (1238) 
175

>  <scratch_subdir>  (1238) 
/opt/xchem-fragalysis-2/maxwin/BulkDock/SCRATCH/511028/C19102-P180

>  <alias>  (1238) 
O=C(NCCCF)[C@@](O)(Nc1cc2c(c(C3=CCOCC3)c1)CNC2)c1cc(F)cc2[nH]ncc12

>  <HIPPO Compound ID>  (1238) 
19102

>  <fragmenstein_runtime>  (1238) 
5.076714

$$$$
CN1CCC2(CC1)Cc1c(cc(F)cc1C(=O)Nc1cc3c(c(C4=CCOCC4)c1)CNC3)N2
     RDKit          3D

 34 39  0  0  0  0  0  0  0  0999 V2000
   -0.6899    7.5516  -16.5058 C   0  0  0  0  0  0  0  0  0  0  0  0
   -2.0307    7.0166  -16.7236 N   0  0  0  0  0  0  0  0  0  0  0  0
   -2.9864    8.0886  -17.0307 C   0  0  0  0  0  0  0  0  0  0  0  0
   -4.1924    7.6079  -17.8437 C   0  0  0  0  0  0  0  0  0  0  0  0
   -4.5862    6.1646  -17.4897 C   0  0  0  0  0  0  0  0  0  0  0  0
   -3.3774    5.2187  -17.6924 C   0  0  0  0  0  0  0  0  0  0  0  0
   -2.0410    5.9699  -17.7410 C   0  0  0  0  0  0  0  0  0  0  0  0
   -5.1616    6.0911  -16.0310 C   0  0  0  0  0  0  0  0  0  0  0  0
   -6.4431    5.3432  -16.2291 C   0  0  0  0  0  0  0  0  0  0  0  0
   -6.6352    5.1171  -17.5895 C   0  0  0  0  0  0  0  0  0  0  0  0
   -7.7655    4.4703  -18.0506 C   0  0  0  0  0  0  0  0  0  0  0  0
   -8.7137    4.0587  -17.1230 C   0  0  0  0  0  0  0  0  0  0  0  0
   -9.8219    3.4437  -17.5529 F   0  0  0  0  0  0  0  0  0  0  0  0
   -8.5561    4.3063  -15.7583 C   0  0  0  0  0  0  0  0  0  0  0  0
   -7.4016    4.9525  -15.2968 C   0  0  0  0  0  0  0  0  0  0  0  0
   -7.2980    5.3676  -13.8695 C   0  0  0  0  0  0  0  0  0  0  0  0
   -6.9558    6.4993  -13.6741 O   0  0  0  0  0  0  0  0  0  0  0  0
   -7.6912    4.3339  -12.9530 N   0  0  0  0  0  0  0  0  0  0  0  0
   -7.8817    4.3595  -11.5712 C   0  0  0  0  0  0  0  0  0  0  0  0
   -8.2871    3.1877  -10.9307 C   0  0  0  0  0  0  0  0  0  0  0  0
   -8.4982    3.2234   -9.5603 C   0  0  0  0  0  0  0  0  0  0  0  0
   -8.3060    4.3876   -8.8192 C   0  0  0  0  0  0  0  0  0  0  0  0
   -7.9232    5.5701   -9.4387 C   0  0  0  0  0  0  0  0  0  0  0  0
   -7.7782    6.8442   -8.7250 C   0  0  0  0  0  0  0  0  0  0  0  0
   -8.6409    7.8530   -8.9426 C   0  0  0  0  0  0  0  0  0  0  0  0
   -8.5014    9.1965   -8.2893 C   0  0  0  0  0  0  0  0  0  0  0  0
   -7.2287    9.3708   -7.6540 O   0  0  0  0  0  0  0  0  0  0  0  0
   -6.8738    8.2332   -6.8665 C   0  0  0  0  0  0  0  0  0  0  0  0
   -6.6322    7.0224   -7.7698 C   0  0  0  0  0  0  0  0  0  0  0  0
   -7.7075    5.5379  -10.8283 C   0  0  0  0  0  0  0  0  0  0  0  0
   -8.6344    4.1085   -7.3917 C   0  0  0  0  0  0  0  0  0  0  0  0
   -8.8816    2.6511   -7.2812 N   0  0  0  0  0  0  0  0  0  0  0  0
   -8.9913    2.1333   -8.6708 C   0  0  0  0  0  0  0  0  0  0  0  0
   -5.6899    5.7709  -18.3959 N   0  0  0  0  0  0  0  0  0  0  0  0
  1  2  1  0
  2  3  1  0
  3  4  1  0
  4  5  1  0
  5  6  1  0
  6  7  1  0
  5  8  1  0
  8  9  1  0
  9 10  2  0
 10 11  1  0
 11 12  2  0
 12 13  1  0
 12 14  1  0
 14 15  2  0
 15 16  1  0
 16 17  2  0
 16 18  1  0
 18 19  1  0
 19 20  2  0
 20 21  1  0
 21 22  2  0
 22 23  1  0
 23 24  1  0
 24 25  2  0
 25 26  1  0
 26 27  1  0
 27 28  1  0
 28 29  1  0
 23 30  2  0
 22 31  1  0
 31 32  1  0
 32 33  1  0
 10 34  1  0
  7  2  1  0
 15  9  1  0
 30 19  1  0
 34  5  1  0
 33 21  1  0
 29 24  1  0
M  END
>  <smiles>  (1239) 
C19103-P180

>  <fragmenstein_outcome>  (1239) 
acceptable

>  <inchikey>  (1239) 
NZOZERBGAITINV-UHFFFAOYSA-N

>  <fragmenstein_mode>  (1239) 
expansion

>  <HIPPO Pose ID>  (1239) 
20770

>  <Energy>  (1239) 
60.521991

>  <fragmenstein_error>  (1239) 


>  <tags>  (1239) 
{'openbind_xx01zvns2b_c1_fragmenstein', 'fragmenstein_placed'}

>  <ref_pdb>  (1239) 
175

>  <scratch_subdir>  (1239) 
/opt/xchem-fragalysis-2/maxwin/BulkDock/SCRATCH/511028/C19103-P180

>  <alias>  (1239) 
CN1CCC2(CC1)Cc1c(cc(F)cc1C(=O)Nc1cc3c(c(C4=CCOCC4)c1)CNC3)N2

>  <HIPPO Compound ID>  (1239) 
24926

>  <fragmenstein_runtime>  (1239) 
9.914104

$$$$
CC(C)NC(=O)[C@@](O)(Nc1cc2c(c(C3=CCOCC3)c1)CNC2)c1cc(F)cc2c1CC(F)(F)N2
     RDKit          3D

 36 40  0  0  0  0  0  0  0  0999 V2000
   -5.3559    9.3969  -13.8949 C   0  0  0  0  0  0  0  0  0  0  0  0
   -6.4898    8.8237  -13.0550 C   0  0  0  0  0  0  0  0  0  0  0  0
   -6.2472    9.0588  -11.5707 C   0  0  0  0  0  0  0  0  0  0  0  0
   -6.6496    7.4136  -13.3234 N   0  0  0  0  0  0  0  0  0  0  0  0
   -7.9424    6.5380  -13.4155 C   0  0  0  0  0  0  0  0  0  0  0  0
   -9.0727    6.8453  -13.3638 O   0  0  0  0  0  0  0  0  0  0  0  0
   -7.4231    5.0332  -13.6525 C   0  0  1  0  0  0  0  0  0  0  0  0
   -6.0606    4.8491  -13.3061 O   0  0  0  0  0  0  0  0  0  0  0  0
   -8.1667    4.0959  -12.8181 N   0  0  0  0  0  0  0  0  0  0  0  0
   -8.2346    4.1322  -11.4254 C   0  0  0  0  0  0  0  0  0  0  0  0
   -8.6284    2.9821  -10.7391 C   0  0  0  0  0  0  0  0  0  0  0  0
   -8.7350    3.0094   -9.3535 C   0  0  0  0  0  0  0  0  0  0  0  0
   -8.5005    4.1644   -8.6138 C   0  0  0  0  0  0  0  0  0  0  0  0
   -8.1602    5.3406   -9.2532 C   0  0  0  0  0  0  0  0  0  0  0  0
   -8.0130    6.6433   -8.5850 C   0  0  0  0  0  0  0  0  0  0  0  0
   -8.8230    7.6682   -8.9131 C   0  0  0  0  0  0  0  0  0  0  0  0
   -8.6778    9.0446   -8.3390 C   0  0  0  0  0  0  0  0  0  0  0  0
   -7.4159    9.2226   -7.6857 O   0  0  0  0  0  0  0  0  0  0  0  0
   -7.1356    8.1439   -6.7921 C   0  0  0  0  0  0  0  0  0  0  0  0
   -6.9205    6.8464   -7.5755 C   0  0  0  0  0  0  0  0  0  0  0  0
   -8.0062    5.2889  -10.6534 C   0  0  0  0  0  0  0  0  0  0  0  0
   -8.7706    3.8790   -7.1769 C   0  0  0  0  0  0  0  0  0  0  0  0
   -9.0063    2.4218   -7.0636 N   0  0  0  0  0  0  0  0  0  0  0  0
   -9.1576    1.9065   -8.4474 C   0  0  0  0  0  0  0  0  0  0  0  0
   -7.5799    4.7386  -15.1509 C   0  0  0  0  0  0  0  0  0  0  0  0
   -8.8077    4.2839  -15.6727 C   0  0  0  0  0  0  0  0  0  0  0  0
   -9.0008    4.1073  -17.0498 C   0  0  0  0  0  0  0  0  0  0  0  0
  -10.1898    3.6936  -17.5033 F   0  0  0  0  0  0  0  0  0  0  0  0
   -8.0058    4.4106  -17.9660 C   0  0  0  0  0  0  0  0  0  0  0  0
   -6.8031    4.8772  -17.4785 C   0  0  0  0  0  0  0  0  0  0  0  0
   -6.5842    5.0222  -16.1009 C   0  0  0  0  0  0  0  0  0  0  0  0
   -5.1884    5.5381  -15.9141 C   0  0  0  0  0  0  0  0  0  0  0  0
   -4.6572    5.5526  -17.3502 C   0  0  0  0  0  0  0  0  0  0  0  0
   -4.0316    6.7250  -17.6137 F   0  0  0  0  0  0  0  0  0  0  0  0
   -3.7448    4.5749  -17.5580 F   0  0  0  0  0  0  0  0  0  0  0  0
   -5.7542    5.3833  -18.2761 N   0  0  0  0  0  0  0  0  0  0  0  0
  1  2  1  0
  2  3  1  0
  2  4  1  0
  4  5  1  0
  5  6  2  0
  5  7  1  0
  7  8  1  1
  7  9  1  0
  9 10  1  0
 10 11  2  0
 11 12  1  0
 12 13  2  0
 13 14  1  0
 14 15  1  0
 15 16  2  0
 16 17  1  0
 17 18  1  0
 18 19  1  0
 19 20  1  0
 14 21  2  0
 13 22  1  0
 22 23  1  0
 23 24  1  0
  7 25  1  0
 25 26  2  0
 26 27  1  0
 27 28  1  0
 27 29  2  0
 29 30  1  0
 30 31  2  0
 31 32  1  0
 32 33  1  0
 33 34  1  0
 33 35  1  0
 33 36  1  0
 21 10  1  0
 31 25  1  0
 24 12  1  0
 36 30  1  0
 20 15  1  0
M  END
>  <smiles>  (1240) 
C19112-P180

>  <fragmenstein_outcome>  (1240) 
acceptable

>  <inchikey>  (1240) 
YQJAZHHOMFCPRZ-UHFFFAOYSA-N

>  <fragmenstein_mode>  (1240) 
expansion

>  <HIPPO Pose ID>  (1240) 
20773

>  <Energy>  (1240) 
92.503548

>  <fragmenstein_error>  (1240) 


>  <tags>  (1240) 
{'openbind_xx01zvns2b_c1_fragmenstein', 'fragmenstein_placed'}

>  <ref_pdb>  (1240) 
175

>  <scratch_subdir>  (1240) 
/opt/xchem-fragalysis-2/maxwin/BulkDock/SCRATCH/511028/C19112-P180

>  <alias>  (1240) 
CC(C)NC(=O)[C@@](O)(Nc1cc2c(c(C3=CCOCC3)c1)CNC2)c1cc(F)cc2c1CC(F)(F)N2

>  <HIPPO Compound ID>  (1240) 
30473

>  <fragmenstein_runtime>  (1240) 
6.451833

$$$$
CNCn1ncc2c(C(=O)Nc3cc4c(c(C5=CCOCC5)c3)[C@@H](C)N(C)C4)cc(F)cc21
     RDKit          3D

 33 37  0  0  0  0  0  0  0  0999 V2000
   -4.8150    7.3167  -20.9189 C   0  0  0  0  0  0  0  0  0  0  0  0
   -5.6610    6.7203  -19.9012 N   0  0  0  0  0  0  0  0  0  0  0  0
   -5.1735    5.3975  -19.4992 C   0  0  0  0  0  0  0  0  0  0  0  0
   -5.5005    5.2354  -18.0873 N   0  0  0  0  0  0  0  0  0  0  0  0
   -4.5634    5.5628  -17.1633 N   0  0  0  0  0  0  0  0  0  0  0  0
   -5.2433    5.5388  -16.0164 C   0  0  0  0  0  0  0  0  0  0  0  0
   -6.5718    5.0912  -16.1803 C   0  0  0  0  0  0  0  0  0  0  0  0
   -7.6796    4.8858  -15.3395 C   0  0  0  0  0  0  0  0  0  0  0  0
   -7.6046    5.3624  -13.9440 C   0  0  0  0  0  0  0  0  0  0  0  0
   -7.2555    6.4585  -13.7536 O   0  0  0  0  0  0  0  0  0  0  0  0
   -8.0200    4.2608  -12.9524 N   0  0  0  0  0  0  0  0  0  0  0  0
   -8.1792    4.3014  -11.5731 C   0  0  0  0  0  0  0  0  0  0  0  0
   -8.5841    3.1429  -10.9313 C   0  0  0  0  0  0  0  0  0  0  0  0
   -8.7447    3.1920   -9.5601 C   0  0  0  0  0  0  0  0  0  0  0  0
   -8.4983    4.3469   -8.7924 C   0  0  0  0  0  0  0  0  0  0  0  0
   -8.1174    5.5178   -9.4330 C   0  0  0  0  0  0  0  0  0  0  0  0
   -7.9303    6.8098   -8.7663 C   0  0  0  0  0  0  0  0  0  0  0  0
   -8.8021    7.8135   -8.9739 C   0  0  0  0  0  0  0  0  0  0  0  0
   -8.6478    9.1682   -8.3520 C   0  0  0  0  0  0  0  0  0  0  0  0
   -7.3514    9.3608   -7.7743 O   0  0  0  0  0  0  0  0  0  0  0  0
   -6.9550    8.2413   -6.9797 C   0  0  0  0  0  0  0  0  0  0  0  0
   -6.7450    7.0117   -7.8680 C   0  0  0  0  0  0  0  0  0  0  0  0
   -7.9508    5.4733  -10.8351 C   0  0  0  0  0  0  0  0  0  0  0  0
   -8.7159    3.9627   -7.3451 C   0  0  1  0  0  0  0  0  0  0  0  0
   -9.2670    4.9951   -6.3658 C   0  0  0  0  0  0  0  0  0  0  0  0
   -9.6312    2.7958   -7.4554 N   0  0  0  0  0  0  0  0  0  0  0  0
   -9.5975    1.8994   -6.3272 C   0  0  0  0  0  0  0  0  0  0  0  0
   -9.2080    2.0848   -8.6780 C   0  0  0  0  0  0  0  0  0  0  0  0
   -8.8625    4.3565  -15.8670 C   0  0  0  0  0  0  0  0  0  0  0  0
   -8.9458    4.0852  -17.2262 C   0  0  0  0  0  0  0  0  0  0  0  0
  -10.0959    3.6153  -17.7245 F   0  0  0  0  0  0  0  0  0  0  0  0
   -7.8857    4.3346  -18.0990 C   0  0  0  0  0  0  0  0  0  0  0  0
   -6.6999    4.8378  -17.5444 C   0  0  0  0  0  0  0  0  0  0  0  0
  1  2  1  0
  2  3  1  0
  3  4  1  0
  4  5  1  0
  5  6  2  0
  6  7  1  0
  7  8  2  0
  8  9  1  0
  9 10  2  0
  9 11  1  0
 11 12  1  0
 12 13  2  0
 13 14  1  0
 14 15  2  0
 15 16  1  0
 16 17  1  0
 17 18  2  0
 18 19  1  0
 19 20  1  0
 20 21  1  0
 21 22  1  0
 16 23  2  0
 15 24  1  0
 24 25  1  1
 24 26  1  0
 26 27  1  0
 26 28  1  0
  8 29  1  0
 29 30  2  0
 30 31  1  0
 30 32  1  0
 32 33  2  0
 33  4  1  0
 33  7  1  0
 23 12  1  0
 28 14  1  0
 22 17  1  0
M  END
>  <smiles>  (1241) 
C19119-P180

>  <fragmenstein_outcome>  (1241) 
acceptable

>  <inchikey>  (1241) 
GFOGEKYWHVEGSM-UHFFFAOYSA-N

>  <fragmenstein_mode>  (1241) 
expansion

>  <HIPPO Pose ID>  (1241) 
20774

>  <Energy>  (1241) 
115.999147

>  <fragmenstein_error>  (1241) 


>  <tags>  (1241) 
{'openbind_xx01zvns2b_c1_fragmenstein', 'fragmenstein_placed'}

>  <ref_pdb>  (1241) 
175

>  <scratch_subdir>  (1241) 
/opt/xchem-fragalysis-2/maxwin/BulkDock/SCRATCH/511028/C19119-P180

>  <alias>  (1241) 
CNCn1ncc2c(C(=O)Nc3cc4c(c(C5=CCOCC5)c3)[C@@H](C)N(C)C4)cc(F)cc21

>  <HIPPO Compound ID>  (1241) 
19119

>  <fragmenstein_runtime>  (1241) 
8.867353

$$$$
CNCn1ncc2c(C(=O)Nc3cc4c(c(C5=CCOCC5)c3F)CNC4)cc(F)cc21
     RDKit          3D

 32 36  0  0  0  0  0  0  0  0999 V2000
   -2.8057    5.5417  -19.1677 C   0  0  0  0  0  0  0  0  0  0  0  0
   -3.8844    5.1935  -20.0924 N   0  0  0  0  0  0  0  0  0  0  0  0
   -5.2533    5.5517  -19.6245 C   0  0  0  0  0  0  0  0  0  0  0  0
   -5.5389    5.3478  -18.1952 N   0  0  0  0  0  0  0  0  0  0  0  0
   -4.7640    5.9713  -17.2718 N   0  0  0  0  0  0  0  0  0  0  0  0
   -5.3912    5.7695  -16.1180 C   0  0  0  0  0  0  0  0  0  0  0  0
   -6.6349    5.1332  -16.2832 C   0  0  0  0  0  0  0  0  0  0  0  0
   -7.7135    4.8129  -15.4330 C   0  0  0  0  0  0  0  0  0  0  0  0
   -7.6698    5.2865  -14.0302 C   0  0  0  0  0  0  0  0  0  0  0  0
   -7.2810    6.3718  -13.8467 O   0  0  0  0  0  0  0  0  0  0  0  0
   -8.1916    4.2273  -13.0332 N   0  0  0  0  0  0  0  0  0  0  0  0
   -8.2534    4.2473  -11.6336 C   0  0  0  0  0  0  0  0  0  0  0  0
   -8.5430    3.0476  -10.9800 C   0  0  0  0  0  0  0  0  0  0  0  0
   -8.6659    3.0584   -9.5995 C   0  0  0  0  0  0  0  0  0  0  0  0
   -8.4966    4.2270   -8.8519 C   0  0  0  0  0  0  0  0  0  0  0  0
   -8.1931    5.4346   -9.4674 C   0  0  0  0  0  0  0  0  0  0  0  0
   -8.0467    6.7029   -8.7294 C   0  0  0  0  0  0  0  0  0  0  0  0
   -8.8342    7.7590   -9.0065 C   0  0  0  0  0  0  0  0  0  0  0  0
   -8.6779    9.0956   -8.3470 C   0  0  0  0  0  0  0  0  0  0  0  0
   -7.4438    9.2124   -7.6318 O   0  0  0  0  0  0  0  0  0  0  0  0
   -7.1963    8.0680   -6.8156 C   0  0  0  0  0  0  0  0  0  0  0  0
   -6.9733    6.8280   -7.6843 C   0  0  0  0  0  0  0  0  0  0  0  0
   -8.0762    5.4205  -10.8722 C   0  0  0  0  0  0  0  0  0  0  0  0
   -7.8410    6.5892  -11.4874 F   0  0  0  0  0  0  0  0  0  0  0  0
   -8.7354    3.8965   -7.4142 C   0  0  0  0  0  0  0  0  0  0  0  0
   -9.3992    2.5734   -7.4092 N   0  0  0  0  0  0  0  0  0  0  0  0
   -8.9923    1.9255   -8.6806 C   0  0  0  0  0  0  0  0  0  0  0  0
   -8.8643    4.2349  -15.9747 C   0  0  0  0  0  0  0  0  0  0  0  0
   -8.9289    3.9897  -17.3395 C   0  0  0  0  0  0  0  0  0  0  0  0
  -10.0560    3.4784  -17.8487 F   0  0  0  0  0  0  0  0  0  0  0  0
   -7.8741    4.2909  -18.2057 C   0  0  0  0  0  0  0  0  0  0  0  0
   -6.7232    4.8723  -17.6522 C   0  0  0  0  0  0  0  0  0  0  0  0
  1  2  1  0
  2  3  1  0
  3  4  1  0
  4  5  1  0
  5  6  2  0
  6  7  1  0
  7  8  2  0
  8  9  1  0
  9 10  2  0
  9 11  1  0
 11 12  1  0
 12 13  2  0
 13 14  1  0
 14 15  2  0
 15 16  1  0
 16 17  1  0
 17 18  2  0
 18 19  1  0
 19 20  1  0
 20 21  1  0
 21 22  1  0
 16 23  2  0
 23 24  1  0
 15 25  1  0
 25 26  1  0
 26 27  1  0
  8 28  1  0
 28 29  2  0
 29 30  1  0
 29 31  1  0
 31 32  2  0
 32  4  1  0
 32  7  1  0
 23 12  1  0
 27 14  1  0
 22 17  1  0
M  END
>  <smiles>  (1242) 
C19123-P180

>  <fragmenstein_outcome>  (1242) 
acceptable

>  <inchikey>  (1242) 
IDGWRBWEGFRYNX-UHFFFAOYSA-N

>  <fragmenstein_mode>  (1242) 
expansion

>  <HIPPO Pose ID>  (1242) 
20775

>  <Energy>  (1242) 
132.61426

>  <fragmenstein_error>  (1242) 


>  <tags>  (1242) 
{'openbind_xx01zvns2b_c1_fragmenstein', 'fragmenstein_placed'}

>  <ref_pdb>  (1242) 
175

>  <scratch_subdir>  (1242) 
/opt/xchem-fragalysis-2/maxwin/BulkDock/SCRATCH/511028/C19123-P180

>  <alias>  (1242) 
CNCn1ncc2c(C(=O)Nc3cc4c(c(C5=CCOCC5)c3F)CNC4)cc(F)cc21

>  <HIPPO Compound ID>  (1242) 
31527

>  <fragmenstein_runtime>  (1242) 
5.946848

$$$$
CNCn1ncc2c(C(=O)Nc3cc4c(c(C5=CCOCC5)c3)C3(CCCC3)NC4)cc(F)cc21
     RDKit          3D

 35 40  0  0  0  0  0  0  0  0999 V2000
   -2.7431    4.6928  -19.0964 C   0  0  0  0  0  0  0  0  0  0  0  0
   -3.6771    5.7055  -19.5839 N   0  0  0  0  0  0  0  0  0  0  0  0
   -5.1070    5.3614  -19.3988 C   0  0  0  0  0  0  0  0  0  0  0  0
   -5.4979    5.3852  -17.9821 N   0  0  0  0  0  0  0  0  0  0  0  0
   -4.7016    5.9982  -17.0689 N   0  0  0  0  0  0  0  0  0  0  0  0
   -5.3548    5.8353  -15.9188 C   0  0  0  0  0  0  0  0  0  0  0  0
   -6.6092    5.2091  -16.0824 C   0  0  0  0  0  0  0  0  0  0  0  0
   -7.6961    4.8903  -15.2381 C   0  0  0  0  0  0  0  0  0  0  0  0
   -7.6661    5.3571  -13.8285 C   0  0  0  0  0  0  0  0  0  0  0  0
   -7.2798    6.4434  -13.6383 O   0  0  0  0  0  0  0  0  0  0  0  0
   -8.1211    4.2654  -12.8305 N   0  0  0  0  0  0  0  0  0  0  0  0
   -8.2802    4.3136  -11.4445 C   0  0  0  0  0  0  0  0  0  0  0  0
   -8.6297    3.1648  -10.7461 C   0  0  0  0  0  0  0  0  0  0  0  0
   -8.7250    3.2363   -9.3572 C   0  0  0  0  0  0  0  0  0  0  0  0
   -8.4931    4.4156   -8.6299 C   0  0  0  0  0  0  0  0  0  0  0  0
   -8.1819    5.5812   -9.3337 C   0  0  0  0  0  0  0  0  0  0  0  0
   -7.9612    6.9109   -8.7532 C   0  0  0  0  0  0  0  0  0  0  0  0
   -8.9260    7.8483   -8.7566 C   0  0  0  0  0  0  0  0  0  0  0  0
   -8.7205    9.2436   -8.2426 C   0  0  0  0  0  0  0  0  0  0  0  0
   -7.3521    9.5463   -7.9503 O   0  0  0  0  0  0  0  0  0  0  0  0
   -6.6815    8.4566   -7.3139 C   0  0  0  0  0  0  0  0  0  0  0  0
   -6.5831    7.2855   -8.2901 C   0  0  0  0  0  0  0  0  0  0  0  0
   -8.0731    5.5064  -10.7410 C   0  0  0  0  0  0  0  0  0  0  0  0
   -8.5824    4.0813   -7.1576 C   0  0  0  0  0  0  0  0  0  0  0  0
   -7.3923    4.5589   -6.3167 C   0  0  0  0  0  0  0  0  0  0  0  0
   -7.7792    4.2877   -4.8742 C   0  0  0  0  0  0  0  0  0  0  0  0
   -9.2697    4.5892   -4.8450 C   0  0  0  0  0  0  0  0  0  0  0  0
   -9.7274    4.6615   -6.3124 C   0  0  0  0  0  0  0  0  0  0  0  0
   -8.7188    2.5951   -7.0864 N   0  0  0  0  0  0  0  0  0  0  0  0
   -9.0806    2.1218   -8.4356 C   0  0  0  0  0  0  0  0  0  0  0  0
   -8.8375    4.3022  -15.7923 C   0  0  0  0  0  0  0  0  0  0  0  0
   -8.8903    4.0512  -17.1594 C   0  0  0  0  0  0  0  0  0  0  0  0
  -10.0115    3.5371  -17.6805 F   0  0  0  0  0  0  0  0  0  0  0  0
   -7.8306    4.3547  -18.0179 C   0  0  0  0  0  0  0  0  0  0  0  0
   -6.6900    4.9383  -17.4494 C   0  0  0  0  0  0  0  0  0  0  0  0
  1  2  1  0
  2  3  1  0
  3  4  1  0
  4  5  1  0
  5  6  2  0
  6  7  1  0
  7  8  2  0
  8  9  1  0
  9 10  2  0
  9 11  1  0
 11 12  1  0
 12 13  2  0
 13 14  1  0
 14 15  2  0
 15 16  1  0
 16 17  1  0
 17 18  2  0
 18 19  1  0
 19 20  1  0
 20 21  1  0
 21 22  1  0
 16 23  2  0
 15 24  1  0
 24 25  1  0
 25 26  1  0
 26 27  1  0
 27 28  1  0
 24 29  1  0
 29 30  1  0
  8 31  1  0
 31 32  2  0
 32 33  1  0
 32 34  1  0
 34 35  2  0
 35  4  1  0
 35  7  1  0
 23 12  1  0
 28 24  1  0
 30 14  1  0
 22 17  1  0
M  END
>  <smiles>  (1243) 
C19124-P180

>  <fragmenstein_outcome>  (1243) 
acceptable

>  <inchikey>  (1243) 
TWPFZNSZIHGWFU-UHFFFAOYSA-N

>  <fragmenstein_mode>  (1243) 
expansion

>  <HIPPO Pose ID>  (1243) 
20776

>  <Energy>  (1243) 
113.269709

>  <fragmenstein_error>  (1243) 


>  <tags>  (1243) 
{'openbind_xx01zvns2b_c1_fragmenstein', 'fragmenstein_placed'}

>  <ref_pdb>  (1243) 
175

>  <scratch_subdir>  (1243) 
/opt/xchem-fragalysis-2/maxwin/BulkDock/SCRATCH/511028/C19124-P180

>  <alias>  (1243) 
CNCn1ncc2c(C(=O)Nc3cc4c(c(C5=CCOCC5)c3)C3(CCCC3)NC4)cc(F)cc21

>  <HIPPO Compound ID>  (1243) 
31846

>  <fragmenstein_runtime>  (1243) 
10.026761

$$$$
CNCn1ncc2c(C(=O)Nc3cc4c(c(C5=CCOCC5)c3)CN(F)C4)cc(F)cc21
     RDKit          3D

 32 36  0  0  0  0  0  0  0  0999 V2000
   -4.7903    7.4865  -19.7075 C   0  0  0  0  0  0  0  0  0  0  0  0
   -5.4134    6.3246  -20.3075 N   0  0  0  0  0  0  0  0  0  0  0  0
   -5.2284    5.0723  -19.5794 C   0  0  0  0  0  0  0  0  0  0  0  0
   -5.6320    5.1694  -18.1805 N   0  0  0  0  0  0  0  0  0  0  0  0
   -4.7098    5.5779  -17.2734 N   0  0  0  0  0  0  0  0  0  0  0  0
   -5.3681    5.5399  -16.1159 C   0  0  0  0  0  0  0  0  0  0  0  0
   -6.6869    5.0607  -16.2550 C   0  0  0  0  0  0  0  0  0  0  0  0
   -7.7677    4.8236  -15.3849 C   0  0  0  0  0  0  0  0  0  0  0  0
   -7.6584    5.2677  -13.9771 C   0  0  0  0  0  0  0  0  0  0  0  0
   -7.2519    6.3431  -13.7754 O   0  0  0  0  0  0  0  0  0  0  0  0
   -8.0913    4.1609  -12.9927 N   0  0  0  0  0  0  0  0  0  0  0  0
   -8.2009    4.1771  -11.6050 C   0  0  0  0  0  0  0  0  0  0  0  0
   -8.5435    2.9979  -10.9477 C   0  0  0  0  0  0  0  0  0  0  0  0
   -8.6938    3.0382   -9.5732 C   0  0  0  0  0  0  0  0  0  0  0  0
   -8.5004    4.2175   -8.8439 C   0  0  0  0  0  0  0  0  0  0  0  0
   -8.1510    5.4025   -9.4770 C   0  0  0  0  0  0  0  0  0  0  0  0
   -8.0019    6.6850   -8.7730 C   0  0  0  0  0  0  0  0  0  0  0  0
   -8.7910    7.7309   -9.0810 C   0  0  0  0  0  0  0  0  0  0  0  0
   -8.6658    9.0720   -8.4232 C   0  0  0  0  0  0  0  0  0  0  0  0
   -7.4421    9.2070   -7.6932 O   0  0  0  0  0  0  0  0  0  0  0  0
   -7.2002    8.0752   -6.8573 C   0  0  0  0  0  0  0  0  0  0  0  0
   -6.9527    6.8260   -7.7061 C   0  0  0  0  0  0  0  0  0  0  0  0
   -7.9945    5.3598  -10.8751 C   0  0  0  0  0  0  0  0  0  0  0  0
   -8.7750    3.9172   -7.4028 C   0  0  0  0  0  0  0  0  0  0  0  0
   -9.5211    2.6441   -7.4178 N   0  0  0  0  0  0  0  0  0  0  0  0
   -9.3250    1.8989   -6.2813 F   0  0  0  0  0  0  0  0  0  0  0  0
   -9.0862    1.9372   -8.6395 C   0  0  0  0  0  0  0  0  0  0  0  0
   -8.9548    4.2914  -15.8963 C   0  0  0  0  0  0  0  0  0  0  0  0
   -9.0655    4.0373  -17.2578 C   0  0  0  0  0  0  0  0  0  0  0  0
  -10.2245    3.5769  -17.7409 F   0  0  0  0  0  0  0  0  0  0  0  0
   -8.0225    4.2874  -18.1497 C   0  0  0  0  0  0  0  0  0  0  0  0
   -6.8327    4.8035  -17.6183 C   0  0  0  0  0  0  0  0  0  0  0  0
  1  2  1  0
  2  3  1  0
  3  4  1  0
  4  5  1  0
  5  6  2  0
  6  7  1  0
  7  8  2  0
  8  9  1  0
  9 10  2  0
  9 11  1  0
 11 12  1  0
 12 13  2  0
 13 14  1  0
 14 15  2  0
 15 16  1  0
 16 17  1  0
 17 18  2  0
 18 19  1  0
 19 20  1  0
 20 21  1  0
 21 22  1  0
 16 23  2  0
 15 24  1  0
 24 25  1  0
 25 26  1  0
 25 27  1  0
  8 28  1  0
 28 29  2  0
 29 30  1  0
 29 31  1  0
 31 32  2  0
 32  4  1  0
 32  7  1  0
 23 12  1  0
 27 14  1  0
 22 17  1  0
M  END
>  <smiles>  (1244) 
C19125-P180

>  <fragmenstein_outcome>  (1244) 
acceptable

>  <inchikey>  (1244) 
ZEIUNKBBTYXVCK-UHFFFAOYSA-N

>  <fragmenstein_mode>  (1244) 
expansion

>  <HIPPO Pose ID>  (1244) 
20777

>  <Energy>  (1244) 
108.695665

>  <fragmenstein_error>  (1244) 


>  <tags>  (1244) 
{'openbind_xx01zvns2b_c1_fragmenstein', 'fragmenstein_placed'}

>  <ref_pdb>  (1244) 
175

>  <scratch_subdir>  (1244) 
/opt/xchem-fragalysis-2/maxwin/BulkDock/SCRATCH/511028/C19125-P180

>  <alias>  (1244) 
CNCn1ncc2c(C(=O)Nc3cc4c(c(C5=CCOCC5)c3)CN(F)C4)cc(F)cc21

>  <HIPPO Compound ID>  (1244) 
19125

>  <fragmenstein_runtime>  (1244) 
4.413757

$$$$
CNCN1c2cc(F)cc(C(=O)Nc3cc4c(c(C5=CCOCC5)c3)CNC4)c2C[C@]12CC[C@H](OC)NN2
     RDKit          3D

 38 43  0  0  0  0  0  0  0  0999 V2000
   -5.7940    4.3269  -20.6332 C   0  0  0  0  0  0  0  0  0  0  0  0
   -4.6744    4.8571  -19.8944 N   0  0  0  0  0  0  0  0  0  0  0  0
   -5.1881    5.9594  -19.1075 C   0  0  0  0  0  0  0  0  0  0  0  0
   -5.4816    5.6947  -17.7247 N   0  0  0  0  0  0  0  0  0  0  0  0
   -6.6236    5.1592  -17.1728 C   0  0  0  0  0  0  0  0  0  0  0  0
   -7.7815    4.6830  -17.7664 C   0  0  0  0  0  0  0  0  0  0  0  0
   -8.8425    4.2275  -16.9769 C   0  0  0  0  0  0  0  0  0  0  0  0
   -9.9558    3.7760  -17.5712 F   0  0  0  0  0  0  0  0  0  0  0  0
   -8.8097    4.3395  -15.5935 C   0  0  0  0  0  0  0  0  0  0  0  0
   -7.6657    4.8539  -14.9958 C   0  0  0  0  0  0  0  0  0  0  0  0
   -7.6744    5.2845  -13.5866 C   0  0  0  0  0  0  0  0  0  0  0  0
   -7.3658    6.3864  -13.3607 O   0  0  0  0  0  0  0  0  0  0  0  0
   -8.0674    4.1433  -12.6331 N   0  0  0  0  0  0  0  0  0  0  0  0
   -8.2494    4.1402  -11.2579 C   0  0  0  0  0  0  0  0  0  0  0  0
   -8.5845    2.9620  -10.6062 C   0  0  0  0  0  0  0  0  0  0  0  0
   -8.7410    3.0082   -9.2304 C   0  0  0  0  0  0  0  0  0  0  0  0
   -8.5630    4.1874   -8.5017 C   0  0  0  0  0  0  0  0  0  0  0  0
   -8.2467    5.3794   -9.1400 C   0  0  0  0  0  0  0  0  0  0  0  0
   -8.0839    6.6816   -8.4744 C   0  0  0  0  0  0  0  0  0  0  0  0
   -8.8296    7.7384   -8.8501 C   0  0  0  0  0  0  0  0  0  0  0  0
   -8.6395    9.1144   -8.2903 C   0  0  0  0  0  0  0  0  0  0  0  0
   -7.3925    9.2480   -7.6002 O   0  0  0  0  0  0  0  0  0  0  0  0
   -7.1855    8.1761   -6.6806 C   0  0  0  0  0  0  0  0  0  0  0  0
   -7.0239    6.8480   -7.4239 C   0  0  0  0  0  0  0  0  0  0  0  0
   -8.0850    5.3294  -10.5328 C   0  0  0  0  0  0  0  0  0  0  0  0
   -8.7819    3.8859   -7.0572 C   0  0  0  0  0  0  0  0  0  0  0  0
   -9.3193    2.5090   -6.9822 N   0  0  0  0  0  0  0  0  0  0  0  0
   -9.0848    1.8886   -8.3096 C   0  0  0  0  0  0  0  0  0  0  0  0
   -6.5699    5.1844  -15.7861 C   0  0  0  0  0  0  0  0  0  0  0  0
   -5.2132    5.6168  -15.3341 C   0  0  0  0  0  0  0  0  0  0  0  0
   -4.5117    6.0486  -16.6703 C   0  0  2  0  0  0  0  0  0  0  0  0
   -4.3223    7.5979  -16.6792 C   0  0  0  0  0  0  0  0  0  0  0  0
   -3.2406    8.0762  -15.6970 C   0  0  0  0  0  0  0  0  0  0  0  0
   -1.9424    7.2879  -15.8951 C   0  0  2  0  0  0  0  0  0  0  0  0
   -1.4048    7.6366  -17.1728 O   0  0  0  0  0  0  0  0  0  0  0  0
   -0.1696    6.9899  -17.4488 C   0  0  0  0  0  0  0  0  0  0  0  0
   -2.2320    5.8548  -15.7397 N   0  0  0  0  0  0  0  0  0  0  0  0
   -3.1775    5.4100  -16.7652 N   0  0  0  0  0  0  0  0  0  0  0  0
  1  2  1  0
  2  3  1  0
  3  4  1  0
  4  5  1  0
  5  6  2  0
  6  7  1  0
  7  8  1  0
  7  9  2  0
  9 10  1  0
 10 11  1  0
 11 12  2  0
 11 13  1  0
 13 14  1  0
 14 15  2  0
 15 16  1  0
 16 17  2  0
 17 18  1  0
 18 19  1  0
 19 20  2  0
 20 21  1  0
 21 22  1  0
 22 23  1  0
 23 24  1  0
 18 25  2  0
 17 26  1  0
 26 27  1  0
 27 28  1  0
 10 29  2  0
 29 30  1  0
 31 30  1  1
 31 32  1  0
 32 33  1  0
 33 34  1  0
 34 35  1  6
 35 36  1  0
 34 37  1  0
 37 38  1  0
 31  4  1  0
 29  5  1  0
 38 31  1  0
 25 14  1  0
 28 16  1  0
 24 19  1  0
M  END
>  <smiles>  (1245) 
C19131-P180

>  <fragmenstein_outcome>  (1245) 
acceptable

>  <inchikey>  (1245) 
NYOKVXTUYQHVEJ-UHFFFAOYSA-N

>  <fragmenstein_mode>  (1245) 
expansion

>  <HIPPO Pose ID>  (1245) 
20779

>  <Energy>  (1245) 
60.441404

>  <fragmenstein_error>  (1245) 


>  <tags>  (1245) 
{'openbind_xx01zvns2b_c1_fragmenstein', 'fragmenstein_placed'}

>  <ref_pdb>  (1245) 
175

>  <scratch_subdir>  (1245) 
/opt/xchem-fragalysis-2/maxwin/BulkDock/SCRATCH/511028/C19131-P180

>  <alias>  (1245) 
CNCN1c2cc(F)cc(C(=O)Nc3cc4c(c(C5=CCOCC5)c3)CNC4)c2C[C@]12CC[C@H](OC)NN2

>  <HIPPO Compound ID>  (1245) 
19131

>  <fragmenstein_runtime>  (1245) 
6.875454

$$$$
CNCn1ncc2c(C(=O)Nc3cc4c(c(C5=CCOCC5)c3C)CNC4)cc(F)cc21
     RDKit          3D

 32 36  0  0  0  0  0  0  0  0999 V2000
   -3.2805    6.8578  -19.7652 C   0  0  0  0  0  0  0  0  0  0  0  0
   -4.0249    5.6964  -20.2419 N   0  0  0  0  0  0  0  0  0  0  0  0
   -5.4000    5.6255  -19.6915 C   0  0  0  0  0  0  0  0  0  0  0  0
   -5.5089    5.2902  -18.2649 N   0  0  0  0  0  0  0  0  0  0  0  0
   -4.5733    5.6855  -17.3700 N   0  0  0  0  0  0  0  0  0  0  0  0
   -5.1537    5.4973  -16.1885 C   0  0  0  0  0  0  0  0  0  0  0  0
   -6.4730    5.0082  -16.2941 C   0  0  0  0  0  0  0  0  0  0  0  0
   -7.5264    4.7381  -15.3918 C   0  0  0  0  0  0  0  0  0  0  0  0
   -7.3547    5.1744  -13.9845 C   0  0  0  0  0  0  0  0  0  0  0  0
   -6.6962    6.1266  -13.8222 O   0  0  0  0  0  0  0  0  0  0  0  0
   -8.1738    4.3358  -12.9722 N   0  0  0  0  0  0  0  0  0  0  0  0
   -8.2737    4.4355  -11.5746 C   0  0  0  0  0  0  0  0  0  0  0  0
   -8.6026    3.2480  -10.9066 C   0  0  0  0  0  0  0  0  0  0  0  0
   -8.6944    3.2537   -9.5260 C   0  0  0  0  0  0  0  0  0  0  0  0
   -8.4799    4.4125   -8.7894 C   0  0  0  0  0  0  0  0  0  0  0  0
   -8.2031    5.6265   -9.4178 C   0  0  0  0  0  0  0  0  0  0  0  0
   -8.0365    6.8601   -8.6230 C   0  0  0  0  0  0  0  0  0  0  0  0
   -8.9377    7.8596   -8.6702 C   0  0  0  0  0  0  0  0  0  0  0  0
   -8.6993    9.2053   -8.0525 C   0  0  0  0  0  0  0  0  0  0  0  0
   -7.3596    9.3660   -7.5748 O   0  0  0  0  0  0  0  0  0  0  0  0
   -6.9129    8.2119   -6.8627 C   0  0  0  0  0  0  0  0  0  0  0  0
   -6.7755    7.0302   -7.8238 C   0  0  0  0  0  0  0  0  0  0  0  0
   -8.1145    5.6465  -10.8421 C   0  0  0  0  0  0  0  0  0  0  0  0
   -7.8794    6.9612  -11.5481 C   0  0  0  0  0  0  0  0  0  0  0  0
   -8.6763    4.0996   -7.3423 C   0  0  0  0  0  0  0  0  0  0  0  0
   -8.8812    2.6365   -7.2368 N   0  0  0  0  0  0  0  0  0  0  0  0
   -9.0599    2.1284   -8.6195 C   0  0  0  0  0  0  0  0  0  0  0  0
   -8.7473    4.2653  -15.8910 C   0  0  0  0  0  0  0  0  0  0  0  0
   -8.9007    4.0595  -17.2563 C   0  0  0  0  0  0  0  0  0  0  0  0
  -10.0813    3.6265  -17.7168 F   0  0  0  0  0  0  0  0  0  0  0  0
   -7.8835    4.3401  -18.1691 C   0  0  0  0  0  0  0  0  0  0  0  0
   -6.6723    4.8340  -17.6606 C   0  0  0  0  0  0  0  0  0  0  0  0
  1  2  1  0
  2  3  1  0
  3  4  1  0
  4  5  1  0
  5  6  2  0
  6  7  1  0
  7  8  2  0
  8  9  1  0
  9 10  2  0
  9 11  1  0
 11 12  1  0
 12 13  2  0
 13 14  1  0
 14 15  2  0
 15 16  1  0
 16 17  1  0
 17 18  2  0
 18 19  1  0
 19 20  1  0
 20 21  1  0
 21 22  1  0
 16 23  2  0
 23 24  1  0
 15 25  1  0
 25 26  1  0
 26 27  1  0
  8 28  1  0
 28 29  2  0
 29 30  1  0
 29 31  1  0
 31 32  2  0
 32  4  1  0
 32  7  1  0
 23 12  1  0
 27 14  1  0
 22 17  1  0
M  END
>  <smiles>  (1246) 
C19133-P180

>  <fragmenstein_outcome>  (1246) 
acceptable

>  <inchikey>  (1246) 
RCGFFHHQYXKUSA-UHFFFAOYSA-N

>  <fragmenstein_mode>  (1246) 
expansion

>  <HIPPO Pose ID>  (1246) 
20781

>  <Energy>  (1246) 
124.046779

>  <fragmenstein_error>  (1246) 


>  <tags>  (1246) 
{'openbind_xx01zvns2b_c1_fragmenstein', 'fragmenstein_placed'}

>  <ref_pdb>  (1246) 
175

>  <scratch_subdir>  (1246) 
/opt/xchem-fragalysis-2/maxwin/BulkDock/SCRATCH/511028/C19133-P180

>  <alias>  (1246) 
CNCn1ncc2c(C(=O)Nc3cc4c(c(C5=CCOCC5)c3C)CNC4)cc(F)cc21

>  <HIPPO Compound ID>  (1246) 
19133

>  <fragmenstein_runtime>  (1246) 
5.990361

$$$$
NCn1cc2c(C(=O)Nc3cc4c(c(C5=CCOCC5)c3)CNC4)cc(F)cc2n1
     RDKit          3D

 30 34  0  0  0  0  0  0  0  0999 V2000
   -2.8568    5.0816  -18.6878 N   0  0  0  0  0  0  0  0  0  0  0  0
   -3.2759    5.7780  -17.4630 C   0  0  0  0  0  0  0  0  0  0  0  0
   -4.6790    5.4505  -17.1928 N   0  0  0  0  0  0  0  0  0  0  0  0
   -5.2979    5.4879  -15.9767 C   0  0  0  0  0  0  0  0  0  0  0  0
   -6.5732    5.0490  -16.2167 C   0  0  0  0  0  0  0  0  0  0  0  0
   -7.5961    4.8617  -15.2848 C   0  0  0  0  0  0  0  0  0  0  0  0
   -7.5287    5.3025  -13.8845 C   0  0  0  0  0  0  0  0  0  0  0  0
   -7.2393    6.4131  -13.6705 O   0  0  0  0  0  0  0  0  0  0  0  0
   -7.9088    4.1616  -12.9141 N   0  0  0  0  0  0  0  0  0  0  0  0
   -8.0977    4.1729  -11.5332 C   0  0  0  0  0  0  0  0  0  0  0  0
   -8.4543    2.9874  -10.8927 C   0  0  0  0  0  0  0  0  0  0  0  0
   -8.6530    3.0158   -9.5220 C   0  0  0  0  0  0  0  0  0  0  0  0
   -8.5058    4.1913   -8.7818 C   0  0  0  0  0  0  0  0  0  0  0  0
   -8.1524    5.3847   -9.3993 C   0  0  0  0  0  0  0  0  0  0  0  0
   -8.0208    6.6675   -8.6924 C   0  0  0  0  0  0  0  0  0  0  0  0
   -8.7938    7.7174   -9.0269 C   0  0  0  0  0  0  0  0  0  0  0  0
   -8.6609    9.0658   -8.3866 C   0  0  0  0  0  0  0  0  0  0  0  0
   -7.4380    9.1998   -7.6550 O   0  0  0  0  0  0  0  0  0  0  0  0
   -7.2151    8.0822   -6.7946 C   0  0  0  0  0  0  0  0  0  0  0  0
   -6.9850    6.8099   -7.6130 C   0  0  0  0  0  0  0  0  0  0  0  0
   -7.9403    5.3527  -10.7906 C   0  0  0  0  0  0  0  0  0  0  0  0
   -8.7975    3.8759   -7.3503 C   0  0  0  0  0  0  0  0  0  0  0  0
   -9.4698    2.5542   -7.3528 N   0  0  0  0  0  0  0  0  0  0  0  0
   -9.0230    1.8951   -8.6069 C   0  0  0  0  0  0  0  0  0  0  0  0
   -8.7668    4.3396  -15.8690 C   0  0  0  0  0  0  0  0  0  0  0  0
   -8.8735    4.0660  -17.2615 C   0  0  0  0  0  0  0  0  0  0  0  0
  -10.0424    3.5886  -17.7122 F   0  0  0  0  0  0  0  0  0  0  0  0
   -7.8482    4.2844  -18.1978 C   0  0  0  0  0  0  0  0  0  0  0  0
   -6.6642    4.7813  -17.6327 C   0  0  0  0  0  0  0  0  0  0  0  0
   -5.4921    5.0837  -18.2149 N   0  0  0  0  0  0  0  0  0  0  0  0
  1  2  1  0
  2  3  1  0
  3  4  1  0
  4  5  2  0
  5  6  1  0
  6  7  1  0
  7  8  2  0
  7  9  1  0
  9 10  1  0
 10 11  2  0
 11 12  1  0
 12 13  2  0
 13 14  1  0
 14 15  1  0
 15 16  2  0
 16 17  1  0
 17 18  1  0
 18 19  1  0
 19 20  1  0
 14 21  2  0
 13 22  1  0
 22 23  1  0
 23 24  1  0
  6 25  2  0
 25 26  1  0
 26 27  1  0
 26 28  2  0
 28 29  1  0
 29 30  2  0
 30  3  1  0
 29  5  1  0
 21 10  1  0
 24 12  1  0
 20 15  1  0
M  END
>  <smiles>  (1247) 
C18961-P180

>  <fragmenstein_outcome>  (1247) 
acceptable

>  <inchikey>  (1247) 
FVTNQDFRIQDWEE-UHFFFAOYSA-N

>  <fragmenstein_mode>  (1247) 
expansion

>  <HIPPO Pose ID>  (1247) 
20782

>  <Energy>  (1247) 
78.983394

>  <fragmenstein_error>  (1247) 


>  <tags>  (1247) 
{'openbind_xx01zvns2b_c1_fragmenstein', 'fragmenstein_placed'}

>  <ref_pdb>  (1247) 
175

>  <scratch_subdir>  (1247) 
/opt/xchem-fragalysis-2/maxwin/BulkDock/SCRATCH/511028/C18961-P180

>  <alias>  (1247) 
NCn1cc2c(C(=O)Nc3cc4c(c(C5=CCOCC5)c3)CNC4)cc(F)cc2n1

>  <HIPPO Compound ID>  (1247) 
18961

>  <fragmenstein_runtime>  (1247) 
7.116479

$$$$
CNCn1ncc2c(C(=O)Nc3cc4c(c(C5=CCOCC5)c3)CNC4)cc(F)cc21
     RDKit          3D

 31 35  0  0  0  0  0  0  0  0999 V2000
   -3.0773    6.2346  -20.3839 C   0  0  0  0  0  0  0  0  0  0  0  0
   -3.6827    5.0340  -19.8109 N   0  0  0  0  0  0  0  0  0  0  0  0
   -5.1259    5.2759  -19.5588 C   0  0  0  0  0  0  0  0  0  0  0  0
   -5.4136    5.1946  -18.1182 N   0  0  0  0  0  0  0  0  0  0  0  0
   -4.4827    5.5900  -17.2123 N   0  0  0  0  0  0  0  0  0  0  0  0
   -5.1335    5.5249  -16.0465 C   0  0  0  0  0  0  0  0  0  0  0  0
   -6.4639    5.0654  -16.1813 C   0  0  0  0  0  0  0  0  0  0  0  0
   -7.5598    4.8351  -15.3204 C   0  0  0  0  0  0  0  0  0  0  0  0
   -7.4712    5.2656  -13.9047 C   0  0  0  0  0  0  0  0  0  0  0  0
   -7.0420    6.3302  -13.6889 O   0  0  0  0  0  0  0  0  0  0  0  0
   -7.9774    4.1732  -12.9339 N   0  0  0  0  0  0  0  0  0  0  0  0
   -8.1440    4.1982  -11.5496 C   0  0  0  0  0  0  0  0  0  0  0  0
   -8.5075    3.0263  -10.8886 C   0  0  0  0  0  0  0  0  0  0  0  0
   -8.6526    3.0630   -9.5088 C   0  0  0  0  0  0  0  0  0  0  0  0
   -8.4597    4.2353   -8.7802 C   0  0  0  0  0  0  0  0  0  0  0  0
   -8.1325    5.4245   -9.4227 C   0  0  0  0  0  0  0  0  0  0  0  0
   -7.9988    6.7185   -8.7363 C   0  0  0  0  0  0  0  0  0  0  0  0
   -8.8273    7.7373   -9.0322 C   0  0  0  0  0  0  0  0  0  0  0  0
   -8.7115    9.0956   -8.4085 C   0  0  0  0  0  0  0  0  0  0  0  0
   -7.4703    9.2763   -7.7191 O   0  0  0  0  0  0  0  0  0  0  0  0
   -7.1669    8.1627   -6.8788 C   0  0  0  0  0  0  0  0  0  0  0  0
   -6.9051    6.9152   -7.7253 C   0  0  0  0  0  0  0  0  0  0  0  0
   -7.9598    5.3817  -10.8200 C   0  0  0  0  0  0  0  0  0  0  0  0
   -8.7213    3.9511   -7.3391 C   0  0  0  0  0  0  0  0  0  0  0  0
   -8.9762    2.4962   -7.2160 N   0  0  0  0  0  0  0  0  0  0  0  0
   -9.0496    1.9542   -8.5959 C   0  0  0  0  0  0  0  0  0  0  0  0
   -8.7587    4.3342  -15.8481 C   0  0  0  0  0  0  0  0  0  0  0  0
   -8.8649    4.0952  -17.2128 C   0  0  0  0  0  0  0  0  0  0  0  0
  -10.0231    3.6461  -17.7155 F   0  0  0  0  0  0  0  0  0  0  0  0
   -7.8127    4.3498  -18.0912 C   0  0  0  0  0  0  0  0  0  0  0  0
   -6.6141    4.8323  -17.5481 C   0  0  0  0  0  0  0  0  0  0  0  0
  1  2  1  0
  2  3  1  0
  3  4  1  0
  4  5  1  0
  5  6  2  0
  6  7  1  0
  7  8  2  0
  8  9  1  0
  9 10  2  0
  9 11  1  0
 11 12  1  0
 12 13  2  0
 13 14  1  0
 14 15  2  0
 15 16  1  0
 16 17  1  0
 17 18  2  0
 18 19  1  0
 19 20  1  0
 20 21  1  0
 21 22  1  0
 16 23  2  0
 15 24  1  0
 24 25  1  0
 25 26  1  0
  8 27  1  0
 27 28  2  0
 28 29  1  0
 28 30  1  0
 30 31  2  0
 31  4  1  0
 31  7  1  0
 23 12  1  0
 26 14  1  0
 22 17  1  0
M  END
>  <smiles>  (1248) 
C19095-P180

>  <fragmenstein_outcome>  (1248) 
acceptable

>  <inchikey>  (1248) 
SAMBNNZEBURVGW-UHFFFAOYSA-N

>  <fragmenstein_mode>  (1248) 
expansion

>  <HIPPO Pose ID>  (1248) 
20783

>  <Energy>  (1248) 
96.070994

>  <fragmenstein_error>  (1248) 


>  <tags>  (1248) 
{'openbind_xx01zvns2b_c1_fragmenstein', 'fragmenstein_placed'}

>  <ref_pdb>  (1248) 
175

>  <scratch_subdir>  (1248) 
/opt/xchem-fragalysis-2/maxwin/BulkDock/SCRATCH/511028/C19095-P180

>  <alias>  (1248) 
CNCn1ncc2c(C(=O)Nc3cc4c(c(C5=CCOCC5)c3)CNC4)cc(F)cc21

>  <HIPPO Compound ID>  (1248) 
19095

>  <fragmenstein_runtime>  (1248) 
6.879969

$$$$
O=C(Nc1cc2c(c(C3=CCOCC3)c1)CNC2)c1cc(F)cc2c1CN[C@@]21CCCNC1
     RDKit          3D

 33 38  0  0  0  0  0  0  0  0999 V2000
   -7.4488    6.4569  -13.5339 O   0  0  0  0  0  0  0  0  0  0  0  0
   -7.6950    5.3400  -13.7631 C   0  0  0  0  0  0  0  0  0  0  0  0
   -8.1333    4.2020  -12.8247 N   0  0  0  0  0  0  0  0  0  0  0  0
   -8.2656    4.1726  -11.4399 C   0  0  0  0  0  0  0  0  0  0  0  0
   -8.5682    2.9765  -10.8001 C   0  0  0  0  0  0  0  0  0  0  0  0
   -8.7246    3.0006   -9.4241 C   0  0  0  0  0  0  0  0  0  0  0  0
   -8.5708    4.1757   -8.6796 C   0  0  0  0  0  0  0  0  0  0  0  0
   -8.2521    5.3770   -9.2972 C   0  0  0  0  0  0  0  0  0  0  0  0
   -8.0881    6.6608   -8.5970 C   0  0  0  0  0  0  0  0  0  0  0  0
   -8.8289    7.7314   -8.9407 C   0  0  0  0  0  0  0  0  0  0  0  0
   -8.6432    9.0854   -8.3270 C   0  0  0  0  0  0  0  0  0  0  0  0
   -7.4054    9.1917   -7.6165 O   0  0  0  0  0  0  0  0  0  0  0  0
   -7.2085    8.0849   -6.7365 C   0  0  0  0  0  0  0  0  0  0  0  0
   -7.0382    6.7868   -7.5291 C   0  0  0  0  0  0  0  0  0  0  0  0
   -8.1013    5.3515  -10.6940 C   0  0  0  0  0  0  0  0  0  0  0  0
   -8.8326    3.8500   -7.2450 C   0  0  0  0  0  0  0  0  0  0  0  0
   -9.5043    2.5280   -7.2467 N   0  0  0  0  0  0  0  0  0  0  0  0
   -9.0647    1.8739   -8.5057 C   0  0  0  0  0  0  0  0  0  0  0  0
   -7.5525    4.8955  -15.1628 C   0  0  0  0  0  0  0  0  0  0  0  0
   -8.6201    4.3693  -15.8825 C   0  0  0  0  0  0  0  0  0  0  0  0
   -8.4881    4.2206  -17.2663 C   0  0  0  0  0  0  0  0  0  0  0  0
   -9.5304    3.7297  -17.9536 F   0  0  0  0  0  0  0  0  0  0  0  0
   -7.3314    4.6343  -17.9533 C   0  0  0  0  0  0  0  0  0  0  0  0
   -6.2739    5.1643  -17.2262 C   0  0  0  0  0  0  0  0  0  0  0  0
   -6.3777    5.2176  -15.8325 C   0  0  0  0  0  0  0  0  0  0  0  0
   -5.0963    5.7108  -15.2461 C   0  0  0  0  0  0  0  0  0  0  0  0
   -4.1289    5.6261  -16.3658 N   0  0  0  0  0  0  0  0  0  0  0  0
   -4.9502    5.8157  -17.6023 C   0  0  1  0  0  0  0  0  0  0  0  0
   -4.1639    5.2562  -18.7918 C   0  0  0  0  0  0  0  0  0  0  0  0
   -4.6828    5.7347  -20.1479 C   0  0  0  0  0  0  0  0  0  0  0  0
   -4.9698    7.2319  -20.2125 C   0  0  0  0  0  0  0  0  0  0  0  0
   -5.8097    7.6701  -19.0953 N   0  0  0  0  0  0  0  0  0  0  0  0
   -5.0997    7.3528  -17.8403 C   0  0  0  0  0  0  0  0  0  0  0  0
  1  2  2  0
  2  3  1  0
  3  4  1  0
  4  5  2  0
  5  6  1  0
  6  7  2  0
  7  8  1  0
  8  9  1  0
  9 10  2  0
 10 11  1  0
 11 12  1  0
 12 13  1  0
 13 14  1  0
  8 15  2  0
  7 16  1  0
 16 17  1  0
 17 18  1  0
  2 19  1  0
 19 20  2  0
 20 21  1  0
 21 22  1  0
 21 23  2  0
 23 24  1  0
 24 25  2  0
 25 26  1  0
 26 27  1  0
 27 28  1  0
 28 29  1  6
 29 30  1  0
 30 31  1  0
 31 32  1  0
 32 33  1  0
 15  4  1  0
 25 19  1  0
 33 28  1  0
 18  6  1  0
 28 24  1  0
 14  9  1  0
M  END
>  <smiles>  (1249) 
C19136-P180

>  <fragmenstein_outcome>  (1249) 
acceptable

>  <inchikey>  (1249) 
NPTSSNKKCQDDDZ-UHFFFAOYSA-N

>  <fragmenstein_mode>  (1249) 
expansion

>  <HIPPO Pose ID>  (1249) 
20784

>  <Energy>  (1249) 
97.380036

>  <fragmenstein_error>  (1249) 


>  <tags>  (1249) 
{'openbind_xx01zvns2b_c1_fragmenstein', 'fragmenstein_placed'}

>  <ref_pdb>  (1249) 
175

>  <scratch_subdir>  (1249) 
/opt/xchem-fragalysis-2/maxwin/BulkDock/SCRATCH/511028/C19136-P180

>  <alias>  (1249) 
O=C(Nc1cc2c(c(C3=CCOCC3)c1)CNC2)c1cc(F)cc2c1CN[C@@]21CCCNC1

>  <HIPPO Compound ID>  (1249) 
186

>  <fragmenstein_runtime>  (1249) 
5.371667

$$$$
CCCCc1ncn(-c2cc(F)cc(C(=O)Nc3cc4c(c(C5=CCOCC5)c3)CNC4)c2C)n1
     RDKit          3D

 35 39  0  0  0  0  0  0  0  0999 V2000
   -1.0505    6.5234  -21.7323 C   0  0  0  0  0  0  0  0  0  0  0  0
   -1.7830    7.4348  -20.7595 C   0  0  0  0  0  0  0  0  0  0  0  0
   -1.5187    7.1053  -19.2861 C   0  0  0  0  0  0  0  0  0  0  0  0
   -1.9162    5.6960  -18.8418 C   0  0  0  0  0  0  0  0  0  0  0  0
   -3.3785    5.4394  -18.9051 C   0  0  0  0  0  0  0  0  0  0  0  0
   -4.0111    5.0997  -20.0636 N   0  0  0  0  0  0  0  0  0  0  0  0
   -5.2578    4.9523  -19.6667 C   0  0  0  0  0  0  0  0  0  0  0  0
   -5.3738    5.1006  -18.3011 N   0  0  0  0  0  0  0  0  0  0  0  0
   -6.5093    4.8707  -17.4566 C   0  0  0  0  0  0  0  0  0  0  0  0
   -7.7015    4.3906  -18.0357 C   0  0  0  0  0  0  0  0  0  0  0  0
   -8.8194    4.1231  -17.2480 C   0  0  0  0  0  0  0  0  0  0  0  0
   -9.9352    3.6557  -17.8219 F   0  0  0  0  0  0  0  0  0  0  0  0
   -8.8130    4.3736  -15.8892 C   0  0  0  0  0  0  0  0  0  0  0  0
   -7.6544    4.8825  -15.3026 C   0  0  0  0  0  0  0  0  0  0  0  0
   -7.7617    5.3652  -13.9011 C   0  0  0  0  0  0  0  0  0  0  0  0
   -7.5893    6.5012  -13.6983 O   0  0  0  0  0  0  0  0  0  0  0  0
   -8.1105    4.2182  -12.9311 N   0  0  0  0  0  0  0  0  0  0  0  0
   -8.2235    4.2100  -11.5426 C   0  0  0  0  0  0  0  0  0  0  0  0
   -8.5052    3.0108  -10.8932 C   0  0  0  0  0  0  0  0  0  0  0  0
   -8.6689    3.0364   -9.5184 C   0  0  0  0  0  0  0  0  0  0  0  0
   -8.5294    4.2157   -8.7805 C   0  0  0  0  0  0  0  0  0  0  0  0
   -8.2233    5.4186   -9.4040 C   0  0  0  0  0  0  0  0  0  0  0  0
   -8.0717    6.6997   -8.6961 C   0  0  0  0  0  0  0  0  0  0  0  0
   -8.8388    7.7586   -9.0155 C   0  0  0  0  0  0  0  0  0  0  0  0
   -8.6795    9.1053   -8.3780 C   0  0  0  0  0  0  0  0  0  0  0  0
   -7.4433    9.2266   -7.6671 O   0  0  0  0  0  0  0  0  0  0  0  0
   -7.2173    8.1060   -6.8117 C   0  0  0  0  0  0  0  0  0  0  0  0
   -7.0148    6.8323   -7.6352 C   0  0  0  0  0  0  0  0  0  0  0  0
   -8.0778    5.3948  -10.8034 C   0  0  0  0  0  0  0  0  0  0  0  0
   -8.7874    3.8935   -7.3442 C   0  0  0  0  0  0  0  0  0  0  0  0
   -9.4486    2.5664   -7.3387 N   0  0  0  0  0  0  0  0  0  0  0  0
   -9.0085    1.9108   -8.5974 C   0  0  0  0  0  0  0  0  0  0  0  0
   -6.4685    5.0893  -16.0525 C   0  0  0  0  0  0  0  0  0  0  0  0
   -5.2179    5.5202  -15.3251 C   0  0  0  0  0  0  0  0  0  0  0  0
   -4.1659    5.4912  -17.8298 N   0  0  0  0  0  0  0  0  0  0  0  0
  1  2  1  0
  2  3  1  0
  3  4  1  0
  4  5  1  0
  5  6  1  0
  6  7  2  0
  7  8  1  0
  8  9  1  0
  9 10  2  0
 10 11  1  0
 11 12  1  0
 11 13  2  0
 13 14  1  0
 14 15  1  0
 15 16  2  0
 15 17  1  0
 17 18  1  0
 18 19  2  0
 19 20  1  0
 20 21  2  0
 21 22  1  0
 22 23  1  0
 23 24  2  0
 24 25  1  0
 25 26  1  0
 26 27  1  0
 27 28  1  0
 22 29  2  0
 21 30  1  0
 30 31  1  0
 31 32  1  0
 14 33  2  0
 33 34  1  0
  8 35  1  0
 35  5  2  0
 33  9  1  0
 29 18  1  0
 32 20  1  0
 28 23  1  0
M  END
>  <smiles>  (1250) 
C19142-P180

>  <fragmenstein_outcome>  (1250) 
acceptable

>  <inchikey>  (1250) 
HRRIRGFLISVUHC-UHFFFAOYSA-N

>  <fragmenstein_mode>  (1250) 
expansion

>  <HIPPO Pose ID>  (1250) 
20786

>  <Energy>  (1250) 
85.644776

>  <fragmenstein_error>  (1250) 


>  <tags>  (1250) 
{'openbind_xx01zvns2b_c1_fragmenstein', 'fragmenstein_placed'}

>  <ref_pdb>  (1250) 
175

>  <scratch_subdir>  (1250) 
/opt/xchem-fragalysis-2/maxwin/BulkDock/SCRATCH/511028/C19142-P180

>  <alias>  (1250) 
CCCCc1ncn(-c2cc(F)cc(C(=O)Nc3cc4c(c(C5=CCOCC5)c3)CNC4)c2C)n1

>  <HIPPO Compound ID>  (1250) 
19142

>  <fragmenstein_runtime>  (1250) 
9.858269

$$$$
O=C(Nc1cc2c(c(C3=CCOCC3)c1)CNC2)c1cc(F)cc2c1CNC21CCOCC1
     RDKit          3D

 33 38  0  0  0  0  0  0  0  0999 V2000
   -7.0493    6.2471  -13.4905 O   0  0  0  0  0  0  0  0  0  0  0  0
   -7.4954    5.1957  -13.7316 C   0  0  0  0  0  0  0  0  0  0  0  0
   -8.0380    4.1019  -12.7930 N   0  0  0  0  0  0  0  0  0  0  0  0
   -8.2280    4.1063  -11.4152 C   0  0  0  0  0  0  0  0  0  0  0  0
   -8.5999    2.9339  -10.7679 C   0  0  0  0  0  0  0  0  0  0  0  0
   -8.7650    2.9764   -9.3934 C   0  0  0  0  0  0  0  0  0  0  0  0
   -8.5850    4.1546   -8.6606 C   0  0  0  0  0  0  0  0  0  0  0  0
   -8.2259    5.3388   -9.2892 C   0  0  0  0  0  0  0  0  0  0  0  0
   -8.0610    6.6295   -8.6030 C   0  0  0  0  0  0  0  0  0  0  0  0
   -8.8042    7.6944   -8.9586 C   0  0  0  0  0  0  0  0  0  0  0  0
   -8.6306    9.0522   -8.3495 C   0  0  0  0  0  0  0  0  0  0  0  0
   -7.3978    9.1679   -7.6318 O   0  0  0  0  0  0  0  0  0  0  0  0
   -7.2022    8.0667   -6.7440 C   0  0  0  0  0  0  0  0  0  0  0  0
   -7.0189    6.7657   -7.5292 C   0  0  0  0  0  0  0  0  0  0  0  0
   -8.0372    5.2886  -10.6811 C   0  0  0  0  0  0  0  0  0  0  0  0
   -8.8609    3.8515   -7.2234 C   0  0  0  0  0  0  0  0  0  0  0  0
   -9.5473    2.5371   -7.2096 N   0  0  0  0  0  0  0  0  0  0  0  0
   -9.1227    1.8654   -8.4633 C   0  0  0  0  0  0  0  0  0  0  0  0
   -7.5278    4.7976  -15.1536 C   0  0  0  0  0  0  0  0  0  0  0  0
   -8.6900    4.3693  -15.7880 C   0  0  0  0  0  0  0  0  0  0  0  0
   -8.6936    4.2520  -17.1817 C   0  0  0  0  0  0  0  0  0  0  0  0
   -9.8105    3.8228  -17.7866 F   0  0  0  0  0  0  0  0  0  0  0  0
   -7.5948    4.6492  -17.9604 C   0  0  0  0  0  0  0  0  0  0  0  0
   -6.4501    5.0978  -17.3202 C   0  0  0  0  0  0  0  0  0  0  0  0
   -6.4017    5.0520  -15.9243 C   0  0  0  0  0  0  0  0  0  0  0  0
   -4.9965    5.2719  -15.4691 C   0  0  0  0  0  0  0  0  0  0  0  0
   -4.2085    5.0981  -16.7148 N   0  0  0  0  0  0  0  0  0  0  0  0
   -5.0994    5.5941  -17.8134 C   0  0  0  0  0  0  0  0  0  0  0  0
   -4.9579    7.1343  -17.7722 C   0  0  0  0  0  0  0  0  0  0  0  0
   -5.4038    7.7712  -19.0563 C   0  0  0  0  0  0  0  0  0  0  0  0
   -4.5366    7.3261  -20.0798 O   0  0  0  0  0  0  0  0  0  0  0  0
   -4.8137    5.9664  -20.3744 C   0  0  0  0  0  0  0  0  0  0  0  0
   -4.6719    5.0339  -19.1721 C   0  0  0  0  0  0  0  0  0  0  0  0
  1  2  2  0
  2  3  1  0
  3  4  1  0
  4  5  2  0
  5  6  1  0
  6  7  2  0
  7  8  1  0
  8  9  1  0
  9 10  2  0
 10 11  1  0
 11 12  1  0
 12 13  1  0
 13 14  1  0
  8 15  2  0
  7 16  1  0
 16 17  1  0
 17 18  1  0
  2 19  1  0
 19 20  2  0
 20 21  1  0
 21 22  1  0
 21 23  2  0
 23 24  1  0
 24 25  2  0
 25 26  1  0
 26 27  1  0
 27 28  1  0
 28 29  1  0
 29 30  1  0
 30 31  1  0
 31 32  1  0
 32 33  1  0
 15  4  1  0
 25 19  1  0
 33 28  1  0
 18  6  1  0
 28 24  1  0
 14  9  1  0
M  END
>  <smiles>  (1251) 
C19147-P180

>  <fragmenstein_outcome>  (1251) 
acceptable

>  <inchikey>  (1251) 
DQLVHFLYLZDELT-UHFFFAOYSA-N

>  <fragmenstein_mode>  (1251) 
expansion

>  <HIPPO Pose ID>  (1251) 
20788

>  <Energy>  (1251) 
72.250364

>  <fragmenstein_error>  (1251) 


>  <tags>  (1251) 
{'openbind_xx01zvns2b_c1_fragmenstein', 'fragmenstein_placed'}

>  <ref_pdb>  (1251) 
175

>  <scratch_subdir>  (1251) 
/opt/xchem-fragalysis-2/maxwin/BulkDock/SCRATCH/511028/C19147-P180

>  <alias>  (1251) 
O=C(Nc1cc2c(c(C3=CCOCC3)c1)CNC2)c1cc(F)cc2c1CNC21CCOCC1

>  <HIPPO Compound ID>  (1251) 
33354

>  <fragmenstein_runtime>  (1251) 
5.457932

$$$$
COc1cc(-c2cc(N[C@H](c3cc(F)cc4c3cnn4N)C(F)(F)F)cc3c2CNC3)ccn1
     RDKit          3D

 34 38  0  0  0  0  0  0  0  0999 V2000
   -5.7922    9.5936   -5.6066 C   0  0  0  0  0  0  0  0  0  0  0  0
   -5.8232    8.3331   -6.2678 O   0  0  0  0  0  0  0  0  0  0  0  0
   -6.8730    8.2252   -7.1614 C   0  0  0  0  0  0  0  0  0  0  0  0
   -7.0089    7.0006   -7.7961 C   0  0  0  0  0  0  0  0  0  0  0  0
   -8.0489    6.8254   -8.7109 C   0  0  0  0  0  0  0  0  0  0  0  0
   -8.2523    5.5491   -9.4068 C   0  0  0  0  0  0  0  0  0  0  0  0
   -8.2835    5.5037  -10.8166 C   0  0  0  0  0  0  0  0  0  0  0  0
   -8.5852    4.3211  -11.5150 C   0  0  0  0  0  0  0  0  0  0  0  0
   -8.6860    4.3045  -12.9292 N   0  0  0  0  0  0  0  0  0  0  0  0
   -7.4020    4.6324  -13.6287 C   0  0  2  0  0  0  0  0  0  0  0  0
   -7.5995    4.5753  -15.1630 C   0  0  0  0  0  0  0  0  0  0  0  0
   -8.8375    4.1922  -15.7413 C   0  0  0  0  0  0  0  0  0  0  0  0
   -9.0290    4.0776  -17.1156 C   0  0  0  0  0  0  0  0  0  0  0  0
  -10.2214    3.6934  -17.5857 F   0  0  0  0  0  0  0  0  0  0  0  0
   -8.0221    4.3700  -18.0156 C   0  0  0  0  0  0  0  0  0  0  0  0
   -6.8214    4.8439  -17.4796 C   0  0  0  0  0  0  0  0  0  0  0  0
   -6.5994    4.9626  -16.1036 C   0  0  0  0  0  0  0  0  0  0  0  0
   -5.2882    5.4954  -16.0348 C   0  0  0  0  0  0  0  0  0  0  0  0
   -4.7467    5.7268  -17.2314 N   0  0  0  0  0  0  0  0  0  0  0  0
   -5.6611    5.2626  -18.0899 N   0  0  0  0  0  0  0  0  0  0  0  0
   -5.4464    5.3259  -19.4728 N   0  0  0  0  0  0  0  0  0  0  0  0
   -6.1823    3.8082  -13.0719 C   0  0  0  0  0  0  0  0  0  0  0  0
   -5.2700    3.5272  -14.0189 F   0  0  0  0  0  0  0  0  0  0  0  0
   -6.5355    2.6526  -12.4718 F   0  0  0  0  0  0  0  0  0  0  0  0
   -5.5117    4.5290  -12.1381 F   0  0  0  0  0  0  0  0  0  0  0  0
   -8.8355    3.1465  -10.7956 C   0  0  0  0  0  0  0  0  0  0  0  0
   -8.7855    3.1806   -9.4153 C   0  0  0  0  0  0  0  0  0  0  0  0
   -8.4967    4.3543   -8.7292 C   0  0  0  0  0  0  0  0  0  0  0  0
   -8.6097    4.0858   -7.2641 C   0  0  0  0  0  0  0  0  0  0  0  0
   -8.8500    2.6337   -7.1038 N   0  0  0  0  0  0  0  0  0  0  0  0
   -9.0926    2.0814   -8.4597 C   0  0  0  0  0  0  0  0  0  0  0  0
   -8.9039    7.9106   -8.9396 C   0  0  0  0  0  0  0  0  0  0  0  0
   -8.6906    9.0942   -8.2536 C   0  0  0  0  0  0  0  0  0  0  0  0
   -7.6788    9.2832   -7.3833 N   0  0  0  0  0  0  0  0  0  0  0  0
  1  2  1  0
  2  3  1  0
  3  4  2  0
  4  5  1  0
  5  6  1  0
  6  7  2  0
  7  8  1  0
  8  9  1  0
 10  9  1  1
 10 11  1  0
 11 12  2  0
 12 13  1  0
 13 14  1  0
 13 15  2  0
 15 16  1  0
 16 17  2  0
 17 18  1  0
 18 19  2  0
 19 20  1  0
 20 21  1  0
 10 22  1  0
 22 23  1  0
 22 24  1  0
 22 25  1  0
  8 26  2  0
 26 27  1  0
 27 28  2  0
 28 29  1  0
 29 30  1  0
 30 31  1  0
  5 32  2  0
 32 33  1  0
 33 34  2  0
 34  3  1  0
 28  6  1  0
 17 11  1  0
 31 27  1  0
 20 16  1  0
M  END
>  <smiles>  (1252) 
C19150-P180

>  <fragmenstein_outcome>  (1252) 
acceptable

>  <inchikey>  (1252) 
MLZKULIDLVYKMU-UHFFFAOYSA-N

>  <fragmenstein_mode>  (1252) 
expansion

>  <HIPPO Pose ID>  (1252) 
20789

>  <Energy>  (1252) 
75.92714

>  <fragmenstein_error>  (1252) 


>  <tags>  (1252) 
{'openbind_xx01zvns2b_c1_fragmenstein', 'fragmenstein_placed'}

>  <ref_pdb>  (1252) 
175

>  <scratch_subdir>  (1252) 
/opt/xchem-fragalysis-2/maxwin/BulkDock/SCRATCH/511028/C19150-P180

>  <alias>  (1252) 
COc1cc(-c2cc(N[C@H](c3cc(F)cc4c3cnn4N)C(F)(F)F)cc3c2CNC3)ccn1

>  <HIPPO Compound ID>  (1252) 
30090

>  <fragmenstein_runtime>  (1252) 
5.380713

$$$$
COc1cc(-c2cc(NC(=O)c3cc(F)cc4nn(OC)cc34)cc3c2CNC3)ccn1
     RDKit          3D

 32 36  0  0  0  0  0  0  0  0999 V2000
   -6.0557    9.5189   -5.4066 C   0  0  0  0  0  0  0  0  0  0  0  0
   -6.0317    8.2534   -6.0585 O   0  0  0  0  0  0  0  0  0  0  0  0
   -6.9904    8.1475   -7.0497 C   0  0  0  0  0  0  0  0  0  0  0  0
   -7.0752    6.9189   -7.6861 C   0  0  0  0  0  0  0  0  0  0  0  0
   -8.0234    6.7443   -8.6961 C   0  0  0  0  0  0  0  0  0  0  0  0
   -8.1561    5.4707   -9.4145 C   0  0  0  0  0  0  0  0  0  0  0  0
   -8.0029    5.4287  -10.8147 C   0  0  0  0  0  0  0  0  0  0  0  0
   -8.1854    4.2437  -11.5441 C   0  0  0  0  0  0  0  0  0  0  0  0
   -8.0348    4.2218  -12.9281 N   0  0  0  0  0  0  0  0  0  0  0  0
   -7.5784    5.3274  -13.9053 C   0  0  0  0  0  0  0  0  0  0  0  0
   -7.1837    6.4061  -13.6966 O   0  0  0  0  0  0  0  0  0  0  0  0
   -7.6641    4.8771  -15.3030 C   0  0  0  0  0  0  0  0  0  0  0  0
   -8.8404    4.3617  -15.8808 C   0  0  0  0  0  0  0  0  0  0  0  0
   -8.9550    4.0753  -17.2709 C   0  0  0  0  0  0  0  0  0  0  0  0
  -10.1351    3.6199  -17.7146 F   0  0  0  0  0  0  0  0  0  0  0  0
   -7.9259    4.2612  -18.2108 C   0  0  0  0  0  0  0  0  0  0  0  0
   -6.7309    4.7413  -17.6525 C   0  0  0  0  0  0  0  0  0  0  0  0
   -5.5444    4.9943  -18.2300 N   0  0  0  0  0  0  0  0  0  0  0  0
   -4.7569    5.3747  -17.2211 N   0  0  0  0  0  0  0  0  0  0  0  0
   -3.3959    5.5537  -17.4453 O   0  0  0  0  0  0  0  0  0  0  0  0
   -3.2190    6.7320  -18.2196 C   0  0  0  0  0  0  0  0  0  0  0  0
   -5.3551    5.4472  -16.0064 C   0  0  0  0  0  0  0  0  0  0  0  0
   -6.6401    5.0347  -16.2387 C   0  0  0  0  0  0  0  0  0  0  0  0
   -8.5274    3.0647  -10.8860 C   0  0  0  0  0  0  0  0  0  0  0  0
   -8.6580    3.0963   -9.5071 C   0  0  0  0  0  0  0  0  0  0  0  0
   -8.4657    4.2690   -8.7806 C   0  0  0  0  0  0  0  0  0  0  0  0
   -8.7014    3.9822   -7.3340 C   0  0  0  0  0  0  0  0  0  0  0  0
   -8.9405    2.5262   -7.2115 N   0  0  0  0  0  0  0  0  0  0  0  0
   -9.0360    1.9845   -8.5906 C   0  0  0  0  0  0  0  0  0  0  0  0
   -8.8430    7.8344   -9.0132 C   0  0  0  0  0  0  0  0  0  0  0  0
   -8.6863    9.0221   -8.3185 C   0  0  0  0  0  0  0  0  0  0  0  0
   -7.7625    9.2099   -7.3550 N   0  0  0  0  0  0  0  0  0  0  0  0
  1  2  1  0
  2  3  1  0
  3  4  2  0
  4  5  1  0
  5  6  1  0
  6  7  2  0
  7  8  1  0
  8  9  1  0
  9 10  1  0
 10 11  2  0
 10 12  1  0
 12 13  2  0
 13 14  1  0
 14 15  1  0
 14 16  2  0
 16 17  1  0
 17 18  2  0
 18 19  1  0
 19 20  1  0
 20 21  1  0
 19 22  1  0
 22 23  2  0
  8 24  2  0
 24 25  1  0
 25 26  2  0
 26 27  1  0
 27 28  1  0
 28 29  1  0
  5 30  2  0
 30 31  1  0
 31 32  2  0
 32  3  1  0
 26  6  1  0
 23 12  1  0
 29 25  1  0
 23 17  1  0
M  END
>  <smiles>  (1253) 
C19153-P180

>  <fragmenstein_outcome>  (1253) 
acceptable

>  <inchikey>  (1253) 
NOSAXJRTBIRUMA-UHFFFAOYSA-N

>  <fragmenstein_mode>  (1253) 
expansion

>  <HIPPO Pose ID>  (1253) 
20790

>  <Energy>  (1253) 
3.748979

>  <fragmenstein_error>  (1253) 


>  <tags>  (1253) 
{'openbind_xx01zvns2b_c1_fragmenstein', 'fragmenstein_placed'}

>  <ref_pdb>  (1253) 
175

>  <scratch_subdir>  (1253) 
/opt/xchem-fragalysis-2/maxwin/BulkDock/SCRATCH/511028/C19153-P180

>  <alias>  (1253) 
COc1cc(-c2cc(NC(=O)c3cc(F)cc4nn(OC)cc34)cc3c2CNC3)ccn1

>  <HIPPO Compound ID>  (1253) 
19153

>  <fragmenstein_runtime>  (1253) 
4.540833

$$$$
COc1cc(-c2cc(NC(=O)c3cc(F)cc4c3cnn4CN)cc3c2CNC3)ccn1
     RDKit          3D

 32 36  0  0  0  0  0  0  0  0999 V2000
   -6.0764    9.5108   -5.4520 C   0  0  0  0  0  0  0  0  0  0  0  0
   -6.0326    8.2539   -6.1195 O   0  0  0  0  0  0  0  0  0  0  0  0
   -6.9864    8.1470   -7.1152 C   0  0  0  0  0  0  0  0  0  0  0  0
   -7.0515    6.9258   -7.7681 C   0  0  0  0  0  0  0  0  0  0  0  0
   -7.9955    6.7496   -8.7822 C   0  0  0  0  0  0  0  0  0  0  0  0
   -8.1176    5.4776   -9.5060 C   0  0  0  0  0  0  0  0  0  0  0  0
   -7.9507    5.4322  -10.9064 C   0  0  0  0  0  0  0  0  0  0  0  0
   -8.1290    4.2447  -11.6338 C   0  0  0  0  0  0  0  0  0  0  0  0
   -7.9743    4.2092  -13.0197 N   0  0  0  0  0  0  0  0  0  0  0  0
   -7.4838    5.2974  -14.0043 C   0  0  0  0  0  0  0  0  0  0  0  0
   -7.0599    6.3668  -13.8011 O   0  0  0  0  0  0  0  0  0  0  0  0
   -7.6069    4.8576  -15.4178 C   0  0  0  0  0  0  0  0  0  0  0  0
   -8.8095    4.3195  -15.8952 C   0  0  0  0  0  0  0  0  0  0  0  0
   -8.9583    4.0591  -17.2507 C   0  0  0  0  0  0  0  0  0  0  0  0
  -10.1247    3.5800  -17.6986 F   0  0  0  0  0  0  0  0  0  0  0  0
   -7.9447    4.3175  -18.1729 C   0  0  0  0  0  0  0  0  0  0  0  0
   -6.7437    4.8516  -17.6856 C   0  0  0  0  0  0  0  0  0  0  0  0
   -6.5555    5.1150  -16.3267 C   0  0  0  0  0  0  0  0  0  0  0  0
   -5.2422    5.6301  -16.2491 C   0  0  0  0  0  0  0  0  0  0  0  0
   -4.6367    5.7008  -17.4380 N   0  0  0  0  0  0  0  0  0  0  0  0
   -5.5741    5.2411  -18.3038 N   0  0  0  0  0  0  0  0  0  0  0  0
   -5.2850    5.2209  -19.7446 C   0  0  0  0  0  0  0  0  0  0  0  0
   -3.8264    5.0442  -19.9708 N   0  0  0  0  0  0  0  0  0  0  0  0
   -8.4824    3.0697  -10.9706 C   0  0  0  0  0  0  0  0  0  0  0  0
   -8.6224    3.1040   -9.5920 C   0  0  0  0  0  0  0  0  0  0  0  0
   -8.4333    4.2781   -8.8692 C   0  0  0  0  0  0  0  0  0  0  0  0
   -8.6723    3.9971   -7.4217 C   0  0  0  0  0  0  0  0  0  0  0  0
   -8.9299    2.5450   -7.2951 N   0  0  0  0  0  0  0  0  0  0  0  0
   -9.0027    1.9948   -8.6723 C   0  0  0  0  0  0  0  0  0  0  0  0
   -8.8299    7.8311   -9.0876 C   0  0  0  0  0  0  0  0  0  0  0  0
   -8.6926    9.0120   -8.3766 C   0  0  0  0  0  0  0  0  0  0  0  0
   -7.7743    9.2010   -7.4082 N   0  0  0  0  0  0  0  0  0  0  0  0
  1  2  1  0
  2  3  1  0
  3  4  2  0
  4  5  1  0
  5  6  1  0
  6  7  2  0
  7  8  1  0
  8  9  1  0
  9 10  1  0
 10 11  2  0
 10 12  1  0
 12 13  2  0
 13 14  1  0
 14 15  1  0
 14 16  2  0
 16 17  1  0
 17 18  2  0
 18 19  1  0
 19 20  2  0
 20 21  1  0
 21 22  1  0
 22 23  1  0
  8 24  2  0
 24 25  1  0
 25 26  2  0
 26 27  1  0
 27 28  1  0
 28 29  1  0
  5 30  2  0
 30 31  1  0
 31 32  2  0
 32  3  1  0
 26  6  1  0
 18 12  1  0
 29 25  1  0
 21 17  1  0
M  END
>  <smiles>  (1254) 
C19157-P180

>  <fragmenstein_outcome>  (1254) 
acceptable

>  <inchikey>  (1254) 
KRHHXKAFMXSFDA-UHFFFAOYSA-N

>  <fragmenstein_mode>  (1254) 
expansion

>  <HIPPO Pose ID>  (1254) 
20793

>  <Energy>  (1254) 
71.822444

>  <fragmenstein_error>  (1254) 


>  <tags>  (1254) 
{'openbind_xx01zvns2b_c1_fragmenstein', 'fragmenstein_placed'}

>  <ref_pdb>  (1254) 
175

>  <scratch_subdir>  (1254) 
/opt/xchem-fragalysis-2/maxwin/BulkDock/SCRATCH/511028/C19157-P180

>  <alias>  (1254) 
COc1cc(-c2cc(NC(=O)c3cc(F)cc4c3cnn4CN)cc3c2CNC3)ccn1

>  <HIPPO Compound ID>  (1254) 
38433

>  <fragmenstein_runtime>  (1254) 
9.702639

$$$$
COc1cc(-c2cc(NC(=O)c3cc(F)cc4c3CC(=O)[C@@]43CCCN3)cc3c2CNC3)ccn1
     RDKit          3D

 35 40  0  0  0  0  0  0  0  0999 V2000
   -6.0849    9.4392   -5.3413 C   0  0  0  0  0  0  0  0  0  0  0  0
   -6.0840    8.1668   -5.9800 O   0  0  0  0  0  0  0  0  0  0  0  0
   -7.0255    8.0782   -6.9896 C   0  0  0  0  0  0  0  0  0  0  0  0
   -7.1304    6.8463   -7.6173 C   0  0  0  0  0  0  0  0  0  0  0  0
   -8.0611    6.6880   -8.6462 C   0  0  0  0  0  0  0  0  0  0  0  0
   -8.2017    5.4162   -9.3681 C   0  0  0  0  0  0  0  0  0  0  0  0
   -8.0467    5.3811  -10.7674 C   0  0  0  0  0  0  0  0  0  0  0  0
   -8.1986    4.1961  -11.5063 C   0  0  0  0  0  0  0  0  0  0  0  0
   -8.0170    4.1977  -12.8870 N   0  0  0  0  0  0  0  0  0  0  0  0
   -7.6226    5.3403  -13.8440 C   0  0  0  0  0  0  0  0  0  0  0  0
   -7.3125    6.4427  -13.6189 O   0  0  0  0  0  0  0  0  0  0  0  0
   -7.6031    4.9088  -15.2646 C   0  0  0  0  0  0  0  0  0  0  0  0
   -8.7227    4.3266  -15.8559 C   0  0  0  0  0  0  0  0  0  0  0  0
   -8.7427    4.1404  -17.2400 C   0  0  0  0  0  0  0  0  0  0  0  0
   -9.8303    3.5936  -17.8004 F   0  0  0  0  0  0  0  0  0  0  0  0
   -7.6881    4.5653  -18.0572 C   0  0  0  0  0  0  0  0  0  0  0  0
   -6.5788    5.1657  -17.4747 C   0  0  0  0  0  0  0  0  0  0  0  0
   -6.5222    5.2735  -16.0721 C   0  0  0  0  0  0  0  0  0  0  0  0
   -5.2091    5.8267  -15.6019 C   0  0  0  0  0  0  0  0  0  0  0  0
   -4.4545    6.0515  -16.8941 C   0  0  0  0  0  0  0  0  0  0  0  0
   -3.2984    6.4608  -16.9427 O   0  0  0  0  0  0  0  0  0  0  0  0
   -5.3727    5.8061  -18.1293 C   0  0  1  0  0  0  0  0  0  0  0  0
   -4.6389    5.0098  -19.1924 C   0  0  0  0  0  0  0  0  0  0  0  0
   -3.9427    6.0767  -20.0121 C   0  0  0  0  0  0  0  0  0  0  0  0
   -4.9825    7.1660  -20.0582 C   0  0  0  0  0  0  0  0  0  0  0  0
   -5.6573    7.1438  -18.7478 N   0  0  0  0  0  0  0  0  0  0  0  0
   -8.5181    3.0076  -10.8577 C   0  0  0  0  0  0  0  0  0  0  0  0
   -8.6690    3.0344   -9.4798 C   0  0  0  0  0  0  0  0  0  0  0  0
   -8.5045    4.2079   -8.7450 C   0  0  0  0  0  0  0  0  0  0  0  0
   -8.7165    3.9019   -7.2983 C   0  0  0  0  0  0  0  0  0  0  0  0
   -9.1769    2.4982   -7.2167 N   0  0  0  0  0  0  0  0  0  0  0  0
   -8.9953    1.9040   -8.5646 C   0  0  0  0  0  0  0  0  0  0  0  0
   -8.8452    7.7974   -8.9873 C   0  0  0  0  0  0  0  0  0  0  0  0
   -8.6713    8.9866   -8.2991 C   0  0  0  0  0  0  0  0  0  0  0  0
   -7.7618    9.1584   -7.3193 N   0  0  0  0  0  0  0  0  0  0  0  0
  1  2  1  0
  2  3  1  0
  3  4  2  0
  4  5  1  0
  5  6  1  0
  6  7  2  0
  7  8  1  0
  8  9  1  0
  9 10  1  0
 10 11  2  0
 10 12  1  0
 12 13  2  0
 13 14  1  0
 14 15  1  0
 14 16  2  0
 16 17  1  0
 17 18  2  0
 18 19  1  0
 19 20  1  0
 20 21  2  0
 20 22  1  0
 22 23  1  6
 23 24  1  0
 24 25  1  0
 25 26  1  0
  8 27  2  0
 27 28  1  0
 28 29  2  0
 29 30  1  0
 30 31  1  0
 31 32  1  0
  5 33  2  0
 33 34  1  0
 34 35  2  0
 35  3  1  0
 29  6  1  0
 18 12  1  0
 26 22  1  0
 32 28  1  0
 22 17  1  0
M  END
>  <smiles>  (1255) 
C19158-P180

>  <fragmenstein_outcome>  (1255) 
acceptable

>  <inchikey>  (1255) 
MEPJPWMUORNASJ-UHFFFAOYSA-N

>  <fragmenstein_mode>  (1255) 
expansion

>  <HIPPO Pose ID>  (1255) 
20794

>  <Energy>  (1255) 
90.134075

>  <fragmenstein_error>  (1255) 


>  <tags>  (1255) 
{'openbind_xx01zvns2b_c1_fragmenstein', 'fragmenstein_placed'}

>  <ref_pdb>  (1255) 
175

>  <scratch_subdir>  (1255) 
/opt/xchem-fragalysis-2/maxwin/BulkDock/SCRATCH/511028/C19158-P180

>  <alias>  (1255) 
COc1cc(-c2cc(NC(=O)c3cc(F)cc4c3CC(=O)[C@@]43CCCN3)cc3c2CNC3)ccn1

>  <HIPPO Compound ID>  (1255) 
19158

>  <fragmenstein_runtime>  (1255) 
12.493057

$$$$
COc1cc(-c2cc(NC(=O)c3cc(F)cc4c3cnn4N)cc3c2CNC3)ccn1
     RDKit          3D

 31 35  0  0  0  0  0  0  0  0999 V2000
   -6.2058    9.3660   -5.3412 C   0  0  0  0  0  0  0  0  0  0  0  0
   -6.1573    8.1172   -6.0230 O   0  0  0  0  0  0  0  0  0  0  0  0
   -7.0592    8.0471   -7.0689 C   0  0  0  0  0  0  0  0  0  0  0  0
   -7.1394    6.8278   -7.7243 C   0  0  0  0  0  0  0  0  0  0  0  0
   -8.0316    6.6889   -8.7906 C   0  0  0  0  0  0  0  0  0  0  0  0
   -8.1630    5.4216   -9.5230 C   0  0  0  0  0  0  0  0  0  0  0  0
   -7.9833    5.3790  -10.9234 C   0  0  0  0  0  0  0  0  0  0  0  0
   -8.1560    4.1931  -11.6564 C   0  0  0  0  0  0  0  0  0  0  0  0
   -8.0189    4.1624  -13.0447 N   0  0  0  0  0  0  0  0  0  0  0  0
   -7.5404    5.2537  -14.0317 C   0  0  0  0  0  0  0  0  0  0  0  0
   -7.1135    6.3223  -13.8302 O   0  0  0  0  0  0  0  0  0  0  0  0
   -7.6875    4.8170  -15.4440 C   0  0  0  0  0  0  0  0  0  0  0  0
   -8.9009    4.2891  -15.9056 C   0  0  0  0  0  0  0  0  0  0  0  0
   -9.0746    4.0235  -17.2584 C   0  0  0  0  0  0  0  0  0  0  0  0
  -10.2565    3.5701  -17.6891 F   0  0  0  0  0  0  0  0  0  0  0  0
   -8.0709    4.2521  -18.1936 C   0  0  0  0  0  0  0  0  0  0  0  0
   -6.8627    4.7829  -17.7214 C   0  0  0  0  0  0  0  0  0  0  0  0
   -6.6532    5.0665  -16.3712 C   0  0  0  0  0  0  0  0  0  0  0  0
   -5.3434    5.5906  -16.3319 C   0  0  0  0  0  0  0  0  0  0  0  0
   -4.7752    5.6582  -17.5389 N   0  0  0  0  0  0  0  0  0  0  0  0
   -5.7005    5.1476  -18.3611 N   0  0  0  0  0  0  0  0  0  0  0  0
   -5.4812    5.0874  -19.7476 N   0  0  0  0  0  0  0  0  0  0  0  0
   -8.4953    3.0104  -10.9984 C   0  0  0  0  0  0  0  0  0  0  0  0
   -8.6603    3.0426   -9.6245 C   0  0  0  0  0  0  0  0  0  0  0  0
   -8.5010    4.2225   -8.8978 C   0  0  0  0  0  0  0  0  0  0  0  0
   -8.7598    3.9181   -7.4548 C   0  0  0  0  0  0  0  0  0  0  0  0
   -9.4219    2.5924   -7.4329 N   0  0  0  0  0  0  0  0  0  0  0  0
   -9.0024    1.9265   -8.6924 C   0  0  0  0  0  0  0  0  0  0  0  0
   -8.8041    7.8035   -9.1385 C   0  0  0  0  0  0  0  0  0  0  0  0
   -8.6570    8.9793   -8.4209 C   0  0  0  0  0  0  0  0  0  0  0  0
   -7.7846    9.1330   -7.4054 N   0  0  0  0  0  0  0  0  0  0  0  0
  1  2  1  0
  2  3  1  0
  3  4  2  0
  4  5  1  0
  5  6  1  0
  6  7  2  0
  7  8  1  0
  8  9  1  0
  9 10  1  0
 10 11  2  0
 10 12  1  0
 12 13  2  0
 13 14  1  0
 14 15  1  0
 14 16  2  0
 16 17  1  0
 17 18  2  0
 18 19  1  0
 19 20  2  0
 20 21  1  0
 21 22  1  0
  8 23  2  0
 23 24  1  0
 24 25  2  0
 25 26  1  0
 26 27  1  0
 27 28  1  0
  5 29  2  0
 29 30  1  0
 30 31  2  0
 31  3  1  0
 25  6  1  0
 18 12  1  0
 28 24  1  0
 21 17  1  0
M  END
>  <smiles>  (1256) 
C19159-P180

>  <fragmenstein_outcome>  (1256) 
acceptable

>  <inchikey>  (1256) 
BXOMASCUJMKFAA-UHFFFAOYSA-N

>  <fragmenstein_mode>  (1256) 
expansion

>  <HIPPO Pose ID>  (1256) 
20795

>  <Energy>  (1256) 
-12.763715

>  <fragmenstein_error>  (1256) 


>  <tags>  (1256) 
{'openbind_xx01zvns2b_c1_fragmenstein', 'fragmenstein_placed'}

>  <ref_pdb>  (1256) 
175

>  <scratch_subdir>  (1256) 
/opt/xchem-fragalysis-2/maxwin/BulkDock/SCRATCH/511028/C19159-P180

>  <alias>  (1256) 
COc1cc(-c2cc(NC(=O)c3cc(F)cc4c3cnn4N)cc3c2CNC3)ccn1

>  <HIPPO Compound ID>  (1256) 
19159

>  <fragmenstein_runtime>  (1256) 
6.674486

$$$$
C=N[C@H]1CC2=C(CNN2)[C@H](C(=O)Nc2cc3c(c(-c4ccnc(OC)c4)c2)CNC3)C1
     RDKit          3D

 31 35  0  0  0  0  0  0  0  0999 V2000
  -10.5857    4.7306  -18.5287 C   0  0  0  0  0  0  0  0  0  0  0  0
  -10.2125    4.4424  -17.3466 N   0  0  0  0  0  0  0  0  0  0  0  0
   -8.8829    3.8901  -17.1394 C   0  0  1  0  0  0  0  0  0  0  0  0
   -7.7784    4.4876  -18.0511 C   0  0  0  0  0  0  0  0  0  0  0  0
   -6.5429    4.8907  -17.3335 C   0  0  0  0  0  0  0  0  0  0  0  0
   -6.4895    5.1230  -16.0256 C   0  0  0  0  0  0  0  0  0  0  0  0
   -5.0971    5.4871  -15.6650 C   0  0  0  0  0  0  0  0  0  0  0  0
   -4.3327    5.3112  -16.9432 N   0  0  0  0  0  0  0  0  0  0  0  0
   -5.3310    5.1138  -17.9440 N   0  0  0  0  0  0  0  0  0  0  0  0
   -7.7035    5.0955  -15.1725 C   0  0  2  0  0  0  0  0  0  0  0  0
   -7.4017    5.3511  -13.6784 C   0  0  0  0  0  0  0  0  0  0  0  0
   -6.9070    6.3697  -13.3709 O   0  0  0  0  0  0  0  0  0  0  0  0
   -7.9303    4.1790  -12.7977 N   0  0  0  0  0  0  0  0  0  0  0  0
   -8.0407    4.0667  -11.4180 C   0  0  0  0  0  0  0  0  0  0  0  0
   -8.4653    2.8822  -10.8306 C   0  0  0  0  0  0  0  0  0  0  0  0
   -8.6727    2.8759   -9.4588 C   0  0  0  0  0  0  0  0  0  0  0  0
   -8.4971    4.0199   -8.6764 C   0  0  0  0  0  0  0  0  0  0  0  0
   -8.0738    5.2108   -9.2434 C   0  0  0  0  0  0  0  0  0  0  0  0
   -7.9924    6.4863   -8.5338 C   0  0  0  0  0  0  0  0  0  0  0  0
   -7.2572    6.6751   -7.3668 C   0  0  0  0  0  0  0  0  0  0  0  0
   -7.1837    7.9544   -6.8339 C   0  0  0  0  0  0  0  0  0  0  0  0
   -7.7796    9.0382   -7.3751 N   0  0  0  0  0  0  0  0  0  0  0  0
   -8.5240    8.8239   -8.4736 C   0  0  0  0  0  0  0  0  0  0  0  0
   -9.0832    9.9346   -9.0347 O   0  0  0  0  0  0  0  0  0  0  0  0
  -10.4701    9.7727   -9.3123 C   0  0  0  0  0  0  0  0  0  0  0  0
   -8.6434    7.5941   -9.0830 C   0  0  0  0  0  0  0  0  0  0  0  0
   -7.8121    5.1944  -10.6258 C   0  0  0  0  0  0  0  0  0  0  0  0
   -8.8681    3.6920   -7.2664 C   0  0  0  0  0  0  0  0  0  0  0  0
   -9.5834    2.3963   -7.3304 N   0  0  0  0  0  0  0  0  0  0  0  0
   -9.1003    1.7504   -8.5780 C   0  0  0  0  0  0  0  0  0  0  0  0
   -8.6508    3.9891  -15.6117 C   0  0  0  0  0  0  0  0  0  0  0  0
  1  2  2  0
  3  2  1  1
  3  4  1  0
  4  5  1  0
  5  6  2  0
  6  7  1  0
  7  8  1  0
  8  9  1  0
  6 10  1  0
 10 11  1  1
 11 12  2  0
 11 13  1  0
 13 14  1  0
 14 15  2  0
 15 16  1  0
 16 17  2  0
 17 18  1  0
 18 19  1  0
 19 20  2  0
 20 21  1  0
 21 22  2  0
 22 23  1  0
 23 24  1  0
 24 25  1  0
 23 26  2  0
 18 27  2  0
 17 28  1  0
 28 29  1  0
 29 30  1  0
 10 31  1  0
 31  3  1  0
  9  5  1  0
 27 14  1  0
 30 16  1  0
 26 19  1  0
M  END
>  <smiles>  (1257) 
C19168-P180

>  <fragmenstein_outcome>  (1257) 
acceptable

>  <inchikey>  (1257) 
XYHCJXSENSYPMP-UHFFFAOYSA-N

>  <fragmenstein_mode>  (1257) 
expansion

>  <HIPPO Pose ID>  (1257) 
20796

>  <Energy>  (1257) 
102.929466

>  <fragmenstein_error>  (1257) 


>  <tags>  (1257) 
{'openbind_xx01zvns2b_c1_fragmenstein', 'fragmenstein_placed'}

>  <ref_pdb>  (1257) 
175

>  <scratch_subdir>  (1257) 
/opt/xchem-fragalysis-2/maxwin/BulkDock/SCRATCH/511028/C19168-P180

>  <alias>  (1257) 
C=N[C@H]1CC2=C(CNN2)[C@H](C(=O)Nc2cc3c(c(-c4ccnc(OC)c4)c2)CNC3)C1

>  <HIPPO Compound ID>  (1257) 
24968

>  <fragmenstein_runtime>  (1257) 
8.364548

$$$$
COc1cc(-c2cc(NC(=O)c3cc(F)cc4c3[C@H](O)[C@]3(CSCN3)N4)cc3c2CNC3)ccn1
     RDKit          3D

 35 40  0  0  0  0  0  0  0  0999 V2000
   -6.0257    9.4439   -5.3710 C   0  0  0  0  0  0  0  0  0  0  0  0
   -6.0220    8.1796   -6.0260 O   0  0  0  0  0  0  0  0  0  0  0  0
   -6.9810    8.0924   -7.0189 C   0  0  0  0  0  0  0  0  0  0  0  0
   -7.0815    6.8682   -7.6619 C   0  0  0  0  0  0  0  0  0  0  0  0
   -8.0296    6.7123   -8.6749 C   0  0  0  0  0  0  0  0  0  0  0  0
   -8.1748    5.4468   -9.4059 C   0  0  0  0  0  0  0  0  0  0  0  0
   -8.0472    5.4238  -10.8086 C   0  0  0  0  0  0  0  0  0  0  0  0
   -8.2458    4.2505  -11.5536 C   0  0  0  0  0  0  0  0  0  0  0  0
   -8.1519    4.2718  -12.9436 N   0  0  0  0  0  0  0  0  0  0  0  0
   -7.5940    5.3530  -13.8949 C   0  0  0  0  0  0  0  0  0  0  0  0
   -7.1959    6.4278  -13.6693 O   0  0  0  0  0  0  0  0  0  0  0  0
   -7.6175    4.9259  -15.3143 C   0  0  0  0  0  0  0  0  0  0  0  0
   -8.7814    4.3796  -15.8645 C   0  0  0  0  0  0  0  0  0  0  0  0
   -8.8304    4.0965  -17.2296 C   0  0  0  0  0  0  0  0  0  0  0  0
   -9.9598    3.5982  -17.7485 F   0  0  0  0  0  0  0  0  0  0  0  0
   -7.7369    4.3336  -18.0576 C   0  0  0  0  0  0  0  0  0  0  0  0
   -6.5813    4.8585  -17.4984 C   0  0  0  0  0  0  0  0  0  0  0  0
   -6.5233    5.1740  -16.1457 C   0  0  0  0  0  0  0  0  0  0  0  0
   -5.1530    5.6805  -15.8138 C   0  0  2  0  0  0  0  0  0  0  0  0
   -5.1529    6.9659  -15.2040 O   0  0  0  0  0  0  0  0  0  0  0  0
   -4.4224    5.6750  -17.2391 C   0  0  1  0  0  0  0  0  0  0  0  0
   -4.1180    7.1160  -17.7264 C   0  0  0  0  0  0  0  0  0  0  0  0
   -2.7564    6.9321  -18.9185 S   0  0  0  0  0  0  0  0  0  0  0  0
   -2.3295    5.2976  -18.3296 C   0  0  0  0  0  0  0  0  0  0  0  0
   -3.0764    5.0527  -17.1034 N   0  0  0  0  0  0  0  0  0  0  0  0
   -5.3747    5.0683  -18.2026 N   0  0  0  0  0  0  0  0  0  0  0  0
   -8.5664    3.0596  -10.9073 C   0  0  0  0  0  0  0  0  0  0  0  0
   -8.6720    3.0716   -9.5250 C   0  0  0  0  0  0  0  0  0  0  0  0
   -8.4763    4.2362   -8.7855 C   0  0  0  0  0  0  0  0  0  0  0  0
   -8.6731    3.9259   -7.3377 C   0  0  0  0  0  0  0  0  0  0  0  0
   -9.1188    2.5176   -7.2520 N   0  0  0  0  0  0  0  0  0  0  0  0
   -8.9931    1.9375   -8.6124 C   0  0  0  0  0  0  0  0  0  0  0  0
   -8.8357    7.8151   -8.9849 C   0  0  0  0  0  0  0  0  0  0  0  0
   -8.6643    8.9968   -8.2833 C   0  0  0  0  0  0  0  0  0  0  0  0
   -7.7381    9.1668   -7.3191 N   0  0  0  0  0  0  0  0  0  0  0  0
  1  2  1  0
  2  3  1  0
  3  4  2  0
  4  5  1  0
  5  6  1  0
  6  7  2  0
  7  8  1  0
  8  9  1  0
  9 10  1  0
 10 11  2  0
 10 12  1  0
 12 13  2  0
 13 14  1  0
 14 15  1  0
 14 16  2  0
 16 17  1  0
 17 18  2  0
 18 19  1  0
 19 20  1  6
 19 21  1  0
 21 22  1  6
 22 23  1  0
 23 24  1  0
 24 25  1  0
 21 26  1  0
  8 27  2  0
 27 28  1  0
 28 29  2  0
 29 30  1  0
 30 31  1  0
 31 32  1  0
  5 33  2  0
 33 34  1  0
 34 35  2  0
 35  3  1  0
 29  6  1  0
 18 12  1  0
 25 21  1  0
 32 28  1  0
 26 17  1  0
M  END
>  <smiles>  (1258) 
C19170-P180

>  <fragmenstein_outcome>  (1258) 
acceptable

>  <inchikey>  (1258) 
WSYZTOJLOXBRFF-UHFFFAOYSA-N

>  <fragmenstein_mode>  (1258) 
expansion

>  <HIPPO Pose ID>  (1258) 
20797

>  <Energy>  (1258) 
43.320345

>  <fragmenstein_error>  (1258) 


>  <tags>  (1258) 
{'openbind_xx01zvns2b_c1_fragmenstein', 'fragmenstein_placed'}

>  <ref_pdb>  (1258) 
175

>  <scratch_subdir>  (1258) 
/opt/xchem-fragalysis-2/maxwin/BulkDock/SCRATCH/511028/C19170-P180

>  <alias>  (1258) 
COc1cc(-c2cc(NC(=O)c3cc(F)cc4c3[C@H](O)[C@]3(CSCN3)N4)cc3c2CNC3)ccn1

>  <HIPPO Compound ID>  (1258) 
33461

>  <fragmenstein_runtime>  (1258) 
8.343316

$$$$
COc1cc(-c2cc(NC(=O)c3cc(F)cc4nn(N)cc34)cc3c2CNC3)ccn1
     RDKit          3D

 31 35  0  0  0  0  0  0  0  0999 V2000
   -6.1005    9.5256   -5.4230 C   0  0  0  0  0  0  0  0  0  0  0  0
   -6.0525    8.2642   -6.0816 O   0  0  0  0  0  0  0  0  0  0  0  0
   -6.9949    8.1537   -7.0879 C   0  0  0  0  0  0  0  0  0  0  0  0
   -7.0537    6.9295   -7.7356 C   0  0  0  0  0  0  0  0  0  0  0  0
   -7.9863    6.7499   -8.7594 C   0  0  0  0  0  0  0  0  0  0  0  0
   -8.1012    5.4763   -9.4806 C   0  0  0  0  0  0  0  0  0  0  0  0
   -7.9126    5.4278  -10.8779 C   0  0  0  0  0  0  0  0  0  0  0  0
   -8.0908    4.2414  -11.6062 C   0  0  0  0  0  0  0  0  0  0  0  0
   -7.9123    4.2006  -12.9891 N   0  0  0  0  0  0  0  0  0  0  0  0
   -7.4836    5.3089  -13.9803 C   0  0  0  0  0  0  0  0  0  0  0  0
   -7.1390    6.4075  -13.7846 O   0  0  0  0  0  0  0  0  0  0  0  0
   -7.6139    4.8571  -15.3762 C   0  0  0  0  0  0  0  0  0  0  0  0
   -8.8257    4.3545  -15.8961 C   0  0  0  0  0  0  0  0  0  0  0  0
   -9.0136    4.0628  -17.2758 C   0  0  0  0  0  0  0  0  0  0  0  0
  -10.2197    3.6269  -17.6639 F   0  0  0  0  0  0  0  0  0  0  0  0
   -8.0314    4.2294  -18.2634 C   0  0  0  0  0  0  0  0  0  0  0  0
   -6.8095    4.7084  -17.7686 C   0  0  0  0  0  0  0  0  0  0  0  0
   -5.6623    4.9568  -18.4170 N   0  0  0  0  0  0  0  0  0  0  0  0
   -4.8088    5.3533  -17.4781 N   0  0  0  0  0  0  0  0  0  0  0  0
   -3.4820    5.6431  -17.8009 N   0  0  0  0  0  0  0  0  0  0  0  0
   -5.3422    5.4359  -16.2274 C   0  0  0  0  0  0  0  0  0  0  0  0
   -6.6372    5.0082  -16.3658 C   0  0  0  0  0  0  0  0  0  0  0  0
   -8.4641    3.0700  -10.9475 C   0  0  0  0  0  0  0  0  0  0  0  0
   -8.6195    3.1061   -9.5708 C   0  0  0  0  0  0  0  0  0  0  0  0
   -8.4305    4.2794   -8.8464 C   0  0  0  0  0  0  0  0  0  0  0  0
   -8.6851    3.9997   -7.4015 C   0  0  0  0  0  0  0  0  0  0  0  0
   -8.9316    2.5452   -7.2758 N   0  0  0  0  0  0  0  0  0  0  0  0
   -9.0178    2.0005   -8.6547 C   0  0  0  0  0  0  0  0  0  0  0  0
   -8.8164    7.8307   -9.0793 C   0  0  0  0  0  0  0  0  0  0  0  0
   -8.6858    9.0148   -8.3727 C   0  0  0  0  0  0  0  0  0  0  0  0
   -7.7786    9.2072   -7.3944 N   0  0  0  0  0  0  0  0  0  0  0  0
  1  2  1  0
  2  3  1  0
  3  4  2  0
  4  5  1  0
  5  6  1  0
  6  7  2  0
  7  8  1  0
  8  9  1  0
  9 10  1  0
 10 11  2  0
 10 12  1  0
 12 13  2  0
 13 14  1  0
 14 15  1  0
 14 16  2  0
 16 17  1  0
 17 18  2  0
 18 19  1  0
 19 20  1  0
 19 21  1  0
 21 22  2  0
  8 23  2  0
 23 24  1  0
 24 25  2  0
 25 26  1  0
 26 27  1  0
 27 28  1  0
  5 29  2  0
 29 30  1  0
 30 31  2  0
 31  3  1  0
 25  6  1  0
 22 12  1  0
 28 24  1  0
 22 17  1  0
M  END
>  <smiles>  (1259) 
C19173-P180

>  <fragmenstein_outcome>  (1259) 
acceptable

>  <inchikey>  (1259) 
OOGHMIRSEDTBAO-UHFFFAOYSA-N

>  <fragmenstein_mode>  (1259) 
expansion

>  <HIPPO Pose ID>  (1259) 
20798

>  <Energy>  (1259) 
-36.271025

>  <fragmenstein_error>  (1259) 


>  <tags>  (1259) 
{'openbind_xx01zvns2b_c1_fragmenstein', 'fragmenstein_placed'}

>  <ref_pdb>  (1259) 
175

>  <scratch_subdir>  (1259) 
/opt/xchem-fragalysis-2/maxwin/BulkDock/SCRATCH/511028/C19173-P180

>  <alias>  (1259) 
COc1cc(-c2cc(NC(=O)c3cc(F)cc4nn(N)cc34)cc3c2CNC3)ccn1

>  <HIPPO Compound ID>  (1259) 
28021

>  <fragmenstein_runtime>  (1259) 
4.491179

$$$$
COc1cc(-c2cc(NC(=O)c3cc(F)cc4nn(Br)cc34)cc3c2CNC3)ccn1
     RDKit          3D

 31 35  0  0  0  0  0  0  0  0999 V2000
   -8.0577    8.8630   -4.6115 C   0  0  0  0  0  0  0  0  0  0  0  0
   -8.8115    8.2318   -5.6337 O   0  0  0  0  0  0  0  0  0  0  0  0
   -8.0515    7.9845   -6.7616 C   0  0  0  0  0  0  0  0  0  0  0  0
   -8.4775    6.9201   -7.5328 C   0  0  0  0  0  0  0  0  0  0  0  0
   -7.7346    6.5253   -8.6458 C   0  0  0  0  0  0  0  0  0  0  0  0
   -8.0717    5.3070   -9.4083 C   0  0  0  0  0  0  0  0  0  0  0  0
   -7.9904    5.2852  -10.8186 C   0  0  0  0  0  0  0  0  0  0  0  0
   -8.2830    4.1314  -11.5657 C   0  0  0  0  0  0  0  0  0  0  0  0
   -8.2129    4.1294  -12.9580 N   0  0  0  0  0  0  0  0  0  0  0  0
   -7.6885    5.2047  -13.9396 C   0  0  0  0  0  0  0  0  0  0  0  0
   -7.3049    6.2900  -13.7396 O   0  0  0  0  0  0  0  0  0  0  0  0
   -7.7815    4.7564  -15.3416 C   0  0  0  0  0  0  0  0  0  0  0  0
   -8.9439    4.1965  -15.9049 C   0  0  0  0  0  0  0  0  0  0  0  0
   -9.0833    3.9140  -17.2934 C   0  0  0  0  0  0  0  0  0  0  0  0
  -10.2609    3.4351  -17.7152 F   0  0  0  0  0  0  0  0  0  0  0  0
   -8.0852    4.1274  -18.2520 C   0  0  0  0  0  0  0  0  0  0  0  0
   -6.9135    4.6756  -17.7191 C   0  0  0  0  0  0  0  0  0  0  0  0
   -5.7731    5.0192  -18.3327 N   0  0  0  0  0  0  0  0  0  0  0  0
   -4.9707    5.4218  -17.3512 N   0  0  0  0  0  0  0  0  0  0  0  0
   -3.2086    5.8610  -17.6976 Br  0  0  0  0  0  0  0  0  0  0  0  0
   -5.5311    5.4629  -16.1157 C   0  0  0  0  0  0  0  0  0  0  0  0
   -6.7958    4.9703  -16.3063 C   0  0  0  0  0  0  0  0  0  0  0  0
   -8.6626    2.9605  -10.9164 C   0  0  0  0  0  0  0  0  0  0  0  0
   -8.7341    2.9672   -9.5339 C   0  0  0  0  0  0  0  0  0  0  0  0
   -8.4534    4.1110   -8.7915 C   0  0  0  0  0  0  0  0  0  0  0  0
   -8.6378    3.7838   -7.3424 C   0  0  0  0  0  0  0  0  0  0  0  0
   -8.9149    2.3383   -7.2431 N   0  0  0  0  0  0  0  0  0  0  0  0
   -9.0928    1.8420   -8.6261 C   0  0  0  0  0  0  0  0  0  0  0  0
   -6.6306    7.3198   -8.9755 C   0  0  0  0  0  0  0  0  0  0  0  0
   -6.3070    8.4043   -8.1689 C   0  0  0  0  0  0  0  0  0  0  0  0
   -6.9773    8.7418   -7.0470 N   0  0  0  0  0  0  0  0  0  0  0  0
  1  2  1  0
  2  3  1  0
  3  4  2  0
  4  5  1  0
  5  6  1  0
  6  7  2  0
  7  8  1  0
  8  9  1  0
  9 10  1  0
 10 11  2  0
 10 12  1  0
 12 13  2  0
 13 14  1  0
 14 15  1  0
 14 16  2  0
 16 17  1  0
 17 18  2  0
 18 19  1  0
 19 20  1  0
 19 21  1  0
 21 22  2  0
  8 23  2  0
 23 24  1  0
 24 25  2  0
 25 26  1  0
 26 27  1  0
 27 28  1  0
  5 29  2  0
 29 30  1  0
 30 31  2  0
 31  3  1  0
 25  6  1  0
 22 12  1  0
 28 24  1  0
 22 17  1  0
M  END
>  <smiles>  (1260) 
C19214-P181

>  <fragmenstein_outcome>  (1260) 
acceptable

>  <inchikey>  (1260) 
OQWWVPWQMQOOGF-UHFFFAOYSA-N

>  <fragmenstein_mode>  (1260) 
expansion

>  <HIPPO Pose ID>  (1260) 
20805

>  <Energy>  (1260) 
25.988928

>  <fragmenstein_error>  (1260) 


>  <tags>  (1260) 
{'openbind_xx01zvns2b_c1_fragmenstein', 'fragmenstein_placed'}

>  <ref_pdb>  (1260) 
175

>  <scratch_subdir>  (1260) 
/opt/xchem-fragalysis-2/maxwin/BulkDock/SCRATCH/511028/C19214-P181

>  <alias>  (1260) 
COc1cc(-c2cc(NC(=O)c3cc(F)cc4nn(Br)cc34)cc3c2CNC3)ccn1

>  <HIPPO Compound ID>  (1260) 
19214

>  <fragmenstein_runtime>  (1260) 
3.774286

$$$$
CCc1cc(CNN)c(C(=O)Nc2cc3c(c(-c4ccnc(OC)c4)c2)CNC3)cc1F
     RDKit          3D

 32 35  0  0  0  0  0  0  0  0999 V2000
   -6.7147    3.9959  -19.8095 C   0  0  0  0  0  0  0  0  0  0  0  0
   -8.0360    3.7957  -19.0712 C   0  0  0  0  0  0  0  0  0  0  0  0
   -8.0060    4.3326  -17.6849 C   0  0  0  0  0  0  0  0  0  0  0  0
   -6.9359    5.0905  -17.2204 C   0  0  0  0  0  0  0  0  0  0  0  0
   -6.7317    5.3415  -15.8687 C   0  0  0  0  0  0  0  0  0  0  0  0
   -5.4307    5.9498  -15.3842 C   0  0  0  0  0  0  0  0  0  0  0  0
   -4.4382    6.2840  -16.4335 N   0  0  0  0  0  0  0  0  0  0  0  0
   -3.8329    5.1143  -17.0083 N   0  0  0  0  0  0  0  0  0  0  0  0
   -7.7636    4.9652  -14.9983 C   0  0  0  0  0  0  0  0  0  0  0  0
   -7.7374    5.3615  -13.5750 C   0  0  0  0  0  0  0  0  0  0  0  0
   -7.4935    6.4729  -13.3155 O   0  0  0  0  0  0  0  0  0  0  0  0
   -8.1543    4.1888  -12.6616 N   0  0  0  0  0  0  0  0  0  0  0  0
   -8.2620    4.1169  -11.2834 C   0  0  0  0  0  0  0  0  0  0  0  0
   -8.6327    2.9169  -10.6954 C   0  0  0  0  0  0  0  0  0  0  0  0
   -8.7855    2.8974   -9.3230 C   0  0  0  0  0  0  0  0  0  0  0  0
   -8.5634    4.0306   -8.5321 C   0  0  0  0  0  0  0  0  0  0  0  0
   -8.1408    5.2346   -9.0975 C   0  0  0  0  0  0  0  0  0  0  0  0
   -7.7904    6.4409   -8.3306 C   0  0  0  0  0  0  0  0  0  0  0  0
   -6.6599    7.2061   -8.6560 C   0  0  0  0  0  0  0  0  0  0  0  0
   -6.3408    8.3167   -7.8884 C   0  0  0  0  0  0  0  0  0  0  0  0
   -7.0398    8.7045   -6.8042 N   0  0  0  0  0  0  0  0  0  0  0  0
   -8.1289    7.9665   -6.5179 C   0  0  0  0  0  0  0  0  0  0  0  0
   -8.9168    8.2812   -5.4286 O   0  0  0  0  0  0  0  0  0  0  0  0
   -8.1538    8.8721   -4.3891 C   0  0  0  0  0  0  0  0  0  0  0  0
   -8.5542    6.8772   -7.2538 C   0  0  0  0  0  0  0  0  0  0  0  0
   -8.0235    5.2517  -10.4988 C   0  0  0  0  0  0  0  0  0  0  0  0
   -8.8078    3.6366   -7.1061 C   0  0  0  0  0  0  0  0  0  0  0  0
   -9.5089    2.3333   -7.1532 N   0  0  0  0  0  0  0  0  0  0  0  0
   -9.1343    1.7381   -8.4535 C   0  0  0  0  0  0  0  0  0  0  0  0
   -8.9183    4.3317  -15.4775 C   0  0  0  0  0  0  0  0  0  0  0  0
   -9.0263    4.0170  -16.8154 C   0  0  0  0  0  0  0  0  0  0  0  0
  -10.1251    3.4221  -17.2862 F   0  0  0  0  0  0  0  0  0  0  0  0
  1  2  1  0
  2  3  1  0
  3  4  2  0
  4  5  1  0
  5  6  1  0
  6  7  1  0
  7  8  1  0
  5  9  2  0
  9 10  1  0
 10 11  2  0
 10 12  1  0
 12 13  1  0
 13 14  2  0
 14 15  1  0
 15 16  2  0
 16 17  1  0
 17 18  1  0
 18 19  2  0
 19 20  1  0
 20 21  2  0
 21 22  1  0
 22 23  1  0
 23 24  1  0
 22 25  2  0
 17 26  2  0
 16 27  1  0
 27 28  1  0
 28 29  1  0
  9 30  1  0
 30 31  2  0
 31 32  1  0
 31  3  1  0
 26 13  1  0
 29 15  1  0
 25 18  1  0
M  END
>  <smiles>  (1261) 
C19215-P181

>  <fragmenstein_outcome>  (1261) 
acceptable

>  <inchikey>  (1261) 
RCAXGXSOYIGJMU-UHFFFAOYSA-N

>  <fragmenstein_mode>  (1261) 
expansion

>  <HIPPO Pose ID>  (1261) 
20806

>  <Energy>  (1261) 
107.821441

>  <fragmenstein_error>  (1261) 


>  <tags>  (1261) 
{'openbind_xx01zvns2b_c1_fragmenstein', 'fragmenstein_placed'}

>  <ref_pdb>  (1261) 
175

>  <scratch_subdir>  (1261) 
/opt/xchem-fragalysis-2/maxwin/BulkDock/SCRATCH/511028/C19215-P181

>  <alias>  (1261) 
CCc1cc(CNN)c(C(=O)Nc2cc3c(c(-c4ccnc(OC)c4)c2)CNC3)cc1F

>  <HIPPO Compound ID>  (1261) 
19215

>  <fragmenstein_runtime>  (1261) 
4.414638

$$$$
COc1cc(-c2cc(C(=O)C(=O)c3cc(F)cc4c3cnn4C)cc3c2CNC3)ccn1
     RDKit          3D

 32 36  0  0  0  0  0  0  0  0999 V2000
   -8.1016    8.8136   -4.4556 C   0  0  0  0  0  0  0  0  0  0  0  0
   -8.8578    8.2525   -5.5167 O   0  0  0  0  0  0  0  0  0  0  0  0
   -8.0739    7.9944   -6.6242 C   0  0  0  0  0  0  0  0  0  0  0  0
   -8.5108    6.9565   -7.4239 C   0  0  0  0  0  0  0  0  0  0  0  0
   -7.7545    6.5772   -8.5293 C   0  0  0  0  0  0  0  0  0  0  0  0
   -8.1205    5.4227   -9.3617 C   0  0  0  0  0  0  0  0  0  0  0  0
   -8.1202    5.5419  -10.7620 C   0  0  0  0  0  0  0  0  0  0  0  0
   -8.4122    4.4477  -11.5946 C   0  0  0  0  0  0  0  0  0  0  0  0
   -8.5798    4.7379  -13.0250 C   0  0  0  0  0  0  0  0  0  0  0  0
   -9.6539    5.1412  -13.4585 O   0  0  0  0  0  0  0  0  0  0  0  0
   -7.3887    4.7464  -13.9434 C   0  0  0  0  0  0  0  0  0  0  0  0
   -6.2937    5.0126  -13.4632 O   0  0  0  0  0  0  0  0  0  0  0  0
   -7.5913    4.5518  -15.4010 C   0  0  0  0  0  0  0  0  0  0  0  0
   -8.7830    4.0221  -15.9266 C   0  0  0  0  0  0  0  0  0  0  0  0
   -8.9631    3.8904  -17.2934 C   0  0  0  0  0  0  0  0  0  0  0  0
  -10.1206    3.4084  -17.7599 F   0  0  0  0  0  0  0  0  0  0  0  0
   -7.9730    4.2457  -18.1938 C   0  0  0  0  0  0  0  0  0  0  0  0
   -6.7909    4.7820  -17.6732 C   0  0  0  0  0  0  0  0  0  0  0  0
   -6.5781    4.9397  -16.3038 C   0  0  0  0  0  0  0  0  0  0  0  0
   -5.2834    5.5044  -16.2196 C   0  0  0  0  0  0  0  0  0  0  0  0
   -4.7239    5.7105  -17.4151 N   0  0  0  0  0  0  0  0  0  0  0  0
   -5.6500    5.2442  -18.2773 N   0  0  0  0  0  0  0  0  0  0  0  0
   -5.3881    5.3037  -19.6951 C   0  0  0  0  0  0  0  0  0  0  0  0
   -8.6865    3.1882  -11.0662 C   0  0  0  0  0  0  0  0  0  0  0  0
   -8.7230    3.0768   -9.6850 C   0  0  0  0  0  0  0  0  0  0  0  0
   -8.4776    4.1738   -8.8474 C   0  0  0  0  0  0  0  0  0  0  0  0
   -8.6568    3.7166   -7.4294 C   0  0  0  0  0  0  0  0  0  0  0  0
   -9.3441    2.4113   -7.5050 N   0  0  0  0  0  0  0  0  0  0  0  0
   -9.0187    1.8749   -8.8445 C   0  0  0  0  0  0  0  0  0  0  0  0
   -6.6143    7.3405   -8.8117 C   0  0  0  0  0  0  0  0  0  0  0  0
   -6.2793    8.3961   -7.9755 C   0  0  0  0  0  0  0  0  0  0  0  0
   -6.9746    8.7314   -6.8701 N   0  0  0  0  0  0  0  0  0  0  0  0
  1  2  1  0
  2  3  1  0
  3  4  2  0
  4  5  1  0
  5  6  1  0
  6  7  2  0
  7  8  1  0
  8  9  1  0
  9 10  2  0
  9 11  1  0
 11 12  2  0
 11 13  1  0
 13 14  2  0
 14 15  1  0
 15 16  1  0
 15 17  2  0
 17 18  1  0
 18 19  2  0
 19 20  1  0
 20 21  2  0
 21 22  1  0
 22 23  1  0
  8 24  2  0
 24 25  1  0
 25 26  2  0
 26 27  1  0
 27 28  1  0
 28 29  1  0
  5 30  2  0
 30 31  1  0
 31 32  2  0
 32  3  1  0
 26  6  1  0
 19 13  1  0
 29 25  1  0
 22 18  1  0
M  END
>  <smiles>  (1262) 
C19216-P181

>  <fragmenstein_outcome>  (1262) 
acceptable

>  <inchikey>  (1262) 
YXXOKFOKTOGSAH-UHFFFAOYSA-N

>  <fragmenstein_mode>  (1262) 
expansion

>  <HIPPO Pose ID>  (1262) 
20807

>  <Energy>  (1262) 
101.548498

>  <fragmenstein_error>  (1262) 


>  <tags>  (1262) 
{'openbind_xx01zvns2b_c1_fragmenstein', 'fragmenstein_placed'}

>  <ref_pdb>  (1262) 
175

>  <scratch_subdir>  (1262) 
/opt/xchem-fragalysis-2/maxwin/BulkDock/SCRATCH/511028/C19216-P181

>  <alias>  (1262) 
COc1cc(-c2cc(C(=O)C(=O)c3cc(F)cc4c3cnn4C)cc3c2CNC3)ccn1

>  <HIPPO Compound ID>  (1262) 
19216

>  <fragmenstein_runtime>  (1262) 
2.38491

$$$$
COc1cc(-c2cc(C(=O)C(=O)c3cc(F)cc4[nH]ncc34)cc3c2CNC3)ccn1
     RDKit          3D

 31 35  0  0  0  0  0  0  0  0999 V2000
   -8.1624    8.8174   -4.3719 C   0  0  0  0  0  0  0  0  0  0  0  0
   -8.8980    8.2465   -5.4421 O   0  0  0  0  0  0  0  0  0  0  0  0
   -8.0949    7.9939   -6.5363 C   0  0  0  0  0  0  0  0  0  0  0  0
   -8.5143    6.9561   -7.3453 C   0  0  0  0  0  0  0  0  0  0  0  0
   -7.7401    6.5920   -8.4417 C   0  0  0  0  0  0  0  0  0  0  0  0
   -8.0930    5.4555   -9.3006 C   0  0  0  0  0  0  0  0  0  0  0  0
   -8.0699    5.6141  -10.6936 C   0  0  0  0  0  0  0  0  0  0  0  0
   -8.3336    4.5451  -11.5657 C   0  0  0  0  0  0  0  0  0  0  0  0
   -8.4741    4.9164  -12.9770 C   0  0  0  0  0  0  0  0  0  0  0  0
   -9.4503    5.5702  -13.3300 O   0  0  0  0  0  0  0  0  0  0  0  0
   -7.3335    4.7466  -13.9423 C   0  0  0  0  0  0  0  0  0  0  0  0
   -6.1969    4.8866  -13.5070 O   0  0  0  0  0  0  0  0  0  0  0  0
   -7.6130    4.5576  -15.3874 C   0  0  0  0  0  0  0  0  0  0  0  0
   -8.8523    4.0833  -15.8483 C   0  0  0  0  0  0  0  0  0  0  0  0
   -9.0945    3.9283  -17.2083 C   0  0  0  0  0  0  0  0  0  0  0  0
  -10.2939    3.5020  -17.6190 F   0  0  0  0  0  0  0  0  0  0  0  0
   -8.1298    4.2092  -18.1630 C   0  0  0  0  0  0  0  0  0  0  0  0
   -6.9127    4.7033  -17.6975 C   0  0  0  0  0  0  0  0  0  0  0  0
   -5.7859    5.0850  -18.3751 N   0  0  0  0  0  0  0  0  0  0  0  0
   -4.8050    5.5529  -17.5754 N   0  0  0  0  0  0  0  0  0  0  0  0
   -5.3111    5.4022  -16.3463 C   0  0  0  0  0  0  0  0  0  0  0  0
   -6.6290    4.8858  -16.3462 C   0  0  0  0  0  0  0  0  0  0  0  0
   -8.6110    3.2683  -11.0839 C   0  0  0  0  0  0  0  0  0  0  0  0
   -8.6824    3.1202   -9.7055 C   0  0  0  0  0  0  0  0  0  0  0  0
   -8.4589    4.1940   -8.8303 C   0  0  0  0  0  0  0  0  0  0  0  0
   -8.6712    3.7010   -7.4298 C   0  0  0  0  0  0  0  0  0  0  0  0
   -9.3568    2.3990   -7.5564 N   0  0  0  0  0  0  0  0  0  0  0  0
   -9.0003    1.8979   -8.9023 C   0  0  0  0  0  0  0  0  0  0  0  0
   -6.5983    7.3625   -8.7020 C   0  0  0  0  0  0  0  0  0  0  0  0
   -6.2817    8.4153   -7.8572 C   0  0  0  0  0  0  0  0  0  0  0  0
   -6.9969    8.7400   -6.7623 N   0  0  0  0  0  0  0  0  0  0  0  0
  1  2  1  0
  2  3  1  0
  3  4  2  0
  4  5  1  0
  5  6  1  0
  6  7  2  0
  7  8  1  0
  8  9  1  0
  9 10  2  0
  9 11  1  0
 11 12  2  0
 11 13  1  0
 13 14  2  0
 14 15  1  0
 15 16  1  0
 15 17  2  0
 17 18  1  0
 18 19  1  0
 19 20  1  0
 20 21  2  0
 21 22  1  0
  8 23  2  0
 23 24  1  0
 24 25  2  0
 25 26  1  0
 26 27  1  0
 27 28  1  0
  5 29  2  0
 29 30  1  0
 30 31  2  0
 31  3  1  0
 25  6  1  0
 22 13  1  0
 28 24  1  0
 22 18  2  0
M  END
>  <smiles>  (1263) 
C19221-P181

>  <fragmenstein_outcome>  (1263) 
acceptable

>  <inchikey>  (1263) 
XATBKAQHYZAGIN-UHFFFAOYSA-N

>  <fragmenstein_mode>  (1263) 
expansion

>  <HIPPO Pose ID>  (1263) 
20809

>  <Energy>  (1263) 
99.637353

>  <fragmenstein_error>  (1263) 


>  <tags>  (1263) 
{'openbind_xx01zvns2b_c1_fragmenstein', 'fragmenstein_placed'}

>  <ref_pdb>  (1263) 
175

>  <scratch_subdir>  (1263) 
/opt/xchem-fragalysis-2/maxwin/BulkDock/SCRATCH/511028/C19221-P181

>  <alias>  (1263) 
COc1cc(-c2cc(C(=O)C(=O)c3cc(F)cc4[nH]ncc34)cc3c2CNC3)ccn1

>  <HIPPO Compound ID>  (1263) 
19221

>  <fragmenstein_runtime>  (1263) 
2.535546

$$$$
COc1cc(-c2cc(C(=O)C(=O)c3cc(F)cc4c(CO)n(C)cc34)cc3c2CNC3)ccn1
     RDKit          3D

 34 38  0  0  0  0  0  0  0  0999 V2000
   -8.1314    8.8770   -4.4006 C   0  0  0  0  0  0  0  0  0  0  0  0
   -8.8712    8.2478   -5.4337 O   0  0  0  0  0  0  0  0  0  0  0  0
   -8.0942    8.0032   -6.5485 C   0  0  0  0  0  0  0  0  0  0  0  0
   -8.5176    6.9520   -7.3367 C   0  0  0  0  0  0  0  0  0  0  0  0
   -7.7697    6.5940   -8.4543 C   0  0  0  0  0  0  0  0  0  0  0  0
   -8.1286    5.4352   -9.2796 C   0  0  0  0  0  0  0  0  0  0  0  0
   -8.1626    5.5583  -10.6747 C   0  0  0  0  0  0  0  0  0  0  0  0
   -8.4617    4.4605  -11.4953 C   0  0  0  0  0  0  0  0  0  0  0  0
   -8.5955    4.7425  -12.9265 C   0  0  0  0  0  0  0  0  0  0  0  0
   -9.6470    5.1557  -13.4005 O   0  0  0  0  0  0  0  0  0  0  0  0
   -7.3713    4.7257  -13.7916 C   0  0  0  0  0  0  0  0  0  0  0  0
   -6.2890    4.9414  -13.2614 O   0  0  0  0  0  0  0  0  0  0  0  0
   -7.5422    4.5453  -15.2384 C   0  0  0  0  0  0  0  0  0  0  0  0
   -8.7158    4.0411  -15.8596 C   0  0  0  0  0  0  0  0  0  0  0  0
   -8.8762    3.8974  -17.2679 C   0  0  0  0  0  0  0  0  0  0  0  0
  -10.0477    3.4269  -17.7197 F   0  0  0  0  0  0  0  0  0  0  0  0
   -7.8914    4.2131  -18.2107 C   0  0  0  0  0  0  0  0  0  0  0  0
   -6.7549    4.7197  -17.5910 C   0  0  0  0  0  0  0  0  0  0  0  0
   -5.6185    5.1693  -18.2222 C   0  0  0  0  0  0  0  0  0  0  0  0
   -5.3178    5.2645  -19.6616 C   0  0  0  0  0  0  0  0  0  0  0  0
   -6.0066    6.4166  -20.0964 O   0  0  0  0  0  0  0  0  0  0  0  0
   -4.7559    5.5926  -17.2282 N   0  0  0  0  0  0  0  0  0  0  0  0
   -3.4394    6.1570  -17.4359 C   0  0  0  0  0  0  0  0  0  0  0  0
   -5.3356    5.4262  -15.9911 C   0  0  0  0  0  0  0  0  0  0  0  0
   -6.5801    4.8814  -16.1893 C   0  0  0  0  0  0  0  0  0  0  0  0
   -8.7190    3.1996  -10.9649 C   0  0  0  0  0  0  0  0  0  0  0  0
   -8.7157    3.0851   -9.5840 C   0  0  0  0  0  0  0  0  0  0  0  0
   -8.4461    4.1783   -8.7574 C   0  0  0  0  0  0  0  0  0  0  0  0
   -8.5793    3.7424   -7.3329 C   0  0  0  0  0  0  0  0  0  0  0  0
   -8.9358    2.3120   -7.3384 N   0  0  0  0  0  0  0  0  0  0  0  0
   -8.9916    1.8780   -8.7528 C   0  0  0  0  0  0  0  0  0  0  0  0
   -6.6528    7.3830   -8.7580 C   0  0  0  0  0  0  0  0  0  0  0  0
   -6.3292    8.4461   -7.9282 C   0  0  0  0  0  0  0  0  0  0  0  0
   -7.0148    8.7641   -6.8117 N   0  0  0  0  0  0  0  0  0  0  0  0
  1  2  1  0
  2  3  1  0
  3  4  2  0
  4  5  1  0
  5  6  1  0
  6  7  2  0
  7  8  1  0
  8  9  1  0
  9 10  2  0
  9 11  1  0
 11 12  2  0
 11 13  1  0
 13 14  2  0
 14 15  1  0
 15 16  1  0
 15 17  2  0
 17 18  1  0
 18 19  2  0
 19 20  1  0
 20 21  1  0
 19 22  1  0
 22 23  1  0
 22 24  1  0
 24 25  2  0
  8 26  2  0
 26 27  1  0
 27 28  2  0
 28 29  1  0
 29 30  1  0
 30 31  1  0
  5 32  2  0
 32 33  1  0
 33 34  2  0
 34  3  1  0
 28  6  1  0
 25 13  1  0
 31 27  1  0
 25 18  1  0
M  END
>  <smiles>  (1264) 
C19223-P181

>  <fragmenstein_outcome>  (1264) 
acceptable

>  <inchikey>  (1264) 
RXPZMFPMJTWGAG-UHFFFAOYSA-N

>  <fragmenstein_mode>  (1264) 
expansion

>  <HIPPO Pose ID>  (1264) 
20810

>  <Energy>  (1264) 
95.695513

>  <fragmenstein_error>  (1264) 


>  <tags>  (1264) 
{'openbind_xx01zvns2b_c1_fragmenstein', 'fragmenstein_placed'}

>  <ref_pdb>  (1264) 
175

>  <scratch_subdir>  (1264) 
/opt/xchem-fragalysis-2/maxwin/BulkDock/SCRATCH/511028/C19223-P181

>  <alias>  (1264) 
COc1cc(-c2cc(C(=O)C(=O)c3cc(F)cc4c(CO)n(C)cc34)cc3c2CNC3)ccn1

>  <HIPPO Compound ID>  (1264) 
19223

>  <fragmenstein_runtime>  (1264) 
3.247429

$$$$
COc1cc(-c2cc(C(=O)C(=O)c3cc(F)cc4c3c(C)nn4CO)cc3c2CNC3)ccn1
     RDKit          3D

 34 38  0  0  0  0  0  0  0  0999 V2000
   -8.1448    8.8689   -4.3750 C   0  0  0  0  0  0  0  0  0  0  0  0
   -8.8811    8.2483   -5.4160 O   0  0  0  0  0  0  0  0  0  0  0  0
   -8.0986    8.0087   -6.5278 C   0  0  0  0  0  0  0  0  0  0  0  0
   -8.5191    6.9628   -7.3243 C   0  0  0  0  0  0  0  0  0  0  0  0
   -7.7662    6.6132   -8.4406 C   0  0  0  0  0  0  0  0  0  0  0  0
   -8.1233    5.4642   -9.2789 C   0  0  0  0  0  0  0  0  0  0  0  0
   -8.1585    5.6066  -10.6715 C   0  0  0  0  0  0  0  0  0  0  0  0
   -8.4456    4.5180  -11.5075 C   0  0  0  0  0  0  0  0  0  0  0  0
   -8.5761    4.8271  -12.9331 C   0  0  0  0  0  0  0  0  0  0  0  0
   -9.5981    5.3361  -13.3799 O   0  0  0  0  0  0  0  0  0  0  0  0
   -7.3696    4.7191  -13.8226 C   0  0  0  0  0  0  0  0  0  0  0  0
   -6.2656    4.8101  -13.3053 O   0  0  0  0  0  0  0  0  0  0  0  0
   -7.5720    4.6003  -15.2797 C   0  0  0  0  0  0  0  0  0  0  0  0
   -8.7645    4.0346  -15.7715 C   0  0  0  0  0  0  0  0  0  0  0  0
   -8.9917    3.9256  -17.1253 C   0  0  0  0  0  0  0  0  0  0  0  0
  -10.1496    3.4321  -17.5758 F   0  0  0  0  0  0  0  0  0  0  0  0
   -8.0386    4.3218  -18.0372 C   0  0  0  0  0  0  0  0  0  0  0  0
   -6.8503    4.8914  -17.5564 C   0  0  0  0  0  0  0  0  0  0  0  0
   -6.5978    5.0683  -16.1934 C   0  0  0  0  0  0  0  0  0  0  0  0
   -5.3509    5.7685  -16.1585 C   0  0  0  0  0  0  0  0  0  0  0  0
   -4.6016    6.3376  -15.0106 C   0  0  0  0  0  0  0  0  0  0  0  0
   -4.8481    5.9610  -17.3833 N   0  0  0  0  0  0  0  0  0  0  0  0
   -5.7346    5.3621  -18.2000 N   0  0  0  0  0  0  0  0  0  0  0  0
   -5.4490    5.3445  -19.6237 C   0  0  0  0  0  0  0  0  0  0  0  0
   -6.1739    4.3080  -20.2498 O   0  0  0  0  0  0  0  0  0  0  0  0
   -8.6920    3.2471  -10.9950 C   0  0  0  0  0  0  0  0  0  0  0  0
   -8.6954    3.1153   -9.6150 C   0  0  0  0  0  0  0  0  0  0  0  0
   -8.4358    4.1998   -8.7735 C   0  0  0  0  0  0  0  0  0  0  0  0
   -8.5680    3.7459   -7.3546 C   0  0  0  0  0  0  0  0  0  0  0  0
   -8.9365    2.3191   -7.3795 N   0  0  0  0  0  0  0  0  0  0  0  0
   -8.9657    1.8965   -8.7983 C   0  0  0  0  0  0  0  0  0  0  0  0
   -6.6457    7.4018   -8.7328 C   0  0  0  0  0  0  0  0  0  0  0  0
   -6.3251    8.4587   -7.8946 C   0  0  0  0  0  0  0  0  0  0  0  0
   -7.0173    8.7707   -6.7808 N   0  0  0  0  0  0  0  0  0  0  0  0
  1  2  1  0
  2  3  1  0
  3  4  2  0
  4  5  1  0
  5  6  1  0
  6  7  2  0
  7  8  1  0
  8  9  1  0
  9 10  2  0
  9 11  1  0
 11 12  2  0
 11 13  1  0
 13 14  2  0
 14 15  1  0
 15 16  1  0
 15 17  2  0
 17 18  1  0
 18 19  2  0
 19 20  1  0
 20 21  1  0
 20 22  2  0
 22 23  1  0
 23 24  1  0
 24 25  1  0
  8 26  2  0
 26 27  1  0
 27 28  2  0
 28 29  1  0
 29 30  1  0
 30 31  1  0
  5 32  2  0
 32 33  1  0
 33 34  2  0
 34  3  1  0
 28  6  1  0
 19 13  1  0
 31 27  1  0
 23 18  1  0
M  END
>  <smiles>  (1265) 
C19224-P181

>  <fragmenstein_outcome>  (1265) 
acceptable

>  <inchikey>  (1265) 
MKJCHLBLIHHNRV-UHFFFAOYSA-N

>  <fragmenstein_mode>  (1265) 
expansion

>  <HIPPO Pose ID>  (1265) 
20811

>  <Energy>  (1265) 
135.358441

>  <fragmenstein_error>  (1265) 


>  <tags>  (1265) 
{'openbind_xx01zvns2b_c1_fragmenstein', 'fragmenstein_placed'}

>  <ref_pdb>  (1265) 
175

>  <scratch_subdir>  (1265) 
/opt/xchem-fragalysis-2/maxwin/BulkDock/SCRATCH/511028/C19224-P181

>  <alias>  (1265) 
COc1cc(-c2cc(C(=O)C(=O)c3cc(F)cc4c3c(C)nn4CO)cc3c2CNC3)ccn1

>  <HIPPO Compound ID>  (1265) 
19224

>  <fragmenstein_runtime>  (1265) 
2.721274

$$$$
COc1cc(-c2cc(C(=O)C(=O)c3cc(F)cc4c3c(C)nn4CO)c(N)c3c2CNC3)ccn1
     RDKit          3D

 35 39  0  0  0  0  0  0  0  0999 V2000
   -7.9763    8.8210   -4.4371 C   0  0  0  0  0  0  0  0  0  0  0  0
   -8.7882    8.5817   -5.5769 O   0  0  0  0  0  0  0  0  0  0  0  0
   -8.0104    8.2483   -6.6667 C   0  0  0  0  0  0  0  0  0  0  0  0
   -8.4753    7.1975   -7.4276 C   0  0  0  0  0  0  0  0  0  0  0  0
   -7.6849    6.6990   -8.4593 C   0  0  0  0  0  0  0  0  0  0  0  0
   -8.0567    5.4616   -9.1558 C   0  0  0  0  0  0  0  0  0  0  0  0
   -7.9664    5.3733  -10.5641 C   0  0  0  0  0  0  0  0  0  0  0  0
   -8.2757    4.1875  -11.2484 C   0  0  0  0  0  0  0  0  0  0  0  0
   -8.0276    3.9985  -12.7057 C   0  0  0  0  0  0  0  0  0  0  0  0
   -8.1376    2.8754  -13.1924 O   0  0  0  0  0  0  0  0  0  0  0  0
   -7.5688    5.0632  -13.6733 C   0  0  0  0  0  0  0  0  0  0  0  0
   -7.0415    6.0933  -13.2824 O   0  0  0  0  0  0  0  0  0  0  0  0
   -7.7296    4.8019  -15.1235 C   0  0  0  0  0  0  0  0  0  0  0  0
   -8.9380    4.2815  -15.6164 C   0  0  0  0  0  0  0  0  0  0  0  0
   -9.1181    4.0608  -16.9732 C   0  0  0  0  0  0  0  0  0  0  0  0
  -10.2890    3.6028  -17.4286 F   0  0  0  0  0  0  0  0  0  0  0  0
   -8.1174    4.3279  -17.8895 C   0  0  0  0  0  0  0  0  0  0  0  0
   -6.9130    4.8309  -17.3877 C   0  0  0  0  0  0  0  0  0  0  0  0
   -6.6833    5.0718  -16.0319 C   0  0  0  0  0  0  0  0  0  0  0  0
   -5.3300    5.5217  -15.9775 C   0  0  0  0  0  0  0  0  0  0  0  0
   -4.5067    5.8736  -14.7935 C   0  0  0  0  0  0  0  0  0  0  0  0
   -4.7773    5.6004  -17.1948 N   0  0  0  0  0  0  0  0  0  0  0  0
   -5.7561    5.1866  -18.0238 N   0  0  0  0  0  0  0  0  0  0  0  0
   -5.5365    5.1415  -19.4540 C   0  0  0  0  0  0  0  0  0  0  0  0
   -6.0292    6.3417  -20.0420 O   0  0  0  0  0  0  0  0  0  0  0  0
   -8.7358    3.0725  -10.5164 C   0  0  0  0  0  0  0  0  0  0  0  0
   -9.2657    1.9304  -11.1259 N   0  0  0  0  0  0  0  0  0  0  0  0
   -8.8073    3.1556   -9.1398 C   0  0  0  0  0  0  0  0  0  0  0  0
   -8.4713    4.3183   -8.4635 C   0  0  0  0  0  0  0  0  0  0  0  0
   -8.5966    4.0335   -6.9958 C   0  0  0  0  0  0  0  0  0  0  0  0
   -9.3524    2.7708   -6.8714 N   0  0  0  0  0  0  0  0  0  0  0  0
   -9.1923    2.0852   -8.1723 C   0  0  0  0  0  0  0  0  0  0  0  0
   -6.5103    7.3959   -8.7585 C   0  0  0  0  0  0  0  0  0  0  0  0
   -6.1618    8.4917   -7.9808 C   0  0  0  0  0  0  0  0  0  0  0  0
   -6.8704    8.9179   -6.9140 N   0  0  0  0  0  0  0  0  0  0  0  0
  1  2  1  0
  2  3  1  0
  3  4  2  0
  4  5  1  0
  5  6  1  0
  6  7  2  0
  7  8  1  0
  8  9  1  0
  9 10  2  0
  9 11  1  0
 11 12  2  0
 11 13  1  0
 13 14  2  0
 14 15  1  0
 15 16  1  0
 15 17  2  0
 17 18  1  0
 18 19  2  0
 19 20  1  0
 20 21  1  0
 20 22  2  0
 22 23  1  0
 23 24  1  0
 24 25  1  0
  8 26  2  0
 26 27  1  0
 26 28  1  0
 28 29  2  0
 29 30  1  0
 30 31  1  0
 31 32  1  0
  5 33  2  0
 33 34  1  0
 34 35  2  0
 35  3  1  0
 29  6  1  0
 19 13  1  0
 32 28  1  0
 23 18  1  0
M  END
>  <smiles>  (1266) 
C19228-P181

>  <fragmenstein_outcome>  (1266) 
acceptable

>  <inchikey>  (1266) 
YROYEXGEAMKZRY-UHFFFAOYSA-N

>  <fragmenstein_mode>  (1266) 
expansion

>  <HIPPO Pose ID>  (1266) 
20814

>  <Energy>  (1266) 
144.628433

>  <fragmenstein_error>  (1266) 


>  <tags>  (1266) 
{'openbind_xx01zvns2b_c1_fragmenstein', 'fragmenstein_placed'}

>  <ref_pdb>  (1266) 
175

>  <scratch_subdir>  (1266) 
/opt/xchem-fragalysis-2/maxwin/BulkDock/SCRATCH/511028/C19228-P181

>  <alias>  (1266) 
COc1cc(-c2cc(C(=O)C(=O)c3cc(F)cc4c3c(C)nn4CO)c(N)c3c2CNC3)ccn1

>  <HIPPO Compound ID>  (1266) 
19228

>  <fragmenstein_runtime>  (1266) 
3.646208

$$$$
COc1cc(-c2cc(NC(=O)c3cc(F)cc4nn(C)cc34)cc3c2CNC3)ccn1
     RDKit          3D

 31 35  0  0  0  0  0  0  0  0999 V2000
   -8.0695    8.8128   -4.6731 C   0  0  0  0  0  0  0  0  0  0  0  0
   -8.7968    8.2340   -5.7451 O   0  0  0  0  0  0  0  0  0  0  0  0
   -8.0058    8.0315   -6.8612 C   0  0  0  0  0  0  0  0  0  0  0  0
   -8.4069    6.9986   -7.6872 C   0  0  0  0  0  0  0  0  0  0  0  0
   -7.6177    6.6291   -8.7782 C   0  0  0  0  0  0  0  0  0  0  0  0
   -7.9109    5.4205   -9.5757 C   0  0  0  0  0  0  0  0  0  0  0  0
   -7.7626    5.4150  -10.9842 C   0  0  0  0  0  0  0  0  0  0  0  0
   -8.0063    4.2638  -11.7512 C   0  0  0  0  0  0  0  0  0  0  0  0
   -7.9101    4.2630  -13.1450 N   0  0  0  0  0  0  0  0  0  0  0  0
   -7.2657    5.2932  -14.1120 C   0  0  0  0  0  0  0  0  0  0  0  0
   -6.7850    6.3370  -13.8963 O   0  0  0  0  0  0  0  0  0  0  0  0
   -7.4090    4.8473  -15.5184 C   0  0  0  0  0  0  0  0  0  0  0  0
   -8.6307    4.3182  -16.0012 C   0  0  0  0  0  0  0  0  0  0  0  0
   -8.8525    3.9711  -17.3599 C   0  0  0  0  0  0  0  0  0  0  0  0
  -10.0612    3.4936  -17.6903 F   0  0  0  0  0  0  0  0  0  0  0  0
   -7.8975    4.1100  -18.3729 C   0  0  0  0  0  0  0  0  0  0  0  0
   -6.6784    4.6454  -17.9341 C   0  0  0  0  0  0  0  0  0  0  0  0
   -5.5667    4.9061  -18.6374 N   0  0  0  0  0  0  0  0  0  0  0  0
   -4.6690    5.3306  -17.7376 N   0  0  0  0  0  0  0  0  0  0  0  0
   -3.3257    5.5863  -18.2070 C   0  0  0  0  0  0  0  0  0  0  0  0
   -5.1667    5.4476  -16.4661 C   0  0  0  0  0  0  0  0  0  0  0  0
   -6.4629    4.9975  -16.5441 C   0  0  0  0  0  0  0  0  0  0  0  0
   -8.4062    3.0835  -11.1233 C   0  0  0  0  0  0  0  0  0  0  0  0
   -8.5430    3.0746   -9.7450 C   0  0  0  0  0  0  0  0  0  0  0  0
   -8.3069    4.2141   -8.9837 C   0  0  0  0  0  0  0  0  0  0  0  0
   -8.5414    3.8716   -7.5443 C   0  0  0  0  0  0  0  0  0  0  0  0
   -8.8593    2.4337   -7.4683 N   0  0  0  0  0  0  0  0  0  0  0  0
   -8.9356    1.9385   -8.8617 C   0  0  0  0  0  0  0  0  0  0  0  0
   -6.5005    7.4285   -9.0392 C   0  0  0  0  0  0  0  0  0  0  0  0
   -6.2074    8.4866   -8.1868 C   0  0  0  0  0  0  0  0  0  0  0  0
   -6.9185    8.7916   -7.0803 N   0  0  0  0  0  0  0  0  0  0  0  0
  1  2  1  0
  2  3  1  0
  3  4  2  0
  4  5  1  0
  5  6  1  0
  6  7  2  0
  7  8  1  0
  8  9  1  0
  9 10  1  0
 10 11  2  0
 10 12  1  0
 12 13  2  0
 13 14  1  0
 14 15  1  0
 14 16  2  0
 16 17  1  0
 17 18  2  0
 18 19  1  0
 19 20  1  0
 19 21  1  0
 21 22  2  0
  8 23  2  0
 23 24  1  0
 24 25  2  0
 25 26  1  0
 26 27  1  0
 27 28  1  0
  5 29  2  0
 29 30  1  0
 30 31  2  0
 31  3  1  0
 25  6  1  0
 22 12  1  0
 28 24  1  0
 22 17  1  0
M  END
>  <smiles>  (1267) 
C19148-P181

>  <fragmenstein_outcome>  (1267) 
acceptable

>  <inchikey>  (1267) 
GFVXWJAETUDNSD-UHFFFAOYSA-N

>  <fragmenstein_mode>  (1267) 
expansion

>  <HIPPO Pose ID>  (1267) 
20820

>  <Energy>  (1267) 
40.604169

>  <fragmenstein_error>  (1267) 


>  <tags>  (1267) 
{'openbind_xx01zvns2b_c1_fragmenstein', 'fragmenstein_placed'}

>  <ref_pdb>  (1267) 
175

>  <scratch_subdir>  (1267) 
/opt/xchem-fragalysis-2/maxwin/BulkDock/SCRATCH/511028/C19148-P181

>  <alias>  (1267) 
COc1cc(-c2cc(NC(=O)c3cc(F)cc4nn(C)cc34)cc3c2CNC3)ccn1

>  <HIPPO Compound ID>  (1267) 
32065

>  <fragmenstein_runtime>  (1267) 
4.751397

$$$$
COc1cc(-c2cc(NC(=O)c3cc(F)cc4nn(C(F)(F)F)cc34)cc3c2CNC3)ccn1
     RDKit          3D

 34 38  0  0  0  0  0  0  0  0999 V2000
   -8.0496    8.8074   -4.6181 C   0  0  0  0  0  0  0  0  0  0  0  0
   -8.8192    8.2385   -5.6656 O   0  0  0  0  0  0  0  0  0  0  0  0
   -8.0484    7.9626   -6.7794 C   0  0  0  0  0  0  0  0  0  0  0  0
   -8.4911    6.9063   -7.5539 C   0  0  0  0  0  0  0  0  0  0  0  0
   -7.7398    6.4810   -8.6488 C   0  0  0  0  0  0  0  0  0  0  0  0
   -8.0931    5.2695   -9.4180 C   0  0  0  0  0  0  0  0  0  0  0  0
   -7.9618    5.2466  -10.8280 C   0  0  0  0  0  0  0  0  0  0  0  0
   -8.2216    4.0929  -11.5874 C   0  0  0  0  0  0  0  0  0  0  0  0
   -8.0786    4.0742  -12.9755 N   0  0  0  0  0  0  0  0  0  0  0  0
   -7.6131    5.1805  -13.9534 C   0  0  0  0  0  0  0  0  0  0  0  0
   -7.2038    6.2543  -13.7425 O   0  0  0  0  0  0  0  0  0  0  0  0
   -7.7619    4.7546  -15.3588 C   0  0  0  0  0  0  0  0  0  0  0  0
   -8.9505    4.2083  -15.8808 C   0  0  0  0  0  0  0  0  0  0  0  0
   -9.1417    3.9267  -17.2632 C   0  0  0  0  0  0  0  0  0  0  0  0
  -10.3397    3.4699  -17.6492 F   0  0  0  0  0  0  0  0  0  0  0  0
   -8.1738    4.1205  -18.2538 C   0  0  0  0  0  0  0  0  0  0  0  0
   -6.9801    4.6562  -17.7618 C   0  0  0  0  0  0  0  0  0  0  0  0
   -5.8605    4.9754  -18.4219 N   0  0  0  0  0  0  0  0  0  0  0  0
   -4.9937    5.4032  -17.4764 N   0  0  0  0  0  0  0  0  0  0  0  0
   -3.6178    5.7335  -17.8479 C   0  0  0  0  0  0  0  0  0  0  0  0
   -2.9182    4.6376  -18.2444 F   0  0  0  0  0  0  0  0  0  0  0  0
   -3.5523    6.6527  -18.8478 F   0  0  0  0  0  0  0  0  0  0  0  0
   -2.9319    6.2649  -16.7953 F   0  0  0  0  0  0  0  0  0  0  0  0
   -5.5361    5.4440  -16.2159 C   0  0  0  0  0  0  0  0  0  0  0  0
   -6.8087    4.9576  -16.3588 C   0  0  0  0  0  0  0  0  0  0  0  0
   -8.6191    2.9201  -10.9528 C   0  0  0  0  0  0  0  0  0  0  0  0
   -8.7559    2.9298   -9.5767 C   0  0  0  0  0  0  0  0  0  0  0  0
   -8.5184    4.0790   -8.8181 C   0  0  0  0  0  0  0  0  0  0  0  0
   -8.7337    3.7150   -7.3771 C   0  0  0  0  0  0  0  0  0  0  0  0
   -9.4347    2.4122   -7.3774 N   0  0  0  0  0  0  0  0  0  0  0  0
   -9.0894    1.7894   -8.6721 C   0  0  0  0  0  0  0  0  0  0  0  0
   -6.6060    7.2426   -8.9587 C   0  0  0  0  0  0  0  0  0  0  0  0
   -6.2677    8.3246   -8.1545 C   0  0  0  0  0  0  0  0  0  0  0  0
   -6.9501    8.6901   -7.0495 N   0  0  0  0  0  0  0  0  0  0  0  0
  1  2  1  0
  2  3  1  0
  3  4  2  0
  4  5  1  0
  5  6  1  0
  6  7  2  0
  7  8  1  0
  8  9  1  0
  9 10  1  0
 10 11  2  0
 10 12  1  0
 12 13  2  0
 13 14  1  0
 14 15  1  0
 14 16  2  0
 16 17  1  0
 17 18  2  0
 18 19  1  0
 19 20  1  0
 20 21  1  0
 20 22  1  0
 20 23  1  0
 19 24  1  0
 24 25  2  0
  8 26  2  0
 26 27  1  0
 27 28  2  0
 28 29  1  0
 29 30  1  0
 30 31  1  0
  5 32  2  0
 32 33  1  0
 33 34  2  0
 34  3  1  0
 28  6  1  0
 25 12  1  0
 31 27  1  0
 25 17  1  0
M  END
>  <smiles>  (1268) 
C19252-P181

>  <fragmenstein_outcome>  (1268) 
acceptable

>  <inchikey>  (1268) 
AHROQKIDTBRPJK-UHFFFAOYSA-N

>  <fragmenstein_mode>  (1268) 
expansion

>  <HIPPO Pose ID>  (1268) 
20821

>  <Energy>  (1268) 
116.17663

>  <fragmenstein_error>  (1268) 


>  <tags>  (1268) 
{'openbind_xx01zvns2b_c1_fragmenstein', 'fragmenstein_placed'}

>  <ref_pdb>  (1268) 
175

>  <scratch_subdir>  (1268) 
/opt/xchem-fragalysis-2/maxwin/BulkDock/SCRATCH/511028/C19252-P181

>  <alias>  (1268) 
COc1cc(-c2cc(NC(=O)c3cc(F)cc4nn(C(F)(F)F)cc34)cc3c2CNC3)ccn1

>  <HIPPO Compound ID>  (1268) 
19252

>  <fragmenstein_runtime>  (1268) 
5.524437

$$$$
CCCNC(=O)[C@@](O)(Nc1cc2c(c(-c3ccnc(OC)c3)c1)CNC2)c1cc(F)cc2[nH]ncc12
     RDKit          3D

 36 40  0  0  0  0  0  0  0  0999 V2000
   -3.1726    9.3652  -13.0866 C   0  0  0  0  0  0  0  0  0  0  0  0
   -3.9889    8.1884  -13.5936 C   0  0  0  0  0  0  0  0  0  0  0  0
   -4.6658    7.4445  -12.4495 C   0  0  0  0  0  0  0  0  0  0  0  0
   -5.4511    6.3464  -12.9396 N   0  0  0  0  0  0  0  0  0  0  0  0
   -6.9378    6.2962  -13.4141 C   0  0  0  0  0  0  0  0  0  0  0  0
   -7.7195    7.1567  -13.5488 O   0  0  0  0  0  0  0  0  0  0  0  0
   -7.2328    4.7555  -13.7577 C   0  0  1  0  0  0  0  0  0  0  0  0
   -6.0802    3.9598  -13.5039 O   0  0  0  0  0  0  0  0  0  0  0  0
   -8.3157    4.1784  -12.9440 N   0  0  0  0  0  0  0  0  0  0  0  0
   -8.3367    4.1582  -11.5466 C   0  0  0  0  0  0  0  0  0  0  0  0
   -8.6611    2.9603  -10.9003 C   0  0  0  0  0  0  0  0  0  0  0  0
   -8.7602    2.9307   -9.5195 C   0  0  0  0  0  0  0  0  0  0  0  0
   -8.5330    4.0629   -8.7400 C   0  0  0  0  0  0  0  0  0  0  0  0
   -8.1613    5.2703   -9.3266 C   0  0  0  0  0  0  0  0  0  0  0  0
   -7.8050    6.4748   -8.5530 C   0  0  0  0  0  0  0  0  0  0  0  0
   -6.6781    7.2401   -8.8799 C   0  0  0  0  0  0  0  0  0  0  0  0
   -6.3338    8.3257   -8.0853 C   0  0  0  0  0  0  0  0  0  0  0  0
   -7.0042    8.6895   -6.9737 N   0  0  0  0  0  0  0  0  0  0  0  0
   -8.0940    7.9544   -6.6854 C   0  0  0  0  0  0  0  0  0  0  0  0
   -8.8548    8.2365   -5.5670 O   0  0  0  0  0  0  0  0  0  0  0  0
   -8.0785    8.8253   -4.5361 C   0  0  0  0  0  0  0  0  0  0  0  0
   -8.5411    6.8904   -7.4462 C   0  0  0  0  0  0  0  0  0  0  0  0
   -8.1077    5.2907  -10.7428 C   0  0  0  0  0  0  0  0  0  0  0  0
   -8.7309    3.6730   -7.3059 C   0  0  0  0  0  0  0  0  0  0  0  0
   -9.4187    2.3635   -7.3268 N   0  0  0  0  0  0  0  0  0  0  0  0
   -9.0710    1.7680   -8.6361 C   0  0  0  0  0  0  0  0  0  0  0  0
   -7.5393    4.6326  -15.2604 C   0  0  0  0  0  0  0  0  0  0  0  0
   -8.8135    4.2210  -15.7337 C   0  0  0  0  0  0  0  0  0  0  0  0
   -9.0927    4.0454  -17.0871 C   0  0  0  0  0  0  0  0  0  0  0  0
  -10.3122    3.6446  -17.4650 F   0  0  0  0  0  0  0  0  0  0  0  0
   -8.1429    4.2820  -18.0627 C   0  0  0  0  0  0  0  0  0  0  0  0
   -6.9072    4.7435  -17.6204 C   0  0  0  0  0  0  0  0  0  0  0  0
   -5.7869    5.0849  -18.3301 N   0  0  0  0  0  0  0  0  0  0  0  0
   -4.7636    5.5077  -17.5606 N   0  0  0  0  0  0  0  0  0  0  0  0
   -5.2427    5.3745  -16.3199 C   0  0  0  0  0  0  0  0  0  0  0  0
   -6.5857    4.9225  -16.2766 C   0  0  0  0  0  0  0  0  0  0  0  0
  1  2  1  0
  2  3  1  0
  3  4  1  0
  4  5  1  0
  5  6  2  0
  5  7  1  0
  7  8  1  6
  7  9  1  0
  9 10  1  0
 10 11  2  0
 11 12  1  0
 12 13  2  0
 13 14  1  0
 14 15  1  0
 15 16  2  0
 16 17  1  0
 17 18  2  0
 18 19  1  0
 19 20  1  0
 20 21  1  0
 19 22  2  0
 14 23  2  0
 13 24  1  0
 24 25  1  0
 25 26  1  0
  7 27  1  0
 27 28  2  0
 28 29  1  0
 29 30  1  0
 29 31  2  0
 31 32  1  0
 32 33  1  0
 33 34  1  0
 34 35  2  0
 35 36  1  0
 23 10  1  0
 36 27  1  0
 26 12  1  0
 36 32  2  0
 22 15  1  0
M  END
>  <smiles>  (1269) 
C19254-P181

>  <fragmenstein_outcome>  (1269) 
acceptable

>  <inchikey>  (1269) 
SDIHAPJDZJAWLL-UHFFFAOYSA-N

>  <fragmenstein_mode>  (1269) 
expansion

>  <HIPPO Pose ID>  (1269) 
20822

>  <Energy>  (1269) 
92.011245

>  <fragmenstein_error>  (1269) 


>  <tags>  (1269) 
{'openbind_xx01zvns2b_c1_fragmenstein', 'fragmenstein_placed'}

>  <ref_pdb>  (1269) 
175

>  <scratch_subdir>  (1269) 
/opt/xchem-fragalysis-2/maxwin/BulkDock/SCRATCH/511028/C19254-P181

>  <alias>  (1269) 
CCCNC(=O)[C@@](O)(Nc1cc2c(c(-c3ccnc(OC)c3)c1)CNC2)c1cc(F)cc2[nH]ncc12

>  <HIPPO Compound ID>  (1269) 
33233

>  <fragmenstein_runtime>  (1269) 
5.995367

$$$$
CCc1cc(C(=O)Nc2cc3c(c(-c4ccnc(OC)c4)c2)CNC3)c2cnn(C)c2c1
     RDKit          3D

 32 36  0  0  0  0  0  0  0  0999 V2000
  -10.8030    4.5940  -18.4784 C   0  0  0  0  0  0  0  0  0  0  0  0
  -10.1005    3.6713  -17.5261 C   0  0  0  0  0  0  0  0  0  0  0  0
   -8.7725    4.1562  -17.0478 C   0  0  0  0  0  0  0  0  0  0  0  0
   -8.5700    4.4018  -15.6868 C   0  0  0  0  0  0  0  0  0  0  0  0
   -7.3484    4.9042  -15.2180 C   0  0  0  0  0  0  0  0  0  0  0  0
   -7.1945    5.2648  -13.7883 C   0  0  0  0  0  0  0  0  0  0  0  0
   -6.6993    6.2895  -13.5224 O   0  0  0  0  0  0  0  0  0  0  0  0
   -7.8140    4.1801  -12.8702 N   0  0  0  0  0  0  0  0  0  0  0  0
   -8.0295    4.1752  -11.4955 C   0  0  0  0  0  0  0  0  0  0  0  0
   -8.4807    3.0061  -10.8892 C   0  0  0  0  0  0  0  0  0  0  0  0
   -8.6543    3.0062   -9.5156 C   0  0  0  0  0  0  0  0  0  0  0  0
   -8.4108    4.1420   -8.7459 C   0  0  0  0  0  0  0  0  0  0  0  0
   -7.9855    5.3407   -9.3272 C   0  0  0  0  0  0  0  0  0  0  0  0
   -7.6835    6.5551   -8.5460 C   0  0  0  0  0  0  0  0  0  0  0  0
   -6.5747    7.3597   -8.8385 C   0  0  0  0  0  0  0  0  0  0  0  0
   -6.2871    8.4475   -8.0248 C   0  0  0  0  0  0  0  0  0  0  0  0
   -6.9965    8.7771   -6.9264 N   0  0  0  0  0  0  0  0  0  0  0  0
   -8.0710    8.0079   -6.6743 C   0  0  0  0  0  0  0  0  0  0  0  0
   -8.8638    8.2476   -5.5683 O   0  0  0  0  0  0  0  0  0  0  0  0
   -8.1367    8.8687   -4.5206 C   0  0  0  0  0  0  0  0  0  0  0  0
   -8.4655    6.9407   -7.4582 C   0  0  0  0  0  0  0  0  0  0  0  0
   -7.8047    5.3256  -10.7260 C   0  0  0  0  0  0  0  0  0  0  0  0
   -8.6689    3.7976   -7.3119 C   0  0  0  0  0  0  0  0  0  0  0  0
   -8.9306    2.3471   -7.2447 N   0  0  0  0  0  0  0  0  0  0  0  0
   -9.0851    1.8797   -8.6405 C   0  0  0  0  0  0  0  0  0  0  0  0
   -6.3298    5.1794  -16.1467 C   0  0  0  0  0  0  0  0  0  0  0  0
   -5.0185    5.7031  -16.1175 C   0  0  0  0  0  0  0  0  0  0  0  0
   -4.4586    5.7799  -17.3307 N   0  0  0  0  0  0  0  0  0  0  0  0
   -5.4233    5.3088  -18.1476 N   0  0  0  0  0  0  0  0  0  0  0  0
   -5.2359    5.3282  -19.5783 C   0  0  0  0  0  0  0  0  0  0  0  0
   -6.5588    4.9158  -17.4934 C   0  0  0  0  0  0  0  0  0  0  0  0
   -7.7543    4.3838  -17.9711 C   0  0  0  0  0  0  0  0  0  0  0  0
  1  2  1  0
  2  3  1  0
  3  4  2  0
  4  5  1  0
  5  6  1  0
  6  7  2  0
  6  8  1  0
  8  9  1  0
  9 10  2  0
 10 11  1  0
 11 12  2  0
 12 13  1  0
 13 14  1  0
 14 15  2  0
 15 16  1  0
 16 17  2  0
 17 18  1  0
 18 19  1  0
 19 20  1  0
 18 21  2  0
 13 22  2  0
 12 23  1  0
 23 24  1  0
 24 25  1  0
  5 26  2  0
 26 27  1  0
 27 28  2  0
 28 29  1  0
 29 30  1  0
 29 31  1  0
 31 32  2  0
 32  3  1  0
 22  9  1  0
 31 26  1  0
 25 11  1  0
 21 14  1  0
M  END
>  <smiles>  (1270) 
C19262-P181

>  <fragmenstein_outcome>  (1270) 
acceptable

>  <inchikey>  (1270) 
WUNQLSSNLGBCRZ-UHFFFAOYSA-N

>  <fragmenstein_mode>  (1270) 
expansion

>  <HIPPO Pose ID>  (1270) 
20823

>  <Energy>  (1270) 
65.103046

>  <fragmenstein_error>  (1270) 


>  <tags>  (1270) 
{'openbind_xx01zvns2b_c1_fragmenstein', 'fragmenstein_placed'}

>  <ref_pdb>  (1270) 
175

>  <scratch_subdir>  (1270) 
/opt/xchem-fragalysis-2/maxwin/BulkDock/SCRATCH/511028/C19262-P181

>  <alias>  (1270) 
CCc1cc(C(=O)Nc2cc3c(c(-c4ccnc(OC)c4)c2)CNC3)c2cnn(C)c2c1

>  <HIPPO Compound ID>  (1270) 
28050

>  <fragmenstein_runtime>  (1270) 
4.77351

$$$$
COc1cc(-c2cc(NC(=O)c3cc(F)cc4nn(C(C)(C)S(C)(=O)=O)cc34)cc3c2CNC3)ccn1
     RDKit          3D

 37 41  0  0  0  0  0  0  0  0999 V2000
   -8.0393    8.8528   -4.6612 C   0  0  0  0  0  0  0  0  0  0  0  0
   -8.7941    8.2255   -5.6852 O   0  0  0  0  0  0  0  0  0  0  0  0
   -8.0390    7.9874   -6.8186 C   0  0  0  0  0  0  0  0  0  0  0  0
   -8.4708    6.9317   -7.5989 C   0  0  0  0  0  0  0  0  0  0  0  0
   -7.7309    6.5389   -8.7155 C   0  0  0  0  0  0  0  0  0  0  0  0
   -8.0680    5.3191   -9.4783 C   0  0  0  0  0  0  0  0  0  0  0  0
   -7.9771    5.2870  -10.8900 C   0  0  0  0  0  0  0  0  0  0  0  0
   -8.2535    4.1237  -11.6301 C   0  0  0  0  0  0  0  0  0  0  0  0
   -8.1422    4.0910  -13.0215 N   0  0  0  0  0  0  0  0  0  0  0  0
   -7.6118    5.1552  -14.0132 C   0  0  0  0  0  0  0  0  0  0  0  0
   -7.1142    6.1940  -13.8150 O   0  0  0  0  0  0  0  0  0  0  0  0
   -7.7618    4.7144  -15.4190 C   0  0  0  0  0  0  0  0  0  0  0  0
   -8.9420    4.1565  -15.9492 C   0  0  0  0  0  0  0  0  0  0  0  0
   -9.1193    3.8779  -17.3348 C   0  0  0  0  0  0  0  0  0  0  0  0
  -10.3101    3.4112  -17.7301 F   0  0  0  0  0  0  0  0  0  0  0  0
   -8.1467    4.0891  -18.3198 C   0  0  0  0  0  0  0  0  0  0  0  0
   -6.9633    4.6435  -17.8205 C   0  0  0  0  0  0  0  0  0  0  0  0
   -5.8479    5.0098  -18.4677 N   0  0  0  0  0  0  0  0  0  0  0  0
   -4.9986    5.4538  -17.5231 N   0  0  0  0  0  0  0  0  0  0  0  0
   -3.6726    5.9375  -17.9263 C   0  0  0  0  0  0  0  0  0  0  0  0
   -2.6938    5.9208  -16.7276 C   0  0  0  0  0  0  0  0  0  0  0  0
   -3.0432    5.0609  -19.0316 C   0  0  0  0  0  0  0  0  0  0  0  0
   -3.7397    7.6682  -18.5782 S   0  0  0  0  0  0  0  0  0  0  0  0
   -4.9459    8.4953  -17.5771 C   0  0  0  0  0  0  0  0  0  0  0  0
   -4.2506    7.6963  -19.9373 O   0  0  0  0  0  0  0  0  0  0  0  0
   -2.4721    8.3234  -18.2938 O   0  0  0  0  0  0  0  0  0  0  0  0
   -5.5431    5.4341  -16.2645 C   0  0  0  0  0  0  0  0  0  0  0  0
   -6.8069    4.9291  -16.4174 C   0  0  0  0  0  0  0  0  0  0  0  0
   -8.6364    2.9581  -10.9706 C   0  0  0  0  0  0  0  0  0  0  0  0
   -8.7191    2.9749   -9.5885 C   0  0  0  0  0  0  0  0  0  0  0  0
   -8.4470    4.1251   -8.8539 C   0  0  0  0  0  0  0  0  0  0  0  0
   -8.6267    3.8049   -7.4020 C   0  0  0  0  0  0  0  0  0  0  0  0
   -8.9097    2.3616   -7.2940 N   0  0  0  0  0  0  0  0  0  0  0  0
   -9.0715    1.8528   -8.6736 C   0  0  0  0  0  0  0  0  0  0  0  0
   -6.6241    7.3308   -9.0403 C   0  0  0  0  0  0  0  0  0  0  0  0
   -6.2945    8.4079   -8.2253 C   0  0  0  0  0  0  0  0  0  0  0  0
   -6.9612    8.7406   -7.0996 N   0  0  0  0  0  0  0  0  0  0  0  0
  1  2  1  0
  2  3  1  0
  3  4  2  0
  4  5  1  0
  5  6  1  0
  6  7  2  0
  7  8  1  0
  8  9  1  0
  9 10  1  0
 10 11  2  0
 10 12  1  0
 12 13  2  0
 13 14  1  0
 14 15  1  0
 14 16  2  0
 16 17  1  0
 17 18  2  0
 18 19  1  0
 19 20  1  0
 20 21  1  0
 20 22  1  0
 20 23  1  0
 23 24  1  0
 23 25  2  0
 23 26  2  0
 19 27  1  0
 27 28  2  0
  8 29  2  0
 29 30  1  0
 30 31  2  0
 31 32  1  0
 32 33  1  0
 33 34  1  0
  5 35  2  0
 35 36  1  0
 36 37  2  0
 37  3  1  0
 31  6  1  0
 28 12  1  0
 34 30  1  0
 28 17  1  0
M  END
>  <smiles>  (1271) 
C19267-P181

>  <fragmenstein_outcome>  (1271) 
acceptable

>  <inchikey>  (1271) 
LEIYSWQAIQBCDP-UHFFFAOYSA-N

>  <fragmenstein_mode>  (1271) 
expansion

>  <HIPPO Pose ID>  (1271) 
20824

>  <Energy>  (1271) 
51.32969

>  <fragmenstein_error>  (1271) 


>  <tags>  (1271) 
{'openbind_xx01zvns2b_c1_fragmenstein', 'fragmenstein_placed'}

>  <ref_pdb>  (1271) 
175

>  <scratch_subdir>  (1271) 
/opt/xchem-fragalysis-2/maxwin/BulkDock/SCRATCH/511028/C19267-P181

>  <alias>  (1271) 
COc1cc(-c2cc(NC(=O)c3cc(F)cc4nn(C(C)(C)S(C)(=O)=O)cc34)cc3c2CNC3)ccn1

>  <HIPPO Compound ID>  (1271) 
43288

>  <fragmenstein_runtime>  (1271) 
5.082258

$$$$
COc1cc(-c2cc(N[C@H](N=O)c3cc(F)cc4c3CNC43CCNCC3)cc3c2CNC3)ccn1
     RDKit          3D

 36 41  0  0  0  0  0  0  0  0999 V2000
   -8.0879    8.8542   -4.6154 C   0  0  0  0  0  0  0  0  0  0  0  0
   -8.8270    8.2338   -5.6553 O   0  0  0  0  0  0  0  0  0  0  0  0
   -8.0379    7.9518   -6.7540 C   0  0  0  0  0  0  0  0  0  0  0  0
   -8.4522    6.8752   -7.5145 C   0  0  0  0  0  0  0  0  0  0  0  0
   -7.6747    6.4414   -8.5897 C   0  0  0  0  0  0  0  0  0  0  0  0
   -8.0144    5.2136   -9.3371 C   0  0  0  0  0  0  0  0  0  0  0  0
   -7.8970    5.1588  -10.7473 C   0  0  0  0  0  0  0  0  0  0  0  0
   -8.2607    4.0299  -11.5159 C   0  0  0  0  0  0  0  0  0  0  0  0
   -8.1587    3.9476  -12.9105 N   0  0  0  0  0  0  0  0  0  0  0  0
   -7.7717    5.0841  -13.7369 C   0  0  2  0  0  0  0  0  0  0  0  0
   -8.6344    6.3053  -13.5540 N   0  0  0  0  0  0  0  0  0  0  0  0
   -9.8350    6.1029  -13.7646 O   0  0  0  0  0  0  0  0  0  0  0  0
   -7.6830    4.7468  -15.2197 C   0  0  0  0  0  0  0  0  0  0  0  0
   -8.7533    4.1263  -15.8908 C   0  0  0  0  0  0  0  0  0  0  0  0
   -8.7450    3.9696  -17.2772 C   0  0  0  0  0  0  0  0  0  0  0  0
   -9.8065    3.4076  -17.8703 F   0  0  0  0  0  0  0  0  0  0  0  0
   -7.6844    4.4290  -18.0491 C   0  0  0  0  0  0  0  0  0  0  0  0
   -6.6242    5.0575  -17.4116 C   0  0  0  0  0  0  0  0  0  0  0  0
   -6.6130    5.1809  -16.0164 C   0  0  0  0  0  0  0  0  0  0  0  0
   -5.3662    5.8978  -15.6124 C   0  0  0  0  0  0  0  0  0  0  0  0
   -4.5131    5.9660  -16.8231 N   0  0  0  0  0  0  0  0  0  0  0  0
   -5.4206    5.7677  -18.0002 C   0  0  0  0  0  0  0  0  0  0  0  0
   -5.8203    7.1385  -18.5698 C   0  0  0  0  0  0  0  0  0  0  0  0
   -4.7120    7.8418  -19.3471 C   0  0  0  0  0  0  0  0  0  0  0  0
   -4.2193    7.0073  -20.4416 N   0  0  0  0  0  0  0  0  0  0  0  0
   -3.6667    5.7775  -19.8774 C   0  0  0  0  0  0  0  0  0  0  0  0
   -4.7171    4.9796  -19.1076 C   0  0  0  0  0  0  0  0  0  0  0  0
   -8.6651    2.8845  -10.8268 C   0  0  0  0  0  0  0  0  0  0  0  0
   -8.7510    2.9078   -9.4444 C   0  0  0  0  0  0  0  0  0  0  0  0
   -8.4472    4.0469   -8.7102 C   0  0  0  0  0  0  0  0  0  0  0  0
   -8.6691    3.7432   -7.2619 C   0  0  0  0  0  0  0  0  0  0  0  0
   -8.9339    2.2961   -7.1519 N   0  0  0  0  0  0  0  0  0  0  0  0
   -9.1620    1.8069   -8.5311 C   0  0  0  0  0  0  0  0  0  0  0  0
   -6.5458    7.2096   -8.8959 C   0  0  0  0  0  0  0  0  0  0  0  0
   -6.2373    8.3113   -8.1066 C   0  0  0  0  0  0  0  0  0  0  0  0
   -6.9444    8.6879   -7.0213 N   0  0  0  0  0  0  0  0  0  0  0  0
  1  2  1  0
  2  3  1  0
  3  4  2  0
  4  5  1  0
  5  6  1  0
  6  7  2  0
  7  8  1  0
  8  9  1  0
 10  9  1  1
 10 11  1  0
 11 12  2  0
 10 13  1  0
 13 14  2  0
 14 15  1  0
 15 16  1  0
 15 17  2  0
 17 18  1  0
 18 19  2  0
 19 20  1  0
 20 21  1  0
 21 22  1  0
 22 23  1  0
 23 24  1  0
 24 25  1  0
 25 26  1  0
 26 27  1  0
  8 28  2  0
 28 29  1  0
 29 30  2  0
 30 31  1  0
 31 32  1  0
 32 33  1  0
  5 34  2  0
 34 35  1  0
 35 36  2  0
 36  3  1  0
 30  6  1  0
 19 13  1  0
 27 22  1  0
 33 29  1  0
 22 18  1  0
M  END
>  <smiles>  (1272) 
C19269-P181

>  <fragmenstein_outcome>  (1272) 
acceptable

>  <inchikey>  (1272) 
KKAGJWOMEJGTQO-UHFFFAOYSA-N

>  <fragmenstein_mode>  (1272) 
expansion

>  <HIPPO Pose ID>  (1272) 
20825

>  <Energy>  (1272) 
48.95234

>  <fragmenstein_error>  (1272) 


>  <tags>  (1272) 
{'openbind_xx01zvns2b_c1_fragmenstein', 'fragmenstein_placed'}

>  <ref_pdb>  (1272) 
175

>  <scratch_subdir>  (1272) 
/opt/xchem-fragalysis-2/maxwin/BulkDock/SCRATCH/511028/C19269-P181

>  <alias>  (1272) 
COc1cc(-c2cc(N[C@H](N=O)c3cc(F)cc4c3CNC43CCNCC3)cc3c2CNC3)ccn1

>  <HIPPO Compound ID>  (1272) 
30679

>  <fragmenstein_runtime>  (1272) 
4.308402

$$$$
COc1cc(-c2c(C#N)c(NC(=O)c3cc(F)cc4n[nH]cc34)cc3c2CNC3)ccn1
     RDKit          3D

 32 36  0  0  0  0  0  0  0  0999 V2000
   -8.2771    8.7273   -4.5980 C   0  0  0  0  0  0  0  0  0  0  0  0
   -8.9094    8.2137   -5.7621 O   0  0  0  0  0  0  0  0  0  0  0  0
   -7.9931    7.8592   -6.7329 C   0  0  0  0  0  0  0  0  0  0  0  0
   -8.3932    6.8530   -7.5951 C   0  0  0  0  0  0  0  0  0  0  0  0
   -7.4860    6.2972   -8.5019 C   0  0  0  0  0  0  0  0  0  0  0  0
   -7.8720    5.1305   -9.3414 C   0  0  0  0  0  0  0  0  0  0  0  0
   -7.6321    5.0445  -10.7435 C   0  0  0  0  0  0  0  0  0  0  0  0
   -6.6105    5.8567  -11.3445 C   0  0  0  0  0  0  0  0  0  0  0  0
   -5.6633    6.3644  -11.7892 N   0  0  0  0  0  0  0  0  0  0  0  0
   -8.1142    3.9634  -11.5320 C   0  0  0  0  0  0  0  0  0  0  0  0
   -8.0343    3.9751  -12.9327 N   0  0  0  0  0  0  0  0  0  0  0  0
   -7.9883    5.1592  -13.9259 C   0  0  0  0  0  0  0  0  0  0  0  0
   -7.9323    6.3086  -13.7307 O   0  0  0  0  0  0  0  0  0  0  0  0
   -7.9093    4.7152  -15.3156 C   0  0  0  0  0  0  0  0  0  0  0  0
   -8.9711    4.1065  -15.9943 C   0  0  0  0  0  0  0  0  0  0  0  0
   -8.9396    3.8591  -17.3928 C   0  0  0  0  0  0  0  0  0  0  0  0
  -10.0363    3.3152  -17.9385 F   0  0  0  0  0  0  0  0  0  0  0  0
   -7.8533    4.1610  -18.2358 C   0  0  0  0  0  0  0  0  0  0  0  0
   -6.7724    4.7615  -17.5714 C   0  0  0  0  0  0  0  0  0  0  0  0
   -5.5895    5.1996  -18.0385 N   0  0  0  0  0  0  0  0  0  0  0  0
   -4.9391    5.6679  -16.9618 N   0  0  0  0  0  0  0  0  0  0  0  0
   -5.6463    5.5969  -15.8011 C   0  0  0  0  0  0  0  0  0  0  0  0
   -6.8337    5.0140  -16.1530 C   0  0  0  0  0  0  0  0  0  0  0  0
   -8.6309    2.8378  -10.9058 C   0  0  0  0  0  0  0  0  0  0  0  0
   -8.7748    2.8669   -9.5300 C   0  0  0  0  0  0  0  0  0  0  0  0
   -8.4673    3.9994   -8.7684 C   0  0  0  0  0  0  0  0  0  0  0  0
   -8.7755    3.6767   -7.3321 C   0  0  0  0  0  0  0  0  0  0  0  0
   -9.5404    2.4120   -7.3454 N   0  0  0  0  0  0  0  0  0  0  0  0
   -9.1914    1.7573   -8.6217 C   0  0  0  0  0  0  0  0  0  0  0  0
   -6.2138    6.8782   -8.5217 C   0  0  0  0  0  0  0  0  0  0  0  0
   -5.9289    7.9514   -7.6850 C   0  0  0  0  0  0  0  0  0  0  0  0
   -6.7841    8.4427   -6.7687 N   0  0  0  0  0  0  0  0  0  0  0  0
  1  2  1  0
  2  3  1  0
  3  4  2  0
  4  5  1  0
  5  6  1  0
  6  7  2  0
  7  8  1  0
  8  9  3  0
  7 10  1  0
 10 11  1  0
 11 12  1  0
 12 13  2  0
 12 14  1  0
 14 15  2  0
 15 16  1  0
 16 17  1  0
 16 18  2  0
 18 19  1  0
 19 20  2  0
 20 21  1  0
 21 22  1  0
 22 23  2  0
 10 24  2  0
 24 25  1  0
 25 26  2  0
 26 27  1  0
 27 28  1  0
 28 29  1  0
  5 30  2  0
 30 31  1  0
 31 32  2  0
 32  3  1  0
 26  6  1  0
 23 14  1  0
 29 25  1  0
 23 19  1  0
M  END
>  <smiles>  (1273) 
C19265-P181

>  <fragmenstein_outcome>  (1273) 
acceptable

>  <inchikey>  (1273) 
HTLNFANTBGLVFK-UHFFFAOYSA-N

>  <fragmenstein_mode>  (1273) 
expansion

>  <HIPPO Pose ID>  (1273) 
20828

>  <Energy>  (1273) 
74.659014

>  <fragmenstein_error>  (1273) 


>  <tags>  (1273) 
{'openbind_xx01zvns2b_c1_fragmenstein', 'fragmenstein_placed'}

>  <ref_pdb>  (1273) 
175

>  <scratch_subdir>  (1273) 
/opt/xchem-fragalysis-2/maxwin/BulkDock/SCRATCH/511028/C19265-P181

>  <alias>  (1273) 
COc1cc(-c2c(C#N)c(NC(=O)c3cc(F)cc4n[nH]cc34)cc3c2CNC3)ccn1

>  <HIPPO Compound ID>  (1273) 
39083

>  <fragmenstein_runtime>  (1273) 
3.020262

$$$$
COc1cc(-c2cc(NC(=O)c3cc(F)cc4c3C[C@]3(NN[C@H](C(C)C)S3)N4)cc3c2CNC3)ccn1
     RDKit          3D

 37 42  0  0  0  0  0  0  0  0999 V2000
   -8.0650    8.8648   -4.5909 C   0  0  0  0  0  0  0  0  0  0  0  0
   -8.8199    8.2223   -5.6050 O   0  0  0  0  0  0  0  0  0  0  0  0
   -8.0667    7.9794   -6.7382 C   0  0  0  0  0  0  0  0  0  0  0  0
   -8.4955    6.9154   -7.5087 C   0  0  0  0  0  0  0  0  0  0  0  0
   -7.7631    6.5312   -8.6317 C   0  0  0  0  0  0  0  0  0  0  0  0
   -8.1027    5.3186   -9.4010 C   0  0  0  0  0  0  0  0  0  0  0  0
   -8.0415    5.3151  -10.8117 C   0  0  0  0  0  0  0  0  0  0  0  0
   -8.3135    4.1632  -11.5690 C   0  0  0  0  0  0  0  0  0  0  0  0
   -8.2551    4.1860  -12.9621 N   0  0  0  0  0  0  0  0  0  0  0  0
   -7.7225    5.2708  -13.9276 C   0  0  0  0  0  0  0  0  0  0  0  0
   -7.3205    6.3461  -13.7109 O   0  0  0  0  0  0  0  0  0  0  0  0
   -7.7754    4.8202  -15.3441 C   0  0  0  0  0  0  0  0  0  0  0  0
   -8.9197    4.2202  -15.8722 C   0  0  0  0  0  0  0  0  0  0  0  0
   -8.9865    3.9163  -17.2355 C   0  0  0  0  0  0  0  0  0  0  0  0
  -10.1114    3.3857  -17.7289 F   0  0  0  0  0  0  0  0  0  0  0  0
   -7.9215    4.1648  -18.0905 C   0  0  0  0  0  0  0  0  0  0  0  0
   -6.7966    4.7647  -17.5611 C   0  0  0  0  0  0  0  0  0  0  0  0
   -6.7227    5.0896  -16.2073 C   0  0  0  0  0  0  0  0  0  0  0  0
   -5.3845    5.6930  -15.9344 C   0  0  0  0  0  0  0  0  0  0  0  0
   -4.8762    5.9523  -17.3871 C   0  0  1  0  0  0  0  0  0  0  0  0
   -4.9488    7.3929  -17.7390 N   0  0  0  0  0  0  0  0  0  0  0  0
   -4.0321    7.6179  -18.8843 N   0  0  0  0  0  0  0  0  0  0  0  0
   -2.7441    6.9925  -18.5266 C   0  0  2  0  0  0  0  0  0  0  0  0
   -1.8400    6.6511  -19.7351 C   0  0  0  0  0  0  0  0  0  0  0  0
   -1.4438    7.9240  -20.4944 C   0  0  0  0  0  0  0  0  0  0  0  0
   -2.4327    5.6379  -20.7207 C   0  0  0  0  0  0  0  0  0  0  0  0
   -3.1048    5.5519  -17.4948 S   0  0  0  0  0  0  0  0  0  0  0  0
   -5.5966    5.0269  -18.2637 N   0  0  0  0  0  0  0  0  0  0  0  0
   -8.6584    2.9762  -10.9296 C   0  0  0  0  0  0  0  0  0  0  0  0
   -8.7269    2.9698   -9.5465 C   0  0  0  0  0  0  0  0  0  0  0  0
   -8.4632    4.1114   -8.7941 C   0  0  0  0  0  0  0  0  0  0  0  0
   -8.6381    3.7696   -7.3477 C   0  0  0  0  0  0  0  0  0  0  0  0
   -8.9188    2.3240   -7.2602 N   0  0  0  0  0  0  0  0  0  0  0  0
   -9.0630    1.8300   -8.6481 C   0  0  0  0  0  0  0  0  0  0  0  0
   -6.6644    7.3311   -8.9677 C   0  0  0  0  0  0  0  0  0  0  0  0
   -6.3364    8.4124   -8.1592 C   0  0  0  0  0  0  0  0  0  0  0  0
   -6.9979    8.7423   -7.0302 N   0  0  0  0  0  0  0  0  0  0  0  0
  1  2  1  0
  2  3  1  0
  3  4  2  0
  4  5  1  0
  5  6  1  0
  6  7  2  0
  7  8  1  0
  8  9  1  0
  9 10  1  0
 10 11  2  0
 10 12  1  0
 12 13  2  0
 13 14  1  0
 14 15  1  0
 14 16  2  0
 16 17  1  0
 17 18  2  0
 18 19  1  0
 20 19  1  1
 20 21  1  0
 21 22  1  0
 22 23  1  0
 23 24  1  6
 24 25  1  0
 24 26  1  0
 23 27  1  0
 20 28  1  0
  8 29  2  0
 29 30  1  0
 30 31  2  0
 31 32  1  0
 32 33  1  0
 33 34  1  0
  5 35  2  0
 35 36  1  0
 36 37  2  0
 37  3  1  0
 31  6  1  0
 18 12  1  0
 27 20  1  0
 34 30  1  0
 28 17  1  0
M  END
>  <smiles>  (1274) 
C19275-P181

>  <fragmenstein_outcome>  (1274) 
acceptable

>  <inchikey>  (1274) 
QFIHSZDBCHWNPD-UHFFFAOYSA-N

>  <fragmenstein_mode>  (1274) 
expansion

>  <HIPPO Pose ID>  (1274) 
20829

>  <Energy>  (1274) 
34.052315

>  <fragmenstein_error>  (1274) 


>  <tags>  (1274) 
{'openbind_xx01zvns2b_c1_fragmenstein', 'fragmenstein_placed'}

>  <ref_pdb>  (1274) 
175

>  <scratch_subdir>  (1274) 
/opt/xchem-fragalysis-2/maxwin/BulkDock/SCRATCH/511028/C19275-P181

>  <alias>  (1274) 
COc1cc(-c2cc(NC(=O)c3cc(F)cc4c3C[C@]3(NN[C@H](C(C)C)S3)N4)cc3c2CNC3)ccn1

>  <HIPPO Compound ID>  (1274) 
19275

>  <fragmenstein_runtime>  (1274) 
7.540456

$$$$
COc1cc(-c2cc(N[C@](O)(C(=O)NCC(F)F)c3cc(F)cc4[nH]ncc34)cc3c2CNC3)ccn1
     RDKit          3D

 37 41  0  0  0  0  0  0  0  0999 V2000
   -8.0856    8.8689   -4.5149 C   0  0  0  0  0  0  0  0  0  0  0  0
   -8.8597    8.1448   -5.4564 O   0  0  0  0  0  0  0  0  0  0  0  0
   -8.1879    7.9618   -6.6497 C   0  0  0  0  0  0  0  0  0  0  0  0
   -8.6055    6.8717   -7.3939 C   0  0  0  0  0  0  0  0  0  0  0  0
   -7.9843    6.5695   -8.6029 C   0  0  0  0  0  0  0  0  0  0  0  0
   -8.2771    5.3316   -9.3674 C   0  0  0  0  0  0  0  0  0  0  0  0
   -8.2521    5.3394  -10.7881 C   0  0  0  0  0  0  0  0  0  0  0  0
   -8.4305    4.1878  -11.5830 C   0  0  0  0  0  0  0  0  0  0  0  0
   -8.4397    4.2104  -12.9841 N   0  0  0  0  0  0  0  0  0  0  0  0
   -7.3103    4.6989  -13.7950 C   0  0  2  0  0  0  0  0  0  0  0  0
   -6.2223    3.8143  -13.5465 O   0  0  0  0  0  0  0  0  0  0  0  0
   -6.8744    6.1931  -13.4090 C   0  0  0  0  0  0  0  0  0  0  0  0
   -7.5536    7.1371  -13.5353 O   0  0  0  0  0  0  0  0  0  0  0  0
   -5.4309    6.0573  -12.8340 N   0  0  0  0  0  0  0  0  0  0  0  0
   -4.5750    7.0372  -12.2144 C   0  0  0  0  0  0  0  0  0  0  0  0
   -4.0214    6.5612  -10.8799 C   0  0  0  0  0  0  0  0  0  0  0  0
   -2.9429    5.7629  -11.0975 F   0  0  0  0  0  0  0  0  0  0  0  0
   -3.5750    7.6277  -10.1677 F   0  0  0  0  0  0  0  0  0  0  0  0
   -7.6029    4.6153  -15.2985 C   0  0  0  0  0  0  0  0  0  0  0  0
   -8.8649    4.1957  -15.7933 C   0  0  0  0  0  0  0  0  0  0  0  0
   -9.1230    4.0254  -17.1507 C   0  0  0  0  0  0  0  0  0  0  0  0
  -10.3337    3.6153  -17.5461 F   0  0  0  0  0  0  0  0  0  0  0  0
   -8.1595    4.2700  -18.1096 C   0  0  0  0  0  0  0  0  0  0  0  0
   -6.9338    4.7388  -17.6471 C   0  0  0  0  0  0  0  0  0  0  0  0
   -5.8041    5.0866  -18.3383 N   0  0  0  0  0  0  0  0  0  0  0  0
   -4.7953    5.5128  -17.5520 N   0  0  0  0  0  0  0  0  0  0  0  0
   -5.2921    5.3735  -16.3189 C   0  0  0  0  0  0  0  0  0  0  0  0
   -6.6345    4.9162  -16.2980 C   0  0  0  0  0  0  0  0  0  0  0  0
   -8.6654    2.9755  -10.9300 C   0  0  0  0  0  0  0  0  0  0  0  0
   -8.7458    2.9515   -9.5489 C   0  0  0  0  0  0  0  0  0  0  0  0
   -8.5659    4.0996   -8.7739 C   0  0  0  0  0  0  0  0  0  0  0  0
   -8.7184    3.6876   -7.3380 C   0  0  0  0  0  0  0  0  0  0  0  0
   -9.3533    2.3528   -7.3518 N   0  0  0  0  0  0  0  0  0  0  0  0
   -9.0075    1.7749   -8.6664 C   0  0  0  0  0  0  0  0  0  0  0  0
   -7.0363    7.5019   -9.0450 C   0  0  0  0  0  0  0  0  0  0  0  0
   -6.6963    8.5878   -8.2461 C   0  0  0  0  0  0  0  0  0  0  0  0
   -7.2316    8.8241   -7.0345 N   0  0  0  0  0  0  0  0  0  0  0  0
  1  2  1  0
  2  3  1  0
  3  4  2  0
  4  5  1  0
  5  6  1  0
  6  7  2  0
  7  8  1  0
  8  9  1  0
  9 10  1  0
 10 11  1  6
 10 12  1  0
 12 13  2  0
 12 14  1  0
 14 15  1  0
 15 16  1  0
 16 17  1  0
 16 18  1  0
 10 19  1  0
 19 20  2  0
 20 21  1  0
 21 22  1  0
 21 23  2  0
 23 24  1  0
 24 25  1  0
 25 26  1  0
 26 27  2  0
 27 28  1  0
  8 29  2  0
 29 30  1  0
 30 31  2  0
 31 32  1  0
 32 33  1  0
 33 34  1  0
  5 35  2  0
 35 36  1  0
 36 37  2  0
 37  3  1  0
 31  6  1  0
 28 19  1  0
 34 30  1  0
 28 24  2  0
M  END
>  <smiles>  (1275) 
C19242-P181

>  <fragmenstein_outcome>  (1275) 
acceptable

>  <inchikey>  (1275) 
GIQCSPMKBZJFGD-UHFFFAOYSA-N

>  <fragmenstein_mode>  (1275) 
expansion

>  <HIPPO Pose ID>  (1275) 
20832

>  <Energy>  (1275) 
129.828907

>  <fragmenstein_error>  (1275) 


>  <tags>  (1275) 
{'openbind_xx01zvns2b_c1_fragmenstein', 'fragmenstein_placed'}

>  <ref_pdb>  (1275) 
175

>  <scratch_subdir>  (1275) 
/opt/xchem-fragalysis-2/maxwin/BulkDock/SCRATCH/511028/C19242-P181

>  <alias>  (1275) 
COc1cc(-c2cc(N[C@](O)(C(=O)NCC(F)F)c3cc(F)cc4[nH]ncc34)cc3c2CNC3)ccn1

>  <HIPPO Compound ID>  (1275) 
19242

>  <fragmenstein_runtime>  (1275) 
7.978338

$$$$
COc1cc(-c2cc(NC(=O)c3cc(F)cc4c3c(OCCCO)[n+]([O-])n4C)cc3c2CNC3)ccn1
     RDKit          3D

 37 41  0  0  0  0  0  0  0  0999 V2000
   -8.0252    8.8312   -4.6366 C   0  0  0  0  0  0  0  0  0  0  0  0
   -8.7975    8.2300   -5.6630 O   0  0  0  0  0  0  0  0  0  0  0  0
   -8.0534    8.0009   -6.8059 C   0  0  0  0  0  0  0  0  0  0  0  0
   -8.4951    6.9536   -7.5922 C   0  0  0  0  0  0  0  0  0  0  0  0
   -7.7698    6.5784   -8.7232 C   0  0  0  0  0  0  0  0  0  0  0  0
   -8.1080    5.3690   -9.4987 C   0  0  0  0  0  0  0  0  0  0  0  0
   -8.0603    5.3669  -10.9080 C   0  0  0  0  0  0  0  0  0  0  0  0
   -8.2757    4.1973  -11.6588 C   0  0  0  0  0  0  0  0  0  0  0  0
   -8.1863    4.2103  -13.0484 N   0  0  0  0  0  0  0  0  0  0  0  0
   -7.8741    5.3648  -14.0210 C   0  0  0  0  0  0  0  0  0  0  0  0
   -7.7183    6.5031  -13.8186 O   0  0  0  0  0  0  0  0  0  0  0  0
   -7.7402    4.8786  -15.4125 C   0  0  0  0  0  0  0  0  0  0  0  0
   -8.8383    4.2968  -16.0582 C   0  0  0  0  0  0  0  0  0  0  0  0
   -8.7755    4.0201  -17.4158 C   0  0  0  0  0  0  0  0  0  0  0  0
   -9.8508    3.5003  -18.0259 F   0  0  0  0  0  0  0  0  0  0  0  0
   -7.6356    4.2939  -18.1698 C   0  0  0  0  0  0  0  0  0  0  0  0
   -6.5299    4.8419  -17.5077 C   0  0  0  0  0  0  0  0  0  0  0  0
   -6.5362    5.1312  -16.1162 C   0  0  0  0  0  0  0  0  0  0  0  0
   -5.2250    5.6446  -15.6939 C   0  0  0  0  0  0  0  0  0  0  0  0
   -4.9189    5.9555  -14.4061 O   0  0  0  0  0  0  0  0  0  0  0  0
   -3.6301    6.5157  -14.1657 C   0  0  0  0  0  0  0  0  0  0  0  0
   -2.5919    5.4174  -13.9349 C   0  0  0  0  0  0  0  0  0  0  0  0
   -2.8111    4.6976  -12.6088 C   0  0  0  0  0  0  0  0  0  0  0  0
   -2.4489    5.5454  -11.5234 O   0  0  0  0  0  0  0  0  0  0  0  0
   -4.4644    5.6867  -16.8124 N   0  0  0  0  0  0  0  0  0  0  0  0
   -3.2748    6.0396  -17.0227 O   0  0  0  0  0  0  0  0  0  0  0  0
   -5.2733    5.2147  -17.9277 N   0  0  0  0  0  0  0  0  0  0  0  0
   -4.7424    5.1896  -19.2605 C   0  0  0  0  0  0  0  0  0  0  0  0
   -8.5631    2.9970  -11.0176 C   0  0  0  0  0  0  0  0  0  0  0  0
   -8.6542    2.9985   -9.6368 C   0  0  0  0  0  0  0  0  0  0  0  0
   -8.4327    4.1530   -8.8907 C   0  0  0  0  0  0  0  0  0  0  0  0
   -8.5943    3.8151   -7.4429 C   0  0  0  0  0  0  0  0  0  0  0  0
   -8.8596    2.3683   -7.3456 N   0  0  0  0  0  0  0  0  0  0  0  0
   -8.9746    1.8585   -8.7317 C   0  0  0  0  0  0  0  0  0  0  0  0
   -6.6634    7.3708   -9.0499 C   0  0  0  0  0  0  0  0  0  0  0  0
   -6.3226    8.4362   -8.2253 C   0  0  0  0  0  0  0  0  0  0  0  0
   -6.9782    8.7582   -7.0893 N   0  0  0  0  0  0  0  0  0  0  0  0
  1  2  1  0
  2  3  1  0
  3  4  2  0
  4  5  1  0
  5  6  1  0
  6  7  2  0
  7  8  1  0
  8  9  1  0
  9 10  1  0
 10 11  2  0
 10 12  1  0
 12 13  2  0
 13 14  1  0
 14 15  1  0
 14 16  2  0
 16 17  1  0
 17 18  2  0
 18 19  1  0
 19 20  1  0
 20 21  1  0
 21 22  1  0
 22 23  1  0
 23 24  1  0
 19 25  2  0
 25 26  1  0
 25 27  1  0
 27 28  1  0
  8 29  2  0
 29 30  1  0
 30 31  2  0
 31 32  1  0
 32 33  1  0
 33 34  1  0
  5 35  2  0
 35 36  1  0
 36 37  2  0
 37  3  1  0
 31  6  1  0
 18 12  1  0
 34 30  1  0
 27 17  1  0
M  CHG  2  25   1  26  -1
M  END
>  <smiles>  (1276) 
C19283-P181

>  <fragmenstein_outcome>  (1276) 
acceptable

>  <inchikey>  (1276) 
WHFBKTSJZDZPIM-UHFFFAOYSA-N

>  <fragmenstein_mode>  (1276) 
expansion

>  <HIPPO Pose ID>  (1276) 
20835

>  <Energy>  (1276) 
70.173445

>  <fragmenstein_error>  (1276) 


>  <tags>  (1276) 
{'openbind_xx01zvns2b_c1_fragmenstein', 'fragmenstein_placed'}

>  <ref_pdb>  (1276) 
175

>  <scratch_subdir>  (1276) 
/opt/xchem-fragalysis-2/maxwin/BulkDock/SCRATCH/511028/C19283-P181

>  <alias>  (1276) 
COc1cc(-c2cc(NC(=O)c3cc(F)cc4c3c(OCCCO)[n+]([O-])n4C)cc3c2CNC3)ccn1

>  <HIPPO Compound ID>  (1276) 
19283

>  <fragmenstein_runtime>  (1276) 
5.649776

$$$$
COc1cc(-c2cc(NC(=O)c3cc(F)cc4c3cc(C)n4C)cc3c2CNC3)ccn1
     RDKit          3D

 32 36  0  0  0  0  0  0  0  0999 V2000
   -8.0648    8.8174   -4.5757 C   0  0  0  0  0  0  0  0  0  0  0  0
   -8.8366    8.2363   -5.6145 O   0  0  0  0  0  0  0  0  0  0  0  0
   -8.0690    7.9566   -6.7294 C   0  0  0  0  0  0  0  0  0  0  0  0
   -8.5102    6.8930   -7.4946 C   0  0  0  0  0  0  0  0  0  0  0  0
   -7.7653    6.4724   -8.5948 C   0  0  0  0  0  0  0  0  0  0  0  0
   -8.1191    5.2633   -9.3651 C   0  0  0  0  0  0  0  0  0  0  0  0
   -8.0093    5.2564  -10.7749 C   0  0  0  0  0  0  0  0  0  0  0  0
   -8.2616    4.1073  -11.5436 C   0  0  0  0  0  0  0  0  0  0  0  0
   -8.1582    4.1271  -12.9329 N   0  0  0  0  0  0  0  0  0  0  0  0
   -7.6898    5.2497  -13.8904 C   0  0  0  0  0  0  0  0  0  0  0  0
   -7.3909    6.3577  -13.6696 O   0  0  0  0  0  0  0  0  0  0  0  0
   -7.7338    4.8114  -15.3098 C   0  0  0  0  0  0  0  0  0  0  0  0
   -8.8885    4.2139  -15.8294 C   0  0  0  0  0  0  0  0  0  0  0  0
   -8.9865    3.9624  -17.1874 C   0  0  0  0  0  0  0  0  0  0  0  0
  -10.1154    3.4357  -17.6770 F   0  0  0  0  0  0  0  0  0  0  0  0
   -7.9599    4.2802  -18.0677 C   0  0  0  0  0  0  0  0  0  0  0  0
   -6.8019    4.8745  -17.5437 C   0  0  0  0  0  0  0  0  0  0  0  0
   -6.6619    5.1316  -16.1758 C   0  0  0  0  0  0  0  0  0  0  0  0
   -5.3732    5.7065  -15.9989 C   0  0  0  0  0  0  0  0  0  0  0  0
   -4.7644    5.8099  -17.2331 C   0  0  0  0  0  0  0  0  0  0  0  0
   -3.4160    6.3350  -17.5735 C   0  0  0  0  0  0  0  0  0  0  0  0
   -5.6605    5.3400  -18.1681 N   0  0  0  0  0  0  0  0  0  0  0  0
   -5.4779    5.3865  -19.6047 C   0  0  0  0  0  0  0  0  0  0  0  0
   -8.6292    2.9208  -10.9192 C   0  0  0  0  0  0  0  0  0  0  0  0
   -8.7589    2.9191   -9.5420 C   0  0  0  0  0  0  0  0  0  0  0  0
   -8.5295    4.0646   -8.7740 C   0  0  0  0  0  0  0  0  0  0  0  0
   -8.7437    3.6900   -7.3364 C   0  0  0  0  0  0  0  0  0  0  0  0
   -9.4402    2.3847   -7.3475 N   0  0  0  0  0  0  0  0  0  0  0  0
   -9.0868    1.7713   -8.6454 C   0  0  0  0  0  0  0  0  0  0  0  0
   -6.6384    7.2405   -8.9159 C   0  0  0  0  0  0  0  0  0  0  0  0
   -6.3007    8.3271   -8.1185 C   0  0  0  0  0  0  0  0  0  0  0  0
   -6.9778    8.6914   -7.0102 N   0  0  0  0  0  0  0  0  0  0  0  0
  1  2  1  0
  2  3  1  0
  3  4  2  0
  4  5  1  0
  5  6  1  0
  6  7  2  0
  7  8  1  0
  8  9  1  0
  9 10  1  0
 10 11  2  0
 10 12  1  0
 12 13  2  0
 13 14  1  0
 14 15  1  0
 14 16  2  0
 16 17  1  0
 17 18  2  0
 18 19  1  0
 19 20  2  0
 20 21  1  0
 20 22  1  0
 22 23  1  0
  8 24  2  0
 24 25  1  0
 25 26  2  0
 26 27  1  0
 27 28  1  0
 28 29  1  0
  5 30  2  0
 30 31  1  0
 31 32  2  0
 32  3  1  0
 26  6  1  0
 18 12  1  0
 29 25  1  0
 22 17  1  0
M  END
>  <smiles>  (1277) 
C19287-P181

>  <fragmenstein_outcome>  (1277) 
acceptable

>  <inchikey>  (1277) 
GFSMGAJVNJBCFK-UHFFFAOYSA-N

>  <fragmenstein_mode>  (1277) 
expansion

>  <HIPPO Pose ID>  (1277) 
20836

>  <Energy>  (1277) 
50.823953

>  <fragmenstein_error>  (1277) 


>  <tags>  (1277) 
{'openbind_xx01zvns2b_c1_fragmenstein', 'fragmenstein_placed'}

>  <ref_pdb>  (1277) 
175

>  <scratch_subdir>  (1277) 
/opt/xchem-fragalysis-2/maxwin/BulkDock/SCRATCH/511028/C19287-P181

>  <alias>  (1277) 
COc1cc(-c2cc(NC(=O)c3cc(F)cc4c3cc(C)n4C)cc3c2CNC3)ccn1

>  <HIPPO Compound ID>  (1277) 
19287

>  <fragmenstein_runtime>  (1277) 
6.775981

$$$$
COc1cc(-c2cc(N[C@](O)(C(=O)NCC(F)F)c3cc(F)cc4n[nH]c(C(C)C)c34)cc3c2CNC3)ccn1
     RDKit          3D

 40 44  0  0  0  0  0  0  0  0999 V2000
   -8.1629    8.8834   -4.4012 C   0  0  0  0  0  0  0  0  0  0  0  0
   -8.9062    8.2484   -5.4286 O   0  0  0  0  0  0  0  0  0  0  0  0
   -8.1169    7.9467   -6.5200 C   0  0  0  0  0  0  0  0  0  0  0  0
   -8.5436    6.8679   -7.2700 C   0  0  0  0  0  0  0  0  0  0  0  0
   -7.7849    6.4507   -8.3585 C   0  0  0  0  0  0  0  0  0  0  0  0
   -8.1558    5.2716   -9.1562 C   0  0  0  0  0  0  0  0  0  0  0  0
   -8.1053    5.3503  -10.5631 C   0  0  0  0  0  0  0  0  0  0  0  0
   -8.3917    4.2738  -11.4232 C   0  0  0  0  0  0  0  0  0  0  0  0
   -8.4463    4.4062  -12.8293 N   0  0  0  0  0  0  0  0  0  0  0  0
   -7.3978    5.1727  -13.5574 C   0  0  2  0  0  0  0  0  0  0  0  0
   -6.1800    4.5967  -13.1563 O   0  0  0  0  0  0  0  0  0  0  0  0
   -7.5413    6.7903  -13.2946 C   0  0  0  0  0  0  0  0  0  0  0  0
   -6.6150    7.5057  -13.2711 O   0  0  0  0  0  0  0  0  0  0  0  0
   -9.0477    7.0815  -13.0257 N   0  0  0  0  0  0  0  0  0  0  0  0
   -9.7113    8.3014  -12.5767 C   0  0  0  0  0  0  0  0  0  0  0  0
  -11.0591    8.5939  -13.2399 C   0  0  0  0  0  0  0  0  0  0  0  0
  -11.6874    7.4228  -13.5245 F   0  0  0  0  0  0  0  0  0  0  0  0
  -10.8589    9.2466  -14.4127 F   0  0  0  0  0  0  0  0  0  0  0  0
   -7.5042    4.9247  -15.0651 C   0  0  0  0  0  0  0  0  0  0  0  0
   -8.7022    4.3999  -15.6575 C   0  0  0  0  0  0  0  0  0  0  0  0
   -8.8977    4.1144  -17.0386 C   0  0  0  0  0  0  0  0  0  0  0  0
  -10.0897    3.6316  -17.4215 F   0  0  0  0  0  0  0  0  0  0  0  0
   -7.9345    4.3312  -18.0172 C   0  0  0  0  0  0  0  0  0  0  0  0
   -6.7457    4.8698  -17.5147 C   0  0  0  0  0  0  0  0  0  0  0  0
   -5.6562    5.2246  -18.2059 N   0  0  0  0  0  0  0  0  0  0  0  0
   -4.7809    5.6086  -17.2870 N   0  0  0  0  0  0  0  0  0  0  0  0
   -5.2486    5.6405  -15.9978 C   0  0  0  0  0  0  0  0  0  0  0  0
   -4.3267    6.1340  -14.9179 C   0  0  0  0  0  0  0  0  0  0  0  0
   -3.1169    5.2138  -14.7467 C   0  0  0  0  0  0  0  0  0  0  0  0
   -3.8660    7.5707  -15.1977 C   0  0  0  0  0  0  0  0  0  0  0  0
   -6.5417    5.1472  -16.0876 C   0  0  0  0  0  0  0  0  0  0  0  0
   -8.7497    3.0565  -10.8374 C   0  0  0  0  0  0  0  0  0  0  0  0
   -8.8176    2.9630   -9.4553 C   0  0  0  0  0  0  0  0  0  0  0  0
   -8.5585    4.0536   -8.6241 C   0  0  0  0  0  0  0  0  0  0  0  0
   -8.7663    3.6124   -7.2071 C   0  0  0  0  0  0  0  0  0  0  0  0
   -9.4709    2.3132   -7.2854 N   0  0  0  0  0  0  0  0  0  0  0  0
   -9.1238    1.7668   -8.6165 C   0  0  0  0  0  0  0  0  0  0  0  0
   -6.6514    7.2155   -8.6734 C   0  0  0  0  0  0  0  0  0  0  0  0
   -6.3281    8.3123   -7.8882 C   0  0  0  0  0  0  0  0  0  0  0  0
   -7.0272    8.6863   -6.7994 N   0  0  0  0  0  0  0  0  0  0  0  0
  1  2  1  0
  2  3  1  0
  3  4  2  0
  4  5  1  0
  5  6  1  0
  6  7  2  0
  7  8  1  0
  8  9  1  0
  9 10  1  0
 10 11  1  1
 10 12  1  0
 12 13  2  0
 12 14  1  0
 14 15  1  0
 15 16  1  0
 16 17  1  0
 16 18  1  0
 10 19  1  0
 19 20  2  0
 20 21  1  0
 21 22  1  0
 21 23  2  0
 23 24  1  0
 24 25  2  0
 25 26  1  0
 26 27  1  0
 27 28  1  0
 28 29  1  0
 28 30  1  0
 27 31  2  0
  8 32  2  0
 32 33  1  0
 33 34  2  0
 34 35  1  0
 35 36  1  0
 36 37  1  0
  5 38  2  0
 38 39  1  0
 39 40  2  0
 40  3  1  0
 34  6  1  0
 31 19  1  0
 37 33  1  0
 31 24  1  0
M  END
>  <smiles>  (1278) 
C19288-P181

>  <fragmenstein_outcome>  (1278) 
acceptable

>  <inchikey>  (1278) 
OGXMPFBDABYYAC-UHFFFAOYSA-N

>  <fragmenstein_mode>  (1278) 
expansion

>  <HIPPO Pose ID>  (1278) 
20837

>  <Energy>  (1278) 
120.046344

>  <fragmenstein_error>  (1278) 


>  <tags>  (1278) 
{'openbind_xx01zvns2b_c1_fragmenstein', 'fragmenstein_placed'}

>  <ref_pdb>  (1278) 
175

>  <scratch_subdir>  (1278) 
/opt/xchem-fragalysis-2/maxwin/BulkDock/SCRATCH/511028/C19288-P181

>  <alias>  (1278) 
COc1cc(-c2cc(N[C@](O)(C(=O)NCC(F)F)c3cc(F)cc4n[nH]c(C(C)C)c34)cc3c2CNC3)ccn1

>  <HIPPO Compound ID>  (1278) 
19288

>  <fragmenstein_runtime>  (1278) 
8.573427

$$$$
COc1cc(-c2cc(NC(=O)c3cc(F)cc4c3c(C)[n+]([O-])n4OC)cc3c2CNC3)ccn1
     RDKit          3D

 34 38  0  0  0  0  0  0  0  0999 V2000
   -8.0656    8.8184   -4.6041 C   0  0  0  0  0  0  0  0  0  0  0  0
   -8.8315    8.2326   -5.6448 O   0  0  0  0  0  0  0  0  0  0  0  0
   -8.0588    7.9492   -6.7553 C   0  0  0  0  0  0  0  0  0  0  0  0
   -8.4963    6.8831   -7.5193 C   0  0  0  0  0  0  0  0  0  0  0  0
   -7.7433    6.4531   -8.6109 C   0  0  0  0  0  0  0  0  0  0  0  0
   -8.0926    5.2365   -9.3734 C   0  0  0  0  0  0  0  0  0  0  0  0
   -7.9621    5.2099  -10.7821 C   0  0  0  0  0  0  0  0  0  0  0  0
   -8.2229    4.0552  -11.5406 C   0  0  0  0  0  0  0  0  0  0  0  0
   -8.1108    4.0561  -12.9295 N   0  0  0  0  0  0  0  0  0  0  0  0
   -7.5695    5.1385  -13.8932 C   0  0  0  0  0  0  0  0  0  0  0  0
   -7.2046    6.2279  -13.6804 O   0  0  0  0  0  0  0  0  0  0  0  0
   -7.6342    4.7079  -15.3173 C   0  0  0  0  0  0  0  0  0  0  0  0
   -8.8304    4.1652  -15.8148 C   0  0  0  0  0  0  0  0  0  0  0  0
   -9.0134    3.9956  -17.1781 C   0  0  0  0  0  0  0  0  0  0  0  0
  -10.1748    3.5051  -17.6259 F   0  0  0  0  0  0  0  0  0  0  0  0
   -8.0587    4.3988  -18.0993 C   0  0  0  0  0  0  0  0  0  0  0  0
   -6.8817    4.9628  -17.6044 C   0  0  0  0  0  0  0  0  0  0  0  0
   -6.5908    5.0646  -16.2156 C   0  0  0  0  0  0  0  0  0  0  0  0
   -5.2231    5.5603  -16.0503 C   0  0  0  0  0  0  0  0  0  0  0  0
   -4.3616    5.7613  -14.8882 C   0  0  0  0  0  0  0  0  0  0  0  0
   -4.7725    5.8959  -17.2704 N   0  0  0  0  0  0  0  0  0  0  0  0
   -3.6767    6.3938  -17.6382 O   0  0  0  0  0  0  0  0  0  0  0  0
   -5.8350    5.6069  -18.2304 N   0  0  0  0  0  0  0  0  0  0  0  0
   -5.9763    6.2969  -19.4479 O   0  0  0  0  0  0  0  0  0  0  0  0
   -4.9560    5.8776  -20.3382 C   0  0  0  0  0  0  0  0  0  0  0  0
   -8.6198    2.8838  -10.9074 C   0  0  0  0  0  0  0  0  0  0  0  0
   -8.7576    2.8977   -9.5315 C   0  0  0  0  0  0  0  0  0  0  0  0
   -8.5205    4.0480   -8.7733 C   0  0  0  0  0  0  0  0  0  0  0  0
   -8.7467    3.6881   -7.3332 C   0  0  0  0  0  0  0  0  0  0  0  0
   -9.4504    2.3867   -7.3354 N   0  0  0  0  0  0  0  0  0  0  0  0
   -9.0990    1.7605   -8.6268 C   0  0  0  0  0  0  0  0  0  0  0  0
   -6.6139    7.2187   -8.9284 C   0  0  0  0  0  0  0  0  0  0  0  0
   -6.2810    8.3098   -8.1345 C   0  0  0  0  0  0  0  0  0  0  0  0
   -6.9647    8.6806   -7.0325 N   0  0  0  0  0  0  0  0  0  0  0  0
  1  2  1  0
  2  3  1  0
  3  4  2  0
  4  5  1  0
  5  6  1  0
  6  7  2  0
  7  8  1  0
  8  9  1  0
  9 10  1  0
 10 11  2  0
 10 12  1  0
 12 13  2  0
 13 14  1  0
 14 15  1  0
 14 16  2  0
 16 17  1  0
 17 18  2  0
 18 19  1  0
 19 20  1  0
 19 21  2  0
 21 22  1  0
 21 23  1  0
 23 24  1  0
 24 25  1  0
  8 26  2  0
 26 27  1  0
 27 28  2  0
 28 29  1  0
 29 30  1  0
 30 31  1  0
  5 32  2  0
 32 33  1  0
 33 34  2  0
 34  3  1  0
 28  6  1  0
 18 12  1  0
 31 27  1  0
 23 17  1  0
M  CHG  2  21   1  22  -1
M  END
>  <smiles>  (1279) 
C19289-P181

>  <fragmenstein_outcome>  (1279) 
acceptable

>  <inchikey>  (1279) 
RMQJKWNBVSOSHO-UHFFFAOYSA-N

>  <fragmenstein_mode>  (1279) 
expansion

>  <HIPPO Pose ID>  (1279) 
20838

>  <Energy>  (1279) 
80.131218

>  <fragmenstein_error>  (1279) 


>  <tags>  (1279) 
{'openbind_xx01zvns2b_c1_fragmenstein', 'fragmenstein_placed'}

>  <ref_pdb>  (1279) 
175

>  <scratch_subdir>  (1279) 
/opt/xchem-fragalysis-2/maxwin/BulkDock/SCRATCH/511028/C19289-P181

>  <alias>  (1279) 
COc1cc(-c2cc(NC(=O)c3cc(F)cc4c3c(C)[n+]([O-])n4OC)cc3c2CNC3)ccn1

>  <HIPPO Compound ID>  (1279) 
19289

>  <fragmenstein_runtime>  (1279) 
6.306044

$$$$
CNCn1ncc2c(C(=O)Nc3cc4c(c(-c5ccnc(OC)c5)c3)CNC4)cc(F)cc21
     RDKit          3D

 33 37  0  0  0  0  0  0  0  0999 V2000
   -8.6798    4.7693  -18.9037 C   0  0  0  0  0  0  0  0  0  0  0  0
   -7.4694    5.6088  -18.8558 N   0  0  0  0  0  0  0  0  0  0  0  0
   -6.1715    4.9464  -18.7985 C   0  0  0  0  0  0  0  0  0  0  0  0
   -5.8073    4.8499  -17.3837 N   0  0  0  0  0  0  0  0  0  0  0  0
   -4.7839    5.5593  -16.8437 N   0  0  0  0  0  0  0  0  0  0  0  0
   -5.1656    5.7210  -15.5655 C   0  0  0  0  0  0  0  0  0  0  0  0
   -6.4390    5.1777  -15.3109 C   0  0  0  0  0  0  0  0  0  0  0  0
   -7.4095    5.1181  -14.3171 C   0  0  0  0  0  0  0  0  0  0  0  0
   -7.1745    5.4907  -12.9393 C   0  0  0  0  0  0  0  0  0  0  0  0
   -6.7261    6.5198  -12.6243 O   0  0  0  0  0  0  0  0  0  0  0  0
   -7.7225    4.3283  -12.0762 N   0  0  0  0  0  0  0  0  0  0  0  0
   -7.9088    4.2375  -10.7264 C   0  0  0  0  0  0  0  0  0  0  0  0
   -8.4334    3.0639  -10.2081 C   0  0  0  0  0  0  0  0  0  0  0  0
   -8.7046    3.0483   -8.8615 C   0  0  0  0  0  0  0  0  0  0  0  0
   -8.4497    4.1538   -8.0472 C   0  0  0  0  0  0  0  0  0  0  0  0
   -7.9373    5.3405   -8.5707 C   0  0  0  0  0  0  0  0  0  0  0  0
   -7.6582    6.5603   -7.8148 C   0  0  0  0  0  0  0  0  0  0  0  0
   -6.5298    7.3498   -8.0976 C   0  0  0  0  0  0  0  0  0  0  0  0
   -6.3133    8.5119   -7.3795 C   0  0  0  0  0  0  0  0  0  0  0  0
   -7.1092    8.9195   -6.3758 N   0  0  0  0  0  0  0  0  0  0  0  0
   -8.1861    8.1477   -6.1285 C   0  0  0  0  0  0  0  0  0  0  0  0
   -9.0552    8.4867   -5.1151 O   0  0  0  0  0  0  0  0  0  0  0  0
   -8.3485    9.0327   -4.0138 C   0  0  0  0  0  0  0  0  0  0  0  0
   -8.5200    7.0074   -6.8263 C   0  0  0  0  0  0  0  0  0  0  0  0
   -7.6881    5.3555   -9.9401 C   0  0  0  0  0  0  0  0  0  0  0  0
   -8.8339    3.7867   -6.6505 C   0  0  0  0  0  0  0  0  0  0  0  0
   -9.0991    2.3305   -6.6504 N   0  0  0  0  0  0  0  0  0  0  0  0
   -9.3111    1.9522   -8.0645 C   0  0  0  0  0  0  0  0  0  0  0  0
   -8.6994    4.6321  -14.6003 C   0  0  0  0  0  0  0  0  0  0  0  0
   -8.8970    3.9066  -15.7317 C   0  0  0  0  0  0  0  0  0  0  0  0
  -10.1047    3.4880  -16.0928 F   0  0  0  0  0  0  0  0  0  0  0  0
   -7.8535    3.6593  -16.5757 C   0  0  0  0  0  0  0  0  0  0  0  0
   -6.7227    4.4535  -16.4458 C   0  0  0  0  0  0  0  0  0  0  0  0
  1  2  1  0
  2  3  1  0
  3  4  1  0
  4  5  1  0
  5  6  2  0
  6  7  1  0
  7  8  2  0
  8  9  1  0
  9 10  2  0
  9 11  1  0
 11 12  1  0
 12 13  2  0
 13 14  1  0
 14 15  2  0
 15 16  1  0
 16 17  1  0
 17 18  2  0
 18 19  1  0
 19 20  2  0
 20 21  1  0
 21 22  1  0
 22 23  1  0
 21 24  2  0
 16 25  2  0
 15 26  1  0
 26 27  1  0
 27 28  1  0
  8 29  1  0
 29 30  2  0
 30 31  1  0
 30 32  1  0
 32 33  2  0
 33  4  1  0
 33  7  1  0
 25 12  1  0
 28 14  1  0
 24 17  1  0
M  END
>  <smiles>  (1280) 
C19298-P181

>  <fragmenstein_outcome>  (1280) 
acceptable

>  <inchikey>  (1280) 
OWRZMJGBJUBENM-UHFFFAOYSA-N

>  <fragmenstein_mode>  (1280) 
expansion

>  <HIPPO Pose ID>  (1280) 
20841

>  <Energy>  (1280) 
127.927195

>  <fragmenstein_error>  (1280) 


>  <tags>  (1280) 
{'openbind_xx01zvns2b_c1_fragmenstein', 'fragmenstein_placed'}

>  <ref_pdb>  (1280) 
175

>  <scratch_subdir>  (1280) 
/opt/xchem-fragalysis-2/maxwin/BulkDock/SCRATCH/511028/C19298-P181

>  <alias>  (1280) 
CNCn1ncc2c(C(=O)Nc3cc4c(c(-c5ccnc(OC)c5)c3)CNC4)cc(F)cc21

>  <HIPPO Compound ID>  (1280) 
20712

>  <fragmenstein_runtime>  (1280) 
4.390575

$$$$
COc1cc(-c2cc(NC(=O)c3cc(F)c4[nH]c(=O)n5ncc3c45)cc3c2CNC3)ccn1
     RDKit          3D

 33 38  0  0  0  0  0  0  0  0999 V2000
   -8.1159    8.9099   -4.4546 C   0  0  0  0  0  0  0  0  0  0  0  0
   -8.8774    8.2548   -5.4554 O   0  0  0  0  0  0  0  0  0  0  0  0
   -8.1198    7.9746   -6.5757 C   0  0  0  0  0  0  0  0  0  0  0  0
   -8.5452    6.8849   -7.3102 C   0  0  0  0  0  0  0  0  0  0  0  0
   -7.8133    6.4796   -8.4232 C   0  0  0  0  0  0  0  0  0  0  0  0
   -8.1615    5.2616   -9.1741 C   0  0  0  0  0  0  0  0  0  0  0  0
   -8.0845    5.2498  -10.5777 C   0  0  0  0  0  0  0  0  0  0  0  0
   -8.3400    4.0947  -11.3325 C   0  0  0  0  0  0  0  0  0  0  0  0
   -8.1643    4.1136  -12.7083 N   0  0  0  0  0  0  0  0  0  0  0  0
   -7.6729    5.2376  -13.6384 C   0  0  0  0  0  0  0  0  0  0  0  0
   -7.2646    6.3015  -13.3890 O   0  0  0  0  0  0  0  0  0  0  0  0
   -7.6457    4.8181  -15.0436 C   0  0  0  0  0  0  0  0  0  0  0  0
   -8.7668    4.2439  -15.7324 C   0  0  0  0  0  0  0  0  0  0  0  0
   -8.7533    4.0263  -17.1346 C   0  0  0  0  0  0  0  0  0  0  0  0
   -9.8484    3.5666  -17.7504 F   0  0  0  0  0  0  0  0  0  0  0  0
   -7.6143    4.3396  -17.8328 C   0  0  0  0  0  0  0  0  0  0  0  0
   -7.0946    4.4461  -19.1333 N   0  0  0  0  0  0  0  0  0  0  0  0
   -5.8002    5.0657  -19.1374 C   0  0  0  0  0  0  0  0  0  0  0  0
   -5.0664    5.4755  -20.0138 O   0  0  0  0  0  0  0  0  0  0  0  0
   -5.5373    5.2224  -17.7706 N   0  0  0  0  0  0  0  0  0  0  0  0
   -4.6024    5.7828  -16.9816 N   0  0  0  0  0  0  0  0  0  0  0  0
   -5.1985    5.7087  -15.7564 C   0  0  0  0  0  0  0  0  0  0  0  0
   -6.4997    5.1249  -15.7867 C   0  0  0  0  0  0  0  0  0  0  0  0
   -6.6051    4.8227  -17.0862 C   0  0  0  0  0  0  0  0  0  0  0  0
   -8.7149    2.9152  -10.7067 C   0  0  0  0  0  0  0  0  0  0  0  0
   -8.8092    2.9206   -9.3269 C   0  0  0  0  0  0  0  0  0  0  0  0
   -8.5394    4.0612   -8.5710 C   0  0  0  0  0  0  0  0  0  0  0  0
   -8.7312    3.7199   -7.1273 C   0  0  0  0  0  0  0  0  0  0  0  0
   -8.9568    2.2635   -7.0466 N   0  0  0  0  0  0  0  0  0  0  0  0
   -9.1759    1.7905   -8.4315 C   0  0  0  0  0  0  0  0  0  0  0  0
   -6.7155    7.2744   -8.7821 C   0  0  0  0  0  0  0  0  0  0  0  0
   -6.3917    8.3800   -8.0080 C   0  0  0  0  0  0  0  0  0  0  0  0
   -7.0568    8.7374   -6.8913 N   0  0  0  0  0  0  0  0  0  0  0  0
  1  2  1  0
  2  3  1  0
  3  4  2  0
  4  5  1  0
  5  6  1  0
  6  7  2  0
  7  8  1  0
  8  9  1  0
  9 10  1  0
 10 11  2  0
 10 12  1  0
 12 13  2  0
 13 14  1  0
 14 15  1  0
 14 16  2  0
 16 17  1  0
 17 18  1  0
 18 19  2  0
 18 20  1  0
 20 21  1  0
 21 22  2  0
 22 23  1  0
 23 24  2  0
  8 25  2  0
 25 26  1  0
 26 27  2  0
 27 28  1  0
 28 29  1  0
 29 30  1  0
  5 31  2  0
 31 32  1  0
 32 33  2  0
 33  3  1  0
 27  6  1  0
 23 12  1  0
 30 26  1  0
 24 16  1  0
 24 20  1  0
M  END
>  <smiles>  (1281) 
C19299-P181

>  <fragmenstein_outcome>  (1281) 
acceptable

>  <inchikey>  (1281) 
PQNJPEWRWHDPFT-UHFFFAOYSA-N

>  <fragmenstein_mode>  (1281) 
expansion

>  <HIPPO Pose ID>  (1281) 
20844

>  <Energy>  (1281) 
137.046189

>  <fragmenstein_error>  (1281) 


>  <tags>  (1281) 
{'openbind_xx01zvns2b_c1_fragmenstein', 'fragmenstein_placed'}

>  <ref_pdb>  (1281) 
175

>  <scratch_subdir>  (1281) 
/opt/xchem-fragalysis-2/maxwin/BulkDock/SCRATCH/511028/C19299-P181

>  <alias>  (1281) 
COc1cc(-c2cc(NC(=O)c3cc(F)c4[nH]c(=O)n5ncc3c45)cc3c2CNC3)ccn1

>  <HIPPO Compound ID>  (1281) 
27620

>  <fragmenstein_runtime>  (1281) 
4.227793

$$$$
COc1cc(-c2cc(NC(=O)c3cc(F)cc4nn(CC5CCNCC5)cc34)cc3c2CNC3)ccn1
     RDKit          3D

 37 42  0  0  0  0  0  0  0  0999 V2000
   -8.0683    8.8401   -4.5207 C   0  0  0  0  0  0  0  0  0  0  0  0
   -8.8548    8.2365   -5.5350 O   0  0  0  0  0  0  0  0  0  0  0  0
   -8.1049    7.9411   -6.6572 C   0  0  0  0  0  0  0  0  0  0  0  0
   -8.5584    6.8663   -7.3987 C   0  0  0  0  0  0  0  0  0  0  0  0
   -7.8391    6.4445   -8.5139 C   0  0  0  0  0  0  0  0  0  0  0  0
   -8.2110    5.2373   -9.2747 C   0  0  0  0  0  0  0  0  0  0  0  0
   -8.1672    5.2476  -10.6847 C   0  0  0  0  0  0  0  0  0  0  0  0
   -8.4190    4.0993  -11.4551 C   0  0  0  0  0  0  0  0  0  0  0  0
   -8.3634    4.1518  -12.8448 N   0  0  0  0  0  0  0  0  0  0  0  0
   -7.9624    5.3036  -13.7883 C   0  0  0  0  0  0  0  0  0  0  0  0
   -7.6894    6.4137  -13.5536 O   0  0  0  0  0  0  0  0  0  0  0  0
   -7.8764    4.8510  -15.1863 C   0  0  0  0  0  0  0  0  0  0  0  0
   -8.8987    4.1859  -15.8809 C   0  0  0  0  0  0  0  0  0  0  0  0
   -8.8308    3.9133  -17.2776 C   0  0  0  0  0  0  0  0  0  0  0  0
   -9.8982    3.3230  -17.8358 F   0  0  0  0  0  0  0  0  0  0  0  0
   -7.7402    4.2422  -18.1066 C   0  0  0  0  0  0  0  0  0  0  0  0
   -6.6997    4.8954  -17.4277 C   0  0  0  0  0  0  0  0  0  0  0  0
   -5.5310    5.3924  -17.8758 N   0  0  0  0  0  0  0  0  0  0  0  0
   -4.9512    5.9527  -16.7970 N   0  0  0  0  0  0  0  0  0  0  0  0
   -3.7630    6.7680  -16.9519 C   0  0  0  0  0  0  0  0  0  0  0  0
   -2.4539    6.0551  -16.5760 C   0  0  0  0  0  0  0  0  0  0  0  0
   -1.2426    6.8132  -17.1467 C   0  0  0  0  0  0  0  0  0  0  0  0
   -0.9785    8.1240  -16.4046 C   0  0  0  0  0  0  0  0  0  0  0  0
   -0.8070    7.9005  -14.9715 N   0  0  0  0  0  0  0  0  0  0  0  0
   -1.9589    7.2349  -14.3669 C   0  0  0  0  0  0  0  0  0  0  0  0
   -2.2544    5.9028  -15.0572 C   0  0  0  0  0  0  0  0  0  0  0  0
   -5.6686    5.8311  -15.6503 C   0  0  0  0  0  0  0  0  0  0  0  0
   -6.8042    5.1661  -16.0162 C   0  0  0  0  0  0  0  0  0  0  0  0
   -8.7178    2.8947  -10.8336 C   0  0  0  0  0  0  0  0  0  0  0  0
   -8.8092    2.8834   -9.4537 C   0  0  0  0  0  0  0  0  0  0  0  0
   -8.5819    4.0286   -8.6828 C   0  0  0  0  0  0  0  0  0  0  0  0
   -8.7654    3.6460   -7.2442 C   0  0  0  0  0  0  0  0  0  0  0  0
   -9.4445    2.3315   -7.2515 N   0  0  0  0  0  0  0  0  0  0  0  0
   -9.1009    1.7273   -8.5569 C   0  0  0  0  0  0  0  0  0  0  0  0
   -6.7214    7.2130   -8.8678 C   0  0  0  0  0  0  0  0  0  0  0  0
   -6.3685    8.3067   -8.0880 C   0  0  0  0  0  0  0  0  0  0  0  0
   -7.0232    8.6784   -6.9695 N   0  0  0  0  0  0  0  0  0  0  0  0
  1  2  1  0
  2  3  1  0
  3  4  2  0
  4  5  1  0
  5  6  1  0
  6  7  2  0
  7  8  1  0
  8  9  1  0
  9 10  1  0
 10 11  2  0
 10 12  1  0
 12 13  2  0
 13 14  1  0
 14 15  1  0
 14 16  2  0
 16 17  1  0
 17 18  2  0
 18 19  1  0
 19 20  1  0
 20 21  1  0
 21 22  1  0
 22 23  1  0
 23 24  1  0
 24 25  1  0
 25 26  1  0
 19 27  1  0
 27 28  2  0
  8 29  2  0
 29 30  1  0
 30 31  2  0
 31 32  1  0
 32 33  1  0
 33 34  1  0
  5 35  2  0
 35 36  1  0
 36 37  2  0
 37  3  1  0
 31  6  1  0
 28 12  1  0
 34 30  1  0
 28 17  1  0
 26 21  1  0
M  END
>  <smiles>  (1282) 
C19317-P181

>  <fragmenstein_outcome>  (1282) 
acceptable

>  <inchikey>  (1282) 
NNXDYSUULDOARB-UHFFFAOYSA-N

>  <fragmenstein_mode>  (1282) 
expansion

>  <HIPPO Pose ID>  (1282) 
20846

>  <Energy>  (1282) 
38.691418

>  <fragmenstein_error>  (1282) 


>  <tags>  (1282) 
{'openbind_xx01zvns2b_c1_fragmenstein', 'fragmenstein_placed'}

>  <ref_pdb>  (1282) 
175

>  <scratch_subdir>  (1282) 
/opt/xchem-fragalysis-2/maxwin/BulkDock/SCRATCH/511028/C19317-P181

>  <alias>  (1282) 
COc1cc(-c2cc(NC(=O)c3cc(F)cc4nn(CC5CCNCC5)cc34)cc3c2CNC3)ccn1

>  <HIPPO Compound ID>  (1282) 
19317

>  <fragmenstein_runtime>  (1282) 
14.370945

$$$$
CNCn1ncc2c(C(=O)Nc3cc4c(c(-c5ccnc(OC)c5)c3F)CNC4)cc(F)cc21
     RDKit          3D

 34 38  0  0  0  0  0  0  0  0999 V2000
   -4.7381    7.0118  -21.2514 C   0  0  0  0  0  0  0  0  0  0  0  0
   -5.2088    6.8432  -19.8888 N   0  0  0  0  0  0  0  0  0  0  0  0
   -5.3156    5.4066  -19.5677 C   0  0  0  0  0  0  0  0  0  0  0  0
   -5.6366    5.3075  -18.1444 N   0  0  0  0  0  0  0  0  0  0  0  0
   -4.7235    5.7540  -17.2407 N   0  0  0  0  0  0  0  0  0  0  0  0
   -5.3639    5.6419  -16.0758 C   0  0  0  0  0  0  0  0  0  0  0  0
   -6.6542    5.0811  -16.2063 C   0  0  0  0  0  0  0  0  0  0  0  0
   -7.7168    4.7690  -15.3318 C   0  0  0  0  0  0  0  0  0  0  0  0
   -7.6230    5.1941  -13.9125 C   0  0  0  0  0  0  0  0  0  0  0  0
   -7.1270    6.2301  -13.6991 O   0  0  0  0  0  0  0  0  0  0  0  0
   -8.2569    4.1660  -12.9432 N   0  0  0  0  0  0  0  0  0  0  0  0
   -8.3247    4.1565  -11.5446 C   0  0  0  0  0  0  0  0  0  0  0  0
   -8.6565    2.9579  -10.9154 C   0  0  0  0  0  0  0  0  0  0  0  0
   -8.7260    2.9320   -9.5311 C   0  0  0  0  0  0  0  0  0  0  0  0
   -8.4764    4.0644   -8.7594 C   0  0  0  0  0  0  0  0  0  0  0  0
   -8.1290    5.2837   -9.3472 C   0  0  0  0  0  0  0  0  0  0  0  0
   -7.7901    6.4881   -8.5618 C   0  0  0  0  0  0  0  0  0  0  0  0
   -6.6942    7.2956   -8.8945 C   0  0  0  0  0  0  0  0  0  0  0  0
   -6.3718    8.3792   -8.0883 C   0  0  0  0  0  0  0  0  0  0  0  0
   -7.0342    8.7028   -6.9589 N   0  0  0  0  0  0  0  0  0  0  0  0
   -8.0983    7.9329   -6.6676 C   0  0  0  0  0  0  0  0  0  0  0  0
   -8.8565    8.1765   -5.5380 O   0  0  0  0  0  0  0  0  0  0  0  0
   -8.1221    8.8679   -4.5411 C   0  0  0  0  0  0  0  0  0  0  0  0
   -8.5211    6.8638   -7.4357 C   0  0  0  0  0  0  0  0  0  0  0  0
   -8.0824    5.3003  -10.7582 C   0  0  0  0  0  0  0  0  0  0  0  0
   -7.8499    6.4778  -11.3583 F   0  0  0  0  0  0  0  0  0  0  0  0
   -8.6452    3.6996   -7.3187 C   0  0  0  0  0  0  0  0  0  0  0  0
   -8.9726    2.2629   -7.2574 N   0  0  0  0  0  0  0  0  0  0  0  0
   -9.0268    1.7682   -8.6503 C   0  0  0  0  0  0  0  0  0  0  0  0
   -8.8804    4.1950  -15.8561 C   0  0  0  0  0  0  0  0  0  0  0  0
   -8.9845    3.9560  -17.2195 C   0  0  0  0  0  0  0  0  0  0  0  0
  -10.1222    3.4450  -17.7046 F   0  0  0  0  0  0  0  0  0  0  0  0
   -7.9556    4.2621  -18.1055 C   0  0  0  0  0  0  0  0  0  0  0  0
   -6.7953    4.8377  -17.5721 C   0  0  0  0  0  0  0  0  0  0  0  0
  1  2  1  0
  2  3  1  0
  3  4  1  0
  4  5  1  0
  5  6  2  0
  6  7  1  0
  7  8  2  0
  8  9  1  0
  9 10  2  0
  9 11  1  0
 11 12  1  0
 12 13  2  0
 13 14  1  0
 14 15  2  0
 15 16  1  0
 16 17  1  0
 17 18  2  0
 18 19  1  0
 19 20  2  0
 20 21  1  0
 21 22  1  0
 22 23  1  0
 21 24  2  0
 16 25  2  0
 25 26  1  0
 15 27  1  0
 27 28  1  0
 28 29  1  0
  8 30  1  0
 30 31  2  0
 31 32  1  0
 31 33  1  0
 33 34  2  0
 34  4  1  0
 34  7  1  0
 25 12  1  0
 29 14  1  0
 24 17  1  0
M  END
>  <smiles>  (1283) 
C19326-P181

>  <fragmenstein_outcome>  (1283) 
acceptable

>  <inchikey>  (1283) 
WTCKVQRHKULWED-UHFFFAOYSA-N

>  <fragmenstein_mode>  (1283) 
expansion

>  <HIPPO Pose ID>  (1283) 
20848

>  <Energy>  (1283) 
99.825664

>  <fragmenstein_error>  (1283) 


>  <tags>  (1283) 
{'openbind_xx01zvns2b_c1_fragmenstein', 'fragmenstein_placed'}

>  <ref_pdb>  (1283) 
175

>  <scratch_subdir>  (1283) 
/opt/xchem-fragalysis-2/maxwin/BulkDock/SCRATCH/511028/C19326-P181

>  <alias>  (1283) 
CNCn1ncc2c(C(=O)Nc3cc4c(c(-c5ccnc(OC)c5)c3F)CNC4)cc(F)cc21

>  <HIPPO Compound ID>  (1283) 
35608

>  <fragmenstein_runtime>  (1283) 
6.42203

$$$$
CNCn1ncc2c(C(=O)Nc3cc4c(c(-c5ccnc(OC)c5)c3)CN(F)C4)cc(F)cc21
     RDKit          3D

 34 38  0  0  0  0  0  0  0  0999 V2000
   -2.8376    5.0246  -19.2480 C   0  0  0  0  0  0  0  0  0  0  0  0
   -3.8339    6.0187  -19.6298 N   0  0  0  0  0  0  0  0  0  0  0  0
   -5.2131    5.4976  -19.5067 C   0  0  0  0  0  0  0  0  0  0  0  0
   -5.6214    5.4914  -18.0939 N   0  0  0  0  0  0  0  0  0  0  0  0
   -4.8729    6.1615  -17.1764 N   0  0  0  0  0  0  0  0  0  0  0  0
   -5.5160    5.9542  -16.0299 C   0  0  0  0  0  0  0  0  0  0  0  0
   -6.7173    5.2355  -16.1991 C   0  0  0  0  0  0  0  0  0  0  0  0
   -7.7759    4.8368  -15.3576 C   0  0  0  0  0  0  0  0  0  0  0  0
   -7.7706    5.2862  -13.9415 C   0  0  0  0  0  0  0  0  0  0  0  0
   -7.4256    6.3803  -13.7232 O   0  0  0  0  0  0  0  0  0  0  0  0
   -8.2473    4.1756  -12.9789 N   0  0  0  0  0  0  0  0  0  0  0  0
   -8.3071    4.1484  -11.5867 C   0  0  0  0  0  0  0  0  0  0  0  0
   -8.6231    2.9517  -10.9516 C   0  0  0  0  0  0  0  0  0  0  0  0
   -8.6967    2.9437   -9.5697 C   0  0  0  0  0  0  0  0  0  0  0  0
   -8.4522    4.0907   -8.8130 C   0  0  0  0  0  0  0  0  0  0  0  0
   -8.1007    5.3014   -9.4164 C   0  0  0  0  0  0  0  0  0  0  0  0
   -7.7545    6.5114   -8.6468 C   0  0  0  0  0  0  0  0  0  0  0  0
   -6.6379    7.2912   -8.9707 C   0  0  0  0  0  0  0  0  0  0  0  0
   -6.3039    8.3713   -8.1629 C   0  0  0  0  0  0  0  0  0  0  0  0
   -6.9759    8.7180   -7.0451 N   0  0  0  0  0  0  0  0  0  0  0  0
   -8.0602    7.9730   -6.7643 C   0  0  0  0  0  0  0  0  0  0  0  0
   -8.8215    8.2330   -5.6404 O   0  0  0  0  0  0  0  0  0  0  0  0
   -8.0517    8.8201   -4.6035 C   0  0  0  0  0  0  0  0  0  0  0  0
   -8.4973    6.9143   -7.5378 C   0  0  0  0  0  0  0  0  0  0  0  0
   -8.0501    5.3031  -10.8271 C   0  0  0  0  0  0  0  0  0  0  0  0
   -8.5781    3.7199   -7.3644 C   0  0  0  0  0  0  0  0  0  0  0  0
   -9.1535    2.3603   -7.3115 N   0  0  0  0  0  0  0  0  0  0  0  0
  -10.4956    2.4190   -6.9887 F   0  0  0  0  0  0  0  0  0  0  0  0
   -8.9705    1.7878   -8.6620 C   0  0  0  0  0  0  0  0  0  0  0  0
   -8.8651    4.1600  -15.9153 C   0  0  0  0  0  0  0  0  0  0  0  0
   -8.8929    3.8960  -17.2790 C   0  0  0  0  0  0  0  0  0  0  0  0
   -9.9704    3.2954  -17.7986 F   0  0  0  0  0  0  0  0  0  0  0  0
   -7.8506    4.2608  -18.1310 C   0  0  0  0  0  0  0  0  0  0  0  0
   -6.7693    4.9458  -17.5633 C   0  0  0  0  0  0  0  0  0  0  0  0
  1  2  1  0
  2  3  1  0
  3  4  1  0
  4  5  1  0
  5  6  2  0
  6  7  1  0
  7  8  2  0
  8  9  1  0
  9 10  2  0
  9 11  1  0
 11 12  1  0
 12 13  2  0
 13 14  1  0
 14 15  2  0
 15 16  1  0
 16 17  1  0
 17 18  2  0
 18 19  1  0
 19 20  2  0
 20 21  1  0
 21 22  1  0
 22 23  1  0
 21 24  2  0
 16 25  2  0
 15 26  1  0
 26 27  1  0
 27 28  1  0
 27 29  1  0
  8 30  1  0
 30 31  2  0
 31 32  1  0
 31 33  1  0
 33 34  2  0
 34  4  1  0
 34  7  1  0
 25 12  1  0
 29 14  1  0
 24 17  1  0
M  END
>  <smiles>  (1284) 
C19330-P181

>  <fragmenstein_outcome>  (1284) 
acceptable

>  <inchikey>  (1284) 
KGZDHXSHQJLZPU-UHFFFAOYSA-N

>  <fragmenstein_mode>  (1284) 
expansion

>  <HIPPO Pose ID>  (1284) 
20849

>  <Energy>  (1284) 
90.623087

>  <fragmenstein_error>  (1284) 


>  <tags>  (1284) 
{'openbind_xx01zvns2b_c1_fragmenstein', 'fragmenstein_placed'}

>  <ref_pdb>  (1284) 
175

>  <scratch_subdir>  (1284) 
/opt/xchem-fragalysis-2/maxwin/BulkDock/SCRATCH/511028/C19330-P181

>  <alias>  (1284) 
CNCn1ncc2c(C(=O)Nc3cc4c(c(-c5ccnc(OC)c5)c3)CN(F)C4)cc(F)cc21

>  <HIPPO Compound ID>  (1284) 
42871

>  <fragmenstein_runtime>  (1284) 
5.153802

$$$$
CNCn1ncc2c(C(=O)Nc3cc4c(c(-c5ccnc(OC)c5)c3)CN(CC(F)F)C4)cc(F)cc21
     RDKit          3D

 37 41  0  0  0  0  0  0  0  0999 V2000
   -4.2966    7.4459  -19.8497 C   0  0  0  0  0  0  0  0  0  0  0  0
   -5.4785    6.6205  -20.0493 N   0  0  0  0  0  0  0  0  0  0  0  0
   -5.2820    5.2541  -19.5280 C   0  0  0  0  0  0  0  0  0  0  0  0
   -5.5864    5.2170  -18.0992 N   0  0  0  0  0  0  0  0  0  0  0  0
   -4.6349    5.5769  -17.1999 N   0  0  0  0  0  0  0  0  0  0  0  0
   -5.2760    5.5163  -16.0312 C   0  0  0  0  0  0  0  0  0  0  0  0
   -6.5967    5.0260  -16.1485 C   0  0  0  0  0  0  0  0  0  0  0  0
   -7.6689    4.7621  -15.2665 C   0  0  0  0  0  0  0  0  0  0  0  0
   -7.5730    5.2231  -13.8581 C   0  0  0  0  0  0  0  0  0  0  0  0
   -7.0697    6.2644  -13.6840 O   0  0  0  0  0  0  0  0  0  0  0  0
   -8.2144    4.2354  -12.8486 N   0  0  0  0  0  0  0  0  0  0  0  0
   -8.2817    4.2801  -11.4542 C   0  0  0  0  0  0  0  0  0  0  0  0
   -8.7078    3.1652  -10.7244 C   0  0  0  0  0  0  0  0  0  0  0  0
   -8.6929    3.2429   -9.3369 C   0  0  0  0  0  0  0  0  0  0  0  0
   -8.2334    4.3866   -8.6930 C   0  0  0  0  0  0  0  0  0  0  0  0
   -7.9021    5.5474   -9.3891 C   0  0  0  0  0  0  0  0  0  0  0  0
   -7.5676    6.7880   -8.6829 C   0  0  0  0  0  0  0  0  0  0  0  0
   -6.4160    7.5229   -8.9594 C   0  0  0  0  0  0  0  0  0  0  0  0
   -6.1014    8.5987   -8.1390 C   0  0  0  0  0  0  0  0  0  0  0  0
   -6.8216    8.9683   -7.0557 N   0  0  0  0  0  0  0  0  0  0  0  0
   -7.9496    8.2690   -6.8382 C   0  0  0  0  0  0  0  0  0  0  0  0
   -8.7355    8.5285   -5.7328 O   0  0  0  0  0  0  0  0  0  0  0  0
   -7.9432    8.8461   -4.5990 C   0  0  0  0  0  0  0  0  0  0  0  0
   -8.3836    7.2385   -7.6432 C   0  0  0  0  0  0  0  0  0  0  0  0
   -7.9191    5.4650  -10.7874 C   0  0  0  0  0  0  0  0  0  0  0  0
   -8.0888    4.0953   -7.2333 C   0  0  0  0  0  0  0  0  0  0  0  0
   -8.8159    2.8337   -6.9785 N   0  0  0  0  0  0  0  0  0  0  0  0
   -9.9496    3.1142   -6.0885 C   0  0  0  0  0  0  0  0  0  0  0  0
  -10.9650    2.0272   -5.7417 C   0  0  0  0  0  0  0  0  0  0  0  0
  -12.1895    2.6157   -5.6139 F   0  0  0  0  0  0  0  0  0  0  0  0
  -10.7055    1.5311   -4.5156 F   0  0  0  0  0  0  0  0  0  0  0  0
   -9.1190    2.2366   -8.3069 C   0  0  0  0  0  0  0  0  0  0  0  0
   -8.8509    4.2185  -15.7811 C   0  0  0  0  0  0  0  0  0  0  0  0
   -8.9718    3.9804  -17.1442 C   0  0  0  0  0  0  0  0  0  0  0  0
  -10.1279    3.5035  -17.6216 F   0  0  0  0  0  0  0  0  0  0  0  0
   -7.9445    4.2629  -18.0397 C   0  0  0  0  0  0  0  0  0  0  0  0
   -6.7596    4.7932  -17.5135 C   0  0  0  0  0  0  0  0  0  0  0  0
  1  2  1  0
  2  3  1  0
  3  4  1  0
  4  5  1  0
  5  6  2  0
  6  7  1  0
  7  8  2  0
  8  9  1  0
  9 10  2  0
  9 11  1  0
 11 12  1  0
 12 13  2  0
 13 14  1  0
 14 15  2  0
 15 16  1  0
 16 17  1  0
 17 18  2  0
 18 19  1  0
 19 20  2  0
 20 21  1  0
 21 22  1  0
 22 23  1  0
 21 24  2  0
 16 25  2  0
 15 26  1  0
 26 27  1  0
 27 28  1  0
 28 29  1  0
 29 30  1  0
 29 31  1  0
 27 32  1  0
  8 33  1  0
 33 34  2  0
 34 35  1  0
 34 36  1  0
 36 37  2  0
 37  4  1  0
 37  7  1  0
 25 12  1  0
 32 14  1  0
 24 17  1  0
M  END
>  <smiles>  (1285) 
C19331-P181

>  <fragmenstein_outcome>  (1285) 
acceptable

>  <inchikey>  (1285) 
TXLSVPWLNHHTJN-UHFFFAOYSA-N

>  <fragmenstein_mode>  (1285) 
expansion

>  <HIPPO Pose ID>  (1285) 
20850

>  <Energy>  (1285) 
138.876527

>  <fragmenstein_error>  (1285) 


>  <tags>  (1285) 
{'openbind_xx01zvns2b_c1_fragmenstein', 'fragmenstein_placed'}

>  <ref_pdb>  (1285) 
175

>  <scratch_subdir>  (1285) 
/opt/xchem-fragalysis-2/maxwin/BulkDock/SCRATCH/511028/C19331-P181

>  <alias>  (1285) 
CNCn1ncc2c(C(=O)Nc3cc4c(c(-c5ccnc(OC)c5)c3)CN(CC(F)F)C4)cc(F)cc21

>  <HIPPO Compound ID>  (1285) 
27748

>  <fragmenstein_runtime>  (1285) 
5.214609

$$$$
COc1cc(-c2cc(NC(=O)c3cc(N=O)cc4c3CC3(CCCCC3)N4)cc3c2CNC3)ccn1
     RDKit          3D

 36 41  0  0  0  0  0  0  0  0999 V2000
   -8.0554    8.7909   -4.6373 C   0  0  0  0  0  0  0  0  0  0  0  0
   -8.8146    8.2312   -5.6974 O   0  0  0  0  0  0  0  0  0  0  0  0
   -8.0371    7.9794   -6.8126 C   0  0  0  0  0  0  0  0  0  0  0  0
   -8.4719    6.9368   -7.6101 C   0  0  0  0  0  0  0  0  0  0  0  0
   -7.7104    6.5303   -8.7052 C   0  0  0  0  0  0  0  0  0  0  0  0
   -8.0465    5.3255   -9.4929 C   0  0  0  0  0  0  0  0  0  0  0  0
   -7.9001    5.3186  -10.9022 C   0  0  0  0  0  0  0  0  0  0  0  0
   -8.1197    4.1645  -11.6738 C   0  0  0  0  0  0  0  0  0  0  0  0
   -7.9614    4.1596  -13.0608 N   0  0  0  0  0  0  0  0  0  0  0  0
   -7.4803    5.2742  -14.0221 C   0  0  0  0  0  0  0  0  0  0  0  0
   -7.0687    6.3440  -13.7955 O   0  0  0  0  0  0  0  0  0  0  0  0
   -7.6106    4.8506  -15.4441 C   0  0  0  0  0  0  0  0  0  0  0  0
   -8.8179    4.3217  -15.9152 C   0  0  0  0  0  0  0  0  0  0  0  0
   -8.9861    4.0305  -17.2815 C   0  0  0  0  0  0  0  0  0  0  0  0
  -10.1917    3.5711  -17.7425 N   0  0  0  0  0  0  0  0  0  0  0  0
  -10.8954    4.4874  -18.1799 O   0  0  0  0  0  0  0  0  0  0  0  0
   -7.9309    4.2050  -18.1744 C   0  0  0  0  0  0  0  0  0  0  0  0
   -6.7558    4.7527  -17.7058 C   0  0  0  0  0  0  0  0  0  0  0  0
   -6.5922    5.0729  -16.3598 C   0  0  0  0  0  0  0  0  0  0  0  0
   -5.2109    5.6046  -16.1583 C   0  0  0  0  0  0  0  0  0  0  0  0
   -4.7355    5.8220  -17.6367 C   0  0  0  0  0  0  0  0  0  0  0  0
   -3.2656    5.3838  -17.8367 C   0  0  0  0  0  0  0  0  0  0  0  0
   -2.2955    6.5558  -17.7513 C   0  0  0  0  0  0  0  0  0  0  0  0
   -2.5679    7.5923  -18.8417 C   0  0  0  0  0  0  0  0  0  0  0  0
   -4.0441    7.6919  -19.2287 C   0  0  0  0  0  0  0  0  0  0  0  0
   -4.9560    7.2994  -18.0698 C   0  0  0  0  0  0  0  0  0  0  0  0
   -5.5896    4.9468  -18.4707 N   0  0  0  0  0  0  0  0  0  0  0  0
   -8.5008    2.9778  -11.0521 C   0  0  0  0  0  0  0  0  0  0  0  0
   -8.6704    2.9769   -9.6788 C   0  0  0  0  0  0  0  0  0  0  0  0
   -8.4637    4.1243   -8.9089 C   0  0  0  0  0  0  0  0  0  0  0  0
   -8.6953    3.7463   -7.4742 C   0  0  0  0  0  0  0  0  0  0  0  0
   -9.3955    2.4435   -7.4963 N   0  0  0  0  0  0  0  0  0  0  0  0
   -9.0189    1.8294   -8.7876 C   0  0  0  0  0  0  0  0  0  0  0  0
   -6.5759    7.2991   -8.9926 C   0  0  0  0  0  0  0  0  0  0  0  0
   -6.2464    8.3677   -8.1671 C   0  0  0  0  0  0  0  0  0  0  0  0
   -6.9377    8.7130   -7.0610 N   0  0  0  0  0  0  0  0  0  0  0  0
  1  2  1  0
  2  3  1  0
  3  4  2  0
  4  5  1  0
  5  6  1  0
  6  7  2  0
  7  8  1  0
  8  9  1  0
  9 10  1  0
 10 11  2  0
 10 12  1  0
 12 13  2  0
 13 14  1  0
 14 15  1  0
 15 16  2  0
 14 17  2  0
 17 18  1  0
 18 19  2  0
 19 20  1  0
 20 21  1  0
 21 22  1  0
 22 23  1  0
 23 24  1  0
 24 25  1  0
 25 26  1  0
 21 27  1  0
  8 28  2  0
 28 29  1  0
 29 30  2  0
 30 31  1  0
 31 32  1  0
 32 33  1  0
  5 34  2  0
 34 35  1  0
 35 36  2  0
 36  3  1  0
 30  6  1  0
 19 12  1  0
 26 21  1  0
 33 29  1  0
 27 18  1  0
M  END
>  <smiles>  (1286) 
C19332-P181

>  <fragmenstein_outcome>  (1286) 
acceptable

>  <inchikey>  (1286) 
VXQCYDNSAZIGFN-UHFFFAOYSA-N

>  <fragmenstein_mode>  (1286) 
expansion

>  <HIPPO Pose ID>  (1286) 
20851

>  <Energy>  (1286) 
61.317145

>  <fragmenstein_error>  (1286) 


>  <tags>  (1286) 
{'openbind_xx01zvns2b_c1_fragmenstein', 'fragmenstein_placed'}

>  <ref_pdb>  (1286) 
175

>  <scratch_subdir>  (1286) 
/opt/xchem-fragalysis-2/maxwin/BulkDock/SCRATCH/511028/C19332-P181

>  <alias>  (1286) 
COc1cc(-c2cc(NC(=O)c3cc(N=O)cc4c3CC3(CCCCC3)N4)cc3c2CNC3)ccn1

>  <HIPPO Compound ID>  (1286) 
25622

>  <fragmenstein_runtime>  (1286) 
6.6816

$$$$
CNCN1c2cc(F)cc(C(=O)Nc3cc4c(c(-c5ccnc(OC)c5)c3)CNC4)c2C[C@@]12CC[C@H](OC)NN2
     RDKit          3D

 40 45  0  0  0  0  0  0  0  0999 V2000
   -5.2100    6.8131  -21.3514 C   0  0  0  0  0  0  0  0  0  0  0  0
   -5.6800    6.6538  -19.9838 N   0  0  0  0  0  0  0  0  0  0  0  0
   -5.0433    5.5088  -19.3373 C   0  0  0  0  0  0  0  0  0  0  0  0
   -5.1854    5.3106  -17.9095 N   0  0  0  0  0  0  0  0  0  0  0  0
   -6.4160    4.9719  -17.3440 C   0  0  0  0  0  0  0  0  0  0  0  0
   -7.5019    4.3606  -17.9496 C   0  0  0  0  0  0  0  0  0  0  0  0
   -8.6141    4.0347  -17.1738 C   0  0  0  0  0  0  0  0  0  0  0  0
   -9.6566    3.4193  -17.7476 F   0  0  0  0  0  0  0  0  0  0  0  0
   -8.6686    4.3228  -15.8096 C   0  0  0  0  0  0  0  0  0  0  0  0
   -7.5813    4.9459  -15.1961 C   0  0  0  0  0  0  0  0  0  0  0  0
   -7.6281    5.3448  -13.7618 C   0  0  0  0  0  0  0  0  0  0  0  0
   -7.2908    6.4690  -13.5205 O   0  0  0  0  0  0  0  0  0  0  0  0
   -8.0871    4.2962  -12.8956 N   0  0  0  0  0  0  0  0  0  0  0  0
   -8.1930    4.2375  -11.5032 C   0  0  0  0  0  0  0  0  0  0  0  0
   -8.5789    3.0338  -10.9195 C   0  0  0  0  0  0  0  0  0  0  0  0
   -8.7260    2.9899   -9.5437 C   0  0  0  0  0  0  0  0  0  0  0  0
   -8.4819    4.1041   -8.7355 C   0  0  0  0  0  0  0  0  0  0  0  0
   -8.0258    5.3055   -9.2788 C   0  0  0  0  0  0  0  0  0  0  0  0
   -7.6161    6.4615   -8.4584 C   0  0  0  0  0  0  0  0  0  0  0  0
   -6.3994    7.1148   -8.6950 C   0  0  0  0  0  0  0  0  0  0  0  0
   -6.0200    8.1689   -7.8760 C   0  0  0  0  0  0  0  0  0  0  0  0
   -6.7482    8.6126   -6.8320 N   0  0  0  0  0  0  0  0  0  0  0  0
   -7.9244    7.9892   -6.6263 C   0  0  0  0  0  0  0  0  0  0  0  0
   -8.7360    8.3543   -5.5675 O   0  0  0  0  0  0  0  0  0  0  0  0
   -8.2142    9.4478   -4.8243 C   0  0  0  0  0  0  0  0  0  0  0  0
   -8.3936    6.9426   -7.4039 C   0  0  0  0  0  0  0  0  0  0  0  0
   -7.9177    5.3520  -10.6889 C   0  0  0  0  0  0  0  0  0  0  0  0
   -8.7450    3.7020   -7.3146 C   0  0  0  0  0  0  0  0  0  0  0  0
   -9.4718    2.4138   -7.3804 N   0  0  0  0  0  0  0  0  0  0  0  0
   -9.0982    1.8260   -8.6853 C   0  0  0  0  0  0  0  0  0  0  0  0
   -6.4687    5.2564  -15.9770 C   0  0  0  0  0  0  0  0  0  0  0  0
   -5.1571    5.8308  -15.5500 C   0  0  0  0  0  0  0  0  0  0  0  0
   -4.4609    6.1624  -16.9318 C   0  0  1  0  0  0  0  0  0  0  0  0
   -2.9946    5.6395  -16.8193 C   0  0  0  0  0  0  0  0  0  0  0  0
   -1.9903    6.2889  -17.7774 C   0  0  0  0  0  0  0  0  0  0  0  0
   -2.3417    7.7441  -18.0997 C   0  0  2  0  0  0  0  0  0  0  0  0
   -1.1683    8.5469  -18.1953 O   0  0  0  0  0  0  0  0  0  0  0  0
   -0.4439    8.3219  -19.3968 C   0  0  0  0  0  0  0  0  0  0  0  0
   -3.1847    8.2706  -17.0206 N   0  0  0  0  0  0  0  0  0  0  0  0
   -4.4965    7.6432  -17.1285 N   0  0  0  0  0  0  0  0  0  0  0  0
  1  2  1  0
  2  3  1  0
  3  4  1  0
  4  5  1  0
  5  6  2  0
  6  7  1  0
  7  8  1  0
  7  9  2  0
  9 10  1  0
 10 11  1  0
 11 12  2  0
 11 13  1  0
 13 14  1  0
 14 15  2  0
 15 16  1  0
 16 17  2  0
 17 18  1  0
 18 19  1  0
 19 20  2  0
 20 21  1  0
 21 22  2  0
 22 23  1  0
 23 24  1  0
 24 25  1  0
 23 26  2  0
 18 27  2  0
 17 28  1  0
 28 29  1  0
 29 30  1  0
 10 31  2  0
 31 32  1  0
 33 32  1  1
 33 34  1  0
 34 35  1  0
 35 36  1  0
 36 37  1  1
 37 38  1  0
 36 39  1  0
 39 40  1  0
 33  4  1  0
 31  5  1  0
 40 33  1  0
 27 14  1  0
 30 16  1  0
 26 19  1  0
M  END
>  <smiles>  (1287) 
C19336-P181

>  <fragmenstein_outcome>  (1287) 
acceptable

>  <inchikey>  (1287) 
XXNWCLSCAJZHQA-UHFFFAOYSA-N

>  <fragmenstein_mode>  (1287) 
expansion

>  <HIPPO Pose ID>  (1287) 
20852

>  <Energy>  (1287) 
25.693911

>  <fragmenstein_error>  (1287) 


>  <tags>  (1287) 
{'openbind_xx01zvns2b_c1_fragmenstein', 'fragmenstein_placed'}

>  <ref_pdb>  (1287) 
175

>  <scratch_subdir>  (1287) 
/opt/xchem-fragalysis-2/maxwin/BulkDock/SCRATCH/511028/C19336-P181

>  <alias>  (1287) 
CNCN1c2cc(F)cc(C(=O)Nc3cc4c(c(-c5ccnc(OC)c5)c3)CNC4)c2C[C@@]12CC[C@H](OC)NN2

>  <HIPPO Compound ID>  (1287) 
19336

>  <fragmenstein_runtime>  (1287) 
18.858447

$$$$
CCNn1ncc2c(C(=O)Nc3cc4c(c(-c5ccnc(OC)c5)c3)CNC4)cc(F)cc21
     RDKit          3D

 33 37  0  0  0  0  0  0  0  0999 V2000
   -3.3009    6.1872  -20.1751 C   0  0  0  0  0  0  0  0  0  0  0  0
   -4.8116    6.3464  -20.1011 C   0  0  0  0  0  0  0  0  0  0  0  0
   -5.4469    5.1455  -19.5690 N   0  0  0  0  0  0  0  0  0  0  0  0
   -5.6579    5.2078  -18.1653 N   0  0  0  0  0  0  0  0  0  0  0  0
   -4.7569    5.6816  -17.2836 N   0  0  0  0  0  0  0  0  0  0  0  0
   -5.3741    5.5983  -16.1051 C   0  0  0  0  0  0  0  0  0  0  0  0
   -6.6692    5.0521  -16.2015 C   0  0  0  0  0  0  0  0  0  0  0  0
   -7.7252    4.7615  -15.3138 C   0  0  0  0  0  0  0  0  0  0  0  0
   -7.6261    5.1900  -13.8952 C   0  0  0  0  0  0  0  0  0  0  0  0
   -7.1651    6.2416  -13.6791 O   0  0  0  0  0  0  0  0  0  0  0  0
   -8.2222    4.1385  -12.9290 N   0  0  0  0  0  0  0  0  0  0  0  0
   -8.2866    4.1220  -11.5366 C   0  0  0  0  0  0  0  0  0  0  0  0
   -8.6593    2.9453  -10.8945 C   0  0  0  0  0  0  0  0  0  0  0  0
   -8.7319    2.9457   -9.5119 C   0  0  0  0  0  0  0  0  0  0  0  0
   -8.4560    4.0872   -8.7635 C   0  0  0  0  0  0  0  0  0  0  0  0
   -8.0774    5.2868   -9.3743 C   0  0  0  0  0  0  0  0  0  0  0  0
   -7.7421    6.5047   -8.6112 C   0  0  0  0  0  0  0  0  0  0  0  0
   -6.6415    7.3030   -8.9451 C   0  0  0  0  0  0  0  0  0  0  0  0
   -6.3222    8.3926   -8.1441 C   0  0  0  0  0  0  0  0  0  0  0  0
   -6.9939    8.7319   -7.0241 N   0  0  0  0  0  0  0  0  0  0  0  0
   -8.0637    7.9699   -6.7338 C   0  0  0  0  0  0  0  0  0  0  0  0
   -8.8255    8.2215   -5.6083 O   0  0  0  0  0  0  0  0  0  0  0  0
   -8.0760    8.8669   -4.5918 C   0  0  0  0  0  0  0  0  0  0  0  0
   -8.4850    6.8987   -7.4982 C   0  0  0  0  0  0  0  0  0  0  0  0
   -8.0003    5.2730  -10.7840 C   0  0  0  0  0  0  0  0  0  0  0  0
   -8.6449    3.7543   -7.3167 C   0  0  0  0  0  0  0  0  0  0  0  0
   -8.9214    2.3081   -7.2239 N   0  0  0  0  0  0  0  0  0  0  0  0
   -9.0863    1.8148   -8.6096 C   0  0  0  0  0  0  0  0  0  0  0  0
   -8.8993    4.1928  -15.8225 C   0  0  0  0  0  0  0  0  0  0  0  0
   -9.0207    3.9366  -17.1810 C   0  0  0  0  0  0  0  0  0  0  0  0
  -10.1696    3.4415  -17.6543 F   0  0  0  0  0  0  0  0  0  0  0  0
   -7.9961    4.2120  -18.0770 C   0  0  0  0  0  0  0  0  0  0  0  0
   -6.8249    4.7835  -17.5598 C   0  0  0  0  0  0  0  0  0  0  0  0
  1  2  1  0
  2  3  1  0
  3  4  1  0
  4  5  1  0
  5  6  2  0
  6  7  1  0
  7  8  2  0
  8  9  1  0
  9 10  2  0
  9 11  1  0
 11 12  1  0
 12 13  2  0
 13 14  1  0
 14 15  2  0
 15 16  1  0
 16 17  1  0
 17 18  2  0
 18 19  1  0
 19 20  2  0
 20 21  1  0
 21 22  1  0
 22 23  1  0
 21 24  2  0
 16 25  2  0
 15 26  1  0
 26 27  1  0
 27 28  1  0
  8 29  1  0
 29 30  2  0
 30 31  1  0
 30 32  1  0
 32 33  2  0
 33  4  1  0
 33  7  1  0
 25 12  1  0
 28 14  1  0
 24 17  1  0
M  END
>  <smiles>  (1288) 
C19337-P181

>  <fragmenstein_outcome>  (1288) 
acceptable

>  <inchikey>  (1288) 
MFWLKTFZRVXFCQ-UHFFFAOYSA-N

>  <fragmenstein_mode>  (1288) 
expansion

>  <HIPPO Pose ID>  (1288) 
20853

>  <Energy>  (1288) 
-0.30511

>  <fragmenstein_error>  (1288) 


>  <tags>  (1288) 
{'openbind_xx01zvns2b_c1_fragmenstein', 'fragmenstein_placed'}

>  <ref_pdb>  (1288) 
175

>  <scratch_subdir>  (1288) 
/opt/xchem-fragalysis-2/maxwin/BulkDock/SCRATCH/511028/C19337-P181

>  <alias>  (1288) 
CCNn1ncc2c(C(=O)Nc3cc4c(c(-c5ccnc(OC)c5)c3)CNC4)cc(F)cc21

>  <HIPPO Compound ID>  (1288) 
19337

>  <fragmenstein_runtime>  (1288) 
5.689784

$$$$
CNCn1ncc2c(C(=O)Nc3cc4c(c(-c5ccnc(OC)c5)c3C)CNC4)cc(F)cc21
     RDKit          3D

 34 38  0  0  0  0  0  0  0  0999 V2000
   -7.2570    3.3101  -19.9653 C   0  0  0  0  0  0  0  0  0  0  0  0
   -6.0808    4.1424  -20.0620 N   0  0  0  0  0  0  0  0  0  0  0  0
   -6.0005    5.4155  -19.3792 C   0  0  0  0  0  0  0  0  0  0  0  0
   -6.0164    5.2432  -17.9377 N   0  0  0  0  0  0  0  0  0  0  0  0
   -4.9433    5.5791  -17.1815 N   0  0  0  0  0  0  0  0  0  0  0  0
   -5.3788    5.3712  -15.9352 C   0  0  0  0  0  0  0  0  0  0  0  0
   -6.7232    4.9350  -15.8883 C   0  0  0  0  0  0  0  0  0  0  0  0
   -7.6751    4.6164  -14.9077 C   0  0  0  0  0  0  0  0  0  0  0  0
   -7.3722    4.9148  -13.4962 C   0  0  0  0  0  0  0  0  0  0  0  0
   -6.6484    5.8035  -13.2757 O   0  0  0  0  0  0  0  0  0  0  0  0
   -8.1796    4.0199  -12.5333 N   0  0  0  0  0  0  0  0  0  0  0  0
   -8.3346    4.0877  -11.1574 C   0  0  0  0  0  0  0  0  0  0  0  0
   -8.6878    2.8938  -10.5357 C   0  0  0  0  0  0  0  0  0  0  0  0
   -8.8299    2.8898   -9.1684 C   0  0  0  0  0  0  0  0  0  0  0  0
   -8.5814    4.0270   -8.4033 C   0  0  0  0  0  0  0  0  0  0  0  0
   -8.1956    5.2333   -8.9938 C   0  0  0  0  0  0  0  0  0  0  0  0
   -7.7912    6.4004   -8.1928 C   0  0  0  0  0  0  0  0  0  0  0  0
   -6.5676    7.0446   -8.4280 C   0  0  0  0  0  0  0  0  0  0  0  0
   -6.2170    8.1423   -7.6591 C   0  0  0  0  0  0  0  0  0  0  0  0
   -6.9657    8.6116   -6.6428 N   0  0  0  0  0  0  0  0  0  0  0  0
   -8.1282    7.9664   -6.4240 C   0  0  0  0  0  0  0  0  0  0  0  0
   -8.9486    8.3519   -5.3838 O   0  0  0  0  0  0  0  0  0  0  0  0
   -8.1929    8.8504   -4.2912 C   0  0  0  0  0  0  0  0  0  0  0  0
   -8.5920    6.9062   -7.1769 C   0  0  0  0  0  0  0  0  0  0  0  0
   -8.1894    5.2830  -10.4133 C   0  0  0  0  0  0  0  0  0  0  0  0
   -8.1654    6.6386  -11.0866 C   0  0  0  0  0  0  0  0  0  0  0  0
   -8.7830    3.6534   -6.9656 C   0  0  0  0  0  0  0  0  0  0  0  0
   -9.4972    2.3557   -6.9785 N   0  0  0  0  0  0  0  0  0  0  0  0
   -9.1593    1.7417   -8.2808 C   0  0  0  0  0  0  0  0  0  0  0  0
   -8.9628    4.2144  -15.3067 C   0  0  0  0  0  0  0  0  0  0  0  0
   -9.3134    4.1932  -16.6403 C   0  0  0  0  0  0  0  0  0  0  0  0
  -10.5373    3.8357  -17.0352 F   0  0  0  0  0  0  0  0  0  0  0  0
   -8.4331    4.6198  -17.5995 C   0  0  0  0  0  0  0  0  0  0  0  0
   -7.1268    4.9166  -17.2106 C   0  0  0  0  0  0  0  0  0  0  0  0
  1  2  1  0
  2  3  1  0
  3  4  1  0
  4  5  1  0
  5  6  2  0
  6  7  1  0
  7  8  2  0
  8  9  1  0
  9 10  2  0
  9 11  1  0
 11 12  1  0
 12 13  2  0
 13 14  1  0
 14 15  2  0
 15 16  1  0
 16 17  1  0
 17 18  2  0
 18 19  1  0
 19 20  2  0
 20 21  1  0
 21 22  1  0
 22 23  1  0
 21 24  2  0
 16 25  2  0
 25 26  1  0
 15 27  1  0
 27 28  1  0
 28 29  1  0
  8 30  1  0
 30 31  2  0
 31 32  1  0
 31 33  1  0
 33 34  2  0
 34  4  1  0
 34  7  1  0
 25 12  1  0
 29 14  1  0
 24 17  1  0
M  END
>  <smiles>  (1289) 
C19338-P181

>  <fragmenstein_outcome>  (1289) 
acceptable

>  <inchikey>  (1289) 
UADZCLOGYWFTNO-UHFFFAOYSA-N

>  <fragmenstein_mode>  (1289) 
expansion

>  <HIPPO Pose ID>  (1289) 
20854

>  <Energy>  (1289) 
113.533622

>  <fragmenstein_error>  (1289) 


>  <tags>  (1289) 
{'openbind_xx01zvns2b_c1_fragmenstein', 'fragmenstein_placed'}

>  <ref_pdb>  (1289) 
175

>  <scratch_subdir>  (1289) 
/opt/xchem-fragalysis-2/maxwin/BulkDock/SCRATCH/511028/C19338-P181

>  <alias>  (1289) 
CNCn1ncc2c(C(=O)Nc3cc4c(c(-c5ccnc(OC)c5)c3C)CNC4)cc(F)cc21

>  <HIPPO Compound ID>  (1289) 
19338

>  <fragmenstein_runtime>  (1289) 
4.569753

$$$$
COc1cc(-c2cc(NC(=O)[C@@H]3C[C@@H](F)C[C@H]4[C@@H]3CN3CNNN43)cc3c2CNC3)ccn1
     RDKit          3D

 33 38  0  0  0  0  0  0  0  0999 V2000
   -8.1125    8.8416   -4.4676 C   0  0  0  0  0  0  0  0  0  0  0  0
   -8.8735    8.2460   -5.5060 O   0  0  0  0  0  0  0  0  0  0  0  0
   -8.0936    7.9550   -6.6083 C   0  0  0  0  0  0  0  0  0  0  0  0
   -8.5261    6.8841   -7.3669 C   0  0  0  0  0  0  0  0  0  0  0  0
   -7.7735    6.4692   -8.4620 C   0  0  0  0  0  0  0  0  0  0  0  0
   -8.1352    5.2793   -9.2504 C   0  0  0  0  0  0  0  0  0  0  0  0
   -8.0752    5.3282  -10.6569 C   0  0  0  0  0  0  0  0  0  0  0  0
   -8.3707    4.2172  -11.4621 C   0  0  0  0  0  0  0  0  0  0  0  0
   -8.3868    4.3533  -12.8460 N   0  0  0  0  0  0  0  0  0  0  0  0
   -7.8458    5.4930  -13.7546 C   0  0  0  0  0  0  0  0  0  0  0  0
   -7.3728    6.5278  -13.4741 O   0  0  0  0  0  0  0  0  0  0  0  0
   -8.0960    5.1810  -15.2465 C   0  0  2  0  0  0  0  0  0  0  0  0
   -8.7132    3.8677  -15.6870 C   0  0  0  0  0  0  0  0  0  0  0  0
   -8.9396    3.7918  -17.1892 C   0  0  1  0  0  0  0  0  0  0  0  0
   -9.9271    4.6547  -17.5250 F   0  0  0  0  0  0  0  0  0  0  0  0
   -7.6981    4.0984  -17.9915 C   0  0  0  0  0  0  0  0  0  0  0  0
   -6.9016    5.3149  -17.5565 C   0  0  1  0  0  0  0  0  0  0  0  0
   -6.8553    5.5837  -16.0600 C   0  0  2  0  0  0  0  0  0  0  0  0
   -5.5183    5.0535  -15.6125 C   0  0  0  0  0  0  0  0  0  0  0  0
   -4.6420    5.2079  -16.7701 N   0  0  0  0  0  0  0  0  0  0  0  0
   -3.9777    6.5126  -16.8720 C   0  0  0  0  0  0  0  0  0  0  0  0
   -4.5994    7.2406  -17.9879 N   0  0  0  0  0  0  0  0  0  0  0  0
   -5.0436    6.1667  -18.8192 N   0  0  0  0  0  0  0  0  0  0  0  0
   -5.4805    5.1282  -17.9592 N   0  0  0  0  0  0  0  0  0  0  0  0
   -8.7049    3.0006  -10.8805 C   0  0  0  0  0  0  0  0  0  0  0  0
   -8.7832    2.9453   -9.4994 C   0  0  0  0  0  0  0  0  0  0  0  0
   -8.5341    4.0631   -8.6950 C   0  0  0  0  0  0  0  0  0  0  0  0
   -8.7419    3.6509   -7.2679 C   0  0  0  0  0  0  0  0  0  0  0  0
   -9.4386    2.3466   -7.3137 N   0  0  0  0  0  0  0  0  0  0  0  0
   -9.0972    1.7710   -8.6324 C   0  0  0  0  0  0  0  0  0  0  0  0
   -6.6450    7.2375   -8.7801 C   0  0  0  0  0  0  0  0  0  0  0  0
   -6.3155    8.3278   -7.9867 C   0  0  0  0  0  0  0  0  0  0  0  0
   -7.0037    8.6942   -6.8870 N   0  0  0  0  0  0  0  0  0  0  0  0
  1  2  1  0
  2  3  1  0
  3  4  2  0
  4  5  1  0
  5  6  1  0
  6  7  2  0
  7  8  1  0
  8  9  1  0
  9 10  1  0
 10 11  2  0
 12 10  1  1
 12 13  1  0
 13 14  1  0
 14 15  1  6
 14 16  1  0
 17 16  1  1
 17 18  1  0
 18 19  1  1
 19 20  1  0
 20 21  1  0
 21 22  1  0
 22 23  1  0
 23 24  1  0
  8 25  2  0
 25 26  1  0
 26 27  2  0
 27 28  1  0
 28 29  1  0
 29 30  1  0
  5 31  2  0
 31 32  1  0
 32 33  2  0
 33  3  1  0
 27  6  1  0
 18 12  1  0
 24 20  1  0
 30 26  1  0
 24 17  1  0
M  END
>  <smiles>  (1290) 
C19346-P181

>  <fragmenstein_outcome>  (1290) 
acceptable

>  <inchikey>  (1290) 
OFQCODABFIQTAP-UHFFFAOYSA-N

>  <fragmenstein_mode>  (1290) 
expansion

>  <HIPPO Pose ID>  (1290) 
20858

>  <Energy>  (1290) 
46.858845

>  <fragmenstein_error>  (1290) 


>  <tags>  (1290) 
{'openbind_xx01zvns2b_c1_fragmenstein', 'fragmenstein_placed'}

>  <ref_pdb>  (1290) 
175

>  <scratch_subdir>  (1290) 
/opt/xchem-fragalysis-2/maxwin/BulkDock/SCRATCH/511028/C19346-P181

>  <alias>  (1290) 
COc1cc(-c2cc(NC(=O)[C@@H]3C[C@@H](F)C[C@H]4[C@@H]3CN3CNNN43)cc3c2CNC3)ccn1

>  <HIPPO Compound ID>  (1290) 
34494

>  <fragmenstein_runtime>  (1290) 
5.189363

$$$$
COc1cc(-c2cc(NC(=O)[C@H]3C[C@H](F)C[C@@H]4[C@H]3CN3SCNCN43)cc3c2CNC3)ccn1
     RDKit          3D

 34 39  0  0  0  0  0  0  0  0999 V2000
   -8.0634    8.8958   -4.5168 C   0  0  0  0  0  0  0  0  0  0  0  0
   -8.8372    8.2954   -5.5424 O   0  0  0  0  0  0  0  0  0  0  0  0
   -8.0753    8.0137   -6.6599 C   0  0  0  0  0  0  0  0  0  0  0  0
   -8.5043    6.9313   -7.4022 C   0  0  0  0  0  0  0  0  0  0  0  0
   -7.7585    6.5088   -8.5014 C   0  0  0  0  0  0  0  0  0  0  0  0
   -8.1045    5.2796   -9.2365 C   0  0  0  0  0  0  0  0  0  0  0  0
   -8.0162    5.2322  -10.6420 C   0  0  0  0  0  0  0  0  0  0  0  0
   -8.3127    4.0664  -11.3634 C   0  0  0  0  0  0  0  0  0  0  0  0
   -8.1847    4.0210  -12.7439 N   0  0  0  0  0  0  0  0  0  0  0  0
   -7.6267    5.0783  -13.7432 C   0  0  0  0  0  0  0  0  0  0  0  0
   -7.2633    6.1747  -13.5611 O   0  0  0  0  0  0  0  0  0  0  0  0
   -7.6710    4.4304  -15.1350 C   0  0  1  0  0  0  0  0  0  0  0  0
   -9.0518    4.6494  -15.7244 C   0  0  0  0  0  0  0  0  0  0  0  0
   -9.2015    4.1612  -17.1527 C   0  0  2  0  0  0  0  0  0  0  0  0
   -9.2080    2.7998  -17.1263 F   0  0  0  0  0  0  0  0  0  0  0  0
   -8.1114    4.6127  -18.1036 C   0  0  0  0  0  0  0  0  0  0  0  0
   -6.6930    4.6673  -17.5472 C   0  0  2  0  0  0  0  0  0  0  0  0
   -6.4895    4.7875  -16.0377 C   0  0  1  0  0  0  0  0  0  0  0  0
   -5.6953    6.0613  -15.8358 C   0  0  0  0  0  0  0  0  0  0  0  0
   -4.9787    6.1965  -17.1057 N   0  0  0  0  0  0  0  0  0  0  0  0
   -4.2472    7.6342  -17.5042 S   0  0  0  0  0  0  0  0  0  0  0  0
   -3.6049    7.1433  -19.1324 C   0  0  0  0  0  0  0  0  0  0  0  0
   -4.6613    6.5976  -19.9805 N   0  0  0  0  0  0  0  0  0  0  0  0
   -5.2226    5.3988  -19.3517 C   0  0  0  0  0  0  0  0  0  0  0  0
   -5.9324    5.7994  -18.1271 N   0  0  0  0  0  0  0  0  0  0  0  0
   -8.7230    2.9146  -10.7038 C   0  0  0  0  0  0  0  0  0  0  0  0
   -8.8068    2.9497   -9.3262 C   0  0  0  0  0  0  0  0  0  0  0  0
   -8.5031    4.0996   -8.6014 C   0  0  0  0  0  0  0  0  0  0  0  0
   -8.6909    3.7915   -7.1484 C   0  0  0  0  0  0  0  0  0  0  0  0
   -8.9262    2.3380   -7.0357 N   0  0  0  0  0  0  0  0  0  0  0  0
   -9.2115    1.8543   -8.4048 C   0  0  0  0  0  0  0  0  0  0  0  0
   -6.6500    7.2904   -8.8494 C   0  0  0  0  0  0  0  0  0  0  0  0
   -6.3256    8.3947   -8.0722 C   0  0  0  0  0  0  0  0  0  0  0  0
   -6.9991    8.7623   -6.9624 N   0  0  0  0  0  0  0  0  0  0  0  0
  1  2  1  0
  2  3  1  0
  3  4  2  0
  4  5  1  0
  5  6  1  0
  6  7  2  0
  7  8  1  0
  8  9  1  0
  9 10  1  0
 10 11  2  0
 12 10  1  1
 12 13  1  0
 13 14  1  0
 14 15  1  1
 14 16  1  0
 17 16  1  1
 17 18  1  0
 18 19  1  6
 19 20  1  0
 20 21  1  0
 21 22  1  0
 22 23  1  0
 23 24  1  0
 24 25  1  0
  8 26  2  0
 26 27  1  0
 27 28  2  0
 28 29  1  0
 29 30  1  0
 30 31  1  0
  5 32  2  0
 32 33  1  0
 33 34  2  0
 34  3  1  0
 28  6  1  0
 18 12  1  0
 25 20  1  0
 31 27  1  0
 25 17  1  0
M  END
>  <smiles>  (1291) 
C19347-P181

>  <fragmenstein_outcome>  (1291) 
acceptable

>  <inchikey>  (1291) 
CZOLIGBXSKTLRP-UHFFFAOYSA-N

>  <fragmenstein_mode>  (1291) 
expansion

>  <HIPPO Pose ID>  (1291) 
20859

>  <Energy>  (1291) 
0.555904

>  <fragmenstein_error>  (1291) 


>  <tags>  (1291) 
{'openbind_xx01zvns2b_c1_fragmenstein', 'fragmenstein_placed'}

>  <ref_pdb>  (1291) 
175

>  <scratch_subdir>  (1291) 
/opt/xchem-fragalysis-2/maxwin/BulkDock/SCRATCH/511028/C19347-P181

>  <alias>  (1291) 
COc1cc(-c2cc(NC(=O)[C@H]3C[C@H](F)C[C@@H]4[C@H]3CN3SCNCN43)cc3c2CNC3)ccn1

>  <HIPPO Compound ID>  (1291) 
19347

>  <fragmenstein_runtime>  (1291) 
6.781476

$$$$
CCCCc1ncn(-c2cc(F)cc(C(=O)Nc3cc4c(c(-c5ccnc(OC)c5)c3)CNC4)c2C)n1
     RDKit          3D

 37 41  0  0  0  0  0  0  0  0999 V2000
   -1.9376    8.7268  -16.6277 C   0  0  0  0  0  0  0  0  0  0  0  0
   -2.4813    8.8713  -18.0406 C   0  0  0  0  0  0  0  0  0  0  0  0
   -1.8133    7.9368  -19.0554 C   0  0  0  0  0  0  0  0  0  0  0  0
   -1.9666    6.4408  -18.7687 C   0  0  0  0  0  0  0  0  0  0  0  0
   -3.3760    5.9748  -18.8129 C   0  0  0  0  0  0  0  0  0  0  0  0
   -4.0216    5.7190  -19.9811 N   0  0  0  0  0  0  0  0  0  0  0  0
   -5.1986    5.2965  -19.5721 C   0  0  0  0  0  0  0  0  0  0  0  0
   -5.2829    5.3170  -18.1961 N   0  0  0  0  0  0  0  0  0  0  0  0
   -6.3843    4.9603  -17.3520 C   0  0  0  0  0  0  0  0  0  0  0  0
   -7.5244    4.3896  -17.9485 C   0  0  0  0  0  0  0  0  0  0  0  0
   -8.6326    4.0501  -17.1795 C   0  0  0  0  0  0  0  0  0  0  0  0
   -9.6913    3.4797  -17.7674 F   0  0  0  0  0  0  0  0  0  0  0  0
   -8.6732    4.3160  -15.8233 C   0  0  0  0  0  0  0  0  0  0  0  0
   -7.5614    4.8972  -15.2105 C   0  0  0  0  0  0  0  0  0  0  0  0
   -7.7067    5.3479  -13.7943 C   0  0  0  0  0  0  0  0  0  0  0  0
   -7.4815    6.5072  -13.5907 O   0  0  0  0  0  0  0  0  0  0  0  0
   -8.0716    4.2917  -12.8958 N   0  0  0  0  0  0  0  0  0  0  0  0
   -8.1859    4.2711  -11.5036 C   0  0  0  0  0  0  0  0  0  0  0  0
   -8.5516    3.0788  -10.8844 C   0  0  0  0  0  0  0  0  0  0  0  0
   -8.6632    3.0628   -9.5036 C   0  0  0  0  0  0  0  0  0  0  0  0
   -8.3937    4.1904   -8.7307 C   0  0  0  0  0  0  0  0  0  0  0  0
   -7.9935    5.3943   -9.3126 C   0  0  0  0  0  0  0  0  0  0  0  0
   -7.6083    6.5775   -8.5192 C   0  0  0  0  0  0  0  0  0  0  0  0
   -6.4343    7.2868   -8.8030 C   0  0  0  0  0  0  0  0  0  0  0  0
   -6.0721    8.3558   -7.9954 C   0  0  0  0  0  0  0  0  0  0  0  0
   -6.7773    8.7628   -6.9206 N   0  0  0  0  0  0  0  0  0  0  0  0
   -7.9162    8.0879   -6.6723 C   0  0  0  0  0  0  0  0  0  0  0  0
   -8.6990    8.4101   -5.5785 O   0  0  0  0  0  0  0  0  0  0  0  0
   -8.2126    9.5399   -4.8664 C   0  0  0  0  0  0  0  0  0  0  0  0
   -8.3670    7.0223   -7.4342 C   0  0  0  0  0  0  0  0  0  0  0  0
   -7.9217    5.4125  -10.7234 C   0  0  0  0  0  0  0  0  0  0  0  0
   -8.6089    3.8400   -7.2929 C   0  0  0  0  0  0  0  0  0  0  0  0
   -8.9090    2.3959   -7.2295 N   0  0  0  0  0  0  0  0  0  0  0  0
   -9.0667    1.9279   -8.6264 C   0  0  0  0  0  0  0  0  0  0  0  0
   -6.3748    5.1724  -15.9434 C   0  0  0  0  0  0  0  0  0  0  0  0
   -5.1605    5.6770  -15.1970 C   0  0  0  0  0  0  0  0  0  0  0  0
   -4.1053    5.7829  -17.7133 N   0  0  0  0  0  0  0  0  0  0  0  0
  1  2  1  0
  2  3  1  0
  3  4  1  0
  4  5  1  0
  5  6  1  0
  6  7  2  0
  7  8  1  0
  8  9  1  0
  9 10  2  0
 10 11  1  0
 11 12  1  0
 11 13  2  0
 13 14  1  0
 14 15  1  0
 15 16  2  0
 15 17  1  0
 17 18  1  0
 18 19  2  0
 19 20  1  0
 20 21  2  0
 21 22  1  0
 22 23  1  0
 23 24  2  0
 24 25  1  0
 25 26  2  0
 26 27  1  0
 27 28  1  0
 28 29  1  0
 27 30  2  0
 22 31  2  0
 21 32  1  0
 32 33  1  0
 33 34  1  0
 14 35  2  0
 35 36  1  0
  8 37  1  0
 37  5  2  0
 35  9  1  0
 31 18  1  0
 34 20  1  0
 30 23  1  0
M  END
>  <smiles>  (1292) 
C19348-P181

>  <fragmenstein_outcome>  (1292) 
acceptable

>  <inchikey>  (1292) 
HRRRDODKOYZHDG-UHFFFAOYSA-N

>  <fragmenstein_mode>  (1292) 
expansion

>  <HIPPO Pose ID>  (1292) 
20860

>  <Energy>  (1292) 
58.237236

>  <fragmenstein_error>  (1292) 


>  <tags>  (1292) 
{'openbind_xx01zvns2b_c1_fragmenstein', 'fragmenstein_placed'}

>  <ref_pdb>  (1292) 
175

>  <scratch_subdir>  (1292) 
/opt/xchem-fragalysis-2/maxwin/BulkDock/SCRATCH/511028/C19348-P181

>  <alias>  (1292) 
CCCCc1ncn(-c2cc(F)cc(C(=O)Nc3cc4c(c(-c5ccnc(OC)c5)c3)CNC4)c2C)n1

>  <HIPPO Compound ID>  (1292) 
24233

>  <fragmenstein_runtime>  (1292) 
10.780364

$$$$
COc1cc(-c2cc(NC(=O)c3cc(F)cc4c3cnn4NC3CNC3)cc3c2CNC3)ccn1
     RDKit          3D

 35 40  0  0  0  0  0  0  0  0999 V2000
   -8.0449    8.8185   -4.6044 C   0  0  0  0  0  0  0  0  0  0  0  0
   -8.8227    8.2324   -5.6361 O   0  0  0  0  0  0  0  0  0  0  0  0
   -8.0630    7.9492   -6.7556 C   0  0  0  0  0  0  0  0  0  0  0  0
   -8.5118    6.8855   -7.5160 C   0  0  0  0  0  0  0  0  0  0  0  0
   -7.7760    6.4603   -8.6211 C   0  0  0  0  0  0  0  0  0  0  0  0
   -8.1394    5.2491   -9.3841 C   0  0  0  0  0  0  0  0  0  0  0  0
   -8.0553    5.2370  -10.7959 C   0  0  0  0  0  0  0  0  0  0  0  0
   -8.3289    4.0858  -11.5564 C   0  0  0  0  0  0  0  0  0  0  0  0
   -8.2607    4.1069  -12.9493 N   0  0  0  0  0  0  0  0  0  0  0  0
   -7.6822    5.1700  -13.9099 C   0  0  0  0  0  0  0  0  0  0  0  0
   -7.2415    6.2290  -13.6901 O   0  0  0  0  0  0  0  0  0  0  0  0
   -7.7545    4.7453  -15.3329 C   0  0  0  0  0  0  0  0  0  0  0  0
   -8.9145    4.1774  -15.8782 C   0  0  0  0  0  0  0  0  0  0  0  0
   -9.0162    3.9725  -17.2490 C   0  0  0  0  0  0  0  0  0  0  0  0
  -10.1541    3.4886  -17.7645 F   0  0  0  0  0  0  0  0  0  0  0  0
   -7.9869    4.3088  -18.1195 C   0  0  0  0  0  0  0  0  0  0  0  0
   -6.8341    4.8842  -17.5678 C   0  0  0  0  0  0  0  0  0  0  0  0
   -6.6913    5.0813  -16.1961 C   0  0  0  0  0  0  0  0  0  0  0  0
   -5.4060    5.6416  -16.0594 C   0  0  0  0  0  0  0  0  0  0  0  0
   -4.7937    5.8162  -17.2291 N   0  0  0  0  0  0  0  0  0  0  0  0
   -5.7088    5.4444  -18.1424 N   0  0  0  0  0  0  0  0  0  0  0  0
   -5.6626    5.8350  -19.5013 N   0  0  0  0  0  0  0  0  0  0  0  0
   -4.3020    5.8589  -20.0631 C   0  0  0  0  0  0  0  0  0  0  0  0
   -3.5667    7.1728  -19.6943 C   0  0  0  0  0  0  0  0  0  0  0  0
   -4.3168    7.8609  -20.7859 N   0  0  0  0  0  0  0  0  0  0  0  0
   -4.4042    6.5384  -21.4572 C   0  0  0  0  0  0  0  0  0  0  0  0
   -8.6849    2.9022  -10.9209 C   0  0  0  0  0  0  0  0  0  0  0  0
   -8.7848    2.9048   -9.5413 C   0  0  0  0  0  0  0  0  0  0  0  0
   -8.5408    4.0531   -8.7819 C   0  0  0  0  0  0  0  0  0  0  0  0
   -8.7354    3.6860   -7.3393 C   0  0  0  0  0  0  0  0  0  0  0  0
   -9.4315    2.3805   -7.3348 N   0  0  0  0  0  0  0  0  0  0  0  0
   -9.0956    1.7609   -8.6337 C   0  0  0  0  0  0  0  0  0  0  0  0
   -6.6498    7.2246   -8.9521 C   0  0  0  0  0  0  0  0  0  0  0  0
   -6.3034    8.3115   -8.1581 C   0  0  0  0  0  0  0  0  0  0  0  0
   -6.9718    8.6801   -7.0457 N   0  0  0  0  0  0  0  0  0  0  0  0
  1  2  1  0
  2  3  1  0
  3  4  2  0
  4  5  1  0
  5  6  1  0
  6  7  2  0
  7  8  1  0
  8  9  1  0
  9 10  1  0
 10 11  2  0
 10 12  1  0
 12 13  2  0
 13 14  1  0
 14 15  1  0
 14 16  2  0
 16 17  1  0
 17 18  2  0
 18 19  1  0
 19 20  2  0
 20 21  1  0
 21 22  1  0
 22 23  1  0
 23 24  1  0
 24 25  1  0
 25 26  1  0
  8 27  2  0
 27 28  1  0
 28 29  2  0
 29 30  1  0
 30 31  1  0
 31 32  1  0
  5 33  2  0
 33 34  1  0
 34 35  2  0
 35  3  1  0
 29  6  1  0
 18 12  1  0
 26 23  1  0
 32 28  1  0
 21 17  1  0
M  END
>  <smiles>  (1293) 
C19351-P181

>  <fragmenstein_outcome>  (1293) 
acceptable

>  <inchikey>  (1293) 
USBPYHNNISWGFP-UHFFFAOYSA-N

>  <fragmenstein_mode>  (1293) 
expansion

>  <HIPPO Pose ID>  (1293) 
20861

>  <Energy>  (1293) 
44.664228

>  <fragmenstein_error>  (1293) 


>  <tags>  (1293) 
{'openbind_xx01zvns2b_c1_fragmenstein', 'fragmenstein_placed'}

>  <ref_pdb>  (1293) 
175

>  <scratch_subdir>  (1293) 
/opt/xchem-fragalysis-2/maxwin/BulkDock/SCRATCH/511028/C19351-P181

>  <alias>  (1293) 
COc1cc(-c2cc(NC(=O)c3cc(F)cc4c3cnn4NC3CNC3)cc3c2CNC3)ccn1

>  <HIPPO Compound ID>  (1293) 
19351

>  <fragmenstein_runtime>  (1293) 
7.761544

$$$$
NC(N)Cc1csc2cc(C(=O)Nc3cc([C@@]4(C(=O)OCc5ccccc5)CCOC4)ccn3)ccc12
     RDKit          3D

 37 41  0  0  0  0  0  0  0  0999 V2000
   -9.7587    1.1491   -6.9806 N   0  0  0  0  0  0  0  0  0  0  0  0
   -9.6809    2.5465   -7.2585 C   0  0  0  0  0  0  0  0  0  0  0  0
  -10.4876    3.0843   -6.1859 N   0  0  0  0  0  0  0  0  0  0  0  0
   -8.2503    3.1246   -7.2475 C   0  0  0  0  0  0  0  0  0  0  0  0
   -8.1920    4.4398   -7.9880 C   0  0  0  0  0  0  0  0  0  0  0  0
   -8.1500    5.6830   -7.3927 C   0  0  0  0  0  0  0  0  0  0  0  0
   -8.1944    6.9538   -8.5272 S   0  0  0  0  0  0  0  0  0  0  0  0
   -8.2934    5.8666   -9.8589 C   0  0  0  0  0  0  0  0  0  0  0  0
   -8.4517    6.1974  -11.2197 C   0  0  0  0  0  0  0  0  0  0  0  0
   -8.5470    5.1557  -12.1505 C   0  0  0  0  0  0  0  0  0  0  0  0
   -8.9583    5.4584  -13.5441 C   0  0  0  0  0  0  0  0  0  0  0  0
   -9.9211    6.0917  -13.7136 O   0  0  0  0  0  0  0  0  0  0  0  0
   -8.0251    4.7754  -14.5541 N   0  0  0  0  0  0  0  0  0  0  0  0
   -8.1246    4.6511  -15.9223 C   0  0  0  0  0  0  0  0  0  0  0  0
   -6.9528    4.7112  -16.6570 C   0  0  0  0  0  0  0  0  0  0  0  0
   -7.0172    4.8152  -18.0574 C   0  0  0  0  0  0  0  0  0  0  0  0
   -5.8078    5.3537  -18.8493 C   0  0  1  0  0  0  0  0  0  0  0  0
   -5.7828    5.0587  -20.3609 C   0  0  0  0  0  0  0  0  0  0  0  0
   -6.1870    4.0396  -20.9092 O   0  0  0  0  0  0  0  0  0  0  0  0
   -5.1455    6.0691  -21.0255 O   0  0  0  0  0  0  0  0  0  0  0  0
   -5.1044    6.0068  -22.4516 C   0  0  0  0  0  0  0  0  0  0  0  0
   -5.3228    7.3811  -23.0416 C   0  0  0  0  0  0  0  0  0  0  0  0
   -6.0154    7.5170  -24.2548 C   0  0  0  0  0  0  0  0  0  0  0  0
   -6.2117    8.7757  -24.8250 C   0  0  0  0  0  0  0  0  0  0  0  0
   -5.7078    9.9124  -24.1971 C   0  0  0  0  0  0  0  0  0  0  0  0
   -5.0005    9.7906  -23.0029 C   0  0  0  0  0  0  0  0  0  0  0  0
   -4.8028    8.5319  -22.4318 C   0  0  0  0  0  0  0  0  0  0  0  0
   -5.7336    6.8663  -18.5475 C   0  0  0  0  0  0  0  0  0  0  0  0
   -4.7185    6.9953  -17.4357 C   0  0  0  0  0  0  0  0  0  0  0  0
   -3.8542    5.8645  -17.5005 O   0  0  0  0  0  0  0  0  0  0  0  0
   -4.4547    4.8507  -18.3231 C   0  0  0  0  0  0  0  0  0  0  0  0
   -8.2752    4.6330  -18.6399 C   0  0  0  0  0  0  0  0  0  0  0  0
   -9.3914    4.5129  -17.8274 C   0  0  0  0  0  0  0  0  0  0  0  0
   -9.3363    4.5722  -16.4856 N   0  0  0  0  0  0  0  0  0  0  0  0
   -8.4403    3.8261  -11.7595 C   0  0  0  0  0  0  0  0  0  0  0  0
   -8.2760    3.5144  -10.4116 C   0  0  0  0  0  0  0  0  0  0  0  0
   -8.2282    4.5381   -9.4310 C   0  0  0  0  0  0  0  0  0  0  0  0
  1  2  1  0
  2  3  1  0
  2  4  1  0
  4  5  1  0
  5  6  2  0
  6  7  1  0
  7  8  1  0
  8  9  2  0
  9 10  1  0
 10 11  1  0
 11 12  2  0
 11 13  1  0
 13 14  1  0
 14 15  2  0
 15 16  1  0
 16 17  1  0
 17 18  1  6
 18 19  2  0
 18 20  1  0
 20 21  1  0
 21 22  1  0
 22 23  2  0
 23 24  1  0
 24 25  2  0
 25 26  1  0
 26 27  2  0
 17 28  1  0
 28 29  1  0
 29 30  1  0
 30 31  1  0
 16 32  2  0
 32 33  1  0
 33 34  2  0
 10 35  2  0
 35 36  1  0
 36 37  2  0
 37  5  1  0
 37  8  1  0
 34 14  1  0
 31 17  1  0
 27 22  1  0
M  END
>  <smiles>  (1294) 
C19446-P182

>  <fragmenstein_outcome>  (1294) 
acceptable

>  <inchikey>  (1294) 
CTSHADRFJHNIHM-UHFFFAOYSA-N

>  <fragmenstein_mode>  (1294) 
expansion

>  <HIPPO Pose ID>  (1294) 
20888

>  <Energy>  (1294) 
34.488428

>  <fragmenstein_error>  (1294) 


>  <tags>  (1294) 
{'openbind_xx01zvns2b_c1_fragmenstein', 'fragmenstein_placed'}

>  <ref_pdb>  (1294) 
175

>  <scratch_subdir>  (1294) 
/opt/xchem-fragalysis-2/maxwin/BulkDock/SCRATCH/511028/C19446-P182

>  <alias>  (1294) 
NC(N)Cc1csc2cc(C(=O)Nc3cc([C@@]4(C(=O)OCc5ccccc5)CCOC4)ccn3)ccc12

>  <HIPPO Compound ID>  (1294) 
19446

>  <fragmenstein_runtime>  (1294) 
7.343024

$$$$
NCCc1csc2cc(C(=O)Nc3cc([C@@H]4CCC(=O)C4)ccn3)ccc12
     RDKit          3D

 27 30  0  0  0  0  0  0  0  0999 V2000
   -9.8674    1.2981   -7.9978 N   0  0  0  0  0  0  0  0  0  0  0  0
   -9.5670    2.1492   -6.8527 C   0  0  0  0  0  0  0  0  0  0  0  0
   -8.2439    2.9048   -6.9959 C   0  0  0  0  0  0  0  0  0  0  0  0
   -8.3506    4.2163   -7.7291 C   0  0  0  0  0  0  0  0  0  0  0  0
   -8.4104    5.4396   -7.0891 C   0  0  0  0  0  0  0  0  0  0  0  0
   -8.4275    6.7531   -8.1676 S   0  0  0  0  0  0  0  0  0  0  0  0
   -8.4243    5.7143   -9.5368 C   0  0  0  0  0  0  0  0  0  0  0  0
   -8.4481    6.1067  -10.8846 C   0  0  0  0  0  0  0  0  0  0  0  0
   -8.4051    5.1228  -11.8849 C   0  0  0  0  0  0  0  0  0  0  0  0
   -8.2168    5.5876  -13.2790 C   0  0  0  0  0  0  0  0  0  0  0  0
   -7.5369    6.5315  -13.4033 O   0  0  0  0  0  0  0  0  0  0  0  0
   -8.8749    4.6769  -14.3457 N   0  0  0  0  0  0  0  0  0  0  0  0
   -8.7613    4.6810  -15.7195 C   0  0  0  0  0  0  0  0  0  0  0  0
   -7.6880    5.3740  -16.2353 C   0  0  0  0  0  0  0  0  0  0  0  0
   -7.3505    5.2789  -17.5845 C   0  0  0  0  0  0  0  0  0  0  0  0
   -6.0338    5.8873  -17.9541 C   0  0  2  0  0  0  0  0  0  0  0  0
   -5.4705    5.7590  -19.3632 C   0  0  0  0  0  0  0  0  0  0  0  0
   -4.0089    6.1949  -19.1950 C   0  0  0  0  0  0  0  0  0  0  0  0
   -3.7093    5.7724  -17.7782 C   0  0  0  0  0  0  0  0  0  0  0  0
   -2.6207    5.8419  -17.2239 O   0  0  0  0  0  0  0  0  0  0  0  0
   -4.9234    5.2672  -17.0869 C   0  0  0  0  0  0  0  0  0  0  0  0
   -8.2361    4.6188  -18.4172 C   0  0  0  0  0  0  0  0  0  0  0  0
   -9.3439    4.0155  -17.8317 C   0  0  0  0  0  0  0  0  0  0  0  0
   -9.5846    3.9675  -16.4959 N   0  0  0  0  0  0  0  0  0  0  0  0
   -8.3210    3.7783  -11.5541 C   0  0  0  0  0  0  0  0  0  0  0  0
   -8.2856    3.4049  -10.2082 C   0  0  0  0  0  0  0  0  0  0  0  0
   -8.3589    4.3691   -9.1680 C   0  0  0  0  0  0  0  0  0  0  0  0
  1  2  1  0
  2  3  1  0
  3  4  1  0
  4  5  2  0
  5  6  1  0
  6  7  1  0
  7  8  2  0
  8  9  1  0
  9 10  1  0
 10 11  2  0
 10 12  1  0
 12 13  1  0
 13 14  2  0
 14 15  1  0
 16 15  1  6
 16 17  1  0
 17 18  1  0
 18 19  1  0
 19 20  2  0
 19 21  1  0
 15 22  2  0
 22 23  1  0
 23 24  2  0
  9 25  2  0
 25 26  1  0
 26 27  2  0
 27  4  1  0
 27  7  1  0
 24 13  1  0
 21 16  1  0
M  END
>  <smiles>  (1295) 
C19495-P182

>  <fragmenstein_outcome>  (1295) 
acceptable

>  <inchikey>  (1295) 
AMUYIBPMXDPHGN-UHFFFAOYSA-N

>  <fragmenstein_mode>  (1295) 
expansion

>  <HIPPO Pose ID>  (1295) 
20908

>  <Energy>  (1295) 
48.825325

>  <fragmenstein_error>  (1295) 


>  <tags>  (1295) 
{'openbind_xx01zvns2b_c1_fragmenstein', 'fragmenstein_placed'}

>  <ref_pdb>  (1295) 
175

>  <scratch_subdir>  (1295) 
/opt/xchem-fragalysis-2/maxwin/BulkDock/SCRATCH/511028/C19495-P182

>  <alias>  (1295) 
NCCc1csc2cc(C(=O)Nc3cc([C@@H]4CCC(=O)C4)ccn3)ccc12

>  <HIPPO Compound ID>  (1295) 
19495

>  <fragmenstein_runtime>  (1295) 
4.260378

$$$$
NCCc1csc2cc(C(=O)Nc3cc([C@@]4(N)COC[C@H]4NN)ccn3)ccc12
     RDKit          3D

 29 32  0  0  0  0  0  0  0  0999 V2000
   -9.8564    1.3277   -8.0445 N   0  0  0  0  0  0  0  0  0  0  0  0
   -9.5401    2.1644   -6.8934 C   0  0  0  0  0  0  0  0  0  0  0  0
   -8.2238    2.9282   -7.0515 C   0  0  0  0  0  0  0  0  0  0  0  0
   -8.3479    4.2533   -7.7586 C   0  0  0  0  0  0  0  0  0  0  0  0
   -8.4090    5.4614   -7.0902 C   0  0  0  0  0  0  0  0  0  0  0  0
   -8.4269    6.8000   -8.1366 S   0  0  0  0  0  0  0  0  0  0  0  0
   -8.4197    5.7953   -9.5310 C   0  0  0  0  0  0  0  0  0  0  0  0
   -8.4279    6.2254  -10.8685 C   0  0  0  0  0  0  0  0  0  0  0  0
   -8.3840    5.2682  -11.8915 C   0  0  0  0  0  0  0  0  0  0  0  0
   -8.1468    5.7563  -13.2712 C   0  0  0  0  0  0  0  0  0  0  0  0
   -7.4117    6.6603  -13.3710 O   0  0  0  0  0  0  0  0  0  0  0  0
   -8.8460    4.9070  -14.3600 N   0  0  0  0  0  0  0  0  0  0  0  0
   -8.7186    4.9302  -15.7337 C   0  0  0  0  0  0  0  0  0  0  0  0
   -7.5925    5.5567  -16.2306 C   0  0  0  0  0  0  0  0  0  0  0  0
   -7.1254    5.2503  -17.5108 C   0  0  0  0  0  0  0  0  0  0  0  0
   -5.6496    5.4943  -17.7714 C   0  0  1  0  0  0  0  0  0  0  0  0
   -4.8979    4.8794  -16.6083 N   0  0  0  0  0  0  0  0  0  0  0  0
   -5.0017    4.8688  -19.0140 C   0  0  0  0  0  0  0  0  0  0  0  0
   -3.7572    5.5641  -19.2610 O   0  0  0  0  0  0  0  0  0  0  0  0
   -3.7791    6.7790  -18.4876 C   0  0  0  0  0  0  0  0  0  0  0  0
   -5.2034    6.9694  -17.9405 C   0  0  1  0  0  0  0  0  0  0  0  0
   -6.0055    7.9184  -18.7768 N   0  0  0  0  0  0  0  0  0  0  0  0
   -6.0706    7.4712  -20.1421 N   0  0  0  0  0  0  0  0  0  0  0  0
   -8.0072    4.5814  -18.3521 C   0  0  0  0  0  0  0  0  0  0  0  0
   -9.2091    4.1273  -17.8174 C   0  0  0  0  0  0  0  0  0  0  0  0
   -9.5346    4.2016  -16.5052 N   0  0  0  0  0  0  0  0  0  0  0  0
   -8.3252    3.9127  -11.5943 C   0  0  0  0  0  0  0  0  0  0  0  0
   -8.3046    3.5012  -10.2585 C   0  0  0  0  0  0  0  0  0  0  0  0
   -8.3663    4.4401   -9.1945 C   0  0  0  0  0  0  0  0  0  0  0  0
  1  2  1  0
  2  3  1  0
  3  4  1  0
  4  5  2  0
  5  6  1  0
  6  7  1  0
  7  8  2  0
  8  9  1  0
  9 10  1  0
 10 11  2  0
 10 12  1  0
 12 13  1  0
 13 14  2  0
 14 15  1  0
 15 16  1  0
 16 17  1  1
 16 18  1  0
 18 19  1  0
 19 20  1  0
 20 21  1  0
 21 22  1  6
 22 23  1  0
 15 24  2  0
 24 25  1  0
 25 26  2  0
  9 27  2  0
 27 28  1  0
 28 29  2  0
 29  4  1  0
 29  7  1  0
 26 13  1  0
 21 16  1  0
M  END
>  <smiles>  (1296) 
C19536-P182

>  <fragmenstein_outcome>  (1296) 
acceptable

>  <inchikey>  (1296) 
LKBXFIWGAXKARA-UHFFFAOYSA-N

>  <fragmenstein_mode>  (1296) 
expansion

>  <HIPPO Pose ID>  (1296) 
20930

>  <Energy>  (1296) 
181.026117

>  <fragmenstein_error>  (1296) 


>  <tags>  (1296) 
{'openbind_xx01zvns2b_c1_fragmenstein', 'fragmenstein_placed'}

>  <ref_pdb>  (1296) 
175

>  <scratch_subdir>  (1296) 
/opt/xchem-fragalysis-2/maxwin/BulkDock/SCRATCH/511028/C19536-P182

>  <alias>  (1296) 
NCCc1csc2cc(C(=O)Nc3cc([C@@]4(N)COC[C@H]4NN)ccn3)ccc12

>  <HIPPO Compound ID>  (1296) 
19536

>  <fragmenstein_runtime>  (1296) 
4.566

$$$$
CCNCc1csc(C[C@H](CC)C(=O)Nc2cc([C@@H]3CCOC3)ccn2)c1
     RDKit          3D

 27 29  0  0  0  0  0  0  0  0999 V2000
   -9.4257    2.2159   -8.8913 C   0  0  0  0  0  0  0  0  0  0  0  0
   -9.3488    1.8882   -7.4201 C   0  0  0  0  0  0  0  0  0  0  0  0
   -9.4332    3.0787   -6.5758 N   0  0  0  0  0  0  0  0  0  0  0  0
   -8.1796    3.8285   -6.5144 C   0  0  0  0  0  0  0  0  0  0  0  0
   -8.1630    4.9394   -7.5270 C   0  0  0  0  0  0  0  0  0  0  0  0
   -8.7243    6.1902   -7.3657 C   0  0  0  0  0  0  0  0  0  0  0  0
   -8.5639    7.1801   -8.7562 S   0  0  0  0  0  0  0  0  0  0  0  0
   -7.7357    5.9573   -9.6097 C   0  0  0  0  0  0  0  0  0  0  0  0
   -7.2915    6.1488  -11.0378 C   0  0  0  0  0  0  0  0  0  0  0  0
   -8.2040    5.5024  -12.1051 C   0  0  2  0  0  0  0  0  0  0  0  0
   -8.5726    4.0417  -11.7956 C   0  0  0  0  0  0  0  0  0  0  0  0
   -7.4035    3.0787  -11.8119 C   0  0  0  0  0  0  0  0  0  0  0  0
   -7.5389    5.6096  -13.4999 C   0  0  0  0  0  0  0  0  0  0  0  0
   -6.4347    5.9680  -13.6504 O   0  0  0  0  0  0  0  0  0  0  0  0
   -8.5967    5.1331  -14.5415 N   0  0  0  0  0  0  0  0  0  0  0  0
   -8.4841    4.9219  -15.8974 C   0  0  0  0  0  0  0  0  0  0  0  0
   -7.2995    5.1374  -16.5796 C   0  0  0  0  0  0  0  0  0  0  0  0
   -7.2589    4.9124  -17.9588 C   0  0  0  0  0  0  0  0  0  0  0  0
   -6.0146    5.1041  -18.8008 C   0  0  2  0  0  0  0  0  0  0  0  0
   -4.6878    4.8412  -18.1111 C   0  0  0  0  0  0  0  0  0  0  0  0
   -4.2282    6.2019  -17.6311 C   0  0  0  0  0  0  0  0  0  0  0  0
   -4.9253    7.1970  -18.3873 O   0  0  0  0  0  0  0  0  0  0  0  0
   -5.8526    6.5443  -19.2690 C   0  0  0  0  0  0  0  0  0  0  0  0
   -8.4450    4.5199  -18.5909 C   0  0  0  0  0  0  0  0  0  0  0  0
   -9.5832    4.3401  -17.8312 C   0  0  0  0  0  0  0  0  0  0  0  0
   -9.6111    4.4994  -16.4970 N   0  0  0  0  0  0  0  0  0  0  0  0
   -7.4964    4.8711   -8.7903 C   0  0  0  0  0  0  0  0  0  0  0  0
  1  2  1  0
  2  3  1  0
  3  4  1  0
  4  5  1  0
  5  6  2  0
  6  7  1  0
  7  8  1  0
  8  9  1  0
 10  9  1  1
 10 11  1  0
 11 12  1  0
 10 13  1  0
 13 14  2  0
 13 15  1  0
 15 16  1  0
 16 17  2  0
 17 18  1  0
 19 18  1  1
 19 20  1  0
 20 21  1  0
 21 22  1  0
 22 23  1  0
 18 24  2  0
 24 25  1  0
 25 26  2  0
  8 27  2  0
 27  5  1  0
 26 16  1  0
 23 19  1  0
M  END
>  <smiles>  (1297) 
C19461-P182

>  <fragmenstein_outcome>  (1297) 
acceptable

>  <inchikey>  (1297) 
PQHUCBYNBNVMRW-UHFFFAOYSA-N

>  <fragmenstein_mode>  (1297) 
expansion

>  <HIPPO Pose ID>  (1297) 
20948

>  <Energy>  (1297) 
10.123585

>  <fragmenstein_error>  (1297) 


>  <tags>  (1297) 
{'openbind_xx01zvns2b_c1_fragmenstein', 'fragmenstein_placed'}

>  <ref_pdb>  (1297) 
175

>  <scratch_subdir>  (1297) 
/opt/xchem-fragalysis-2/maxwin/BulkDock/SCRATCH/511028/C19461-P182

>  <alias>  (1297) 
CCNCc1csc(C[C@H](CC)C(=O)Nc2cc([C@@H]3CCOC3)ccn2)c1

>  <HIPPO Compound ID>  (1297) 
19461

>  <fragmenstein_runtime>  (1297) 
7.722022

$$$$
CNC[C@@]1(c2ccnc(NC(=O)c3ccc4c(CNCCN)csc4c3)c2)CCOC1
     RDKit          3D

 31 34  0  0  0  0  0  0  0  0999 V2000
   -4.7403    5.9653  -21.8769 C   0  0  0  0  0  0  0  0  0  0  0  0
   -4.6976    4.7820  -21.0273 N   0  0  0  0  0  0  0  0  0  0  0  0
   -5.8930    4.6213  -20.1866 C   0  0  0  0  0  0  0  0  0  0  0  0
   -5.9881    5.3198  -18.7874 C   0  0  1  0  0  0  0  0  0  0  0  0
   -7.2720    4.9311  -18.0248 C   0  0  0  0  0  0  0  0  0  0  0  0
   -8.4107    4.4131  -18.6519 C   0  0  0  0  0  0  0  0  0  0  0  0
   -9.5251    4.0948  -17.8928 C   0  0  0  0  0  0  0  0  0  0  0  0
   -9.5813    4.2211  -16.5571 N   0  0  0  0  0  0  0  0  0  0  0  0
   -8.5235    4.7865  -15.9595 C   0  0  0  0  0  0  0  0  0  0  0  0
   -8.6247    4.9640  -14.6004 N   0  0  0  0  0  0  0  0  0  0  0  0
   -7.7172    5.7407  -13.6184 C   0  0  0  0  0  0  0  0  0  0  0  0
   -6.7847    6.4150  -13.8210 O   0  0  0  0  0  0  0  0  0  0  0  0
   -8.1283    5.5262  -12.1987 C   0  0  0  0  0  0  0  0  0  0  0  0
   -8.6294    4.3058  -11.7811 C   0  0  0  0  0  0  0  0  0  0  0  0
   -8.9068    4.0970  -10.4313 C   0  0  0  0  0  0  0  0  0  0  0  0
   -8.5946    5.0563   -9.4361 C   0  0  0  0  0  0  0  0  0  0  0  0
   -8.6088    4.9845   -7.9793 C   0  0  0  0  0  0  0  0  0  0  0  0
   -8.9166    3.8049   -7.0903 C   0  0  0  0  0  0  0  0  0  0  0  0
   -9.2653    2.6111   -7.8340 N   0  0  0  0  0  0  0  0  0  0  0  0
   -8.1370    1.6861   -7.9840 C   0  0  0  0  0  0  0  0  0  0  0  0
   -6.8294    2.1154   -8.7163 C   0  0  0  0  0  0  0  0  0  0  0  0
   -6.8313    2.0435  -10.1771 N   0  0  0  0  0  0  0  0  0  0  0  0
   -8.2744    6.2109   -7.4330 C   0  0  0  0  0  0  0  0  0  0  0  0
   -7.9119    7.3949   -8.5946 S   0  0  0  0  0  0  0  0  0  0  0  0
   -8.1400    6.2959   -9.8938 C   0  0  0  0  0  0  0  0  0  0  0  0
   -7.9102    6.5485  -11.2646 C   0  0  0  0  0  0  0  0  0  0  0  0
   -7.3798    5.1643  -16.6442 C   0  0  0  0  0  0  0  0  0  0  0  0
   -4.6993    5.0034  -18.0071 C   0  0  0  0  0  0  0  0  0  0  0  0
   -3.7872    6.1726  -18.3017 C   0  0  0  0  0  0  0  0  0  0  0  0
   -4.6061    7.3029  -18.6053 O   0  0  0  0  0  0  0  0  0  0  0  0
   -5.9391    6.8500  -18.8820 C   0  0  0  0  0  0  0  0  0  0  0  0
  1  2  1  0
  2  3  1  0
  4  3  1  6
  4  5  1  0
  5  6  2  0
  6  7  1  0
  7  8  2  0
  8  9  1  0
  9 10  1  0
 10 11  1  0
 11 12  2  0
 11 13  1  0
 13 14  2  0
 14 15  1  0
 15 16  2  0
 16 17  1  0
 17 18  1  0
 18 19  1  0
 19 20  1  0
 20 21  1  0
 21 22  1  0
 17 23  2  0
 23 24  1  0
 24 25  1  0
 25 26  2  0
  9 27  2  0
  4 28  1  0
 28 29  1  0
 29 30  1  0
 30 31  1  0
 31  4  1  0
 27  5  1  0
 26 13  1  0
 25 16  1  0
M  END
>  <smiles>  (1298) 
C19577-P182

>  <fragmenstein_outcome>  (1298) 
acceptable

>  <inchikey>  (1298) 
DESGJAXZCHCNIY-UHFFFAOYSA-N

>  <fragmenstein_mode>  (1298) 
expansion

>  <HIPPO Pose ID>  (1298) 
20950

>  <Energy>  (1298) 
99.462158

>  <fragmenstein_error>  (1298) 


>  <tags>  (1298) 
{'openbind_xx01zvns2b_c1_fragmenstein', 'fragmenstein_placed'}

>  <ref_pdb>  (1298) 
175

>  <scratch_subdir>  (1298) 
/opt/xchem-fragalysis-2/maxwin/BulkDock/SCRATCH/511028/C19577-P182

>  <alias>  (1298) 
CNC[C@@]1(c2ccnc(NC(=O)c3ccc4c(CNCCN)csc4c3)c2)CCOC1

>  <HIPPO Compound ID>  (1298) 
19577

>  <fragmenstein_runtime>  (1298) 
7.923997

$$$$
CNn1cc2c(C(=O)Nc3cc4c(c(C)c3C#N)CNC4)cc(F)cc2n1
     RDKit          3D

 27 30  0  0  0  0  0  0  0  0999 V2000
   -3.0988    5.3324  -18.7244 C   0  0  0  0  0  0  0  0  0  0  0  0
   -3.3773    5.6079  -17.3143 N   0  0  0  0  0  0  0  0  0  0  0  0
   -4.7279    5.3035  -16.9795 N   0  0  0  0  0  0  0  0  0  0  0  0
   -5.2257    5.3286  -15.6967 C   0  0  0  0  0  0  0  0  0  0  0  0
   -6.5618    5.0234  -15.7992 C   0  0  0  0  0  0  0  0  0  0  0  0
   -7.5405    4.9055  -14.7889 C   0  0  0  0  0  0  0  0  0  0  0  0
   -7.3790    5.2452  -13.3345 C   0  0  0  0  0  0  0  0  0  0  0  0
   -6.7073    6.1650  -13.0657 O   0  0  0  0  0  0  0  0  0  0  0  0
   -8.2352    4.3173  -12.4183 N   0  0  0  0  0  0  0  0  0  0  0  0
   -8.3585    4.2776  -11.0040 C   0  0  0  0  0  0  0  0  0  0  0  0
   -8.7008    3.0258  -10.4757 C   0  0  0  0  0  0  0  0  0  0  0  0
   -8.8048    2.8537   -9.0986 C   0  0  0  0  0  0  0  0  0  0  0  0
   -8.5950    3.8961   -8.2125 C   0  0  0  0  0  0  0  0  0  0  0  0
   -8.2878    5.1585   -8.6762 C   0  0  0  0  0  0  0  0  0  0  0  0
   -8.1364    6.2953   -7.6990 C   0  0  0  0  0  0  0  0  0  0  0  0
   -8.2030    5.3493  -10.0903 C   0  0  0  0  0  0  0  0  0  0  0  0
   -8.1439    6.7136  -10.5008 C   0  0  0  0  0  0  0  0  0  0  0  0
   -8.1779    7.8675  -10.6195 N   0  0  0  0  0  0  0  0  0  0  0  0
   -8.7516    3.4028   -6.8107 C   0  0  0  0  0  0  0  0  0  0  0  0
   -9.3334    2.0576   -6.9272 N   0  0  0  0  0  0  0  0  0  0  0  0
   -9.0604    1.6118   -8.3123 C   0  0  0  0  0  0  0  0  0  0  0  0
   -8.7919    4.5589  -15.3561 C   0  0  0  0  0  0  0  0  0  0  0  0
   -9.0129    4.3491  -16.7520 C   0  0  0  0  0  0  0  0  0  0  0  0
  -10.2435    4.0120  -17.1606 F   0  0  0  0  0  0  0  0  0  0  0  0
   -8.0371    4.4872  -17.7391 C   0  0  0  0  0  0  0  0  0  0  0  0
   -6.7879    4.8292  -17.2206 C   0  0  0  0  0  0  0  0  0  0  0  0
   -5.6595    5.0469  -17.8996 N   0  0  0  0  0  0  0  0  0  0  0  0
  1  2  1  0
  2  3  1  0
  3  4  1  0
  4  5  2  0
  5  6  1  0
  6  7  1  0
  7  8  2  0
  7  9  1  0
  9 10  1  0
 10 11  2  0
 11 12  1  0
 12 13  2  0
 13 14  1  0
 14 15  1  0
 14 16  2  0
 16 17  1  0
 17 18  3  0
 13 19  1  0
 19 20  1  0
 20 21  1  0
  6 22  2  0
 22 23  1  0
 23 24  1  0
 23 25  2  0
 25 26  1  0
 26 27  2  0
 27  3  1  0
 26  5  1  0
 16 10  1  0
 21 12  1  0
M  END
>  <smiles>  (1299) 
C19647-P182

>  <fragmenstein_outcome>  (1299) 
acceptable

>  <inchikey>  (1299) 
UFYMDXPJOHZZBC-UHFFFAOYSA-N

>  <fragmenstein_mode>  (1299) 
expansion

>  <HIPPO Pose ID>  (1299) 
20975

>  <Energy>  (1299) 
15.542675

>  <fragmenstein_error>  (1299) 


>  <tags>  (1299) 
{'openbind_xx01zvns2b_c1_fragmenstein', 'fragmenstein_placed'}

>  <ref_pdb>  (1299) 
175

>  <scratch_subdir>  (1299) 
/opt/xchem-fragalysis-2/maxwin/BulkDock/SCRATCH/511028/C19647-P182

>  <alias>  (1299) 
CNn1cc2c(C(=O)Nc3cc4c(c(C)c3C#N)CNC4)cc(F)cc2n1

>  <HIPPO Compound ID>  (1299) 
19647

>  <fragmenstein_runtime>  (1299) 
4.454057

$$$$
N#Cc1cc2c(cc1NC(=O)c1cc(F)cc3nn(N)cc13)CNC2
     RDKit          3D

 25 28  0  0  0  0  0  0  0  0999 V2000
   -8.1187    7.9267  -10.6430 N   0  0  0  0  0  0  0  0  0  0  0  0
   -8.0698    6.7680  -10.6040 C   0  0  0  0  0  0  0  0  0  0  0  0
   -8.1165    5.3901  -10.2555 C   0  0  0  0  0  0  0  0  0  0  0  0
   -8.1685    5.1998   -8.8541 C   0  0  0  0  0  0  0  0  0  0  0  0
   -8.4637    3.9583   -8.3556 C   0  0  0  0  0  0  0  0  0  0  0  0
   -8.7011    2.9080   -9.2207 C   0  0  0  0  0  0  0  0  0  0  0  0
   -8.6214    3.0691  -10.6064 C   0  0  0  0  0  0  0  0  0  0  0  0
   -8.2908    4.3201  -11.1604 C   0  0  0  0  0  0  0  0  0  0  0  0
   -8.2027    4.3596  -12.5802 N   0  0  0  0  0  0  0  0  0  0  0  0
   -7.4108    5.3257  -13.5220 C   0  0  0  0  0  0  0  0  0  0  0  0
   -6.7767    6.2779  -13.2715 O   0  0  0  0  0  0  0  0  0  0  0  0
   -7.5946    4.9784  -14.9766 C   0  0  0  0  0  0  0  0  0  0  0  0
   -8.8451    4.5597  -15.4948 C   0  0  0  0  0  0  0  0  0  0  0  0
   -9.1080    4.3232  -16.8788 C   0  0  0  0  0  0  0  0  0  0  0  0
  -10.3409    3.9452  -17.2387 F   0  0  0  0  0  0  0  0  0  0  0  0
   -8.1761    4.4763  -17.9039 C   0  0  0  0  0  0  0  0  0  0  0  0
   -6.9306    4.8988  -17.4425 C   0  0  0  0  0  0  0  0  0  0  0  0
   -5.8386    5.1471  -18.1738 N   0  0  0  0  0  0  0  0  0  0  0  0
   -4.9339    5.5637  -17.3061 N   0  0  0  0  0  0  0  0  0  0  0  0
   -3.6682    5.9283  -17.7655 N   0  0  0  0  0  0  0  0  0  0  0  0
   -5.3610    5.5850  -16.0055 C   0  0  0  0  0  0  0  0  0  0  0  0
   -6.6649    5.1481  -16.0303 C   0  0  0  0  0  0  0  0  0  0  0  0
   -8.9681    1.6891   -8.3988 C   0  0  0  0  0  0  0  0  0  0  0  0
   -9.1914    2.1722   -7.0137 N   0  0  0  0  0  0  0  0  0  0  0  0
   -8.5898    3.5120   -6.9410 C   0  0  0  0  0  0  0  0  0  0  0  0
  1  2  3  0
  2  3  1  0
  3  4  2  0
  4  5  1  0
  5  6  2  0
  6  7  1  0
  7  8  2  0
  8  9  1  0
  9 10  1  0
 10 11  2  0
 10 12  1  0
 12 13  2  0
 13 14  1  0
 14 15  1  0
 14 16  2  0
 16 17  1  0
 17 18  2  0
 18 19  1  0
 19 20  1  0
 19 21  1  0
 21 22  2  0
  6 23  1  0
 23 24  1  0
 24 25  1  0
  8  3  1  0
 22 12  1  0
 25  5  1  0
 22 17  1  0
M  END
>  <smiles>  (1300) 
C19614-P182

>  <fragmenstein_outcome>  (1300) 
acceptable

>  <inchikey>  (1300) 
OJPGIHUEWOZYPD-UHFFFAOYSA-N

>  <fragmenstein_mode>  (1300) 
expansion

>  <HIPPO Pose ID>  (1300) 
20977

>  <Energy>  (1300) 
-0.583345

>  <fragmenstein_error>  (1300) 


>  <tags>  (1300) 
{'openbind_xx01zvns2b_c1_fragmenstein', 'fragmenstein_placed'}

>  <ref_pdb>  (1300) 
175

>  <scratch_subdir>  (1300) 
/opt/xchem-fragalysis-2/maxwin/BulkDock/SCRATCH/511028/C19614-P182

>  <alias>  (1300) 
N#Cc1cc2c(cc1NC(=O)c1cc(F)cc3nn(N)cc13)CNC2

>  <HIPPO Compound ID>  (1300) 
19614

>  <fragmenstein_runtime>  (1300) 
2.929086

$$$$
N#Cc1cc2c(c(N)c1NC(=O)c1cc(F)cc3[nH]ncc13)CNC2
     RDKit          3D

 25 28  0  0  0  0  0  0  0  0999 V2000
   -8.2230    8.4056  -10.7138 N   0  0  0  0  0  0  0  0  0  0  0  0
   -8.2067    7.2597  -10.5213 C   0  0  0  0  0  0  0  0  0  0  0  0
   -8.2448    5.8786  -10.1550 C   0  0  0  0  0  0  0  0  0  0  0  0
   -8.3551    5.6515   -8.7653 C   0  0  0  0  0  0  0  0  0  0  0  0
   -8.5721    4.3714   -8.2955 C   0  0  0  0  0  0  0  0  0  0  0  0
   -8.6483    3.2971   -9.1674 C   0  0  0  0  0  0  0  0  0  0  0  0
   -8.4573    3.4794  -10.5290 C   0  0  0  0  0  0  0  0  0  0  0  0
   -8.6248    2.4122  -11.4406 N   0  0  0  0  0  0  0  0  0  0  0  0
   -8.2936    4.7929  -11.0493 C   0  0  0  0  0  0  0  0  0  0  0  0
   -8.2062    4.7856  -12.4574 N   0  0  0  0  0  0  0  0  0  0  0  0
   -7.6445    5.8409  -13.4325 C   0  0  0  0  0  0  0  0  0  0  0  0
   -7.2363    6.9141  -13.2314 O   0  0  0  0  0  0  0  0  0  0  0  0
   -7.6944    5.3400  -14.8386 C   0  0  0  0  0  0  0  0  0  0  0  0
   -8.8889    4.8532  -15.3923 C   0  0  0  0  0  0  0  0  0  0  0  0
   -8.9511    4.4805  -16.7332 C   0  0  0  0  0  0  0  0  0  0  0  0
  -10.1095    4.0453  -17.2466 F   0  0  0  0  0  0  0  0  0  0  0  0
   -7.8458    4.5620  -17.5740 C   0  0  0  0  0  0  0  0  0  0  0  0
   -6.6575    5.0123  -16.9970 C   0  0  0  0  0  0  0  0  0  0  0  0
   -5.4063    5.1751  -17.5254 N   0  0  0  0  0  0  0  0  0  0  0  0
   -4.5005    5.6490  -16.6524 N   0  0  0  0  0  0  0  0  0  0  0  0
   -5.2035    5.7967  -15.5241 C   0  0  0  0  0  0  0  0  0  0  0  0
   -6.5548    5.4075  -15.6638 C   0  0  0  0  0  0  0  0  0  0  0  0
   -8.9096    2.0587   -8.3695 C   0  0  0  0  0  0  0  0  0  0  0  0
   -9.3461    2.5422   -7.0337 N   0  0  0  0  0  0  0  0  0  0  0  0
   -8.7671    3.8924   -6.8965 C   0  0  0  0  0  0  0  0  0  0  0  0
  1  2  3  0
  2  3  1  0
  3  4  2  0
  4  5  1  0
  5  6  2  0
  6  7  1  0
  7  8  1  0
  7  9  2  0
  9 10  1  0
 10 11  1  0
 11 12  2  0
 11 13  1  0
 13 14  2  0
 14 15  1  0
 15 16  1  0
 15 17  2  0
 17 18  1  0
 18 19  1  0
 19 20  1  0
 20 21  2  0
 21 22  1  0
  6 23  1  0
 23 24  1  0
 24 25  1  0
  9  3  1  0
 22 13  1  0
 25  5  1  0
 22 18  2  0
M  END
>  <smiles>  (1301) 
C19651-P182

>  <fragmenstein_outcome>  (1301) 
acceptable

>  <inchikey>  (1301) 
GZAPUZQJVWXFKG-UHFFFAOYSA-N

>  <fragmenstein_mode>  (1301) 
expansion

>  <HIPPO Pose ID>  (1301) 
20978

>  <Energy>  (1301) 
82.429201

>  <fragmenstein_error>  (1301) 


>  <tags>  (1301) 
{'openbind_xx01zvns2b_c1_fragmenstein', 'fragmenstein_placed'}

>  <ref_pdb>  (1301) 
175

>  <scratch_subdir>  (1301) 
/opt/xchem-fragalysis-2/maxwin/BulkDock/SCRATCH/511028/C19651-P182

>  <alias>  (1301) 
N#Cc1cc2c(c(N)c1NC(=O)c1cc(F)cc3[nH]ncc13)CNC2

>  <HIPPO Compound ID>  (1301) 
20552

>  <fragmenstein_runtime>  (1301) 
4.508207

$$$$
Cc1c(C#N)c(C(=O)C(=O)c2cc(F)cc3c2cnn3CNC(C)(C)CO)cc2c1CNC2
     RDKit          3D

 33 36  0  0  0  0  0  0  0  0999 V2000
   -8.1029    6.6825   -8.4457 C   0  0  0  0  0  0  0  0  0  0  0  0
   -8.3285    5.4774   -9.3157 C   0  0  0  0  0  0  0  0  0  0  0  0
   -8.3951    5.5842  -10.7204 C   0  0  0  0  0  0  0  0  0  0  0  0
   -8.2416    6.8560  -11.3705 C   0  0  0  0  0  0  0  0  0  0  0  0
   -8.1036    7.8612  -11.9342 N   0  0  0  0  0  0  0  0  0  0  0  0
   -8.6281    4.4381  -11.5132 C   0  0  0  0  0  0  0  0  0  0  0  0
   -8.7729    4.6183  -12.9685 C   0  0  0  0  0  0  0  0  0  0  0  0
   -9.8121    5.0334  -13.4647 O   0  0  0  0  0  0  0  0  0  0  0  0
   -7.5612    4.4821  -13.8434 C   0  0  0  0  0  0  0  0  0  0  0  0
   -6.4581    4.5214  -13.3126 O   0  0  0  0  0  0  0  0  0  0  0  0
   -7.7366    4.4089  -15.3095 C   0  0  0  0  0  0  0  0  0  0  0  0
   -8.9054    3.9351  -15.9185 C   0  0  0  0  0  0  0  0  0  0  0  0
   -9.0218    3.8928  -17.2990 C   0  0  0  0  0  0  0  0  0  0  0  0
  -10.1649    3.4641  -17.8441 F   0  0  0  0  0  0  0  0  0  0  0  0
   -7.9906    4.2960  -18.1333 C   0  0  0  0  0  0  0  0  0  0  0  0
   -6.8400    4.8002  -17.5195 C   0  0  0  0  0  0  0  0  0  0  0  0
   -6.6998    4.8672  -16.1332 C   0  0  0  0  0  0  0  0  0  0  0  0
   -5.4418    5.4585  -15.9228 C   0  0  0  0  0  0  0  0  0  0  0  0
   -4.8341    5.7628  -17.0620 N   0  0  0  0  0  0  0  0  0  0  0  0
   -5.6627    5.2953  -18.0195 N   0  0  0  0  0  0  0  0  0  0  0  0
   -5.2472    5.3210  -19.4218 C   0  0  0  0  0  0  0  0  0  0  0  0
   -3.8485    4.8829  -19.5432 N   0  0  0  0  0  0  0  0  0  0  0  0
   -2.7886    5.8968  -19.2892 C   0  0  0  0  0  0  0  0  0  0  0  0
   -1.9062    5.4707  -18.0973 C   0  0  0  0  0  0  0  0  0  0  0  0
   -1.8892    5.7518  -20.5169 C   0  0  0  0  0  0  0  0  0  0  0  0
   -3.1951    7.4006  -19.1847 C   0  0  0  0  0  0  0  0  0  0  0  0
   -2.0740    8.2740  -19.0466 O   0  0  0  0  0  0  0  0  0  0  0  0
   -8.7887    3.1722  -10.9433 C   0  0  0  0  0  0  0  0  0  0  0  0
   -8.7488    3.0867   -9.5612 C   0  0  0  0  0  0  0  0  0  0  0  0
   -8.5361    4.2136   -8.7635 C   0  0  0  0  0  0  0  0  0  0  0  0
   -8.5968    3.8044   -7.3251 C   0  0  0  0  0  0  0  0  0  0  0  0
   -9.0662    2.4071   -7.3117 N   0  0  0  0  0  0  0  0  0  0  0  0
   -8.9206    1.8845   -8.6895 C   0  0  0  0  0  0  0  0  0  0  0  0
  1  2  1  0
  2  3  2  0
  3  4  1  0
  4  5  3  0
  3  6  1  0
  6  7  1  0
  7  8  2  0
  7  9  1  0
  9 10  2  0
  9 11  1  0
 11 12  2  0
 12 13  1  0
 13 14  1  0
 13 15  2  0
 15 16  1  0
 16 17  2  0
 17 18  1  0
 18 19  2  0
 19 20  1  0
 20 21  1  0
 21 22  1  0
 22 23  1  0
 23 24  1  0
 23 25  1  0
 23 26  1  0
 26 27  1  0
  6 28  2  0
 28 29  1  0
 29 30  2  0
 30 31  1  0
 31 32  1  0
 32 33  1  0
 30  2  1  0
 17 11  1  0
 33 29  1  0
 20 16  1  0
M  END
>  <smiles>  (1302) 
C19667-P183

>  <fragmenstein_outcome>  (1302) 
acceptable

>  <inchikey>  (1302) 
ICLAVZHLDRVRPG-UHFFFAOYSA-N

>  <fragmenstein_mode>  (1302) 
expansion

>  <HIPPO Pose ID>  (1302) 
20984

>  <Energy>  (1302) 
165.612991

>  <fragmenstein_error>  (1302) 


>  <tags>  (1302) 
{'openbind_xx01zvns2b_c1_fragmenstein', 'fragmenstein_placed'}

>  <ref_pdb>  (1302) 
175

>  <scratch_subdir>  (1302) 
/opt/xchem-fragalysis-2/maxwin/BulkDock/SCRATCH/511028/C19667-P183

>  <alias>  (1302) 
Cc1c(C#N)c(C(=O)C(=O)c2cc(F)cc3c2cnn3CNC(C)(C)CO)cc2c1CNC2

>  <HIPPO Compound ID>  (1302) 
37382

>  <fragmenstein_runtime>  (1302) 
5.743549

$$$$
Cc1c(C#N)c(NC(=O)c2cc(F)cc3c2cnn3NC(C)C)cc2c1CNC2
     RDKit          3D

 29 32  0  0  0  0  0  0  0  0999 V2000
   -8.1867    6.5534   -8.4537 C   0  0  0  0  0  0  0  0  0  0  0  0
   -8.3613    5.2996   -9.2685 C   0  0  0  0  0  0  0  0  0  0  0  0
   -8.3338    5.3263  -10.6872 C   0  0  0  0  0  0  0  0  0  0  0  0
   -8.3402    6.6126  -11.3366 C   0  0  0  0  0  0  0  0  0  0  0  0
   -8.4276    7.6734  -11.8046 N   0  0  0  0  0  0  0  0  0  0  0  0
   -8.4674    4.1267  -11.4367 C   0  0  0  0  0  0  0  0  0  0  0  0
   -8.2804    4.0536  -12.8237 N   0  0  0  0  0  0  0  0  0  0  0  0
   -7.4787    4.9681  -13.7784 C   0  0  0  0  0  0  0  0  0  0  0  0
   -6.7866    5.8798  -13.5489 O   0  0  0  0  0  0  0  0  0  0  0  0
   -7.6253    4.6179  -15.2198 C   0  0  0  0  0  0  0  0  0  0  0  0
   -8.8125    4.1381  -15.7840 C   0  0  0  0  0  0  0  0  0  0  0  0
   -8.9197    3.9910  -17.1654 C   0  0  0  0  0  0  0  0  0  0  0  0
  -10.0803    3.5680  -17.6820 F   0  0  0  0  0  0  0  0  0  0  0  0
   -7.8839    4.3263  -18.0358 C   0  0  0  0  0  0  0  0  0  0  0  0
   -6.7006    4.8109  -17.4630 C   0  0  0  0  0  0  0  0  0  0  0  0
   -6.5499    4.9320  -16.0830 C   0  0  0  0  0  0  0  0  0  0  0  0
   -5.2308    5.4029  -15.9195 C   0  0  0  0  0  0  0  0  0  0  0  0
   -4.5957    5.5672  -17.0749 N   0  0  0  0  0  0  0  0  0  0  0  0
   -5.5211    5.2853  -18.0055 N   0  0  0  0  0  0  0  0  0  0  0  0
   -5.3159    5.4859  -19.3959 N   0  0  0  0  0  0  0  0  0  0  0  0
   -4.2307    6.4316  -19.6876 C   0  0  0  0  0  0  0  0  0  0  0  0
   -4.4921    7.0602  -21.0554 C   0  0  0  0  0  0  0  0  0  0  0  0
   -2.8466    5.7722  -19.6819 C   0  0  0  0  0  0  0  0  0  0  0  0
   -8.7433    2.9233  -10.7803 C   0  0  0  0  0  0  0  0  0  0  0  0
   -8.8052    2.9183   -9.3965 C   0  0  0  0  0  0  0  0  0  0  0  0
   -8.6088    4.0769   -8.6517 C   0  0  0  0  0  0  0  0  0  0  0  0
   -8.7254    3.7413   -7.1986 C   0  0  0  0  0  0  0  0  0  0  0  0
   -9.2221    2.3532   -7.1336 N   0  0  0  0  0  0  0  0  0  0  0  0
   -9.0139    1.7619   -8.4759 C   0  0  0  0  0  0  0  0  0  0  0  0
  1  2  1  0
  2  3  2  0
  3  4  1  0
  4  5  3  0
  3  6  1  0
  6  7  1  0
  7  8  1  0
  8  9  2  0
  8 10  1  0
 10 11  2  0
 11 12  1  0
 12 13  1  0
 12 14  2  0
 14 15  1  0
 15 16  2  0
 16 17  1  0
 17 18  2  0
 18 19  1  0
 19 20  1  0
 20 21  1  0
 21 22  1  0
 21 23  1  0
  6 24  2  0
 24 25  1  0
 25 26  2  0
 26 27  1  0
 27 28  1  0
 28 29  1  0
 26  2  1  0
 16 10  1  0
 29 25  1  0
 19 15  1  0
M  END
>  <smiles>  (1303) 
C19669-P183

>  <fragmenstein_outcome>  (1303) 
acceptable

>  <inchikey>  (1303) 
KWFBUIVQDMJPTN-UHFFFAOYSA-N

>  <fragmenstein_mode>  (1303) 
expansion

>  <HIPPO Pose ID>  (1303) 
20985

>  <Energy>  (1303) 
33.619127

>  <fragmenstein_error>  (1303) 


>  <tags>  (1303) 
{'openbind_xx01zvns2b_c1_fragmenstein', 'fragmenstein_placed'}

>  <ref_pdb>  (1303) 
175

>  <scratch_subdir>  (1303) 
/opt/xchem-fragalysis-2/maxwin/BulkDock/SCRATCH/511028/C19669-P183

>  <alias>  (1303) 
Cc1c(C#N)c(NC(=O)c2cc(F)cc3c2cnn3NC(C)C)cc2c1CNC2

>  <HIPPO Compound ID>  (1303) 
19669

>  <fragmenstein_runtime>  (1303) 
9.539129

$$$$
N#Cc1cc2c(cc1N[C@@](O)(C(=O)NCc1cccnc1)c1cc(F)cc3[nH]ncc13)CNC2
     RDKit          3D

 34 38  0  0  0  0  0  0  0  0999 V2000
   -8.3120    7.8731  -11.5986 N   0  0  0  0  0  0  0  0  0  0  0  0
   -8.3543    6.7787  -11.2111 C   0  0  0  0  0  0  0  0  0  0  0  0
   -8.3888    5.4344  -10.7247 C   0  0  0  0  0  0  0  0  0  0  0  0
   -8.3839    5.3224   -9.3182 C   0  0  0  0  0  0  0  0  0  0  0  0
   -8.5628    4.0837   -8.7441 C   0  0  0  0  0  0  0  0  0  0  0  0
   -8.7205    2.9605   -9.5341 C   0  0  0  0  0  0  0  0  0  0  0  0
   -8.6917    3.0431  -10.9216 C   0  0  0  0  0  0  0  0  0  0  0  0
   -8.5080    4.2902  -11.5648 C   0  0  0  0  0  0  0  0  0  0  0  0
   -8.5758    4.2893  -12.9867 N   0  0  0  0  0  0  0  0  0  0  0  0
   -7.5343    4.9281  -13.8268 C   0  0  1  0  0  0  0  0  0  0  0  0
   -7.8969    6.2896  -13.8839 O   0  0  0  0  0  0  0  0  0  0  0  0
   -6.0848    4.7349  -13.1776 C   0  0  0  0  0  0  0  0  0  0  0  0
   -5.5762    3.6977  -12.9912 O   0  0  0  0  0  0  0  0  0  0  0  0
   -5.6180    6.1737  -12.7905 N   0  0  0  0  0  0  0  0  0  0  0  0
   -4.4010    6.6244  -12.1882 C   0  0  0  0  0  0  0  0  0  0  0  0
   -3.2715    6.5744  -13.1640 C   0  0  0  0  0  0  0  0  0  0  0  0
   -2.9156    7.6749  -13.9471 C   0  0  0  0  0  0  0  0  0  0  0  0
   -1.8861    7.5528  -14.8752 C   0  0  0  0  0  0  0  0  0  0  0  0
   -1.2452    6.3302  -14.9876 C   0  0  0  0  0  0  0  0  0  0  0  0
   -1.5602    5.2466  -14.2468 N   0  0  0  0  0  0  0  0  0  0  0  0
   -2.5742    5.3890  -13.3633 C   0  0  0  0  0  0  0  0  0  0  0  0
   -7.6397    4.5463  -15.3110 C   0  0  0  0  0  0  0  0  0  0  0  0
   -8.8776    4.0727  -15.8317 C   0  0  0  0  0  0  0  0  0  0  0  0
   -9.1148    3.9063  -17.1947 C   0  0  0  0  0  0  0  0  0  0  0  0
  -10.3265    3.5301  -17.6168 F   0  0  0  0  0  0  0  0  0  0  0  0
   -8.1540    4.1922  -18.1407 C   0  0  0  0  0  0  0  0  0  0  0  0
   -6.9515    4.6917  -17.6563 C   0  0  0  0  0  0  0  0  0  0  0  0
   -5.8593    5.1403  -18.3463 N   0  0  0  0  0  0  0  0  0  0  0  0
   -4.8737    5.6030  -17.5609 N   0  0  0  0  0  0  0  0  0  0  0  0
   -5.3543    5.4152  -16.3267 C   0  0  0  0  0  0  0  0  0  0  0  0
   -6.6628    4.8648  -16.3017 C   0  0  0  0  0  0  0  0  0  0  0  0
   -8.9109    1.7682   -8.6557 C   0  0  0  0  0  0  0  0  0  0  0  0
   -9.1006    2.3042   -7.2823 N   0  0  0  0  0  0  0  0  0  0  0  0
   -8.6616    3.7120   -7.3054 C   0  0  0  0  0  0  0  0  0  0  0  0
  1  2  3  0
  2  3  1  0
  3  4  2  0
  4  5  1  0
  5  6  2  0
  6  7  1  0
  7  8  2  0
  8  9  1  0
  9 10  1  0
 10 11  1  6
 10 12  1  0
 12 13  2  0
 12 14  1  0
 14 15  1  0
 15 16  1  0
 16 17  2  0
 17 18  1  0
 18 19  2  0
 19 20  1  0
 20 21  2  0
 10 22  1  0
 22 23  2  0
 23 24  1  0
 24 25  1  0
 24 26  2  0
 26 27  1  0
 27 28  1  0
 28 29  1  0
 29 30  2  0
 30 31  1  0
  6 32  1  0
 32 33  1  0
 33 34  1  0
  8  3  1  0
 21 16  1  0
 31 22  1  0
 34  5  1  0
 31 27  2  0
M  END
>  <smiles>  (1304) 
C19684-P183

>  <fragmenstein_outcome>  (1304) 
acceptable

>  <inchikey>  (1304) 
FPOWIVCDQRNFAO-UHFFFAOYSA-N

>  <fragmenstein_mode>  (1304) 
expansion

>  <HIPPO Pose ID>  (1304) 
20986

>  <Energy>  (1304) 
134.856053

>  <fragmenstein_error>  (1304) 


>  <tags>  (1304) 
{'openbind_xx01zvns2b_c1_fragmenstein', 'fragmenstein_placed'}

>  <ref_pdb>  (1304) 
175

>  <scratch_subdir>  (1304) 
/opt/xchem-fragalysis-2/maxwin/BulkDock/SCRATCH/511028/C19684-P183

>  <alias>  (1304) 
N#Cc1cc2c(cc1N[C@@](O)(C(=O)NCc1cccnc1)c1cc(F)cc3[nH]ncc13)CNC2

>  <HIPPO Compound ID>  (1304) 
19684

>  <fragmenstein_runtime>  (1304) 
9.864402

$$$$
N#Cc1cc2c(cc1NC(=O)c1cc(F)cc3c1[C@@]1(CCNC1)NN3)CNC2
     RDKit          3D

 28 32  0  0  0  0  0  0  0  0999 V2000
   -8.3208    7.7725  -11.9002 N   0  0  0  0  0  0  0  0  0  0  0  0
   -8.2139    6.6966  -11.4741 C   0  0  0  0  0  0  0  0  0  0  0  0
   -8.1991    5.3918  -10.8753 C   0  0  0  0  0  0  0  0  0  0  0  0
   -8.3388    5.3491   -9.4745 C   0  0  0  0  0  0  0  0  0  0  0  0
   -8.5745    4.1318   -8.8662 C   0  0  0  0  0  0  0  0  0  0  0  0
   -8.6768    2.9674   -9.6161 C   0  0  0  0  0  0  0  0  0  0  0  0
   -8.5099    2.9800  -10.9923 C   0  0  0  0  0  0  0  0  0  0  0  0
   -8.2319    4.1973  -11.6350 C   0  0  0  0  0  0  0  0  0  0  0  0
   -8.0164    4.1365  -13.0201 N   0  0  0  0  0  0  0  0  0  0  0  0
   -7.2564    5.1038  -13.9642 C   0  0  0  0  0  0  0  0  0  0  0  0
   -6.6289    6.0573  -13.7233 O   0  0  0  0  0  0  0  0  0  0  0  0
   -7.4426    4.7716  -15.4109 C   0  0  0  0  0  0  0  0  0  0  0  0
   -8.6828    4.2649  -15.8469 C   0  0  0  0  0  0  0  0  0  0  0  0
   -8.9133    4.0114  -17.2008 C   0  0  0  0  0  0  0  0  0  0  0  0
  -10.1101    3.5596  -17.5930 F   0  0  0  0  0  0  0  0  0  0  0  0
   -7.9387    4.2451  -18.1502 C   0  0  0  0  0  0  0  0  0  0  0  0
   -6.7372    4.7761  -17.7222 C   0  0  0  0  0  0  0  0  0  0  0  0
   -6.4690    5.0575  -16.3766 C   0  0  0  0  0  0  0  0  0  0  0  0
   -5.0692    5.6274  -16.3261 C   0  0  2  0  0  0  0  0  0  0  0  0
   -4.0961    4.9392  -15.3573 C   0  0  0  0  0  0  0  0  0  0  0  0
   -3.1813    6.0403  -14.8274 C   0  0  0  0  0  0  0  0  0  0  0  0
   -3.4162    7.2258  -15.6562 N   0  0  0  0  0  0  0  0  0  0  0  0
   -4.8611    7.1199  -15.9695 C   0  0  0  0  0  0  0  0  0  0  0  0
   -4.5553    5.5167  -17.7590 N   0  0  0  0  0  0  0  0  0  0  0  0
   -5.6133    4.9712  -18.5312 N   0  0  0  0  0  0  0  0  0  0  0  0
   -8.9548    1.8236   -8.6944 C   0  0  0  0  0  0  0  0  0  0  0  0
   -9.3867    2.4560   -7.4204 N   0  0  0  0  0  0  0  0  0  0  0  0
   -8.7877    3.8080   -7.4253 C   0  0  0  0  0  0  0  0  0  0  0  0
  1  2  3  0
  2  3  1  0
  3  4  2  0
  4  5  1  0
  5  6  2  0
  6  7  1  0
  7  8  2  0
  8  9  1  0
  9 10  1  0
 10 11  2  0
 10 12  1  0
 12 13  2  0
 13 14  1  0
 14 15  1  0
 14 16  2  0
 16 17  1  0
 17 18  2  0
 18 19  1  0
 19 20  1  1
 20 21  1  0
 21 22  1  0
 22 23  1  0
 19 24  1  0
 24 25  1  0
  6 26  1  0
 26 27  1  0
 27 28  1  0
  8  3  1  0
 18 12  1  0
 23 19  1  0
 28  5  1  0
 25 17  1  0
M  END
>  <smiles>  (1305) 
C19699-P183

>  <fragmenstein_outcome>  (1305) 
acceptable

>  <inchikey>  (1305) 
YBFUSSHSHOGGJR-UHFFFAOYSA-N

>  <fragmenstein_mode>  (1305) 
expansion

>  <HIPPO Pose ID>  (1305) 
20989

>  <Energy>  (1305) 
131.459184

>  <fragmenstein_error>  (1305) 


>  <tags>  (1305) 
{'openbind_xx01zvns2b_c1_fragmenstein', 'fragmenstein_placed'}

>  <ref_pdb>  (1305) 
175

>  <scratch_subdir>  (1305) 
/opt/xchem-fragalysis-2/maxwin/BulkDock/SCRATCH/511028/C19699-P183

>  <alias>  (1305) 
N#Cc1cc2c(cc1NC(=O)c1cc(F)cc3c1[C@@]1(CCNC1)NN3)CNC2

>  <HIPPO Compound ID>  (1305) 
29434

>  <fragmenstein_runtime>  (1305) 
5.598854

$$$$
N#Cc1cc2c(cc1N[C@@H](N=O)c1cc(F)cc3c1CNC31CCNCC1)CNC2
     RDKit          3D

 30 34  0  0  0  0  0  0  0  0999 V2000
   -8.3824    7.8392  -11.9423 N   0  0  0  0  0  0  0  0  0  0  0  0
   -8.4464    6.7927  -11.4413 C   0  0  0  0  0  0  0  0  0  0  0  0
   -8.4979    5.4909  -10.8444 C   0  0  0  0  0  0  0  0  0  0  0  0
   -8.4396    5.4269   -9.4400 C   0  0  0  0  0  0  0  0  0  0  0  0
   -8.5864    4.1988   -8.8239 C   0  0  0  0  0  0  0  0  0  0  0  0
   -8.7729    3.0464   -9.5703 C   0  0  0  0  0  0  0  0  0  0  0  0
   -8.8028    3.0830  -10.9571 C   0  0  0  0  0  0  0  0  0  0  0  0
   -8.6541    4.3148  -11.6284 C   0  0  0  0  0  0  0  0  0  0  0  0
   -8.6890    4.3046  -13.0560 N   0  0  0  0  0  0  0  0  0  0  0  0
   -7.4986    4.8615  -13.7379 C   0  0  1  0  0  0  0  0  0  0  0  0
   -6.2408    4.2648  -13.1720 N   0  0  0  0  0  0  0  0  0  0  0  0
   -5.5878    5.0716  -12.4966 O   0  0  0  0  0  0  0  0  0  0  0  0
   -7.5241    4.6855  -15.2539 C   0  0  0  0  0  0  0  0  0  0  0  0
   -8.6205    4.1431  -15.9406 C   0  0  0  0  0  0  0  0  0  0  0  0
   -8.6097    4.0360  -17.3339 C   0  0  0  0  0  0  0  0  0  0  0  0
   -9.6919    3.5305  -17.9421 F   0  0  0  0  0  0  0  0  0  0  0  0
   -7.5281    4.4819  -18.0936 C   0  0  0  0  0  0  0  0  0  0  0  0
   -6.4539    5.0708  -17.4423 C   0  0  0  0  0  0  0  0  0  0  0  0
   -6.4536    5.1494  -16.0460 C   0  0  0  0  0  0  0  0  0  0  0  0
   -5.2101    5.8585  -15.6031 C   0  0  0  0  0  0  0  0  0  0  0  0
   -4.3551    5.9936  -16.7944 N   0  0  0  0  0  0  0  0  0  0  0  0
   -5.2311    5.7815  -17.9856 C   0  0  0  0  0  0  0  0  0  0  0  0
   -5.6140    7.1595  -18.5497 C   0  0  0  0  0  0  0  0  0  0  0  0
   -4.4479    7.8920  -19.2104 C   0  0  0  0  0  0  0  0  0  0  0  0
   -3.8124    7.0793  -20.2475 N   0  0  0  0  0  0  0  0  0  0  0  0
   -3.3119    5.8392  -19.6566 C   0  0  0  0  0  0  0  0  0  0  0  0
   -4.4484    5.0135  -19.0511 C   0  0  0  0  0  0  0  0  0  0  0  0
   -8.9101    1.8775   -8.6523 C   0  0  0  0  0  0  0  0  0  0  0  0
   -9.0238    2.4501   -7.2853 N   0  0  0  0  0  0  0  0  0  0  0  0
   -8.6025    3.8628   -7.3725 C   0  0  0  0  0  0  0  0  0  0  0  0
  1  2  3  0
  2  3  1  0
  3  4  2  0
  4  5  1  0
  5  6  2  0
  6  7  1  0
  7  8  2  0
  8  9  1  0
 10  9  1  1
 10 11  1  0
 11 12  2  0
 10 13  1  0
 13 14  2  0
 14 15  1  0
 15 16  1  0
 15 17  2  0
 17 18  1  0
 18 19  2  0
 19 20  1  0
 20 21  1  0
 21 22  1  0
 22 23  1  0
 23 24  1  0
 24 25  1  0
 25 26  1  0
 26 27  1  0
  6 28  1  0
 28 29  1  0
 29 30  1  0
  8  3  1  0
 19 13  1  0
 27 22  1  0
 30  5  1  0
 22 18  1  0
M  END
>  <smiles>  (1306) 
C19708-P183

>  <fragmenstein_outcome>  (1306) 
acceptable

>  <inchikey>  (1306) 
CWZSWMHXROPZLQ-UHFFFAOYSA-N

>  <fragmenstein_mode>  (1306) 
expansion

>  <HIPPO Pose ID>  (1306) 
20990

>  <Energy>  (1306) 
76.835226

>  <fragmenstein_error>  (1306) 


>  <tags>  (1306) 
{'openbind_xx01zvns2b_c1_fragmenstein', 'fragmenstein_placed'}

>  <ref_pdb>  (1306) 
175

>  <scratch_subdir>  (1306) 
/opt/xchem-fragalysis-2/maxwin/BulkDock/SCRATCH/511028/C19708-P183

>  <alias>  (1306) 
N#Cc1cc2c(cc1N[C@@H](N=O)c1cc(F)cc3c1CNC31CCNCC1)CNC2

>  <HIPPO Compound ID>  (1306) 
19708

>  <fragmenstein_runtime>  (1306) 
5.902272

$$$$
N#Cc1cc2c(cc1N[C@@H]1N=Cc3c(F)cc4c(c31)C=N[N@H+]4[O-])[C@H](N)NC2
     RDKit          3D

 27 31  0  0  0  0  0  0  0  0999 V2000
   -7.8532    7.9704  -12.0730 N   0  0  0  0  0  0  0  0  0  0  0  0
   -7.9165    6.9268  -11.5653 C   0  0  0  0  0  0  0  0  0  0  0  0
   -8.0205    5.6467  -10.9362 C   0  0  0  0  0  0  0  0  0  0  0  0
   -8.3221    5.6701   -9.5588 C   0  0  0  0  0  0  0  0  0  0  0  0
   -8.4512    4.4764   -8.8857 C   0  0  0  0  0  0  0  0  0  0  0  0
   -8.3291    3.2728   -9.5576 C   0  0  0  0  0  0  0  0  0  0  0  0
   -7.9853    3.2258  -10.9059 C   0  0  0  0  0  0  0  0  0  0  0  0
   -7.8034    4.4234  -11.6314 C   0  0  0  0  0  0  0  0  0  0  0  0
   -7.2800    4.3176  -12.9571 N   0  0  0  0  0  0  0  0  0  0  0  0
   -7.9477    5.0718  -13.9975 C   0  0  2  0  0  0  0  0  0  0  0  0
   -9.3783    4.6978  -14.0729 N   0  0  0  0  0  0  0  0  0  0  0  0
   -9.5183    4.1268  -15.2275 C   0  0  0  0  0  0  0  0  0  0  0  0
   -8.4049    4.1926  -16.1058 C   0  0  0  0  0  0  0  0  0  0  0  0
   -8.3827    3.9616  -17.4696 C   0  0  0  0  0  0  0  0  0  0  0  0
   -9.4666    3.4802  -18.0900 F   0  0  0  0  0  0  0  0  0  0  0  0
   -7.2474    4.3365  -18.1715 C   0  0  0  0  0  0  0  0  0  0  0  0
   -6.2169    4.9393  -17.4474 C   0  0  0  0  0  0  0  0  0  0  0  0
   -6.3046    5.1483  -16.0699 C   0  0  0  0  0  0  0  0  0  0  0  0
   -7.4072    4.7793  -15.3616 C   0  0  0  0  0  0  0  0  0  0  0  0
   -5.1837    5.9911  -15.7372 C   0  0  0  0  0  0  0  0  0  0  0  0
   -4.4634    6.3396  -16.7601 N   0  0  0  0  0  0  0  0  0  0  0  0
   -5.0021    5.5770  -17.9688 N   0  0  1  0  0  0  0  0  0  0  0  0
   -4.0718    4.6604  -18.2622 O   0  0  0  0  0  0  0  0  0  0  0  0
   -8.5825    2.1624   -8.5930 C   0  0  2  0  0  0  0  0  0  0  0  0
   -9.6840    1.3591   -8.9857 N   0  0  0  0  0  0  0  0  0  0  0  0
   -9.0249    2.7817   -7.3439 N   0  0  0  0  0  0  0  0  0  0  0  0
   -8.6801    4.2105   -7.4388 C   0  0  0  0  0  0  0  0  0  0  0  0
  1  2  3  0
  2  3  1  0
  3  4  2  0
  4  5  1  0
  5  6  2  0
  6  7  1  0
  7  8  2  0
  8  9  1  0
 10  9  1  1
 10 11  1  0
 11 12  2  0
 12 13  1  0
 13 14  2  0
 14 15  1  0
 14 16  1  0
 16 17  2  0
 17 18  1  0
 18 19  2  0
 18 20  1  0
 20 21  2  0
 21 22  1  0
 22 23  1  1
  6 24  1  0
 24 25  1  6
 24 26  1  0
 26 27  1  0
  8  3  1  0
 19 10  1  0
 27  5  1  0
 19 13  1  0
 22 17  1  0
M  CHG  2  22   1  23  -1
M  END
>  <smiles>  (1307) 
C19717-P183

>  <fragmenstein_outcome>  (1307) 
acceptable

>  <inchikey>  (1307) 
SMXGEHKLOASONW-UHFFFAOYSA-N

>  <fragmenstein_mode>  (1307) 
expansion

>  <HIPPO Pose ID>  (1307) 
20993

>  <Energy>  (1307) 
-31.673646

>  <fragmenstein_error>  (1307) 


>  <tags>  (1307) 
{'openbind_xx01zvns2b_c1_fragmenstein', 'fragmenstein_placed'}

>  <ref_pdb>  (1307) 
175

>  <scratch_subdir>  (1307) 
/opt/xchem-fragalysis-2/maxwin/BulkDock/SCRATCH/511028/C19717-P183

>  <alias>  (1307) 
N#Cc1cc2c(cc1N[C@@H]1N=Cc3c(F)cc4c(c31)C=N[N@H+]4[O-])[C@H](N)NC2

>  <HIPPO Compound ID>  (1307) 
19717

>  <fragmenstein_runtime>  (1307) 
3.134511

$$$$
CCc1n[nH]c2cc(F)cc([C@](O)(Nc3cc4c(cc3C#N)CNC4)C(=O)NCC(F)F)c12
     RDKit          3D

 33 36  0  0  0  0  0  0  0  0999 V2000
   -2.9512    6.2269  -15.2544 C   0  0  0  0  0  0  0  0  0  0  0  0
   -3.8477    5.0102  -15.3520 C   0  0  0  0  0  0  0  0  0  0  0  0
   -4.9598    5.1468  -16.3324 C   0  0  0  0  0  0  0  0  0  0  0  0
   -4.6118    5.4004  -17.6050 N   0  0  0  0  0  0  0  0  0  0  0  0
   -5.7368    5.1967  -18.2913 N   0  0  0  0  0  0  0  0  0  0  0  0
   -6.7987    4.8399  -17.5129 C   0  0  0  0  0  0  0  0  0  0  0  0
   -8.0617    4.4399  -17.9295 C   0  0  0  0  0  0  0  0  0  0  0  0
   -8.9609    4.1444  -16.9361 C   0  0  0  0  0  0  0  0  0  0  0  0
  -10.1995    3.7784  -17.2849 F   0  0  0  0  0  0  0  0  0  0  0  0
   -8.6228    4.2807  -15.5925 C   0  0  0  0  0  0  0  0  0  0  0  0
   -7.3164    4.6621  -15.1228 C   0  0  0  0  0  0  0  0  0  0  0  0
   -7.0425    4.7012  -13.5775 C   0  0  2  0  0  0  0  0  0  0  0  0
   -6.2777    3.5642  -13.2598 O   0  0  0  0  0  0  0  0  0  0  0  0
   -8.3347    4.5489  -12.8509 N   0  0  0  0  0  0  0  0  0  0  0  0
   -8.3647    4.4379  -11.4392 C   0  0  0  0  0  0  0  0  0  0  0  0
   -8.4153    3.1544  -10.8569 C   0  0  0  0  0  0  0  0  0  0  0  0
   -8.5494    3.0338   -9.4813 C   0  0  0  0  0  0  0  0  0  0  0  0
   -8.5421    4.1473   -8.6574 C   0  0  0  0  0  0  0  0  0  0  0  0
   -8.4613    5.4194   -9.1878 C   0  0  0  0  0  0  0  0  0  0  0  0
   -8.4304    5.5633  -10.5855 C   0  0  0  0  0  0  0  0  0  0  0  0
   -8.6556    6.8752  -11.1088 C   0  0  0  0  0  0  0  0  0  0  0  0
   -8.8922    7.9415  -11.5040 N   0  0  0  0  0  0  0  0  0  0  0  0
   -8.6968    3.7241   -7.2376 C   0  0  0  0  0  0  0  0  0  0  0  0
   -9.0235    2.2860   -7.2732 N   0  0  0  0  0  0  0  0  0  0  0  0
   -8.7604    1.8075   -8.6563 C   0  0  0  0  0  0  0  0  0  0  0  0
   -6.1848    5.9769  -13.0742 C   0  0  0  0  0  0  0  0  0  0  0  0
   -5.1993    5.8313  -12.4631 O   0  0  0  0  0  0  0  0  0  0  0  0
   -6.8796    7.2657  -13.5573 N   0  0  0  0  0  0  0  0  0  0  0  0
   -6.5593    8.6610  -13.3089 C   0  0  0  0  0  0  0  0  0  0  0  0
   -5.3730    9.1977  -14.0947 C   0  0  0  0  0  0  0  0  0  0  0  0
   -5.2006   10.5161  -13.8135 F   0  0  0  0  0  0  0  0  0  0  0  0
   -5.6299    9.1266  -15.4278 F   0  0  0  0  0  0  0  0  0  0  0  0
   -6.3719    4.9098  -16.1783 C   0  0  0  0  0  0  0  0  0  0  0  0
  1  2  1  0
  2  3  1  0
  3  4  2  0
  4  5  1  0
  5  6  1  0
  6  7  2  0
  7  8  1  0
  8  9  1  0
  8 10  2  0
 10 11  1  0
 11 12  1  0
 12 13  1  1
 12 14  1  0
 14 15  1  0
 15 16  2  0
 16 17  1  0
 17 18  2  0
 18 19  1  0
 19 20  2  0
 20 21  1  0
 21 22  3  0
 18 23  1  0
 23 24  1  0
 24 25  1  0
 12 26  1  0
 26 27  2  0
 26 28  1  0
 28 29  1  0
 29 30  1  0
 30 31  1  0
 30 32  1  0
 11 33  2  0
 33  3  1  0
 33  6  1  0
 20 15  1  0
 25 17  1  0
M  END
>  <smiles>  (1308) 
C19718-P183

>  <fragmenstein_outcome>  (1308) 
acceptable

>  <inchikey>  (1308) 
VWGQDLLXKGNSLD-UHFFFAOYSA-N

>  <fragmenstein_mode>  (1308) 
expansion

>  <HIPPO Pose ID>  (1308) 
20995

>  <Energy>  (1308) 
162.577367

>  <fragmenstein_error>  (1308) 


>  <tags>  (1308) 
{'openbind_xx01zvns2b_c1_fragmenstein', 'fragmenstein_placed'}

>  <ref_pdb>  (1308) 
175

>  <scratch_subdir>  (1308) 
/opt/xchem-fragalysis-2/maxwin/BulkDock/SCRATCH/511028/C19718-P183

>  <alias>  (1308) 
CCc1n[nH]c2cc(F)cc([C@](O)(Nc3cc4c(cc3C#N)CNC4)C(=O)NCC(F)F)c12

>  <HIPPO Compound ID>  (1308) 
19718

>  <fragmenstein_runtime>  (1308) 
4.321611

$$$$
Cn1c2cc(F)cc(C(=O)Nc3cc4c(cc3C#N)CNC4)c2c(OCCCO)[n+]1[O-]
     RDKit          3D

 31 34  0  0  0  0  0  0  0  0999 V2000
   -5.3979    5.1280  -19.7515 C   0  0  0  0  0  0  0  0  0  0  0  0
   -5.6157    5.0129  -18.3386 N   0  0  0  0  0  0  0  0  0  0  0  0
   -6.7855    4.6724  -17.6986 C   0  0  0  0  0  0  0  0  0  0  0  0
   -8.0198    4.2232  -18.1737 C   0  0  0  0  0  0  0  0  0  0  0  0
   -9.0159    3.9807  -17.2370 C   0  0  0  0  0  0  0  0  0  0  0  0
  -10.2187    3.5860  -17.6699 F   0  0  0  0  0  0  0  0  0  0  0  0
   -8.8219    4.1943  -15.8796 C   0  0  0  0  0  0  0  0  0  0  0  0
   -7.5857    4.6590  -15.4043 C   0  0  0  0  0  0  0  0  0  0  0  0
   -7.4573    5.0896  -13.9828 C   0  0  0  0  0  0  0  0  0  0  0  0
   -6.9218    6.1067  -13.7830 O   0  0  0  0  0  0  0  0  0  0  0  0
   -8.1091    4.0890  -12.9983 N   0  0  0  0  0  0  0  0  0  0  0  0
   -8.3147    4.1764  -11.6120 C   0  0  0  0  0  0  0  0  0  0  0  0
   -8.5657    2.9591  -10.9557 C   0  0  0  0  0  0  0  0  0  0  0  0
   -8.7122    2.9493   -9.5778 C   0  0  0  0  0  0  0  0  0  0  0  0
   -8.6080    4.1163   -8.8343 C   0  0  0  0  0  0  0  0  0  0  0  0
   -8.3886    5.3317   -9.4514 C   0  0  0  0  0  0  0  0  0  0  0  0
   -8.2739    5.3733  -10.8559 C   0  0  0  0  0  0  0  0  0  0  0  0
   -8.2798    6.6844  -11.4404 C   0  0  0  0  0  0  0  0  0  0  0  0
   -8.3688    7.7763  -11.8286 N   0  0  0  0  0  0  0  0  0  0  0  0
   -8.7992    3.7963   -7.3897 C   0  0  0  0  0  0  0  0  0  0  0  0
   -9.3896    2.4405   -7.3730 N   0  0  0  0  0  0  0  0  0  0  0  0
   -8.9671    1.8063   -8.6493 C   0  0  0  0  0  0  0  0  0  0  0  0
   -6.5132    4.8776  -16.3172 C   0  0  0  0  0  0  0  0  0  0  0  0
   -5.1063    5.2812  -16.1540 C   0  0  0  0  0  0  0  0  0  0  0  0
   -4.5032    5.4852  -14.9625 O   0  0  0  0  0  0  0  0  0  0  0  0
   -3.2792    6.2106  -14.9795 C   0  0  0  0  0  0  0  0  0  0  0  0
   -3.4175    7.6805  -15.3784 C   0  0  0  0  0  0  0  0  0  0  0  0
   -4.5364    8.4096  -14.6480 C   0  0  0  0  0  0  0  0  0  0  0  0
   -4.5121    9.7836  -15.0334 O   0  0  0  0  0  0  0  0  0  0  0  0
   -4.5702    5.3231  -17.3917 N   0  0  0  0  0  0  0  0  0  0  0  0
   -3.3970    5.5167  -17.8073 O   0  0  0  0  0  0  0  0  0  0  0  0
  1  2  1  0
  2  3  1  0
  3  4  2  0
  4  5  1  0
  5  6  1  0
  5  7  2  0
  7  8  1  0
  8  9  1  0
  9 10  2  0
  9 11  1  0
 11 12  1  0
 12 13  2  0
 13 14  1  0
 14 15  2  0
 15 16  1  0
 16 17  2  0
 17 18  1  0
 18 19  3  0
 15 20  1  0
 20 21  1  0
 21 22  1  0
  8 23  2  0
 23 24  1  0
 24 25  1  0
 25 26  1  0
 26 27  1  0
 27 28  1  0
 28 29  1  0
 24 30  2  0
 30 31  1  0
 30  2  1  0
 23  3  1  0
 17 12  1  0
 22 14  1  0
M  CHG  2  30   1  31  -1
M  END
>  <smiles>  (1309) 
C19723-P183

>  <fragmenstein_outcome>  (1309) 
acceptable

>  <inchikey>  (1309) 
OLDNKJIJGGIERX-UHFFFAOYSA-N

>  <fragmenstein_mode>  (1309) 
expansion

>  <HIPPO Pose ID>  (1309) 
20997

>  <Energy>  (1309) 
99.553189

>  <fragmenstein_error>  (1309) 


>  <tags>  (1309) 
{'openbind_xx01zvns2b_c1_fragmenstein', 'fragmenstein_placed'}

>  <ref_pdb>  (1309) 
175

>  <scratch_subdir>  (1309) 
/opt/xchem-fragalysis-2/maxwin/BulkDock/SCRATCH/511028/C19723-P183

>  <alias>  (1309) 
Cn1c2cc(F)cc(C(=O)Nc3cc4c(cc3C#N)CNC4)c2c(OCCCO)[n+]1[O-]

>  <HIPPO Compound ID>  (1309) 
32644

>  <fragmenstein_runtime>  (1309) 
6.179803

$$$$
Cc1c2c(C(=O)Nc3cc4c(cc3C#N)CNC4)cc(F)cc2n(OC(C)C)[n+]1[O-]
     RDKit          3D

 30 33  0  0  0  0  0  0  0  0999 V2000
   -4.4697    5.6391  -14.4003 C   0  0  0  0  0  0  0  0  0  0  0  0
   -5.1006    5.3437  -15.6978 C   0  0  0  0  0  0  0  0  0  0  0  0
   -6.4578    4.9347  -16.0744 C   0  0  0  0  0  0  0  0  0  0  0  0
   -7.6431    4.7027  -15.3212 C   0  0  0  0  0  0  0  0  0  0  0  0
   -7.6929    5.1776  -13.9201 C   0  0  0  0  0  0  0  0  0  0  0  0
   -7.2958    6.2585  -13.7376 O   0  0  0  0  0  0  0  0  0  0  0  0
   -8.2949    4.1532  -12.9348 N   0  0  0  0  0  0  0  0  0  0  0  0
   -8.4428    4.2077  -11.5386 C   0  0  0  0  0  0  0  0  0  0  0  0
   -8.6709    2.9746  -10.9041 C   0  0  0  0  0  0  0  0  0  0  0  0
   -8.7695    2.9315   -9.5225 C   0  0  0  0  0  0  0  0  0  0  0  0
   -8.6389    4.0792   -8.7536 C   0  0  0  0  0  0  0  0  0  0  0  0
   -8.4254    5.3068   -9.3458 C   0  0  0  0  0  0  0  0  0  0  0  0
   -8.3583    5.3843  -10.7518 C   0  0  0  0  0  0  0  0  0  0  0  0
   -8.3584    6.7152  -11.2899 C   0  0  0  0  0  0  0  0  0  0  0  0
   -8.4289    7.8250  -11.6281 N   0  0  0  0  0  0  0  0  0  0  0  0
   -8.8054    3.7287   -7.3129 C   0  0  0  0  0  0  0  0  0  0  0  0
   -9.3975    2.3738   -7.3167 N   0  0  0  0  0  0  0  0  0  0  0  0
   -8.9976    1.7681   -8.6131 C   0  0  0  0  0  0  0  0  0  0  0  0
   -8.7928    4.2074  -15.9433 C   0  0  0  0  0  0  0  0  0  0  0  0
   -8.7965    3.9892  -17.3140 C   0  0  0  0  0  0  0  0  0  0  0  0
   -9.9241    3.5483  -17.8862 F   0  0  0  0  0  0  0  0  0  0  0  0
   -7.6841    4.2537  -18.1147 C   0  0  0  0  0  0  0  0  0  0  0  0
   -6.5265    4.7239  -17.4818 C   0  0  0  0  0  0  0  0  0  0  0  0
   -5.2623    5.0433  -17.9492 N   0  0  0  0  0  0  0  0  0  0  0  0
   -4.8098    4.7950  -19.2599 O   0  0  0  0  0  0  0  0  0  0  0  0
   -4.3258    5.9625  -19.9389 C   0  0  0  0  0  0  0  0  0  0  0  0
   -2.8058    5.8807  -20.1019 C   0  0  0  0  0  0  0  0  0  0  0  0
   -4.7820    7.3270  -19.4213 C   0  0  0  0  0  0  0  0  0  0  0  0
   -4.3782    5.3854  -16.8285 N   0  0  0  0  0  0  0  0  0  0  0  0
   -3.1659    5.6448  -17.0170 O   0  0  0  0  0  0  0  0  0  0  0  0
  1  2  1  0
  2  3  1  0
  3  4  2  0
  4  5  1  0
  5  6  2  0
  5  7  1  0
  7  8  1  0
  8  9  2  0
  9 10  1  0
 10 11  2  0
 11 12  1  0
 12 13  2  0
 13 14  1  0
 14 15  3  0
 11 16  1  0
 16 17  1  0
 17 18  1  0
  4 19  1  0
 19 20  2  0
 20 21  1  0
 20 22  1  0
 22 23  2  0
 23 24  1  0
 24 25  1  0
 25 26  1  0
 26 27  1  0
 26 28  1  0
 24 29  1  0
 29 30  1  0
 29  2  2  0
 23  3  1  0
 13  8  1  0
 18 10  1  0
M  CHG  2  29   1  30  -1
M  END
>  <smiles>  (1310) 
C19730-P183

>  <fragmenstein_outcome>  (1310) 
acceptable

>  <inchikey>  (1310) 
MARNFAZJHJZYHY-UHFFFAOYSA-N

>  <fragmenstein_mode>  (1310) 
expansion

>  <HIPPO Pose ID>  (1310) 
20998

>  <Energy>  (1310) 
112.469801

>  <fragmenstein_error>  (1310) 


>  <tags>  (1310) 
{'openbind_xx01zvns2b_c1_fragmenstein', 'fragmenstein_placed'}

>  <ref_pdb>  (1310) 
175

>  <scratch_subdir>  (1310) 
/opt/xchem-fragalysis-2/maxwin/BulkDock/SCRATCH/511028/C19730-P183

>  <alias>  (1310) 
Cc1c2c(C(=O)Nc3cc4c(cc3C#N)CNC4)cc(F)cc2n(OC(C)C)[n+]1[O-]

>  <HIPPO Compound ID>  (1310) 
19730

>  <fragmenstein_runtime>  (1310) 
8.243778

$$$$
N#Cc1cc2c(cc1NC(=O)c1cc(F)cc3c1cnn3C#N)CNC2
     RDKit          3D

 26 29  0  0  0  0  0  0  0  0999 V2000
   -8.4269    7.7444  -11.7199 N   0  0  0  0  0  0  0  0  0  0  0  0
   -8.3568    6.6599  -11.3076 C   0  0  0  0  0  0  0  0  0  0  0  0
   -8.3643    5.3465  -10.7250 C   0  0  0  0  0  0  0  0  0  0  0  0
   -8.4122    5.2893   -9.3201 C   0  0  0  0  0  0  0  0  0  0  0  0
   -8.6403    4.0694   -8.7151 C   0  0  0  0  0  0  0  0  0  0  0  0
   -8.8032    2.9145   -9.4709 C   0  0  0  0  0  0  0  0  0  0  0  0
   -8.7337    2.9398  -10.8539 C   0  0  0  0  0  0  0  0  0  0  0  0
   -8.4902    4.1620  -11.4950 C   0  0  0  0  0  0  0  0  0  0  0  0
   -8.3791    4.1317  -12.8916 N   0  0  0  0  0  0  0  0  0  0  0  0
   -7.5958    5.0496  -13.8558 C   0  0  0  0  0  0  0  0  0  0  0  0
   -6.9830    6.0199  -13.6455 O   0  0  0  0  0  0  0  0  0  0  0  0
   -7.6946    4.6501  -15.2852 C   0  0  0  0  0  0  0  0  0  0  0  0
   -8.8558    4.1180  -15.8536 C   0  0  0  0  0  0  0  0  0  0  0  0
   -8.9360    3.9349  -17.2309 C   0  0  0  0  0  0  0  0  0  0  0  0
  -10.0772    3.4737  -17.7555 F   0  0  0  0  0  0  0  0  0  0  0  0
   -7.8900    4.2626  -18.0929 C   0  0  0  0  0  0  0  0  0  0  0  0
   -6.7340    4.8045  -17.5156 C   0  0  0  0  0  0  0  0  0  0  0  0
   -6.6179    4.9868  -16.1378 C   0  0  0  0  0  0  0  0  0  0  0  0
   -5.3336    5.5454  -15.9596 C   0  0  0  0  0  0  0  0  0  0  0  0
   -4.6788    5.7111  -17.1042 N   0  0  0  0  0  0  0  0  0  0  0  0
   -5.5465    5.2700  -18.0497 N   0  0  0  0  0  0  0  0  0  0  0  0
   -5.1703    5.2714  -19.4818 C   0  0  0  0  0  0  0  0  0  0  0  0
   -4.7344    5.2357  -20.5591 N   0  0  0  0  0  0  0  0  0  0  0  0
   -9.0264    1.7628   -8.5461 C   0  0  0  0  0  0  0  0  0  0  0  0
   -9.4028    2.3864   -7.2519 N   0  0  0  0  0  0  0  0  0  0  0  0
   -8.7943    3.7344   -7.2689 C   0  0  0  0  0  0  0  0  0  0  0  0
  1  2  3  0
  2  3  1  0
  3  4  2  0
  4  5  1  0
  5  6  2  0
  6  7  1  0
  7  8  2  0
  8  9  1  0
  9 10  1  0
 10 11  2  0
 10 12  1  0
 12 13  2  0
 13 14  1  0
 14 15  1  0
 14 16  2  0
 16 17  1  0
 17 18  2  0
 18 19  1  0
 19 20  2  0
 20 21  1  0
 21 22  1  0
 22 23  3  0
  6 24  1  0
 24 25  1  0
 25 26  1  0
  8  3  1  0
 18 12  1  0
 26  5  1  0
 21 17  1  0
M  END
>  <smiles>  (1311) 
C19732-P183

>  <fragmenstein_outcome>  (1311) 
acceptable

>  <inchikey>  (1311) 
CKBLDNAAHYQSGQ-UHFFFAOYSA-N

>  <fragmenstein_mode>  (1311) 
expansion

>  <HIPPO Pose ID>  (1311) 
21000

>  <Energy>  (1311) 
111.563446

>  <fragmenstein_error>  (1311) 


>  <tags>  (1311) 
{'openbind_xx01zvns2b_c1_fragmenstein', 'fragmenstein_placed'}

>  <ref_pdb>  (1311) 
175

>  <scratch_subdir>  (1311) 
/opt/xchem-fragalysis-2/maxwin/BulkDock/SCRATCH/511028/C19732-P183

>  <alias>  (1311) 
N#Cc1cc2c(cc1NC(=O)c1cc(F)cc3c1cnn3C#N)CNC2

>  <HIPPO Compound ID>  (1311) 
19732

>  <fragmenstein_runtime>  (1311) 
2.452471

$$$$
N#Cc1cc2c(cc1NC(=O)c1cc(F)c3[nH]c(=O)n4ncc1c34)CNC2
     RDKit          3D

 27 31  0  0  0  0  0  0  0  0999 V2000
   -8.4034    7.7305  -11.6570 N   0  0  0  0  0  0  0  0  0  0  0  0
   -8.3229    6.6603  -11.2105 C   0  0  0  0  0  0  0  0  0  0  0  0
   -8.3305    5.3539  -10.6117 C   0  0  0  0  0  0  0  0  0  0  0  0
   -8.4240    5.2975   -9.2105 C   0  0  0  0  0  0  0  0  0  0  0  0
   -8.6639    4.0745   -8.6132 C   0  0  0  0  0  0  0  0  0  0  0  0
   -8.8072    2.9195   -9.3737 C   0  0  0  0  0  0  0  0  0  0  0  0
   -8.6939    2.9448  -10.7515 C   0  0  0  0  0  0  0  0  0  0  0  0
   -8.4203    4.1669  -11.3787 C   0  0  0  0  0  0  0  0  0  0  0  0
   -8.2216    4.1203  -12.7601 N   0  0  0  0  0  0  0  0  0  0  0  0
   -7.4324    5.0648  -13.6922 C   0  0  0  0  0  0  0  0  0  0  0  0
   -6.7613    5.9859  -13.4431 O   0  0  0  0  0  0  0  0  0  0  0  0
   -7.5608    4.7107  -15.1176 C   0  0  0  0  0  0  0  0  0  0  0  0
   -8.7644    4.2014  -15.7230 C   0  0  0  0  0  0  0  0  0  0  0  0
   -8.8621    3.9460  -17.1151 C   0  0  0  0  0  0  0  0  0  0  0  0
  -10.0091    3.5125  -17.6459 F   0  0  0  0  0  0  0  0  0  0  0  0
   -7.7625    4.1695  -17.8952 C   0  0  0  0  0  0  0  0  0  0  0  0
   -7.2994    4.0724  -19.2122 N   0  0  0  0  0  0  0  0  0  0  0  0
   -5.9594    4.5822  -19.3382 C   0  0  0  0  0  0  0  0  0  0  0  0
   -5.1952    4.6868  -20.2815 O   0  0  0  0  0  0  0  0  0  0  0  0
   -5.6473    4.9403  -18.0175 N   0  0  0  0  0  0  0  0  0  0  0  0
   -4.6190    5.4532  -17.3187 N   0  0  0  0  0  0  0  0  0  0  0  0
   -5.1362    5.4796  -16.0534 C   0  0  0  0  0  0  0  0  0  0  0  0
   -6.4733    4.9819  -15.9645 C   0  0  0  0  0  0  0  0  0  0  0  0
   -6.7002    4.6789  -17.2483 C   0  0  0  0  0  0  0  0  0  0  0  0
   -9.0511    1.7647   -8.4593 C   0  0  0  0  0  0  0  0  0  0  0  0
   -9.4559    2.3849   -7.1724 N   0  0  0  0  0  0  0  0  0  0  0  0
   -8.8455    3.7326   -7.1718 C   0  0  0  0  0  0  0  0  0  0  0  0
  1  2  3  0
  2  3  1  0
  3  4  2  0
  4  5  1  0
  5  6  2  0
  6  7  1  0
  7  8  2  0
  8  9  1  0
  9 10  1  0
 10 11  2  0
 10 12  1  0
 12 13  2  0
 13 14  1  0
 14 15  1  0
 14 16  2  0
 16 17  1  0
 17 18  1  0
 18 19  2  0
 18 20  1  0
 20 21  1  0
 21 22  2  0
 22 23  1  0
 23 24  2  0
  6 25  1  0
 25 26  1  0
 26 27  1  0
  8  3  1  0
 23 12  1  0
 27  5  1  0
 24 16  1  0
 24 20  1  0
M  END
>  <smiles>  (1312) 
C19738-P183

>  <fragmenstein_outcome>  (1312) 
acceptable

>  <inchikey>  (1312) 
VBJMVLPDNOYOTD-UHFFFAOYSA-N

>  <fragmenstein_mode>  (1312) 
expansion

>  <HIPPO Pose ID>  (1312) 
21001

>  <Energy>  (1312) 
164.327981

>  <fragmenstein_error>  (1312) 


>  <tags>  (1312) 
{'openbind_xx01zvns2b_c1_fragmenstein', 'fragmenstein_placed'}

>  <ref_pdb>  (1312) 
175

>  <scratch_subdir>  (1312) 
/opt/xchem-fragalysis-2/maxwin/BulkDock/SCRATCH/511028/C19738-P183

>  <alias>  (1312) 
N#Cc1cc2c(cc1NC(=O)c1cc(F)c3[nH]c(=O)n4ncc1c34)CNC2

>  <HIPPO Compound ID>  (1312) 
36433

>  <fragmenstein_runtime>  (1312) 
2.135131

$$$$
CN(C)Cn1cc2c(C(=O)Nc3cc4c(cc3C#N)CNC4)cc(F)cc2n1
     RDKit          3D

 28 31  0  0  0  0  0  0  0  0999 V2000
   -5.0502    7.4864  -19.3144 C   0  0  0  0  0  0  0  0  0  0  0  0
   -4.0997    7.3876  -18.1985 N   0  0  0  0  0  0  0  0  0  0  0  0
   -2.8576    8.0808  -18.5405 C   0  0  0  0  0  0  0  0  0  0  0  0
   -3.7912    5.9782  -17.8761 C   0  0  0  0  0  0  0  0  0  0  0  0
   -5.0163    5.3139  -17.4518 N   0  0  0  0  0  0  0  0  0  0  0  0
   -5.5235    5.2749  -16.1885 C   0  0  0  0  0  0  0  0  0  0  0  0
   -6.7875    4.7678  -16.3344 C   0  0  0  0  0  0  0  0  0  0  0  0
   -7.7520    4.5909  -15.3375 C   0  0  0  0  0  0  0  0  0  0  0  0
   -7.5681    5.0015  -13.9269 C   0  0  0  0  0  0  0  0  0  0  0  0
   -6.9139    5.9482  -13.7318 O   0  0  0  0  0  0  0  0  0  0  0  0
   -8.2978    4.0645  -12.9338 N   0  0  0  0  0  0  0  0  0  0  0  0
   -8.4471    4.1511  -11.5424 C   0  0  0  0  0  0  0  0  0  0  0  0
   -8.7045    2.9459  -10.8710 C   0  0  0  0  0  0  0  0  0  0  0  0
   -8.7634    2.9436   -9.4854 C   0  0  0  0  0  0  0  0  0  0  0  0
   -8.5843    4.1083   -8.7551 C   0  0  0  0  0  0  0  0  0  0  0  0
   -8.3696    5.3169   -9.3905 C   0  0  0  0  0  0  0  0  0  0  0  0
   -8.3235    5.3487  -10.7979 C   0  0  0  0  0  0  0  0  0  0  0  0
   -8.3118    6.6516  -11.4020 C   0  0  0  0  0  0  0  0  0  0  0  0
   -8.3812    7.7343  -11.8191 N   0  0  0  0  0  0  0  0  0  0  0  0
   -8.6871    3.8070   -7.2988 C   0  0  0  0  0  0  0  0  0  0  0  0
   -9.1590    2.4106   -7.2072 N   0  0  0  0  0  0  0  0  0  0  0  0
   -8.9702    1.8008   -8.5479 C   0  0  0  0  0  0  0  0  0  0  0  0
   -8.9612    4.1200  -15.8840 C   0  0  0  0  0  0  0  0  0  0  0  0
   -9.1525    3.8787  -17.2784 C   0  0  0  0  0  0  0  0  0  0  0  0
  -10.3764    3.5215  -17.6882 F   0  0  0  0  0  0  0  0  0  0  0  0
   -8.1672    4.0286  -18.2598 C   0  0  0  0  0  0  0  0  0  0  0  0
   -6.9538    4.4887  -17.7435 C   0  0  0  0  0  0  0  0  0  0  0  0
   -5.8042    4.7415  -18.3848 N   0  0  0  0  0  0  0  0  0  0  0  0
  1  2  1  0
  2  3  1  0
  2  4  1  0
  4  5  1  0
  5  6  1  0
  6  7  2  0
  7  8  1  0
  8  9  1  0
  9 10  2  0
  9 11  1  0
 11 12  1  0
 12 13  2  0
 13 14  1  0
 14 15  2  0
 15 16  1  0
 16 17  2  0
 17 18  1  0
 18 19  3  0
 15 20  1  0
 20 21  1  0
 21 22  1  0
  8 23  2  0
 23 24  1  0
 24 25  1  0
 24 26  2  0
 26 27  1  0
 27 28  2  0
 28  5  1  0
 27  7  1  0
 17 12  1  0
 22 14  1  0
M  END
>  <smiles>  (1313) 
C19758-P183

>  <fragmenstein_outcome>  (1313) 
acceptable

>  <inchikey>  (1313) 
DFMCTMSODAGTRA-UHFFFAOYSA-N

>  <fragmenstein_mode>  (1313) 
expansion

>  <HIPPO Pose ID>  (1313) 
21005

>  <Energy>  (1313) 
105.74423

>  <fragmenstein_error>  (1313) 


>  <tags>  (1313) 
{'openbind_xx01zvns2b_c1_fragmenstein', 'fragmenstein_placed'}

>  <ref_pdb>  (1313) 
175

>  <scratch_subdir>  (1313) 
/opt/xchem-fragalysis-2/maxwin/BulkDock/SCRATCH/511028/C19758-P183

>  <alias>  (1313) 
CN(C)Cn1cc2c(C(=O)Nc3cc4c(cc3C#N)CNC4)cc(F)cc2n1

>  <HIPPO Compound ID>  (1313) 
26540

>  <fragmenstein_runtime>  (1313) 
4.316851

$$$$
CNCn1ncc2c(C(=O)Nc3cc4c(c(C)c3C#N)CNC4)cc(F)cc21
     RDKit          3D

 28 31  0  0  0  0  0  0  0  0999 V2000
   -5.9946    4.1592  -20.4657 C   0  0  0  0  0  0  0  0  0  0  0  0
   -4.9273    4.6874  -19.6598 N   0  0  0  0  0  0  0  0  0  0  0  0
   -5.3876    5.9213  -19.0252 C   0  0  0  0  0  0  0  0  0  0  0  0
   -5.6840    5.5998  -17.6373 N   0  0  0  0  0  0  0  0  0  0  0  0
   -4.6994    5.7763  -16.7327 N   0  0  0  0  0  0  0  0  0  0  0  0
   -5.2849    5.4647  -15.5802 C   0  0  0  0  0  0  0  0  0  0  0  0
   -6.6053    4.9873  -15.7504 C   0  0  0  0  0  0  0  0  0  0  0  0
   -7.6543    4.5935  -14.8921 C   0  0  0  0  0  0  0  0  0  0  0  0
   -7.5060    4.9163  -13.4507 C   0  0  0  0  0  0  0  0  0  0  0  0
   -6.7905    5.8038  -13.2056 O   0  0  0  0  0  0  0  0  0  0  0  0
   -8.4103    4.0783  -12.5268 N   0  0  0  0  0  0  0  0  0  0  0  0
   -8.5490    4.0927  -11.1412 C   0  0  0  0  0  0  0  0  0  0  0  0
   -8.8352    2.8831  -10.5126 C   0  0  0  0  0  0  0  0  0  0  0  0
   -8.8792    2.8662   -9.1318 C   0  0  0  0  0  0  0  0  0  0  0  0
   -8.6567    4.0147   -8.3735 C   0  0  0  0  0  0  0  0  0  0  0  0
   -8.3888    5.2423   -8.9716 C   0  0  0  0  0  0  0  0  0  0  0  0
   -8.1808    6.4809   -8.1443 C   0  0  0  0  0  0  0  0  0  0  0  0
   -8.3801    5.2849  -10.3847 C   0  0  0  0  0  0  0  0  0  0  0  0
   -8.3738    6.5735  -11.0359 C   0  0  0  0  0  0  0  0  0  0  0  0
   -8.4449    7.6269  -11.5239 N   0  0  0  0  0  0  0  0  0  0  0  0
   -8.7765    3.6604   -6.9250 C   0  0  0  0  0  0  0  0  0  0  0  0
   -9.3216    2.2896   -6.8841 N   0  0  0  0  0  0  0  0  0  0  0  0
   -9.0909    1.7030   -8.2230 C   0  0  0  0  0  0  0  0  0  0  0  0
   -8.8516    4.1342  -15.4572 C   0  0  0  0  0  0  0  0  0  0  0  0
   -9.0074    4.1074  -16.8342 C   0  0  0  0  0  0  0  0  0  0  0  0
  -10.1749    3.7264  -17.3656 F   0  0  0  0  0  0  0  0  0  0  0  0
   -8.0260    4.5886  -17.6882 C   0  0  0  0  0  0  0  0  0  0  0  0
   -6.8214    5.0239  -17.1243 C   0  0  0  0  0  0  0  0  0  0  0  0
  1  2  1  0
  2  3  1  0
  3  4  1  0
  4  5  1  0
  5  6  2  0
  6  7  1  0
  7  8  2  0
  8  9  1  0
  9 10  2  0
  9 11  1  0
 11 12  1  0
 12 13  2  0
 13 14  1  0
 14 15  2  0
 15 16  1  0
 16 17  1  0
 16 18  2  0
 18 19  1  0
 19 20  3  0
 15 21  1  0
 21 22  1  0
 22 23  1  0
  8 24  1  0
 24 25  2  0
 25 26  1  0
 25 27  1  0
 27 28  2  0
 28  4  1  0
 28  7  1  0
 18 12  1  0
 23 14  1  0
M  END
>  <smiles>  (1314) 
C19778-P183

>  <fragmenstein_outcome>  (1314) 
acceptable

>  <inchikey>  (1314) 
PDWQTMBPESHVBS-UHFFFAOYSA-N

>  <fragmenstein_mode>  (1314) 
expansion

>  <HIPPO Pose ID>  (1314) 
21009

>  <Energy>  (1314) 
127.115776

>  <fragmenstein_error>  (1314) 


>  <tags>  (1314) 
{'openbind_xx01zvns2b_c1_fragmenstein', 'fragmenstein_placed'}

>  <ref_pdb>  (1314) 
175

>  <scratch_subdir>  (1314) 
/opt/xchem-fragalysis-2/maxwin/BulkDock/SCRATCH/511028/C19778-P183

>  <alias>  (1314) 
CNCn1ncc2c(C(=O)Nc3cc4c(c(C)c3C#N)CNC4)cc(F)cc21

>  <HIPPO Compound ID>  (1314) 
33180

>  <fragmenstein_runtime>  (1314) 
4.971024

$$$$
N#Cc1cc2c(cc1NC(=O)c1cc(F)cc3c1CN[C@]31CCCNC1)CNC2
     RDKit          3D

 29 33  0  0  0  0  0  0  0  0999 V2000
   -8.4844    7.8006  -11.6729 N   0  0  0  0  0  0  0  0  0  0  0  0
   -8.3826    6.7121  -11.2778 C   0  0  0  0  0  0  0  0  0  0  0  0
   -8.3511    5.3911  -10.7138 C   0  0  0  0  0  0  0  0  0  0  0  0
   -8.4213    5.3124   -9.3110 C   0  0  0  0  0  0  0  0  0  0  0  0
   -8.6098    4.0771   -8.7224 C   0  0  0  0  0  0  0  0  0  0  0  0
   -8.7366    2.9320   -9.4953 C   0  0  0  0  0  0  0  0  0  0  0  0
   -8.6404    2.9789  -10.8795 C   0  0  0  0  0  0  0  0  0  0  0  0
   -8.4079    4.2143  -11.5016 C   0  0  0  0  0  0  0  0  0  0  0  0
   -8.2137    4.2058  -12.8914 N   0  0  0  0  0  0  0  0  0  0  0  0
   -7.4357    5.1829  -13.8024 C   0  0  0  0  0  0  0  0  0  0  0  0
   -6.9002    6.1884  -13.5497 O   0  0  0  0  0  0  0  0  0  0  0  0
   -7.4231    4.7880  -15.2432 C   0  0  0  0  0  0  0  0  0  0  0  0
   -8.5203    4.1936  -15.8680 C   0  0  0  0  0  0  0  0  0  0  0  0
   -8.5087    4.0214  -17.2566 C   0  0  0  0  0  0  0  0  0  0  0  0
   -9.5940    3.4945  -17.8427 F   0  0  0  0  0  0  0  0  0  0  0  0
   -7.4289    4.4350  -18.0487 C   0  0  0  0  0  0  0  0  0  0  0  0
   -6.3444    5.0494  -17.4366 C   0  0  0  0  0  0  0  0  0  0  0  0
   -6.3509    5.2042  -16.0465 C   0  0  0  0  0  0  0  0  0  0  0  0
   -5.1300    5.9549  -15.6225 C   0  0  0  0  0  0  0  0  0  0  0  0
   -4.2923    6.0735  -16.8220 N   0  0  0  0  0  0  0  0  0  0  0  0
   -5.1237    5.7508  -18.0106 C   0  0  2  0  0  0  0  0  0  0  0  0
   -5.5463    7.0367  -18.7533 C   0  0  0  0  0  0  0  0  0  0  0  0
   -4.5242    7.4699  -19.8054 C   0  0  0  0  0  0  0  0  0  0  0  0
   -4.2993    6.3829  -20.8624 C   0  0  0  0  0  0  0  0  0  0  0  0
   -4.5413    5.0126  -20.3690 N   0  0  0  0  0  0  0  0  0  0  0  0
   -4.1823    4.9405  -18.9386 C   0  0  0  0  0  0  0  0  0  0  0  0
   -8.9417    1.7567   -8.5972 C   0  0  0  0  0  0  0  0  0  0  0  0
   -9.1739    2.3185   -7.2424 N   0  0  0  0  0  0  0  0  0  0  0  0
   -8.7379    3.7277   -7.2791 C   0  0  0  0  0  0  0  0  0  0  0  0
  1  2  3  0
  2  3  1  0
  3  4  2  0
  4  5  1  0
  5  6  2  0
  6  7  1  0
  7  8  2  0
  8  9  1  0
  9 10  1  0
 10 11  2  0
 10 12  1  0
 12 13  2  0
 13 14  1  0
 14 15  1  0
 14 16  2  0
 16 17  1  0
 17 18  2  0
 18 19  1  0
 19 20  1  0
 20 21  1  0
 21 22  1  6
 22 23  1  0
 23 24  1  0
 24 25  1  0
 25 26  1  0
  6 27  1  0
 27 28  1  0
 28 29  1  0
  8  3  1  0
 18 12  1  0
 26 21  1  0
 29  5  1  0
 21 17  1  0
M  END
>  <smiles>  (1315) 
C19782-P183

>  <fragmenstein_outcome>  (1315) 
acceptable

>  <inchikey>  (1315) 
JJOHXTYQQFQANG-UHFFFAOYSA-N

>  <fragmenstein_mode>  (1315) 
expansion

>  <HIPPO Pose ID>  (1315) 
21010

>  <Energy>  (1315) 
114.008664

>  <fragmenstein_error>  (1315) 


>  <tags>  (1315) 
{'openbind_xx01zvns2b_c1_fragmenstein', 'fragmenstein_placed'}

>  <ref_pdb>  (1315) 
175

>  <scratch_subdir>  (1315) 
/opt/xchem-fragalysis-2/maxwin/BulkDock/SCRATCH/511028/C19782-P183

>  <alias>  (1315) 
N#Cc1cc2c(cc1NC(=O)c1cc(F)cc3c1CN[C@]31CCCNC1)CNC2

>  <HIPPO Compound ID>  (1315) 
22351

>  <fragmenstein_runtime>  (1315) 
5.026172

$$$$
C[C@@](O)(Nc1cc2c(cc1C#N)CNC2)c1cc(F)c(CN)c2[nH]ncc12
     RDKit          3D

 27 30  0  0  0  0  0  0  0  0999 V2000
   -6.4731    5.9591  -13.0644 C   0  0  0  0  0  0  0  0  0  0  0  0
   -7.1398    4.6371  -13.4106 C   0  0  1  0  0  0  0  0  0  0  0  0
   -6.2277    3.6187  -13.0504 O   0  0  0  0  0  0  0  0  0  0  0  0
   -8.3936    4.3748  -12.6816 N   0  0  0  0  0  0  0  0  0  0  0  0
   -8.4382    4.3333  -11.2744 C   0  0  0  0  0  0  0  0  0  0  0  0
   -8.5352    3.0735  -10.6519 C   0  0  0  0  0  0  0  0  0  0  0  0
   -8.6611    3.0022   -9.2763 C   0  0  0  0  0  0  0  0  0  0  0  0
   -8.6143    4.1425   -8.4904 C   0  0  0  0  0  0  0  0  0  0  0  0
   -8.4973    5.3961   -9.0627 C   0  0  0  0  0  0  0  0  0  0  0  0
   -8.4616    5.4941  -10.4643 C   0  0  0  0  0  0  0  0  0  0  0  0
   -8.5702    6.8012  -11.0476 C   0  0  0  0  0  0  0  0  0  0  0  0
   -8.6452    7.8611  -11.5196 N   0  0  0  0  0  0  0  0  0  0  0  0
   -8.7505    3.7580   -7.0572 C   0  0  0  0  0  0  0  0  0  0  0  0
   -9.1528    2.3368   -7.0545 N   0  0  0  0  0  0  0  0  0  0  0  0
   -8.8739    1.8045   -8.4138 C   0  0  0  0  0  0  0  0  0  0  0  0
   -7.4331    4.5840  -14.9225 C   0  0  0  0  0  0  0  0  0  0  0  0
   -8.7428    4.2726  -15.3603 C   0  0  0  0  0  0  0  0  0  0  0  0
   -9.0410    4.0380  -16.6804 C   0  0  0  0  0  0  0  0  0  0  0  0
  -10.2996    3.7442  -17.0235 F   0  0  0  0  0  0  0  0  0  0  0  0
   -8.0875    4.1189  -17.6791 C   0  0  0  0  0  0  0  0  0  0  0  0
   -8.4727    3.6360  -19.0315 C   0  0  0  0  0  0  0  0  0  0  0  0
   -9.5345    4.4428  -19.5693 N   0  0  0  0  0  0  0  0  0  0  0  0
   -6.8442    4.6131  -17.2931 C   0  0  0  0  0  0  0  0  0  0  0  0
   -5.7491    4.9434  -18.0429 N   0  0  0  0  0  0  0  0  0  0  0  0
   -4.6801    5.3052  -17.3171 N   0  0  0  0  0  0  0  0  0  0  0  0
   -5.1188    5.1995  -16.0582 C   0  0  0  0  0  0  0  0  0  0  0  0
   -6.4845    4.8205  -15.9616 C   0  0  0  0  0  0  0  0  0  0  0  0
  2  1  1  1
  2  3  1  0
  2  4  1  0
  4  5  1  0
  5  6  2  0
  6  7  1  0
  7  8  2  0
  8  9  1  0
  9 10  2  0
 10 11  1  0
 11 12  3  0
  8 13  1  0
 13 14  1  0
 14 15  1  0
  2 16  1  0
 16 17  2  0
 17 18  1  0
 18 19  1  0
 18 20  2  0
 20 21  1  0
 21 22  1  0
 20 23  1  0
 23 24  1  0
 24 25  1  0
 25 26  2  0
 26 27  1  0
 10  5  1  0
 27 16  1  0
 15  7  1  0
 27 23  2  0
M  END
>  <smiles>  (1316) 
C19785-P183

>  <fragmenstein_outcome>  (1316) 
acceptable

>  <inchikey>  (1316) 
ZWHLJTLNOOODOL-UHFFFAOYSA-N

>  <fragmenstein_mode>  (1316) 
expansion

>  <HIPPO Pose ID>  (1316) 
21011

>  <Energy>  (1316) 
46.076578

>  <fragmenstein_error>  (1316) 


>  <tags>  (1316) 
{'openbind_xx01zvns2b_c1_fragmenstein', 'fragmenstein_placed'}

>  <ref_pdb>  (1316) 
175

>  <scratch_subdir>  (1316) 
/opt/xchem-fragalysis-2/maxwin/BulkDock/SCRATCH/511028/C19785-P183

>  <alias>  (1316) 
C[C@@](O)(Nc1cc2c(cc1C#N)CNC2)c1cc(F)c(CN)c2[nH]ncc12

>  <HIPPO Compound ID>  (1316) 
19785

>  <fragmenstein_runtime>  (1316) 
2.449516

$$$$
COc1cc(-c2cc(NC(=O)c3cc(F)cc4[nH]ncc34)cc3c2CNC3)ccn1
     RDKit          3D

 30 34  0  0  0  0  0  0  0  0999 V2000
   -4.8112    9.4271   -6.5300 C   0  0  0  0  0  0  0  0  0  0  0  0
   -5.1207    8.0926   -6.9178 O   0  0  0  0  0  0  0  0  0  0  0  0
   -6.1504    8.0285   -7.8385 C   0  0  0  0  0  0  0  0  0  0  0  0
   -6.5267    6.7575   -8.2433 C   0  0  0  0  0  0  0  0  0  0  0  0
   -7.5574    6.6255   -9.1765 C   0  0  0  0  0  0  0  0  0  0  0  0
   -7.9263    5.3284   -9.7402 C   0  0  0  0  0  0  0  0  0  0  0  0
   -7.8383    5.1651  -11.1333 C   0  0  0  0  0  0  0  0  0  0  0  0
   -8.2078    3.9812  -11.7769 C   0  0  0  0  0  0  0  0  0  0  0  0
   -8.1025    3.9046  -13.1644 N   0  0  0  0  0  0  0  0  0  0  0  0
   -7.5323    4.9224  -14.1905 C   0  0  0  0  0  0  0  0  0  0  0  0
   -6.9937    5.9475  -14.0223 O   0  0  0  0  0  0  0  0  0  0  0  0
   -7.7700    4.5338  -15.6011 C   0  0  0  0  0  0  0  0  0  0  0  0
   -9.0134    4.0442  -16.0169 C   0  0  0  0  0  0  0  0  0  0  0  0
   -9.2792    3.8692  -17.3703 C   0  0  0  0  0  0  0  0  0  0  0  0
  -10.5030    3.4928  -17.7525 F   0  0  0  0  0  0  0  0  0  0  0  0
   -8.3406    4.1398  -18.3539 C   0  0  0  0  0  0  0  0  0  0  0  0
   -7.1192    4.6508  -17.9235 C   0  0  0  0  0  0  0  0  0  0  0  0
   -6.0399    5.0991  -18.6345 N   0  0  0  0  0  0  0  0  0  0  0  0
   -5.0254    5.5402  -17.8635 N   0  0  0  0  0  0  0  0  0  0  0  0
   -5.4977    5.3926  -16.6196 C   0  0  0  0  0  0  0  0  0  0  0  0
   -6.8049    4.8499  -16.5841 C   0  0  0  0  0  0  0  0  0  0  0  0
   -8.6719    2.9068  -11.0238 C   0  0  0  0  0  0  0  0  0  0  0  0
   -8.7115    3.0412   -9.6399 C   0  0  0  0  0  0  0  0  0  0  0  0
   -8.3490    4.2298   -9.0053 C   0  0  0  0  0  0  0  0  0  0  0  0
   -8.5531    4.0771   -7.5346 C   0  0  0  0  0  0  0  0  0  0  0  0
   -8.8261    2.6419   -7.2951 N   0  0  0  0  0  0  0  0  0  0  0  0
   -9.1471    2.0468   -8.6166 C   0  0  0  0  0  0  0  0  0  0  0  0
   -8.1677    7.7946   -9.6481 C   0  0  0  0  0  0  0  0  0  0  0  0
   -7.7058    9.0184   -9.2046 C   0  0  0  0  0  0  0  0  0  0  0  0
   -6.7086    9.1643   -8.3066 N   0  0  0  0  0  0  0  0  0  0  0  0
  1  2  1  0
  2  3  1  0
  3  4  2  0
  4  5  1  0
  5  6  1  0
  6  7  2  0
  7  8  1  0
  8  9  1  0
  9 10  1  0
 10 11  2  0
 10 12  1  0
 12 13  2  0
 13 14  1  0
 14 15  1  0
 14 16  2  0
 16 17  1  0
 17 18  1  0
 18 19  1  0
 19 20  2  0
 20 21  1  0
  8 22  2  0
 22 23  1  0
 23 24  2  0
 24 25  1  0
 25 26  1  0
 26 27  1  0
  5 28  2  0
 28 29  1  0
 29 30  2  0
 30  3  1  0
 24  6  1  0
 21 12  1  0
 27 23  1  0
 21 17  2  0
M  END
>  <smiles>  (1317) 
C164-P183

>  <fragmenstein_outcome>  (1317) 
acceptable

>  <inchikey>  (1317) 
ATEOZXUEQXHRLG-UHFFFAOYSA-N

>  <fragmenstein_mode>  (1317) 
expansion

>  <HIPPO Pose ID>  (1317) 
21019

>  <Energy>  (1317) 
47.245947

>  <fragmenstein_error>  (1317) 


>  <tags>  (1317) 
{'openbind_xx01zvns2b_c1_fragmenstein', 'fragmenstein_placed'}

>  <ref_pdb>  (1317) 
175

>  <scratch_subdir>  (1317) 
/opt/xchem-fragalysis-2/maxwin/BulkDock/SCRATCH/511028/C164-P183

>  <alias>  (1317) 
COc1cc(-c2cc(NC(=O)c3cc(F)cc4[nH]ncc34)cc3c2CNC3)ccn1

>  <HIPPO Compound ID>  (1317) 
164

>  <fragmenstein_runtime>  (1317) 
7.624912

$$$$
COc1cc(-c2c3c(cc4[nH]c(-c5cc(F)cc6[nH]ncc56)c(C(=O)[O-])c24)CNC3)ccn1
     RDKit          3D

 33 38  0  0  0  0  0  0  0  0999 V2000
   -4.4009    9.5803   -9.9226 C   0  0  0  0  0  0  0  0  0  0  0  0
   -4.7702    8.9427   -8.6985 O   0  0  0  0  0  0  0  0  0  0  0  0
   -6.0500    8.4714   -8.8588 C   0  0  0  0  0  0  0  0  0  0  0  0
   -6.2454    7.2413   -9.4682 C   0  0  0  0  0  0  0  0  0  0  0  0
   -7.5501    6.8128   -9.6804 C   0  0  0  0  0  0  0  0  0  0  0  0
   -7.8347    5.4656  -10.1700 C   0  0  0  0  0  0  0  0  0  0  0  0
   -8.1932    4.4603   -9.2411 C   0  0  0  0  0  0  0  0  0  0  0  0
   -8.5357    3.1778   -9.6260 C   0  0  0  0  0  0  0  0  0  0  0  0
   -8.5708    2.8255  -10.9517 C   0  0  0  0  0  0  0  0  0  0  0  0
   -8.1820    3.7940  -11.8780 C   0  0  0  0  0  0  0  0  0  0  0  0
   -8.1367    3.6575  -13.2363 N   0  0  0  0  0  0  0  0  0  0  0  0
   -7.7086    4.7958  -13.8686 C   0  0  0  0  0  0  0  0  0  0  0  0
   -7.7252    4.8172  -15.3329 C   0  0  0  0  0  0  0  0  0  0  0  0
   -8.8739    4.3468  -15.9999 C   0  0  0  0  0  0  0  0  0  0  0  0
   -8.9298    4.1953  -17.3747 C   0  0  0  0  0  0  0  0  0  0  0  0
  -10.0497    3.7150  -17.9320 F   0  0  0  0  0  0  0  0  0  0  0  0
   -7.8424    4.5029  -18.1710 C   0  0  0  0  0  0  0  0  0  0  0  0
   -6.6982    4.9623  -17.5133 C   0  0  0  0  0  0  0  0  0  0  0  0
   -5.4755    5.3100  -18.0130 N   0  0  0  0  0  0  0  0  0  0  0  0
   -4.5744    5.6544  -17.0794 N   0  0  0  0  0  0  0  0  0  0  0  0
   -5.2732    5.5739  -15.9356 C   0  0  0  0  0  0  0  0  0  0  0  0
   -6.6052    5.1318  -16.1276 C   0  0  0  0  0  0  0  0  0  0  0  0
   -7.4241    5.6871  -12.8373 C   0  0  0  0  0  0  0  0  0  0  0  0
   -6.8589    7.1242  -13.0377 C   0  0  0  0  0  0  0  0  0  0  0  0
   -5.6116    7.2713  -12.8474 O   0  0  0  0  0  0  0  0  0  0  0  0
   -7.6875    8.0191  -13.3852 O   0  0  0  0  0  0  0  0  0  0  0  0
   -7.7812    5.0959  -11.5571 C   0  0  0  0  0  0  0  0  0  0  0  0
   -8.8026    2.3223   -8.4360 C   0  0  0  0  0  0  0  0  0  0  0  0
   -8.8982    3.2651   -7.2947 N   0  0  0  0  0  0  0  0  0  0  0  0
   -8.2315    4.5132   -7.7444 C   0  0  0  0  0  0  0  0  0  0  0  0
   -8.5869    7.6681   -9.2843 C   0  0  0  0  0  0  0  0  0  0  0  0
   -8.2857    8.8569   -8.6370 C   0  0  0  0  0  0  0  0  0  0  0  0
   -7.0299    9.2695   -8.3841 N   0  0  0  0  0  0  0  0  0  0  0  0
  1  2  1  0
  2  3  1  0
  3  4  2  0
  4  5  1  0
  5  6  1  0
  6  7  2  0
  7  8  1  0
  8  9  2  0
  9 10  1  0
 10 11  1  0
 11 12  1  0
 12 13  1  0
 13 14  2  0
 14 15  1  0
 15 16  1  0
 15 17  2  0
 17 18  1  0
 18 19  1  0
 19 20  1  0
 20 21  2  0
 21 22  1  0
 12 23  2  0
 23 24  1  0
 24 25  2  0
 24 26  1  0
 23 27  1  0
  8 28  1  0
 28 29  1  0
 29 30  1  0
  5 31  2  0
 31 32  1  0
 32 33  2  0
 33  3  1  0
 27  6  1  0
 30  7  1  0
 27 10  2  0
 22 13  1  0
 22 18  2  0
M  CHG  1  26  -1
M  END
>  <smiles>  (1318) 
C19226-P3

>  <fragmenstein_outcome>  (1318) 
acceptable

>  <inchikey>  (1318) 
NANWOTPUXREXFZ-UHFFFAOYSA-M

>  <fragmenstein_mode>  (1318) 
expansion

>  <HIPPO Pose ID>  (1318) 
21023

>  <Energy>  (1318) 
78.912279

>  <fragmenstein_error>  (1318) 


>  <tags>  (1318) 
{'openbind_xx01zvns2b_c1_fragmenstein', 'fragmenstein_placed'}

>  <ref_pdb>  (1318) 
175

>  <scratch_subdir>  (1318) 
/opt/xchem-fragalysis-2/maxwin/BulkDock/SCRATCH/511028/C19226-P3

>  <alias>  (1318) 
COc1cc(-c2c3c(cc4[nH]c(-c5cc(F)cc6[nH]ncc56)c(C(=O)[O-])c24)CNC3)ccn1

>  <HIPPO Compound ID>  (1318) 
19226

>  <fragmenstein_runtime>  (1318) 
2.976169

$$$$
CNNc1cc(F)cc([C@](O)(Nc2cc3c(c(-c4ccnc(OC)c4)c2)CNC3)C(=O)NCc2cccnc2)c1
     RDKit          3D

 40 44  0  0  0  0  0  0  0  0999 V2000
   -3.6495    4.9915  -17.4491 C   0  0  0  0  0  0  0  0  0  0  0  0
   -4.6542    5.9016  -17.9797 N   0  0  0  0  0  0  0  0  0  0  0  0
   -5.7598    5.1554  -18.4282 N   0  0  0  0  0  0  0  0  0  0  0  0
   -6.8570    4.9382  -17.5622 C   0  0  0  0  0  0  0  0  0  0  0  0
   -8.0902    4.5650  -18.0914 C   0  0  0  0  0  0  0  0  0  0  0  0
   -9.1481    4.2962  -17.2355 C   0  0  0  0  0  0  0  0  0  0  0  0
  -10.3312    3.9341  -17.7467 F   0  0  0  0  0  0  0  0  0  0  0  0
   -9.0034    4.3744  -15.8512 C   0  0  0  0  0  0  0  0  0  0  0  0
   -7.7736    4.6932  -15.2762 C   0  0  0  0  0  0  0  0  0  0  0  0
   -7.4840    4.7097  -13.7676 C   0  0  2  0  0  0  0  0  0  0  0  0
   -6.5671    3.6531  -13.5498 O   0  0  0  0  0  0  0  0  0  0  0  0
   -8.6924    4.4039  -12.9717 N   0  0  0  0  0  0  0  0  0  0  0  0
   -8.5483    4.3184  -11.5628 C   0  0  0  0  0  0  0  0  0  0  0  0
   -8.7987    3.1230  -10.8806 C   0  0  0  0  0  0  0  0  0  0  0  0
   -8.6898    3.0867   -9.4914 C   0  0  0  0  0  0  0  0  0  0  0  0
   -8.3255    4.2101   -8.7555 C   0  0  0  0  0  0  0  0  0  0  0  0
   -8.0434    5.4007   -9.3898 C   0  0  0  0  0  0  0  0  0  0  0  0
   -7.5905    6.6138   -8.7186 C   0  0  0  0  0  0  0  0  0  0  0  0
   -8.4458    7.3730   -7.9248 C   0  0  0  0  0  0  0  0  0  0  0  0
   -8.0127    8.6042   -7.4587 C   0  0  0  0  0  0  0  0  0  0  0  0
   -6.7974    9.1242   -7.7310 N   0  0  0  0  0  0  0  0  0  0  0  0
   -5.9812    8.3573   -8.4823 C   0  0  0  0  0  0  0  0  0  0  0  0
   -4.7238    8.8227   -8.7910 O   0  0  0  0  0  0  0  0  0  0  0  0
   -4.7920   10.1577   -9.2718 C   0  0  0  0  0  0  0  0  0  0  0  0
   -6.3114    7.1095   -8.9705 C   0  0  0  0  0  0  0  0  0  0  0  0
   -8.1985    5.4315  -10.7869 C   0  0  0  0  0  0  0  0  0  0  0  0
   -8.2758    3.8596   -7.3074 C   0  0  0  0  0  0  0  0  0  0  0  0
   -8.9102    2.5325   -7.1962 N   0  0  0  0  0  0  0  0  0  0  0  0
   -8.8662    1.9357   -8.5546 C   0  0  0  0  0  0  0  0  0  0  0  0
   -6.8531    6.1667  -13.4111 C   0  0  0  0  0  0  0  0  0  0  0  0
   -5.7073    6.3123  -13.2105 O   0  0  0  0  0  0  0  0  0  0  0  0
   -8.0221    7.2014  -13.3929 N   0  0  0  0  0  0  0  0  0  0  0  0
   -8.0305    8.5949  -13.0331 C   0  0  0  0  0  0  0  0  0  0  0  0
   -9.2701    9.0123  -12.2997 C   0  0  0  0  0  0  0  0  0  0  0  0
   -9.2046    9.4695  -10.9805 C   0  0  0  0  0  0  0  0  0  0  0  0
  -10.3659    9.8565  -10.3170 C   0  0  0  0  0  0  0  0  0  0  0  0
  -11.5670    9.7887  -10.9987 C   0  0  0  0  0  0  0  0  0  0  0  0
  -11.6744    9.3716  -12.2790 N   0  0  0  0  0  0  0  0  0  0  0  0
  -10.5305    8.9859  -12.8894 C   0  0  0  0  0  0  0  0  0  0  0  0
   -6.7185    4.9713  -16.1628 C   0  0  0  0  0  0  0  0  0  0  0  0
  1  2  1  0
  2  3  1  0
  3  4  1  0
  4  5  2  0
  5  6  1  0
  6  7  1  0
  6  8  2  0
  8  9  1  0
  9 10  1  0
 10 11  1  6
 10 12  1  0
 12 13  1  0
 13 14  2  0
 14 15  1  0
 15 16  2  0
 16 17  1  0
 17 18  1  0
 18 19  2  0
 19 20  1  0
 20 21  2  0
 21 22  1  0
 22 23  1  0
 23 24  1  0
 22 25  2  0
 17 26  2  0
 16 27  1  0
 27 28  1  0
 28 29  1  0
 10 30  1  0
 30 31  2  0
 30 32  1  0
 32 33  1  0
 33 34  1  0
 34 35  2  0
 35 36  1  0
 36 37  2  0
 37 38  1  0
 38 39  2  0
  9 40  2  0
 40  4  1  0
 26 13  1  0
 39 34  1  0
 29 15  1  0
 25 18  1  0
M  END
>  <smiles>  (1319) 
C19836-P48

>  <fragmenstein_outcome>  (1319) 
acceptable

>  <inchikey>  (1319) 
QFGXWJHBOMRRNY-UHFFFAOYSA-N

>  <fragmenstein_mode>  (1319) 
expansion

>  <HIPPO Pose ID>  (1319) 
21028

>  <Energy>  (1319) 
121.638918

>  <fragmenstein_error>  (1319) 


>  <tags>  (1319) 
{'openbind_xx01zvns2b_c1_fragmenstein', 'fragmenstein_placed'}

>  <ref_pdb>  (1319) 
175

>  <scratch_subdir>  (1319) 
/opt/xchem-fragalysis-2/maxwin/BulkDock/SCRATCH/511028/C19836-P48

>  <alias>  (1319) 
CNNc1cc(F)cc([C@](O)(Nc2cc3c(c(-c4ccnc(OC)c4)c2)CNC3)C(=O)NCc2cccnc2)c1

>  <HIPPO Compound ID>  (1319) 
19836

>  <fragmenstein_runtime>  (1319) 
11.340816

$$$$
COc1cc(-c2cc(NC(=O)c3cc(F)cc4c3c[n+]([O-])n4C)cc3c2CNC3)ccn1
     RDKit          3D

 32 36  0  0  0  0  0  0  0  0999 V2000
   -4.4916   10.0143   -9.3318 C   0  0  0  0  0  0  0  0  0  0  0  0
   -4.6222    8.8432   -8.5312 O   0  0  0  0  0  0  0  0  0  0  0  0
   -5.9415    8.4566   -8.5224 C   0  0  0  0  0  0  0  0  0  0  0  0
   -6.2294    7.1959   -9.0065 C   0  0  0  0  0  0  0  0  0  0  0  0
   -7.5663    6.8228   -9.1143 C   0  0  0  0  0  0  0  0  0  0  0  0
   -7.9230    5.5662   -9.7608 C   0  0  0  0  0  0  0  0  0  0  0  0
   -7.8786    5.4768  -11.1646 C   0  0  0  0  0  0  0  0  0  0  0  0
   -8.1744    4.2853  -11.8379 C   0  0  0  0  0  0  0  0  0  0  0  0
   -8.0869    4.2248  -13.2297 N   0  0  0  0  0  0  0  0  0  0  0  0
   -7.5505    5.2621  -14.2517 C   0  0  0  0  0  0  0  0  0  0  0  0
   -7.0285    6.2948  -14.0805 O   0  0  0  0  0  0  0  0  0  0  0  0
   -7.7409    4.8316  -15.6596 C   0  0  0  0  0  0  0  0  0  0  0  0
   -8.9968    4.4017  -16.0949 C   0  0  0  0  0  0  0  0  0  0  0  0
   -9.2357    4.1724  -17.4415 C   0  0  0  0  0  0  0  0  0  0  0  0
  -10.4573    3.7875  -17.8296 F   0  0  0  0  0  0  0  0  0  0  0  0
   -8.2505    4.3400  -18.4063 C   0  0  0  0  0  0  0  0  0  0  0  0
   -6.9844    4.7306  -17.9636 C   0  0  0  0  0  0  0  0  0  0  0  0
   -6.6890    4.9931  -16.5968 C   0  0  0  0  0  0  0  0  0  0  0  0
   -5.2936    5.3995  -16.4655 C   0  0  0  0  0  0  0  0  0  0  0  0
   -4.7637    5.3701  -17.6973 N   0  0  0  0  0  0  0  0  0  0  0  0
   -3.6032    5.6290  -18.0968 O   0  0  0  0  0  0  0  0  0  0  0  0
   -5.8009    4.9617  -18.6290 N   0  0  0  0  0  0  0  0  0  0  0  0
   -5.5676    4.8552  -20.0440 C   0  0  0  0  0  0  0  0  0  0  0  0
   -8.5313    3.1535  -11.1064 C   0  0  0  0  0  0  0  0  0  0  0  0
   -8.5579    3.2338   -9.7188 C   0  0  0  0  0  0  0  0  0  0  0  0
   -8.2639    4.4206   -9.0560 C   0  0  0  0  0  0  0  0  0  0  0  0
   -8.3251    4.1904   -7.5825 C   0  0  0  0  0  0  0  0  0  0  0  0
   -8.8842    2.8356   -7.3959 N   0  0  0  0  0  0  0  0  0  0  0  0
   -8.8083    2.1577   -8.7145 C   0  0  0  0  0  0  0  0  0  0  0  0
   -8.5392    7.7252   -8.6850 C   0  0  0  0  0  0  0  0  0  0  0  0
   -8.1428    8.9456   -8.1613 C   0  0  0  0  0  0  0  0  0  0  0  0
   -6.8567    9.3364   -8.0697 N   0  0  0  0  0  0  0  0  0  0  0  0
  1  2  1  0
  2  3  1  0
  3  4  2  0
  4  5  1  0
  5  6  1  0
  6  7  2  0
  7  8  1  0
  8  9  1  0
  9 10  1  0
 10 11  2  0
 10 12  1  0
 12 13  2  0
 13 14  1  0
 14 15  1  0
 14 16  2  0
 16 17  1  0
 17 18  2  0
 18 19  1  0
 19 20  2  0
 20 21  1  0
 20 22  1  0
 22 23  1  0
  8 24  2  0
 24 25  1  0
 25 26  2  0
 26 27  1  0
 27 28  1  0
 28 29  1  0
  5 30  2  0
 30 31  1  0
 31 32  2  0
 32  3  1  0
 26  6  1  0
 18 12  1  0
 29 25  1  0
 22 17  1  0
M  CHG  2  20   1  21  -1
M  END
>  <smiles>  (1320) 
C19837-P51

>  <fragmenstein_outcome>  (1320) 
acceptable

>  <inchikey>  (1320) 
YYMXPUNHEKZUFM-UHFFFAOYSA-N

>  <fragmenstein_mode>  (1320) 
expansion

>  <HIPPO Pose ID>  (1320) 
21029

>  <Energy>  (1320) 
36.638843

>  <fragmenstein_error>  (1320) 


>  <tags>  (1320) 
{'openbind_xx01zvns2b_c1_fragmenstein', 'fragmenstein_placed'}

>  <ref_pdb>  (1320) 
175

>  <scratch_subdir>  (1320) 
/opt/xchem-fragalysis-2/maxwin/BulkDock/SCRATCH/511028/C19837-P51

>  <alias>  (1320) 
COc1cc(-c2cc(NC(=O)c3cc(F)cc4c3c[n+]([O-])n4C)cc3c2CNC3)ccn1

>  <HIPPO Compound ID>  (1320) 
19837

>  <fragmenstein_runtime>  (1320) 
3.69872

$$$$
COc1cc(-c2cc(NC(=O)c3cc(F)cc4[nH][n+]([O-])cc34)cc3c2CNC3)ccn1
     RDKit          3D

 31 35  0  0  0  0  0  0  0  0999 V2000
   -4.6187   10.0752   -9.4273 C   0  0  0  0  0  0  0  0  0  0  0  0
   -4.7263    8.9775   -8.5263 O   0  0  0  0  0  0  0  0  0  0  0  0
   -6.0264    8.5340   -8.5389 C   0  0  0  0  0  0  0  0  0  0  0  0
   -6.2723    7.3056   -9.1187 C   0  0  0  0  0  0  0  0  0  0  0  0
   -7.5910    6.8665   -9.1954 C   0  0  0  0  0  0  0  0  0  0  0  0
   -7.9010    5.6107   -9.8722 C   0  0  0  0  0  0  0  0  0  0  0  0
   -7.7894    5.5123  -11.2770 C   0  0  0  0  0  0  0  0  0  0  0  0
   -8.0565    4.3146  -11.9536 C   0  0  0  0  0  0  0  0  0  0  0  0
   -7.9606    4.2274  -13.3485 N   0  0  0  0  0  0  0  0  0  0  0  0
   -7.3735    5.2304  -14.3870 C   0  0  0  0  0  0  0  0  0  0  0  0
   -6.8119    6.2456  -14.2275 O   0  0  0  0  0  0  0  0  0  0  0  0
   -7.6800    4.8346  -15.7976 C   0  0  0  0  0  0  0  0  0  0  0  0
   -8.9715    4.3779  -16.1081 C   0  0  0  0  0  0  0  0  0  0  0  0
   -9.3667    4.1799  -17.4242 C   0  0  0  0  0  0  0  0  0  0  0  0
  -10.6175    3.7819  -17.6798 F   0  0  0  0  0  0  0  0  0  0  0  0
   -8.5142    4.4014  -18.4907 C   0  0  0  0  0  0  0  0  0  0  0  0
   -7.2334    4.8416  -18.1822 C   0  0  0  0  0  0  0  0  0  0  0  0
   -6.1940    5.1804  -19.0086 N   0  0  0  0  0  0  0  0  0  0  0  0
   -5.0643    5.6168  -18.2530 N   0  0  0  0  0  0  0  0  0  0  0  0
   -4.0377    5.9971  -18.8667 O   0  0  0  0  0  0  0  0  0  0  0  0
   -5.3814    5.5654  -16.9430 C   0  0  0  0  0  0  0  0  0  0  0  0
   -6.7631    5.0776  -16.8613 C   0  0  0  0  0  0  0  0  0  0  0  0
   -8.4413    3.1883  -11.2202 C   0  0  0  0  0  0  0  0  0  0  0  0
   -8.5198    3.2737   -9.8347 C   0  0  0  0  0  0  0  0  0  0  0  0
   -8.2601    4.4656   -9.1714 C   0  0  0  0  0  0  0  0  0  0  0  0
   -8.3616    4.2414   -7.6973 C   0  0  0  0  0  0  0  0  0  0  0  0
   -8.9215    2.8866   -7.5213 N   0  0  0  0  0  0  0  0  0  0  0  0
   -8.7957    2.2018   -8.8312 C   0  0  0  0  0  0  0  0  0  0  0  0
   -8.5888    7.6749   -8.6438 C   0  0  0  0  0  0  0  0  0  0  0  0
   -8.2319    8.8728   -8.0461 C   0  0  0  0  0  0  0  0  0  0  0  0
   -6.9649    9.3272   -7.9834 N   0  0  0  0  0  0  0  0  0  0  0  0
  1  2  1  0
  2  3  1  0
  3  4  2  0
  4  5  1  0
  5  6  1  0
  6  7  2  0
  7  8  1  0
  8  9  1  0
  9 10  1  0
 10 11  2  0
 10 12  1  0
 12 13  2  0
 13 14  1  0
 14 15  1  0
 14 16  2  0
 16 17  1  0
 17 18  1  0
 18 19  1  0
 19 20  1  0
 19 21  2  0
 21 22  1  0
  8 23  2  0
 23 24  1  0
 24 25  2  0
 25 26  1  0
 26 27  1  0
 27 28  1  0
  5 29  2  0
 29 30  1  0
 30 31  2  0
 31  3  1  0
 25  6  1  0
 22 12  1  0
 28 24  1  0
 22 17  2  0
M  CHG  2  19   1  20  -1
M  END
>  <smiles>  (1321) 
C19249-P62

>  <fragmenstein_outcome>  (1321) 
acceptable

>  <inchikey>  (1321) 
MEXYPYOYGXXEMB-UHFFFAOYSA-N

>  <fragmenstein_mode>  (1321) 
expansion

>  <HIPPO Pose ID>  (1321) 
21030

>  <Energy>  (1321) 
31.592219

>  <fragmenstein_error>  (1321) 


>  <tags>  (1321) 
{'openbind_xx01zvns2b_c1_fragmenstein', 'fragmenstein_placed'}

>  <ref_pdb>  (1321) 
175

>  <scratch_subdir>  (1321) 
/opt/xchem-fragalysis-2/maxwin/BulkDock/SCRATCH/511028/C19249-P62

>  <alias>  (1321) 
COc1cc(-c2cc(NC(=O)c3cc(F)cc4[nH][n+]([O-])cc34)cc3c2CNC3)ccn1

>  <HIPPO Compound ID>  (1321) 
19249

>  <fragmenstein_runtime>  (1321) 
3.126041

$$$$
COc1cc(-c2cc(NC(=O)c3cc(F)cc4c3CC3(CCCCC3)N4)cc3c2CNC3)ccn1
     RDKit          3D

 35 40  0  0  0  0  0  0  0  0999 V2000
   -4.6333   10.0304   -9.3392 C   0  0  0  0  0  0  0  0  0  0  0  0
   -4.7419    8.8766   -8.5116 O   0  0  0  0  0  0  0  0  0  0  0  0
   -6.0557    8.4712   -8.4857 C   0  0  0  0  0  0  0  0  0  0  0  0
   -6.3360    7.2153   -8.9848 C   0  0  0  0  0  0  0  0  0  0  0  0
   -7.6692    6.8156   -9.0595 C   0  0  0  0  0  0  0  0  0  0  0  0
   -8.0057    5.5609   -9.7245 C   0  0  0  0  0  0  0  0  0  0  0  0
   -7.9244    5.4805  -11.1285 C   0  0  0  0  0  0  0  0  0  0  0  0
   -8.1818    4.2880  -11.8181 C   0  0  0  0  0  0  0  0  0  0  0  0
   -8.1228    4.2554  -13.2127 N   0  0  0  0  0  0  0  0  0  0  0  0
   -7.5439    5.2819  -14.2201 C   0  0  0  0  0  0  0  0  0  0  0  0
   -7.0964    6.3478  -14.0432 O   0  0  0  0  0  0  0  0  0  0  0  0
   -7.6852    4.8308  -15.6275 C   0  0  0  0  0  0  0  0  0  0  0  0
   -8.9192    4.3847  -16.0969 C   0  0  0  0  0  0  0  0  0  0  0  0
   -9.1106    4.1480  -17.4586 C   0  0  0  0  0  0  0  0  0  0  0  0
  -10.3053    3.7158  -17.8809 F   0  0  0  0  0  0  0  0  0  0  0  0
   -8.0881    4.3360  -18.3778 C   0  0  0  0  0  0  0  0  0  0  0  0
   -6.8627    4.7608  -17.9027 C   0  0  0  0  0  0  0  0  0  0  0  0
   -6.6566    4.9959  -16.5443 C   0  0  0  0  0  0  0  0  0  0  0  0
   -5.2310    5.3743  -16.3238 C   0  0  0  0  0  0  0  0  0  0  0  0
   -4.7430    5.6202  -17.7887 C   0  0  0  0  0  0  0  0  0  0  0  0
   -3.3443    5.0303  -18.0115 C   0  0  0  0  0  0  0  0  0  0  0  0
   -2.2685    5.7260  -17.1742 C   0  0  0  0  0  0  0  0  0  0  0  0
   -2.5140    7.2213  -16.9751 C   0  0  0  0  0  0  0  0  0  0  0  0
   -3.3878    7.8087  -18.0719 C   0  0  0  0  0  0  0  0  0  0  0  0
   -4.7617    7.1348  -18.1447 C   0  0  0  0  0  0  0  0  0  0  0  0
   -5.6922    4.9042  -18.6805 N   0  0  0  0  0  0  0  0  0  0  0  0
   -8.5164    3.1377  -11.1050 C   0  0  0  0  0  0  0  0  0  0  0  0
   -8.5937    3.2117   -9.7208 C   0  0  0  0  0  0  0  0  0  0  0  0
   -8.3565    4.4058   -9.0414 C   0  0  0  0  0  0  0  0  0  0  0  0
   -8.4861    4.1560   -7.5745 C   0  0  0  0  0  0  0  0  0  0  0  0
   -9.1534    2.8422   -7.4518 N   0  0  0  0  0  0  0  0  0  0  0  0
   -8.8670    2.1306   -8.7243 C   0  0  0  0  0  0  0  0  0  0  0  0
   -8.6473    7.6867   -8.5750 C   0  0  0  0  0  0  0  0  0  0  0  0
   -8.2563    8.9083   -8.0479 C   0  0  0  0  0  0  0  0  0  0  0  0
   -6.9750    9.3260   -7.9946 N   0  0  0  0  0  0  0  0  0  0  0  0
  1  2  1  0
  2  3  1  0
  3  4  2  0
  4  5  1  0
  5  6  1  0
  6  7  2  0
  7  8  1  0
  8  9  1  0
  9 10  1  0
 10 11  2  0
 10 12  1  0
 12 13  2  0
 13 14  1  0
 14 15  1  0
 14 16  2  0
 16 17  1  0
 17 18  2  0
 18 19  1  0
 19 20  1  0
 20 21  1  0
 21 22  1  0
 22 23  1  0
 23 24  1  0
 24 25  1  0
 20 26  1  0
  8 27  2  0
 27 28  1  0
 28 29  2  0
 29 30  1  0
 30 31  1  0
 31 32  1  0
  5 33  2  0
 33 34  1  0
 34 35  2  0
 35  3  1  0
 29  6  1  0
 18 12  1  0
 25 20  1  0
 32 28  1  0
 26 17  1  0
M  END
>  <smiles>  (1322) 
C19264-P78

>  <fragmenstein_outcome>  (1322) 
acceptable

>  <inchikey>  (1322) 
VYBCAKQJRPASLE-UHFFFAOYSA-N

>  <fragmenstein_mode>  (1322) 
expansion

>  <HIPPO Pose ID>  (1322) 
21031

>  <Energy>  (1322) 
58.691658

>  <fragmenstein_error>  (1322) 


>  <tags>  (1322) 
{'openbind_xx01zvns2b_c1_fragmenstein', 'fragmenstein_placed'}

>  <ref_pdb>  (1322) 
175

>  <scratch_subdir>  (1322) 
/opt/xchem-fragalysis-2/maxwin/BulkDock/SCRATCH/511028/C19264-P78

>  <alias>  (1322) 
COc1cc(-c2cc(NC(=O)c3cc(F)cc4c3CC3(CCCCC3)N4)cc3c2CNC3)ccn1

>  <HIPPO Compound ID>  (1322) 
19264

>  <fragmenstein_runtime>  (1322) 
7.482069

$$$$
COc1cc(-c2cc(NC(=O)c3cc(F)cc4c3CNC43CCNCC3)cc3c2CNC3)ccn1
     RDKit          3D

 35 40  0  0  0  0  0  0  0  0999 V2000
   -4.5809    9.9818   -9.2854 C   0  0  0  0  0  0  0  0  0  0  0  0
   -4.6829    8.7590   -8.5630 O   0  0  0  0  0  0  0  0  0  0  0  0
   -6.0048    8.3858   -8.4819 C   0  0  0  0  0  0  0  0  0  0  0  0
   -6.3269    7.1230   -8.9408 C   0  0  0  0  0  0  0  0  0  0  0  0
   -7.6709    6.7530   -8.9796 C   0  0  0  0  0  0  0  0  0  0  0  0
   -8.0576    5.5036   -9.6318 C   0  0  0  0  0  0  0  0  0  0  0  0
   -7.9974    5.4248  -11.0341 C   0  0  0  0  0  0  0  0  0  0  0  0
   -8.2680    4.2370  -11.7309 C   0  0  0  0  0  0  0  0  0  0  0  0
   -8.1321    4.2110  -13.1175 N   0  0  0  0  0  0  0  0  0  0  0  0
   -7.6890    5.3165  -14.1044 C   0  0  0  0  0  0  0  0  0  0  0  0
   -7.2948    6.3984  -13.9029 O   0  0  0  0  0  0  0  0  0  0  0  0
   -7.7298    4.8867  -15.5240 C   0  0  0  0  0  0  0  0  0  0  0  0
   -8.8320    4.2363  -16.0709 C   0  0  0  0  0  0  0  0  0  0  0  0
   -8.9241    4.0715  -17.4559 C   0  0  0  0  0  0  0  0  0  0  0  0
  -10.0215    3.4949  -17.9626 F   0  0  0  0  0  0  0  0  0  0  0  0
   -7.9386    4.5454  -18.3202 C   0  0  0  0  0  0  0  0  0  0  0  0
   -6.8385    5.1839  -17.7694 C   0  0  0  0  0  0  0  0  0  0  0  0
   -6.7239    5.3153  -16.3839 C   0  0  0  0  0  0  0  0  0  0  0  0
   -5.4488    6.0158  -16.0522 C   0  0  0  0  0  0  0  0  0  0  0  0
   -4.6881    6.0302  -17.3149 N   0  0  0  0  0  0  0  0  0  0  0  0
   -5.6820    5.9022  -18.4221 C   0  0  0  0  0  0  0  0  0  0  0  0
   -6.1242    7.2904  -18.9247 C   0  0  0  0  0  0  0  0  0  0  0  0
   -5.0560    8.0348  -19.7218 C   0  0  0  0  0  0  0  0  0  0  0  0
   -4.5161    7.2275  -20.8108 N   0  0  0  0  0  0  0  0  0  0  0  0
   -3.9693    5.9803  -20.2701 C   0  0  0  0  0  0  0  0  0  0  0  0
   -5.0432    5.1414  -19.5778 C   0  0  0  0  0  0  0  0  0  0  0  0
   -8.6197    3.0881  -11.0292 C   0  0  0  0  0  0  0  0  0  0  0  0
   -8.6880    3.1621   -9.6435 C   0  0  0  0  0  0  0  0  0  0  0  0
   -8.4237    4.3497   -8.9558 C   0  0  0  0  0  0  0  0  0  0  0  0
   -8.5449    4.0929   -7.4898 C   0  0  0  0  0  0  0  0  0  0  0  0
   -9.1980    2.7713   -7.3639 N   0  0  0  0  0  0  0  0  0  0  0  0
   -8.9576    2.0750   -8.6529 C   0  0  0  0  0  0  0  0  0  0  0  0
   -8.6114    7.6647   -8.4996 C   0  0  0  0  0  0  0  0  0  0  0  0
   -8.1809    8.8849   -8.0015 C   0  0  0  0  0  0  0  0  0  0  0  0
   -6.8907    9.2729   -7.9866 N   0  0  0  0  0  0  0  0  0  0  0  0
  1  2  1  0
  2  3  1  0
  3  4  2  0
  4  5  1  0
  5  6  1  0
  6  7  2  0
  7  8  1  0
  8  9  1  0
  9 10  1  0
 10 11  2  0
 10 12  1  0
 12 13  2  0
 13 14  1  0
 14 15  1  0
 14 16  2  0
 16 17  1  0
 17 18  2  0
 18 19  1  0
 19 20  1  0
 20 21  1  0
 21 22  1  0
 22 23  1  0
 23 24  1  0
 24 25  1  0
 25 26  1  0
  8 27  2  0
 27 28  1  0
 28 29  2  0
 29 30  1  0
 30 31  1  0
 31 32  1  0
  5 33  2  0
 33 34  1  0
 34 35  2  0
 35  3  1  0
 29  6  1  0
 18 12  1  0
 26 21  1  0
 32 28  1  0
 21 17  1  0
M  END
>  <smiles>  (1323) 
C19302-P83

>  <fragmenstein_outcome>  (1323) 
acceptable

>  <inchikey>  (1323) 
WWAJBBYYUSBZLW-UHFFFAOYSA-N

>  <fragmenstein_mode>  (1323) 
expansion

>  <HIPPO Pose ID>  (1323) 
21032

>  <Energy>  (1323) 
41.526127

>  <fragmenstein_error>  (1323) 


>  <tags>  (1323) 
{'openbind_xx01zvns2b_c1_fragmenstein', 'fragmenstein_placed'}

>  <ref_pdb>  (1323) 
175

>  <scratch_subdir>  (1323) 
/opt/xchem-fragalysis-2/maxwin/BulkDock/SCRATCH/511028/C19302-P83

>  <alias>  (1323) 
COc1cc(-c2cc(NC(=O)c3cc(F)cc4c3CNC43CCNCC3)cc3c2CNC3)ccn1

>  <HIPPO Compound ID>  (1323) 
19302

>  <fragmenstein_runtime>  (1323) 
5.939245

$$$$
CCc1n[nH]c2cc(F)cc([C@](O)(Nc3cc4c(c(-c5ccnc(OC)c5)c3)CNC4)C(=O)NCC(F)F)c12
     RDKit          3D

 39 43  0  0  0  0  0  0  0  0999 V2000
   -2.8980    6.0850  -15.9446 C   0  0  0  0  0  0  0  0  0  0  0  0
   -4.3202    5.7586  -15.4988 C   0  0  0  0  0  0  0  0  0  0  0  0
   -5.2954    5.4794  -16.6042 C   0  0  0  0  0  0  0  0  0  0  0  0
   -4.8738    5.6275  -17.8711 N   0  0  0  0  0  0  0  0  0  0  0  0
   -5.9200    5.2578  -18.6149 N   0  0  0  0  0  0  0  0  0  0  0  0
   -7.0111    4.8851  -17.8836 C   0  0  0  0  0  0  0  0  0  0  0  0
   -8.2451    4.4422  -18.3509 C   0  0  0  0  0  0  0  0  0  0  0  0
   -9.1889    4.1457  -17.3944 C   0  0  0  0  0  0  0  0  0  0  0  0
  -10.3983    3.7314  -17.7884 F   0  0  0  0  0  0  0  0  0  0  0  0
   -8.9209    4.3093  -16.0409 C   0  0  0  0  0  0  0  0  0  0  0  0
   -7.6730    4.7672  -15.5307 C   0  0  0  0  0  0  0  0  0  0  0  0
   -7.6174    5.0737  -14.0135 C   0  0  2  0  0  0  0  0  0  0  0  0
   -6.2759    5.3089  -13.6473 O   0  0  0  0  0  0  0  0  0  0  0  0
   -8.0023    3.9568  -13.1353 N   0  0  0  0  0  0  0  0  0  0  0  0
   -8.1894    4.1036  -11.7428 C   0  0  0  0  0  0  0  0  0  0  0  0
   -8.6273    3.0104  -10.9879 C   0  0  0  0  0  0  0  0  0  0  0  0
   -8.7342    3.1133   -9.6011 C   0  0  0  0  0  0  0  0  0  0  0  0
   -8.4288    4.2912   -8.9264 C   0  0  0  0  0  0  0  0  0  0  0  0
   -7.9587    5.3896   -9.6155 C   0  0  0  0  0  0  0  0  0  0  0  0
   -7.5886    6.6598   -8.9900 C   0  0  0  0  0  0  0  0  0  0  0  0
   -8.5500    7.5428   -8.4939 C   0  0  0  0  0  0  0  0  0  0  0  0
   -8.1576    8.7963   -8.0523 C   0  0  0  0  0  0  0  0  0  0  0  0
   -6.8852    9.2401   -8.1007 N   0  0  0  0  0  0  0  0  0  0  0  0
   -5.9760    8.3709   -8.5867 C   0  0  0  0  0  0  0  0  0  0  0  0
   -4.6655    8.7748   -8.7170 O   0  0  0  0  0  0  0  0  0  0  0  0
   -4.5961   10.1104   -9.1985 C   0  0  0  0  0  0  0  0  0  0  0  0
   -6.2609    7.0833   -8.9997 C   0  0  0  0  0  0  0  0  0  0  0  0
   -7.8119    5.2486  -11.0132 C   0  0  0  0  0  0  0  0  0  0  0  0
   -8.6210    4.0806   -7.4623 C   0  0  0  0  0  0  0  0  0  0  0  0
   -9.3335    2.7960   -7.3271 N   0  0  0  0  0  0  0  0  0  0  0  0
   -9.0994    2.0642   -8.5991 C   0  0  0  0  0  0  0  0  0  0  0  0
   -8.5737    6.3618  -13.7513 C   0  0  0  0  0  0  0  0  0  0  0  0
   -9.7462    6.3353  -13.7980 O   0  0  0  0  0  0  0  0  0  0  0  0
   -7.5966    7.5480  -13.4395 N   0  0  0  0  0  0  0  0  0  0  0  0
   -7.8727    8.9129  -13.0300 C   0  0  0  0  0  0  0  0  0  0  0  0
   -9.2346    9.1810  -12.3880 C   0  0  0  0  0  0  0  0  0  0  0  0
  -10.2229    9.1089  -13.3123 F   0  0  0  0  0  0  0  0  0  0  0  0
   -9.5038    8.2753  -11.4217 F   0  0  0  0  0  0  0  0  0  0  0  0
   -6.6728    5.0416  -16.5313 C   0  0  0  0  0  0  0  0  0  0  0  0
  1  2  1  0
  2  3  1  0
  3  4  2  0
  4  5  1  0
  5  6  1  0
  6  7  2  0
  7  8  1  0
  8  9  1  0
  8 10  2  0
 10 11  1  0
 11 12  1  0
 12 13  1  1
 12 14  1  0
 14 15  1  0
 15 16  2  0
 16 17  1  0
 17 18  2  0
 18 19  1  0
 19 20  1  0
 20 21  2  0
 21 22  1  0
 22 23  2  0
 23 24  1  0
 24 25  1  0
 25 26  1  0
 24 27  2  0
 19 28  2  0
 18 29  1  0
 29 30  1  0
 30 31  1  0
 12 32  1  0
 32 33  2  0
 32 34  1  0
 34 35  1  0
 35 36  1  0
 36 37  1  0
 36 38  1  0
 11 39  2  0
 39  3  1  0
 39  6  1  0
 28 15  1  0
 31 17  1  0
 27 20  1  0
M  END
>  <smiles>  (1324) 
C19279-P99

>  <fragmenstein_outcome>  (1324) 
acceptable

>  <inchikey>  (1324) 
WYNXYJNHBQPOCQ-UHFFFAOYSA-N

>  <fragmenstein_mode>  (1324) 
expansion

>  <HIPPO Pose ID>  (1324) 
21034

>  <Energy>  (1324) 
130.374596

>  <fragmenstein_error>  (1324) 


>  <tags>  (1324) 
{'openbind_xx01zvns2b_c1_fragmenstein', 'fragmenstein_placed'}

>  <ref_pdb>  (1324) 
175

>  <scratch_subdir>  (1324) 
/opt/xchem-fragalysis-2/maxwin/BulkDock/SCRATCH/511028/C19279-P99

>  <alias>  (1324) 
CCc1n[nH]c2cc(F)cc([C@](O)(Nc3cc4c(c(-c5ccnc(OC)c5)c3)CNC4)C(=O)NCC(F)F)c12

>  <HIPPO Compound ID>  (1324) 
19279

>  <fragmenstein_runtime>  (1324) 
8.64008

$$$$
COc1cc(-c2cc(NC(=O)c3cc(F)cc4c3cnn4C#N)cc3c2CNC3)ccn1
     RDKit          3D

 32 36  0  0  0  0  0  0  0  0999 V2000
   -4.5571   10.0359   -9.3020 C   0  0  0  0  0  0  0  0  0  0  0  0
   -4.6734    8.8132   -8.5820 O   0  0  0  0  0  0  0  0  0  0  0  0
   -5.9942    8.4307   -8.5487 C   0  0  0  0  0  0  0  0  0  0  0  0
   -6.2930    7.1743   -9.0385 C   0  0  0  0  0  0  0  0  0  0  0  0
   -7.6315    6.7965   -9.1132 C   0  0  0  0  0  0  0  0  0  0  0  0
   -8.0001    5.5439   -9.7649 C   0  0  0  0  0  0  0  0  0  0  0  0
   -7.9514    5.4538  -11.1706 C   0  0  0  0  0  0  0  0  0  0  0  0
   -8.2703    4.2687  -11.8479 C   0  0  0  0  0  0  0  0  0  0  0  0
   -8.2324    4.2142  -13.2430 N   0  0  0  0  0  0  0  0  0  0  0  0
   -7.7362    5.2566  -14.2786 C   0  0  0  0  0  0  0  0  0  0  0  0
   -7.3542    6.3518  -14.1283 O   0  0  0  0  0  0  0  0  0  0  0  0
   -7.8517    4.7884  -15.6795 C   0  0  0  0  0  0  0  0  0  0  0  0
   -9.0566    4.2755  -16.1651 C   0  0  0  0  0  0  0  0  0  0  0  0
   -9.2185    4.0428  -17.5242 C   0  0  0  0  0  0  0  0  0  0  0  0
  -10.3972    3.5931  -17.9689 F   0  0  0  0  0  0  0  0  0  0  0  0
   -8.2020    4.2789  -18.4442 C   0  0  0  0  0  0  0  0  0  0  0  0
   -6.9871    4.7655  -17.9426 C   0  0  0  0  0  0  0  0  0  0  0  0
   -6.7973    5.0309  -16.5864 C   0  0  0  0  0  0  0  0  0  0  0  0
   -5.4831    5.5378  -16.5104 C   0  0  0  0  0  0  0  0  0  0  0  0
   -4.8699    5.5789  -17.6944 N   0  0  0  0  0  0  0  0  0  0  0  0
   -5.7959    5.0917  -18.5660 N   0  0  0  0  0  0  0  0  0  0  0  0
   -5.5457    4.9456  -20.0284 C   0  0  0  0  0  0  0  0  0  0  0  0
   -5.3528    4.8127  -21.1685 N   0  0  0  0  0  0  0  0  0  0  0  0
   -8.6322    3.1365  -11.1189 C   0  0  0  0  0  0  0  0  0  0  0  0
   -8.6681    3.2176   -9.7335 C   0  0  0  0  0  0  0  0  0  0  0  0
   -8.3708    4.4040   -9.0661 C   0  0  0  0  0  0  0  0  0  0  0  0
   -8.4707    4.1643   -7.5944 C   0  0  0  0  0  0  0  0  0  0  0  0
   -9.1742    2.8703   -7.4488 N   0  0  0  0  0  0  0  0  0  0  0  0
   -8.9494    2.1493   -8.7265 C   0  0  0  0  0  0  0  0  0  0  0  0
   -8.5942    7.6895   -8.6398 C   0  0  0  0  0  0  0  0  0  0  0  0
   -8.1871    8.9072   -8.1177 C   0  0  0  0  0  0  0  0  0  0  0  0
   -6.9004    9.3036   -8.0638 N   0  0  0  0  0  0  0  0  0  0  0  0
  1  2  1  0
  2  3  1  0
  3  4  2  0
  4  5  1  0
  5  6  1  0
  6  7  2  0
  7  8  1  0
  8  9  1  0
  9 10  1  0
 10 11  2  0
 10 12  1  0
 12 13  2  0
 13 14  1  0
 14 15  1  0
 14 16  2  0
 16 17  1  0
 17 18  2  0
 18 19  1  0
 19 20  2  0
 20 21  1  0
 21 22  1  0
 22 23  3  0
  8 24  2  0
 24 25  1  0
 25 26  2  0
 26 27  1  0
 27 28  1  0
 28 29  1  0
  5 30  2  0
 30 31  1  0
 31 32  2  0
 32  3  1  0
 26  6  1  0
 18 12  1  0
 29 25  1  0
 21 17  1  0
M  END
>  <smiles>  (1325) 
C19293-P121

>  <fragmenstein_outcome>  (1325) 
acceptable

>  <inchikey>  (1325) 
SBUXCFRHDPFRJH-UHFFFAOYSA-N

>  <fragmenstein_mode>  (1325) 
expansion

>  <HIPPO Pose ID>  (1325) 
21036

>  <Energy>  (1325) 
83.288523

>  <fragmenstein_error>  (1325) 


>  <tags>  (1325) 
{'openbind_xx01zvns2b_c1_fragmenstein', 'fragmenstein_placed'}

>  <ref_pdb>  (1325) 
175

>  <scratch_subdir>  (1325) 
/opt/xchem-fragalysis-2/maxwin/BulkDock/SCRATCH/511028/C19293-P121

>  <alias>  (1325) 
COc1cc(-c2cc(NC(=O)c3cc(F)cc4c3cnn4C#N)cc3c2CNC3)ccn1

>  <HIPPO Compound ID>  (1325) 
29352

>  <fragmenstein_runtime>  (1325) 
3.662057

$$$$
COc1cc(-c2cc(NC(=O)c3cc(F)cc4c3=C[N@H+]([O-])N=4)cc3c2C(=O)NC3)ccn1
     RDKit          3D

 32 36  0  0  0  0  0  0  0  0999 V2000
   -4.6054   10.1855   -9.3052 C   0  0  0  0  0  0  0  0  0  0  0  0
   -4.6006    8.8097   -8.9511 O   0  0  0  0  0  0  0  0  0  0  0  0
   -5.8783    8.3724   -8.6823 C   0  0  0  0  0  0  0  0  0  0  0  0
   -6.2060    7.1165   -9.1576 C   0  0  0  0  0  0  0  0  0  0  0  0
   -7.5031    6.6397   -8.9634 C   0  0  0  0  0  0  0  0  0  0  0  0
   -7.9266    5.3962   -9.6111 C   0  0  0  0  0  0  0  0  0  0  0  0
   -7.8789    5.3239  -11.0193 C   0  0  0  0  0  0  0  0  0  0  0  0
   -8.2233    4.1631  -11.7308 C   0  0  0  0  0  0  0  0  0  0  0  0
   -8.1584    4.1636  -13.1241 N   0  0  0  0  0  0  0  0  0  0  0  0
   -7.5716    5.2135  -14.1050 C   0  0  0  0  0  0  0  0  0  0  0  0
   -7.1222    6.2729  -13.9006 O   0  0  0  0  0  0  0  0  0  0  0  0
   -7.6643    4.7162  -15.5162 C   0  0  0  0  0  0  0  0  0  0  0  0
   -8.8165    4.2261  -16.0096 C   0  0  0  0  0  0  0  0  0  0  0  0
   -8.9769    3.9524  -17.4253 C   0  0  0  0  0  0  0  0  0  0  0  0
  -10.1845    3.5089  -17.8252 F   0  0  0  0  0  0  0  0  0  0  0  0
   -8.0242    4.1678  -18.3403 C   0  0  0  0  0  0  0  0  0  0  0  0
   -6.7240    4.6807  -17.8790 C   0  0  0  0  0  0  0  0  0  0  0  0
   -6.5863    4.9442  -16.4370 C   0  0  0  0  0  0  0  0  0  0  0  0
   -5.3339    5.3921  -16.3445 C   0  0  0  0  0  0  0  0  0  0  0  0
   -4.6452    5.3802  -17.6451 N   0  0  2  0  0  0  0  0  0  0  0  0
   -4.2993    6.6302  -17.9689 O   0  0  0  0  0  0  0  0  0  0  0  0
   -5.6742    4.9075  -18.6008 N   0  0  0  0  0  0  0  0  0  0  0  0
   -8.6314    3.0222  -11.0421 C   0  0  0  0  0  0  0  0  0  0  0  0
   -8.6913    3.0801   -9.6549 C   0  0  0  0  0  0  0  0  0  0  0  0
   -8.3585    4.2508   -8.9590 C   0  0  0  0  0  0  0  0  0  0  0  0
   -8.5522    3.9722   -7.5230 C   0  0  0  0  0  0  0  0  0  0  0  0
   -8.3223    4.7245   -6.5960 O   0  0  0  0  0  0  0  0  0  0  0  0
   -9.0633    2.6961   -7.4289 N   0  0  0  0  0  0  0  0  0  0  0  0
   -9.0585    1.9998   -8.6911 C   0  0  0  0  0  0  0  0  0  0  0  0
   -8.3785    7.4410   -8.2331 C   0  0  0  0  0  0  0  0  0  0  0  0
   -7.9452    8.6740   -7.7665 C   0  0  0  0  0  0  0  0  0  0  0  0
   -6.7118    9.1697   -7.9881 N   0  0  0  0  0  0  0  0  0  0  0  0
  1  2  1  0
  2  3  1  0
  3  4  2  0
  4  5  1  0
  5  6  1  0
  6  7  2  0
  7  8  1  0
  8  9  1  0
  9 10  1  0
 10 11  2  0
 10 12  1  0
 12 13  2  0
 13 14  1  0
 14 15  1  0
 14 16  2  0
 16 17  1  0
 17 18  1  0
 18 19  2  0
 19 20  1  0
 20 21  1  6
 20 22  1  0
  8 23  2  0
 23 24  1  0
 24 25  2  0
 25 26  1  0
 26 27  2  0
 26 28  1  0
 28 29  1  0
  5 30  2  0
 30 31  1  0
 31 32  2  0
 32  3  1  0
 25  6  1  0
 18 12  1  0
 29 24  1  0
 22 17  2  0
M  CHG  2  20   1  21  -1
M  END
>  <smiles>  (1326) 
C19296-P184

>  <fragmenstein_outcome>  (1326) 
acceptable

>  <inchikey>  (1326) 
IXNWSQQGMYNYRU-UHFFFAOYSA-N

>  <fragmenstein_mode>  (1326) 
expansion

>  <HIPPO Pose ID>  (1326) 
21037

>  <Energy>  (1326) 
-1.877514

>  <fragmenstein_error>  (1326) 


>  <tags>  (1326) 
{'openbind_xx01zvns2b_c1_fragmenstein', 'fragmenstein_placed'}

>  <ref_pdb>  (1326) 
175

>  <scratch_subdir>  (1326) 
/opt/xchem-fragalysis-2/maxwin/BulkDock/SCRATCH/511028/C19296-P184

>  <alias>  (1326) 
COc1cc(-c2cc(NC(=O)c3cc(F)cc4c3=C[N@H+]([O-])N=4)cc3c2C(=O)NC3)ccn1

>  <HIPPO Compound ID>  (1326) 
41951

>  <fragmenstein_runtime>  (1326) 
3.946969

$$$$
COc1cc(-c2cc(NC(=O)c3cc(F)cc4c3CC3(CCN(C)CC3)N4)cc3c2CNC3)ccn1
     RDKit          3D

 36 41  0  0  0  0  0  0  0  0999 V2000
   -4.5499    9.9243   -9.2816 C   0  0  0  0  0  0  0  0  0  0  0  0
   -4.6238    8.6247   -8.7049 O   0  0  0  0  0  0  0  0  0  0  0  0
   -5.9361    8.2767   -8.4727 C   0  0  0  0  0  0  0  0  0  0  0  0
   -6.3053    6.9880   -8.8141 C   0  0  0  0  0  0  0  0  0  0  0  0
   -7.6499    6.6266   -8.7096 C   0  0  0  0  0  0  0  0  0  0  0  0
   -8.1122    5.3690   -9.2947 C   0  0  0  0  0  0  0  0  0  0  0  0
   -8.1418    5.2775  -10.6909 C   0  0  0  0  0  0  0  0  0  0  0  0
   -8.4318    4.0805  -11.3628 C   0  0  0  0  0  0  0  0  0  0  0  0
   -8.3179    4.0811  -12.7418 N   0  0  0  0  0  0  0  0  0  0  0  0
   -8.2514    5.2471  -13.7355 C   0  0  0  0  0  0  0  0  0  0  0  0
   -8.3590    6.3937  -13.5628 O   0  0  0  0  0  0  0  0  0  0  0  0
   -7.9014    4.8080  -15.0867 C   0  0  0  0  0  0  0  0  0  0  0  0
   -8.8130    4.2453  -15.9654 C   0  0  0  0  0  0  0  0  0  0  0  0
   -8.4495    4.1128  -17.3070 C   0  0  0  0  0  0  0  0  0  0  0  0
   -9.3620    3.6322  -18.1648 F   0  0  0  0  0  0  0  0  0  0  0  0
   -7.1883    4.5104  -17.7730 C   0  0  0  0  0  0  0  0  0  0  0  0
   -6.2719    5.0072  -16.8586 C   0  0  0  0  0  0  0  0  0  0  0  0
   -6.6367    5.1632  -15.5343 C   0  0  0  0  0  0  0  0  0  0  0  0
   -5.5434    5.8182  -14.7599 C   0  0  0  0  0  0  0  0  0  0  0  0
   -4.3872    5.8598  -15.7925 C   0  0  0  0  0  0  0  0  0  0  0  0
   -3.8264    7.2923  -15.8620 C   0  0  0  0  0  0  0  0  0  0  0  0
   -2.4091    7.3117  -16.4299 C   0  0  0  0  0  0  0  0  0  0  0  0
   -1.4511    6.5394  -15.6240 N   0  0  0  0  0  0  0  0  0  0  0  0
   -0.5500    7.4076  -14.8682 C   0  0  0  0  0  0  0  0  0  0  0  0
   -2.0964    5.5662  -14.7354 C   0  0  0  0  0  0  0  0  0  0  0  0
   -3.2636    4.8715  -15.4362 C   0  0  0  0  0  0  0  0  0  0  0  0
   -4.9885    5.5213  -17.1241 N   0  0  0  0  0  0  0  0  0  0  0  0
   -8.7357    2.9330  -10.6519 C   0  0  0  0  0  0  0  0  0  0  0  0
   -8.7872    3.0394   -9.2701 C   0  0  0  0  0  0  0  0  0  0  0  0
   -8.4762    4.2288   -8.5977 C   0  0  0  0  0  0  0  0  0  0  0  0
   -8.5667    3.9874   -7.1293 C   0  0  0  0  0  0  0  0  0  0  0  0
   -9.2052    2.6663   -6.9699 N   0  0  0  0  0  0  0  0  0  0  0  0
   -9.1079    1.9743   -8.2780 C   0  0  0  0  0  0  0  0  0  0  0  0
   -8.5346    7.5778   -8.2108 C   0  0  0  0  0  0  0  0  0  0  0  0
   -8.0574    8.8245   -7.8355 C   0  0  0  0  0  0  0  0  0  0  0  0
   -6.7706    9.2011   -7.9595 N   0  0  0  0  0  0  0  0  0  0  0  0
  1  2  1  0
  2  3  1  0
  3  4  2  0
  4  5  1  0
  5  6  1  0
  6  7  2  0
  7  8  1  0
  8  9  1  0
  9 10  1  0
 10 11  2  0
 10 12  1  0
 12 13  2  0
 13 14  1  0
 14 15  1  0
 14 16  2  0
 16 17  1  0
 17 18  2  0
 18 19  1  0
 19 20  1  0
 20 21  1  0
 21 22  1  0
 22 23  1  0
 23 24  1  0
 23 25  1  0
 25 26  1  0
 20 27  1  0
  8 28  2  0
 28 29  1  0
 29 30  2  0
 30 31  1  0
 31 32  1  0
 32 33  1  0
  5 34  2  0
 34 35  1  0
 35 36  2  0
 36  3  1  0
 30  6  1  0
 18 12  1  0
 26 20  1  0
 33 29  1  0
 27 17  1  0
M  END
>  <smiles>  (1327) 
C19307-P184

>  <fragmenstein_outcome>  (1327) 
acceptable

>  <inchikey>  (1327) 
RNFRUBWEQXEHMA-UHFFFAOYSA-N

>  <fragmenstein_mode>  (1327) 
expansion

>  <HIPPO Pose ID>  (1327) 
21039

>  <Energy>  (1327) 
62.164151

>  <fragmenstein_error>  (1327) 


>  <tags>  (1327) 
{'openbind_xx01zvns2b_c1_fragmenstein', 'fragmenstein_placed'}

>  <ref_pdb>  (1327) 
175

>  <scratch_subdir>  (1327) 
/opt/xchem-fragalysis-2/maxwin/BulkDock/SCRATCH/511028/C19307-P184

>  <alias>  (1327) 
COc1cc(-c2cc(NC(=O)c3cc(F)cc4c3CC3(CCN(C)CC3)N4)cc3c2CNC3)ccn1

>  <HIPPO Compound ID>  (1327) 
19307

>  <fragmenstein_runtime>  (1327) 
10.05393

$$$$
COc1cc(-c2cc(NC(=O)c3cc(F)cc4c3C[C@@]3(CCCNC3)C4=O)cc3c2CNC3)ccn1
     RDKit          3D

 36 41  0  0  0  0  0  0  0  0999 V2000
   -4.5661   10.0597   -9.3362 C   0  0  0  0  0  0  0  0  0  0  0  0
   -4.5880    8.7650   -8.7466 O   0  0  0  0  0  0  0  0  0  0  0  0
   -5.8892    8.3569   -8.5662 C   0  0  0  0  0  0  0  0  0  0  0  0
   -6.2158    7.0980   -9.0332 C   0  0  0  0  0  0  0  0  0  0  0  0
   -7.5420    6.6743   -8.9439 C   0  0  0  0  0  0  0  0  0  0  0  0
   -7.9535    5.4314   -9.5990 C   0  0  0  0  0  0  0  0  0  0  0  0
   -7.8628    5.3496  -11.0009 C   0  0  0  0  0  0  0  0  0  0  0  0
   -8.1761    4.1806  -11.7057 C   0  0  0  0  0  0  0  0  0  0  0  0
   -8.0178    4.1441  -13.0899 N   0  0  0  0  0  0  0  0  0  0  0  0
   -7.4847    5.2188  -14.0701 C   0  0  0  0  0  0  0  0  0  0  0  0
   -7.0240    6.2721  -13.8614 O   0  0  0  0  0  0  0  0  0  0  0  0
   -7.5874    4.7972  -15.4917 C   0  0  0  0  0  0  0  0  0  0  0  0
   -8.7781    4.2483  -15.9810 C   0  0  0  0  0  0  0  0  0  0  0  0
   -8.9178    3.9879  -17.3490 C   0  0  0  0  0  0  0  0  0  0  0  0
  -10.0875    3.5221  -17.8003 F   0  0  0  0  0  0  0  0  0  0  0  0
   -7.8886    4.2305  -18.2479 C   0  0  0  0  0  0  0  0  0  0  0  0
   -6.7211    4.7638  -17.7377 C   0  0  0  0  0  0  0  0  0  0  0  0
   -6.5543    5.0698  -16.3905 C   0  0  0  0  0  0  0  0  0  0  0  0
   -5.1890    5.6365  -16.1123 C   0  0  0  0  0  0  0  0  0  0  0  0
   -4.5449    5.8375  -17.5147 C   0  0  2  0  0  0  0  0  0  0  0  0
   -3.1346    5.2201  -17.5853 C   0  0  0  0  0  0  0  0  0  0  0  0
   -2.2404    5.9765  -18.5573 C   0  0  0  0  0  0  0  0  0  0  0  0
   -2.1116    7.4391  -18.1420 C   0  0  0  0  0  0  0  0  0  0  0  0
   -3.3188    7.9918  -17.5061 N   0  0  0  0  0  0  0  0  0  0  0  0
   -4.5315    7.3152  -17.9663 C   0  0  0  0  0  0  0  0  0  0  0  0
   -5.4901    5.0977  -18.4471 C   0  0  0  0  0  0  0  0  0  0  0  0
   -5.2565    4.8195  -19.6112 O   0  0  0  0  0  0  0  0  0  0  0  0
   -8.6198    3.0557  -11.0141 C   0  0  0  0  0  0  0  0  0  0  0  0
   -8.7145    3.1314   -9.6297 C   0  0  0  0  0  0  0  0  0  0  0  0
   -8.3871    4.2945   -8.9322 C   0  0  0  0  0  0  0  0  0  0  0  0
   -8.5712    4.0584   -7.4719 C   0  0  0  0  0  0  0  0  0  0  0  0
   -8.9147    2.6302   -7.3105 N   0  0  0  0  0  0  0  0  0  0  0  0
   -9.1484    2.0769   -8.6684 C   0  0  0  0  0  0  0  0  0  0  0  0
   -8.4527    7.5307   -8.3271 C   0  0  0  0  0  0  0  0  0  0  0  0
   -8.0175    8.7584   -7.8494 C   0  0  0  0  0  0  0  0  0  0  0  0
   -6.7493    9.1974   -7.9599 N   0  0  0  0  0  0  0  0  0  0  0  0
  1  2  1  0
  2  3  1  0
  3  4  2  0
  4  5  1  0
  5  6  1  0
  6  7  2  0
  7  8  1  0
  8  9  1  0
  9 10  1  0
 10 11  2  0
 10 12  1  0
 12 13  2  0
 13 14  1  0
 14 15  1  0
 14 16  2  0
 16 17  1  0
 17 18  2  0
 18 19  1  0
 20 19  1  1
 20 21  1  0
 21 22  1  0
 22 23  1  0
 23 24  1  0
 24 25  1  0
 20 26  1  0
 26 27  2  0
  8 28  2  0
 28 29  1  0
 29 30  2  0
 30 31  1  0
 31 32  1  0
 32 33  1  0
  5 34  2  0
 34 35  1  0
 35 36  2  0
 36  3  1  0
 30  6  1  0
 18 12  1  0
 25 20  1  0
 33 29  1  0
 26 17  1  0
M  END
>  <smiles>  (1328) 
C19854-P184

>  <fragmenstein_outcome>  (1328) 
acceptable

>  <inchikey>  (1328) 
VDJJPRAVDLHCHX-UHFFFAOYSA-N

>  <fragmenstein_mode>  (1328) 
expansion

>  <HIPPO Pose ID>  (1328) 
21040

>  <Energy>  (1328) 
58.929415

>  <fragmenstein_error>  (1328) 


>  <tags>  (1328) 
{'openbind_xx01zvns2b_c1_fragmenstein', 'fragmenstein_placed'}

>  <ref_pdb>  (1328) 
175

>  <scratch_subdir>  (1328) 
/opt/xchem-fragalysis-2/maxwin/BulkDock/SCRATCH/511028/C19854-P184

>  <alias>  (1328) 
COc1cc(-c2cc(NC(=O)c3cc(F)cc4c3C[C@@]3(CCCNC3)C4=O)cc3c2CNC3)ccn1

>  <HIPPO Compound ID>  (1328) 
19854

>  <fragmenstein_runtime>  (1328) 
6.148498

$$$$
CNCn1ncc2c(C(=O)Nc3cc4c(c(-c5ccc(C)c(OC)c5)c3)CNC4)cc(F)cc21
     RDKit          3D

 34 38  0  0  0  0  0  0  0  0999 V2000
   -3.2129    5.3602  -19.1239 C   0  0  0  0  0  0  0  0  0  0  0  0
   -4.0834    6.5042  -19.3813 N   0  0  0  0  0  0  0  0  0  0  0  0
   -5.5018    6.0919  -19.3668 C   0  0  0  0  0  0  0  0  0  0  0  0
   -5.9031    5.9026  -17.9756 N   0  0  0  0  0  0  0  0  0  0  0  0
   -5.1574    6.4763  -16.9923 N   0  0  0  0  0  0  0  0  0  0  0  0
   -5.8400    6.2076  -15.8859 C   0  0  0  0  0  0  0  0  0  0  0  0
   -7.0305    5.4998  -16.1468 C   0  0  0  0  0  0  0  0  0  0  0  0
   -8.1183    5.0703  -15.3695 C   0  0  0  0  0  0  0  0  0  0  0  0
   -8.1702    5.5186  -13.9596 C   0  0  0  0  0  0  0  0  0  0  0  0
   -7.8647    6.6274  -13.7555 O   0  0  0  0  0  0  0  0  0  0  0  0
   -8.5325    4.3833  -12.9778 N   0  0  0  0  0  0  0  0  0  0  0  0
   -8.5041    4.3477  -11.5844 C   0  0  0  0  0  0  0  0  0  0  0  0
   -8.7818    3.1640  -10.9097 C   0  0  0  0  0  0  0  0  0  0  0  0
   -8.7243    3.1717   -9.5246 C   0  0  0  0  0  0  0  0  0  0  0  0
   -8.3842    4.3239   -8.8088 C   0  0  0  0  0  0  0  0  0  0  0  0
   -8.0662    5.5110   -9.4576 C   0  0  0  0  0  0  0  0  0  0  0  0
   -7.6432    6.7328   -8.7625 C   0  0  0  0  0  0  0  0  0  0  0  0
   -8.4607    7.3477   -7.8113 C   0  0  0  0  0  0  0  0  0  0  0  0
   -8.0765    8.5305   -7.1754 C   0  0  0  0  0  0  0  0  0  0  0  0
   -6.8562    9.1348   -7.4801 C   0  0  0  0  0  0  0  0  0  0  0  0
   -6.4540   10.4109   -6.7995 C   0  0  0  0  0  0  0  0  0  0  0  0
   -6.0371    8.5426   -8.4478 C   0  0  0  0  0  0  0  0  0  0  0  0
   -4.8461    9.1655   -8.7171 O   0  0  0  0  0  0  0  0  0  0  0  0
   -4.5528    9.2479  -10.1087 C   0  0  0  0  0  0  0  0  0  0  0  0
   -6.4172    7.3446   -9.0645 C   0  0  0  0  0  0  0  0  0  0  0  0
   -8.1552    5.5012  -10.8621 C   0  0  0  0  0  0  0  0  0  0  0  0
   -8.3805    3.9844   -7.3515 C   0  0  0  0  0  0  0  0  0  0  0  0
   -9.1205    2.7064   -7.2467 N   0  0  0  0  0  0  0  0  0  0  0  0
   -8.9357    2.0476   -8.5617 C   0  0  0  0  0  0  0  0  0  0  0  0
   -9.1517    4.3797  -15.9957 C   0  0  0  0  0  0  0  0  0  0  0  0
   -9.1226    4.1644  -17.3693 C   0  0  0  0  0  0  0  0  0  0  0  0
  -10.1519    3.5342  -17.9480 F   0  0  0  0  0  0  0  0  0  0  0  0
   -8.0746    4.6082  -18.1718 C   0  0  0  0  0  0  0  0  0  0  0  0
   -7.0344    5.2794  -17.5219 C   0  0  0  0  0  0  0  0  0  0  0  0
  1  2  1  0
  2  3  1  0
  3  4  1  0
  4  5  1  0
  5  6  2  0
  6  7  1  0
  7  8  2  0
  8  9  1  0
  9 10  2  0
  9 11  1  0
 11 12  1  0
 12 13  2  0
 13 14  1  0
 14 15  2  0
 15 16  1  0
 16 17  1  0
 17 18  2  0
 18 19  1  0
 19 20  2  0
 20 21  1  0
 20 22  1  0
 22 23  1  0
 23 24  1  0
 22 25  2  0
 16 26  2  0
 15 27  1  0
 27 28  1  0
 28 29  1  0
  8 30  1  0
 30 31  2  0
 31 32  1  0
 31 33  1  0
 33 34  2  0
 34  4  1  0
 34  7  1  0
 26 12  1  0
 29 14  1  0
 25 17  1  0
M  END
>  <smiles>  (1329) 
C19858-P182

>  <fragmenstein_outcome>  (1329) 
acceptable

>  <inchikey>  (1329) 
NOBAOQDLHPSYQM-UHFFFAOYSA-N

>  <fragmenstein_mode>  (1329) 
expansion

>  <HIPPO Pose ID>  (1329) 
21041

>  <Energy>  (1329) 
108.107877

>  <fragmenstein_error>  (1329) 


>  <tags>  (1329) 
{'openbind_xx01zvns2b_c1_fragmenstein', 'fragmenstein_placed'}

>  <ref_pdb>  (1329) 
175

>  <scratch_subdir>  (1329) 
/opt/xchem-fragalysis-2/maxwin/BulkDock/SCRATCH/511028/C19858-P182

>  <alias>  (1329) 
CNCn1ncc2c(C(=O)Nc3cc4c(c(-c5ccc(C)c(OC)c5)c3)CNC4)cc(F)cc21

>  <HIPPO Compound ID>  (1329) 
19858

>  <fragmenstein_runtime>  (1329) 
8.845882

$$$$
CNCn1ncc2c(C(=O)Nc3cc4c(c(-c5ccnc(OC)c5)c3)CN(C)C4)cc(F)cc21
     RDKit          3D

 34 38  0  0  0  0  0  0  0  0999 V2000
   -4.3965    7.2364  -20.2508 C   0  0  0  0  0  0  0  0  0  0  0  0
   -5.4892    6.2939  -20.4283 N   0  0  0  0  0  0  0  0  0  0  0  0
   -5.2714    5.0490  -19.6929 C   0  0  0  0  0  0  0  0  0  0  0  0
   -5.6653    5.2070  -18.2981 N   0  0  0  0  0  0  0  0  0  0  0  0
   -4.7415    5.6054  -17.3875 N   0  0  0  0  0  0  0  0  0  0  0  0
   -5.4177    5.5985  -16.2376 C   0  0  0  0  0  0  0  0  0  0  0  0
   -6.7412    5.1241  -16.3791 C   0  0  0  0  0  0  0  0  0  0  0  0
   -7.8363    4.8874  -15.5219 C   0  0  0  0  0  0  0  0  0  0  0  0
   -7.7419    5.3226  -14.1130 C   0  0  0  0  0  0  0  0  0  0  0  0
   -7.2629    6.3698  -13.9152 O   0  0  0  0  0  0  0  0  0  0  0  0
   -8.3255    4.2840  -13.1255 N   0  0  0  0  0  0  0  0  0  0  0  0
   -8.3542    4.2766  -11.7340 C   0  0  0  0  0  0  0  0  0  0  0  0
   -8.7277    3.1269  -11.0450 C   0  0  0  0  0  0  0  0  0  0  0  0
   -8.7610    3.1799   -9.6616 C   0  0  0  0  0  0  0  0  0  0  0  0
   -8.4418    4.3497   -8.9593 C   0  0  0  0  0  0  0  0  0  0  0  0
   -8.0453    5.4987   -9.6240 C   0  0  0  0  0  0  0  0  0  0  0  0
   -7.6542    6.7394   -8.9619 C   0  0  0  0  0  0  0  0  0  0  0  0
   -8.5986    7.6309   -8.4504 C   0  0  0  0  0  0  0  0  0  0  0  0
   -8.1741    8.8549   -7.9566 C   0  0  0  0  0  0  0  0  0  0  0  0
   -6.8874    9.2558   -7.9593 N   0  0  0  0  0  0  0  0  0  0  0  0
   -5.9998    8.3865   -8.4814 C   0  0  0  0  0  0  0  0  0  0  0  0
   -4.6832    8.7738   -8.5775 O   0  0  0  0  0  0  0  0  0  0  0  0
   -4.6036   10.0038   -9.2911 C   0  0  0  0  0  0  0  0  0  0  0  0
   -6.3150    7.1259   -8.9497 C   0  0  0  0  0  0  0  0  0  0  0  0
   -8.0101    5.4385  -11.0280 C   0  0  0  0  0  0  0  0  0  0  0  0
   -8.5907    4.0764   -7.4935 C   0  0  0  0  0  0  0  0  0  0  0  0
   -9.4217    2.8559   -7.4499 N   0  0  0  0  0  0  0  0  0  0  0  0
   -9.2295    2.0722   -6.2484 C   0  0  0  0  0  0  0  0  0  0  0  0
   -9.0966    2.1006   -8.6792 C   0  0  0  0  0  0  0  0  0  0  0  0
   -9.0222    4.3657  -16.0475 C   0  0  0  0  0  0  0  0  0  0  0  0
   -9.1223    4.1192  -17.4088 C   0  0  0  0  0  0  0  0  0  0  0  0
  -10.2701    3.6344  -17.8989 F   0  0  0  0  0  0  0  0  0  0  0  0
   -8.0703    4.3739  -18.2857 C   0  0  0  0  0  0  0  0  0  0  0  0
   -6.8781    4.8688  -17.7407 C   0  0  0  0  0  0  0  0  0  0  0  0
  1  2  1  0
  2  3  1  0
  3  4  1  0
  4  5  1  0
  5  6  2  0
  6  7  1  0
  7  8  2  0
  8  9  1  0
  9 10  2  0
  9 11  1  0
 11 12  1  0
 12 13  2  0
 13 14  1  0
 14 15  2  0
 15 16  1  0
 16 17  1  0
 17 18  2  0
 18 19  1  0
 19 20  2  0
 20 21  1  0
 21 22  1  0
 22 23  1  0
 21 24  2  0
 16 25  2  0
 15 26  1  0
 26 27  1  0
 27 28  1  0
 27 29  1  0
  8 30  1  0
 30 31  2  0
 31 32  1  0
 31 33  1  0
 33 34  2  0
 34  4  1  0
 34  7  1  0
 25 12  1  0
 29 14  1  0
 24 17  1  0
M  END
>  <smiles>  (1330) 
C19325-P245

>  <fragmenstein_outcome>  (1330) 
acceptable

>  <inchikey>  (1330) 
IEMRKJXKIGDLOG-UHFFFAOYSA-N

>  <fragmenstein_mode>  (1330) 
expansion

>  <HIPPO Pose ID>  (1330) 
21044

>  <Energy>  (1330) 
92.498634

>  <fragmenstein_error>  (1330) 


>  <tags>  (1330) 
{'openbind_xx01zvns2b_c1_fragmenstein', 'fragmenstein_placed'}

>  <ref_pdb>  (1330) 
175

>  <scratch_subdir>  (1330) 
/opt/xchem-fragalysis-2/maxwin/BulkDock/SCRATCH/511028/C19325-P245

>  <alias>  (1330) 
CNCn1ncc2c(C(=O)Nc3cc4c(c(-c5ccnc(OC)c5)c3)CN(C)C4)cc(F)cc21

>  <HIPPO Compound ID>  (1330) 
19325

>  <fragmenstein_runtime>  (1330) 
7.86201

$$$$
N#Cc1cc2c(cc1NC(=O)c1cc(F)cc3c1cn1c(N)n[nH]c31)CNC2
     RDKit          3D

 28 32  0  0  0  0  0  0  0  0999 V2000
   -7.9641    8.0277  -11.9896 N   0  0  0  0  0  0  0  0  0  0  0  0
   -7.9486    6.9278  -11.6132 C   0  0  0  0  0  0  0  0  0  0  0  0
   -8.0281    5.6222  -11.0181 C   0  0  0  0  0  0  0  0  0  0  0  0
   -8.0687    5.5978   -9.6090 C   0  0  0  0  0  0  0  0  0  0  0  0
   -8.3494    4.4087   -8.9661 C   0  0  0  0  0  0  0  0  0  0  0  0
   -8.5831    3.2476   -9.6885 C   0  0  0  0  0  0  0  0  0  0  0  0
   -8.5330    3.2419  -11.0767 C   0  0  0  0  0  0  0  0  0  0  0  0
   -8.2288    4.4322  -11.7602 C   0  0  0  0  0  0  0  0  0  0  0  0
   -8.1912    4.3661  -13.1638 N   0  0  0  0  0  0  0  0  0  0  0  0
   -7.3865    5.2077  -14.1919 C   0  0  0  0  0  0  0  0  0  0  0  0
   -6.6916    6.1341  -14.0337 O   0  0  0  0  0  0  0  0  0  0  0  0
   -7.6445    4.7975  -15.5942 C   0  0  0  0  0  0  0  0  0  0  0  0
   -8.9196    4.3689  -16.0584 C   0  0  0  0  0  0  0  0  0  0  0  0
   -9.2608    4.1803  -17.4406 C   0  0  0  0  0  0  0  0  0  0  0  0
  -10.5091    3.7866  -17.7355 F   0  0  0  0  0  0  0  0  0  0  0  0
   -8.3974    4.4085  -18.5170 C   0  0  0  0  0  0  0  0  0  0  0  0
   -7.1657    4.8260  -18.0519 C   0  0  0  0  0  0  0  0  0  0  0  0
   -6.7687    5.0070  -16.6747 C   0  0  0  0  0  0  0  0  0  0  0  0
   -5.4364    5.4107  -16.6701 C   0  0  0  0  0  0  0  0  0  0  0  0
   -5.0676    5.4842  -17.9915 N   0  0  0  0  0  0  0  0  0  0  0  0
   -3.9748    5.8025  -18.7987 C   0  0  0  0  0  0  0  0  0  0  0  0
   -2.7396    6.0748  -18.3129 N   0  0  0  0  0  0  0  0  0  0  0  0
   -4.3241    5.7647  -20.0585 N   0  0  0  0  0  0  0  0  0  0  0  0
   -5.6491    5.3388  -20.0555 N   0  0  0  0  0  0  0  0  0  0  0  0
   -6.1003    5.1734  -18.8062 C   0  0  0  0  0  0  0  0  0  0  0  0
   -8.8358    2.1298   -8.7258 C   0  0  0  0  0  0  0  0  0  0  0  0
   -9.1093    2.7930   -7.4243 N   0  0  0  0  0  0  0  0  0  0  0  0
   -8.4617    4.1164   -7.5073 C   0  0  0  0  0  0  0  0  0  0  0  0
  1  2  3  0
  2  3  1  0
  3  4  2  0
  4  5  1  0
  5  6  2  0
  6  7  1  0
  7  8  2  0
  8  9  1  0
  9 10  1  0
 10 11  2  0
 10 12  1  0
 12 13  2  0
 13 14  1  0
 14 15  1  0
 14 16  2  0
 16 17  1  0
 17 18  1  0
 18 19  2  0
 19 20  1  0
 20 21  1  0
 21 22  1  0
 21 23  2  0
 23 24  1  0
 24 25  1  0
  6 26  1  0
 26 27  1  0
 27 28  1  0
  8  3  1  0
 18 12  1  0
 25 20  1  0
 28  5  1  0
 25 17  2  0
M  END
>  <smiles>  (1331) 
C19603-P259

>  <fragmenstein_outcome>  (1331) 
acceptable

>  <inchikey>  (1331) 
AGYOOHJCOXDSGO-UHFFFAOYSA-N

>  <fragmenstein_mode>  (1331) 
expansion

>  <HIPPO Pose ID>  (1331) 
21046

>  <Energy>  (1331) 
118.958344

>  <fragmenstein_error>  (1331) 


>  <tags>  (1331) 
{'openbind_xx01zvns2b_c1_fragmenstein', 'fragmenstein_placed'}

>  <ref_pdb>  (1331) 
175

>  <scratch_subdir>  (1331) 
/opt/xchem-fragalysis-2/maxwin/BulkDock/SCRATCH/511028/C19603-P259

>  <alias>  (1331) 
N#Cc1cc2c(cc1NC(=O)c1cc(F)cc3c1cn1c(N)n[nH]c31)CNC2

>  <HIPPO Compound ID>  (1331) 
20547

>  <fragmenstein_runtime>  (1331) 
4.397649

$$$$
CC(=O)N=C(Nc1cc2c(cc1C#N)CNC2)c1cc(F)cc2[nH]ncc12
     RDKit          3D

 27 30  0  0  0  0  0  0  0  0999 V2000
   -4.7863    7.0565  -12.6208 C   0  0  0  0  0  0  0  0  0  0  0  0
   -5.4711    5.7285  -12.8169 C   0  0  0  0  0  0  0  0  0  0  0  0
   -5.3392    4.8290  -11.9942 O   0  0  0  0  0  0  0  0  0  0  0  0
   -6.1328    5.6321  -14.0066 N   0  0  0  0  0  0  0  0  0  0  0  0
   -7.1320    4.9510  -14.1989 C   0  0  0  0  0  0  0  0  0  0  0  0
   -8.1702    4.3095  -13.1596 N   0  0  0  0  0  0  0  0  0  0  0  0
   -8.2612    4.4351  -11.7676 C   0  0  0  0  0  0  0  0  0  0  0  0
   -8.4627    3.2520  -11.0307 C   0  0  0  0  0  0  0  0  0  0  0  0
   -8.5821    3.3054   -9.6493 C   0  0  0  0  0  0  0  0  0  0  0  0
   -8.4824    4.5083   -8.9687 C   0  0  0  0  0  0  0  0  0  0  0  0
   -8.2908    5.6918   -9.6502 C   0  0  0  0  0  0  0  0  0  0  0  0
   -8.2014    5.6594  -11.0562 C   0  0  0  0  0  0  0  0  0  0  0  0
   -8.1092    6.9320  -11.7070 C   0  0  0  0  0  0  0  0  0  0  0  0
   -8.0002    7.9990  -12.1532 N   0  0  0  0  0  0  0  0  0  0  0  0
   -8.5990    4.2551   -7.5048 C   0  0  0  0  0  0  0  0  0  0  0  0
   -9.1603    2.8926   -7.3876 N   0  0  0  0  0  0  0  0  0  0  0  0
   -8.7933    2.2044   -8.6582 C   0  0  0  0  0  0  0  0  0  0  0  0
   -7.5017    4.7704  -15.6690 C   0  0  0  0  0  0  0  0  0  0  0  0
   -8.8057    4.4394  -16.0838 C   0  0  0  0  0  0  0  0  0  0  0  0
   -9.1160    4.2933  -17.4351 C   0  0  0  0  0  0  0  0  0  0  0  0
  -10.3634    3.9568  -17.7922 F   0  0  0  0  0  0  0  0  0  0  0  0
   -8.1754    4.4968  -18.4340 C   0  0  0  0  0  0  0  0  0  0  0  0
   -6.8935    4.8560  -18.0224 C   0  0  0  0  0  0  0  0  0  0  0  0
   -5.7672    5.1306  -18.7532 N   0  0  0  0  0  0  0  0  0  0  0  0
   -4.6945    5.4428  -18.0017 N   0  0  0  0  0  0  0  0  0  0  0  0
   -5.1562    5.3374  -16.7517 C   0  0  0  0  0  0  0  0  0  0  0  0
   -6.5300    4.9899  -16.6836 C   0  0  0  0  0  0  0  0  0  0  0  0
  1  2  1  0
  2  3  2  0
  2  4  1  0
  4  5  2  3
  5  6  1  0
  6  7  1  0
  7  8  2  0
  8  9  1  0
  9 10  2  0
 10 11  1  0
 11 12  2  0
 12 13  1  0
 13 14  3  0
 10 15  1  0
 15 16  1  0
 16 17  1  0
  5 18  1  0
 18 19  2  0
 19 20  1  0
 20 21  1  0
 20 22  2  0
 22 23  1  0
 23 24  1  0
 24 25  1  0
 25 26  2  0
 26 27  1  0
 12  7  1  0
 27 18  1  0
 17  9  1  0
 27 23  2  0
M  END
>  <smiles>  (1332) 
C19868-P276

>  <fragmenstein_outcome>  (1332) 
acceptable

>  <inchikey>  (1332) 
RARHUYLKEARPSI-UHFFFAOYSA-N

>  <fragmenstein_mode>  (1332) 
expansion

>  <HIPPO Pose ID>  (1332) 
21047

>  <Energy>  (1332) 
83.447555

>  <fragmenstein_error>  (1332) 


>  <tags>  (1332) 
{'openbind_xx01zvns2b_c1_fragmenstein', 'fragmenstein_placed'}

>  <ref_pdb>  (1332) 
175

>  <scratch_subdir>  (1332) 
/opt/xchem-fragalysis-2/maxwin/BulkDock/SCRATCH/511028/C19868-P276

>  <alias>  (1332) 
CC(=O)N=C(Nc1cc2c(cc1C#N)CNC2)c1cc(F)cc2[nH]ncc12

>  <HIPPO Compound ID>  (1332) 
38812

>  <fragmenstein_runtime>  (1332) 
6.714456

$$$$
Cn1nc([C@@H]2CCOC2)c2c(C(=O)Nc3cc4c(cc3C#N)CNC4)cc(F)c(Cl)c21
     RDKit          3D

 31 35  0  0  0  0  0  0  0  0999 V2000
   -5.5318    5.0436  -19.7845 C   0  0  0  0  0  0  0  0  0  0  0  0
   -5.7714    5.0736  -18.3590 N   0  0  0  0  0  0  0  0  0  0  0  0
   -4.7587    5.4899  -17.5755 N   0  0  0  0  0  0  0  0  0  0  0  0
   -5.2603    5.5015  -16.3368 C   0  0  0  0  0  0  0  0  0  0  0  0
   -4.3820    5.9073  -15.1969 C   0  0  2  0  0  0  0  0  0  0  0  0
   -4.1818    7.4034  -15.0633 C   0  0  0  0  0  0  0  0  0  0  0  0
   -2.9701    7.4716  -14.1596 C   0  0  0  0  0  0  0  0  0  0  0  0
   -2.1549    6.3289  -14.4641 O   0  0  0  0  0  0  0  0  0  0  0  0
   -2.9365    5.4334  -15.2788 C   0  0  0  0  0  0  0  0  0  0  0  0
   -6.6324    5.1009  -16.3245 C   0  0  0  0  0  0  0  0  0  0  0  0
   -7.6586    4.9507  -15.3557 C   0  0  0  0  0  0  0  0  0  0  0  0
   -7.4977    5.4130  -13.9563 C   0  0  0  0  0  0  0  0  0  0  0  0
   -6.9698    6.4394  -13.7879 O   0  0  0  0  0  0  0  0  0  0  0  0
   -8.1745    4.4550  -12.9453 N   0  0  0  0  0  0  0  0  0  0  0  0
   -8.2552    4.5160  -11.5457 C   0  0  0  0  0  0  0  0  0  0  0  0
   -8.5244    3.2932  -10.9051 C   0  0  0  0  0  0  0  0  0  0  0  0
   -8.5946    3.2493   -9.5214 C   0  0  0  0  0  0  0  0  0  0  0  0
   -8.3958    4.3868   -8.7592 C   0  0  0  0  0  0  0  0  0  0  0  0
   -8.1624    5.6090   -9.3598 C   0  0  0  0  0  0  0  0  0  0  0  0
   -8.1164    5.6883  -10.7663 C   0  0  0  0  0  0  0  0  0  0  0  0
   -8.0696    7.0192  -11.3041 C   0  0  0  0  0  0  0  0  0  0  0  0
   -8.0956    8.1339  -11.6333 N   0  0  0  0  0  0  0  0  0  0  0  0
   -8.4952    4.0468   -7.3125 C   0  0  0  0  0  0  0  0  0  0  0  0
   -8.9704    2.6524   -7.2510 N   0  0  0  0  0  0  0  0  0  0  0  0
   -8.8492    2.0878   -8.6198 C   0  0  0  0  0  0  0  0  0  0  0  0
   -8.9217    4.5038  -15.7496 C   0  0  0  0  0  0  0  0  0  0  0  0
   -9.1767    4.2013  -17.0682 C   0  0  0  0  0  0  0  0  0  0  0  0
  -10.4100    3.7982  -17.4048 F   0  0  0  0  0  0  0  0  0  0  0  0
   -8.1994    4.3322  -18.0475 C   0  0  0  0  0  0  0  0  0  0  0  0
   -8.6374    3.8632  -19.6240 Cl  0  0  0  0  0  0  0  0  0  0  0  0
   -6.9276    4.7997  -17.6675 C   0  0  0  0  0  0  0  0  0  0  0  0
  1  2  1  0
  2  3  1  0
  3  4  2  0
  5  4  1  6
  5  6  1  0
  6  7  1  0
  7  8  1  0
  8  9  1  0
  4 10  1  0
 10 11  2  0
 11 12  1  0
 12 13  2  0
 12 14  1  0
 14 15  1  0
 15 16  2  0
 16 17  1  0
 17 18  2  0
 18 19  1  0
 19 20  2  0
 20 21  1  0
 21 22  3  0
 18 23  1  0
 23 24  1  0
 24 25  1  0
 11 26  1  0
 26 27  2  0
 27 28  1  0
 27 29  1  0
 29 30  1  0
 29 31  2  0
 31  2  1  0
  9  5  1  0
 31 10  1  0
 20 15  1  0
 25 17  1  0
M  END
>  <smiles>  (1333) 
C19871-P286

>  <fragmenstein_outcome>  (1333) 
acceptable

>  <inchikey>  (1333) 
DJUAGXZMFMEGBZ-UHFFFAOYSA-N

>  <fragmenstein_mode>  (1333) 
expansion

>  <HIPPO Pose ID>  (1333) 
21049

>  <Energy>  (1333) 
95.794503

>  <fragmenstein_error>  (1333) 


>  <tags>  (1333) 
{'openbind_xx01zvns2b_c1_fragmenstein', 'fragmenstein_placed'}

>  <ref_pdb>  (1333) 
175

>  <scratch_subdir>  (1333) 
/opt/xchem-fragalysis-2/maxwin/BulkDock/SCRATCH/511028/C19871-P286

>  <alias>  (1333) 
Cn1nc([C@@H]2CCOC2)c2c(C(=O)Nc3cc4c(cc3C#N)CNC4)cc(F)c(Cl)c21

>  <HIPPO Compound ID>  (1333) 
38687

>  <fragmenstein_runtime>  (1333) 
6.154093

$$$$
C[C@H]1c2cc(NC(=O)c3cc(F)cc4c3cnn4NC(C)(C)CO)c(C#N)c(O)c2CN1C
     RDKit          3D

 33 36  0  0  0  0  0  0  0  0999 V2000
   -9.7589    1.7759   -8.6162 C   0  0  0  0  0  0  0  0  0  0  0  0
   -8.6223    2.7303   -8.4037 C   0  0  1  0  0  0  0  0  0  0  0  0
   -8.4266    3.7088   -9.5375 C   0  0  0  0  0  0  0  0  0  0  0  0
   -8.3891    3.5287  -10.9174 C   0  0  0  0  0  0  0  0  0  0  0  0
   -8.1655    4.6485  -11.7368 C   0  0  0  0  0  0  0  0  0  0  0  0
   -8.0251    4.4247  -13.1171 N   0  0  0  0  0  0  0  0  0  0  0  0
   -7.3049    5.2602  -14.2026 C   0  0  0  0  0  0  0  0  0  0  0  0
   -6.6512    6.2236  -14.1065 O   0  0  0  0  0  0  0  0  0  0  0  0
   -7.5270    4.7827  -15.5938 C   0  0  0  0  0  0  0  0  0  0  0  0
   -8.7583    4.3027  -16.0507 C   0  0  0  0  0  0  0  0  0  0  0  0
   -8.9612    4.0819  -17.4104 C   0  0  0  0  0  0  0  0  0  0  0  0
  -10.1551    3.6456  -17.8295 F   0  0  0  0  0  0  0  0  0  0  0  0
   -7.9813    4.3451  -18.3639 C   0  0  0  0  0  0  0  0  0  0  0  0
   -6.7509    4.8221  -17.8971 C   0  0  0  0  0  0  0  0  0  0  0  0
   -6.4994    5.0019  -16.5382 C   0  0  0  0  0  0  0  0  0  0  0  0
   -5.1493    5.4015  -16.4859 C   0  0  0  0  0  0  0  0  0  0  0  0
   -4.5846    5.4552  -17.6900 N   0  0  0  0  0  0  0  0  0  0  0  0
   -5.6072    5.2521  -18.5435 N   0  0  0  0  0  0  0  0  0  0  0  0
   -5.5201    5.4614  -19.9459 N   0  0  0  0  0  0  0  0  0  0  0  0
   -4.5159    6.4534  -20.4077 C   0  0  0  0  0  0  0  0  0  0  0  0
   -4.3670    7.7076  -19.5093 C   0  0  0  0  0  0  0  0  0  0  0  0
   -4.9803    7.0110  -21.7762 C   0  0  0  0  0  0  0  0  0  0  0  0
   -3.1298    5.7735  -20.6294 C   0  0  0  0  0  0  0  0  0  0  0  0
   -2.7356    4.8714  -19.5994 O   0  0  0  0  0  0  0  0  0  0  0  0
   -8.0506    5.9390  -11.1508 C   0  0  0  0  0  0  0  0  0  0  0  0
   -8.1093    7.1449  -11.9252 C   0  0  0  0  0  0  0  0  0  0  0  0
   -8.2335    8.1846  -12.4298 N   0  0  0  0  0  0  0  0  0  0  0  0
   -8.0472    6.0815   -9.7540 C   0  0  0  0  0  0  0  0  0  0  0  0
   -7.9089    7.2698   -9.0926 O   0  0  0  0  0  0  0  0  0  0  0  0
   -8.2315    4.9682   -8.9713 C   0  0  0  0  0  0  0  0  0  0  0  0
   -8.3028    4.8806   -7.4804 C   0  0  0  0  0  0  0  0  0  0  0  0
   -8.9806    3.6071   -7.2657 N   0  0  0  0  0  0  0  0  0  0  0  0
   -8.8469    3.0640   -5.9352 C   0  0  0  0  0  0  0  0  0  0  0  0
  2  1  1  6
  2  3  1  0
  3  4  2  0
  4  5  1  0
  5  6  1  0
  6  7  1  0
  7  8  2  0
  7  9  1  0
  9 10  2  0
 10 11  1  0
 11 12  1  0
 11 13  2  0
 13 14  1  0
 14 15  2  0
 15 16  1  0
 16 17  2  0
 17 18  1  0
 18 19  1  0
 19 20  1  0
 20 21  1  0
 20 22  1  0
 20 23  1  0
 23 24  1  0
  5 25  2  0
 25 26  1  0
 26 27  3  0
 25 28  1  0
 28 29  1  0
 28 30  2  0
 30 31  1  0
 31 32  1  0
 32 33  1  0
 32  2  1  0
 30  3  1  0
 15  9  1  0
 18 14  1  0
M  END
>  <smiles>  (1334) 
C19646-P312

>  <fragmenstein_outcome>  (1334) 
acceptable

>  <inchikey>  (1334) 
HKNHRVKZBRVJLD-UHFFFAOYSA-N

>  <fragmenstein_mode>  (1334) 
expansion

>  <HIPPO Pose ID>  (1334) 
21050

>  <Energy>  (1334) 
72.688807

>  <fragmenstein_error>  (1334) 


>  <tags>  (1334) 
{'openbind_xx01zvns2b_c1_fragmenstein', 'fragmenstein_placed'}

>  <ref_pdb>  (1334) 
175

>  <scratch_subdir>  (1334) 
/opt/xchem-fragalysis-2/maxwin/BulkDock/SCRATCH/511028/C19646-P312

>  <alias>  (1334) 
C[C@H]1c2cc(NC(=O)c3cc(F)cc4c3cnn4NC(C)(C)CO)c(C#N)c(O)c2CN1C

>  <HIPPO Compound ID>  (1334) 
23406

>  <fragmenstein_runtime>  (1334) 
9.578458

$$$$
N#Cc1cc2c(cc1NC(=O)c1cc(F)cc3nn(Br)cc13)CNC2
     RDKit          3D

 25 28  0  0  0  0  0  0  0  0999 V2000
   -7.8792    7.9085  -11.7073 N   0  0  0  0  0  0  0  0  0  0  0  0
   -7.8951    6.7913  -11.3865 C   0  0  0  0  0  0  0  0  0  0  0  0
   -8.0125    5.4625  -10.8539 C   0  0  0  0  0  0  0  0  0  0  0  0
   -8.1331    5.3834   -9.4503 C   0  0  0  0  0  0  0  0  0  0  0  0
   -8.4563    4.1722   -8.8694 C   0  0  0  0  0  0  0  0  0  0  0  0
   -8.6333    3.0366   -9.6446 C   0  0  0  0  0  0  0  0  0  0  0  0
   -8.4959    3.0812  -11.0218 C   0  0  0  0  0  0  0  0  0  0  0  0
   -8.1751    4.3004  -11.6458 C   0  0  0  0  0  0  0  0  0  0  0  0
   -8.0982    4.2565  -13.0465 N   0  0  0  0  0  0  0  0  0  0  0  0
   -7.3361    5.1666  -14.0409 C   0  0  0  0  0  0  0  0  0  0  0  0
   -6.7175    6.1386  -13.8549 O   0  0  0  0  0  0  0  0  0  0  0  0
   -7.5397    4.7396  -15.4431 C   0  0  0  0  0  0  0  0  0  0  0  0
   -8.7684    4.2508  -15.9360 C   0  0  0  0  0  0  0  0  0  0  0  0
   -9.0017    3.9597  -17.3079 C   0  0  0  0  0  0  0  0  0  0  0  0
  -10.2295    3.5567  -17.6581 F   0  0  0  0  0  0  0  0  0  0  0  0
   -8.0489    4.0997  -18.3213 C   0  0  0  0  0  0  0  0  0  0  0  0
   -6.8243    4.6061  -17.8718 C   0  0  0  0  0  0  0  0  0  0  0  0
   -5.7156    4.8978  -18.5662 N   0  0  0  0  0  0  0  0  0  0  0  0
   -4.8384    5.3034  -17.6483 N   0  0  0  0  0  0  0  0  0  0  0  0
   -3.1126    5.7751  -18.1284 Br  0  0  0  0  0  0  0  0  0  0  0  0
   -5.3151    5.3636  -16.3773 C   0  0  0  0  0  0  0  0  0  0  0  0
   -6.6054    4.9082  -16.4722 C   0  0  0  0  0  0  0  0  0  0  0  0
   -8.9724    1.8858   -8.7536 C   0  0  0  0  0  0  0  0  0  0  0  0
   -9.3486    2.5025   -7.4569 N   0  0  0  0  0  0  0  0  0  0  0  0
   -8.7063    3.8330   -7.4380 C   0  0  0  0  0  0  0  0  0  0  0  0
  1  2  3  0
  2  3  1  0
  3  4  2  0
  4  5  1  0
  5  6  2  0
  6  7  1  0
  7  8  2  0
  8  9  1  0
  9 10  1  0
 10 11  2  0
 10 12  1  0
 12 13  2  0
 13 14  1  0
 14 15  1  0
 14 16  2  0
 16 17  1  0
 17 18  2  0
 18 19  1  0
 19 20  1  0
 19 21  1  0
 21 22  2  0
  6 23  1  0
 23 24  1  0
 24 25  1  0
  8  3  1  0
 22 12  1  0
 25  5  1  0
 22 17  1  0
M  END
>  <smiles>  (1335) 
C19653-P322

>  <fragmenstein_outcome>  (1335) 
acceptable

>  <inchikey>  (1335) 
YRYGILZTQMOAAE-UHFFFAOYSA-N

>  <fragmenstein_mode>  (1335) 
expansion

>  <HIPPO Pose ID>  (1335) 
21051

>  <Energy>  (1335) 
53.1635

>  <fragmenstein_error>  (1335) 


>  <tags>  (1335) 
{'openbind_xx01zvns2b_c1_fragmenstein', 'fragmenstein_placed'}

>  <ref_pdb>  (1335) 
175

>  <scratch_subdir>  (1335) 
/opt/xchem-fragalysis-2/maxwin/BulkDock/SCRATCH/511028/C19653-P322

>  <alias>  (1335) 
N#Cc1cc2c(cc1NC(=O)c1cc(F)cc3nn(Br)cc13)CNC2

>  <HIPPO Compound ID>  (1335) 
30006

>  <fragmenstein_runtime>  (1335) 
3.386494

$$$$
C[C@H]1NCc2cc(NC(=O)c3cc(F)cc4c3cnn4C(=O)OCc3ccccc3)c(C#N)cc21
     RDKit          3D

 35 39  0  0  0  0  0  0  0  0999 V2000
   -9.1297    4.7958   -6.3673 C   0  0  0  0  0  0  0  0  0  0  0  0
   -8.4421    3.8338   -7.3245 C   0  0  1  0  0  0  0  0  0  0  0  0
   -9.0493    2.4874   -7.2327 N   0  0  0  0  0  0  0  0  0  0  0  0
   -8.8935    1.8679   -8.5743 C   0  0  0  0  0  0  0  0  0  0  0  0
   -8.7121    3.0163   -9.5141 C   0  0  0  0  0  0  0  0  0  0  0  0
   -8.7010    3.0163  -10.9026 C   0  0  0  0  0  0  0  0  0  0  0  0
   -8.4807    4.2232  -11.5821 C   0  0  0  0  0  0  0  0  0  0  0  0
   -8.3874    4.1482  -12.9815 N   0  0  0  0  0  0  0  0  0  0  0  0
   -7.6886    5.0887  -13.9951 C   0  0  0  0  0  0  0  0  0  0  0  0
   -7.1486    6.1114  -13.8308 O   0  0  0  0  0  0  0  0  0  0  0  0
   -7.7993    4.6373  -15.4070 C   0  0  0  0  0  0  0  0  0  0  0  0
   -8.9886    4.1408  -15.9402 C   0  0  0  0  0  0  0  0  0  0  0  0
   -9.0956    3.9129  -17.3062 C   0  0  0  0  0  0  0  0  0  0  0  0
  -10.2725    3.5107  -17.7959 F   0  0  0  0  0  0  0  0  0  0  0  0
   -8.0413    4.1371  -18.1885 C   0  0  0  0  0  0  0  0  0  0  0  0
   -6.8466    4.6354  -17.6498 C   0  0  0  0  0  0  0  0  0  0  0  0
   -6.7180    4.8872  -16.2821 C   0  0  0  0  0  0  0  0  0  0  0  0
   -5.4151    5.3926  -16.1380 C   0  0  0  0  0  0  0  0  0  0  0  0
   -4.7580    5.4631  -17.2892 N   0  0  0  0  0  0  0  0  0  0  0  0
   -5.6230    4.9783  -18.2280 N   0  0  0  0  0  0  0  0  0  0  0  0
   -5.2007    4.7875  -19.5704 C   0  0  0  0  0  0  0  0  0  0  0  0
   -5.8706    4.1358  -20.3633 O   0  0  0  0  0  0  0  0  0  0  0  0
   -3.9668    5.2813  -19.8996 O   0  0  0  0  0  0  0  0  0  0  0  0
   -3.5633    6.6148  -19.5275 C   0  0  0  0  0  0  0  0  0  0  0  0
   -2.2863    6.5863  -18.7213 C   0  0  0  0  0  0  0  0  0  0  0  0
   -1.1785    5.8536  -19.1632 C   0  0  0  0  0  0  0  0  0  0  0  0
    0.0158    5.8614  -18.4404 C   0  0  0  0  0  0  0  0  0  0  0  0
    0.1186    6.6051  -17.2677 C   0  0  0  0  0  0  0  0  0  0  0  0
   -0.9725    7.3461  -16.8203 C   0  0  0  0  0  0  0  0  0  0  0  0
   -2.1655    7.3426  -17.5464 C   0  0  0  0  0  0  0  0  0  0  0  0
   -8.3532    5.4211  -10.8369 C   0  0  0  0  0  0  0  0  0  0  0  0
   -8.4326    6.7234  -11.4369 C   0  0  0  0  0  0  0  0  0  0  0  0
   -8.5874    7.7975  -11.8535 N   0  0  0  0  0  0  0  0  0  0  0  0
   -8.3262    5.3890   -9.4276 C   0  0  0  0  0  0  0  0  0  0  0  0
   -8.4949    4.1792   -8.7814 C   0  0  0  0  0  0  0  0  0  0  0  0
  2  1  1  1
  2  3  1  0
  3  4  1  0
  4  5  1  0
  5  6  2  0
  6  7  1  0
  7  8  1  0
  8  9  1  0
  9 10  2  0
  9 11  1  0
 11 12  2  0
 12 13  1  0
 13 14  1  0
 13 15  2  0
 15 16  1  0
 16 17  2  0
 17 18  1  0
 18 19  2  0
 19 20  1  0
 20 21  1  0
 21 22  2  0
 21 23  1  0
 23 24  1  0
 24 25  1  0
 25 26  2  0
 26 27  1  0
 27 28  2  0
 28 29  1  0
 29 30  2  0
  7 31  2  0
 31 32  1  0
 32 33  3  0
 31 34  1  0
 34 35  2  0
 35  2  1  0
 35  5  1  0
 17 11  1  0
 30 25  1  0
 20 16  1  0
M  END
>  <smiles>  (1336) 
C19674-P185

>  <fragmenstein_outcome>  (1336) 
acceptable

>  <inchikey>  (1336) 
UNRWJPBZHNJGMF-UHFFFAOYSA-N

>  <fragmenstein_mode>  (1336) 
expansion

>  <HIPPO Pose ID>  (1336) 
21054

>  <Energy>  (1336) 
163.98492

>  <fragmenstein_error>  (1336) 


>  <tags>  (1336) 
{'openbind_xx01zvns2b_c1_fragmenstein', 'fragmenstein_placed'}

>  <ref_pdb>  (1336) 
175

>  <scratch_subdir>  (1336) 
/opt/xchem-fragalysis-2/maxwin/BulkDock/SCRATCH/511028/C19674-P185

>  <alias>  (1336) 
C[C@H]1NCc2cc(NC(=O)c3cc(F)cc4c3cnn4C(=O)OCc3ccccc3)c(C#N)cc21

>  <HIPPO Compound ID>  (1336) 
248

>  <fragmenstein_runtime>  (1336) 
7.948533

$$$$
N#C[C@@H]1[C@H](NC(=O)c2cc(F)cc3c2cnn3N)CC2=C(CNC2)C12NNNN2
     RDKit          3D

 29 33  0  0  0  0  0  0  0  0999 V2000
   -9.2508    6.9794  -12.1803 N   0  0  0  0  0  0  0  0  0  0  0  0
   -8.5395    6.3100  -11.5482 C   0  0  0  0  0  0  0  0  0  0  0  0
   -7.5069    5.4889  -10.8794 C   0  0  2  0  0  0  0  0  0  0  0  0
   -7.3926    4.0762  -11.5259 C   0  0  2  0  0  0  0  0  0  0  0  0
   -7.5052    4.1205  -12.9840 N   0  0  0  0  0  0  0  0  0  0  0  0
   -6.8233    5.0386  -14.0108 C   0  0  0  0  0  0  0  0  0  0  0  0
   -6.1224    5.9556  -13.8552 O   0  0  0  0  0  0  0  0  0  0  0  0
   -7.2344    4.7205  -15.4119 C   0  0  0  0  0  0  0  0  0  0  0  0
   -8.5263    4.2873  -15.7611 C   0  0  0  0  0  0  0  0  0  0  0  0
   -8.8495    4.0527  -17.0952 C   0  0  0  0  0  0  0  0  0  0  0  0
  -10.0915    3.6649  -17.4103 F   0  0  0  0  0  0  0  0  0  0  0  0
   -7.9344    4.2450  -18.1258 C   0  0  0  0  0  0  0  0  0  0  0  0
   -6.6631    4.7145  -17.7704 C   0  0  0  0  0  0  0  0  0  0  0  0
   -6.3035    4.9561  -16.4460 C   0  0  0  0  0  0  0  0  0  0  0  0
   -4.9716    5.4186  -16.5287 C   0  0  0  0  0  0  0  0  0  0  0  0
   -4.5211    5.4784  -17.7823 N   0  0  0  0  0  0  0  0  0  0  0  0
   -5.5478    5.0278  -18.5115 N   0  0  0  0  0  0  0  0  0  0  0  0
   -5.4435    4.9386  -19.9023 N   0  0  0  0  0  0  0  0  0  0  0  0
   -8.3687    3.0237  -10.9731 C   0  0  0  0  0  0  0  0  0  0  0  0
   -8.5988    3.1649   -9.5202 C   0  0  0  0  0  0  0  0  0  0  0  0
   -8.3111    4.2472   -8.7930 C   0  0  0  0  0  0  0  0  0  0  0  0
   -8.6284    3.9715   -7.3625 C   0  0  0  0  0  0  0  0  0  0  0  0
   -9.3408    2.6831   -7.3534 N   0  0  0  0  0  0  0  0  0  0  0  0
   -9.0725    2.0514   -8.6560 C   0  0  0  0  0  0  0  0  0  0  0  0
   -7.6301    5.4818   -9.3070 C   0  0  0  0  0  0  0  0  0  0  0  0
   -6.2887    5.5152   -8.6626 N   0  0  0  0  0  0  0  0  0  0  0  0
   -6.0043    6.9058   -8.3959 N   0  0  0  0  0  0  0  0  0  0  0  0
   -7.1390    7.6391   -8.8003 N   0  0  0  0  0  0  0  0  0  0  0  0
   -8.2347    6.7235   -8.8017 N   0  0  0  0  0  0  0  0  0  0  0  0
  1  2  3  0
  3  2  1  6
  3  4  1  0
  4  5  1  6
  5  6  1  0
  6  7  2  0
  6  8  1  0
  8  9  2  0
  9 10  1  0
 10 11  1  0
 10 12  2  0
 12 13  1  0
 13 14  2  0
 14 15  1  0
 15 16  2  0
 16 17  1  0
 17 18  1  0
  4 19  1  0
 19 20  1  0
 20 21  2  0
 21 22  1  0
 22 23  1  0
 23 24  1  0
 21 25  1  0
 25 26  1  0
 26 27  1  0
 27 28  1  0
 28 29  1  0
 25  3  1  0
 14  8  1  0
 24 20  1  0
 29 25  1  0
 17 13  1  0
M  END
>  <smiles>  (1337) 
C19678-P185

>  <fragmenstein_outcome>  (1337) 
acceptable

>  <inchikey>  (1337) 
IWPYBROIVCZRSO-UHFFFAOYSA-N

>  <fragmenstein_mode>  (1337) 
expansion

>  <HIPPO Pose ID>  (1337) 
21055

>  <Energy>  (1337) 
-5.25973

>  <fragmenstein_error>  (1337) 


>  <tags>  (1337) 
{'openbind_xx01zvns2b_c1_fragmenstein', 'fragmenstein_placed'}

>  <ref_pdb>  (1337) 
175

>  <scratch_subdir>  (1337) 
/opt/xchem-fragalysis-2/maxwin/BulkDock/SCRATCH/511028/C19678-P185

>  <alias>  (1337) 
N#C[C@@H]1[C@H](NC(=O)c2cc(F)cc3c2cnn3N)CC2=C(CNC2)C12NNNN2

>  <HIPPO Compound ID>  (1337) 
43541

>  <fragmenstein_runtime>  (1337) 
5.011092

$$$$
N#Cc1cc2c(cc1NC(=O)c1cc(F)c(C#N)c3n[nH]cc13)CNC2
     RDKit          3D

 26 29  0  0  0  0  0  0  0  0999 V2000
   -8.7113    7.8300  -11.5375 N   0  0  0  0  0  0  0  0  0  0  0  0
   -8.5227    6.7541  -11.1395 C   0  0  0  0  0  0  0  0  0  0  0  0
   -8.4066    5.4331  -10.5859 C   0  0  0  0  0  0  0  0  0  0  0  0
   -8.4583    5.3298   -9.1847 C   0  0  0  0  0  0  0  0  0  0  0  0
   -8.6158    4.0794   -8.6167 C   0  0  0  0  0  0  0  0  0  0  0  0
   -8.7191    2.9442   -9.4082 C   0  0  0  0  0  0  0  0  0  0  0  0
   -8.6173    3.0140  -10.7883 C   0  0  0  0  0  0  0  0  0  0  0  0
   -8.4305    4.2671  -11.3879 C   0  0  0  0  0  0  0  0  0  0  0  0
   -8.2622    4.2820  -12.7770 N   0  0  0  0  0  0  0  0  0  0  0  0
   -7.5476    5.3017  -13.6894 C   0  0  0  0  0  0  0  0  0  0  0  0
   -7.0542    6.3273  -13.4355 O   0  0  0  0  0  0  0  0  0  0  0  0
   -7.5279    4.8828  -15.0981 C   0  0  0  0  0  0  0  0  0  0  0  0
   -8.6335    4.3395  -15.7886 C   0  0  0  0  0  0  0  0  0  0  0  0
   -8.6023    4.0424  -17.1810 C   0  0  0  0  0  0  0  0  0  0  0  0
   -9.7119    3.5083  -17.7166 F   0  0  0  0  0  0  0  0  0  0  0  0
   -7.4778    4.2722  -17.9897 C   0  0  0  0  0  0  0  0  0  0  0  0
   -7.2896    3.8072  -19.3039 C   0  0  0  0  0  0  0  0  0  0  0  0
   -7.0028    3.3021  -20.3080 N   0  0  0  0  0  0  0  0  0  0  0  0
   -6.3684    4.8368  -17.3434 C   0  0  0  0  0  0  0  0  0  0  0  0
   -5.1498    5.1818  -17.8062 N   0  0  0  0  0  0  0  0  0  0  0  0
   -4.4810    5.6290  -16.7348 N   0  0  0  0  0  0  0  0  0  0  0  0
   -5.2008    5.6047  -15.5820 C   0  0  0  0  0  0  0  0  0  0  0  0
   -6.4292    5.1126  -15.9342 C   0  0  0  0  0  0  0  0  0  0  0  0
   -8.9210    1.7501   -8.5359 C   0  0  0  0  0  0  0  0  0  0  0  0
   -9.1760    2.2885   -7.1752 N   0  0  0  0  0  0  0  0  0  0  0  0
   -8.7417    3.6976   -7.1813 C   0  0  0  0  0  0  0  0  0  0  0  0
  1  2  3  0
  2  3  1  0
  3  4  2  0
  4  5  1  0
  5  6  2  0
  6  7  1  0
  7  8  2  0
  8  9  1  0
  9 10  1  0
 10 11  2  0
 10 12  1  0
 12 13  2  0
 13 14  1  0
 14 15  1  0
 14 16  2  0
 16 17  1  0
 17 18  3  0
 16 19  1  0
 19 20  2  0
 20 21  1  0
 21 22  1  0
 22 23  2  0
  6 24  1  0
 24 25  1  0
 25 26  1  0
  8  3  1  0
 23 12  1  0
 26  5  1  0
 23 19  1  0
M  END
>  <smiles>  (1338) 
C19685-P185

>  <fragmenstein_outcome>  (1338) 
acceptable

>  <inchikey>  (1338) 
UMHSNQFWHDGLFH-UHFFFAOYSA-N

>  <fragmenstein_mode>  (1338) 
expansion

>  <HIPPO Pose ID>  (1338) 
21058

>  <Energy>  (1338) 
79.867524

>  <fragmenstein_error>  (1338) 


>  <tags>  (1338) 
{'openbind_xx01zvns2b_c1_fragmenstein', 'fragmenstein_placed'}

>  <ref_pdb>  (1338) 
175

>  <scratch_subdir>  (1338) 
/opt/xchem-fragalysis-2/maxwin/BulkDock/SCRATCH/511028/C19685-P185

>  <alias>  (1338) 
N#Cc1cc2c(cc1NC(=O)c1cc(F)c(C#N)c3n[nH]cc13)CNC2

>  <HIPPO Compound ID>  (1338) 
19685

>  <fragmenstein_runtime>  (1338) 
1.982658

$$$$
N#C[C@@H]1[C@@H](NC(=O)c2cc(F)cc3n[nH]cc23)CC2=C(CNC2)C12CCS(=O)(=O)CC2
     RDKit          3D

 31 35  0  0  0  0  0  0  0  0999 V2000
   -9.0090    7.5568  -11.7351 N   0  0  0  0  0  0  0  0  0  0  0  0
   -8.4560    6.6079  -11.3567 C   0  0  0  0  0  0  0  0  0  0  0  0
   -7.7316    5.3943  -10.9079 C   0  0  2  0  0  0  0  0  0  0  0  0
   -8.3935    4.1623  -11.5911 C   0  0  1  0  0  0  0  0  0  0  0  0
   -8.1809    4.0978  -13.0319 N   0  0  0  0  0  0  0  0  0  0  0  0
   -7.2769    4.9454  -13.9502 C   0  0  0  0  0  0  0  0  0  0  0  0
   -6.5028    5.7769  -13.6892 O   0  0  0  0  0  0  0  0  0  0  0  0
   -7.5032    4.6470  -15.3858 C   0  0  0  0  0  0  0  0  0  0  0  0
   -8.7306    4.2105  -15.9334 C   0  0  0  0  0  0  0  0  0  0  0  0
   -8.9324    3.9901  -17.3243 C   0  0  0  0  0  0  0  0  0  0  0  0
  -10.1518    3.5937  -17.7157 F   0  0  0  0  0  0  0  0  0  0  0  0
   -7.9565    4.1889  -18.3100 C   0  0  0  0  0  0  0  0  0  0  0  0
   -6.7375    4.6617  -17.8048 C   0  0  0  0  0  0  0  0  0  0  0  0
   -5.6056    4.9852  -18.4524 N   0  0  0  0  0  0  0  0  0  0  0  0
   -4.7532    5.3746  -17.4957 N   0  0  0  0  0  0  0  0  0  0  0  0
   -5.2620    5.3193  -16.2357 C   0  0  0  0  0  0  0  0  0  0  0  0
   -6.5488    4.8718  -16.3870 C   0  0  0  0  0  0  0  0  0  0  0  0
   -8.0589    2.8309  -10.9198 C   0  0  0  0  0  0  0  0  0  0  0  0
   -8.4060    2.9585   -9.4855 C   0  0  0  0  0  0  0  0  0  0  0  0
   -8.2485    4.0763   -8.7683 C   0  0  0  0  0  0  0  0  0  0  0  0
   -8.7953    3.8315   -7.4002 C   0  0  0  0  0  0  0  0  0  0  0  0
   -9.4546    2.5219   -7.4504 N   0  0  0  0  0  0  0  0  0  0  0  0
   -8.9839    1.8575   -8.6765 C   0  0  0  0  0  0  0  0  0  0  0  0
   -7.5317    5.3015   -9.3130 C   0  0  0  0  0  0  0  0  0  0  0  0
   -5.9841    5.0920   -9.1230 C   0  0  0  0  0  0  0  0  0  0  0  0
   -5.4836    5.0373   -7.6942 C   0  0  0  0  0  0  0  0  0  0  0  0
   -5.8198    6.5329   -6.8133 S   0  0  0  0  0  0  0  0  0  0  0  0
   -5.6595    6.2398   -5.4005 O   0  0  0  0  0  0  0  0  0  0  0  0
   -5.0686    7.6026   -7.4396 O   0  0  0  0  0  0  0  0  0  0  0  0
   -7.5460    6.7993   -7.1300 C   0  0  0  0  0  0  0  0  0  0  0  0
   -7.9227    6.6336   -8.6008 C   0  0  0  0  0  0  0  0  0  0  0  0
  1  2  3  0
  3  2  1  1
  3  4  1  0
  4  5  1  6
  5  6  1  0
  6  7  2  0
  6  8  1  0
  8  9  2  0
  9 10  1  0
 10 11  1  0
 10 12  2  0
 12 13  1  0
 13 14  2  0
 14 15  1  0
 15 16  1  0
 16 17  2  0
  4 18  1  0
 18 19  1  0
 19 20  2  0
 20 21  1  0
 21 22  1  0
 22 23  1  0
 20 24  1  0
 24 25  1  0
 25 26  1  0
 26 27  1  0
 27 28  2  0
 27 29  2  0
 27 30  1  0
 30 31  1  0
 24  3  1  0
 17  8  1  0
 23 19  1  0
 31 24  1  0
 17 13  1  0
M  END
>  <smiles>  (1339) 
C19705-P185

>  <fragmenstein_outcome>  (1339) 
acceptable

>  <inchikey>  (1339) 
YDKUPAXSODHNGN-UHFFFAOYSA-N

>  <fragmenstein_mode>  (1339) 
expansion

>  <HIPPO Pose ID>  (1339) 
21060

>  <Energy>  (1339) 
52.478015

>  <fragmenstein_error>  (1339) 


>  <tags>  (1339) 
{'openbind_xx01zvns2b_c1_fragmenstein', 'fragmenstein_placed'}

>  <ref_pdb>  (1339) 
175

>  <scratch_subdir>  (1339) 
/opt/xchem-fragalysis-2/maxwin/BulkDock/SCRATCH/511028/C19705-P185

>  <alias>  (1339) 
N#C[C@@H]1[C@@H](NC(=O)c2cc(F)cc3n[nH]cc23)CC2=C(CNC2)C12CCS(=O)(=O)CC2

>  <HIPPO Compound ID>  (1339) 
19705

>  <fragmenstein_runtime>  (1339) 
5.743593

$$$$
CC(C)[C@H]1NN[C@]2(Cc3c(cc(F)cc3C(=O)Nc3cc4c(cc3C#N)CNC4)N2)S1
     RDKit          3D

 31 35  0  0  0  0  0  0  0  0999 V2000
   -1.8345    6.0027  -20.9731 C   0  0  0  0  0  0  0  0  0  0  0  0
   -1.5470    6.7780  -19.6847 C   0  0  0  0  0  0  0  0  0  0  0  0
   -1.1566    8.2189  -20.0387 C   0  0  0  0  0  0  0  0  0  0  0  0
   -2.6910    6.7636  -18.6452 C   0  0  1  0  0  0  0  0  0  0  0  0
   -3.9543    7.3380  -19.1278 N   0  0  0  0  0  0  0  0  0  0  0  0
   -4.9284    7.0395  -18.0718 N   0  0  0  0  0  0  0  0  0  0  0  0
   -4.8764    5.5980  -17.7658 C   0  0  1  0  0  0  0  0  0  0  0  0
   -5.2842    5.3637  -16.2772 C   0  0  0  0  0  0  0  0  0  0  0  0
   -6.6838    4.8577  -16.4422 C   0  0  0  0  0  0  0  0  0  0  0  0
   -6.8891    4.5683  -17.7941 C   0  0  0  0  0  0  0  0  0  0  0  0
   -8.0972    4.0763  -18.2431 C   0  0  0  0  0  0  0  0  0  0  0  0
   -9.1145    3.9165  -17.3149 C   0  0  0  0  0  0  0  0  0  0  0  0
  -10.3241    3.5336  -17.7353 F   0  0  0  0  0  0  0  0  0  0  0  0
   -8.9246    4.1877  -15.9574 C   0  0  0  0  0  0  0  0  0  0  0  0
   -7.6904    4.6568  -15.4997 C   0  0  0  0  0  0  0  0  0  0  0  0
   -7.5210    5.0882  -14.0814 C   0  0  0  0  0  0  0  0  0  0  0  0
   -6.9294    6.0780  -13.8953 O   0  0  0  0  0  0  0  0  0  0  0  0
   -8.2715    4.1643  -13.0876 N   0  0  0  0  0  0  0  0  0  0  0  0
   -8.3651    4.2160  -11.6885 C   0  0  0  0  0  0  0  0  0  0  0  0
   -8.5714    2.9970  -11.0242 C   0  0  0  0  0  0  0  0  0  0  0  0
   -8.6444    2.9855   -9.6388 C   0  0  0  0  0  0  0  0  0  0  0  0
   -8.5050    4.1504   -8.9006 C   0  0  0  0  0  0  0  0  0  0  0  0
   -8.3324    5.3700   -9.5281 C   0  0  0  0  0  0  0  0  0  0  0  0
   -8.2951    5.4117  -10.9356 C   0  0  0  0  0  0  0  0  0  0  0  0
   -8.3857    6.7121  -11.5373 C   0  0  0  0  0  0  0  0  0  0  0  0
   -8.5543    7.7824  -11.9581 N   0  0  0  0  0  0  0  0  0  0  0  0
   -8.6090    3.8375   -7.4475 C   0  0  0  0  0  0  0  0  0  0  0  0
   -9.0334    2.4273   -7.3616 N   0  0  0  0  0  0  0  0  0  0  0  0
   -8.8550    1.8338   -8.7124 C   0  0  0  0  0  0  0  0  0  0  0  0
   -5.7346    4.7507  -18.5963 N   0  0  0  0  0  0  0  0  0  0  0  0
   -3.1386    5.1113  -18.0583 S   0  0  0  0  0  0  0  0  0  0  0  0
  1  2  1  0
  2  3  1  0
  4  2  1  6
  4  5  1  0
  5  6  1  0
  6  7  1  0
  7  8  1  1
  8  9  1  0
  9 10  2  0
 10 11  1  0
 11 12  2  0
 12 13  1  0
 12 14  1  0
 14 15  2  0
 15 16  1  0
 16 17  2  0
 16 18  1  0
 18 19  1  0
 19 20  2  0
 20 21  1  0
 21 22  2  0
 22 23  1  0
 23 24  2  0
 24 25  1  0
 25 26  3  0
 22 27  1  0
 27 28  1  0
 28 29  1  0
 10 30  1  0
  7 31  1  0
 31  4  1  0
 30  7  1  0
 15  9  1  0
 24 19  1  0
 29 21  1  0
M  END
>  <smiles>  (1340) 
C19714-P185

>  <fragmenstein_outcome>  (1340) 
acceptable

>  <inchikey>  (1340) 
RHBYNJLIGMJWTB-UHFFFAOYSA-N

>  <fragmenstein_mode>  (1340) 
expansion

>  <HIPPO Pose ID>  (1340) 
21061

>  <Energy>  (1340) 
65.353589

>  <fragmenstein_error>  (1340) 


>  <tags>  (1340) 
{'openbind_xx01zvns2b_c1_fragmenstein', 'fragmenstein_placed'}

>  <ref_pdb>  (1340) 
175

>  <scratch_subdir>  (1340) 
/opt/xchem-fragalysis-2/maxwin/BulkDock/SCRATCH/511028/C19714-P185

>  <alias>  (1340) 
CC(C)[C@H]1NN[C@]2(Cc3c(cc(F)cc3C(=O)Nc3cc4c(cc3C#N)CNC4)N2)S1

>  <HIPPO Compound ID>  (1340) 
19714

>  <fragmenstein_runtime>  (1340) 
5.425853

$$$$
Cc1c(C#N)c(NC(=O)c2cc(F)cc3c2=C[N@@H+]([O-])N=3)cc2c1CNC2
     RDKit          3D

 26 29  0  0  0  0  0  0  0  0999 V2000
   -8.2266    6.6523   -8.6085 C   0  0  0  0  0  0  0  0  0  0  0  0
   -8.3371    5.4004   -9.4353 C   0  0  0  0  0  0  0  0  0  0  0  0
   -8.2929    5.4423  -10.8539 C   0  0  0  0  0  0  0  0  0  0  0  0
   -8.4096    6.7311  -11.4849 C   0  0  0  0  0  0  0  0  0  0  0  0
   -8.6033    7.7831  -11.9406 N   0  0  0  0  0  0  0  0  0  0  0  0
   -8.3427    4.2470  -11.6190 C   0  0  0  0  0  0  0  0  0  0  0  0
   -8.2103    4.2029  -13.0168 N   0  0  0  0  0  0  0  0  0  0  0  0
   -7.4727    5.1611  -13.9901 C   0  0  0  0  0  0  0  0  0  0  0  0
   -6.9277    6.1750  -13.7868 O   0  0  0  0  0  0  0  0  0  0  0  0
   -7.5869    4.6666  -15.4037 C   0  0  0  0  0  0  0  0  0  0  0  0
   -8.7500    4.2038  -15.9014 C   0  0  0  0  0  0  0  0  0  0  0  0
   -8.9144    3.9352  -17.3173 C   0  0  0  0  0  0  0  0  0  0  0  0
  -10.1281    3.5063  -17.7151 F   0  0  0  0  0  0  0  0  0  0  0  0
   -7.9642    4.1523  -18.2348 C   0  0  0  0  0  0  0  0  0  0  0  0
   -6.6766    4.7027  -17.7815 C   0  0  0  0  0  0  0  0  0  0  0  0
   -6.5254    4.9328  -16.3362 C   0  0  0  0  0  0  0  0  0  0  0  0
   -5.2897    5.4273  -16.2513 C   0  0  0  0  0  0  0  0  0  0  0  0
   -4.6633    5.5824  -17.5726 N   0  0  1  0  0  0  0  0  0  0  0  0
   -3.5534    4.8376  -17.6305 O   0  0  0  0  0  0  0  0  0  0  0  0
   -5.6646    5.0336  -18.5178 N   0  0  0  0  0  0  0  0  0  0  0  0
   -8.5575    3.0216  -10.9741 C   0  0  0  0  0  0  0  0  0  0  0  0
   -8.6822    3.0041   -9.5953 C   0  0  0  0  0  0  0  0  0  0  0  0
   -8.5622    4.1660   -8.8366 C   0  0  0  0  0  0  0  0  0  0  0  0
   -8.7484    3.8079   -7.3950 C   0  0  0  0  0  0  0  0  0  0  0  0
   -9.3525    2.4613   -7.3997 N   0  0  0  0  0  0  0  0  0  0  0  0
   -8.9351    1.8451   -8.6836 C   0  0  0  0  0  0  0  0  0  0  0  0
  1  2  1  0
  2  3  2  0
  3  4  1  0
  4  5  3  0
  3  6  1  0
  6  7  1  0
  7  8  1  0
  8  9  2  0
  8 10  1  0
 10 11  2  0
 11 12  1  0
 12 13  1  0
 12 14  2  0
 14 15  1  0
 15 16  1  0
 16 17  2  0
 17 18  1  0
 18 19  1  1
 18 20  1  0
  6 21  2  0
 21 22  1  0
 22 23  2  0
 23 24  1  0
 24 25  1  0
 25 26  1  0
 23  2  1  0
 16 10  1  0
 26 22  1  0
 20 15  2  0
M  CHG  2  18   1  19  -1
M  END
>  <smiles>  (1341) 
C19725-P185

>  <fragmenstein_outcome>  (1341) 
acceptable

>  <inchikey>  (1341) 
BUZCFEUIUDTTKF-UHFFFAOYSA-N

>  <fragmenstein_mode>  (1341) 
expansion

>  <HIPPO Pose ID>  (1341) 
21064

>  <Energy>  (1341) 
39.153435

>  <fragmenstein_error>  (1341) 


>  <tags>  (1341) 
{'openbind_xx01zvns2b_c1_fragmenstein', 'fragmenstein_placed'}

>  <ref_pdb>  (1341) 
175

>  <scratch_subdir>  (1341) 
/opt/xchem-fragalysis-2/maxwin/BulkDock/SCRATCH/511028/C19725-P185

>  <alias>  (1341) 
Cc1c(C#N)c(NC(=O)c2cc(F)cc3c2=C[N@@H+]([O-])N=3)cc2c1CNC2

>  <HIPPO Compound ID>  (1341) 
19725

>  <fragmenstein_runtime>  (1341) 
2.810019

$$$$
COn1c2cc(F)cc(C(=O)Nc3cc4c(cc3C#N)CNC4)c2c(C)[n+]1[O-]
     RDKit          3D

 28 31  0  0  0  0  0  0  0  0999 V2000
   -4.9073    5.1895  -20.3727 C   0  0  0  0  0  0  0  0  0  0  0  0
   -5.6819    5.9249  -19.4535 O   0  0  0  0  0  0  0  0  0  0  0  0
   -5.6348    5.3084  -18.1967 N   0  0  0  0  0  0  0  0  0  0  0  0
   -6.7498    4.7990  -17.5694 C   0  0  0  0  0  0  0  0  0  0  0  0
   -7.9705    4.3461  -18.0746 C   0  0  0  0  0  0  0  0  0  0  0  0
   -8.9600    4.0244  -17.1574 C   0  0  0  0  0  0  0  0  0  0  0  0
  -10.1558    3.6303  -17.6109 F   0  0  0  0  0  0  0  0  0  0  0  0
   -8.7732    4.1859  -15.7930 C   0  0  0  0  0  0  0  0  0  0  0  0
   -7.5402    4.6366  -15.2877 C   0  0  0  0  0  0  0  0  0  0  0  0
   -7.4440    5.0645  -13.8660 C   0  0  0  0  0  0  0  0  0  0  0  0
   -6.8938    6.0725  -13.6582 O   0  0  0  0  0  0  0  0  0  0  0  0
   -8.1984    4.1179  -12.9040 N   0  0  0  0  0  0  0  0  0  0  0  0
   -8.3470    4.1651  -11.5125 C   0  0  0  0  0  0  0  0  0  0  0  0
   -8.5663    2.9426  -10.8627 C   0  0  0  0  0  0  0  0  0  0  0  0
   -8.7094    2.9355   -9.4858 C   0  0  0  0  0  0  0  0  0  0  0  0
   -8.6125    4.1050   -8.7412 C   0  0  0  0  0  0  0  0  0  0  0  0
   -8.4099    5.3252   -9.3559 C   0  0  0  0  0  0  0  0  0  0  0  0
   -8.3189    5.3651  -10.7595 C   0  0  0  0  0  0  0  0  0  0  0  0
   -8.4097    6.6639  -11.3678 C   0  0  0  0  0  0  0  0  0  0  0  0
   -8.5864    7.7274  -11.8028 N   0  0  0  0  0  0  0  0  0  0  0  0
   -8.8079    3.7796   -7.2983 C   0  0  0  0  0  0  0  0  0  0  0  0
   -9.4033    2.4282   -7.2880 N   0  0  0  0  0  0  0  0  0  0  0  0
   -8.9711    1.7916   -8.5601 C   0  0  0  0  0  0  0  0  0  0  0  0
   -6.4625    4.9062  -16.1795 C   0  0  0  0  0  0  0  0  0  0  0  0
   -5.0593    5.3196  -16.0026 C   0  0  0  0  0  0  0  0  0  0  0  0
   -4.2009    5.5178  -14.8255 C   0  0  0  0  0  0  0  0  0  0  0  0
   -4.5669    5.5603  -17.2301 N   0  0  0  0  0  0  0  0  0  0  0  0
   -3.4245    5.9218  -17.6129 O   0  0  0  0  0  0  0  0  0  0  0  0
  1  2  1  0
  2  3  1  0
  3  4  1  0
  4  5  2  0
  5  6  1  0
  6  7  1  0
  6  8  2  0
  8  9  1  0
  9 10  1  0
 10 11  2  0
 10 12  1  0
 12 13  1  0
 13 14  2  0
 14 15  1  0
 15 16  2  0
 16 17  1  0
 17 18  2  0
 18 19  1  0
 19 20  3  0
 16 21  1  0
 21 22  1  0
 22 23  1  0
  9 24  2  0
 24 25  1  0
 25 26  1  0
 25 27  2  0
 27 28  1  0
 27  3  1  0
 24  4  1  0
 18 13  1  0
 23 15  1  0
M  CHG  2  27   1  28  -1
M  END
>  <smiles>  (1342) 
C19728-P185

>  <fragmenstein_outcome>  (1342) 
acceptable

>  <inchikey>  (1342) 
IFTDDQCGVOHHMN-UHFFFAOYSA-N

>  <fragmenstein_mode>  (1342) 
expansion

>  <HIPPO Pose ID>  (1342) 
21065

>  <Energy>  (1342) 
106.765892

>  <fragmenstein_error>  (1342) 


>  <tags>  (1342) 
{'openbind_xx01zvns2b_c1_fragmenstein', 'fragmenstein_placed'}

>  <ref_pdb>  (1342) 
175

>  <scratch_subdir>  (1342) 
/opt/xchem-fragalysis-2/maxwin/BulkDock/SCRATCH/511028/C19728-P185

>  <alias>  (1342) 
COn1c2cc(F)cc(C(=O)Nc3cc4c(cc3C#N)CNC4)c2c(C)[n+]1[O-]

>  <HIPPO Compound ID>  (1342) 
19728

>  <fragmenstein_runtime>  (1342) 
4.751735

$$$$
CNCn1ncc2c(C(=O)Nc3cc4c(c(F)c3C#N)[C@]3(CCCC3=O)NC4)cc(F)cc21
     RDKit          3D

 33 37  0  0  0  0  0  0  0  0999 V2000
   -5.5019    4.5169  -20.0640 C   0  0  0  0  0  0  0  0  0  0  0  0
   -5.8894    5.8749  -19.8341 N   0  0  0  0  0  0  0  0  0  0  0  0
   -5.3965    6.4213  -18.6040 C   0  0  0  0  0  0  0  0  0  0  0  0
   -5.5640    5.5320  -17.4632 N   0  0  0  0  0  0  0  0  0  0  0  0
   -4.5604    5.5250  -16.5590 N   0  0  0  0  0  0  0  0  0  0  0  0
   -5.1876    5.2270  -15.4249 C   0  0  0  0  0  0  0  0  0  0  0  0
   -6.5386    4.8711  -15.6359 C   0  0  0  0  0  0  0  0  0  0  0  0
   -7.6372    4.5705  -14.8109 C   0  0  0  0  0  0  0  0  0  0  0  0
   -7.5310    4.9752  -13.3917 C   0  0  0  0  0  0  0  0  0  0  0  0
   -6.8787    5.9206  -13.1912 O   0  0  0  0  0  0  0  0  0  0  0  0
   -8.3876    4.1318  -12.4301 N   0  0  0  0  0  0  0  0  0  0  0  0
   -8.5429    4.2136  -11.0468 C   0  0  0  0  0  0  0  0  0  0  0  0
   -8.7856    3.0397  -10.3294 C   0  0  0  0  0  0  0  0  0  0  0  0
   -8.8642    3.1266   -8.9464 C   0  0  0  0  0  0  0  0  0  0  0  0
   -8.6855    4.3364   -8.2721 C   0  0  0  0  0  0  0  0  0  0  0  0
   -8.4843    5.4991   -8.9813 C   0  0  0  0  0  0  0  0  0  0  0  0
   -8.3929    6.6636   -8.3249 F   0  0  0  0  0  0  0  0  0  0  0  0
   -8.4475    5.4594  -10.3748 C   0  0  0  0  0  0  0  0  0  0  0  0
   -8.5179    6.7145  -11.0695 C   0  0  0  0  0  0  0  0  0  0  0  0
   -8.6746    7.7224  -11.6281 N   0  0  0  0  0  0  0  0  0  0  0  0
   -8.7610    4.1039   -6.7961 C   0  0  1  0  0  0  0  0  0  0  0  0
   -7.3984    4.2353   -6.0964 C   0  0  0  0  0  0  0  0  0  0  0  0
   -7.3258    5.6611   -5.5653 C   0  0  0  0  0  0  0  0  0  0  0  0
   -8.7283    5.9550   -5.0732 C   0  0  0  0  0  0  0  0  0  0  0  0
   -9.5835    5.1122   -5.9855 C   0  0  0  0  0  0  0  0  0  0  0  0
  -10.8065    5.2249   -6.0040 O   0  0  0  0  0  0  0  0  0  0  0  0
   -9.3339    2.7356   -6.6578 N   0  0  0  0  0  0  0  0  0  0  0  0
   -9.1129    2.0403   -7.9531 C   0  0  0  0  0  0  0  0  0  0  0  0
   -8.8413    4.1751  -15.4048 C   0  0  0  0  0  0  0  0  0  0  0  0
   -8.9491    4.1138  -16.7881 C   0  0  0  0  0  0  0  0  0  0  0  0
  -10.1138    3.7568  -17.3449 F   0  0  0  0  0  0  0  0  0  0  0  0
   -7.9159    4.5280  -17.6225 C   0  0  0  0  0  0  0  0  0  0  0  0
   -6.7181    4.9293  -17.0134 C   0  0  0  0  0  0  0  0  0  0  0  0
  1  2  1  0
  2  3  1  0
  3  4  1  0
  4  5  1  0
  5  6  2  0
  6  7  1  0
  7  8  2  0
  8  9  1  0
  9 10  2  0
  9 11  1  0
 11 12  1  0
 12 13  2  0
 13 14  1  0
 14 15  2  0
 15 16  1  0
 16 17  1  0
 16 18  2  0
 18 19  1  0
 19 20  3  0
 15 21  1  0
 21 22  1  1
 22 23  1  0
 23 24  1  0
 24 25  1  0
 25 26  2  0
 21 27  1  0
 27 28  1  0
  8 29  1  0
 29 30  2  0
 30 31  1  0
 30 32  1  0
 32 33  2  0
 33  4  1  0
 33  7  1  0
 18 12  1  0
 25 21  1  0
 28 14  1  0
M  END
>  <smiles>  (1343) 
C19761-P185

>  <fragmenstein_outcome>  (1343) 
acceptable

>  <inchikey>  (1343) 
DLCQMZVCFOJDLV-UHFFFAOYSA-N

>  <fragmenstein_mode>  (1343) 
expansion

>  <HIPPO Pose ID>  (1343) 
21071

>  <Energy>  (1343) 
151.354993

>  <fragmenstein_error>  (1343) 


>  <tags>  (1343) 
{'openbind_xx01zvns2b_c1_fragmenstein', 'fragmenstein_placed'}

>  <ref_pdb>  (1343) 
175

>  <scratch_subdir>  (1343) 
/opt/xchem-fragalysis-2/maxwin/BulkDock/SCRATCH/511028/C19761-P185

>  <alias>  (1343) 
CNCn1ncc2c(C(=O)Nc3cc4c(c(F)c3C#N)[C@]3(CCCC3=O)NC4)cc(F)cc21

>  <HIPPO Compound ID>  (1343) 
19761

>  <fragmenstein_runtime>  (1343) 
8.870875

$$$$
CNCn1ncc2c(C(=O)Nc3cc4c(cc3C#N)CN(C)C4)cc(F)cc21
     RDKit          3D

 28 31  0  0  0  0  0  0  0  0999 V2000
   -3.1109    6.0368  -19.3727 C   0  0  0  0  0  0  0  0  0  0  0  0
   -4.3247    6.8172  -19.1471 N   0  0  0  0  0  0  0  0  0  0  0  0
   -5.5067    5.9305  -19.1608 C   0  0  0  0  0  0  0  0  0  0  0  0
   -5.6739    5.3494  -17.8244 N   0  0  0  0  0  0  0  0  0  0  0  0
   -4.7417    5.6053  -16.8674 N   0  0  0  0  0  0  0  0  0  0  0  0
   -5.3779    5.3459  -15.7326 C   0  0  0  0  0  0  0  0  0  0  0  0
   -6.6925    4.8844  -15.9479 C   0  0  0  0  0  0  0  0  0  0  0  0
   -7.7878    4.5893  -15.1178 C   0  0  0  0  0  0  0  0  0  0  0  0
   -7.6816    5.0131  -13.7029 C   0  0  0  0  0  0  0  0  0  0  0  0
   -7.0877    5.9985  -13.5137 O   0  0  0  0  0  0  0  0  0  0  0  0
   -8.3560    4.0485  -12.7109 N   0  0  0  0  0  0  0  0  0  0  0  0
   -8.5193    4.1382  -11.3253 C   0  0  0  0  0  0  0  0  0  0  0  0
   -8.7288    2.9402  -10.6319 C   0  0  0  0  0  0  0  0  0  0  0  0
   -8.7882    2.9767   -9.2474 C   0  0  0  0  0  0  0  0  0  0  0  0
   -8.6287    4.1646   -8.5470 C   0  0  0  0  0  0  0  0  0  0  0  0
   -8.4525    5.3641   -9.2080 C   0  0  0  0  0  0  0  0  0  0  0  0
   -8.4337    5.3612  -10.6117 C   0  0  0  0  0  0  0  0  0  0  0  0
   -8.5194    6.6475  -11.2486 C   0  0  0  0  0  0  0  0  0  0  0  0
   -8.6911    7.7047  -11.7018 N   0  0  0  0  0  0  0  0  0  0  0  0
   -8.7291    3.9094   -7.0808 C   0  0  0  0  0  0  0  0  0  0  0  0
   -9.0162    2.4754   -6.9362 N   0  0  0  0  0  0  0  0  0  0  0  0
  -10.2373    2.2073   -6.2004 C   0  0  0  0  0  0  0  0  0  0  0  0
   -8.9999    1.8535   -8.2827 C   0  0  0  0  0  0  0  0  0  0  0  0
   -8.9653    4.1227  -15.7039 C   0  0  0  0  0  0  0  0  0  0  0  0
   -9.0471    3.9838  -17.0878 C   0  0  0  0  0  0  0  0  0  0  0  0
  -10.2043    3.5897  -17.6331 F   0  0  0  0  0  0  0  0  0  0  0  0
   -7.9963    4.3254  -17.9378 C   0  0  0  0  0  0  0  0  0  0  0  0
   -6.8291    4.7959  -17.3296 C   0  0  0  0  0  0  0  0  0  0  0  0
  1  2  1  0
  2  3  1  0
  3  4  1  0
  4  5  1  0
  5  6  2  0
  6  7  1  0
  7  8  2  0
  8  9  1  0
  9 10  2  0
  9 11  1  0
 11 12  1  0
 12 13  2  0
 13 14  1  0
 14 15  2  0
 15 16  1  0
 16 17  2  0
 17 18  1  0
 18 19  3  0
 15 20  1  0
 20 21  1  0
 21 22  1  0
 21 23  1  0
  8 24  1  0
 24 25  2  0
 25 26  1  0
 25 27  1  0
 27 28  2  0
 28  4  1  0
 28  7  1  0
 17 12  1  0
 23 14  1  0
M  END
>  <smiles>  (1344) 
C19766-P185

>  <fragmenstein_outcome>  (1344) 
acceptable

>  <inchikey>  (1344) 
DYKVHFPMVBYPSX-UHFFFAOYSA-N

>  <fragmenstein_mode>  (1344) 
expansion

>  <HIPPO Pose ID>  (1344) 
21072

>  <Energy>  (1344) 
125.079945

>  <fragmenstein_error>  (1344) 


>  <tags>  (1344) 
{'openbind_xx01zvns2b_c1_fragmenstein', 'fragmenstein_placed'}

>  <ref_pdb>  (1344) 
175

>  <scratch_subdir>  (1344) 
/opt/xchem-fragalysis-2/maxwin/BulkDock/SCRATCH/511028/C19766-P185

>  <alias>  (1344) 
CNCn1ncc2c(C(=O)Nc3cc4c(cc3C#N)CN(C)C4)cc(F)cc21

>  <HIPPO Compound ID>  (1344) 
21174

>  <fragmenstein_runtime>  (1344) 
4.718998

$$$$
N#Cc1cc2c(cc1NC(=O)c1cc(F)cc3c1C[C@]1(CCNC1)N3)CNC2
     RDKit          3D

 28 32  0  0  0  0  0  0  0  0999 V2000
   -8.5549    7.7716  -11.8476 N   0  0  0  0  0  0  0  0  0  0  0  0
   -8.3834    6.7006  -11.4292 C   0  0  0  0  0  0  0  0  0  0  0  0
   -8.2954    5.3970  -10.8320 C   0  0  0  0  0  0  0  0  0  0  0  0
   -8.3806    5.3485   -9.4279 C   0  0  0  0  0  0  0  0  0  0  0  0
   -8.5832    4.1255   -8.8192 C   0  0  0  0  0  0  0  0  0  0  0  0
   -8.6855    2.9606   -9.5700 C   0  0  0  0  0  0  0  0  0  0  0  0
   -8.5523    2.9770  -10.9491 C   0  0  0  0  0  0  0  0  0  0  0  0
   -8.3335    4.2033  -11.5941 C   0  0  0  0  0  0  0  0  0  0  0  0
   -8.2086    4.1723  -12.9896 N   0  0  0  0  0  0  0  0  0  0  0  0
   -7.4464    5.1169  -13.9528 C   0  0  0  0  0  0  0  0  0  0  0  0
   -6.8692    6.1095  -13.7399 O   0  0  0  0  0  0  0  0  0  0  0  0
   -7.5791    4.7050  -15.3845 C   0  0  0  0  0  0  0  0  0  0  0  0
   -8.7759    4.1607  -15.8666 C   0  0  0  0  0  0  0  0  0  0  0  0
   -8.9486    3.9494  -17.2365 C   0  0  0  0  0  0  0  0  0  0  0  0
  -10.1242    3.4891  -17.6798 F   0  0  0  0  0  0  0  0  0  0  0  0
   -7.9642    4.2825  -18.1544 C   0  0  0  0  0  0  0  0  0  0  0  0
   -6.7957    4.8441  -17.6814 C   0  0  0  0  0  0  0  0  0  0  0  0
   -6.5961    5.0450  -16.3162 C   0  0  0  0  0  0  0  0  0  0  0  0
   -5.2554    5.6857  -16.1104 C   0  0  0  0  0  0  0  0  0  0  0  0
   -4.7504    5.9021  -17.5597 C   0  0  1  0  0  0  0  0  0  0  0  0
   -4.4316    7.3612  -17.8885 C   0  0  0  0  0  0  0  0  0  0  0  0
   -3.4437    7.2824  -19.0528 C   0  0  0  0  0  0  0  0  0  0  0  0
   -2.9448    5.9036  -19.1133 N   0  0  0  0  0  0  0  0  0  0  0  0
   -3.4007    5.2512  -17.8750 C   0  0  0  0  0  0  0  0  0  0  0  0
   -5.8137    5.4447  -18.4715 N   0  0  0  0  0  0  0  0  0  0  0  0
   -8.9445    1.8127   -8.6473 C   0  0  0  0  0  0  0  0  0  0  0  0
   -9.3705    2.4438   -7.3695 N   0  0  0  0  0  0  0  0  0  0  0  0
   -8.7742    3.7946   -7.3771 C   0  0  0  0  0  0  0  0  0  0  0  0
  1  2  3  0
  2  3  1  0
  3  4  2  0
  4  5  1  0
  5  6  2  0
  6  7  1  0
  7  8  2  0
  8  9  1  0
  9 10  1  0
 10 11  2  0
 10 12  1  0
 12 13  2  0
 13 14  1  0
 14 15  1  0
 14 16  2  0
 16 17  1  0
 17 18  2  0
 18 19  1  0
 20 19  1  1
 20 21  1  0
 21 22  1  0
 22 23  1  0
 23 24  1  0
 20 25  1  0
  6 26  1  0
 26 27  1  0
 27 28  1  0
  8  3  1  0
 18 12  1  0
 24 20  1  0
 28  5  1  0
 25 17  1  0
M  END
>  <smiles>  (1345) 
C19781-P185

>  <fragmenstein_outcome>  (1345) 
acceptable

>  <inchikey>  (1345) 
DOOKTAGQJURRRK-UHFFFAOYSA-N

>  <fragmenstein_mode>  (1345) 
expansion

>  <HIPPO Pose ID>  (1345) 
21073

>  <Energy>  (1345) 
103.903913

>  <fragmenstein_error>  (1345) 


>  <tags>  (1345) 
{'openbind_xx01zvns2b_c1_fragmenstein', 'fragmenstein_placed'}

>  <ref_pdb>  (1345) 
175

>  <scratch_subdir>  (1345) 
/opt/xchem-fragalysis-2/maxwin/BulkDock/SCRATCH/511028/C19781-P185

>  <alias>  (1345) 
N#Cc1cc2c(cc1NC(=O)c1cc(F)cc3c1C[C@]1(CCNC1)N3)CNC2

>  <HIPPO Compound ID>  (1345) 
27792

>  <fragmenstein_runtime>  (1345) 
2.824052

$$$$
N#Cc1cc2c(cc1NC(=O)[C@@H]1C[C@H](F)C[C@@H]3[C@H]4COC[C@H]4C[C@@H]31)CNC2
     RDKit          3D

 27 31  0  0  0  0  0  0  0  0999 V2000
   -8.5190    7.7912  -11.7351 N   0  0  0  0  0  0  0  0  0  0  0  0
   -8.3513    6.7319  -11.2868 C   0  0  0  0  0  0  0  0  0  0  0  0
   -8.2731    5.4189  -10.7073 C   0  0  0  0  0  0  0  0  0  0  0  0
   -8.3620    5.3339   -9.3084 C   0  0  0  0  0  0  0  0  0  0  0  0
   -8.5893    4.0955   -8.7416 C   0  0  0  0  0  0  0  0  0  0  0  0
   -8.7106    2.9542   -9.5295 C   0  0  0  0  0  0  0  0  0  0  0  0
   -8.5854    3.0080  -10.9090 C   0  0  0  0  0  0  0  0  0  0  0  0
   -8.3386    4.2490  -11.5063 C   0  0  0  0  0  0  0  0  0  0  0  0
   -8.2313    4.3001  -12.8988 N   0  0  0  0  0  0  0  0  0  0  0  0
   -7.4235    5.2660  -13.8162 C   0  0  0  0  0  0  0  0  0  0  0  0
   -6.6652    6.1157  -13.5421 O   0  0  0  0  0  0  0  0  0  0  0  0
   -7.8153    5.0752  -15.3039 C   0  0  2  0  0  0  0  0  0  0  0  0
   -8.6616    3.9034  -15.7619 C   0  0  0  0  0  0  0  0  0  0  0  0
   -9.0594    3.9836  -17.2248 C   0  0  2  0  0  0  0  0  0  0  0  0
   -9.6538    2.8084  -17.5669 F   0  0  0  0  0  0  0  0  0  0  0  0
   -7.8837    4.1835  -18.1450 C   0  0  0  0  0  0  0  0  0  0  0  0
   -6.9098    5.2903  -17.7625 C   0  0  2  0  0  0  0  0  0  0  0  0
   -5.5220    5.0476  -18.4001 C   0  0  1  0  0  0  0  0  0  0  0  0
   -5.1211    6.0671  -19.4393 C   0  0  0  0  0  0  0  0  0  0  0  0
   -4.6757    7.2072  -18.7041 O   0  0  0  0  0  0  0  0  0  0  0  0
   -4.0958    6.7363  -17.4762 C   0  0  0  0  0  0  0  0  0  0  0  0
   -4.5107    5.2760  -17.2913 C   0  0  1  0  0  0  0  0  0  0  0  0
   -5.2541    4.9810  -15.9929 C   0  0  0  0  0  0  0  0  0  0  0  0
   -6.6624    5.4777  -16.2557 C   0  0  2  0  0  0  0  0  0  0  0  0
   -8.9773    1.7837   -8.6378 C   0  0  0  0  0  0  0  0  0  0  0  0
   -9.4081    2.3829   -7.3472 N   0  0  0  0  0  0  0  0  0  0  0  0
   -8.7958    3.7257   -7.3106 C   0  0  0  0  0  0  0  0  0  0  0  0
  1  2  3  0
  2  3  1  0
  3  4  2  0
  4  5  1  0
  5  6  2  0
  6  7  1  0
  7  8  2  0
  8  9  1  0
  9 10  1  0
 10 11  2  0
 12 10  1  1
 12 13  1  0
 13 14  1  0
 14 15  1  6
 14 16  1  0
 17 16  1  1
 17 18  1  0
 18 19  1  6
 19 20  1  0
 20 21  1  0
 22 21  1  1
 22 23  1  0
 24 23  1  1
  6 25  1  0
 25 26  1  0
 26 27  1  0
  8  3  1  0
 24 12  1  0
 27  5  1  0
 24 17  1  0
 22 18  1  0
M  END
>  <smiles>  (1346) 
C19783-P185

>  <fragmenstein_outcome>  (1346) 
acceptable

>  <inchikey>  (1346) 
MNZHGASRAJNLPA-UHFFFAOYSA-N

>  <fragmenstein_mode>  (1346) 
expansion

>  <HIPPO Pose ID>  (1346) 
21075

>  <Energy>  (1346) 
102.145587

>  <fragmenstein_error>  (1346) 


>  <tags>  (1346) 
{'openbind_xx01zvns2b_c1_fragmenstein', 'fragmenstein_placed'}

>  <ref_pdb>  (1346) 
175

>  <scratch_subdir>  (1346) 
/opt/xchem-fragalysis-2/maxwin/BulkDock/SCRATCH/511028/C19783-P185

>  <alias>  (1346) 
N#Cc1cc2c(cc1NC(=O)[C@@H]1C[C@H](F)C[C@@H]3[C@H]4COC[C@H]4C[C@@H]31)CNC2

>  <HIPPO Compound ID>  (1346) 
19783

>  <fragmenstein_runtime>  (1346) 
3.149464

$$$$
N#Cc1cc2c(cc1NC(=O)c1cc(F)cc3c1cn1cn[nH]c31)CNC2
     RDKit          3D

 27 31  0  0  0  0  0  0  0  0999 V2000
   -8.4617    7.7372  -11.8959 N   0  0  0  0  0  0  0  0  0  0  0  0
   -8.3085    6.6716  -11.4574 C   0  0  0  0  0  0  0  0  0  0  0  0
   -8.2458    5.3719  -10.8482 C   0  0  0  0  0  0  0  0  0  0  0  0
   -8.3326    5.3296   -9.4435 C   0  0  0  0  0  0  0  0  0  0  0  0
   -8.5673    4.1136   -8.8301 C   0  0  0  0  0  0  0  0  0  0  0  0
   -8.7001    2.9493   -9.5771 C   0  0  0  0  0  0  0  0  0  0  0  0
   -8.5751    2.9607  -10.9575 C   0  0  0  0  0  0  0  0  0  0  0  0
   -8.3209    4.1789  -11.6066 C   0  0  0  0  0  0  0  0  0  0  0  0
   -8.2220    4.1481  -13.0045 N   0  0  0  0  0  0  0  0  0  0  0  0
   -7.4016    5.0390  -13.9774 C   0  0  0  0  0  0  0  0  0  0  0  0
   -6.7441    5.9821  -13.7682 O   0  0  0  0  0  0  0  0  0  0  0  0
   -7.5981    4.6396  -15.3898 C   0  0  0  0  0  0  0  0  0  0  0  0
   -8.8472    4.1835  -15.8912 C   0  0  0  0  0  0  0  0  0  0  0  0
   -9.1254    3.9520  -17.2779 C   0  0  0  0  0  0  0  0  0  0  0  0
  -10.3734    3.5940  -17.6069 F   0  0  0  0  0  0  0  0  0  0  0  0
   -8.2143    4.1333  -18.3241 C   0  0  0  0  0  0  0  0  0  0  0  0
   -7.0153    4.6047  -17.8249 C   0  0  0  0  0  0  0  0  0  0  0  0
   -6.6887    4.8549  -16.4391 C   0  0  0  0  0  0  0  0  0  0  0  0
   -5.3919    5.3562  -16.3953 C   0  0  0  0  0  0  0  0  0  0  0  0
   -4.9799    5.4251  -17.7015 N   0  0  0  0  0  0  0  0  0  0  0  0
   -3.9168    5.8832  -18.4584 C   0  0  0  0  0  0  0  0  0  0  0  0
   -4.1813    5.7452  -19.7336 N   0  0  0  0  0  0  0  0  0  0  0  0
   -5.4396    5.1241  -19.7883 N   0  0  0  0  0  0  0  0  0  0  0  0
   -5.9323    4.9730  -18.5466 C   0  0  0  0  0  0  0  0  0  0  0  0
   -8.9765    1.8097   -8.6488 C   0  0  0  0  0  0  0  0  0  0  0  0
   -9.3915    2.4524   -7.3739 N   0  0  0  0  0  0  0  0  0  0  0  0
   -8.7682    3.7922   -7.3864 C   0  0  0  0  0  0  0  0  0  0  0  0
  1  2  3  0
  2  3  1  0
  3  4  2  0
  4  5  1  0
  5  6  2  0
  6  7  1  0
  7  8  2  0
  8  9  1  0
  9 10  1  0
 10 11  2  0
 10 12  1  0
 12 13  2  0
 13 14  1  0
 14 15  1  0
 14 16  2  0
 16 17  1  0
 17 18  1  0
 18 19  2  0
 19 20  1  0
 20 21  1  0
 21 22  2  0
 22 23  1  0
 23 24  1  0
  6 25  1  0
 25 26  1  0
 26 27  1  0
  8  3  1  0
 18 12  1  0
 24 20  1  0
 27  5  1  0
 24 17  2  0
M  END
>  <smiles>  (1347) 
C19786-P185

>  <fragmenstein_outcome>  (1347) 
acceptable

>  <inchikey>  (1347) 
GVHWYRZMTAEPDI-UHFFFAOYSA-N

>  <fragmenstein_mode>  (1347) 
expansion

>  <HIPPO Pose ID>  (1347) 
21077

>  <Energy>  (1347) 
134.511434

>  <fragmenstein_error>  (1347) 


>  <tags>  (1347) 
{'openbind_xx01zvns2b_c1_fragmenstein', 'fragmenstein_placed'}

>  <ref_pdb>  (1347) 
175

>  <scratch_subdir>  (1347) 
/opt/xchem-fragalysis-2/maxwin/BulkDock/SCRATCH/511028/C19786-P185

>  <alias>  (1347) 
N#Cc1cc2c(cc1NC(=O)c1cc(F)cc3c1cn1cn[nH]c31)CNC2

>  <HIPPO Compound ID>  (1347) 
19786

>  <fragmenstein_runtime>  (1347) 
4.610283

$$$$
N#Cc1cc2c(cc1NC(=O)c1cc(F)cc3c1CNC31CCOCC1)CNC2
     RDKit          3D

 29 33  0  0  0  0  0  0  0  0999 V2000
   -8.6799    7.7807  -11.6809 N   0  0  0  0  0  0  0  0  0  0  0  0
   -8.4980    6.7017  -11.2880 C   0  0  0  0  0  0  0  0  0  0  0  0
   -8.3900    5.3853  -10.7220 C   0  0  0  0  0  0  0  0  0  0  0  0
   -8.4415    5.3056   -9.3181 C   0  0  0  0  0  0  0  0  0  0  0  0
   -8.5987    4.0662   -8.7285 C   0  0  0  0  0  0  0  0  0  0  0  0
   -8.7040    2.9190   -9.5013 C   0  0  0  0  0  0  0  0  0  0  0  0
   -8.6063    2.9657  -10.8841 C   0  0  0  0  0  0  0  0  0  0  0  0
   -8.4183    4.2066  -11.5078 C   0  0  0  0  0  0  0  0  0  0  0  0
   -8.2519    4.2004  -12.8996 N   0  0  0  0  0  0  0  0  0  0  0  0
   -7.5318    5.2021  -13.8277 C   0  0  0  0  0  0  0  0  0  0  0  0
   -7.0308    6.2283  -13.5892 O   0  0  0  0  0  0  0  0  0  0  0  0
   -7.5235    4.7839  -15.2568 C   0  0  0  0  0  0  0  0  0  0  0  0
   -8.6298    4.2039  -15.8764 C   0  0  0  0  0  0  0  0  0  0  0  0
   -8.6236    4.0211  -17.2644 C   0  0  0  0  0  0  0  0  0  0  0  0
   -9.7217    3.5116  -17.8403 F   0  0  0  0  0  0  0  0  0  0  0  0
   -7.5428    4.4176  -18.0618 C   0  0  0  0  0  0  0  0  0  0  0  0
   -6.4504    5.0115  -17.4470 C   0  0  0  0  0  0  0  0  0  0  0  0
   -6.4430    5.1628  -16.0562 C   0  0  0  0  0  0  0  0  0  0  0  0
   -5.1964    5.8713  -15.6387 C   0  0  0  0  0  0  0  0  0  0  0  0
   -4.3203    5.8555  -16.8302 N   0  0  0  0  0  0  0  0  0  0  0  0
   -5.2291    5.7060  -18.0153 C   0  0  0  0  0  0  0  0  0  0  0  0
   -5.6147    7.0962  -18.5474 C   0  0  0  0  0  0  0  0  0  0  0  0
   -4.4359    7.8423  -19.1552 C   0  0  0  0  0  0  0  0  0  0  0  0
   -3.8371    7.0735  -20.1935 O   0  0  0  0  0  0  0  0  0  0  0  0
   -3.3310    5.8431  -19.6895 C   0  0  0  0  0  0  0  0  0  0  0  0
   -4.4541    4.9817  -19.1143 C   0  0  0  0  0  0  0  0  0  0  0  0
   -8.9007    1.7397   -8.6078 C   0  0  0  0  0  0  0  0  0  0  0  0
   -9.1373    2.2972   -7.2506 N   0  0  0  0  0  0  0  0  0  0  0  0
   -8.7179    3.7103   -7.2864 C   0  0  0  0  0  0  0  0  0  0  0  0
  1  2  3  0
  2  3  1  0
  3  4  2  0
  4  5  1  0
  5  6  2  0
  6  7  1  0
  7  8  2  0
  8  9  1  0
  9 10  1  0
 10 11  2  0
 10 12  1  0
 12 13  2  0
 13 14  1  0
 14 15  1  0
 14 16  2  0
 16 17  1  0
 17 18  2  0
 18 19  1  0
 19 20  1  0
 20 21  1  0
 21 22  1  0
 22 23  1  0
 23 24  1  0
 24 25  1  0
 25 26  1  0
  6 27  1  0
 27 28  1  0
 28 29  1  0
  8  3  1  0
 18 12  1  0
 26 21  1  0
 29  5  1  0
 21 17  1  0
M  END
>  <smiles>  (1348) 
C19793-P185

>  <fragmenstein_outcome>  (1348) 
acceptable

>  <inchikey>  (1348) 
WGDOBPNBZLAQOF-UHFFFAOYSA-N

>  <fragmenstein_mode>  (1348) 
expansion

>  <HIPPO Pose ID>  (1348) 
21079

>  <Energy>  (1348) 
73.117123

>  <fragmenstein_error>  (1348) 


>  <tags>  (1348) 
{'openbind_xx01zvns2b_c1_fragmenstein', 'fragmenstein_placed'}

>  <ref_pdb>  (1348) 
175

>  <scratch_subdir>  (1348) 
/opt/xchem-fragalysis-2/maxwin/BulkDock/SCRATCH/511028/C19793-P185

>  <alias>  (1348) 
N#Cc1cc2c(cc1NC(=O)c1cc(F)cc3c1CNC31CCOCC1)CNC2

>  <HIPPO Compound ID>  (1348) 
19793

>  <fragmenstein_runtime>  (1348) 
4.902362

$$$$
CC[C@H](N)c1cccc2c1Nc1cc(C(=O)Nc3ccc4c(c3)CNC4)cc3scc-2c13
     RDKit          3D

 32 37  0  0  0  0  0  0  0  0999 V2000
   -4.5723    8.9562  -19.4814 C   0  0  0  0  0  0  0  0  0  0  0  0
   -3.2223    8.4796  -20.0075 C   0  0  0  0  0  0  0  0  0  0  0  0
   -2.8018    7.0938  -19.4679 C   0  0  2  0  0  0  0  0  0  0  0  0
   -1.4181    6.8047  -19.8697 N   0  0  0  0  0  0  0  0  0  0  0  0
   -3.7665    6.0046  -19.9051 C   0  0  0  0  0  0  0  0  0  0  0  0
   -3.7702    5.5987  -21.2614 C   0  0  0  0  0  0  0  0  0  0  0  0
   -4.7394    4.7376  -21.7657 C   0  0  0  0  0  0  0  0  0  0  0  0
   -5.7732    4.3150  -20.9453 C   0  0  0  0  0  0  0  0  0  0  0  0
   -5.8123    4.7145  -19.6062 C   0  0  0  0  0  0  0  0  0  0  0  0
   -4.7464    5.4799  -19.0305 C   0  0  0  0  0  0  0  0  0  0  0  0
   -4.7543    5.7966  -17.6143 N   0  0  0  0  0  0  0  0  0  0  0  0
   -5.7629    5.3047  -16.7537 C   0  0  0  0  0  0  0  0  0  0  0  0
   -5.8245    5.5292  -15.3786 C   0  0  0  0  0  0  0  0  0  0  0  0
   -6.9427    5.0958  -14.6438 C   0  0  0  0  0  0  0  0  0  0  0  0
   -7.0234    5.4305  -13.1907 C   0  0  0  0  0  0  0  0  0  0  0  0
   -6.6787    6.4943  -12.8508 O   0  0  0  0  0  0  0  0  0  0  0  0
   -7.6663    4.2762  -12.3802 N   0  0  0  0  0  0  0  0  0  0  0  0
   -7.9216    4.1614  -11.0138 C   0  0  0  0  0  0  0  0  0  0  0  0
   -7.7862    5.2615  -10.1525 C   0  0  0  0  0  0  0  0  0  0  0  0
   -8.0741    5.1444   -8.7877 C   0  0  0  0  0  0  0  0  0  0  0  0
   -8.5024    3.9196   -8.3115 C   0  0  0  0  0  0  0  0  0  0  0  0
   -8.6304    2.8251   -9.1609 C   0  0  0  0  0  0  0  0  0  0  0  0
   -8.3483    2.9262  -10.5139 C   0  0  0  0  0  0  0  0  0  0  0  0
   -9.0642    1.6410   -8.3616 C   0  0  0  0  0  0  0  0  0  0  0  0
   -9.5613    2.2018   -7.0791 N   0  0  0  0  0  0  0  0  0  0  0  0
   -8.8786    3.5063   -6.9273 C   0  0  0  0  0  0  0  0  0  0  0  0
   -8.0430    4.4758  -15.2679 C   0  0  0  0  0  0  0  0  0  0  0  0
   -7.9787    4.2786  -16.6512 C   0  0  0  0  0  0  0  0  0  0  0  0
   -9.1533    3.6206  -17.7239 S   0  0  0  0  0  0  0  0  0  0  0  0
   -8.1544    3.8454  -19.0952 C   0  0  0  0  0  0  0  0  0  0  0  0
   -6.9324    4.3616  -18.7459 C   0  0  0  0  0  0  0  0  0  0  0  0
   -6.8542    4.6585  -17.3603 C   0  0  0  0  0  0  0  0  0  0  0  0
  1  2  1  0
  2  3  1  0
  3  4  1  6
  3  5  1  0
  5  6  2  0
  6  7  1  0
  7  8  2  0
  8  9  1  0
  9 10  2  0
 10 11  1  0
 11 12  1  0
 12 13  1  0
 13 14  2  0
 14 15  1  0
 15 16  2  0
 15 17  1  0
 17 18  1  0
 18 19  2  0
 19 20  1  0
 20 21  2  0
 21 22  1  0
 22 23  2  0
 22 24  1  0
 24 25  1  0
 25 26  1  0
 14 27  1  0
 27 28  2  0
 28 29  1  0
 29 30  1  0
 30 31  2  0
 31 32  1  0
 10  5  1  0
 32 12  2  0
 31  9  1  0
 23 18  1  0
 32 28  1  0
 26 21  1  0
M  END
>  <smiles>  (1349) 
C19990-P186

>  <fragmenstein_outcome>  (1349) 
acceptable

>  <inchikey>  (1349) 
HFIKCHXSWAQXPU-UHFFFAOYSA-N

>  <fragmenstein_mode>  (1349) 
expansion

>  <HIPPO Pose ID>  (1349) 
21096

>  <Energy>  (1349) 
85.330818

>  <fragmenstein_error>  (1349) 


>  <tags>  (1349) 
{'openbind_xx01zvns2b_c1_fragmenstein', 'fragmenstein_placed'}

>  <ref_pdb>  (1349) 
175

>  <scratch_subdir>  (1349) 
/opt/xchem-fragalysis-2/maxwin/BulkDock/SCRATCH/511028/C19990-P186

>  <alias>  (1349) 
CC[C@H](N)c1cccc2c1Nc1cc(C(=O)Nc3ccc4c(c3)CNC4)cc3scc-2c13

>  <HIPPO Compound ID>  (1349) 
31787

>  <fragmenstein_runtime>  (1349) 
6.185208

$$$$
NCc1cccc(-c2csc3cc(C(=O)Nc4ccc5c(c4)CNC5)cc(CN4CCCC4)c23)c1
     RDKit          3D

 35 40  0  0  0  0  0  0  0  0999 V2000
   -4.2680    8.9351  -20.4454 N   0  0  0  0  0  0  0  0  0  0  0  0
   -3.4472    7.7278  -20.4983 C   0  0  0  0  0  0  0  0  0  0  0  0
   -4.2782    6.4896  -20.7035 C   0  0  0  0  0  0  0  0  0  0  0  0
   -3.9239    5.5570  -21.6813 C   0  0  0  0  0  0  0  0  0  0  0  0
   -4.6328    4.3671  -21.7952 C   0  0  0  0  0  0  0  0  0  0  0  0
   -5.6565    4.0686  -20.8970 C   0  0  0  0  0  0  0  0  0  0  0  0
   -5.9790    4.9510  -19.8608 C   0  0  0  0  0  0  0  0  0  0  0  0
   -6.9338    4.5631  -18.8151 C   0  0  0  0  0  0  0  0  0  0  0  0
   -8.1304    3.9931  -19.2012 C   0  0  0  0  0  0  0  0  0  0  0  0
   -9.1413    3.6086  -17.9055 S   0  0  0  0  0  0  0  0  0  0  0  0
   -8.0530    4.2869  -16.7611 C   0  0  0  0  0  0  0  0  0  0  0  0
   -8.3242    4.4146  -15.3836 C   0  0  0  0  0  0  0  0  0  0  0  0
   -7.4166    5.1063  -14.6035 C   0  0  0  0  0  0  0  0  0  0  0  0
   -7.6845    5.4814  -13.1931 C   0  0  0  0  0  0  0  0  0  0  0  0
   -7.5038    6.5928  -12.8837 O   0  0  0  0  0  0  0  0  0  0  0  0
   -8.0864    4.2578  -12.3412 N   0  0  0  0  0  0  0  0  0  0  0  0
   -8.2521    4.1289  -10.9627 C   0  0  0  0  0  0  0  0  0  0  0  0
   -8.1085    5.2416  -10.1163 C   0  0  0  0  0  0  0  0  0  0  0  0
   -8.2542    5.1163   -8.7316 C   0  0  0  0  0  0  0  0  0  0  0  0
   -8.5662    3.8720   -8.2187 C   0  0  0  0  0  0  0  0  0  0  0  0
   -8.7078    2.7673   -9.0524 C   0  0  0  0  0  0  0  0  0  0  0  0
   -8.5456    2.8732  -10.4259 C   0  0  0  0  0  0  0  0  0  0  0  0
   -9.0205    1.5665   -8.2230 C   0  0  0  0  0  0  0  0  0  0  0  0
   -9.3442    2.0899   -6.8755 N   0  0  0  0  0  0  0  0  0  0  0  0
   -8.8055    3.4599   -6.8056 C   0  0  0  0  0  0  0  0  0  0  0  0
   -6.2155    5.5289  -15.1476 C   0  0  0  0  0  0  0  0  0  0  0  0
   -5.8361    5.2527  -16.4774 C   0  0  0  0  0  0  0  0  0  0  0  0
   -4.4219    5.5842  -16.9311 C   0  0  0  0  0  0  0  0  0  0  0  0
   -3.3546    5.7717  -15.9544 N   0  0  0  0  0  0  0  0  0  0  0  0
   -3.1565    7.1065  -15.4125 C   0  0  0  0  0  0  0  0  0  0  0  0
   -2.2944    6.8836  -14.1712 C   0  0  0  0  0  0  0  0  0  0  0  0
   -1.9779    5.3931  -14.1711 C   0  0  0  0  0  0  0  0  0  0  0  0
   -3.1564    4.7899  -14.9131 C   0  0  0  0  0  0  0  0  0  0  0  0
   -6.8544    4.7248  -17.3544 C   0  0  0  0  0  0  0  0  0  0  0  0
   -5.3507    6.1972  -19.8424 C   0  0  0  0  0  0  0  0  0  0  0  0
  1  2  1  0
  2  3  1  0
  3  4  2  0
  4  5  1  0
  5  6  2  0
  6  7  1  0
  7  8  1  0
  8  9  2  0
  9 10  1  0
 10 11  1  0
 11 12  2  0
 12 13  1  0
 13 14  1  0
 14 15  2  0
 14 16  1  0
 16 17  1  0
 17 18  2  0
 18 19  1  0
 19 20  2  0
 20 21  1  0
 21 22  2  0
 21 23  1  0
 23 24  1  0
 24 25  1  0
 13 26  2  0
 26 27  1  0
 27 28  1  0
 28 29  1  0
 29 30  1  0
 30 31  1  0
 31 32  1  0
 32 33  1  0
 27 34  2  0
  7 35  2  0
 35  3  1  0
 34  8  1  0
 34 11  1  0
 22 17  1  0
 33 29  1  0
 25 20  1  0
M  END
>  <smiles>  (1350) 
C19999-P186

>  <fragmenstein_outcome>  (1350) 
acceptable

>  <inchikey>  (1350) 
XCYFKRANQDMNNW-UHFFFAOYSA-N

>  <fragmenstein_mode>  (1350) 
expansion

>  <HIPPO Pose ID>  (1350) 
21099

>  <Energy>  (1350) 
92.490124

>  <fragmenstein_error>  (1350) 


>  <tags>  (1350) 
{'openbind_xx01zvns2b_c1_fragmenstein', 'fragmenstein_placed'}

>  <ref_pdb>  (1350) 
175

>  <scratch_subdir>  (1350) 
/opt/xchem-fragalysis-2/maxwin/BulkDock/SCRATCH/511028/C19999-P186

>  <alias>  (1350) 
NCc1cccc(-c2csc3cc(C(=O)Nc4ccc5c(c4)CNC5)cc(CN4CCCC4)c23)c1

>  <HIPPO Compound ID>  (1350) 
24973

>  <fragmenstein_runtime>  (1350) 
4.921948

$$$$
CC(=O)Nc1cc(C(=O)Nc2ccc3c(c2)CNC3)cc2scc(-c3cccc(CN)c3)c12
     RDKit          3D

 33 37  0  0  0  0  0  0  0  0999 V2000
   -2.0019    5.6416  -17.7159 C   0  0  0  0  0  0  0  0  0  0  0  0
   -3.0052    5.6363  -16.5819 C   0  0  0  0  0  0  0  0  0  0  0  0
   -2.7612    6.0190  -15.5049 O   0  0  0  0  0  0  0  0  0  0  0  0
   -4.3287    5.0715  -17.1757 N   0  0  0  0  0  0  0  0  0  0  0  0
   -5.6031    4.9563  -16.6079 C   0  0  0  0  0  0  0  0  0  0  0  0
   -5.7793    5.1726  -15.2375 C   0  0  0  0  0  0  0  0  0  0  0  0
   -7.0127    4.9375  -14.6424 C   0  0  0  0  0  0  0  0  0  0  0  0
   -7.2004    5.3273  -13.2238 C   0  0  0  0  0  0  0  0  0  0  0  0
   -6.9799    6.4346  -12.9266 O   0  0  0  0  0  0  0  0  0  0  0  0
   -7.7339    4.1503  -12.3771 N   0  0  0  0  0  0  0  0  0  0  0  0
   -8.0083    4.0676  -11.0133 C   0  0  0  0  0  0  0  0  0  0  0  0
   -7.8657    5.1848  -10.1735 C   0  0  0  0  0  0  0  0  0  0  0  0
   -8.1345    5.0942   -8.8033 C   0  0  0  0  0  0  0  0  0  0  0  0
   -8.5510    3.8772   -8.2994 C   0  0  0  0  0  0  0  0  0  0  0  0
   -8.6858    2.7668   -9.1275 C   0  0  0  0  0  0  0  0  0  0  0  0
   -8.4225    2.8421  -10.4855 C   0  0  0  0  0  0  0  0  0  0  0  0
   -9.0963    1.5949   -8.2994 C   0  0  0  0  0  0  0  0  0  0  0  0
   -9.5858    2.1777   -7.0242 N   0  0  0  0  0  0  0  0  0  0  0  0
   -8.9048    3.4865   -6.9030 C   0  0  0  0  0  0  0  0  0  0  0  0
   -8.0848    4.4367  -15.3791 C   0  0  0  0  0  0  0  0  0  0  0  0
   -7.9230    4.2794  -16.7682 C   0  0  0  0  0  0  0  0  0  0  0  0
   -9.1233    3.7073  -17.8589 S   0  0  0  0  0  0  0  0  0  0  0  0
   -8.1537    4.0349  -19.2087 C   0  0  0  0  0  0  0  0  0  0  0  0
   -6.9067    4.5182  -18.8715 C   0  0  0  0  0  0  0  0  0  0  0  0
   -5.9771    4.9297  -19.9244 C   0  0  0  0  0  0  0  0  0  0  0  0
   -5.6590    4.0618  -20.9694 C   0  0  0  0  0  0  0  0  0  0  0  0
   -4.6598    4.3975  -21.8776 C   0  0  0  0  0  0  0  0  0  0  0  0
   -3.9984    5.6172  -21.7799 C   0  0  0  0  0  0  0  0  0  0  0  0
   -4.3447    6.5389  -20.7838 C   0  0  0  0  0  0  0  0  0  0  0  0
   -3.5927    7.8465  -20.7405 C   0  0  0  0  0  0  0  0  0  0  0  0
   -4.0395    8.7694  -19.7019 N   0  0  0  0  0  0  0  0  0  0  0  0
   -5.3562    6.1883  -19.8743 C   0  0  0  0  0  0  0  0  0  0  0  0
   -6.7230    4.5918  -17.4244 C   0  0  0  0  0  0  0  0  0  0  0  0
  1  2  1  0
  2  3  2  0
  2  4  1  0
  4  5  1  0
  5  6  2  0
  6  7  1  0
  7  8  1  0
  8  9  2  0
  8 10  1  0
 10 11  1  0
 11 12  2  0
 12 13  1  0
 13 14  2  0
 14 15  1  0
 15 16  2  0
 15 17  1  0
 17 18  1  0
 18 19  1  0
  7 20  2  0
 20 21  1  0
 21 22  1  0
 22 23  1  0
 23 24  2  0
 24 25  1  0
 25 26  2  0
 26 27  1  0
 27 28  2  0
 28 29  1  0
 29 30  1  0
 30 31  1  0
 29 32  2  0
 24 33  1  0
 33  5  1  0
 16 11  1  0
 33 21  2  0
 19 14  1  0
 32 25  1  0
M  END
>  <smiles>  (1351) 
C20017-P186

>  <fragmenstein_outcome>  (1351) 
acceptable

>  <inchikey>  (1351) 
DMICLLIEWXZIGN-UHFFFAOYSA-N

>  <fragmenstein_mode>  (1351) 
expansion

>  <HIPPO Pose ID>  (1351) 
21104

>  <Energy>  (1351) 
70.144975

>  <fragmenstein_error>  (1351) 


>  <tags>  (1351) 
{'openbind_xx01zvns2b_c1_fragmenstein', 'fragmenstein_placed'}

>  <ref_pdb>  (1351) 
175

>  <scratch_subdir>  (1351) 
/opt/xchem-fragalysis-2/maxwin/BulkDock/SCRATCH/511028/C20017-P186

>  <alias>  (1351) 
CC(=O)Nc1cc(C(=O)Nc2ccc3c(c2)CNC3)cc2scc(-c3cccc(CN)c3)c12

>  <HIPPO Compound ID>  (1351) 
20017

>  <fragmenstein_runtime>  (1351) 
8.841695

$$$$
C[C@]1(NN)C[C@@H](C(=O)Nc2cc3c(cc2C#N)CNC3)[C@H](F)c2scc(-c3cccc(CN)c3)c21
     RDKit          3D

 35 39  0  0  0  0  0  0  0  0999 V2000
   -4.0182    4.7421  -16.7586 C   0  0  0  0  0  0  0  0  0  0  0  0
   -5.2518    5.6541  -16.6749 C   0  0  2  0  0  0  0  0  0  0  0  0
   -4.8840    6.9345  -17.3459 N   0  0  0  0  0  0  0  0  0  0  0  0
   -4.1158    7.8801  -16.5547 N   0  0  0  0  0  0  0  0  0  0  0  0
   -5.5965    5.9238  -15.1863 C   0  0  0  0  0  0  0  0  0  0  0  0
   -6.3835    4.8095  -14.4760 C   0  0  1  0  0  0  0  0  0  0  0  0
   -6.5957    5.2488  -13.0237 C   0  0  0  0  0  0  0  0  0  0  0  0
   -6.1171    6.2359  -12.6182 O   0  0  0  0  0  0  0  0  0  0  0  0
   -7.4483    4.1698  -12.2967 N   0  0  0  0  0  0  0  0  0  0  0  0
   -7.9481    4.1355  -10.9901 C   0  0  0  0  0  0  0  0  0  0  0  0
   -8.2710    2.8744  -10.4693 C   0  0  0  0  0  0  0  0  0  0  0  0
   -8.6236    2.7779   -9.1324 C   0  0  0  0  0  0  0  0  0  0  0  0
   -8.6346    3.8942   -8.3046 C   0  0  0  0  0  0  0  0  0  0  0  0
   -8.3739    5.1546   -8.8080 C   0  0  0  0  0  0  0  0  0  0  0  0
   -8.0843    5.2868  -10.1776 C   0  0  0  0  0  0  0  0  0  0  0  0
   -8.1213    6.6189  -10.7222 C   0  0  0  0  0  0  0  0  0  0  0  0
   -8.2536    7.7037  -11.1186 N   0  0  0  0  0  0  0  0  0  0  0  0
   -8.9885    3.4702   -6.9180 C   0  0  0  0  0  0  0  0  0  0  0  0
   -9.5586    2.1161   -7.0626 N   0  0  0  0  0  0  0  0  0  0  0  0
   -8.9978    1.5753   -8.3279 C   0  0  0  0  0  0  0  0  0  0  0  0
   -7.7180    4.5835  -15.1741 C   0  0  2  0  0  0  0  0  0  0  0  0
   -8.2257    3.4103  -14.6976 F   0  0  0  0  0  0  0  0  0  0  0  0
   -7.5550    4.5274  -16.6632 C   0  0  0  0  0  0  0  0  0  0  0  0
   -8.7824    3.8275  -17.6161 S   0  0  0  0  0  0  0  0  0  0  0  0
   -7.9543    4.2000  -19.0490 C   0  0  0  0  0  0  0  0  0  0  0  0
   -6.7390    4.8272  -18.8325 C   0  0  0  0  0  0  0  0  0  0  0  0
   -5.8906    5.1279  -19.9883 C   0  0  0  0  0  0  0  0  0  0  0  0
   -5.5522    4.1271  -20.8977 C   0  0  0  0  0  0  0  0  0  0  0  0
   -4.5558    4.3433  -21.8448 C   0  0  0  0  0  0  0  0  0  0  0  0
   -3.9023    5.5686  -21.9058 C   0  0  0  0  0  0  0  0  0  0  0  0
   -4.2918    6.6203  -21.0686 C   0  0  0  0  0  0  0  0  0  0  0  0
   -3.5092    7.9092  -21.1331 C   0  0  0  0  0  0  0  0  0  0  0  0
   -3.8839    8.9261  -20.1581 N   0  0  0  0  0  0  0  0  0  0  0  0
   -5.3570    6.4012  -20.1836 C   0  0  0  0  0  0  0  0  0  0  0  0
   -6.4815    5.0303  -17.4012 C   0  0  0  0  0  0  0  0  0  0  0  0
  2  1  1  1
  2  3  1  0
  3  4  1  0
  2  5  1  0
  5  6  1  0
  6  7  1  1
  7  8  2  0
  7  9  1  0
  9 10  1  0
 10 11  2  0
 11 12  1  0
 12 13  2  0
 13 14  1  0
 14 15  2  0
 15 16  1  0
 16 17  3  0
 13 18  1  0
 18 19  1  0
 19 20  1  0
  6 21  1  0
 21 22  1  1
 21 23  1  0
 23 24  1  0
 24 25  1  0
 25 26  2  0
 26 27  1  0
 27 28  2  0
 28 29  1  0
 29 30  2  0
 30 31  1  0
 31 32  1  0
 32 33  1  0
 31 34  2  0
 26 35  1  0
 35  2  1  0
 15 10  1  0
 35 23  2  0
 20 12  1  0
 34 27  1  0
M  END
>  <smiles>  (1352) 
C20039-P186

>  <fragmenstein_outcome>  (1352) 
acceptable

>  <inchikey>  (1352) 
CYYRDOMJJKMFEA-UHFFFAOYSA-N

>  <fragmenstein_mode>  (1352) 
expansion

>  <HIPPO Pose ID>  (1352) 
21115

>  <Energy>  (1352) 
129.521461

>  <fragmenstein_error>  (1352) 


>  <tags>  (1352) 
{'openbind_xx01zvns2b_c1_fragmenstein', 'fragmenstein_placed'}

>  <ref_pdb>  (1352) 
175

>  <scratch_subdir>  (1352) 
/opt/xchem-fragalysis-2/maxwin/BulkDock/SCRATCH/511028/C20039-P186

>  <alias>  (1352) 
C[C@]1(NN)C[C@@H](C(=O)Nc2cc3c(cc2C#N)CNC3)[C@H](F)c2scc(-c3cccc(CN)c3)c21

>  <HIPPO Compound ID>  (1352) 
22750

>  <fragmenstein_runtime>  (1352) 
5.626142

$$$$
NC[C@@H]1CCC[C@]2(C1)C(=O)c1cc(C(=O)Nc3ccc4c(c3)CNC4)cc3scc2c13
     RDKit          3D

 31 36  0  0  0  0  0  0  0  0999 V2000
   -4.5968    8.9581  -21.0325 N   0  0  0  0  0  0  0  0  0  0  0  0
   -3.6787    8.1489  -20.2445 C   0  0  0  0  0  0  0  0  0  0  0  0
   -4.0946    6.6817  -20.1416 C   0  0  2  0  0  0  0  0  0  0  0  0
   -3.9051    5.9045  -21.4515 C   0  0  0  0  0  0  0  0  0  0  0  0
   -4.1735    4.4203  -21.2232 C   0  0  0  0  0  0  0  0  0  0  0  0
   -5.5504    4.2178  -20.6114 C   0  0  0  0  0  0  0  0  0  0  0  0
   -5.7885    4.9847  -19.3049 C   0  0  2  0  0  0  0  0  0  0  0  0
   -5.5340    6.4824  -19.5861 C   0  0  0  0  0  0  0  0  0  0  0  0
   -4.9330    4.7264  -17.9183 C   0  0  0  0  0  0  0  0  0  0  0  0
   -3.7300    4.6239  -17.7535 O   0  0  0  0  0  0  0  0  0  0  0  0
   -5.8783    4.6854  -16.7729 C   0  0  0  0  0  0  0  0  0  0  0  0
   -5.7932    4.8050  -15.4047 C   0  0  0  0  0  0  0  0  0  0  0  0
   -6.9912    4.6690  -14.6795 C   0  0  0  0  0  0  0  0  0  0  0  0
   -6.9804    5.0343  -13.2370 C   0  0  0  0  0  0  0  0  0  0  0  0
   -6.4751    6.0423  -12.9344 O   0  0  0  0  0  0  0  0  0  0  0  0
   -7.7608    4.0102  -12.3846 N   0  0  0  0  0  0  0  0  0  0  0  0
   -7.9937    3.9659  -11.0123 C   0  0  0  0  0  0  0  0  0  0  0  0
   -7.7725    5.0900  -10.1999 C   0  0  0  0  0  0  0  0  0  0  0  0
   -8.0370    5.0452   -8.8262 C   0  0  0  0  0  0  0  0  0  0  0  0
   -8.5107    3.8624   -8.2911 C   0  0  0  0  0  0  0  0  0  0  0  0
   -8.7076    2.7419   -9.0924 C   0  0  0  0  0  0  0  0  0  0  0  0
   -8.4714    2.7788  -10.4554 C   0  0  0  0  0  0  0  0  0  0  0  0
   -9.1382    1.6018   -8.2321 C   0  0  0  0  0  0  0  0  0  0  0  0
   -9.5958    2.2300   -6.9676 N   0  0  0  0  0  0  0  0  0  0  0  0
   -8.8687    3.5176   -6.8833 C   0  0  0  0  0  0  0  0  0  0  0  0
   -8.2325    4.3364  -15.2965 C   0  0  0  0  0  0  0  0  0  0  0  0
   -8.2586    4.2561  -16.6941 C   0  0  0  0  0  0  0  0  0  0  0  0
   -9.4645    3.8830  -17.8653 S   0  0  0  0  0  0  0  0  0  0  0  0
   -8.4171    4.2520  -19.2029 C   0  0  0  0  0  0  0  0  0  0  0  0
   -7.1742    4.6274  -18.7675 C   0  0  0  0  0  0  0  0  0  0  0  0
   -7.1020    4.5135  -17.3774 C   0  0  0  0  0  0  0  0  0  0  0  0
  1  2  1  0
  3  2  1  6
  3  4  1  0
  4  5  1  0
  5  6  1  0
  7  6  1  6
  7  8  1  0
  7  9  1  0
  9 10  2  0
  9 11  1  0
 11 12  1  0
 12 13  2  0
 13 14  1  0
 14 15  2  0
 14 16  1  0
 16 17  1  0
 17 18  2  0
 18 19  1  0
 19 20  2  0
 20 21  1  0
 21 22  2  0
 21 23  1  0
 23 24  1  0
 24 25  1  0
 13 26  1  0
 26 27  2  0
 27 28  1  0
 28 29  1  0
 29 30  2  0
 30 31  1  0
  8  3  1  0
 31 11  2  0
 30  7  1  0
 22 17  1  0
 31 27  1  0
 25 20  1  0
M  END
>  <smiles>  (1353) 
C20051-P186

>  <fragmenstein_outcome>  (1353) 
acceptable

>  <inchikey>  (1353) 
LQCSMSXCOFQPQB-UHFFFAOYSA-N

>  <fragmenstein_mode>  (1353) 
expansion

>  <HIPPO Pose ID>  (1353) 
21123

>  <Energy>  (1353) 
117.970379

>  <fragmenstein_error>  (1353) 


>  <tags>  (1353) 
{'openbind_xx01zvns2b_c1_fragmenstein', 'fragmenstein_placed'}

>  <ref_pdb>  (1353) 
175

>  <scratch_subdir>  (1353) 
/opt/xchem-fragalysis-2/maxwin/BulkDock/SCRATCH/511028/C20051-P186

>  <alias>  (1353) 
NC[C@@H]1CCC[C@]2(C1)C(=O)c1cc(C(=O)Nc3ccc4c(c3)CNC4)cc3scc2c13

>  <HIPPO Compound ID>  (1353) 
20051

>  <fragmenstein_runtime>  (1353) 
5.089821

$$$$
NCc1cccc(-c2csc3cc(C(=O)Nc4ccc5c(c4)CNC5=O)cc(O)c23)c1
     RDKit          3D

 31 35  0  0  0  0  0  0  0  0999 V2000
   -4.1377    8.8648  -20.4507 N   0  0  0  0  0  0  0  0  0  0  0  0
   -3.3581    7.6332  -20.3729 C   0  0  0  0  0  0  0  0  0  0  0  0
   -4.2164    6.4230  -20.6242 C   0  0  0  0  0  0  0  0  0  0  0  0
   -3.9395    5.5553  -21.6825 C   0  0  0  0  0  0  0  0  0  0  0  0
   -4.7010    4.4032  -21.8569 C   0  0  0  0  0  0  0  0  0  0  0  0
   -5.7247    4.0850  -20.9651 C   0  0  0  0  0  0  0  0  0  0  0  0
   -5.9910    4.9155  -19.8745 C   0  0  0  0  0  0  0  0  0  0  0  0
   -6.9456    4.5161  -18.8378 C   0  0  0  0  0  0  0  0  0  0  0  0
   -8.1905    4.0300  -19.1777 C   0  0  0  0  0  0  0  0  0  0  0  0
   -9.1631    3.6950  -17.8278 S   0  0  0  0  0  0  0  0  0  0  0  0
   -7.9683    4.2627  -16.7286 C   0  0  0  0  0  0  0  0  0  0  0  0
   -8.1141    4.4030  -15.3298 C   0  0  0  0  0  0  0  0  0  0  0  0
   -7.0419    4.9175  -14.5960 C   0  0  0  0  0  0  0  0  0  0  0  0
   -7.1928    5.2932  -13.1674 C   0  0  0  0  0  0  0  0  0  0  0  0
   -6.8656    6.3700  -12.8554 O   0  0  0  0  0  0  0  0  0  0  0  0
   -7.7166    4.1175  -12.3112 N   0  0  0  0  0  0  0  0  0  0  0  0
   -8.0266    4.0537  -10.9523 C   0  0  0  0  0  0  0  0  0  0  0  0
   -7.9194    5.2010  -10.1421 C   0  0  0  0  0  0  0  0  0  0  0  0
   -8.1632    5.1375   -8.7680 C   0  0  0  0  0  0  0  0  0  0  0  0
   -8.5131    3.9111   -8.2426 C   0  0  0  0  0  0  0  0  0  0  0  0
   -8.6340    2.7653   -9.0252 C   0  0  0  0  0  0  0  0  0  0  0  0
   -8.4014    2.8245  -10.3925 C   0  0  0  0  0  0  0  0  0  0  0  0
   -8.9766    1.6019   -8.1537 C   0  0  0  0  0  0  0  0  0  0  0  0
   -9.1368    2.2138   -6.8505 N   0  0  0  0  0  0  0  0  0  0  0  0
   -8.7979    3.5490   -6.8497 C   0  0  0  0  0  0  0  0  0  0  0  0
   -8.7277    4.3027   -5.8974 O   0  0  0  0  0  0  0  0  0  0  0  0
   -5.8269    5.1913  -15.2085 C   0  0  0  0  0  0  0  0  0  0  0  0
   -5.6852    4.9945  -16.5782 C   0  0  0  0  0  0  0  0  0  0  0  0
   -4.4195    5.2215  -17.0803 O   0  0  0  0  0  0  0  0  0  0  0  0
   -6.7807    4.5991  -17.3941 C   0  0  0  0  0  0  0  0  0  0  0  0
   -5.2707    6.1117  -19.7511 C   0  0  0  0  0  0  0  0  0  0  0  0
  1  2  1  0
  2  3  1  0
  3  4  2  0
  4  5  1  0
  5  6  2  0
  6  7  1  0
  7  8  1  0
  8  9  2  0
  9 10  1  0
 10 11  1  0
 11 12  2  0
 12 13  1  0
 13 14  1  0
 14 15  2  0
 14 16  1  0
 16 17  1  0
 17 18  2  0
 18 19  1  0
 19 20  2  0
 20 21  1  0
 21 22  2  0
 21 23  1  0
 23 24  1  0
 24 25  1  0
 25 26  2  0
 13 27  2  0
 27 28  1  0
 28 29  1  0
 28 30  2  0
  7 31  2  0
 31  3  1  0
 30  8  1  0
 30 11  1  0
 22 17  1  0
 25 20  1  0
M  END
>  <smiles>  (1354) 
C20071-P186

>  <fragmenstein_outcome>  (1354) 
acceptable

>  <inchikey>  (1354) 
OZVGUFPXCMEQGJ-UHFFFAOYSA-N

>  <fragmenstein_mode>  (1354) 
expansion

>  <HIPPO Pose ID>  (1354) 
21135

>  <Energy>  (1354) 
48.784089

>  <fragmenstein_error>  (1354) 


>  <tags>  (1354) 
{'openbind_xx01zvns2b_c1_fragmenstein', 'fragmenstein_placed'}

>  <ref_pdb>  (1354) 
175

>  <scratch_subdir>  (1354) 
/opt/xchem-fragalysis-2/maxwin/BulkDock/SCRATCH/511028/C20071-P186

>  <alias>  (1354) 
NCc1cccc(-c2csc3cc(C(=O)Nc4ccc5c(c4)CNC5=O)cc(O)c23)c1

>  <HIPPO Compound ID>  (1354) 
20071

>  <fragmenstein_runtime>  (1354) 
3.293647

$$$$
CCc1ccc2c(c1CN)Nc1cc(C(=O)Nc3ccc4c(c3)CNC4)cc3scc-2c13
     RDKit          3D

 32 37  0  0  0  0  0  0  0  0999 V2000
   -1.7913    5.9508  -22.7178 C   0  0  0  0  0  0  0  0  0  0  0  0
   -3.1127    6.6728  -22.5157 C   0  0  0  0  0  0  0  0  0  0  0  0
   -3.9914    6.0091  -21.4742 C   0  0  0  0  0  0  0  0  0  0  0  0
   -4.8837    5.0257  -21.9270 C   0  0  0  0  0  0  0  0  0  0  0  0
   -5.8221    4.4604  -21.0743 C   0  0  0  0  0  0  0  0  0  0  0  0
   -5.8829    4.8623  -19.7454 C   0  0  0  0  0  0  0  0  0  0  0  0
   -4.8791    5.7262  -19.2060 C   0  0  0  0  0  0  0  0  0  0  0  0
   -3.9585    6.3472  -20.0940 C   0  0  0  0  0  0  0  0  0  0  0  0
   -3.0210    7.4235  -19.6060 C   0  0  0  0  0  0  0  0  0  0  0  0
   -3.6661    8.7347  -19.6569 N   0  0  0  0  0  0  0  0  0  0  0  0
   -4.8572    6.0065  -17.7775 N   0  0  0  0  0  0  0  0  0  0  0  0
   -5.7893    5.4085  -16.8925 C   0  0  0  0  0  0  0  0  0  0  0  0
   -5.8207    5.6146  -15.5140 C   0  0  0  0  0  0  0  0  0  0  0  0
   -6.8848    5.1083  -14.7438 C   0  0  0  0  0  0  0  0  0  0  0  0
   -6.9244    5.4602  -13.2912 C   0  0  0  0  0  0  0  0  0  0  0  0
   -6.5484    6.5233  -12.9817 O   0  0  0  0  0  0  0  0  0  0  0  0
   -7.4855    4.3020  -12.4269 N   0  0  0  0  0  0  0  0  0  0  0  0
   -7.7784    4.2483  -11.0640 C   0  0  0  0  0  0  0  0  0  0  0  0
   -7.6093    5.3762  -10.2446 C   0  0  0  0  0  0  0  0  0  0  0  0
   -7.8866    5.3189   -8.8749 C   0  0  0  0  0  0  0  0  0  0  0  0
   -8.3244    4.1200   -8.3455 C   0  0  0  0  0  0  0  0  0  0  0  0
   -8.5012    3.0027   -9.1525 C   0  0  0  0  0  0  0  0  0  0  0  0
   -8.2439    3.0486  -10.5154 C   0  0  0  0  0  0  0  0  0  0  0  0
   -8.9957    1.8666   -8.3226 C   0  0  0  0  0  0  0  0  0  0  0  0
   -8.9312    2.3280   -6.9120 N   0  0  0  0  0  0  0  0  0  0  0  0
   -8.7022    3.7864   -6.9438 C   0  0  0  0  0  0  0  0  0  0  0  0
   -7.9593    4.4176  -15.3379 C   0  0  0  0  0  0  0  0  0  0  0  0
   -7.9201    4.2296  -16.7272 C   0  0  0  0  0  0  0  0  0  0  0  0
   -9.0891    3.5259  -17.7778 S   0  0  0  0  0  0  0  0  0  0  0  0
   -8.1449    3.8289  -19.1747 C   0  0  0  0  0  0  0  0  0  0  0  0
   -6.9426    4.4057  -18.8552 C   0  0  0  0  0  0  0  0  0  0  0  0
   -6.8446    4.6850  -17.4688 C   0  0  0  0  0  0  0  0  0  0  0  0
  1  2  1  0
  2  3  1  0
  3  4  2  0
  4  5  1  0
  5  6  2  0
  6  7  1  0
  7  8  2  0
  8  9  1  0
  9 10  1  0
  7 11  1  0
 11 12  1  0
 12 13  1  0
 13 14  2  0
 14 15  1  0
 15 16  2  0
 15 17  1  0
 17 18  1  0
 18 19  2  0
 19 20  1  0
 20 21  2  0
 21 22  1  0
 22 23  2  0
 22 24  1  0
 24 25  1  0
 25 26  1  0
 14 27  1  0
 27 28  2  0
 28 29  1  0
 29 30  1  0
 30 31  2  0
 31 32  1  0
  8  3  1  0
 32 12  2  0
 31  6  1  0
 23 18  1  0
 32 28  1  0
 26 21  1  0
M  END
>  <smiles>  (1355) 
C20129-P186

>  <fragmenstein_outcome>  (1355) 
acceptable

>  <inchikey>  (1355) 
QNPSEMWHKKAJJL-UHFFFAOYSA-N

>  <fragmenstein_mode>  (1355) 
expansion

>  <HIPPO Pose ID>  (1355) 
21152

>  <Energy>  (1355) 
89.879791

>  <fragmenstein_error>  (1355) 


>  <tags>  (1355) 
{'openbind_xx01zvns2b_c1_fragmenstein', 'fragmenstein_placed'}

>  <ref_pdb>  (1355) 
175

>  <scratch_subdir>  (1355) 
/opt/xchem-fragalysis-2/maxwin/BulkDock/SCRATCH/511028/C20129-P186

>  <alias>  (1355) 
CCc1ccc2c(c1CN)Nc1cc(C(=O)Nc3ccc4c(c3)CNC4)cc3scc-2c13

>  <HIPPO Compound ID>  (1355) 
20129

>  <fragmenstein_runtime>  (1355) 
5.032461

$$$$
CC(C)c1nnc(-c2nc3c(C(=O)Nc4ccc5c(c4)[C@@H](N)NC5)cc(F)cc3n2N)s1
     RDKit          3D

 32 36  0  0  0  0  0  0  0  0999 V2000
    0.9938    5.6853  -15.9510 C   0  0  0  0  0  0  0  0  0  0  0  0
    0.4173    6.6479  -16.9906 C   0  0  0  0  0  0  0  0  0  0  0  0
    1.3556    6.7220  -18.1990 C   0  0  0  0  0  0  0  0  0  0  0  0
   -0.9774    6.2536  -17.4037 C   0  0  0  0  0  0  0  0  0  0  0  0
   -1.3086    5.7175  -18.5609 N   0  0  0  0  0  0  0  0  0  0  0  0
   -2.6624    5.4744  -18.6608 N   0  0  0  0  0  0  0  0  0  0  0  0
   -3.3219    5.8399  -17.5796 C   0  0  0  0  0  0  0  0  0  0  0  0
   -4.7272    5.6299  -17.3990 C   0  0  0  0  0  0  0  0  0  0  0  0
   -5.3511    5.6585  -16.2324 N   0  0  0  0  0  0  0  0  0  0  0  0
   -6.6286    5.2127  -16.4782 C   0  0  0  0  0  0  0  0  0  0  0  0
   -7.7207    5.0082  -15.6161 C   0  0  0  0  0  0  0  0  0  0  0  0
   -7.6960    5.5321  -14.2359 C   0  0  0  0  0  0  0  0  0  0  0  0
   -7.4711    6.6644  -14.0688 O   0  0  0  0  0  0  0  0  0  0  0  0
   -8.0907    4.4318  -13.2295 N   0  0  0  0  0  0  0  0  0  0  0  0
   -8.1953    4.4708  -11.8456 C   0  0  0  0  0  0  0  0  0  0  0  0
   -7.9615    5.6375  -11.1005 C   0  0  0  0  0  0  0  0  0  0  0  0
   -8.1006    5.6382   -9.7044 C   0  0  0  0  0  0  0  0  0  0  0  0
   -8.4820    4.4637   -9.0857 C   0  0  0  0  0  0  0  0  0  0  0  0
   -8.7170    3.3177   -9.8325 C   0  0  0  0  0  0  0  0  0  0  0  0
   -8.5695    3.2949  -11.2058 C   0  0  0  0  0  0  0  0  0  0  0  0
   -9.0490    2.1880   -8.9317 C   0  0  1  0  0  0  0  0  0  0  0  0
   -7.9195    1.3309   -8.8234 N   0  0  0  0  0  0  0  0  0  0  0  0
   -9.2528    2.7694   -7.6037 N   0  0  0  0  0  0  0  0  0  0  0  0
   -8.6534    4.1283   -7.6432 C   0  0  0  0  0  0  0  0  0  0  0  0
   -8.8990    4.4289  -16.1131 C   0  0  0  0  0  0  0  0  0  0  0  0
   -9.0045    4.1197  -17.4601 C   0  0  0  0  0  0  0  0  0  0  0  0
  -10.1449    3.5913  -17.9192 F   0  0  0  0  0  0  0  0  0  0  0  0
   -7.9705    4.3716  -18.3547 C   0  0  0  0  0  0  0  0  0  0  0  0
   -6.7911    4.9186  -17.8323 C   0  0  0  0  0  0  0  0  0  0  0  0
   -5.6130    5.3241  -18.4108 N   0  0  0  0  0  0  0  0  0  0  0  0
   -5.4323    5.5070  -19.8081 N   0  0  0  0  0  0  0  0  0  0  0  0
   -2.3191    6.5056  -16.3524 S   0  0  0  0  0  0  0  0  0  0  0  0
  1  2  1  0
  2  3  1  0
  2  4  1  0
  4  5  2  0
  5  6  1  0
  6  7  2  0
  7  8  1  0
  8  9  2  0
  9 10  1  0
 10 11  2  0
 11 12  1  0
 12 13  2  0
 12 14  1  0
 14 15  1  0
 15 16  2  0
 16 17  1  0
 17 18  2  0
 18 19  1  0
 19 20  2  0
 19 21  1  0
 21 22  1  1
 21 23  1  0
 23 24  1  0
 11 25  1  0
 25 26  2  0
 26 27  1  0
 26 28  1  0
 28 29  2  0
 29 30  1  0
 30 31  1  0
  7 32  1  0
 32  4  1  0
 30  8  1  0
 29 10  1  0
 20 15  1  0
 24 18  1  0
M  END
>  <smiles>  (1356) 
C20233-P187

>  <fragmenstein_outcome>  (1356) 
acceptable

>  <inchikey>  (1356) 
LFVFZTYMJAXTQX-UHFFFAOYSA-N

>  <fragmenstein_mode>  (1356) 
expansion

>  <HIPPO Pose ID>  (1356) 
21198

>  <Energy>  (1356) 
-1.283448

>  <fragmenstein_error>  (1356) 


>  <tags>  (1356) 
{'openbind_xx01zvns2b_c1_fragmenstein', 'fragmenstein_placed'}

>  <ref_pdb>  (1356) 
175

>  <scratch_subdir>  (1356) 
/opt/xchem-fragalysis-2/maxwin/BulkDock/SCRATCH/511028/C20233-P187

>  <alias>  (1356) 
CC(C)c1nnc(-c2nc3c(C(=O)Nc4ccc5c(c4)[C@@H](N)NC5)cc(F)cc3n2N)s1

>  <HIPPO Compound ID>  (1356) 
42950

>  <fragmenstein_runtime>  (1356) 
5.158447

$$$$
CC(C)c1nnc(-c2nc3c(C(=O)Nc4ccc5c(c4)CNC5)cc(F)c(C#N)c3[nH]2)s1
     RDKit          3D

 32 36  0  0  0  0  0  0  0  0999 V2000
    1.0382    5.8394  -15.8109 C   0  0  0  0  0  0  0  0  0  0  0  0
    0.5946    5.9848  -17.2652 C   0  0  0  0  0  0  0  0  0  0  0  0
    1.2947    7.1694  -17.9265 C   0  0  0  0  0  0  0  0  0  0  0  0
   -0.8971    6.0557  -17.4849 C   0  0  0  0  0  0  0  0  0  0  0  0
   -1.4411    5.9560  -18.6837 N   0  0  0  0  0  0  0  0  0  0  0  0
   -2.8135    5.8895  -18.6369 N   0  0  0  0  0  0  0  0  0  0  0  0
   -3.2702    5.9520  -17.4027 C   0  0  0  0  0  0  0  0  0  0  0  0
   -4.6511    5.7344  -17.1130 C   0  0  0  0  0  0  0  0  0  0  0  0
   -5.2724    5.8343  -15.9530 N   0  0  0  0  0  0  0  0  0  0  0  0
   -6.5503    5.3544  -16.1615 C   0  0  0  0  0  0  0  0  0  0  0  0
   -7.6354    5.1311  -15.2901 C   0  0  0  0  0  0  0  0  0  0  0  0
   -7.5703    5.5621  -13.8805 C   0  0  0  0  0  0  0  0  0  0  0  0
   -7.3466    6.6836  -13.6441 O   0  0  0  0  0  0  0  0  0  0  0  0
   -7.8846    4.3796  -12.9313 N   0  0  0  0  0  0  0  0  0  0  0  0
   -8.0754    4.3531  -11.5518 C   0  0  0  0  0  0  0  0  0  0  0  0
   -7.9441    5.5123  -10.7730 C   0  0  0  0  0  0  0  0  0  0  0  0
   -8.1290    5.4668   -9.3870 C   0  0  0  0  0  0  0  0  0  0  0  0
   -8.4572    4.2548   -8.8066 C   0  0  0  0  0  0  0  0  0  0  0  0
   -8.6036    3.1096   -9.5769 C   0  0  0  0  0  0  0  0  0  0  0  0
   -8.4073    3.1354  -10.9488 C   0  0  0  0  0  0  0  0  0  0  0  0
   -8.9595    1.9589   -8.6987 C   0  0  0  0  0  0  0  0  0  0  0  0
   -9.1521    2.5205   -7.3341 N   0  0  0  0  0  0  0  0  0  0  0  0
   -8.6899    3.9237   -7.3734 C   0  0  0  0  0  0  0  0  0  0  0  0
   -8.8142    4.5353  -15.7799 C   0  0  0  0  0  0  0  0  0  0  0  0
   -8.9138    4.1707  -17.1177 C   0  0  0  0  0  0  0  0  0  0  0  0
  -10.0323    3.5746  -17.5484 F   0  0  0  0  0  0  0  0  0  0  0  0
   -7.8591    4.3826  -17.9923 C   0  0  0  0  0  0  0  0  0  0  0  0
   -7.7892    3.8452  -19.3010 C   0  0  0  0  0  0  0  0  0  0  0  0
   -7.4743    3.3446  -20.3010 N   0  0  0  0  0  0  0  0  0  0  0  0
   -6.7033    4.9880  -17.4949 C   0  0  0  0  0  0  0  0  0  0  0  0
   -5.5040    5.2892  -18.0868 N   0  0  0  0  0  0  0  0  0  0  0  0
   -2.0623    6.2038  -16.2206 S   0  0  0  0  0  0  0  0  0  0  0  0
  1  2  1  0
  2  3  1  0
  2  4  1  0
  4  5  2  0
  5  6  1  0
  6  7  2  0
  7  8  1  0
  8  9  2  0
  9 10  1  0
 10 11  2  0
 11 12  1  0
 12 13  2  0
 12 14  1  0
 14 15  1  0
 15 16  2  0
 16 17  1  0
 17 18  2  0
 18 19  1  0
 19 20  2  0
 19 21  1  0
 21 22  1  0
 22 23  1  0
 11 24  1  0
 24 25  2  0
 25 26  1  0
 25 27  1  0
 27 28  1  0
 28 29  3  0
 27 30  2  0
 30 31  1  0
  7 32  1  0
 32  4  1  0
 31  8  1  0
 30 10  1  0
 20 15  1  0
 23 18  1  0
M  END
>  <smiles>  (1357) 
C20244-P187

>  <fragmenstein_outcome>  (1357) 
acceptable

>  <inchikey>  (1357) 
PMXJNHHMDODVDT-UHFFFAOYSA-N

>  <fragmenstein_mode>  (1357) 
expansion

>  <HIPPO Pose ID>  (1357) 
21199

>  <Energy>  (1357) 
67.534223

>  <fragmenstein_error>  (1357) 


>  <tags>  (1357) 
{'openbind_xx01zvns2b_c1_fragmenstein', 'fragmenstein_placed'}

>  <ref_pdb>  (1357) 
175

>  <scratch_subdir>  (1357) 
/opt/xchem-fragalysis-2/maxwin/BulkDock/SCRATCH/511028/C20244-P187

>  <alias>  (1357) 
CC(C)c1nnc(-c2nc3c(C(=O)Nc4ccc5c(c4)CNC5)cc(F)c(C#N)c3[nH]2)s1

>  <HIPPO Compound ID>  (1357) 
20244

>  <fragmenstein_runtime>  (1357) 
4.436085

$$$$
CCCNC(=O)[C@@](O)(Nc1ccc2c(c1)CNC2)c1cc(F)cc2nc(-c3nnc(C(C)C)s3)[nH]c12
     RDKit          3D

 36 40  0  0  0  0  0  0  0  0999 V2000
  -10.5569    9.7776  -10.9361 C   0  0  0  0  0  0  0  0  0  0  0  0
   -9.3511    8.8704  -11.1340 C   0  0  0  0  0  0  0  0  0  0  0  0
   -8.8870    8.8483  -12.5888 C   0  0  0  0  0  0  0  0  0  0  0  0
   -8.2953    7.5794  -12.9391 N   0  0  0  0  0  0  0  0  0  0  0  0
   -8.9330    6.3068  -13.5734 C   0  0  0  0  0  0  0  0  0  0  0  0
  -10.0500    6.0680  -13.8364 O   0  0  0  0  0  0  0  0  0  0  0  0
   -7.7431    5.2163  -13.7896 C   0  0  1  0  0  0  0  0  0  0  0  0
   -6.4274    5.6244  -13.4554 O   0  0  0  0  0  0  0  0  0  0  0  0
   -7.9828    4.0387  -12.9513 N   0  0  0  0  0  0  0  0  0  0  0  0
   -8.1612    4.1084  -11.5554 C   0  0  0  0  0  0  0  0  0  0  0  0
   -7.8053    5.2145  -10.7560 C   0  0  0  0  0  0  0  0  0  0  0  0
   -7.9709    5.2276   -9.3647 C   0  0  0  0  0  0  0  0  0  0  0  0
   -8.4380    4.0866   -8.7552 C   0  0  0  0  0  0  0  0  0  0  0  0
   -8.7177    2.9569   -9.5039 C   0  0  0  0  0  0  0  0  0  0  0  0
   -8.5841    2.9501  -10.8873 C   0  0  0  0  0  0  0  0  0  0  0  0
   -9.0920    1.8436   -8.5882 C   0  0  0  0  0  0  0  0  0  0  0  0
   -9.2492    2.4491   -7.2370 N   0  0  0  0  0  0  0  0  0  0  0  0
   -8.6836    3.8120   -7.3136 C   0  0  0  0  0  0  0  0  0  0  0  0
   -7.7313    4.8598  -15.2820 C   0  0  0  0  0  0  0  0  0  0  0  0
   -8.8697    4.2972  -15.9087 C   0  0  0  0  0  0  0  0  0  0  0  0
   -8.9568    4.1059  -17.2858 C   0  0  0  0  0  0  0  0  0  0  0  0
  -10.0813    3.5867  -17.7940 F   0  0  0  0  0  0  0  0  0  0  0  0
   -7.9181    4.4487  -18.1367 C   0  0  0  0  0  0  0  0  0  0  0  0
   -6.7564    4.9673  -17.5609 C   0  0  0  0  0  0  0  0  0  0  0  0
   -5.5942    5.3615  -18.1686 N   0  0  0  0  0  0  0  0  0  0  0  0
   -4.7632    5.6852  -17.2015 C   0  0  0  0  0  0  0  0  0  0  0  0
   -3.3811    6.0096  -17.3975 C   0  0  0  0  0  0  0  0  0  0  0  0
   -2.8871    6.3700  -18.5627 N   0  0  0  0  0  0  0  0  0  0  0  0
   -1.5131    6.4699  -18.5478 N   0  0  0  0  0  0  0  0  0  0  0  0
   -0.9955    6.1666  -17.3751 C   0  0  0  0  0  0  0  0  0  0  0  0
    0.4885    5.9748  -17.1569 C   0  0  0  0  0  0  0  0  0  0  0  0
    0.9340    5.9700  -15.6962 C   0  0  0  0  0  0  0  0  0  0  0  0
    1.2986    7.0060  -17.9466 C   0  0  0  0  0  0  0  0  0  0  0  0
   -2.1947    5.8997  -16.1605 S   0  0  0  0  0  0  0  0  0  0  0  0
   -5.4002    5.6141  -15.9889 N   0  0  0  0  0  0  0  0  0  0  0  0
   -6.6806    5.1422  -16.1823 C   0  0  0  0  0  0  0  0  0  0  0  0
  1  2  1  0
  2  3  1  0
  3  4  1  0
  4  5  1  0
  5  6  2  0
  5  7  1  0
  7  8  1  1
  7  9  1  0
  9 10  1  0
 10 11  2  0
 11 12  1  0
 12 13  2  0
 13 14  1  0
 14 15  2  0
 14 16  1  0
 16 17  1  0
 17 18  1  0
  7 19  1  0
 19 20  2  0
 20 21  1  0
 21 22  1  0
 21 23  2  0
 23 24  1  0
 24 25  1  0
 25 26  2  0
 26 27  1  0
 27 28  2  0
 28 29  1  0
 29 30  2  0
 30 31  1  0
 31 32  1  0
 31 33  1  0
 30 34  1  0
 26 35  1  0
 35 36  1  0
 15 10  1  0
 36 19  1  0
 18 13  1  0
 36 24  2  0
 34 27  1  0
M  END
>  <smiles>  (1358) 
C20252-P187

>  <fragmenstein_outcome>  (1358) 
acceptable

>  <inchikey>  (1358) 
DOIURHHHTXBOBD-UHFFFAOYSA-N

>  <fragmenstein_mode>  (1358) 
expansion

>  <HIPPO Pose ID>  (1358) 
21201

>  <Energy>  (1358) 
94.311891

>  <fragmenstein_error>  (1358) 


>  <tags>  (1358) 
{'openbind_xx01zvns2b_c1_fragmenstein', 'fragmenstein_placed'}

>  <ref_pdb>  (1358) 
175

>  <scratch_subdir>  (1358) 
/opt/xchem-fragalysis-2/maxwin/BulkDock/SCRATCH/511028/C20252-P187

>  <alias>  (1358) 
CCCNC(=O)[C@@](O)(Nc1ccc2c(c1)CNC2)c1cc(F)cc2nc(-c3nnc(C(C)C)s3)[nH]c12

>  <HIPPO Compound ID>  (1358) 
20252

>  <fragmenstein_runtime>  (1358) 
29.517776

$$$$
Cc1ccc(S(=O)(=O)CNC(=O)[C@](O)(Nc2ccc3c(c2)CNC3)c2cc(F)cc3nc(-c4nnc(C(C)C)s4)[nH]c23)cc1
     RDKit          3D

 44 49  0  0  0  0  0  0  0  0999 V2000
    0.3435   -1.7610  -11.1300 C   0  0  0  0  0  0  0  0  0  0  0  0
   -0.5178   -0.5481  -11.3246 C   0  0  0  0  0  0  0  0  0  0  0  0
   -0.0239    0.5688  -12.0096 C   0  0  0  0  0  0  0  0  0  0  0  0
   -0.8409    1.6784  -12.2290 C   0  0  0  0  0  0  0  0  0  0  0  0
   -2.1626    1.6716  -11.7711 C   0  0  0  0  0  0  0  0  0  0  0  0
   -3.1752    3.0956  -12.1261 S   0  0  0  0  0  0  0  0  0  0  0  0
   -2.8502    3.4889  -13.4888 O   0  0  0  0  0  0  0  0  0  0  0  0
   -2.9672    4.0047  -11.0145 O   0  0  0  0  0  0  0  0  0  0  0  0
   -4.8732    2.5032  -12.1203 C   0  0  0  0  0  0  0  0  0  0  0  0
   -5.9042    3.3122  -12.7453 N   0  0  0  0  0  0  0  0  0  0  0  0
   -5.9787    4.7254  -12.9815 C   0  0  0  0  0  0  0  0  0  0  0  0
   -5.1714    5.5963  -12.7949 O   0  0  0  0  0  0  0  0  0  0  0  0
   -7.4260    5.1563  -13.5706 C   0  0  2  0  0  0  0  0  0  0  0  0
   -7.6263    6.5602  -13.4675 O   0  0  0  0  0  0  0  0  0  0  0  0
   -8.5063    4.4637  -12.8524 N   0  0  0  0  0  0  0  0  0  0  0  0
   -8.4818    4.3959  -11.4484 C   0  0  0  0  0  0  0  0  0  0  0  0
   -8.2260    5.5191  -10.6351 C   0  0  0  0  0  0  0  0  0  0  0  0
   -8.2615    5.4428   -9.2371 C   0  0  0  0  0  0  0  0  0  0  0  0
   -8.5801    4.2313   -8.6604 C   0  0  0  0  0  0  0  0  0  0  0  0
   -8.8167    3.1078   -9.4431 C   0  0  0  0  0  0  0  0  0  0  0  0
   -8.7732    3.1708  -10.8252 C   0  0  0  0  0  0  0  0  0  0  0  0
   -9.1247    1.9523   -8.5497 C   0  0  0  0  0  0  0  0  0  0  0  0
   -9.4903    2.5725   -7.2498 N   0  0  0  0  0  0  0  0  0  0  0  0
   -8.7809    3.8718   -7.2262 C   0  0  0  0  0  0  0  0  0  0  0  0
   -7.4923    4.9086  -15.0770 C   0  0  0  0  0  0  0  0  0  0  0  0
   -8.6649    4.4414  -15.7199 C   0  0  0  0  0  0  0  0  0  0  0  0
   -8.7508    4.2731  -17.1011 C   0  0  0  0  0  0  0  0  0  0  0  0
   -9.8791    3.7712  -17.6212 F   0  0  0  0  0  0  0  0  0  0  0  0
   -7.7029    4.6134  -17.9432 C   0  0  0  0  0  0  0  0  0  0  0  0
   -6.5354    5.1113  -17.3588 C   0  0  0  0  0  0  0  0  0  0  0  0
   -5.3779    5.5256  -17.9654 N   0  0  0  0  0  0  0  0  0  0  0  0
   -4.5451    5.8294  -16.9934 C   0  0  0  0  0  0  0  0  0  0  0  0
   -3.1713    6.1959  -17.1601 C   0  0  0  0  0  0  0  0  0  0  0  0
   -2.6773    6.7066  -18.2693 N   0  0  0  0  0  0  0  0  0  0  0  0
   -1.3038    6.8533  -18.2152 N   0  0  0  0  0  0  0  0  0  0  0  0
   -0.8036    6.4122  -17.0802 C   0  0  0  0  0  0  0  0  0  0  0  0
    0.6593    6.2773  -16.7644 C   0  0  0  0  0  0  0  0  0  0  0  0
    1.1718    7.5019  -16.0125 C   0  0  0  0  0  0  0  0  0  0  0  0
    1.4816    6.0508  -18.0354 C   0  0  0  0  0  0  0  0  0  0  0  0
   -1.9985    5.9640  -15.9263 S   0  0  0  0  0  0  0  0  0  0  0  0
   -5.1647    5.7032  -15.7756 N   0  0  0  0  0  0  0  0  0  0  0  0
   -6.4452    5.2296  -15.9732 C   0  0  0  0  0  0  0  0  0  0  0  0
   -2.6669    0.5660  -11.0856 C   0  0  0  0  0  0  0  0  0  0  0  0
   -1.8444   -0.5433  -10.8735 C   0  0  0  0  0  0  0  0  0  0  0  0
  1  2  1  0
  2  3  2  0
  3  4  1  0
  4  5  2  0
  5  6  1  0
  6  7  2  0
  6  8  2  0
  6  9  1  0
  9 10  1  0
 10 11  1  0
 11 12  2  0
 11 13  1  0
 13 14  1  6
 13 15  1  0
 15 16  1  0
 16 17  2  0
 17 18  1  0
 18 19  2  0
 19 20  1  0
 20 21  2  0
 20 22  1  0
 22 23  1  0
 23 24  1  0
 13 25  1  0
 25 26  2  0
 26 27  1  0
 27 28  1  0
 27 29  2  0
 29 30  1  0
 30 31  1  0
 31 32  2  0
 32 33  1  0
 33 34  2  0
 34 35  1  0
 35 36  2  0
 36 37  1  0
 37 38  1  0
 37 39  1  0
 36 40  1  0
 32 41  1  0
 41 42  1  0
  5 43  1  0
 43 44  2  0
 44  2  1  0
 21 16  1  0
 42 25  1  0
 24 19  1  0
 42 30  2  0
 40 33  1  0
M  END
>  <smiles>  (1359) 
C20256-P187

>  <fragmenstein_outcome>  (1359) 
acceptable

>  <inchikey>  (1359) 
QGYHAFSJMUVHLM-UHFFFAOYSA-N

>  <fragmenstein_mode>  (1359) 
expansion

>  <HIPPO Pose ID>  (1359) 
21203

>  <Energy>  (1359) 
178.123991

>  <fragmenstein_error>  (1359) 


>  <tags>  (1359) 
{'openbind_xx01zvns2b_c1_fragmenstein', 'fragmenstein_placed'}

>  <ref_pdb>  (1359) 
175

>  <scratch_subdir>  (1359) 
/opt/xchem-fragalysis-2/maxwin/BulkDock/SCRATCH/511028/C20256-P187

>  <alias>  (1359) 
Cc1ccc(S(=O)(=O)CNC(=O)[C@](O)(Nc2ccc3c(c2)CNC3)c2cc(F)cc3nc(-c4nnc(C(C)C)s4)[nH]c23)cc1

>  <HIPPO Compound ID>  (1359) 
20256

>  <fragmenstein_runtime>  (1359) 
18.686184

$$$$
CCc1cc(C(=O)Nc2ccc3c(c2)CNC3)c2nc(-c3nnc(C(C)C)s3)n(C)c2c1
     RDKit          3D

 32 36  0  0  0  0  0  0  0  0999 V2000
  -10.7492    4.7230  -18.3421 C   0  0  0  0  0  0  0  0  0  0  0  0
   -9.9991    3.8396  -17.3883 C   0  0  0  0  0  0  0  0  0  0  0  0
   -8.6920    4.3927  -16.9297 C   0  0  0  0  0  0  0  0  0  0  0  0
   -8.4950    4.6176  -15.5636 C   0  0  0  0  0  0  0  0  0  0  0  0
   -7.2858    5.1368  -15.0836 C   0  0  0  0  0  0  0  0  0  0  0  0
   -7.2083    5.5301  -13.6637 C   0  0  0  0  0  0  0  0  0  0  0  0
   -6.9505    6.6385  -13.3986 O   0  0  0  0  0  0  0  0  0  0  0  0
   -7.6028    4.3440  -12.7477 N   0  0  0  0  0  0  0  0  0  0  0  0
   -7.8450    4.3016  -11.3778 C   0  0  0  0  0  0  0  0  0  0  0  0
   -7.6916    5.4426  -10.5769 C   0  0  0  0  0  0  0  0  0  0  0  0
   -7.9727    5.3972   -9.2081 C   0  0  0  0  0  0  0  0  0  0  0  0
   -8.4026    4.2001   -8.6656 C   0  0  0  0  0  0  0  0  0  0  0  0
   -8.5608    3.0719   -9.4578 C   0  0  0  0  0  0  0  0  0  0  0  0
   -8.2875    3.1007  -10.8160 C   0  0  0  0  0  0  0  0  0  0  0  0
   -9.0119    1.9293   -8.6157 C   0  0  0  0  0  0  0  0  0  0  0  0
   -9.2290    2.4737   -7.2474 N   0  0  0  0  0  0  0  0  0  0  0  0
   -8.7391    3.8692   -7.2535 C   0  0  0  0  0  0  0  0  0  0  0  0
   -6.2579    5.4105  -15.9944 C   0  0  0  0  0  0  0  0  0  0  0  0
   -4.9648    5.8341  -15.8096 N   0  0  0  0  0  0  0  0  0  0  0  0
   -4.4262    5.8931  -17.0148 C   0  0  0  0  0  0  0  0  0  0  0  0
   -3.0326    6.0784  -17.2730 C   0  0  0  0  0  0  0  0  0  0  0  0
   -2.4811    5.8666  -18.4496 N   0  0  0  0  0  0  0  0  0  0  0  0
   -1.1175    6.0469  -18.4283 N   0  0  0  0  0  0  0  0  0  0  0  0
   -0.6755    6.3777  -17.2324 C   0  0  0  0  0  0  0  0  0  0  0  0
    0.7629    6.6386  -16.8809 C   0  0  0  0  0  0  0  0  0  0  0  0
    1.3000    5.6064  -15.8879 C   0  0  0  0  0  0  0  0  0  0  0  0
    1.6449    6.6550  -18.1330 C   0  0  0  0  0  0  0  0  0  0  0  0
   -1.9196    6.5351  -16.0532 S   0  0  0  0  0  0  0  0  0  0  0  0
   -5.3881    5.7133  -17.9751 N   0  0  0  0  0  0  0  0  0  0  0  0
   -5.3301    6.0685  -19.3725 C   0  0  0  0  0  0  0  0  0  0  0  0
   -6.5093    5.2276  -17.3519 C   0  0  0  0  0  0  0  0  0  0  0  0
   -7.6968    4.7042  -17.8571 C   0  0  0  0  0  0  0  0  0  0  0  0
  1  2  1  0
  2  3  1  0
  3  4  2  0
  4  5  1  0
  5  6  1  0
  6  7  2  0
  6  8  1  0
  8  9  1  0
  9 10  2  0
 10 11  1  0
 11 12  2  0
 12 13  1  0
 13 14  2  0
 13 15  1  0
 15 16  1  0
 16 17  1  0
  5 18  2  0
 18 19  1  0
 19 20  2  0
 20 21  1  0
 21 22  2  0
 22 23  1  0
 23 24  2  0
 24 25  1  0
 25 26  1  0
 25 27  1  0
 24 28  1  0
 20 29  1  0
 29 30  1  0
 29 31  1  0
 31 32  2  0
 32  3  1  0
 14  9  1  0
 31 18  1  0
 17 12  1  0
 28 21  1  0
M  END
>  <smiles>  (1360) 
C20261-P187

>  <fragmenstein_outcome>  (1360) 
acceptable

>  <inchikey>  (1360) 
HMBDTZVOLYHBGM-UHFFFAOYSA-N

>  <fragmenstein_mode>  (1360) 
expansion

>  <HIPPO Pose ID>  (1360) 
21204

>  <Energy>  (1360) 
84.615584

>  <fragmenstein_error>  (1360) 


>  <tags>  (1360) 
{'openbind_xx01zvns2b_c1_fragmenstein', 'fragmenstein_placed'}

>  <ref_pdb>  (1360) 
175

>  <scratch_subdir>  (1360) 
/opt/xchem-fragalysis-2/maxwin/BulkDock/SCRATCH/511028/C20261-P187

>  <alias>  (1360) 
CCc1cc(C(=O)Nc2ccc3c(c2)CNC3)c2nc(-c3nnc(C(C)C)s3)n(C)c2c1

>  <HIPPO Compound ID>  (1360) 
20261

>  <fragmenstein_runtime>  (1360) 
6.018537

$$$$
CC(C)c1nnc(-c2nc3c(C(=O)Nc4cc5c(cc4C#N)CNC5)cc(F)cc3[nH]2)s1
     RDKit          3D

 32 36  0  0  0  0  0  0  0  0999 V2000
    0.8750    5.8909  -15.8976 C   0  0  0  0  0  0  0  0  0  0  0  0
    0.4792    5.9770  -17.3712 C   0  0  0  0  0  0  0  0  0  0  0  0
    1.1585    7.1700  -18.0390 C   0  0  0  0  0  0  0  0  0  0  0  0
   -1.0069    5.9798  -17.6506 C   0  0  0  0  0  0  0  0  0  0  0  0
   -1.5042    5.8173  -18.8635 N   0  0  0  0  0  0  0  0  0  0  0  0
   -2.8790    5.7035  -18.8661 N   0  0  0  0  0  0  0  0  0  0  0  0
   -3.3841    5.7920  -17.6530 C   0  0  0  0  0  0  0  0  0  0  0  0
   -4.7678    5.5619  -17.3766 C   0  0  0  0  0  0  0  0  0  0  0  0
   -5.3401    5.5922  -16.1894 N   0  0  0  0  0  0  0  0  0  0  0  0
   -6.6322    5.1516  -16.3754 C   0  0  0  0  0  0  0  0  0  0  0  0
   -7.6832    4.9307  -15.4603 C   0  0  0  0  0  0  0  0  0  0  0  0
   -7.5556    5.3860  -14.0542 C   0  0  0  0  0  0  0  0  0  0  0  0
   -7.0928    6.4413  -13.8688 O   0  0  0  0  0  0  0  0  0  0  0  0
   -8.1768    4.3728  -13.0590 N   0  0  0  0  0  0  0  0  0  0  0  0
   -8.2674    4.4091  -11.6563 C   0  0  0  0  0  0  0  0  0  0  0  0
   -8.5095    3.1690  -11.0350 C   0  0  0  0  0  0  0  0  0  0  0  0
   -8.6254    3.1061   -9.6541 C   0  0  0  0  0  0  0  0  0  0  0  0
   -8.4777    4.2371   -8.8708 C   0  0  0  0  0  0  0  0  0  0  0  0
   -8.2495    5.4705   -9.4489 C   0  0  0  0  0  0  0  0  0  0  0  0
   -8.1770    5.5716  -10.8545 C   0  0  0  0  0  0  0  0  0  0  0  0
   -8.1838    6.9129  -11.3671 C   0  0  0  0  0  0  0  0  0  0  0  0
   -8.2763    8.0338  -11.6619 N   0  0  0  0  0  0  0  0  0  0  0  0
   -8.6404    3.8797   -7.4343 C   0  0  0  0  0  0  0  0  0  0  0  0
   -9.1049    2.4797   -7.4110 N   0  0  0  0  0  0  0  0  0  0  0  0
   -8.9036    1.9303   -8.7782 C   0  0  0  0  0  0  0  0  0  0  0  0
   -8.8931    4.3996  -15.9345 C   0  0  0  0  0  0  0  0  0  0  0  0
   -9.0576    4.1304  -17.2885 C   0  0  0  0  0  0  0  0  0  0  0  0
  -10.2272    3.6367  -17.7113 F   0  0  0  0  0  0  0  0  0  0  0  0
   -8.0533    4.3707  -18.2211 C   0  0  0  0  0  0  0  0  0  0  0  0
   -6.8511    4.8752  -17.7245 C   0  0  0  0  0  0  0  0  0  0  0  0
   -5.6699    5.1967  -18.3455 N   0  0  0  0  0  0  0  0  0  0  0  0
   -2.2208    6.1215  -16.4362 S   0  0  0  0  0  0  0  0  0  0  0  0
  1  2  1  0
  2  3  1  0
  2  4  1  0
  4  5  2  0
  5  6  1  0
  6  7  2  0
  7  8  1  0
  8  9  2  0
  9 10  1  0
 10 11  2  0
 11 12  1  0
 12 13  2  0
 12 14  1  0
 14 15  1  0
 15 16  2  0
 16 17  1  0
 17 18  2  0
 18 19  1  0
 19 20  2  0
 20 21  1  0
 21 22  3  0
 18 23  1  0
 23 24  1  0
 24 25  1  0
 11 26  1  0
 26 27  2  0
 27 28  1  0
 27 29  1  0
 29 30  2  0
 30 31  1  0
  7 32  1  0
 32  4  1  0
 31  8  1  0
 30 10  1  0
 20 15  1  0
 25 17  1  0
M  END
>  <smiles>  (1361) 
C20264-P187

>  <fragmenstein_outcome>  (1361) 
acceptable

>  <inchikey>  (1361) 
JZDVCWCHFPZVRZ-UHFFFAOYSA-N

>  <fragmenstein_mode>  (1361) 
expansion

>  <HIPPO Pose ID>  (1361) 
21207

>  <Energy>  (1361) 
88.848813

>  <fragmenstein_error>  (1361) 


>  <tags>  (1361) 
{'openbind_xx01zvns2b_c1_fragmenstein', 'fragmenstein_placed'}

>  <ref_pdb>  (1361) 
175

>  <scratch_subdir>  (1361) 
/opt/xchem-fragalysis-2/maxwin/BulkDock/SCRATCH/511028/C20264-P187

>  <alias>  (1361) 
CC(C)c1nnc(-c2nc3c(C(=O)Nc4cc5c(cc4C#N)CNC5)cc(F)cc3[nH]2)s1

>  <HIPPO Compound ID>  (1361) 
25812

>  <fragmenstein_runtime>  (1361) 
4.561613

$$$$
CC(C)c1nnc(C2=Nc3c(C(=O)Nc4ccc5c(c4)[C@H](N)NC5)cc(F)cc3[N@@H+]2[O-])s1
     RDKit          3D

 32 36  0  0  0  0  0  0  0  0999 V2000
    1.0072    5.6694  -15.8898 C   0  0  0  0  0  0  0  0  0  0  0  0
    0.4857    6.7453  -16.8443 C   0  0  0  0  0  0  0  0  0  0  0  0
    1.3670    6.7577  -18.1007 C   0  0  0  0  0  0  0  0  0  0  0  0
   -0.9730    6.5879  -17.2087 C   0  0  0  0  0  0  0  0  0  0  0  0
   -1.4629    6.7857  -18.4183 N   0  0  0  0  0  0  0  0  0  0  0  0
   -2.8269    6.6009  -18.4789 N   0  0  0  0  0  0  0  0  0  0  0  0
   -3.3267    6.2578  -17.3120 C   0  0  0  0  0  0  0  0  0  0  0  0
   -4.7019    5.8937  -17.1371 C   0  0  0  0  0  0  0  0  0  0  0  0
   -5.3565    5.8672  -16.0015 N   0  0  0  0  0  0  0  0  0  0  0  0
   -6.6234    5.3330  -16.3041 C   0  0  0  0  0  0  0  0  0  0  0  0
   -7.6825    5.0404  -15.4555 C   0  0  0  0  0  0  0  0  0  0  0  0
   -7.7204    5.5536  -14.0723 C   0  0  0  0  0  0  0  0  0  0  0  0
   -7.6008    6.7057  -13.9188 O   0  0  0  0  0  0  0  0  0  0  0  0
   -8.0219    4.4315  -13.0503 N   0  0  0  0  0  0  0  0  0  0  0  0
   -8.1407    4.4792  -11.6632 C   0  0  0  0  0  0  0  0  0  0  0  0
   -8.0235    5.7004  -10.9772 C   0  0  0  0  0  0  0  0  0  0  0  0
   -8.1602    5.7637   -9.5888 C   0  0  0  0  0  0  0  0  0  0  0  0
   -8.4100    4.5895   -8.9104 C   0  0  0  0  0  0  0  0  0  0  0  0
   -8.5166    3.3723   -9.5810 C   0  0  0  0  0  0  0  0  0  0  0  0
   -8.3882    3.2964  -10.9602 C   0  0  0  0  0  0  0  0  0  0  0  0
   -8.6645    2.2999   -8.5554 C   0  0  2  0  0  0  0  0  0  0  0  0
   -9.7311    1.3805   -8.7733 N   0  0  0  0  0  0  0  0  0  0  0  0
   -9.0683    2.9721   -7.3253 N   0  0  0  0  0  0  0  0  0  0  0  0
   -8.5673    4.3509   -7.4472 C   0  0  0  0  0  0  0  0  0  0  0  0
   -8.8243    4.4210  -15.9805 C   0  0  0  0  0  0  0  0  0  0  0  0
   -8.8934    4.1314  -17.3459 C   0  0  0  0  0  0  0  0  0  0  0  0
  -10.0010    3.5539  -17.8246 F   0  0  0  0  0  0  0  0  0  0  0  0
   -7.8539    4.4506  -18.2113 C   0  0  0  0  0  0  0  0  0  0  0  0
   -6.7324    5.0510  -17.6634 C   0  0  0  0  0  0  0  0  0  0  0  0
   -5.5062    5.4858  -18.3322 N   0  0  2  0  0  0  0  0  0  0  0  0
   -4.9268    4.4610  -18.9663 O   0  0  0  0  0  0  0  0  0  0  0  0
   -2.1937    6.2521  -16.0328 S   0  0  0  0  0  0  0  0  0  0  0  0
  1  2  1  0
  2  3  1  0
  2  4  1  0
  4  5  2  0
  5  6  1  0
  6  7  2  0
  7  8  1  0
  8  9  2  0
  9 10  1  0
 10 11  2  0
 11 12  1  0
 12 13  2  0
 12 14  1  0
 14 15  1  0
 15 16  2  0
 16 17  1  0
 17 18  2  0
 18 19  1  0
 19 20  2  0
 19 21  1  0
 21 22  1  6
 21 23  1  0
 23 24  1  0
 11 25  1  0
 25 26  2  0
 26 27  1  0
 26 28  1  0
 28 29  2  0
 29 30  1  0
 30 31  1  1
  7 32  1  0
 32  4  1  0
 30  8  1  0
 29 10  1  0
 20 15  1  0
 24 18  1  0
M  CHG  2  30   1  31  -1
M  END
>  <smiles>  (1362) 
C20276-P187

>  <fragmenstein_outcome>  (1362) 
acceptable

>  <inchikey>  (1362) 
LTNRPXLQLPSVHY-UHFFFAOYSA-N

>  <fragmenstein_mode>  (1362) 
expansion

>  <HIPPO Pose ID>  (1362) 
21212

>  <Energy>  (1362) 
15.988851

>  <fragmenstein_error>  (1362) 


>  <tags>  (1362) 
{'openbind_xx01zvns2b_c1_fragmenstein', 'fragmenstein_placed'}

>  <ref_pdb>  (1362) 
175

>  <scratch_subdir>  (1362) 
/opt/xchem-fragalysis-2/maxwin/BulkDock/SCRATCH/511028/C20276-P187

>  <alias>  (1362) 
CC(C)c1nnc(C2=Nc3c(C(=O)Nc4ccc5c(c4)[C@H](N)NC5)cc(F)cc3[N@@H+]2[O-])s1

>  <HIPPO Compound ID>  (1362) 
35894

>  <fragmenstein_runtime>  (1362) 
5.01281

$$$$
CC(C)c1nnc(-c2c(OCCCO)c3c(C(=O)Nc4ccc5c(c4)CNC5)cc(F)cc3n2C)s1
     RDKit          3D

 36 40  0  0  0  0  0  0  0  0999 V2000
    1.2114    5.7009  -16.0108 C   0  0  0  0  0  0  0  0  0  0  0  0
    0.6125    6.5799  -17.1113 C   0  0  0  0  0  0  0  0  0  0  0  0
    1.4769    6.5012  -18.3713 C   0  0  0  0  0  0  0  0  0  0  0  0
   -0.8121    6.1932  -17.3986 C   0  0  0  0  0  0  0  0  0  0  0  0
   -1.2300    5.5122  -18.4443 N   0  0  0  0  0  0  0  0  0  0  0  0
   -2.5837    5.2575  -18.3927 N   0  0  0  0  0  0  0  0  0  0  0  0
   -3.1655    5.7826  -17.3330 C   0  0  0  0  0  0  0  0  0  0  0  0
   -4.5701    5.6217  -17.0562 C   0  0  0  0  0  0  0  0  0  0  0  0
   -5.2455    5.6461  -15.8421 C   0  0  0  0  0  0  0  0  0  0  0  0
   -4.5797    5.8370  -14.6758 O   0  0  0  0  0  0  0  0  0  0  0  0
   -5.0995    6.8907  -13.8646 C   0  0  0  0  0  0  0  0  0  0  0  0
   -3.9517    7.7437  -13.3296 C   0  0  0  0  0  0  0  0  0  0  0  0
   -4.4343    8.8085  -12.3547 C   0  0  0  0  0  0  0  0  0  0  0  0
   -4.8137    8.2364  -11.1121 O   0  0  0  0  0  0  0  0  0  0  0  0
   -6.6041    5.2339  -16.0539 C   0  0  0  0  0  0  0  0  0  0  0  0
   -7.7550    4.9733  -15.2658 C   0  0  0  0  0  0  0  0  0  0  0  0
   -7.8686    5.4258  -13.8721 C   0  0  0  0  0  0  0  0  0  0  0  0
   -7.9655    6.5725  -13.6770 O   0  0  0  0  0  0  0  0  0  0  0  0
   -7.8810    4.2403  -12.8877 N   0  0  0  0  0  0  0  0  0  0  0  0
   -8.1023    4.2079  -11.5130 C   0  0  0  0  0  0  0  0  0  0  0  0
   -8.0639    5.3908  -10.7535 C   0  0  0  0  0  0  0  0  0  0  0  0
   -8.2803    5.3665   -9.3726 C   0  0  0  0  0  0  0  0  0  0  0  0
   -8.5805    4.1532   -8.7857 C   0  0  0  0  0  0  0  0  0  0  0  0
   -8.6414    2.9841   -9.5401 C   0  0  0  0  0  0  0  0  0  0  0  0
   -8.3734    2.9847  -10.8986 C   0  0  0  0  0  0  0  0  0  0  0  0
   -9.0200    1.8499   -8.6446 C   0  0  0  0  0  0  0  0  0  0  0  0
   -9.5343    2.4964   -7.4062 N   0  0  0  0  0  0  0  0  0  0  0  0
   -8.8828    3.8227   -7.3625 C   0  0  0  0  0  0  0  0  0  0  0  0
   -8.9086    4.4121  -15.8289 C   0  0  0  0  0  0  0  0  0  0  0  0
   -8.9615    4.1765  -17.1868 C   0  0  0  0  0  0  0  0  0  0  0  0
  -10.0742    3.6560  -17.7179 F   0  0  0  0  0  0  0  0  0  0  0  0
   -7.8957    4.4939  -18.0175 C   0  0  0  0  0  0  0  0  0  0  0  0
   -6.7204    5.0021  -17.4322 C   0  0  0  0  0  0  0  0  0  0  0  0
   -5.5220    5.3684  -18.0228 N   0  0  0  0  0  0  0  0  0  0  0  0
   -5.3778    5.4760  -19.4620 C   0  0  0  0  0  0  0  0  0  0  0  0
   -2.0735    6.6376  -16.3238 S   0  0  0  0  0  0  0  0  0  0  0  0
  1  2  1  0
  2  3  1  0
  2  4  1  0
  4  5  2  0
  5  6  1  0
  6  7  2  0
  7  8  1  0
  8  9  2  0
  9 10  1  0
 10 11  1  0
 11 12  1  0
 12 13  1  0
 13 14  1  0
  9 15  1  0
 15 16  2  0
 16 17  1  0
 17 18  2  0
 17 19  1  0
 19 20  1  0
 20 21  2  0
 21 22  1  0
 22 23  2  0
 23 24  1  0
 24 25  2  0
 24 26  1  0
 26 27  1  0
 27 28  1  0
 16 29  1  0
 29 30  2  0
 30 31  1  0
 30 32  1  0
 32 33  2  0
 33 34  1  0
 34 35  1  0
  7 36  1  0
 36  4  1  0
 34  8  1  0
 33 15  1  0
 25 20  1  0
 28 23  1  0
M  END
>  <smiles>  (1363) 
C20280-P187

>  <fragmenstein_outcome>  (1363) 
acceptable

>  <inchikey>  (1363) 
LRKDXKVKIZWMIE-UHFFFAOYSA-N

>  <fragmenstein_mode>  (1363) 
expansion

>  <HIPPO Pose ID>  (1363) 
21213

>  <Energy>  (1363) 
63.925715

>  <fragmenstein_error>  (1363) 


>  <tags>  (1363) 
{'openbind_xx01zvns2b_c1_fragmenstein', 'fragmenstein_placed'}

>  <ref_pdb>  (1363) 
175

>  <scratch_subdir>  (1363) 
/opt/xchem-fragalysis-2/maxwin/BulkDock/SCRATCH/511028/C20280-P187

>  <alias>  (1363) 
CC(C)c1nnc(-c2c(OCCCO)c3c(C(=O)Nc4ccc5c(c4)CNC5)cc(F)cc3n2C)s1

>  <HIPPO Compound ID>  (1363) 
20280

>  <fragmenstein_runtime>  (1363) 
6.928938

$$$$
COn1c(-c2nnc(C(C)C)s2)c(C)c2c(C(=O)Nc3ccc4c(c3)CNC4)cc(F)cc21
     RDKit          3D

 33 37  0  0  0  0  0  0  0  0999 V2000
   -5.1985    6.2485  -20.0884 C   0  0  0  0  0  0  0  0  0  0  0  0
   -5.2350    4.9950  -19.4264 O   0  0  0  0  0  0  0  0  0  0  0  0
   -5.4715    5.1967  -18.0592 N   0  0  0  0  0  0  0  0  0  0  0  0
   -4.5253    5.5123  -17.1066 C   0  0  0  0  0  0  0  0  0  0  0  0
   -3.1344    5.6777  -17.4439 C   0  0  0  0  0  0  0  0  0  0  0  0
   -2.6336    5.2569  -18.5869 N   0  0  0  0  0  0  0  0  0  0  0  0
   -1.2738    5.4200  -18.6739 N   0  0  0  0  0  0  0  0  0  0  0  0
   -0.7604    5.9224  -17.5720 C   0  0  0  0  0  0  0  0  0  0  0  0
    0.7223    6.0203  -17.3401 C   0  0  0  0  0  0  0  0  0  0  0  0
    1.1456    5.8320  -15.8842 C   0  0  0  0  0  0  0  0  0  0  0  0
    1.2853    7.3084  -17.9252 C   0  0  0  0  0  0  0  0  0  0  0  0
   -1.9512    6.4126  -16.4351 S   0  0  0  0  0  0  0  0  0  0  0  0
   -5.1908    5.5421  -15.8772 C   0  0  0  0  0  0  0  0  0  0  0  0
   -4.5892    5.7774  -14.5288 C   0  0  0  0  0  0  0  0  0  0  0  0
   -6.5707    5.1910  -16.1225 C   0  0  0  0  0  0  0  0  0  0  0  0
   -7.7266    5.0056  -15.3211 C   0  0  0  0  0  0  0  0  0  0  0  0
   -7.7492    5.4630  -13.9167 C   0  0  0  0  0  0  0  0  0  0  0  0
   -7.5170    6.5862  -13.6978 O   0  0  0  0  0  0  0  0  0  0  0  0
   -8.0428    4.2943  -12.9502 N   0  0  0  0  0  0  0  0  0  0  0  0
   -8.2003    4.2824  -11.5664 C   0  0  0  0  0  0  0  0  0  0  0  0
   -8.0440    5.4523  -10.8061 C   0  0  0  0  0  0  0  0  0  0  0  0
   -8.1829    5.4259   -9.4144 C   0  0  0  0  0  0  0  0  0  0  0  0
   -8.4916    4.2216   -8.8092 C   0  0  0  0  0  0  0  0  0  0  0  0
   -8.6583    3.0659   -9.5602 C   0  0  0  0  0  0  0  0  0  0  0  0
   -8.5057    3.0728  -10.9378 C   0  0  0  0  0  0  0  0  0  0  0  0
   -8.9815    1.9258   -8.6562 C   0  0  0  0  0  0  0  0  0  0  0  0
   -9.1615    2.5112   -7.3000 N   0  0  0  0  0  0  0  0  0  0  0  0
   -8.6863    3.9086   -7.3661 C   0  0  0  0  0  0  0  0  0  0  0  0
   -8.8957    4.4685  -15.8720 C   0  0  0  0  0  0  0  0  0  0  0  0
   -8.9526    4.1942  -17.2271 C   0  0  0  0  0  0  0  0  0  0  0  0
  -10.0807    3.6889  -17.7408 F   0  0  0  0  0  0  0  0  0  0  0  0
   -7.8745    4.4442  -18.0680 C   0  0  0  0  0  0  0  0  0  0  0  0
   -6.6894    4.9251  -17.4873 C   0  0  0  0  0  0  0  0  0  0  0  0
  1  2  1  0
  2  3  1  0
  3  4  1  0
  4  5  1  0
  5  6  2  0
  6  7  1  0
  7  8  2  0
  8  9  1  0
  9 10  1  0
  9 11  1  0
  8 12  1  0
  4 13  2  0
 13 14  1  0
 13 15  1  0
 15 16  2  0
 16 17  1  0
 17 18  2  0
 17 19  1  0
 19 20  1  0
 20 21  2  0
 21 22  1  0
 22 23  2  0
 23 24  1  0
 24 25  2  0
 24 26  1  0
 26 27  1  0
 27 28  1  0
 16 29  1  0
 29 30  2  0
 30 31  1  0
 30 32  1  0
 32 33  2  0
 33  3  1  0
 12  5  1  0
 33 15  1  0
 25 20  1  0
 28 23  1  0
M  END
>  <smiles>  (1364) 
C20285-P187

>  <fragmenstein_outcome>  (1364) 
acceptable

>  <inchikey>  (1364) 
YDSHJYKEPJVNAG-UHFFFAOYSA-N

>  <fragmenstein_mode>  (1364) 
expansion

>  <HIPPO Pose ID>  (1364) 
21214

>  <Energy>  (1364) 
57.511058

>  <fragmenstein_error>  (1364) 


>  <tags>  (1364) 
{'openbind_xx01zvns2b_c1_fragmenstein', 'fragmenstein_placed'}

>  <ref_pdb>  (1364) 
175

>  <scratch_subdir>  (1364) 
/opt/xchem-fragalysis-2/maxwin/BulkDock/SCRATCH/511028/C20285-P187

>  <alias>  (1364) 
COn1c(-c2nnc(C(C)C)s2)c(C)c2c(C(=O)Nc3ccc4c(c3)CNC4)cc(F)cc21

>  <HIPPO Compound ID>  (1364) 
27779

>  <fragmenstein_runtime>  (1364) 
9.860844

$$$$
CC(C)c1nc2c(s1)-c1nc3c(C(=O)Nc4ccc5c(c4)CNC5)cc(F)cc3n1CC2
     RDKit          3D

 32 37  0  0  0  0  0  0  0  0999 V2000
    0.9400    5.8788  -15.8930 C   0  0  0  0  0  0  0  0  0  0  0  0
    0.4832    6.0201  -17.3445 C   0  0  0  0  0  0  0  0  0  0  0  0
    1.1746    7.2056  -18.0123 C   0  0  0  0  0  0  0  0  0  0  0  0
   -1.0171    6.0805  -17.5591 C   0  0  0  0  0  0  0  0  0  0  0  0
   -1.5619    5.9447  -18.7584 N   0  0  0  0  0  0  0  0  0  0  0  0
   -2.9307    5.8528  -18.6401 C   0  0  0  0  0  0  0  0  0  0  0  0
   -3.4157    5.9507  -17.3552 C   0  0  0  0  0  0  0  0  0  0  0  0
   -2.1570    6.2458  -16.2647 S   0  0  0  0  0  0  0  0  0  0  0  0
   -4.7867    5.7219  -17.0668 C   0  0  0  0  0  0  0  0  0  0  0  0
   -5.3961    5.6963  -15.9066 N   0  0  0  0  0  0  0  0  0  0  0  0
   -6.6702    5.2348  -16.1755 C   0  0  0  0  0  0  0  0  0  0  0  0
   -7.7606    4.9721  -15.3255 C   0  0  0  0  0  0  0  0  0  0  0  0
   -7.7509    5.4344  -13.9243 C   0  0  0  0  0  0  0  0  0  0  0  0
   -7.5811    6.5719  -13.7205 O   0  0  0  0  0  0  0  0  0  0  0  0
   -8.0805    4.2791  -12.9491 N   0  0  0  0  0  0  0  0  0  0  0  0
   -8.1729    4.2668  -11.5597 C   0  0  0  0  0  0  0  0  0  0  0  0
   -7.9585    5.4301  -10.8045 C   0  0  0  0  0  0  0  0  0  0  0  0
   -8.0902    5.4135   -9.4119 C   0  0  0  0  0  0  0  0  0  0  0  0
   -8.4410    4.2238   -8.8003 C   0  0  0  0  0  0  0  0  0  0  0  0
   -8.6497    3.0714   -9.5451 C   0  0  0  0  0  0  0  0  0  0  0  0
   -8.5133    3.0701  -10.9241 C   0  0  0  0  0  0  0  0  0  0  0  0
   -8.9991    1.9449   -8.6348 C   0  0  0  0  0  0  0  0  0  0  0  0
   -9.1499    2.5381   -7.2784 N   0  0  0  0  0  0  0  0  0  0  0  0
   -8.6473    3.9264   -7.3560 C   0  0  0  0  0  0  0  0  0  0  0  0
   -8.9271    4.3995  -15.8527 C   0  0  0  0  0  0  0  0  0  0  0  0
   -9.0251    4.1512  -17.2144 C   0  0  0  0  0  0  0  0  0  0  0  0
  -10.1545    3.6218  -17.6989 F   0  0  0  0  0  0  0  0  0  0  0  0
   -7.9960    4.4603  -18.0988 C   0  0  0  0  0  0  0  0  0  0  0  0
   -6.8267    4.9920  -17.5459 C   0  0  0  0  0  0  0  0  0  0  0  0
   -5.6420    5.4039  -18.0917 N   0  0  0  0  0  0  0  0  0  0  0  0
   -5.3025    5.5414  -19.4979 C   0  0  0  0  0  0  0  0  0  0  0  0
   -3.7929    5.5231  -19.8155 C   0  0  0  0  0  0  0  0  0  0  0  0
  1  2  1  0
  2  3  1  0
  2  4  1  0
  4  5  2  0
  5  6  1  0
  6  7  2  0
  7  8  1  0
  7  9  1  0
  9 10  2  0
 10 11  1  0
 11 12  2  0
 12 13  1  0
 13 14  2  0
 13 15  1  0
 15 16  1  0
 16 17  2  0
 17 18  1  0
 18 19  2  0
 19 20  1  0
 20 21  2  0
 20 22  1  0
 22 23  1  0
 23 24  1  0
 12 25  1  0
 25 26  2  0
 26 27  1  0
 26 28  1  0
 28 29  2  0
 29 30  1  0
 30 31  1  0
 31 32  1  0
  8  4  1  0
 30  9  1  0
 32  6  1  0
 29 11  1  0
 21 16  1  0
 24 19  1  0
M  END
>  <smiles>  (1365) 
C20288-P187

>  <fragmenstein_outcome>  (1365) 
acceptable

>  <inchikey>  (1365) 
JUIUBXCQBHPMOG-UHFFFAOYSA-N

>  <fragmenstein_mode>  (1365) 
expansion

>  <HIPPO Pose ID>  (1365) 
21215

>  <Energy>  (1365) 
66.473021

>  <fragmenstein_error>  (1365) 


>  <tags>  (1365) 
{'openbind_xx01zvns2b_c1_fragmenstein', 'fragmenstein_placed'}

>  <ref_pdb>  (1365) 
175

>  <scratch_subdir>  (1365) 
/opt/xchem-fragalysis-2/maxwin/BulkDock/SCRATCH/511028/C20288-P187

>  <alias>  (1365) 
CC(C)c1nc2c(s1)-c1nc3c(C(=O)Nc4ccc5c(c4)CNC5)cc(F)cc3n1CC2

>  <HIPPO Compound ID>  (1365) 
20288

>  <fragmenstein_runtime>  (1365) 
2.909163

$$$$
CC(C)c1nnc(-c2nc3c(C(=O)Nc4ccc5c(c4)CNC5)cc(F)cc3n2C#N)s1
     RDKit          3D

 32 36  0  0  0  0  0  0  0  0999 V2000
    1.0586    5.8669  -15.6514 C   0  0  0  0  0  0  0  0  0  0  0  0
    0.6695    5.9915  -17.1210 C   0  0  0  0  0  0  0  0  0  0  0  0
    1.3107    7.2175  -17.7634 C   0  0  0  0  0  0  0  0  0  0  0  0
   -0.8109    5.9587  -17.3958 C   0  0  0  0  0  0  0  0  0  0  0  0
   -1.2889    5.6699  -18.5889 N   0  0  0  0  0  0  0  0  0  0  0  0
   -2.6524    5.5549  -18.5931 N   0  0  0  0  0  0  0  0  0  0  0  0
   -3.1870    5.7908  -17.4148 C   0  0  0  0  0  0  0  0  0  0  0  0
   -4.5897    5.6172  -17.1788 C   0  0  0  0  0  0  0  0  0  0  0  0
   -5.1829    5.5844  -16.0005 N   0  0  0  0  0  0  0  0  0  0  0  0
   -6.4804    5.1881  -16.2443 C   0  0  0  0  0  0  0  0  0  0  0  0
   -7.5525    4.9459  -15.3628 C   0  0  0  0  0  0  0  0  0  0  0  0
   -7.4634    5.3725  -13.9516 C   0  0  0  0  0  0  0  0  0  0  0  0
   -7.1997    6.4884  -13.7300 O   0  0  0  0  0  0  0  0  0  0  0  0
   -7.8302    4.2188  -12.9890 N   0  0  0  0  0  0  0  0  0  0  0  0
   -8.0345    4.2205  -11.6101 C   0  0  0  0  0  0  0  0  0  0  0  0
   -7.9053    5.3969  -10.8534 C   0  0  0  0  0  0  0  0  0  0  0  0
   -8.1316    5.3914   -9.4720 C   0  0  0  0  0  0  0  0  0  0  0  0
   -8.5021    4.2010   -8.8761 C   0  0  0  0  0  0  0  0  0  0  0  0
   -8.6308    3.0338   -9.6229 C   0  0  0  0  0  0  0  0  0  0  0  0
   -8.3910    3.0209  -10.9869 C   0  0  0  0  0  0  0  0  0  0  0  0
   -9.0222    1.9160   -8.7123 C   0  0  0  0  0  0  0  0  0  0  0  0
   -9.4915    2.5840   -7.4683 N   0  0  0  0  0  0  0  0  0  0  0  0
   -8.8046    3.8940   -7.4476 C   0  0  0  0  0  0  0  0  0  0  0  0
   -8.7556    4.4256  -15.8607 C   0  0  0  0  0  0  0  0  0  0  0  0
   -8.8999    4.2034  -17.2240 C   0  0  0  0  0  0  0  0  0  0  0  0
  -10.0560    3.7064  -17.6802 F   0  0  0  0  0  0  0  0  0  0  0  0
   -7.8891    4.5068  -18.1368 C   0  0  0  0  0  0  0  0  0  0  0  0
   -6.6836    4.9932  -17.6135 C   0  0  0  0  0  0  0  0  0  0  0  0
   -5.5020    5.4048  -18.1878 N   0  0  0  0  0  0  0  0  0  0  0  0
   -5.2622    5.7339  -19.6051 C   0  0  0  0  0  0  0  0  0  0  0  0
   -4.9779    6.1409  -20.6547 N   0  0  0  0  0  0  0  0  0  0  0  0
   -2.0419    6.2202  -16.2149 S   0  0  0  0  0  0  0  0  0  0  0  0
  1  2  1  0
  2  3  1  0
  2  4  1  0
  4  5  2  0
  5  6  1  0
  6  7  2  0
  7  8  1  0
  8  9  2  0
  9 10  1  0
 10 11  2  0
 11 12  1  0
 12 13  2  0
 12 14  1  0
 14 15  1  0
 15 16  2  0
 16 17  1  0
 17 18  2  0
 18 19  1  0
 19 20  2  0
 19 21  1  0
 21 22  1  0
 22 23  1  0
 11 24  1  0
 24 25  2  0
 25 26  1  0
 25 27  1  0
 27 28  2  0
 28 29  1  0
 29 30  1  0
 30 31  3  0
  7 32  1  0
 32  4  1  0
 29  8  1  0
 28 10  1  0
 20 15  1  0
 23 18  1  0
M  END
>  <smiles>  (1366) 
C20291-P187

>  <fragmenstein_outcome>  (1366) 
acceptable

>  <inchikey>  (1366) 
NDZCNNVWQUUYOG-UHFFFAOYSA-N

>  <fragmenstein_mode>  (1366) 
expansion

>  <HIPPO Pose ID>  (1366) 
21217

>  <Energy>  (1366) 
67.657475

>  <fragmenstein_error>  (1366) 


>  <tags>  (1366) 
{'openbind_xx01zvns2b_c1_fragmenstein', 'fragmenstein_placed'}

>  <ref_pdb>  (1366) 
175

>  <scratch_subdir>  (1366) 
/opt/xchem-fragalysis-2/maxwin/BulkDock/SCRATCH/511028/C20291-P187

>  <alias>  (1366) 
CC(C)c1nnc(-c2nc3c(C(=O)Nc4ccc5c(c4)CNC5)cc(F)cc3n2C#N)s1

>  <HIPPO Compound ID>  (1366) 
20291

>  <fragmenstein_runtime>  (1366) 
6.616267

$$$$
CC(C)c1nnc(-c2[nH]c3c(C(=O)Nc4ccc5c(c4)CNC5)cc(F)cc3[n+]2[O-])s1
     RDKit          3D

 31 35  0  0  0  0  0  0  0  0999 V2000
    0.9808    5.9627  -15.7032 C   0  0  0  0  0  0  0  0  0  0  0  0
    0.5419    5.9801  -17.1658 C   0  0  0  0  0  0  0  0  0  0  0  0
    1.3624    7.0101  -17.9458 C   0  0  0  0  0  0  0  0  0  0  0  0
   -0.9384    6.1857  -17.3898 C   0  0  0  0  0  0  0  0  0  0  0  0
   -1.4509    6.4866  -18.5658 N   0  0  0  0  0  0  0  0  0  0  0  0
   -2.8254    6.4158  -18.5782 N   0  0  0  0  0  0  0  0  0  0  0  0
   -3.3243    6.0579  -17.4179 C   0  0  0  0  0  0  0  0  0  0  0  0
   -4.6980    5.7405  -17.2204 C   0  0  0  0  0  0  0  0  0  0  0  0
   -5.3413    5.7226  -16.0108 N   0  0  0  0  0  0  0  0  0  0  0  0
   -6.6192    5.2149  -16.2693 C   0  0  0  0  0  0  0  0  0  0  0  0
   -7.6729    4.9374  -15.3793 C   0  0  0  0  0  0  0  0  0  0  0  0
   -7.5636    5.3467  -13.9572 C   0  0  0  0  0  0  0  0  0  0  0  0
   -7.1436    6.4169  -13.7455 O   0  0  0  0  0  0  0  0  0  0  0  0
   -8.1201    4.2778  -12.9871 N   0  0  0  0  0  0  0  0  0  0  0  0
   -8.1860    4.2653  -11.5956 C   0  0  0  0  0  0  0  0  0  0  0  0
   -7.8691    5.4080  -10.8442 C   0  0  0  0  0  0  0  0  0  0  0  0
   -7.9782    5.4011   -9.4497 C   0  0  0  0  0  0  0  0  0  0  0  0
   -8.3891    4.2356   -8.8298 C   0  0  0  0  0  0  0  0  0  0  0  0
   -8.6822    3.0978   -9.5686 C   0  0  0  0  0  0  0  0  0  0  0  0
   -8.5950    3.0945  -10.9522 C   0  0  0  0  0  0  0  0  0  0  0  0
   -9.0452    1.9857   -8.6454 C   0  0  0  0  0  0  0  0  0  0  0  0
   -9.1407    2.5871   -7.2881 N   0  0  0  0  0  0  0  0  0  0  0  0
   -8.5843    3.9532   -7.3807 C   0  0  0  0  0  0  0  0  0  0  0  0
   -8.8515    4.3880  -15.9037 C   0  0  0  0  0  0  0  0  0  0  0  0
   -8.9792    4.1425  -17.2701 C   0  0  0  0  0  0  0  0  0  0  0  0
  -10.1272    3.6240  -17.7229 F   0  0  0  0  0  0  0  0  0  0  0  0
   -7.9624    4.4267  -18.1770 C   0  0  0  0  0  0  0  0  0  0  0  0
   -6.7864    4.9595  -17.6490 C   0  0  0  0  0  0  0  0  0  0  0  0
   -5.6279    5.3059  -18.2554 N   0  0  0  0  0  0  0  0  0  0  0  0
   -5.2758    5.2586  -19.4525 O   0  0  0  0  0  0  0  0  0  0  0  0
   -2.1427    5.9361  -16.1781 S   0  0  0  0  0  0  0  0  0  0  0  0
  1  2  1  0
  2  3  1  0
  2  4  1  0
  4  5  2  0
  5  6  1  0
  6  7  2  0
  7  8  1  0
  8  9  1  0
  9 10  1  0
 10 11  2  0
 11 12  1  0
 12 13  2  0
 12 14  1  0
 14 15  1  0
 15 16  2  0
 16 17  1  0
 17 18  2  0
 18 19  1  0
 19 20  2  0
 19 21  1  0
 21 22  1  0
 22 23  1  0
 11 24  1  0
 24 25  2  0
 25 26  1  0
 25 27  1  0
 27 28  2  0
 28 29  1  0
 29 30  1  0
  7 31  1  0
 31  4  1  0
 29  8  2  0
 28 10  1  0
 20 15  1  0
 23 18  1  0
M  CHG  2  29   1  30  -1
M  END
>  <smiles>  (1367) 
C20241-P187

>  <fragmenstein_outcome>  (1367) 
acceptable

>  <inchikey>  (1367) 
LXWGJLJFWJOWMJ-UHFFFAOYSA-N

>  <fragmenstein_mode>  (1367) 
expansion

>  <HIPPO Pose ID>  (1367) 
21218

>  <Energy>  (1367) 
56.576433

>  <fragmenstein_error>  (1367) 


>  <tags>  (1367) 
{'openbind_xx01zvns2b_c1_fragmenstein', 'fragmenstein_placed'}

>  <ref_pdb>  (1367) 
175

>  <scratch_subdir>  (1367) 
/opt/xchem-fragalysis-2/maxwin/BulkDock/SCRATCH/511028/C20241-P187

>  <alias>  (1367) 
CC(C)c1nnc(-c2[nH]c3c(C(=O)Nc4ccc5c(c4)CNC5)cc(F)cc3[n+]2[O-])s1

>  <HIPPO Compound ID>  (1367) 
31646

>  <fragmenstein_runtime>  (1367) 
3.698756

$$$$
CNCn1c(-c2nnc(C(C)C)s2)nc2c(C(=O)Nc3ccc4c(c3)CNC4)cc(F)cc21
     RDKit          3D

 33 37  0  0  0  0  0  0  0  0999 V2000
   -4.6467    6.9593  -21.3571 C   0  0  0  0  0  0  0  0  0  0  0  0
   -4.9623    6.8635  -19.9382 N   0  0  0  0  0  0  0  0  0  0  0  0
   -5.1871    5.4599  -19.5680 C   0  0  0  0  0  0  0  0  0  0  0  0
   -5.4891    5.4281  -18.1387 N   0  0  0  0  0  0  0  0  0  0  0  0
   -4.6067    5.7064  -17.1092 C   0  0  0  0  0  0  0  0  0  0  0  0
   -3.2036    5.9659  -17.2953 C   0  0  0  0  0  0  0  0  0  0  0  0
   -2.6749    6.1557  -18.4873 N   0  0  0  0  0  0  0  0  0  0  0  0
   -1.3111    6.2284  -18.4672 N   0  0  0  0  0  0  0  0  0  0  0  0
   -0.8215    6.1001  -17.2505 C   0  0  0  0  0  0  0  0  0  0  0  0
    0.6586    5.9610  -16.9951 C   0  0  0  0  0  0  0  0  0  0  0  0
    1.0682    5.9352  -15.5267 C   0  0  0  0  0  0  0  0  0  0  0  0
    1.4415    7.0375  -17.7499 C   0  0  0  0  0  0  0  0  0  0  0  0
   -2.0449    5.9952  -16.0340 S   0  0  0  0  0  0  0  0  0  0  0  0
   -5.2276    5.6648  -15.9443 N   0  0  0  0  0  0  0  0  0  0  0  0
   -6.5143    5.2450  -16.2053 C   0  0  0  0  0  0  0  0  0  0  0  0
   -7.6053    4.9958  -15.3471 C   0  0  0  0  0  0  0  0  0  0  0  0
   -7.5858    5.4474  -13.9403 C   0  0  0  0  0  0  0  0  0  0  0  0
   -7.3581    6.5733  -13.7262 O   0  0  0  0  0  0  0  0  0  0  0  0
   -7.9871    4.3031  -12.9760 N   0  0  0  0  0  0  0  0  0  0  0  0
   -8.0947    4.2864  -11.5872 C   0  0  0  0  0  0  0  0  0  0  0  0
   -7.8701    5.4429  -10.8250 C   0  0  0  0  0  0  0  0  0  0  0  0
   -8.0238    5.4252   -9.4346 C   0  0  0  0  0  0  0  0  0  0  0  0
   -8.4009    4.2397   -8.8305 C   0  0  0  0  0  0  0  0  0  0  0  0
   -8.6184    3.0929   -9.5810 C   0  0  0  0  0  0  0  0  0  0  0  0
   -8.4682    3.0947  -10.9592 C   0  0  0  0  0  0  0  0  0  0  0  0
   -8.9926    1.9687   -8.6774 C   0  0  0  0  0  0  0  0  0  0  0  0
   -9.1296    2.5543   -7.3160 N   0  0  0  0  0  0  0  0  0  0  0  0
   -8.6292    3.9434   -7.3894 C   0  0  0  0  0  0  0  0  0  0  0  0
   -8.7885    4.4476  -15.8665 C   0  0  0  0  0  0  0  0  0  0  0  0
   -8.8968    4.1986  -17.2252 C   0  0  0  0  0  0  0  0  0  0  0  0
  -10.0351    3.6779  -17.7007 F   0  0  0  0  0  0  0  0  0  0  0  0
   -7.8668    4.4994  -18.1129 C   0  0  0  0  0  0  0  0  0  0  0  0
   -6.6811    5.0208  -17.5740 C   0  0  0  0  0  0  0  0  0  0  0  0
  1  2  1  0
  2  3  1  0
  3  4  1  0
  4  5  1  0
  5  6  1  0
  6  7  2  0
  7  8  1  0
  8  9  2  0
  9 10  1  0
 10 11  1  0
 10 12  1  0
  9 13  1  0
  5 14  2  0
 14 15  1  0
 15 16  2  0
 16 17  1  0
 17 18  2  0
 17 19  1  0
 19 20  1  0
 20 21  2  0
 21 22  1  0
 22 23  2  0
 23 24  1  0
 24 25  2  0
 24 26  1  0
 26 27  1  0
 27 28  1  0
 16 29  1  0
 29 30  2  0
 30 31  1  0
 30 32  1  0
 32 33  2  0
 33  4  1  0
 13  6  1  0
 33 15  1  0
 25 20  1  0
 28 23  1  0
M  END
>  <smiles>  (1368) 
C20296-P187

>  <fragmenstein_outcome>  (1368) 
acceptable

>  <inchikey>  (1368) 
BFHBBZATYAOMHE-UHFFFAOYSA-N

>  <fragmenstein_mode>  (1368) 
expansion

>  <HIPPO Pose ID>  (1368) 
21219

>  <Energy>  (1368) 
75.263838

>  <fragmenstein_error>  (1368) 


>  <tags>  (1368) 
{'openbind_xx01zvns2b_c1_fragmenstein', 'fragmenstein_placed'}

>  <ref_pdb>  (1368) 
175

>  <scratch_subdir>  (1368) 
/opt/xchem-fragalysis-2/maxwin/BulkDock/SCRATCH/511028/C20296-P187

>  <alias>  (1368) 
CNCn1c(-c2nnc(C(C)C)s2)nc2c(C(=O)Nc3ccc4c(c3)CNC4)cc(F)cc21

>  <HIPPO Compound ID>  (1368) 
26928

>  <fragmenstein_runtime>  (1368) 
6.704694

$$$$
CC(C)c1nnc(-c2nc3cc(F)cc([C@@](O)(Nc4ccc5c(c4)CNC5)C(=O)NCC(F)F)c3[nH]2)s1
     RDKit          3D

 37 41  0  0  0  0  0  0  0  0999 V2000
    1.0661    5.6368  -15.8067 C   0  0  0  0  0  0  0  0  0  0  0  0
    0.4456    6.6426  -16.7775 C   0  0  0  0  0  0  0  0  0  0  0  0
    1.3375    6.7738  -18.0174 C   0  0  0  0  0  0  0  0  0  0  0  0
   -0.9610    6.2570  -17.1531 C   0  0  0  0  0  0  0  0  0  0  0  0
   -1.3286    5.8156  -18.3357 N   0  0  0  0  0  0  0  0  0  0  0  0
   -2.6778    5.5479  -18.4013 N   0  0  0  0  0  0  0  0  0  0  0  0
   -3.3011    5.7843  -17.2663 C   0  0  0  0  0  0  0  0  0  0  0  0
   -4.7017    5.5340  -17.0866 C   0  0  0  0  0  0  0  0  0  0  0  0
   -5.5207    5.1712  -18.0456 N   0  0  0  0  0  0  0  0  0  0  0  0
   -6.7222    4.9097  -17.4455 C   0  0  0  0  0  0  0  0  0  0  0  0
   -7.8884    4.4284  -18.0398 C   0  0  0  0  0  0  0  0  0  0  0  0
   -8.9698    4.1772  -17.2158 C   0  0  0  0  0  0  0  0  0  0  0  0
  -10.0930    3.6799  -17.7508 F   0  0  0  0  0  0  0  0  0  0  0  0
   -8.9204    4.4420  -15.8468 C   0  0  0  0  0  0  0  0  0  0  0  0
   -7.7874    5.0105  -15.2012 C   0  0  0  0  0  0  0  0  0  0  0  0
   -7.8961    5.4240  -13.7146 C   0  0  1  0  0  0  0  0  0  0  0  0
   -9.1592    6.0589  -13.5895 O   0  0  0  0  0  0  0  0  0  0  0  0
   -7.8962    4.2314  -12.8555 N   0  0  0  0  0  0  0  0  0  0  0  0
   -8.1695    4.2540  -11.4746 C   0  0  0  0  0  0  0  0  0  0  0  0
   -8.0082    5.3844  -10.6407 C   0  0  0  0  0  0  0  0  0  0  0  0
   -8.2257    5.3316   -9.2547 C   0  0  0  0  0  0  0  0  0  0  0  0
   -8.5992    4.1285   -8.6979 C   0  0  0  0  0  0  0  0  0  0  0  0
   -8.7238    2.9942   -9.4877 C   0  0  0  0  0  0  0  0  0  0  0  0
   -8.4896    3.0340  -10.8548 C   0  0  0  0  0  0  0  0  0  0  0  0
   -9.0892    1.8380   -8.6153 C   0  0  0  0  0  0  0  0  0  0  0  0
   -9.5719    2.4543   -7.3503 N   0  0  0  0  0  0  0  0  0  0  0  0
   -8.8972    3.7688   -7.2800 C   0  0  0  0  0  0  0  0  0  0  0  0
   -6.6630    6.3951  -13.3261 C   0  0  0  0  0  0  0  0  0  0  0  0
   -6.6978    7.5576  -13.4593 O   0  0  0  0  0  0  0  0  0  0  0  0
   -5.5080    5.4688  -12.8326 N   0  0  0  0  0  0  0  0  0  0  0  0
   -4.1963    5.7972  -12.3135 C   0  0  0  0  0  0  0  0  0  0  0  0
   -4.1997    6.2604  -10.8597 C   0  0  0  0  0  0  0  0  0  0  0  0
   -4.3395    5.1930  -10.0353 F   0  0  0  0  0  0  0  0  0  0  0  0
   -2.9940    6.8154  -10.5672 F   0  0  0  0  0  0  0  0  0  0  0  0
   -6.6790    5.1750  -16.0738 C   0  0  0  0  0  0  0  0  0  0  0  0
   -5.3749    5.5926  -15.8914 N   0  0  0  0  0  0  0  0  0  0  0  0
   -2.2660    6.3818  -16.0299 S   0  0  0  0  0  0  0  0  0  0  0  0
  1  2  1  0
  2  3  1  0
  2  4  1  0
  4  5  2  0
  5  6  1  0
  6  7  2  0
  7  8  1  0
  8  9  2  0
  9 10  1  0
 10 11  2  0
 11 12  1  0
 12 13  1  0
 12 14  2  0
 14 15  1  0
 15 16  1  0
 16 17  1  6
 16 18  1  0
 18 19  1  0
 19 20  2  0
 20 21  1  0
 21 22  2  0
 22 23  1  0
 23 24  2  0
 23 25  1  0
 25 26  1  0
 26 27  1  0
 16 28  1  0
 28 29  2  0
 28 30  1  0
 30 31  1  0
 31 32  1  0
 32 33  1  0
 32 34  1  0
 15 35  2  0
 35 36  1  0
  7 37  1  0
 37  4  1  0
 36  8  1  0
 35 10  1  0
 24 19  1  0
 27 22  1  0
M  END
>  <smiles>  (1369) 
C20239-P187

>  <fragmenstein_outcome>  (1369) 
acceptable

>  <inchikey>  (1369) 
CIKJUBSBNKBESN-UHFFFAOYSA-N

>  <fragmenstein_mode>  (1369) 
expansion

>  <HIPPO Pose ID>  (1369) 
21221

>  <Energy>  (1369) 
121.372346

>  <fragmenstein_error>  (1369) 


>  <tags>  (1369) 
{'openbind_xx01zvns2b_c1_fragmenstein', 'fragmenstein_placed'}

>  <ref_pdb>  (1369) 
175

>  <scratch_subdir>  (1369) 
/opt/xchem-fragalysis-2/maxwin/BulkDock/SCRATCH/511028/C20239-P187

>  <alias>  (1369) 
CC(C)c1nnc(-c2nc3cc(F)cc([C@@](O)(Nc4ccc5c(c4)CNC5)C(=O)NCC(F)F)c3[nH]2)s1

>  <HIPPO Compound ID>  (1369) 
20239

>  <fragmenstein_runtime>  (1369) 
8.191017

$$$$
CC(C)NC(=O)[C@](O)(Nc1ccc2c(c1)CNC2)[C@H]1C[C@@H](F)C[C@@H]2N[C@H](c3nnc(C(C)C)s3)C[C@@H]21
     RDKit          3D

 36 40  0  0  0  0  0  0  0  0999 V2000
   -3.2729    2.1150  -14.4730 C   0  0  0  0  0  0  0  0  0  0  0  0
   -3.5026    2.9406  -13.2205 C   0  0  0  0  0  0  0  0  0  0  0  0
   -3.3800    2.0777  -11.9849 C   0  0  0  0  0  0  0  0  0  0  0  0
   -4.7657    3.6377  -13.2604 N   0  0  0  0  0  0  0  0  0  0  0  0
   -6.2274    3.0870  -13.3772 C   0  0  0  0  0  0  0  0  0  0  0  0
   -6.6253    1.9838  -13.3803 O   0  0  0  0  0  0  0  0  0  0  0  0
   -7.1450    4.3879  -13.6162 C   0  0  2  0  0  0  0  0  0  0  0  0
   -6.4723    5.5532  -13.1449 O   0  0  0  0  0  0  0  0  0  0  0  0
   -8.4356    4.2608  -12.9147 N   0  0  0  0  0  0  0  0  0  0  0  0
   -8.4470    4.2642  -11.5023 C   0  0  0  0  0  0  0  0  0  0  0  0
   -8.2949    5.4653  -10.7745 C   0  0  0  0  0  0  0  0  0  0  0  0
   -8.3259    5.4869   -9.3745 C   0  0  0  0  0  0  0  0  0  0  0  0
   -8.5584    4.2967   -8.7134 C   0  0  0  0  0  0  0  0  0  0  0  0
   -8.7160    3.1078   -9.4163 C   0  0  0  0  0  0  0  0  0  0  0  0
   -8.6341    3.0687  -10.7984 C   0  0  0  0  0  0  0  0  0  0  0  0
   -8.9885    1.9978   -8.4556 C   0  0  0  0  0  0  0  0  0  0  0  0
   -9.3299    2.6759   -7.1732 N   0  0  0  0  0  0  0  0  0  0  0  0
   -8.7161    4.0189   -7.2567 C   0  0  0  0  0  0  0  0  0  0  0  0
   -7.3262    4.5000  -15.1807 C   0  0  1  0  0  0  0  0  0  0  0  0
   -8.7755    4.5302  -15.6980 C   0  0  0  0  0  0  0  0  0  0  0  0
   -8.8432    4.2804  -17.2071 C   0  0  1  0  0  0  0  0  0  0  0  0
   -9.9173    4.9397  -17.7139 F   0  0  0  0  0  0  0  0  0  0  0  0
   -7.5858    4.6743  -17.9732 C   0  0  0  0  0  0  0  0  0  0  0  0
   -6.8607    5.8567  -17.3498 C   0  0  2  0  0  0  0  0  0  0  0  0
   -5.5645    6.1231  -18.0000 N   0  0  0  0  0  0  0  0  0  0  0  0
   -4.6227    6.4819  -16.9332 C   0  0  2  0  0  0  0  0  0  0  0  0
   -3.1778    6.2567  -17.2576 C   0  0  0  0  0  0  0  0  0  0  0  0
   -2.6963    5.4878  -18.2118 N   0  0  0  0  0  0  0  0  0  0  0  0
   -1.3160    5.4994  -18.2446 N   0  0  0  0  0  0  0  0  0  0  0  0
   -0.7943    6.2550  -17.3020 C   0  0  0  0  0  0  0  0  0  0  0  0
    0.6734    6.4792  -17.0680 C   0  0  0  0  0  0  0  0  0  0  0  0
    1.2096    5.5230  -16.0014 C   0  0  0  0  0  0  0  0  0  0  0  0
    1.4729    6.3322  -18.3631 C   0  0  0  0  0  0  0  0  0  0  0  0
   -1.9636    7.0073  -16.2934 S   0  0  0  0  0  0  0  0  0  0  0  0
   -5.0733    5.6283  -15.7629 C   0  0  0  0  0  0  0  0  0  0  0  0
   -6.5896    5.6940  -15.8405 C   0  0  2  0  0  0  0  0  0  0  0  0
  1  2  1  0
  2  3  1  0
  2  4  1  0
  4  5  1  0
  5  6  2  0
  5  7  1  0
  7  8  1  1
  7  9  1  0
  9 10  1  0
 10 11  2  0
 11 12  1  0
 12 13  2  0
 13 14  1  0
 14 15  2  0
 14 16  1  0
 16 17  1  0
 17 18  1  0
  7 19  1  0
 19 20  1  1
 20 21  1  0
 21 22  1  6
 21 23  1  0
 24 23  1  6
 24 25  1  0
 25 26  1  0
 26 27  1  6
 27 28  2  0
 28 29  1  0
 29 30  2  0
 30 31  1  0
 31 32  1  0
 31 33  1  0
 30 34  1  0
 26 35  1  0
 36 35  1  6
 15 10  1  0
 36 19  1  0
 18 13  1  0
 36 24  1  0
 34 27  1  0
M  END
>  <smiles>  (1370) 
C20314-P163

>  <fragmenstein_outcome>  (1370) 
acceptable

>  <inchikey>  (1370) 
MRGFPIVNPFBWSH-UHFFFAOYSA-N

>  <fragmenstein_mode>  (1370) 
expansion

>  <HIPPO Pose ID>  (1370) 
21223

>  <Energy>  (1370) 
104.489508

>  <fragmenstein_error>  (1370) 


>  <tags>  (1370) 
{'openbind_xx01zvns2b_c1_fragmenstein', 'fragmenstein_placed'}

>  <ref_pdb>  (1370) 
175

>  <scratch_subdir>  (1370) 
/opt/xchem-fragalysis-2/maxwin/BulkDock/SCRATCH/511028/C20314-P163

>  <alias>  (1370) 
CC(C)NC(=O)[C@](O)(Nc1ccc2c(c1)CNC2)[C@H]1C[C@@H](F)C[C@@H]2N[C@H](c3nnc(C(C)C)s3)C[C@@H]21

>  <HIPPO Compound ID>  (1370) 
26535

>  <fragmenstein_runtime>  (1370) 
8.764313

$$$$
CNCn1c(-c2nnc(C(C)C)s2)nc2c(C(=O)Nc3cc(F)c4c(c3)CN3CCC(=O)[C@H]43)cc(F)cc21
     RDKit          3D

 38 43  0  0  0  0  0  0  0  0999 V2000
   -2.5649    4.8217  -20.0947 C   0  0  0  0  0  0  0  0  0  0  0  0
   -3.4964    4.7154  -19.0047 N   0  0  0  0  0  0  0  0  0  0  0  0
   -4.7999    5.3307  -19.2206 C   0  0  0  0  0  0  0  0  0  0  0  0
   -5.3581    5.5393  -17.8847 N   0  0  0  0  0  0  0  0  0  0  0  0
   -4.6705    6.1063  -16.8246 C   0  0  0  0  0  0  0  0  0  0  0  0
   -3.3230    6.5961  -16.9260 C   0  0  0  0  0  0  0  0  0  0  0  0
   -2.8940    7.3214  -17.9411 N   0  0  0  0  0  0  0  0  0  0  0  0
   -1.5179    7.4052  -17.9751 N   0  0  0  0  0  0  0  0  0  0  0  0
   -0.9468    6.7825  -16.9604 C   0  0  0  0  0  0  0  0  0  0  0  0
    0.5539    6.7077  -16.7908 C   0  0  0  0  0  0  0  0  0  0  0  0
    1.0445    5.7879  -15.6724 C   0  0  0  0  0  0  0  0  0  0  0  0
    1.2174    6.2927  -18.1108 C   0  0  0  0  0  0  0  0  0  0  0  0
   -2.0830    6.1264  -15.8399 S   0  0  0  0  0  0  0  0  0  0  0  0
   -5.3765    6.0311  -15.7151 N   0  0  0  0  0  0  0  0  0  0  0  0
   -6.5708    5.4409  -16.0591 C   0  0  0  0  0  0  0  0  0  0  0  0
   -7.6948    5.1233  -15.2688 C   0  0  0  0  0  0  0  0  0  0  0  0
   -7.7522    5.5633  -13.8579 C   0  0  0  0  0  0  0  0  0  0  0  0
   -7.5826    6.6933  -13.6184 O   0  0  0  0  0  0  0  0  0  0  0  0
   -8.0289    4.3683  -12.9137 N   0  0  0  0  0  0  0  0  0  0  0  0
   -8.2409    4.3329  -11.5357 C   0  0  0  0  0  0  0  0  0  0  0  0
   -8.1187    5.4895  -10.7515 C   0  0  0  0  0  0  0  0  0  0  0  0
   -8.2373    5.4135   -9.3634 C   0  0  0  0  0  0  0  0  0  0  0  0
   -8.0305    6.5054   -8.6180 F   0  0  0  0  0  0  0  0  0  0  0  0
   -8.5046    4.2012   -8.7680 C   0  0  0  0  0  0  0  0  0  0  0  0
   -8.6580    3.0572   -9.5500 C   0  0  0  0  0  0  0  0  0  0  0  0
   -8.5242    3.1032  -10.9313 C   0  0  0  0  0  0  0  0  0  0  0  0
   -8.8648    1.8628   -8.6706 C   0  0  0  0  0  0  0  0  0  0  0  0
   -8.9110    2.3879   -7.2914 N   0  0  0  0  0  0  0  0  0  0  0  0
  -10.2222    2.3078   -6.6649 C   0  0  0  0  0  0  0  0  0  0  0  0
  -10.2173    3.4032   -5.6194 C   0  0  0  0  0  0  0  0  0  0  0  0
   -9.4971    4.4683   -6.3873 C   0  0  0  0  0  0  0  0  0  0  0  0
   -9.6830    5.6663   -6.2056 O   0  0  0  0  0  0  0  0  0  0  0  0
   -8.5070    3.8249   -7.3306 C   0  0  2  0  0  0  0  0  0  0  0  0
   -8.7913    4.4751  -15.8495 C   0  0  0  0  0  0  0  0  0  0  0  0
   -8.7803    4.1879  -17.2076 C   0  0  0  0  0  0  0  0  0  0  0  0
   -9.8529    3.5908  -17.7440 F   0  0  0  0  0  0  0  0  0  0  0  0
   -7.6949    4.5075  -18.0283 C   0  0  0  0  0  0  0  0  0  0  0  0
   -6.5902    5.1248  -17.4214 C   0  0  0  0  0  0  0  0  0  0  0  0
  1  2  1  0
  2  3  1  0
  3  4  1  0
  4  5  1  0
  5  6  1  0
  6  7  2  0
  7  8  1  0
  8  9  2  0
  9 10  1  0
 10 11  1  0
 10 12  1  0
  9 13  1  0
  5 14  2  0
 14 15  1  0
 15 16  2  0
 16 17  1  0
 17 18  2  0
 17 19  1  0
 19 20  1  0
 20 21  2  0
 21 22  1  0
 22 23  1  0
 22 24  2  0
 24 25  1  0
 25 26  2  0
 25 27  1  0
 27 28  1  0
 28 29  1  0
 29 30  1  0
 30 31  1  0
 31 32  2  0
 33 31  1  1
 16 34  1  0
 34 35  2  0
 35 36  1  0
 35 37  1  0
 37 38  2  0
 38  4  1  0
 13  6  1  0
 38 15  1  0
 26 20  1  0
 33 28  1  0
 33 24  1  0
M  END
>  <smiles>  (1371) 
C20318-P187

>  <fragmenstein_outcome>  (1371) 
acceptable

>  <inchikey>  (1371) 
VVKCKLDUSMLFFI-UHFFFAOYSA-N

>  <fragmenstein_mode>  (1371) 
expansion

>  <HIPPO Pose ID>  (1371) 
21224

>  <Energy>  (1371) 
113.898555

>  <fragmenstein_error>  (1371) 


>  <tags>  (1371) 
{'openbind_xx01zvns2b_c1_fragmenstein', 'fragmenstein_placed'}

>  <ref_pdb>  (1371) 
175

>  <scratch_subdir>  (1371) 
/opt/xchem-fragalysis-2/maxwin/BulkDock/SCRATCH/511028/C20318-P187

>  <alias>  (1371) 
CNCn1c(-c2nnc(C(C)C)s2)nc2c(C(=O)Nc3cc(F)c4c(c3)CN3CCC(=O)[C@H]43)cc(F)cc21

>  <HIPPO Compound ID>  (1371) 
29089

>  <fragmenstein_runtime>  (1371) 
11.316621

$$$$
CNCn1c(-c2nnc(C(C)C)s2)nc2c(C(=O)Nc3cc(F)c4c(c3)CNC4)cc(F)cc21
     RDKit          3D

 34 38  0  0  0  0  0  0  0  0999 V2000
   -6.9320    3.8646  -19.7969 C   0  0  0  0  0  0  0  0  0  0  0  0
   -6.4802    5.2048  -19.5269 N   0  0  0  0  0  0  0  0  0  0  0  0
   -5.2467    5.3221  -18.8405 C   0  0  0  0  0  0  0  0  0  0  0  0
   -5.5263    5.3798  -17.4114 N   0  0  0  0  0  0  0  0  0  0  0  0
   -4.5535    5.6470  -16.4678 C   0  0  0  0  0  0  0  0  0  0  0  0
   -3.1652    5.8586  -16.7861 C   0  0  0  0  0  0  0  0  0  0  0  0
   -2.6661    5.6314  -17.9866 N   0  0  0  0  0  0  0  0  0  0  0  0
   -1.3209    5.8815  -18.0676 N   0  0  0  0  0  0  0  0  0  0  0  0
   -0.8239    6.2854  -16.9173 C   0  0  0  0  0  0  0  0  0  0  0  0
    0.6219    6.6231  -16.6750 C   0  0  0  0  0  0  0  0  0  0  0  0
    1.2907    5.5879  -15.7699 C   0  0  0  0  0  0  0  0  0  0  0  0
    1.3977    6.7307  -17.9927 C   0  0  0  0  0  0  0  0  0  0  0  0
   -2.0005    6.4137  -15.6605 S   0  0  0  0  0  0  0  0  0  0  0  0
   -5.0755    5.6515  -15.2548 N   0  0  0  0  0  0  0  0  0  0  0  0
   -6.4013    5.3045  -15.4013 C   0  0  0  0  0  0  0  0  0  0  0  0
   -7.4343    5.0931  -14.4721 C   0  0  0  0  0  0  0  0  0  0  0  0
   -7.2934    5.4535  -13.0581 C   0  0  0  0  0  0  0  0  0  0  0  0
   -6.9855    6.5374  -12.7593 O   0  0  0  0  0  0  0  0  0  0  0  0
   -7.7053    4.2539  -12.1818 N   0  0  0  0  0  0  0  0  0  0  0  0
   -7.9081    4.1665  -10.8184 C   0  0  0  0  0  0  0  0  0  0  0  0
   -7.7395    5.2773   -9.9822 C   0  0  0  0  0  0  0  0  0  0  0  0
   -8.0947    5.1838   -8.6423 C   0  0  0  0  0  0  0  0  0  0  0  0
   -7.9579    6.2403   -7.8307 F   0  0  0  0  0  0  0  0  0  0  0  0
   -8.6136    4.0020   -8.1666 C   0  0  0  0  0  0  0  0  0  0  0  0
   -8.7503    2.8977   -9.0001 C   0  0  0  0  0  0  0  0  0  0  0  0
   -8.3970    2.9548  -10.3293 C   0  0  0  0  0  0  0  0  0  0  0  0
   -9.2747    1.7555   -8.2055 C   0  0  0  0  0  0  0  0  0  0  0  0
   -9.8523    2.3804   -6.9888 N   0  0  0  0  0  0  0  0  0  0  0  0
   -9.0893    3.6401   -6.8054 C   0  0  0  0  0  0  0  0  0  0  0  0
   -8.7001    4.6220  -14.8846 C   0  0  0  0  0  0  0  0  0  0  0  0
   -8.9629    4.4559  -16.2194 C   0  0  0  0  0  0  0  0  0  0  0  0
  -10.1406    3.9898  -16.6472 F   0  0  0  0  0  0  0  0  0  0  0  0
   -8.0195    4.8058  -17.1546 C   0  0  0  0  0  0  0  0  0  0  0  0
   -6.7157    5.1437  -16.7465 C   0  0  0  0  0  0  0  0  0  0  0  0
  1  2  1  0
  2  3  1  0
  3  4  1  0
  4  5  1  0
  5  6  1  0
  6  7  2  0
  7  8  1  0
  8  9  2  0
  9 10  1  0
 10 11  1  0
 10 12  1  0
  9 13  1  0
  5 14  2  0
 14 15  1  0
 15 16  2  0
 16 17  1  0
 17 18  2  0
 17 19  1  0
 19 20  1  0
 20 21  2  0
 21 22  1  0
 22 23  1  0
 22 24  2  0
 24 25  1  0
 25 26  2  0
 25 27  1  0
 27 28  1  0
 28 29  1  0
 16 30  1  0
 30 31  2  0
 31 32  1  0
 31 33  1  0
 33 34  2  0
 34  4  1  0
 13  6  1  0
 34 15  1  0
 26 20  1  0
 29 24  1  0
M  END
>  <smiles>  (1372) 
C20324-P187

>  <fragmenstein_outcome>  (1372) 
acceptable

>  <inchikey>  (1372) 
ZNYBMWJDCBETJF-UHFFFAOYSA-N

>  <fragmenstein_mode>  (1372) 
expansion

>  <HIPPO Pose ID>  (1372) 
21225

>  <Energy>  (1372) 
81.084615

>  <fragmenstein_error>  (1372) 


>  <tags>  (1372) 
{'openbind_xx01zvns2b_c1_fragmenstein', 'fragmenstein_placed'}

>  <ref_pdb>  (1372) 
175

>  <scratch_subdir>  (1372) 
/opt/xchem-fragalysis-2/maxwin/BulkDock/SCRATCH/511028/C20324-P187

>  <alias>  (1372) 
CNCn1c(-c2nnc(C(C)C)s2)nc2c(C(=O)Nc3cc(F)c4c(c3)CNC4)cc(F)cc21

>  <HIPPO Compound ID>  (1372) 
20324

>  <fragmenstein_runtime>  (1372) 
7.42962

$$$$
CNCn1c(-c2nnc(C(C)C)s2)nc2c(C(=O)Nc3cc(F)c4c(c3)CNC43CCCC3)cc(F)cc21
     RDKit          3D

 38 43  0  0  0  0  0  0  0  0999 V2000
   -7.2688    3.5755  -19.8553 C   0  0  0  0  0  0  0  0  0  0  0  0
   -6.0282    4.3141  -19.8700 N   0  0  0  0  0  0  0  0  0  0  0  0
   -5.9795    5.5768  -19.1689 C   0  0  0  0  0  0  0  0  0  0  0  0
   -5.9176    5.3586  -17.7350 N   0  0  0  0  0  0  0  0  0  0  0  0
   -4.8601    5.5439  -16.8715 C   0  0  0  0  0  0  0  0  0  0  0  0
   -3.4855    5.7779  -17.2284 C   0  0  0  0  0  0  0  0  0  0  0  0
   -2.9864    5.6276  -18.4385 N   0  0  0  0  0  0  0  0  0  0  0  0
   -1.6300    5.8922  -18.4910 N   0  0  0  0  0  0  0  0  0  0  0  0
   -1.1337    6.2297  -17.3167 C   0  0  0  0  0  0  0  0  0  0  0  0
    0.3035    6.6105  -17.0440 C   0  0  0  0  0  0  0  0  0  0  0  0
    0.9717    5.6960  -16.0142 C   0  0  0  0  0  0  0  0  0  0  0  0
    1.1373    6.6151  -18.3293 C   0  0  0  0  0  0  0  0  0  0  0  0
   -2.3187    6.2818  -16.0669 S   0  0  0  0  0  0  0  0  0  0  0  0
   -5.2840    5.4791  -15.6169 N   0  0  0  0  0  0  0  0  0  0  0  0
   -6.6176    5.1531  -15.6622 C   0  0  0  0  0  0  0  0  0  0  0  0
   -7.5775    4.9186  -14.6596 C   0  0  0  0  0  0  0  0  0  0  0  0
   -7.3196    5.2965  -13.2564 C   0  0  0  0  0  0  0  0  0  0  0  0
   -6.7965    6.3176  -13.0416 O   0  0  0  0  0  0  0  0  0  0  0  0
   -7.9129    4.2503  -12.2845 N   0  0  0  0  0  0  0  0  0  0  0  0
   -8.0648    4.2854  -10.9070 C   0  0  0  0  0  0  0  0  0  0  0  0
   -7.6990    5.4182  -10.1738 C   0  0  0  0  0  0  0  0  0  0  0  0
   -7.8782    5.4460   -8.7930 C   0  0  0  0  0  0  0  0  0  0  0  0
   -7.4706    6.5235   -8.1122 F   0  0  0  0  0  0  0  0  0  0  0  0
   -8.4291    4.3594   -8.1436 C   0  0  0  0  0  0  0  0  0  0  0  0
   -8.7992    3.2430   -8.8934 C   0  0  0  0  0  0  0  0  0  0  0  0
   -8.6294    3.1834  -10.2691 C   0  0  0  0  0  0  0  0  0  0  0  0
   -9.3688    2.2038   -8.0004 C   0  0  0  0  0  0  0  0  0  0  0  0
   -9.0782    2.6540   -6.6213 N   0  0  0  0  0  0  0  0  0  0  0  0
   -8.6392    4.0783   -6.6803 C   0  0  0  0  0  0  0  0  0  0  0  0
   -7.3696    4.3261   -5.8410 C   0  0  0  0  0  0  0  0  0  0  0  0
   -7.4833    5.7306   -5.2435 C   0  0  0  0  0  0  0  0  0  0  0  0
   -8.9082    6.1926   -5.5007 C   0  0  0  0  0  0  0  0  0  0  0  0
   -9.6605    4.9404   -5.9236 C   0  0  0  0  0  0  0  0  0  0  0  0
   -8.8658    4.4796  -15.0241 C   0  0  0  0  0  0  0  0  0  0  0  0
   -9.2134    4.3860  -16.3551 C   0  0  0  0  0  0  0  0  0  0  0  0
  -10.4146    3.9484  -16.7349 F   0  0  0  0  0  0  0  0  0  0  0  0
   -8.3511    4.7945  -17.3400 C   0  0  0  0  0  0  0  0  0  0  0  0
   -7.0363    5.0828  -16.9814 C   0  0  0  0  0  0  0  0  0  0  0  0
  1  2  1  0
  2  3  1  0
  3  4  1  0
  4  5  1  0
  5  6  1  0
  6  7  2  0
  7  8  1  0
  8  9  2  0
  9 10  1  0
 10 11  1  0
 10 12  1  0
  9 13  1  0
  5 14  2  0
 14 15  1  0
 15 16  2  0
 16 17  1  0
 17 18  2  0
 17 19  1  0
 19 20  1  0
 20 21  2  0
 21 22  1  0
 22 23  1  0
 22 24  2  0
 24 25  1  0
 25 26  2  0
 25 27  1  0
 27 28  1  0
 28 29  1  0
 29 30  1  0
 30 31  1  0
 31 32  1  0
 32 33  1  0
 16 34  1  0
 34 35  2  0
 35 36  1  0
 35 37  1  0
 37 38  2  0
 38  4  1  0
 13  6  1  0
 38 15  1  0
 26 20  1  0
 33 29  1  0
 29 24  1  0
M  END
>  <smiles>  (1373) 
C20326-P187

>  <fragmenstein_outcome>  (1373) 
acceptable

>  <inchikey>  (1373) 
NEXLDOUYRFITDP-UHFFFAOYSA-N

>  <fragmenstein_mode>  (1373) 
expansion

>  <HIPPO Pose ID>  (1373) 
21226

>  <Energy>  (1373) 
92.164335

>  <fragmenstein_error>  (1373) 


>  <tags>  (1373) 
{'openbind_xx01zvns2b_c1_fragmenstein', 'fragmenstein_placed'}

>  <ref_pdb>  (1373) 
175

>  <scratch_subdir>  (1373) 
/opt/xchem-fragalysis-2/maxwin/BulkDock/SCRATCH/511028/C20326-P187

>  <alias>  (1373) 
CNCn1c(-c2nnc(C(C)C)s2)nc2c(C(=O)Nc3cc(F)c4c(c3)CNC43CCCC3)cc(F)cc21

>  <HIPPO Compound ID>  (1373) 
20326

>  <fragmenstein_runtime>  (1373) 
8.957003

$$$$
CC(C)[C@H]1N[C@@H]2CN[C@H]3[C@@H]4C[C@@H](F)C[C@H](C(=O)Nc5ccc6c(c5)CNC6)[C@H]4N[C@H]3[C@@H]2S1
     RDKit          3D

 32 37  0  0  0  0  0  0  0  0999 V2000
    1.1048    5.9432  -16.2206 C   0  0  0  0  0  0  0  0  0  0  0  0
    0.2720    6.0324  -17.5087 C   0  0  0  0  0  0  0  0  0  0  0  0
    1.1201    6.7057  -18.5947 C   0  0  0  0  0  0  0  0  0  0  0  0
   -1.0898    6.7636  -17.3337 C   0  0  1  0  0  0  0  0  0  0  0  0
   -1.9583    6.6577  -18.5248 N   0  0  0  0  0  0  0  0  0  0  0  0
   -2.7861    5.4405  -18.3520 C   0  0  2  0  0  0  0  0  0  0  0  0
   -3.9051    5.2617  -19.3984 C   0  0  0  0  0  0  0  0  0  0  0  0
   -5.0452    6.1620  -19.2989 N   0  0  0  0  0  0  0  0  0  0  0  0
   -5.6377    6.1776  -17.9726 C   0  0  1  0  0  0  0  0  0  0  0  0
   -6.5903    5.0728  -17.4737 C   0  0  2  0  0  0  0  0  0  0  0  0
   -7.9130    4.8723  -18.1988 C   0  0  0  0  0  0  0  0  0  0  0  0
   -9.0768    4.3512  -17.3366 C   0  0  1  0  0  0  0  0  0  0  0  0
   -9.1558    2.9988  -17.4652 F   0  0  0  0  0  0  0  0  0  0  0  0
   -9.0453    4.6642  -15.8372 C   0  0  0  0  0  0  0  0  0  0  0  0
   -7.6587    4.7205  -15.1923 C   0  0  2  0  0  0  0  0  0  0  0  0
   -7.7815    5.3510  -13.7961 C   0  0  0  0  0  0  0  0  0  0  0  0
   -7.6045    6.4911  -13.5966 O   0  0  0  0  0  0  0  0  0  0  0  0
   -8.1637    4.2030  -12.8163 N   0  0  0  0  0  0  0  0  0  0  0  0
   -8.3066    4.2068  -11.4330 C   0  0  0  0  0  0  0  0  0  0  0  0
   -8.1344    5.3825  -10.6853 C   0  0  0  0  0  0  0  0  0  0  0  0
   -8.2513    5.3659   -9.2919 C   0  0  0  0  0  0  0  0  0  0  0  0
   -8.5578    4.1667   -8.6754 C   0  0  0  0  0  0  0  0  0  0  0  0
   -8.7386    3.0067   -9.4168 C   0  0  0  0  0  0  0  0  0  0  0  0
   -8.6048    3.0028  -10.7943 C   0  0  0  0  0  0  0  0  0  0  0  0
   -9.0482    1.8723   -8.5032 C   0  0  0  0  0  0  0  0  0  0  0  0
   -9.2370    2.4711   -7.1544 N   0  0  0  0  0  0  0  0  0  0  0  0
   -8.7389    3.8610   -7.2290 C   0  0  0  0  0  0  0  0  0  0  0  0
   -6.7692    5.5915  -16.0529 C   0  0  1  0  0  0  0  0  0  0  0  0
   -5.3892    5.7818  -15.6080 N   0  0  0  0  0  0  0  0  0  0  0  0
   -4.6454    6.2966  -16.7863 C   0  0  1  0  0  0  0  0  0  0  0  0
   -3.3761    5.4478  -16.9443 C   0  0  2  0  0  0  0  0  0  0  0  0
   -2.0443    6.1451  -15.9160 S   0  0  0  0  0  0  0  0  0  0  0  0
  1  2  1  0
  2  3  1  0
  4  2  1  6
  4  5  1  0
  5  6  1  0
  6  7  1  6
  7  8  1  0
  9  8  1  6
  9 10  1  0
 10 11  1  6
 11 12  1  0
 12 13  1  1
 12 14  1  0
 14 15  1  0
 15 16  1  1
 16 17  2  0
 16 18  1  0
 18 19  1  0
 19 20  2  0
 20 21  1  0
 21 22  2  0
 22 23  1  0
 23 24  2  0
 23 25  1  0
 25 26  1  0
 26 27  1  0
 15 28  1  0
 28 29  1  1
 30 29  1  1
 30 31  1  0
 31 32  1  1
 32  4  1  0
 31  6  1  0
 30  9  1  0
 28 10  1  0
 24 19  1  0
 27 22  1  0
M  END
>  <smiles>  (1374) 
C20335-P187

>  <fragmenstein_outcome>  (1374) 
acceptable

>  <inchikey>  (1374) 
IEPDGPCPZKETDF-UHFFFAOYSA-N

>  <fragmenstein_mode>  (1374) 
expansion

>  <HIPPO Pose ID>  (1374) 
21227

>  <Energy>  (1374) 
108.445043

>  <fragmenstein_error>  (1374) 


>  <tags>  (1374) 
{'openbind_xx01zvns2b_c1_fragmenstein', 'fragmenstein_placed'}

>  <ref_pdb>  (1374) 
175

>  <scratch_subdir>  (1374) 
/opt/xchem-fragalysis-2/maxwin/BulkDock/SCRATCH/511028/C20335-P187

>  <alias>  (1374) 
CC(C)[C@H]1N[C@@H]2CN[C@H]3[C@@H]4C[C@@H](F)C[C@H](C(=O)Nc5ccc6c(c5)CNC6)[C@H]4N[C@H]3[C@@H]2S1

>  <HIPPO Compound ID>  (1374) 
20335

>  <fragmenstein_runtime>  (1374) 
5.94186

$$$$
CC(C)c1nc2c(s1)-c1nc3c(C(=O)Nc4ccc5c(c4)CNC5)cc(F)cc3n1CCCN2
     RDKit          3D

 34 39  0  0  0  0  0  0  0  0999 V2000
    1.1128    5.4726  -15.5485 C   0  0  0  0  0  0  0  0  0  0  0  0
    0.6218    6.6955  -16.3212 C   0  0  0  0  0  0  0  0  0  0  0  0
    1.5761    6.9580  -17.4982 C   0  0  0  0  0  0  0  0  0  0  0  0
   -0.7948    6.5239  -16.8066 C   0  0  0  0  0  0  0  0  0  0  0  0
   -1.1060    6.4773  -18.0775 N   0  0  0  0  0  0  0  0  0  0  0  0
   -2.4415    6.2684  -18.2193 C   0  0  0  0  0  0  0  0  0  0  0  0
   -3.2132    6.1941  -17.0643 C   0  0  0  0  0  0  0  0  0  0  0  0
   -2.1316    6.4101  -15.7278 S   0  0  0  0  0  0  0  0  0  0  0  0
   -4.6237    5.9345  -16.8541 C   0  0  0  0  0  0  0  0  0  0  0  0
   -5.1974    5.7391  -15.6771 N   0  0  0  0  0  0  0  0  0  0  0  0
   -6.4861    5.3031  -15.9325 C   0  0  0  0  0  0  0  0  0  0  0  0
   -7.5629    4.9699  -15.0904 C   0  0  0  0  0  0  0  0  0  0  0  0
   -7.5754    5.4063  -13.6824 C   0  0  0  0  0  0  0  0  0  0  0  0
   -7.3643    6.5317  -13.4531 O   0  0  0  0  0  0  0  0  0  0  0  0
   -7.9815    4.2510  -12.7396 N   0  0  0  0  0  0  0  0  0  0  0  0
   -8.1152    4.2189  -11.3567 C   0  0  0  0  0  0  0  0  0  0  0  0
   -7.9071    5.3703  -10.5814 C   0  0  0  0  0  0  0  0  0  0  0  0
   -8.0897    5.3413   -9.1962 C   0  0  0  0  0  0  0  0  0  0  0  0
   -8.4810    4.1504   -8.6135 C   0  0  0  0  0  0  0  0  0  0  0  0
   -8.6819    3.0105   -9.3802 C   0  0  0  0  0  0  0  0  0  0  0  0
   -8.5009    3.0218  -10.7527 C   0  0  0  0  0  0  0  0  0  0  0  0
   -9.0662    1.8762   -8.4959 C   0  0  0  0  0  0  0  0  0  0  0  0
   -9.2689    2.4562   -7.1406 N   0  0  0  0  0  0  0  0  0  0  0  0
   -8.7401    3.8367   -7.1812 C   0  0  0  0  0  0  0  0  0  0  0  0
   -8.7339    4.4147  -15.6403 C   0  0  0  0  0  0  0  0  0  0  0  0
   -8.8445    4.2388  -17.0118 C   0  0  0  0  0  0  0  0  0  0  0  0
   -9.9710    3.7184  -17.5158 F   0  0  0  0  0  0  0  0  0  0  0  0
   -7.8442    4.6573  -17.8827 C   0  0  0  0  0  0  0  0  0  0  0  0
   -6.6890    5.2012  -17.3046 C   0  0  0  0  0  0  0  0  0  0  0  0
   -5.5891    5.8330  -17.8299 N   0  0  0  0  0  0  0  0  0  0  0  0
   -5.5613    6.4453  -19.1354 C   0  0  0  0  0  0  0  0  0  0  0  0
   -5.0231    5.5141  -20.1868 C   0  0  0  0  0  0  0  0  0  0  0  0
   -3.6341    5.0047  -19.8620 C   0  0  0  0  0  0  0  0  0  0  0  0
   -2.7814    6.1154  -19.5161 N   0  0  0  0  0  0  0  0  0  0  0  0
  1  2  1  0
  2  3  1  0
  2  4  1  0
  4  5  2  0
  5  6  1  0
  6  7  2  0
  7  8  1  0
  7  9  1  0
  9 10  2  0
 10 11  1  0
 11 12  2  0
 12 13  1  0
 13 14  2  0
 13 15  1  0
 15 16  1  0
 16 17  2  0
 17 18  1  0
 18 19  2  0
 19 20  1  0
 20 21  2  0
 20 22  1  0
 22 23  1  0
 23 24  1  0
 12 25  1  0
 25 26  2  0
 26 27  1  0
 26 28  1  0
 28 29  2  0
 29 30  1  0
 30 31  1  0
 31 32  1  0
 32 33  1  0
 33 34  1  0
  8  4  1  0
 30  9  1  0
 34  6  1  0
 29 11  1  0
 21 16  1  0
 24 19  1  0
M  END
>  <smiles>  (1375) 
C20338-P187

>  <fragmenstein_outcome>  (1375) 
acceptable

>  <inchikey>  (1375) 
JOLOUZJKHKRRCY-UHFFFAOYSA-N

>  <fragmenstein_mode>  (1375) 
expansion

>  <HIPPO Pose ID>  (1375) 
21228

>  <Energy>  (1375) 
37.225584

>  <fragmenstein_error>  (1375) 


>  <tags>  (1375) 
{'openbind_xx01zvns2b_c1_fragmenstein', 'fragmenstein_placed'}

>  <ref_pdb>  (1375) 
175

>  <scratch_subdir>  (1375) 
/opt/xchem-fragalysis-2/maxwin/BulkDock/SCRATCH/511028/C20338-P187

>  <alias>  (1375) 
CC(C)c1nc2c(s1)-c1nc3c(C(=O)Nc4ccc5c(c4)CNC5)cc(F)cc3n1CCCN2

>  <HIPPO Compound ID>  (1375) 
33582

>  <fragmenstein_runtime>  (1375) 
5.590769

$$$$
CC(C)c1nnc(-c2nc3c(CN)c(F)cc([C@@H](N=O)Nc4ccc5c(c4)CNC5)c3[nH]2)s1
     RDKit          3D

 33 37  0  0  0  0  0  0  0  0999 V2000
    1.2443    5.6345  -15.8828 C   0  0  0  0  0  0  0  0  0  0  0  0
    0.6246    6.6496  -16.8451 C   0  0  0  0  0  0  0  0  0  0  0  0
    1.4746    6.7350  -18.1168 C   0  0  0  0  0  0  0  0  0  0  0  0
   -0.8058    6.3078  -17.1655 C   0  0  0  0  0  0  0  0  0  0  0  0
   -1.2497    5.9379  -18.3480 N   0  0  0  0  0  0  0  0  0  0  0  0
   -2.6016    5.6747  -18.3425 N   0  0  0  0  0  0  0  0  0  0  0  0
   -3.1438    5.8458  -17.1549 C   0  0  0  0  0  0  0  0  0  0  0  0
   -4.5212    5.5648  -16.8885 C   0  0  0  0  0  0  0  0  0  0  0  0
   -5.3892    5.1964  -17.8021 N   0  0  0  0  0  0  0  0  0  0  0  0
   -6.5570    4.9171  -17.1352 C   0  0  0  0  0  0  0  0  0  0  0  0
   -7.7598    4.4131  -17.6514 C   0  0  0  0  0  0  0  0  0  0  0  0
   -7.9976    3.9913  -19.0669 C   0  0  0  0  0  0  0  0  0  0  0  0
   -6.8019    3.9470  -19.9047 N   0  0  0  0  0  0  0  0  0  0  0  0
   -8.8126    4.2564  -16.7511 C   0  0  0  0  0  0  0  0  0  0  0  0
   -9.9967    3.8123  -17.1990 F   0  0  0  0  0  0  0  0  0  0  0  0
   -8.6696    4.5187  -15.3973 C   0  0  0  0  0  0  0  0  0  0  0  0
   -7.4429    4.9381  -14.8366 C   0  0  0  0  0  0  0  0  0  0  0  0
   -7.2920    5.1950  -13.3461 C   0  0  1  0  0  0  0  0  0  0  0  0
   -7.4194    6.6805  -13.1657 N   0  0  0  0  0  0  0  0  0  0  0  0
   -6.3277    7.2255  -12.9513 O   0  0  0  0  0  0  0  0  0  0  0  0
   -8.2834    4.4162  -12.6076 N   0  0  0  0  0  0  0  0  0  0  0  0
   -8.2541    4.3294  -11.2080 C   0  0  0  0  0  0  0  0  0  0  0  0
   -8.0066    5.4284  -10.3628 C   0  0  0  0  0  0  0  0  0  0  0  0
   -8.1196    5.3345   -8.9697 C   0  0  0  0  0  0  0  0  0  0  0  0
   -8.5026    4.1284   -8.4237 C   0  0  0  0  0  0  0  0  0  0  0  0
   -8.7538    3.0345   -9.2341 C   0  0  0  0  0  0  0  0  0  0  0  0
   -8.6465    3.1184  -10.6132 C   0  0  0  0  0  0  0  0  0  0  0  0
   -9.1220    1.8648   -8.3901 C   0  0  0  0  0  0  0  0  0  0  0  0
   -9.3013    2.3934   -7.0115 N   0  0  0  0  0  0  0  0  0  0  0  0
   -8.7418    3.7610   -7.0011 C   0  0  0  0  0  0  0  0  0  0  0  0
   -6.4152    5.1538  -15.7744 C   0  0  0  0  0  0  0  0  0  0  0  0
   -5.1153    5.5923  -15.6508 N   0  0  0  0  0  0  0  0  0  0  0  0
   -2.0393    6.3960  -15.9628 S   0  0  0  0  0  0  0  0  0  0  0  0
  1  2  1  0
  2  3  1  0
  2  4  1  0
  4  5  2  0
  5  6  1  0
  6  7  2  0
  7  8  1  0
  8  9  2  0
  9 10  1  0
 10 11  2  0
 11 12  1  0
 12 13  1  0
 11 14  1  0
 14 15  1  0
 14 16  2  0
 16 17  1  0
 17 18  1  0
 18 19  1  0
 19 20  2  0
 18 21  1  1
 21 22  1  0
 22 23  2  0
 23 24  1  0
 24 25  2  0
 25 26  1  0
 26 27  2  0
 26 28  1  0
 28 29  1  0
 29 30  1  0
 17 31  2  0
 31 32  1  0
  7 33  1  0
 33  4  1  0
 32  8  1  0
 31 10  1  0
 27 22  1  0
 30 25  1  0
M  END
>  <smiles>  (1376) 
C20341-P187

>  <fragmenstein_outcome>  (1376) 
acceptable

>  <inchikey>  (1376) 
SLYHXADHYALSCG-UHFFFAOYSA-N

>  <fragmenstein_mode>  (1376) 
expansion

>  <HIPPO Pose ID>  (1376) 
21229

>  <Energy>  (1376) 
52.125924

>  <fragmenstein_error>  (1376) 


>  <tags>  (1376) 
{'openbind_xx01zvns2b_c1_fragmenstein', 'fragmenstein_placed'}

>  <ref_pdb>  (1376) 
175

>  <scratch_subdir>  (1376) 
/opt/xchem-fragalysis-2/maxwin/BulkDock/SCRATCH/511028/C20341-P187

>  <alias>  (1376) 
CC(C)c1nnc(-c2nc3c(CN)c(F)cc([C@@H](N=O)Nc4ccc5c(c4)CNC5)c3[nH]2)s1

>  <HIPPO Compound ID>  (1376) 
36963

>  <fragmenstein_runtime>  (1376) 
4.679304

$$$$
CC(C)c1nc2c(s1)-c1nc3c(C(=O)Nc4ccc5c(c4)CN[C@@H]5CN)cc(F)cc3n1CCOC2
     RDKit          3D

 36 41  0  0  0  0  0  0  0  0999 V2000
    1.0336    6.1498  -15.6271 C   0  0  0  0  0  0  0  0  0  0  0  0
    0.5155    6.0019  -17.0550 C   0  0  0  0  0  0  0  0  0  0  0  0
    1.4108    6.7828  -18.0218 C   0  0  0  0  0  0  0  0  0  0  0  0
   -0.9383    6.3935  -17.2036 C   0  0  0  0  0  0  0  0  0  0  0  0
   -1.3929    7.2304  -18.1125 N   0  0  0  0  0  0  0  0  0  0  0  0
   -2.7791    7.2353  -18.1061 C   0  0  0  0  0  0  0  0  0  0  0  0
   -3.3667    6.3304  -17.2457 C   0  0  0  0  0  0  0  0  0  0  0  0
   -2.1642    5.6746  -16.2268 S   0  0  0  0  0  0  0  0  0  0  0  0
   -4.7390    5.9420  -17.1462 C   0  0  0  0  0  0  0  0  0  0  0  0
   -5.3616    5.8447  -15.9898 N   0  0  0  0  0  0  0  0  0  0  0  0
   -6.6121    5.3467  -16.2544 C   0  0  0  0  0  0  0  0  0  0  0  0
   -7.7006    5.0630  -15.4058 C   0  0  0  0  0  0  0  0  0  0  0  0
   -7.6919    5.5380  -14.0063 C   0  0  0  0  0  0  0  0  0  0  0  0
   -7.3845    6.6440  -13.7931 O   0  0  0  0  0  0  0  0  0  0  0  0
   -8.1828    4.4315  -13.0448 N   0  0  0  0  0  0  0  0  0  0  0  0
   -8.3028    4.4267  -11.6597 C   0  0  0  0  0  0  0  0  0  0  0  0
   -8.0119    5.5702  -10.8978 C   0  0  0  0  0  0  0  0  0  0  0  0
   -8.0003    5.5161   -9.5008 C   0  0  0  0  0  0  0  0  0  0  0  0
   -8.3020    4.3110   -8.8971 C   0  0  0  0  0  0  0  0  0  0  0  0
   -8.6686    3.1972   -9.6545 C   0  0  0  0  0  0  0  0  0  0  0  0
   -8.6655    3.2330  -11.0357 C   0  0  0  0  0  0  0  0  0  0  0  0
   -8.9017    2.0261   -8.7584 C   0  0  0  0  0  0  0  0  0  0  0  0
   -8.8225    2.5667   -7.3787 N   0  0  0  0  0  0  0  0  0  0  0  0
   -8.0624    3.8449   -7.5013 C   0  0  2  0  0  0  0  0  0  0  0  0
   -8.3115    4.7493   -6.2896 C   0  0  0  0  0  0  0  0  0  0  0  0
   -7.8107    4.0969   -5.0503 N   0  0  0  0  0  0  0  0  0  0  0  0
   -8.8470    4.4494  -15.9299 C   0  0  0  0  0  0  0  0  0  0  0  0
   -8.9228    4.1746  -17.2855 C   0  0  0  0  0  0  0  0  0  0  0  0
  -10.0346    3.6055  -17.7663 F   0  0  0  0  0  0  0  0  0  0  0  0
   -7.8951    4.5096  -18.1648 C   0  0  0  0  0  0  0  0  0  0  0  0
   -6.7461    5.1024  -17.6186 C   0  0  0  0  0  0  0  0  0  0  0  0
   -5.5815    5.6087  -18.1836 N   0  0  0  0  0  0  0  0  0  0  0  0
   -5.4530    5.8012  -19.6188 C   0  0  0  0  0  0  0  0  0  0  0  0
   -4.1047    6.0929  -20.2738 C   0  0  0  0  0  0  0  0  0  0  0  0
   -3.7530    7.4775  -20.3290 O   0  0  0  0  0  0  0  0  0  0  0  0
   -3.5109    8.0993  -19.0681 C   0  0  0  0  0  0  0  0  0  0  0  0
  1  2  1  0
  2  3  1  0
  2  4  1  0
  4  5  2  0
  5  6  1  0
  6  7  2  0
  7  8  1  0
  7  9  1  0
  9 10  2  0
 10 11  1  0
 11 12  2  0
 12 13  1  0
 13 14  2  0
 13 15  1  0
 15 16  1  0
 16 17  2  0
 17 18  1  0
 18 19  2  0
 19 20  1  0
 20 21  2  0
 20 22  1  0
 22 23  1  0
 23 24  1  0
 24 25  1  1
 25 26  1  0
 12 27  1  0
 27 28  2  0
 28 29  1  0
 28 30  1  0
 30 31  2  0
 31 32  1  0
 32 33  1  0
 33 34  1  0
 34 35  1  0
 35 36  1  0
  8  4  1  0
 32  9  1  0
 36  6  1  0
 31 11  1  0
 21 16  1  0
 24 19  1  0
M  END
>  <smiles>  (1377) 
C20345-P187

>  <fragmenstein_outcome>  (1377) 
acceptable

>  <inchikey>  (1377) 
GAXKQVYBFCGUSL-UHFFFAOYSA-N

>  <fragmenstein_mode>  (1377) 
expansion

>  <HIPPO Pose ID>  (1377) 
21231

>  <Energy>  (1377) 
132.424136

>  <fragmenstein_error>  (1377) 


>  <tags>  (1377) 
{'openbind_xx01zvns2b_c1_fragmenstein', 'fragmenstein_placed'}

>  <ref_pdb>  (1377) 
175

>  <scratch_subdir>  (1377) 
/opt/xchem-fragalysis-2/maxwin/BulkDock/SCRATCH/511028/C20345-P187

>  <alias>  (1377) 
CC(C)c1nc2c(s1)-c1nc3c(C(=O)Nc4ccc5c(c4)CN[C@@H]5CN)cc(F)cc3n1CCOC2

>  <HIPPO Compound ID>  (1377) 
35762

>  <fragmenstein_runtime>  (1377) 
10.67389

$$$$
NN1Cc2ccc(NC(=O)c3cc(NC(=O)OCc4ccccc4)c4[nH]ccc4c3)cc2C1
     RDKit          3D

 33 37  0  0  0  0  0  0  0  0999 V2000
   -9.7725    1.6582   -6.1000 N   0  0  0  0  0  0  0  0  0  0  0  0
   -9.7043    2.4887   -7.2588 N   0  0  0  0  0  0  0  0  0  0  0  0
   -8.8587    3.6930   -7.0949 C   0  0  0  0  0  0  0  0  0  0  0  0
   -8.4630    4.0261   -8.5003 C   0  0  0  0  0  0  0  0  0  0  0  0
   -8.0011    5.2120   -9.0340 C   0  0  0  0  0  0  0  0  0  0  0  0
   -7.7398    5.2552  -10.4070 C   0  0  0  0  0  0  0  0  0  0  0  0
   -7.9277    4.1225  -11.2188 C   0  0  0  0  0  0  0  0  0  0  0  0
   -7.6767    4.1753  -12.5884 N   0  0  0  0  0  0  0  0  0  0  0  0
   -7.1395    5.3279  -13.4669 C   0  0  0  0  0  0  0  0  0  0  0  0
   -6.7504    6.3886  -13.1696 O   0  0  0  0  0  0  0  0  0  0  0  0
   -7.1423    4.9679  -14.9102 C   0  0  0  0  0  0  0  0  0  0  0  0
   -6.0326    5.3377  -15.6733 C   0  0  0  0  0  0  0  0  0  0  0  0
   -6.0139    5.1778  -17.0642 C   0  0  0  0  0  0  0  0  0  0  0  0
   -4.8927    5.6454  -17.7491 N   0  0  0  0  0  0  0  0  0  0  0  0
   -4.4804    5.4781  -19.2095 C   0  0  0  0  0  0  0  0  0  0  0  0
   -5.0435    4.9887  -20.1003 O   0  0  0  0  0  0  0  0  0  0  0  0
   -3.2678    6.0839  -19.3017 O   0  0  0  0  0  0  0  0  0  0  0  0
   -2.7054    6.1196  -20.6174 C   0  0  0  0  0  0  0  0  0  0  0  0
   -1.7569    7.2902  -20.6865 C   0  0  0  0  0  0  0  0  0  0  0  0
   -2.0901    8.4401  -21.4161 C   0  0  0  0  0  0  0  0  0  0  0  0
   -1.2123    9.5246  -21.4680 C   0  0  0  0  0  0  0  0  0  0  0  0
    0.0032    9.4728  -20.7878 C   0  0  0  0  0  0  0  0  0  0  0  0
    0.3413    8.3382  -20.0528 C   0  0  0  0  0  0  0  0  0  0  0  0
   -0.5353    7.2537  -20.0000 C   0  0  0  0  0  0  0  0  0  0  0  0
   -7.1643    4.6371  -17.6596 C   0  0  0  0  0  0  0  0  0  0  0  0
   -7.4901    4.4258  -18.9843 N   0  0  0  0  0  0  0  0  0  0  0  0
   -8.7693    3.9530  -19.0912 C   0  0  0  0  0  0  0  0  0  0  0  0
   -9.2892    3.8289  -17.8290 C   0  0  0  0  0  0  0  0  0  0  0  0
   -8.2889    4.2549  -16.9123 C   0  0  0  0  0  0  0  0  0  0  0  0
   -8.2767    4.4138  -15.5127 C   0  0  0  0  0  0  0  0  0  0  0  0
   -8.3811    2.9241  -10.6611 C   0  0  0  0  0  0  0  0  0  0  0  0
   -8.6496    2.8970   -9.3028 C   0  0  0  0  0  0  0  0  0  0  0  0
   -9.1669    1.7771   -8.4495 C   0  0  0  0  0  0  0  0  0  0  0  0
  1  2  1  0
  2  3  1  0
  3  4  1  0
  4  5  2  0
  5  6  1  0
  6  7  2  0
  7  8  1  0
  8  9  1  0
  9 10  2  0
  9 11  1  0
 11 12  2  0
 12 13  1  0
 13 14  1  0
 14 15  1  0
 15 16  2  0
 15 17  1  0
 17 18  1  0
 18 19  1  0
 19 20  2  0
 20 21  1  0
 21 22  2  0
 22 23  1  0
 23 24  2  0
 13 25  2  0
 25 26  1  0
 26 27  1  0
 27 28  2  0
 28 29  1  0
 29 30  2  0
  7 31  1  0
 31 32  2  0
 32 33  1  0
 33  2  1  0
 32  4  1  0
 30 11  1  0
 24 19  1  0
 29 25  1  0
M  END
>  <smiles>  (1378) 
C20442-P188

>  <fragmenstein_outcome>  (1378) 
acceptable

>  <inchikey>  (1378) 
ULNCGVLHEBFFBH-UHFFFAOYSA-N

>  <fragmenstein_mode>  (1378) 
expansion

>  <HIPPO Pose ID>  (1378) 
21248

>  <Energy>  (1378) 
87.18108

>  <fragmenstein_error>  (1378) 


>  <tags>  (1378) 
{'openbind_xx01zvns2b_c1_fragmenstein', 'fragmenstein_placed'}

>  <ref_pdb>  (1378) 
175

>  <scratch_subdir>  (1378) 
/opt/xchem-fragalysis-2/maxwin/BulkDock/SCRATCH/511028/C20442-P188

>  <alias>  (1378) 
NN1Cc2ccc(NC(=O)c3cc(NC(=O)OCc4ccccc4)c4[nH]ccc4c3)cc2C1

>  <HIPPO Compound ID>  (1378) 
20442

>  <fragmenstein_runtime>  (1378) 
7.604422

$$$$
O=C(Nc1ccc2c(c1)CNC2)c1cc2c(c3c1=CC=N3)N=CC=2
     RDKit          3D

 24 28  0  0  0  0  0  0  0  0999 V2000
   -7.2777    6.5680  -13.1483 O   0  0  0  0  0  0  0  0  0  0  0  0
   -7.4747    5.4537  -13.4395 C   0  0  0  0  0  0  0  0  0  0  0  0
   -7.9207    4.2521  -12.5689 N   0  0  0  0  0  0  0  0  0  0  0  0
   -8.1179    4.1553  -11.1913 C   0  0  0  0  0  0  0  0  0  0  0  0
   -8.0127    5.2880  -10.3662 C   0  0  0  0  0  0  0  0  0  0  0  0
   -8.2199    5.1952   -8.9859 C   0  0  0  0  0  0  0  0  0  0  0  0
   -8.5553    3.9635   -8.4584 C   0  0  0  0  0  0  0  0  0  0  0  0
   -8.6599    2.8390   -9.2717 C   0  0  0  0  0  0  0  0  0  0  0  0
   -8.4342    2.9115  -10.6374 C   0  0  0  0  0  0  0  0  0  0  0  0
   -9.0192    1.6627   -8.4247 C   0  0  0  0  0  0  0  0  0  0  0  0
   -9.4901    2.2408   -7.1390 N   0  0  0  0  0  0  0  0  0  0  0  0
   -8.8550    3.5739   -7.0493 C   0  0  0  0  0  0  0  0  0  0  0  0
   -7.3056    4.9872  -14.8492 C   0  0  0  0  0  0  0  0  0  0  0  0
   -8.3791    4.5295  -15.5366 C   0  0  0  0  0  0  0  0  0  0  0  0
   -8.2369    4.2802  -16.9642 C   0  0  0  0  0  0  0  0  0  0  0  0
   -6.9749    4.4920  -17.6675 C   0  0  0  0  0  0  0  0  0  0  0  0
   -5.9056    4.9217  -16.9851 C   0  0  0  0  0  0  0  0  0  0  0  0
   -6.0430    5.1895  -15.5569 C   0  0  0  0  0  0  0  0  0  0  0  0
   -4.8769    5.6445  -15.0886 C   0  0  0  0  0  0  0  0  0  0  0  0
   -4.0471    5.6149  -16.2952 C   0  0  0  0  0  0  0  0  0  0  0  0
   -4.6238    5.2114  -17.3842 N   0  0  0  0  0  0  0  0  0  0  0  0
   -7.1474    4.2332  -18.9965 N   0  0  0  0  0  0  0  0  0  0  0  0
   -8.4095    3.9451  -19.0994 C   0  0  0  0  0  0  0  0  0  0  0  0
   -9.1771    3.9278  -17.8455 C   0  0  0  0  0  0  0  0  0  0  0  0
  1  2  2  0
  2  3  1  0
  3  4  1  0
  4  5  2  0
  5  6  1  0
  6  7  2  0
  7  8  1  0
  8  9  2  0
  8 10  1  0
 10 11  1  0
 11 12  1  0
  2 13  1  0
 13 14  2  0
 14 15  1  0
 15 16  1  0
 16 17  2  0
 17 18  1  0
 18 19  2  0
 19 20  1  0
 20 21  2  0
 16 22  1  0
 22 23  2  0
 23 24  1  0
  9  4  1  0
 18 13  1  0
 12  7  1  0
 24 15  2  0
 21 17  1  0
M  END
>  <smiles>  (1379) 
C20450-P188

>  <fragmenstein_outcome>  (1379) 
acceptable

>  <inchikey>  (1379) 
HEQIWOKTLDEPTH-UHFFFAOYSA-N

>  <fragmenstein_mode>  (1379) 
expansion

>  <HIPPO Pose ID>  (1379) 
21250

>  <Energy>  (1379) 
75.143598

>  <fragmenstein_error>  (1379) 


>  <tags>  (1379) 
{'openbind_xx01zvns2b_c1_fragmenstein', 'fragmenstein_placed'}

>  <ref_pdb>  (1379) 
175

>  <scratch_subdir>  (1379) 
/opt/xchem-fragalysis-2/maxwin/BulkDock/SCRATCH/511028/C20450-P188

>  <alias>  (1379) 
O=C(Nc1ccc2c(c1)CNC2)c1cc2c(c3c1=CC=N3)N=CC=2

>  <HIPPO Compound ID>  (1379) 
20450

>  <fragmenstein_runtime>  (1379) 
3.103443

$$$$
CNC(=O)[C@@](O)(Nc1ccc2c(c1)CNC2)c1cc(CNN)cc(CCN)c1Cl
     RDKit          3D

 29 31  0  0  0  0  0  0  0  0999 V2000
   -4.9871    7.5726  -11.0919 C   0  0  0  0  0  0  0  0  0  0  0  0
   -5.5823    6.4435  -11.7355 N   0  0  0  0  0  0  0  0  0  0  0  0
   -6.8082    6.3560  -12.7019 C   0  0  0  0  0  0  0  0  0  0  0  0
   -7.5593    7.1854  -13.0526 O   0  0  0  0  0  0  0  0  0  0  0  0
   -6.9288    4.7866  -13.1180 C   0  0  1  0  0  0  0  0  0  0  0  0
   -5.8544    3.9853  -12.6586 O   0  0  0  0  0  0  0  0  0  0  0  0
   -8.1505    4.1836  -12.5370 N   0  0  0  0  0  0  0  0  0  0  0  0
   -8.3234    4.1056  -11.1425 C   0  0  0  0  0  0  0  0  0  0  0  0
   -8.2722    5.2332  -10.2995 C   0  0  0  0  0  0  0  0  0  0  0  0
   -8.3954    5.1317   -8.9086 C   0  0  0  0  0  0  0  0  0  0  0  0
   -8.6428    3.8894   -8.3685 C   0  0  0  0  0  0  0  0  0  0  0  0
   -8.7389    2.7684   -9.1822 C   0  0  0  0  0  0  0  0  0  0  0  0
   -8.5716    2.8546  -10.5557 C   0  0  0  0  0  0  0  0  0  0  0  0
   -9.0385    1.5796   -8.3315 C   0  0  0  0  0  0  0  0  0  0  0  0
   -9.4940    2.1410   -7.0331 N   0  0  0  0  0  0  0  0  0  0  0  0
   -8.8910    3.4893   -6.9534 C   0  0  0  0  0  0  0  0  0  0  0  0
   -6.9328    4.7401  -14.6596 C   0  0  0  0  0  0  0  0  0  0  0  0
   -8.0692    4.3100  -15.3889 C   0  0  0  0  0  0  0  0  0  0  0  0
   -8.1206    4.3977  -16.7845 C   0  0  0  0  0  0  0  0  0  0  0  0
   -9.2987    3.8454  -17.5660 C   0  0  0  0  0  0  0  0  0  0  0  0
   -9.3940    4.3284  -18.9468 N   0  0  0  0  0  0  0  0  0  0  0  0
   -8.4153    3.7017  -19.8142 N   0  0  0  0  0  0  0  0  0  0  0  0
   -7.0577    5.0244  -17.4341 C   0  0  0  0  0  0  0  0  0  0  0  0
   -5.9050    5.4451  -16.7777 C   0  0  0  0  0  0  0  0  0  0  0  0
   -4.8886    6.2127  -17.5909 C   0  0  0  0  0  0  0  0  0  0  0  0
   -4.1356    5.4154  -18.6603 C   0  0  0  0  0  0  0  0  0  0  0  0
   -4.8985    5.1231  -19.8749 N   0  0  0  0  0  0  0  0  0  0  0  0
   -5.8212    5.2338  -15.3942 C   0  0  0  0  0  0  0  0  0  0  0  0
   -4.3177    5.6080  -14.6096 Cl  0  0  0  0  0  0  0  0  0  0  0  0
  1  2  1  0
  2  3  1  0
  3  4  2  0
  3  5  1  0
  5  6  1  1
  5  7  1  0
  7  8  1  0
  8  9  2  0
  9 10  1  0
 10 11  2  0
 11 12  1  0
 12 13  2  0
 12 14  1  0
 14 15  1  0
 15 16  1  0
  5 17  1  0
 17 18  2  0
 18 19  1  0
 19 20  1  0
 20 21  1  0
 21 22  1  0
 19 23  2  0
 23 24  1  0
 24 25  1  0
 25 26  1  0
 26 27  1  0
 24 28  2  0
 28 29  1  0
 13  8  1  0
 28 17  1  0
 16 11  1  0
M  END
>  <smiles>  (1380) 
C20456-P188

>  <fragmenstein_outcome>  (1380) 
acceptable

>  <inchikey>  (1380) 
HDJMQQYJGWPHOL-UHFFFAOYSA-N

>  <fragmenstein_mode>  (1380) 
expansion

>  <HIPPO Pose ID>  (1380) 
21253

>  <Energy>  (1380) 
170.390073

>  <fragmenstein_error>  (1380) 


>  <tags>  (1380) 
{'openbind_xx01zvns2b_c1_fragmenstein', 'fragmenstein_placed'}

>  <ref_pdb>  (1380) 
175

>  <scratch_subdir>  (1380) 
/opt/xchem-fragalysis-2/maxwin/BulkDock/SCRATCH/511028/C20456-P188

>  <alias>  (1380) 
CNC(=O)[C@@](O)(Nc1ccc2c(c1)CNC2)c1cc(CNN)cc(CCN)c1Cl

>  <HIPPO Compound ID>  (1380) 
24324

>  <fragmenstein_runtime>  (1380) 
5.262668

$$$$
Nn1ccc2cc(C(=O)Nc3ccc4c(c3)CNC4)ccc21
     RDKit          3D

 22 25  0  0  0  0  0  0  0  0999 V2000
   -6.6963    4.4376  -19.7502 N   0  0  0  0  0  0  0  0  0  0  0  0
   -7.6095    4.3073  -18.6860 N   0  0  0  0  0  0  0  0  0  0  0  0
   -8.9154    3.9555  -18.8352 C   0  0  0  0  0  0  0  0  0  0  0  0
   -9.4929    3.9422  -17.5867 C   0  0  0  0  0  0  0  0  0  0  0  0
   -8.4849    4.3050  -16.6463 C   0  0  0  0  0  0  0  0  0  0  0  0
   -8.4693    4.5014  -15.2535 C   0  0  0  0  0  0  0  0  0  0  0  0
   -7.2966    4.9799  -14.6492 C   0  0  0  0  0  0  0  0  0  0  0  0
   -7.2980    5.3443  -13.2105 C   0  0  0  0  0  0  0  0  0  0  0  0
   -6.9246    6.4071  -12.9029 O   0  0  0  0  0  0  0  0  0  0  0  0
   -7.8184    4.1758  -12.3439 N   0  0  0  0  0  0  0  0  0  0  0  0
   -8.0687    4.1060  -10.9766 C   0  0  0  0  0  0  0  0  0  0  0  0
   -7.9314    5.2375  -10.1580 C   0  0  0  0  0  0  0  0  0  0  0  0
   -8.1646    5.1575   -8.7819 C   0  0  0  0  0  0  0  0  0  0  0  0
   -8.5356    3.9364   -8.2499 C   0  0  0  0  0  0  0  0  0  0  0  0
   -8.6755    2.8159   -9.0590 C   0  0  0  0  0  0  0  0  0  0  0  0
   -8.4504    2.8805  -10.4251 C   0  0  0  0  0  0  0  0  0  0  0  0
   -9.0350    1.6396   -8.2168 C   0  0  0  0  0  0  0  0  0  0  0  0
   -9.3310    2.1785   -6.8650 N   0  0  0  0  0  0  0  0  0  0  0  0
   -8.8203    3.5648   -6.8349 C   0  0  0  0  0  0  0  0  0  0  0  0
   -6.1437    5.2283  -15.3945 C   0  0  0  0  0  0  0  0  0  0  0  0
   -6.1296    5.0046  -16.7700 C   0  0  0  0  0  0  0  0  0  0  0  0
   -7.3172    4.5597  -17.3698 C   0  0  0  0  0  0  0  0  0  0  0  0
  1  2  1  0
  2  3  1  0
  3  4  2  0
  4  5  1  0
  5  6  2  0
  6  7  1  0
  7  8  1  0
  8  9  2  0
  8 10  1  0
 10 11  1  0
 11 12  2  0
 12 13  1  0
 13 14  2  0
 14 15  1  0
 15 16  2  0
 15 17  1  0
 17 18  1  0
 18 19  1  0
  7 20  2  0
 20 21  1  0
 21 22  2  0
 22  2  1  0
 22  5  1  0
 16 11  1  0
 19 14  1  0
M  END
>  <smiles>  (1381) 
C20460-P188

>  <fragmenstein_outcome>  (1381) 
acceptable

>  <inchikey>  (1381) 
SUVRQPFJSQFQFB-UHFFFAOYSA-N

>  <fragmenstein_mode>  (1381) 
expansion

>  <HIPPO Pose ID>  (1381) 
21255

>  <Energy>  (1381) 
24.801627

>  <fragmenstein_error>  (1381) 


>  <tags>  (1381) 
{'openbind_xx01zvns2b_c1_fragmenstein', 'fragmenstein_placed'}

>  <ref_pdb>  (1381) 
175

>  <scratch_subdir>  (1381) 
/opt/xchem-fragalysis-2/maxwin/BulkDock/SCRATCH/511028/C20460-P188

>  <alias>  (1381) 
Nn1ccc2cc(C(=O)Nc3ccc4c(c3)CNC4)ccc21

>  <HIPPO Compound ID>  (1381) 
20460

>  <fragmenstein_runtime>  (1381) 
1.980314

$$$$
C1=Nc2c3c(c([C@@H](N=CNC[C@@H]4CCCO4)Nc4ccc5c(c4)CNC5)cc2=C1)=CN=N3
     RDKit          3D

 32 37  0  0  0  0  0  0  0  0999 V2000
   -4.6145    5.2964  -18.5742 C   0  0  0  0  0  0  0  0  0  0  0  0
   -5.7940    4.8487  -18.8750 N   0  0  0  0  0  0  0  0  0  0  0  0
   -6.4283    4.7831  -17.6673 C   0  0  0  0  0  0  0  0  0  0  0  0
   -7.6502    4.3841  -17.3236 C   0  0  0  0  0  0  0  0  0  0  0  0
   -8.0342    4.4376  -15.9301 C   0  0  0  0  0  0  0  0  0  0  0  0
   -7.1987    4.9592  -14.8522 C   0  0  0  0  0  0  0  0  0  0  0  0
   -7.7432    5.2197  -13.4474 C   0  0  1  0  0  0  0  0  0  0  0  0
   -8.9901    5.9465  -13.5351 N   0  0  0  0  0  0  0  0  0  0  0  0
   -9.2059    7.0999  -13.2638 C   0  0  0  0  0  0  0  0  0  0  0  0
   -8.2144    8.2672  -12.8916 N   0  0  0  0  0  0  0  0  0  0  0  0
   -6.7770    8.3010  -12.8658 C   0  0  0  0  0  0  0  0  0  0  0  0
   -6.2799    9.7589  -12.9437 C   0  0  2  0  0  0  0  0  0  0  0  0
   -4.7677    9.8668  -12.8156 C   0  0  0  0  0  0  0  0  0  0  0  0
   -4.5743   10.0507  -11.3308 C   0  0  0  0  0  0  0  0  0  0  0  0
   -5.7753   10.8905  -10.9574 C   0  0  0  0  0  0  0  0  0  0  0  0
   -6.8350   10.5207  -11.8506 O   0  0  0  0  0  0  0  0  0  0  0  0
   -7.8851    3.9678  -12.7237 N   0  0  0  0  0  0  0  0  0  0  0  0
   -8.1350    3.9913  -11.3347 C   0  0  0  0  0  0  0  0  0  0  0  0
   -7.9635    5.1303  -10.5168 C   0  0  0  0  0  0  0  0  0  0  0  0
   -8.1705    5.0996   -9.1302 C   0  0  0  0  0  0  0  0  0  0  0  0
   -8.5412    3.9049   -8.5549 C   0  0  0  0  0  0  0  0  0  0  0  0
   -8.6761    2.7602   -9.3282 C   0  0  0  0  0  0  0  0  0  0  0  0
   -8.4608    2.7831  -10.6999 C   0  0  0  0  0  0  0  0  0  0  0  0
   -9.0344    1.6178   -8.4370 C   0  0  0  0  0  0  0  0  0  0  0  0
   -9.4886    2.2452   -7.1664 N   0  0  0  0  0  0  0  0  0  0  0  0
   -8.8341    3.5715   -7.1312 C   0  0  0  0  0  0  0  0  0  0  0  0
   -5.9356    5.3126  -15.2144 C   0  0  0  0  0  0  0  0  0  0  0  0
   -5.5286    5.2303  -16.6125 C   0  0  0  0  0  0  0  0  0  0  0  0
   -4.3553    5.5641  -17.1531 C   0  0  0  0  0  0  0  0  0  0  0  0
   -9.2539    3.9238  -15.9817 C   0  0  0  0  0  0  0  0  0  0  0  0
   -9.6380    3.5975  -17.2623 N   0  0  0  0  0  0  0  0  0  0  0  0
   -8.6921    3.8763  -18.0547 N   0  0  0  0  0  0  0  0  0  0  0  0
  1  2  2  0
  2  3  1  0
  3  4  2  0
  4  5  1  0
  5  6  1  0
  6  7  1  0
  7  8  1  0
  8  9  2  3
  9 10  1  0
 10 11  1  0
 12 11  1  1
 12 13  1  0
 13 14  1  0
 14 15  1  0
 15 16  1  0
  7 17  1  6
 17 18  1  0
 18 19  2  0
 19 20  1  0
 20 21  2  0
 21 22  1  0
 22 23  2  0
 22 24  1  0
 24 25  1  0
 25 26  1  0
  6 27  2  0
 27 28  1  0
 28 29  2  0
  5 30  2  0
 30 31  1  0
 31 32  2  0
 29  1  1  0
 28  3  1  0
 32  4  1  0
 16 12  1  0
 23 18  1  0
 26 21  1  0
M  END
>  <smiles>  (1382) 
C20481-P188

>  <fragmenstein_outcome>  (1382) 
acceptable

>  <inchikey>  (1382) 
MFAICJFGHRIFDS-UHFFFAOYSA-N

>  <fragmenstein_mode>  (1382) 
expansion

>  <HIPPO Pose ID>  (1382) 
21265

>  <Energy>  (1382) 
63.248838

>  <fragmenstein_error>  (1382) 


>  <tags>  (1382) 
{'openbind_xx01zvns2b_c1_fragmenstein', 'fragmenstein_placed'}

>  <ref_pdb>  (1382) 
175

>  <scratch_subdir>  (1382) 
/opt/xchem-fragalysis-2/maxwin/BulkDock/SCRATCH/511028/C20481-P188

>  <alias>  (1382) 
C1=Nc2c3c(c([C@@H](N=CNC[C@@H]4CCCO4)Nc4ccc5c(c4)CNC5)cc2=C1)=CN=N3

>  <HIPPO Compound ID>  (1382) 
20481

>  <fragmenstein_runtime>  (1382) 
5.85393

$$$$
CCc1cc([C@](O)(Nc2ccc3c(c2)CNC3)C(=O)NCC(F)F)cc2cc[nH]c12
     RDKit          3D

 30 33  0  0  0  0  0  0  0  0999 V2000
   -4.8501    6.9084  -17.9881 C   0  0  0  0  0  0  0  0  0  0  0  0
   -4.8522    5.4552  -17.5392 C   0  0  0  0  0  0  0  0  0  0  0  0
   -6.1478    5.0772  -16.8718 C   0  0  0  0  0  0  0  0  0  0  0  0
   -6.3179    5.2731  -15.4793 C   0  0  0  0  0  0  0  0  0  0  0  0
   -7.5145    4.9721  -14.8051 C   0  0  0  0  0  0  0  0  0  0  0  0
   -7.7643    5.3693  -13.3382 C   0  0  2  0  0  0  0  0  0  0  0  0
   -6.5877    5.9379  -12.7855 O   0  0  0  0  0  0  0  0  0  0  0  0
   -8.0480    4.1784  -12.5349 N   0  0  0  0  0  0  0  0  0  0  0  0
   -8.2760    4.1451  -11.1558 C   0  0  0  0  0  0  0  0  0  0  0  0
   -8.0886    5.2401  -10.2888 C   0  0  0  0  0  0  0  0  0  0  0  0
   -8.2412    5.1356   -8.8994 C   0  0  0  0  0  0  0  0  0  0  0  0
   -8.5676    3.9079   -8.3675 C   0  0  0  0  0  0  0  0  0  0  0  0
   -8.7206    2.8040   -9.1894 C   0  0  0  0  0  0  0  0  0  0  0  0
   -8.5689    2.9029  -10.5675 C   0  0  0  0  0  0  0  0  0  0  0  0
   -9.0103    1.6051   -8.3515 C   0  0  0  0  0  0  0  0  0  0  0  0
   -9.2663    2.1160   -6.9798 N   0  0  0  0  0  0  0  0  0  0  0  0
   -8.7908    3.5134   -6.9487 C   0  0  0  0  0  0  0  0  0  0  0  0
   -8.9844    6.4342  -13.3016 C   0  0  0  0  0  0  0  0  0  0  0  0
  -10.0508    6.1998  -13.7223 O   0  0  0  0  0  0  0  0  0  0  0  0
   -8.4292    7.7202  -12.6218 N   0  0  0  0  0  0  0  0  0  0  0  0
   -9.1002    8.9439  -12.2360 C   0  0  0  0  0  0  0  0  0  0  0  0
   -9.8703    9.6445  -13.3518 C   0  0  0  0  0  0  0  0  0  0  0  0
  -10.4860   10.7457  -12.8433 F   0  0  0  0  0  0  0  0  0  0  0  0
   -8.9912   10.1127  -14.2814 F   0  0  0  0  0  0  0  0  0  0  0  0
   -8.5509    4.3731  -15.5476 C   0  0  0  0  0  0  0  0  0  0  0  0
   -8.4459    4.2104  -16.9387 C   0  0  0  0  0  0  0  0  0  0  0  0
   -9.3599    3.7857  -17.9394 C   0  0  0  0  0  0  0  0  0  0  0  0
   -8.7339    3.9284  -19.1506 C   0  0  0  0  0  0  0  0  0  0  0  0
   -7.4692    4.3992  -18.9247 N   0  0  0  0  0  0  0  0  0  0  0  0
   -7.2629    4.5852  -17.5729 C   0  0  0  0  0  0  0  0  0  0  0  0
  1  2  1  0
  2  3  1  0
  3  4  2  0
  4  5  1  0
  5  6  1  0
  6  7  1  1
  6  8  1  0
  8  9  1  0
  9 10  2  0
 10 11  1  0
 11 12  2  0
 12 13  1  0
 13 14  2  0
 13 15  1  0
 15 16  1  0
 16 17  1  0
  6 18  1  0
 18 19  2  0
 18 20  1  0
 20 21  1  0
 21 22  1  0
 22 23  1  0
 22 24  1  0
  5 25  2  0
 25 26  1  0
 26 27  1  0
 27 28  2  0
 28 29  1  0
 29 30  1  0
 30  3  1  0
 14  9  1  0
 30 26  2  0
 17 12  1  0
M  END
>  <smiles>  (1383) 
C20452-P188

>  <fragmenstein_outcome>  (1383) 
acceptable

>  <inchikey>  (1383) 
IDEWAJWFCKSZMX-UHFFFAOYSA-N

>  <fragmenstein_mode>  (1383) 
expansion

>  <HIPPO Pose ID>  (1383) 
21277

>  <Energy>  (1383) 
121.73028

>  <fragmenstein_error>  (1383) 


>  <tags>  (1383) 
{'openbind_xx01zvns2b_c1_fragmenstein', 'fragmenstein_placed'}

>  <ref_pdb>  (1383) 
175

>  <scratch_subdir>  (1383) 
/opt/xchem-fragalysis-2/maxwin/BulkDock/SCRATCH/511028/C20452-P188

>  <alias>  (1383) 
CCc1cc([C@](O)(Nc2ccc3c(c2)CNC3)C(=O)NCC(F)F)cc2cc[nH]c12

>  <HIPPO Compound ID>  (1383) 
23741

>  <fragmenstein_runtime>  (1383) 
10.311416

$$$$
O=C1C=C2C[C@]3(CC4=C2C(=N1)C=C4)N=C3Nc1ccc2c(c1)CNC2
     RDKit          3D

 25 30  0  0  0  0  0  0  0  0999 V2000
   -3.6369    5.8143  -19.0732 O   0  0  0  0  0  0  0  0  0  0  0  0
   -4.6630    5.3634  -18.5802 C   0  0  0  0  0  0  0  0  0  0  0  0
   -4.7323    5.4001  -17.0908 C   0  0  0  0  0  0  0  0  0  0  0  0
   -5.8573    5.0693  -16.4495 C   0  0  0  0  0  0  0  0  0  0  0  0
   -6.0998    5.0570  -14.9753 C   0  0  0  0  0  0  0  0  0  0  0  0
   -7.5580    4.9654  -14.5309 C   0  0  2  0  0  0  0  0  0  0  0  0
   -8.6295    4.4811  -15.5158 C   0  0  0  0  0  0  0  0  0  0  0  0
   -8.1747    4.3468  -16.9197 C   0  0  0  0  0  0  0  0  0  0  0  0
   -6.9355    4.6619  -17.2554 C   0  0  0  0  0  0  0  0  0  0  0  0
   -6.8051    4.5407  -18.6960 C   0  0  0  0  0  0  0  0  0  0  0  0
   -5.7228    4.8507  -19.3178 N   0  0  0  0  0  0  0  0  0  0  0  0
   -8.1089    4.0370  -19.1815 C   0  0  0  0  0  0  0  0  0  0  0  0
   -8.8979    3.9537  -18.0961 C   0  0  0  0  0  0  0  0  0  0  0  0
   -7.9887    6.0715  -13.4880 N   0  0  0  0  0  0  0  0  0  0  0  0
   -7.8583    4.8834  -13.1451 C   0  0  0  0  0  0  0  0  0  0  0  0
   -7.8768    3.8485  -12.3191 N   0  0  0  0  0  0  0  0  0  0  0  0
   -8.0983    3.9049  -10.9372 C   0  0  0  0  0  0  0  0  0  0  0  0
   -8.0800    5.1117  -10.2112 C   0  0  0  0  0  0  0  0  0  0  0  0
   -8.3012    5.1319   -8.8286 C   0  0  0  0  0  0  0  0  0  0  0  0
   -8.5986    3.9402   -8.1937 C   0  0  0  0  0  0  0  0  0  0  0  0
   -8.6782    2.7553   -8.9086 C   0  0  0  0  0  0  0  0  0  0  0  0
   -8.4227    2.7188  -10.2673 C   0  0  0  0  0  0  0  0  0  0  0  0
   -9.0372    1.6368   -7.9929 C   0  0  0  0  0  0  0  0  0  0  0  0
   -9.3595    2.2679   -6.6891 N   0  0  0  0  0  0  0  0  0  0  0  0
   -8.8728    3.6620   -6.7550 C   0  0  0  0  0  0  0  0  0  0  0  0
  1  2  2  0
  2  3  1  0
  3  4  2  0
  4  5  1  0
  6  5  1  1
  6  7  1  0
  7  8  1  0
  8  9  2  0
  9 10  1  0
 10 11  2  0
 10 12  1  0
 12 13  2  0
  6 14  1  0
 14 15  2  0
 15 16  1  0
 16 17  1  0
 17 18  2  0
 18 19  1  0
 19 20  2  0
 20 21  1  0
 21 22  2  0
 21 23  1  0
 23 24  1  0
 24 25  1  0
 11  2  1  0
 22 17  1  0
  9  4  1  0
 25 20  1  0
 15  6  1  0
 13  8  1  0
M  END
>  <smiles>  (1384) 
C20504-P188

>  <fragmenstein_outcome>  (1384) 
acceptable

>  <inchikey>  (1384) 
NIWBCNMRPCKVAQ-UHFFFAOYSA-N

>  <fragmenstein_mode>  (1384) 
expansion

>  <HIPPO Pose ID>  (1384) 
21278

>  <Energy>  (1384) 
46.869336

>  <fragmenstein_error>  (1384) 


>  <tags>  (1384) 
{'openbind_xx01zvns2b_c1_fragmenstein', 'fragmenstein_placed'}

>  <ref_pdb>  (1384) 
175

>  <scratch_subdir>  (1384) 
/opt/xchem-fragalysis-2/maxwin/BulkDock/SCRATCH/511028/C20504-P188

>  <alias>  (1384) 
O=C1C=C2C[C@]3(CC4=C2C(=N1)C=C4)N=C3Nc1ccc2c(c1)CNC2

>  <HIPPO Compound ID>  (1384) 
20504

>  <fragmenstein_runtime>  (1384) 
2.292845

$$$$
C[C@]1(OCCCO)C(=O)Nc2c1c(C(=O)Nc1ccc3c(c1)CNC3)cc1cc[nH]c21
     RDKit          3D

 31 35  0  0  0  0  0  0  0  0999 V2000
   -4.5905    7.0637  -14.8379 C   0  0  0  0  0  0  0  0  0  0  0  0
   -4.7016    5.6130  -15.3139 C   0  0  2  0  0  0  0  0  0  0  0  0
   -3.9188    4.6971  -14.5332 O   0  0  0  0  0  0  0  0  0  0  0  0
   -4.2937    4.5258  -13.1715 C   0  0  0  0  0  0  0  0  0  0  0  0
   -3.1642    3.8168  -12.4360 C   0  0  0  0  0  0  0  0  0  0  0  0
   -3.5378    3.5294  -10.9898 C   0  0  0  0  0  0  0  0  0  0  0  0
   -2.4803    2.8174  -10.3564 O   0  0  0  0  0  0  0  0  0  0  0  0
   -4.0063    5.5916  -16.7317 C   0  0  0  0  0  0  0  0  0  0  0  0
   -2.8407    5.8434  -17.0067 O   0  0  0  0  0  0  0  0  0  0  0  0
   -4.9591    5.2294  -17.6693 N   0  0  0  0  0  0  0  0  0  0  0  0
   -6.1645    4.9337  -17.0638 C   0  0  0  0  0  0  0  0  0  0  0  0
   -6.1032    5.1359  -15.6776 C   0  0  0  0  0  0  0  0  0  0  0  0
   -7.2522    4.9238  -14.9203 C   0  0  0  0  0  0  0  0  0  0  0  0
   -7.3704    5.3454  -13.5037 C   0  0  0  0  0  0  0  0  0  0  0  0
   -7.1667    6.4655  -13.2464 O   0  0  0  0  0  0  0  0  0  0  0  0
   -7.8334    4.1779  -12.6016 N   0  0  0  0  0  0  0  0  0  0  0  0
   -8.0434    4.1261  -11.2237 C   0  0  0  0  0  0  0  0  0  0  0  0
   -7.8897    5.2692  -10.4238 C   0  0  0  0  0  0  0  0  0  0  0  0
   -8.0916    5.2100   -9.0406 C   0  0  0  0  0  0  0  0  0  0  0  0
   -8.4493    3.9977   -8.4799 C   0  0  0  0  0  0  0  0  0  0  0  0
   -8.6049    2.8646   -9.2672 C   0  0  0  0  0  0  0  0  0  0  0  0
   -8.4074    2.9086  -10.6402 C   0  0  0  0  0  0  0  0  0  0  0  0
   -8.9649    1.7051   -8.4001 C   0  0  0  0  0  0  0  0  0  0  0  0
   -9.2088    2.2626   -7.0451 N   0  0  0  0  0  0  0  0  0  0  0  0
   -8.7119    3.6538   -7.0536 C   0  0  0  0  0  0  0  0  0  0  0  0
   -8.4298    4.4465  -15.5348 C   0  0  0  0  0  0  0  0  0  0  0  0
   -8.4744    4.2473  -16.9313 C   0  0  0  0  0  0  0  0  0  0  0  0
   -9.5025    3.8878  -17.8419 C   0  0  0  0  0  0  0  0  0  0  0  0
   -8.9769    3.9747  -19.1072 C   0  0  0  0  0  0  0  0  0  0  0  0
   -7.6632    4.3471  -19.0107 N   0  0  0  0  0  0  0  0  0  0  0  0
   -7.3318    4.5220  -17.6888 C   0  0  0  0  0  0  0  0  0  0  0  0
  2  1  1  1
  2  3  1  0
  3  4  1  0
  4  5  1  0
  5  6  1  0
  6  7  1  0
  2  8  1  0
  8  9  2  0
  8 10  1  0
 10 11  1  0
 11 12  2  0
 12 13  1  0
 13 14  1  0
 14 15  2  0
 14 16  1  0
 16 17  1  0
 17 18  2  0
 18 19  1  0
 19 20  2  0
 20 21  1  0
 21 22  2  0
 21 23  1  0
 23 24  1  0
 24 25  1  0
 13 26  2  0
 26 27  1  0
 27 28  1  0
 28 29  2  0
 29 30  1  0
 30 31  1  0
 12  2  1  0
 22 17  1  0
 31 27  2  0
 31 11  1  0
 25 20  1  0
M  END
>  <smiles>  (1385) 
C20505-P188

>  <fragmenstein_outcome>  (1385) 
acceptable

>  <inchikey>  (1385) 
GUKLPLARBXXOQE-UHFFFAOYSA-N

>  <fragmenstein_mode>  (1385) 
expansion

>  <HIPPO Pose ID>  (1385) 
21279

>  <Energy>  (1385) 
78.752481

>  <fragmenstein_error>  (1385) 


>  <tags>  (1385) 
{'openbind_xx01zvns2b_c1_fragmenstein', 'fragmenstein_placed'}

>  <ref_pdb>  (1385) 
175

>  <scratch_subdir>  (1385) 
/opt/xchem-fragalysis-2/maxwin/BulkDock/SCRATCH/511028/C20505-P188

>  <alias>  (1385) 
C[C@]1(OCCCO)C(=O)Nc2c1c(C(=O)Nc1ccc3c(c1)CNC3)cc1cc[nH]c21

>  <HIPPO Compound ID>  (1385) 
20505

>  <fragmenstein_runtime>  (1385) 
5.946346

$$$$
Cc1cc(NC(=O)c2cc3c4c(ccn4NC(=O)C3)c2)cc2c1CNC2
     RDKit          3D

 26 30  0  0  0  0  0  0  0  0999 V2000
   -8.0095    6.3621   -8.0079 C   0  0  0  0  0  0  0  0  0  0  0  0
   -8.1929    5.1571   -8.8756 C   0  0  0  0  0  0  0  0  0  0  0  0
   -7.9996    5.2266  -10.2651 C   0  0  0  0  0  0  0  0  0  0  0  0
   -8.1641    4.0957  -11.0840 C   0  0  0  0  0  0  0  0  0  0  0  0
   -7.9920    4.1781  -12.4638 N   0  0  0  0  0  0  0  0  0  0  0  0
   -7.4496    5.3272  -13.3396 C   0  0  0  0  0  0  0  0  0  0  0  0
   -7.1332    6.4137  -13.0519 O   0  0  0  0  0  0  0  0  0  0  0  0
   -7.3755    4.9332  -14.7699 C   0  0  0  0  0  0  0  0  0  0  0  0
   -6.2099    5.2741  -15.4716 C   0  0  0  0  0  0  0  0  0  0  0  0
   -6.1545    5.1067  -16.8507 C   0  0  0  0  0  0  0  0  0  0  0  0
   -7.2882    4.5912  -17.4551 C   0  0  0  0  0  0  0  0  0  0  0  0
   -8.4538    4.2187  -16.8139 C   0  0  0  0  0  0  0  0  0  0  0  0
   -9.3550    3.8154  -17.8485 C   0  0  0  0  0  0  0  0  0  0  0  0
   -8.7057    3.9611  -19.0661 C   0  0  0  0  0  0  0  0  0  0  0  0
   -7.4660    4.4300  -18.7885 N   0  0  0  0  0  0  0  0  0  0  0  0
   -6.5227    4.8256  -19.6706 N   0  0  0  0  0  0  0  0  0  0  0  0
   -5.4329    5.5510  -19.2286 C   0  0  0  0  0  0  0  0  0  0  0  0
   -4.7742    6.2253  -20.0250 O   0  0  0  0  0  0  0  0  0  0  0  0
   -5.0167    5.4711  -17.7440 C   0  0  0  0  0  0  0  0  0  0  0  0
   -8.5021    4.3811  -15.4178 C   0  0  0  0  0  0  0  0  0  0  0  0
   -8.5166    2.8677  -10.5249 C   0  0  0  0  0  0  0  0  0  0  0  0
   -8.7181    2.8073   -9.1573 C   0  0  0  0  0  0  0  0  0  0  0  0
   -8.5699    3.9311   -8.3459 C   0  0  0  0  0  0  0  0  0  0  0  0
   -8.8722    3.5398   -6.9348 C   0  0  0  0  0  0  0  0  0  0  0  0
   -9.5459    2.2241   -7.0256 N   0  0  0  0  0  0  0  0  0  0  0  0
   -9.0819    1.6365   -8.3074 C   0  0  0  0  0  0  0  0  0  0  0  0
  1  2  1  0
  2  3  2  0
  3  4  1  0
  4  5  1  0
  5  6  1  0
  6  7  2  0
  6  8  1  0
  8  9  2  0
  9 10  1  0
 10 11  2  0
 11 12  1  0
 12 13  1  0
 13 14  2  0
 14 15  1  0
 15 16  1  0
 16 17  1  0
 17 18  2  0
 17 19  1  0
 12 20  2  0
  4 21  2  0
 21 22  1  0
 22 23  2  0
 23 24  1  0
 24 25  1  0
 25 26  1  0
 23  2  1  0
 20  8  1  0
 26 22  1  0
 19 10  1  0
 15 11  1  0
M  END
>  <smiles>  (1386) 
C20508-P188

>  <fragmenstein_outcome>  (1386) 
acceptable

>  <inchikey>  (1386) 
WWMGFHWCEKIIGQ-UHFFFAOYSA-N

>  <fragmenstein_mode>  (1386) 
expansion

>  <HIPPO Pose ID>  (1386) 
21282

>  <Energy>  (1386) 
38.304375

>  <fragmenstein_error>  (1386) 


>  <tags>  (1386) 
{'openbind_xx01zvns2b_c1_fragmenstein', 'fragmenstein_placed'}

>  <ref_pdb>  (1386) 
175

>  <scratch_subdir>  (1386) 
/opt/xchem-fragalysis-2/maxwin/BulkDock/SCRATCH/511028/C20508-P188

>  <alias>  (1386) 
Cc1cc(NC(=O)c2cc3c4c(ccn4NC(=O)C3)c2)cc2c1CNC2

>  <HIPPO Compound ID>  (1386) 
20508

>  <fragmenstein_runtime>  (1386) 
2.789185

$$$$
CCC1=c2ccc(C(=O)Nc3ccc4c(c3)CNC4)cc2=CC1=O
     RDKit          3D

 24 27  0  0  0  0  0  0  0  0999 V2000
   -9.1835    3.1191  -18.5899 C   0  0  0  0  0  0  0  0  0  0  0  0
   -8.1842    4.0902  -19.2082 C   0  0  0  0  0  0  0  0  0  0  0  0
   -7.1670    4.6089  -18.2587 C   0  0  0  0  0  0  0  0  0  0  0  0
   -7.2376    4.8065  -16.9386 C   0  0  0  0  0  0  0  0  0  0  0  0
   -8.3819    4.6853  -16.0600 C   0  0  0  0  0  0  0  0  0  0  0  0
   -8.2046    4.8918  -14.7472 C   0  0  0  0  0  0  0  0  0  0  0  0
   -6.8960    5.2520  -14.1877 C   0  0  0  0  0  0  0  0  0  0  0  0
   -6.8064    5.5608  -12.7266 C   0  0  0  0  0  0  0  0  0  0  0  0
   -6.3847    6.5723  -12.3211 O   0  0  0  0  0  0  0  0  0  0  0  0
   -7.4525    4.3664  -11.9743 N   0  0  0  0  0  0  0  0  0  0  0  0
   -7.7849    4.2186  -10.6354 C   0  0  0  0  0  0  0  0  0  0  0  0
   -7.6972    5.3008   -9.7492 C   0  0  0  0  0  0  0  0  0  0  0  0
   -8.0690    5.1543   -8.4119 C   0  0  0  0  0  0  0  0  0  0  0  0
   -8.5175    3.9168   -7.9886 C   0  0  0  0  0  0  0  0  0  0  0  0
   -8.6085    2.8456   -8.8678 C   0  0  0  0  0  0  0  0  0  0  0  0
   -8.2564    2.9773  -10.1998 C   0  0  0  0  0  0  0  0  0  0  0  0
   -9.0639    1.6343   -8.1296 C   0  0  0  0  0  0  0  0  0  0  0  0
   -9.4352    2.0957   -6.7677 N   0  0  0  0  0  0  0  0  0  0  0  0
   -8.9309    3.4775   -6.6266 C   0  0  0  0  0  0  0  0  0  0  0  0
   -5.8131    5.4443  -14.9731 C   0  0  0  0  0  0  0  0  0  0  0  0
   -5.9593    5.2274  -16.3978 C   0  0  0  0  0  0  0  0  0  0  0  0
   -5.0514    5.3559  -17.3642 C   0  0  0  0  0  0  0  0  0  0  0  0
   -5.7650    4.9792  -18.6002 C   0  0  0  0  0  0  0  0  0  0  0  0
   -5.2354    4.9847  -19.6970 O   0  0  0  0  0  0  0  0  0  0  0  0
  1  2  1  0
  2  3  1  0
  3  4  2  0
  4  5  1  0
  5  6  2  0
  6  7  1  0
  7  8  1  0
  8  9  2  0
  8 10  1  0
 10 11  1  0
 11 12  2  0
 12 13  1  0
 13 14  2  0
 14 15  1  0
 15 16  2  0
 15 17  1  0
 17 18  1  0
 18 19  1  0
  7 20  2  0
 20 21  1  0
 21 22  2  0
 22 23  1  0
 23 24  2  0
 23  3  1  0
 21  4  1  0
 16 11  1  0
 19 14  1  0
M  END
>  <smiles>  (1387) 
C20526-P188

>  <fragmenstein_outcome>  (1387) 
acceptable

>  <inchikey>  (1387) 
ZSADFPVAYDKYCB-UHFFFAOYSA-N

>  <fragmenstein_mode>  (1387) 
expansion

>  <HIPPO Pose ID>  (1387) 
21292

>  <Energy>  (1387) 
53.082799

>  <fragmenstein_error>  (1387) 


>  <tags>  (1387) 
{'openbind_xx01zvns2b_c1_fragmenstein', 'fragmenstein_placed'}

>  <ref_pdb>  (1387) 
175

>  <scratch_subdir>  (1387) 
/opt/xchem-fragalysis-2/maxwin/BulkDock/SCRATCH/511028/C20526-P188

>  <alias>  (1387) 
CCC1=c2ccc(C(=O)Nc3ccc4c(c3)CNC4)cc2=CC1=O

>  <HIPPO Compound ID>  (1387) 
20526

>  <fragmenstein_runtime>  (1387) 
3.845514

$$$$
O=C(Nc1ccc2c(c1)CNC2)c1ccc2c(c1)C=C[N@@H+]2[O-]
     RDKit          3D

 22 25  0  0  0  0  0  0  0  0999 V2000
   -7.0251    6.4469  -13.3354 O   0  0  0  0  0  0  0  0  0  0  0  0
   -7.3272    5.3529  -13.6144 C   0  0  0  0  0  0  0  0  0  0  0  0
   -7.7765    4.1765  -12.7157 N   0  0  0  0  0  0  0  0  0  0  0  0
   -8.0309    4.1291  -11.3422 C   0  0  0  0  0  0  0  0  0  0  0  0
   -7.9204    5.2827  -10.5486 C   0  0  0  0  0  0  0  0  0  0  0  0
   -8.1346    5.2314   -9.1663 C   0  0  0  0  0  0  0  0  0  0  0  0
   -8.4645    4.0156   -8.5968 C   0  0  0  0  0  0  0  0  0  0  0  0
   -8.5884    2.8736   -9.3763 C   0  0  0  0  0  0  0  0  0  0  0  0
   -8.3761    2.9101  -10.7492 C   0  0  0  0  0  0  0  0  0  0  0  0
   -8.9301    1.7136   -8.5022 C   0  0  0  0  0  0  0  0  0  0  0  0
   -9.1526    2.2659   -7.1402 N   0  0  0  0  0  0  0  0  0  0  0  0
   -8.7183    3.6777   -7.1681 C   0  0  0  0  0  0  0  0  0  0  0  0
   -7.2702    4.9768  -15.0550 C   0  0  0  0  0  0  0  0  0  0  0  0
   -6.1291    5.3719  -15.7891 C   0  0  0  0  0  0  0  0  0  0  0  0
   -6.0907    5.2426  -17.1800 C   0  0  0  0  0  0  0  0  0  0  0  0
   -7.2110    4.7301  -17.8108 C   0  0  0  0  0  0  0  0  0  0  0  0
   -8.3216    4.2867  -17.0792 C   0  0  0  0  0  0  0  0  0  0  0  0
   -8.3752    4.4040  -15.6983 C   0  0  0  0  0  0  0  0  0  0  0  0
   -9.3050    3.7919  -18.0211 C   0  0  0  0  0  0  0  0  0  0  0  0
   -8.7715    3.9289  -19.2451 C   0  0  0  0  0  0  0  0  0  0  0  0
   -7.4327    4.5762  -19.2613 N   0  0  2  0  0  0  0  0  0  0  0  0
   -6.5106    3.7512  -19.7800 O   0  0  0  0  0  0  0  0  0  0  0  0
  1  2  2  0
  2  3  1  0
  3  4  1  0
  4  5  2  0
  5  6  1  0
  6  7  2  0
  7  8  1  0
  8  9  2  0
  8 10  1  0
 10 11  1  0
 11 12  1  0
  2 13  1  0
 13 14  2  0
 14 15  1  0
 15 16  2  0
 16 17  1  0
 17 18  2  0
 17 19  1  0
 19 20  2  0
 20 21  1  0
 21 22  1  1
  9  4  1  0
 18 13  1  0
 12  7  1  0
 21 16  1  0
M  CHG  2  21   1  22  -1
M  END
>  <smiles>  (1388) 
C20488-P188

>  <fragmenstein_outcome>  (1388) 
acceptable

>  <inchikey>  (1388) 
JVBQKCZMSMEYHZ-UHFFFAOYSA-N

>  <fragmenstein_mode>  (1388) 
expansion

>  <HIPPO Pose ID>  (1388) 
21295

>  <Energy>  (1388) 
68.553067

>  <fragmenstein_error>  (1388) 


>  <tags>  (1388) 
{'openbind_xx01zvns2b_c1_fragmenstein', 'fragmenstein_placed'}

>  <ref_pdb>  (1388) 
175

>  <scratch_subdir>  (1388) 
/opt/xchem-fragalysis-2/maxwin/BulkDock/SCRATCH/511028/C20488-P188

>  <alias>  (1388) 
O=C(Nc1ccc2c(c1)CNC2)c1ccc2c(c1)C=C[N@@H+]2[O-]

>  <HIPPO Compound ID>  (1388) 
30756

>  <fragmenstein_runtime>  (1388) 
1.974958

$$$$
CCc1cc([C@@](O)(Nc2ccc3c(c2)CNC3)C(=O)NCC(F)F)cc2cc[nH]c12
     RDKit          3D

 30 33  0  0  0  0  0  0  0  0999 V2000
   -3.7092    5.6522  -17.4794 C   0  0  0  0  0  0  0  0  0  0  0  0
   -5.1141    5.6088  -18.0591 C   0  0  0  0  0  0  0  0  0  0  0  0
   -6.2252    5.2054  -17.1219 C   0  0  0  0  0  0  0  0  0  0  0  0
   -6.1422    5.3202  -15.7163 C   0  0  0  0  0  0  0  0  0  0  0  0
   -7.1951    4.9673  -14.8468 C   0  0  0  0  0  0  0  0  0  0  0  0
   -7.1091    5.1880  -13.3328 C   0  0  1  0  0  0  0  0  0  0  0  0
   -7.7494    6.4409  -13.1393 O   0  0  0  0  0  0  0  0  0  0  0  0
   -7.9074    4.1907  -12.6115 N   0  0  0  0  0  0  0  0  0  0  0  0
   -8.0256    4.1578  -11.2115 C   0  0  0  0  0  0  0  0  0  0  0  0
   -7.9068    5.2909  -10.3783 C   0  0  0  0  0  0  0  0  0  0  0  0
   -8.1298    5.2290   -8.9954 C   0  0  0  0  0  0  0  0  0  0  0  0
   -8.5007    4.0211   -8.4474 C   0  0  0  0  0  0  0  0  0  0  0  0
   -8.6435    2.8960   -9.2465 C   0  0  0  0  0  0  0  0  0  0  0  0
   -8.4269    2.9505  -10.6154 C   0  0  0  0  0  0  0  0  0  0  0  0
   -9.0036    1.7333   -8.3829 C   0  0  0  0  0  0  0  0  0  0  0  0
   -9.4492    2.3327   -7.0962 N   0  0  0  0  0  0  0  0  0  0  0  0
   -8.7863    3.6535   -7.0306 C   0  0  0  0  0  0  0  0  0  0  0  0
   -5.5881    5.1535  -12.8071 C   0  0  0  0  0  0  0  0  0  0  0  0
   -4.9327    4.1865  -12.7454 O   0  0  0  0  0  0  0  0  0  0  0  0
   -5.2346    6.6350  -12.4768 N   0  0  0  0  0  0  0  0  0  0  0  0
   -4.0345    7.2094  -11.9146 C   0  0  0  0  0  0  0  0  0  0  0  0
   -2.7521    6.7670  -12.6141 C   0  0  0  0  0  0  0  0  0  0  0  0
   -1.6834    7.3162  -11.9776 F   0  0  0  0  0  0  0  0  0  0  0  0
   -2.7298    7.2583  -13.8829 F   0  0  0  0  0  0  0  0  0  0  0  0
   -8.4016    4.5153  -15.4145 C   0  0  0  0  0  0  0  0  0  0  0  0
   -8.5389    4.4053  -16.8057 C   0  0  0  0  0  0  0  0  0  0  0  0
   -9.6254    4.0695  -17.6552 C   0  0  0  0  0  0  0  0  0  0  0  0
   -9.1878    4.1834  -18.9470 C   0  0  0  0  0  0  0  0  0  0  0  0
   -7.8826    4.5829  -18.9155 N   0  0  0  0  0  0  0  0  0  0  0  0
   -7.4589    4.7469  -17.6158 C   0  0  0  0  0  0  0  0  0  0  0  0
  1  2  1  0
  2  3  1  0
  3  4  2  0
  4  5  1  0
  5  6  1  0
  6  7  1  6
  6  8  1  0
  8  9  1  0
  9 10  2  0
 10 11  1  0
 11 12  2  0
 12 13  1  0
 13 14  2  0
 13 15  1  0
 15 16  1  0
 16 17  1  0
  6 18  1  0
 18 19  2  0
 18 20  1  0
 20 21  1  0
 21 22  1  0
 22 23  1  0
 22 24  1  0
  5 25  2  0
 25 26  1  0
 26 27  1  0
 27 28  2  0
 28 29  1  0
 29 30  1  0
 30  3  1  0
 14  9  1  0
 30 26  2  0
 17 12  1  0
M  END
>  <smiles>  (1389) 
C20452-P123

>  <fragmenstein_outcome>  (1389) 
acceptable

>  <inchikey>  (1389) 
RAYAZEORFFINCL-UHFFFAOYSA-N

>  <fragmenstein_mode>  (1389) 
expansion

>  <HIPPO Pose ID>  (1389) 
21296

>  <Energy>  (1389) 
120.159284

>  <fragmenstein_error>  (1389) 


>  <tags>  (1389) 
{'openbind_xx01zvns2b_c1_fragmenstein', 'fragmenstein_placed'}

>  <ref_pdb>  (1389) 
175

>  <scratch_subdir>  (1389) 
/opt/xchem-fragalysis-2/maxwin/BulkDock/SCRATCH/511028/C20452-P123

>  <alias>  (1389) 
CCc1cc([C@@](O)(Nc2ccc3c(c2)CNC3)C(=O)NCC(F)F)cc2cc[nH]c12

>  <HIPPO Compound ID>  (1389) 
37261

>  <fragmenstein_runtime>  (1389) 
4.977108

$$$$
O=C(Nc1ccc2c(c1)CNC2)c1cc2ccnc2c2cn(C3CNC3)ncc12
     RDKit          3D

 29 34  0  0  0  0  0  0  0  0999 V2000
   -6.7978    6.4040  -13.2254 O   0  0  0  0  0  0  0  0  0  0  0  0
   -7.1245    5.3209  -13.5168 C   0  0  0  0  0  0  0  0  0  0  0  0
   -7.6264    4.1507  -12.6325 N   0  0  0  0  0  0  0  0  0  0  0  0
   -7.9103    4.1039  -11.2664 C   0  0  0  0  0  0  0  0  0  0  0  0
   -7.8113    5.2525  -10.4637 C   0  0  0  0  0  0  0  0  0  0  0  0
   -8.0964    5.2010   -9.0939 C   0  0  0  0  0  0  0  0  0  0  0  0
   -8.4897    3.9925   -8.5518 C   0  0  0  0  0  0  0  0  0  0  0  0
   -8.5940    2.8531   -9.3428 C   0  0  0  0  0  0  0  0  0  0  0  0
   -8.3070    2.8880  -10.6993 C   0  0  0  0  0  0  0  0  0  0  0  0
   -9.0039    1.7026   -8.4824 C   0  0  0  0  0  0  0  0  0  0  0  0
   -9.4862    2.3141   -7.2165 N   0  0  0  0  0  0  0  0  0  0  0  0
   -8.8338    3.6399   -7.1429 C   0  0  0  0  0  0  0  0  0  0  0  0
   -7.1507    4.8820  -14.9519 C   0  0  0  0  0  0  0  0  0  0  0  0
   -8.4308    4.4746  -15.5462 C   0  0  0  0  0  0  0  0  0  0  0  0
   -8.5306    4.2396  -16.8579 C   0  0  0  0  0  0  0  0  0  0  0  0
   -9.5937    3.9089  -17.7503 C   0  0  0  0  0  0  0  0  0  0  0  0
   -9.0207    3.8661  -18.9653 C   0  0  0  0  0  0  0  0  0  0  0  0
   -7.6572    4.1065  -18.9915 N   0  0  0  0  0  0  0  0  0  0  0  0
   -7.3639    4.3738  -17.7566 C   0  0  0  0  0  0  0  0  0  0  0  0
   -6.1077    4.7917  -17.1465 C   0  0  0  0  0  0  0  0  0  0  0  0
   -5.0214    4.9913  -17.8956 C   0  0  0  0  0  0  0  0  0  0  0  0
   -3.8079    5.3987  -17.3658 N   0  0  0  0  0  0  0  0  0  0  0  0
   -2.5840    5.2740  -18.1297 C   0  0  0  0  0  0  0  0  0  0  0  0
   -2.5877    6.0212  -19.4839 C   0  0  0  0  0  0  0  0  0  0  0  0
   -1.1650    6.3886  -19.2365 N   0  0  0  0  0  0  0  0  0  0  0  0
   -1.4703    6.2840  -17.7768 C   0  0  0  0  0  0  0  0  0  0  0  0
   -3.6354    5.5452  -15.9994 N   0  0  0  0  0  0  0  0  0  0  0  0
   -4.6869    5.4010  -15.2412 C   0  0  0  0  0  0  0  0  0  0  0  0
   -6.0479    5.0240  -15.7203 C   0  0  0  0  0  0  0  0  0  0  0  0
  1  2  2  0
  2  3  1  0
  3  4  1  0
  4  5  2  0
  5  6  1  0
  6  7  2  0
  7  8  1  0
  8  9  2  0
  8 10  1  0
 10 11  1  0
 11 12  1  0
  2 13  1  0
 13 14  1  0
 14 15  2  0
 15 16  1  0
 16 17  2  0
 17 18  1  0
 18 19  2  0
 19 20  1  0
 20 21  2  0
 21 22  1  0
 22 23  1  0
 23 24  1  0
 24 25  1  0
 25 26  1  0
 22 27  1  0
 27 28  2  0
 28 29  1  0
  9  4  1  0
 29 13  2  0
 12  7  1  0
 19 15  1  0
 29 20  1  0
 26 23  1  0
M  END
>  <smiles>  (1390) 
C20550-P188

>  <fragmenstein_outcome>  (1390) 
acceptable

>  <inchikey>  (1390) 
QIYLOAIUHIFSAS-UHFFFAOYSA-N

>  <fragmenstein_mode>  (1390) 
expansion

>  <HIPPO Pose ID>  (1390) 
21302

>  <Energy>  (1390) 
126.57508

>  <fragmenstein_error>  (1390) 


>  <tags>  (1390) 
{'openbind_xx01zvns2b_c1_fragmenstein', 'fragmenstein_placed'}

>  <ref_pdb>  (1390) 
175

>  <scratch_subdir>  (1390) 
/opt/xchem-fragalysis-2/maxwin/BulkDock/SCRATCH/511028/C20550-P188

>  <alias>  (1390) 
O=C(Nc1ccc2c(c1)CNC2)c1cc2ccnc2c2cn(C3CNC3)ncc12

>  <HIPPO Compound ID>  (1390) 
38397

>  <fragmenstein_runtime>  (1390) 
7.000482

$$$$
O=C(Nc1ccc2c(c1)CNC2)c1cc2ccn3cc(C4CCNCC4)c(c1)c23
     RDKit          3D

 29 34  0  0  0  0  0  0  0  0999 V2000
   -7.4276    6.4287  -13.0409 O   0  0  0  0  0  0  0  0  0  0  0  0
   -7.6429    5.3113  -13.3026 C   0  0  0  0  0  0  0  0  0  0  0  0
   -8.0683    4.1355  -12.3975 N   0  0  0  0  0  0  0  0  0  0  0  0
   -8.2208    4.0674  -11.0154 C   0  0  0  0  0  0  0  0  0  0  0  0
   -8.0339    5.2040  -10.2122 C   0  0  0  0  0  0  0  0  0  0  0  0
   -8.1922    5.1357   -8.8249 C   0  0  0  0  0  0  0  0  0  0  0  0
   -8.5412    3.9209   -8.2655 C   0  0  0  0  0  0  0  0  0  0  0  0
   -8.7182    2.7927   -9.0572 C   0  0  0  0  0  0  0  0  0  0  0  0
   -8.5620    2.8450  -10.4334 C   0  0  0  0  0  0  0  0  0  0  0  0
   -9.0432    1.6263   -8.1876 C   0  0  0  0  0  0  0  0  0  0  0  0
   -9.3072    2.1868   -6.8381 N   0  0  0  0  0  0  0  0  0  0  0  0
   -8.7748    3.5650   -6.8371 C   0  0  0  0  0  0  0  0  0  0  0  0
   -7.5467    4.8965  -14.7247 C   0  0  0  0  0  0  0  0  0  0  0  0
   -8.6935    4.3265  -15.3629 C   0  0  0  0  0  0  0  0  0  0  0  0
   -8.6203    4.1510  -16.7465 C   0  0  0  0  0  0  0  0  0  0  0  0
   -9.3752    3.7604  -17.9092 C   0  0  0  0  0  0  0  0  0  0  0  0
   -8.5594    3.9222  -19.0538 C   0  0  0  0  0  0  0  0  0  0  0  0
   -7.4045    4.3772  -18.5739 N   0  0  0  0  0  0  0  0  0  0  0  0
   -6.2353    4.7620  -19.0809 C   0  0  0  0  0  0  0  0  0  0  0  0
   -5.4594    5.1701  -17.9561 C   0  0  0  0  0  0  0  0  0  0  0  0
   -4.0431    5.6716  -18.0332 C   0  0  0  0  0  0  0  0  0  0  0  0
   -3.9813    7.0909  -18.6184 C   0  0  0  0  0  0  0  0  0  0  0  0
   -2.5357    7.5683  -18.7363 C   0  0  0  0  0  0  0  0  0  0  0  0
   -1.8382    7.5042  -17.4521 N   0  0  0  0  0  0  0  0  0  0  0  0
   -1.8477    6.1425  -16.9123 C   0  0  0  0  0  0  0  0  0  0  0  0
   -3.2762    5.6375  -16.7068 C   0  0  0  0  0  0  0  0  0  0  0  0
   -6.2891    5.0226  -16.7785 C   0  0  0  0  0  0  0  0  0  0  0  0
   -6.3314    5.2378  -15.3983 C   0  0  0  0  0  0  0  0  0  0  0  0
   -7.4344    4.5139  -17.2831 C   0  0  0  0  0  0  0  0  0  0  0  0
  1  2  2  0
  2  3  1  0
  3  4  1  0
  4  5  2  0
  5  6  1  0
  6  7  2  0
  7  8  1  0
  8  9  2  0
  8 10  1  0
 10 11  1  0
 11 12  1  0
  2 13  1  0
 13 14  2  0
 14 15  1  0
 15 16  1  0
 16 17  2  0
 17 18  1  0
 18 19  1  0
 19 20  2  0
 20 21  1  0
 21 22  1  0
 22 23  1  0
 23 24  1  0
 24 25  1  0
 25 26  1  0
 20 27  1  0
 27 28  2  0
 27 29  1  0
  9  4  1  0
 28 13  1  0
 12  7  1  0
 29 15  2  0
 29 18  1  0
 26 21  1  0
M  END
>  <smiles>  (1391) 
C20547-P188

>  <fragmenstein_outcome>  (1391) 
acceptable

>  <inchikey>  (1391) 
JCCWMOPMMDAQRE-UHFFFAOYSA-N

>  <fragmenstein_mode>  (1391) 
expansion

>  <HIPPO Pose ID>  (1391) 
21303

>  <Energy>  (1391) 
68.127938

>  <fragmenstein_error>  (1391) 


>  <tags>  (1391) 
{'openbind_xx01zvns2b_c1_fragmenstein', 'fragmenstein_placed'}

>  <ref_pdb>  (1391) 
175

>  <scratch_subdir>  (1391) 
/opt/xchem-fragalysis-2/maxwin/BulkDock/SCRATCH/511028/C20547-P188

>  <alias>  (1391) 
O=C(Nc1ccc2c(c1)CNC2)c1cc2ccn3cc(C4CCNCC4)c(c1)c23

>  <HIPPO Compound ID>  (1391) 
21289

>  <fragmenstein_runtime>  (1391) 
5.091039

$$$$
O=C(Nc1ccc2c(c1)CNC2)c1cc2ccn3nc(CC4CNC4)c(c1)c23
     RDKit          3D

 28 33  0  0  0  0  0  0  0  0999 V2000
   -7.6480    6.4336  -12.9389 O   0  0  0  0  0  0  0  0  0  0  0  0
   -7.7703    5.3026  -13.1961 C   0  0  0  0  0  0  0  0  0  0  0  0
   -8.0123    4.0913  -12.2788 N   0  0  0  0  0  0  0  0  0  0  0  0
   -8.2414    4.0269  -10.9082 C   0  0  0  0  0  0  0  0  0  0  0  0
   -8.1171    5.1736  -10.1064 C   0  0  0  0  0  0  0  0  0  0  0  0
   -8.2972    5.1025   -8.7229 C   0  0  0  0  0  0  0  0  0  0  0  0
   -8.6172    3.8774   -8.1693 C   0  0  0  0  0  0  0  0  0  0  0  0
   -8.7455    2.7434   -8.9626 C   0  0  0  0  0  0  0  0  0  0  0  0
   -8.5536    2.7953  -10.3333 C   0  0  0  0  0  0  0  0  0  0  0  0
   -9.0559    1.5697   -8.0982 C   0  0  0  0  0  0  0  0  0  0  0  0
   -9.3653    2.1258   -6.7572 N   0  0  0  0  0  0  0  0  0  0  0  0
   -8.8586    3.5131   -6.7444 C   0  0  0  0  0  0  0  0  0  0  0  0
   -7.5787    4.8858  -14.5996 C   0  0  0  0  0  0  0  0  0  0  0  0
   -8.6849    4.3694  -15.3514 C   0  0  0  0  0  0  0  0  0  0  0  0
   -8.4861    4.2145  -16.7269 C   0  0  0  0  0  0  0  0  0  0  0  0
   -9.0977    3.8355  -17.9732 C   0  0  0  0  0  0  0  0  0  0  0  0
   -8.1397    3.9900  -19.0115 C   0  0  0  0  0  0  0  0  0  0  0  0
   -7.0546    4.4511  -18.4092 N   0  0  0  0  0  0  0  0  0  0  0  0
   -5.8280    4.7367  -18.7966 N   0  0  0  0  0  0  0  0  0  0  0  0
   -5.2278    5.0523  -17.5997 C   0  0  0  0  0  0  0  0  0  0  0  0
   -3.7701    5.3341  -17.5256 C   0  0  0  0  0  0  0  0  0  0  0  0
   -3.3502    6.7768  -17.2865 C   0  0  0  0  0  0  0  0  0  0  0  0
   -3.4636    7.4122  -15.8906 C   0  0  0  0  0  0  0  0  0  0  0  0
   -4.5989    8.2213  -16.3574 N   0  0  0  0  0  0  0  0  0  0  0  0
   -4.2416    7.9427  -17.7604 C   0  0  0  0  0  0  0  0  0  0  0  0
   -6.1379    4.9834  -16.5006 C   0  0  0  0  0  0  0  0  0  0  0  0
   -6.2815    5.1635  -15.1319 C   0  0  0  0  0  0  0  0  0  0  0  0
   -7.2479    4.5582  -17.1306 C   0  0  0  0  0  0  0  0  0  0  0  0
  1  2  2  0
  2  3  1  0
  3  4  1  0
  4  5  2  0
  5  6  1  0
  6  7  2  0
  7  8  1  0
  8  9  2  0
  8 10  1  0
 10 11  1  0
 11 12  1  0
  2 13  1  0
 13 14  2  0
 14 15  1  0
 15 16  1  0
 16 17  2  0
 17 18  1  0
 18 19  1  0
 19 20  2  0
 20 21  1  0
 21 22  1  0
 22 23  1  0
 23 24  1  0
 24 25  1  0
 20 26  1  0
 26 27  2  0
 26 28  1  0
  9  4  1  0
 27 13  1  0
 12  7  1  0
 28 15  2  0
 28 18  1  0
 25 22  1  0
M  END
>  <smiles>  (1392) 
C20559-P188

>  <fragmenstein_outcome>  (1392) 
acceptable

>  <inchikey>  (1392) 
MLYALUCWIZCHMV-UHFFFAOYSA-N

>  <fragmenstein_mode>  (1392) 
expansion

>  <HIPPO Pose ID>  (1392) 
21306

>  <Energy>  (1392) 
86.900948

>  <fragmenstein_error>  (1392) 


>  <tags>  (1392) 
{'openbind_xx01zvns2b_c1_fragmenstein', 'fragmenstein_placed'}

>  <ref_pdb>  (1392) 
175

>  <scratch_subdir>  (1392) 
/opt/xchem-fragalysis-2/maxwin/BulkDock/SCRATCH/511028/C20559-P188

>  <alias>  (1392) 
O=C(Nc1ccc2c(c1)CNC2)c1cc2ccn3nc(CC4CNC4)c(c1)c23

>  <HIPPO Compound ID>  (1392) 
20559

>  <fragmenstein_runtime>  (1392) 
7.123783

$$$$
O=C(Nc1ccc2c(c1)CNC2)c1cc2ccn3nc(CC4CCNCC4)c(c1)c23
     RDKit          3D

 30 35  0  0  0  0  0  0  0  0999 V2000
   -6.9969    6.4028  -13.1842 O   0  0  0  0  0  0  0  0  0  0  0  0
   -7.3384    5.3218  -13.4658 C   0  0  0  0  0  0  0  0  0  0  0  0
   -7.9105    4.1894  -12.5823 N   0  0  0  0  0  0  0  0  0  0  0  0
   -8.0872    4.1200  -11.2010 C   0  0  0  0  0  0  0  0  0  0  0  0
   -7.9263    5.2550  -10.3898 C   0  0  0  0  0  0  0  0  0  0  0  0
   -8.1386    5.1862   -9.0083 C   0  0  0  0  0  0  0  0  0  0  0  0
   -8.5192    3.9738   -8.4650 C   0  0  0  0  0  0  0  0  0  0  0  0
   -8.6665    2.8446   -9.2643 C   0  0  0  0  0  0  0  0  0  0  0  0
   -8.4544    2.8969  -10.6322 C   0  0  0  0  0  0  0  0  0  0  0  0
   -9.0426    1.6858   -8.4017 C   0  0  0  0  0  0  0  0  0  0  0  0
   -9.4917    2.2893   -7.1199 N   0  0  0  0  0  0  0  0  0  0  0  0
   -8.8243    3.6088   -7.0504 C   0  0  0  0  0  0  0  0  0  0  0  0
   -7.3071    4.9254  -14.9008 C   0  0  0  0  0  0  0  0  0  0  0  0
   -8.5102    4.3956  -15.4899 C   0  0  0  0  0  0  0  0  0  0  0  0
   -8.4902    4.1874  -16.8709 C   0  0  0  0  0  0  0  0  0  0  0  0
   -9.2741    3.7836  -18.0071 C   0  0  0  0  0  0  0  0  0  0  0  0
   -8.4686    3.8922  -19.1685 C   0  0  0  0  0  0  0  0  0  0  0  0
   -7.3021    4.3417  -18.7366 N   0  0  0  0  0  0  0  0  0  0  0  0
   -6.1541    4.6108  -19.3130 N   0  0  0  0  0  0  0  0  0  0  0  0
   -5.4082    5.0406  -18.2441 C   0  0  0  0  0  0  0  0  0  0  0  0
   -3.9972    5.4887  -18.4520 C   0  0  0  0  0  0  0  0  0  0  0  0
   -3.8901    6.8979  -19.0657 C   0  0  0  0  0  0  0  0  0  0  0  0
   -4.4668    7.9692  -18.1195 C   0  0  0  0  0  0  0  0  0  0  0  0
   -3.8273    9.3311  -18.3638 C   0  0  0  0  0  0  0  0  0  0  0  0
   -2.3836    9.3374  -18.1346 N   0  0  0  0  0  0  0  0  0  0  0  0
   -1.7336    8.0458  -18.3740 C   0  0  0  0  0  0  0  0  0  0  0  0
   -2.4334    7.2234  -19.4514 C   0  0  0  0  0  0  0  0  0  0  0  0
   -6.1365    4.9802  -17.0030 C   0  0  0  0  0  0  0  0  0  0  0  0
   -6.1017    5.2232  -15.6289 C   0  0  0  0  0  0  0  0  0  0  0  0
   -7.3151    4.5060  -17.4492 C   0  0  0  0  0  0  0  0  0  0  0  0
  1  2  2  0
  2  3  1  0
  3  4  1  0
  4  5  2  0
  5  6  1  0
  6  7  2  0
  7  8  1  0
  8  9  2  0
  8 10  1  0
 10 11  1  0
 11 12  1  0
  2 13  1  0
 13 14  2  0
 14 15  1  0
 15 16  1  0
 16 17  2  0
 17 18  1  0
 18 19  1  0
 19 20  2  0
 20 21  1  0
 21 22  1  0
 22 23  1  0
 23 24  1  0
 24 25  1  0
 25 26  1  0
 26 27  1  0
 20 28  1  0
 28 29  2  0
 28 30  1  0
  9  4  1  0
 29 13  1  0
 12  7  1  0
 30 15  2  0
 30 18  1  0
 27 22  1  0
M  END
>  <smiles>  (1393) 
C20557-P188

>  <fragmenstein_outcome>  (1393) 
acceptable

>  <inchikey>  (1393) 
CJZZRNLUZNSZQT-UHFFFAOYSA-N

>  <fragmenstein_mode>  (1393) 
expansion

>  <HIPPO Pose ID>  (1393) 
21309

>  <Energy>  (1393) 
77.479464

>  <fragmenstein_error>  (1393) 


>  <tags>  (1393) 
{'openbind_xx01zvns2b_c1_fragmenstein', 'fragmenstein_placed'}

>  <ref_pdb>  (1393) 
175

>  <scratch_subdir>  (1393) 
/opt/xchem-fragalysis-2/maxwin/BulkDock/SCRATCH/511028/C20557-P188

>  <alias>  (1393) 
O=C(Nc1ccc2c(c1)CNC2)c1cc2ccn3nc(CC4CCNCC4)c(c1)c23

>  <HIPPO Compound ID>  (1393) 
27333

>  <fragmenstein_runtime>  (1393) 
12.048004

$$$$
NCC[C@H]1C[C@H](CNNC2CNC2)[C@@H](C(=O)Nc2ccc3c(c2)CNC3)[C@H]1Cl
     RDKit          3D

 28 31  0  0  0  0  0  0  0  0999 V2000
   -7.3827    4.0816  -19.1981 N   0  0  0  0  0  0  0  0  0  0  0  0
   -8.7425    3.7729  -18.7899 C   0  0  0  0  0  0  0  0  0  0  0  0
   -9.1580    4.3265  -17.4350 C   0  0  0  0  0  0  0  0  0  0  0  0
   -8.0226    4.4580  -16.4206 C   0  0  1  0  0  0  0  0  0  0  0  0
   -6.8748    5.4550  -16.6828 C   0  0  0  0  0  0  0  0  0  0  0  0
   -6.4176    5.9451  -15.2989 C   0  0  2  0  0  0  0  0  0  0  0  0
   -4.8986    6.1195  -15.1242 C   0  0  0  0  0  0  0  0  0  0  0  0
   -4.1347    4.8806  -14.9579 N   0  0  0  0  0  0  0  0  0  0  0  0
   -3.2769    4.9065  -13.7892 N   0  0  0  0  0  0  0  0  0  0  0  0
   -4.0348    4.7385  -12.5371 C   0  0  0  0  0  0  0  0  0  0  0  0
   -3.9808    6.0565  -11.7176 C   0  0  0  0  0  0  0  0  0  0  0  0
   -3.7413    5.2330  -10.5019 N   0  0  0  0  0  0  0  0  0  0  0  0
   -3.1308    4.2124  -11.4002 C   0  0  0  0  0  0  0  0  0  0  0  0
   -7.0786    4.9753  -14.3112 C   0  0  1  0  0  0  0  0  0  0  0  0
   -7.2571    5.5339  -12.9113 C   0  0  0  0  0  0  0  0  0  0  0  0
   -7.0952    6.6541  -12.6196 O   0  0  0  0  0  0  0  0  0  0  0  0
   -7.7552    4.3312  -12.0575 N   0  0  0  0  0  0  0  0  0  0  0  0
   -8.0494    4.2491  -10.7132 C   0  0  0  0  0  0  0  0  0  0  0  0
   -7.9502    5.3667   -9.8730 C   0  0  0  0  0  0  0  0  0  0  0  0
   -8.2701    5.2578   -8.5202 C   0  0  0  0  0  0  0  0  0  0  0  0
   -8.6973    4.0293   -8.0542 C   0  0  0  0  0  0  0  0  0  0  0  0
   -8.7910    2.9256   -8.8981 C   0  0  0  0  0  0  0  0  0  0  0  0
   -8.4648    3.0099  -10.2314 C   0  0  0  0  0  0  0  0  0  0  0  0
   -9.2340    1.7449   -8.1091 C   0  0  0  0  0  0  0  0  0  0  0  0
   -9.8214    2.3227   -6.8736 N   0  0  0  0  0  0  0  0  0  0  0  0
   -9.1124    3.6107   -6.6838 C   0  0  0  0  0  0  0  0  0  0  0  0
   -8.4206    4.6627  -14.9625 C   0  0  1  0  0  0  0  0  0  0  0  0
   -9.5608    5.9759  -14.6494 Cl  0  0  0  0  0  0  0  0  0  0  0  0
  1  2  1  0
  2  3  1  0
  4  3  1  6
  4  5  1  0
  5  6  1  0
  6  7  1  6
  7  8  1  0
  8  9  1  0
  9 10  1  0
 10 11  1  0
 11 12  1  0
 12 13  1  0
  6 14  1  0
 14 15  1  1
 15 16  2  0
 15 17  1  0
 17 18  1  0
 18 19  2  0
 19 20  1  0
 20 21  2  0
 21 22  1  0
 22 23  2  0
 22 24  1  0
 24 25  1  0
 25 26  1  0
 14 27  1  0
 27 28  1  6
 27  4  1  0
 13 10  1  0
 23 18  1  0
 26 21  1  0
M  END
>  <smiles>  (1394) 
C20548-P200

>  <fragmenstein_outcome>  (1394) 
acceptable

>  <inchikey>  (1394) 
RJKYYZCKKKXKEY-UHFFFAOYSA-N

>  <fragmenstein_mode>  (1394) 
expansion

>  <HIPPO Pose ID>  (1394) 
21313

>  <Energy>  (1394) 
122.538293

>  <fragmenstein_error>  (1394) 


>  <tags>  (1394) 
{'openbind_xx01zvns2b_c1_fragmenstein', 'fragmenstein_placed'}

>  <ref_pdb>  (1394) 
175

>  <scratch_subdir>  (1394) 
/opt/xchem-fragalysis-2/maxwin/BulkDock/SCRATCH/511028/C20548-P200

>  <alias>  (1394) 
NCC[C@H]1C[C@H](CNNC2CNC2)[C@@H](C(=O)Nc2ccc3c(c2)CNC3)[C@H]1Cl

>  <HIPPO Compound ID>  (1394) 
20548

>  <fragmenstein_runtime>  (1394) 
8.412631

$$$$
Nc1nc2cc(C(=O)Nc3ccc4c(c3)CNC4)cc3ccn1c32
     RDKit          3D

 24 28  0  0  0  0  0  0  0  0999 V2000
   -5.8359    4.8744  -20.4413 N   0  0  0  0  0  0  0  0  0  0  0  0
   -6.1485    4.8189  -19.1290 C   0  0  0  0  0  0  0  0  0  0  0  0
   -5.3792    5.2075  -18.0967 N   0  0  0  0  0  0  0  0  0  0  0  0
   -6.1556    5.0274  -16.9478 C   0  0  0  0  0  0  0  0  0  0  0  0
   -6.0907    5.2554  -15.5762 C   0  0  0  0  0  0  0  0  0  0  0  0
   -7.2758    4.9264  -14.8265 C   0  0  0  0  0  0  0  0  0  0  0  0
   -7.2908    5.3195  -13.3937 C   0  0  0  0  0  0  0  0  0  0  0  0
   -7.0428    6.4273  -13.1204 O   0  0  0  0  0  0  0  0  0  0  0  0
   -7.7022    4.1335  -12.4927 N   0  0  0  0  0  0  0  0  0  0  0  0
   -7.9771    4.0867  -11.1271 C   0  0  0  0  0  0  0  0  0  0  0  0
   -7.8566    5.2275  -10.3176 C   0  0  0  0  0  0  0  0  0  0  0  0
   -8.1335    5.1672   -8.9471 C   0  0  0  0  0  0  0  0  0  0  0  0
   -8.5356    3.9573   -8.4138 C   0  0  0  0  0  0  0  0  0  0  0  0
   -8.6517    2.8249   -9.2136 C   0  0  0  0  0  0  0  0  0  0  0  0
   -8.3765    2.8687  -10.5699 C   0  0  0  0  0  0  0  0  0  0  0  0
   -9.0581    1.6685   -8.3622 C   0  0  0  0  0  0  0  0  0  0  0  0
   -9.5462    2.2737   -7.0960 N   0  0  0  0  0  0  0  0  0  0  0  0
   -8.8831    3.5942   -7.0084 C   0  0  0  0  0  0  0  0  0  0  0  0
   -8.4866    4.3776  -15.3890 C   0  0  0  0  0  0  0  0  0  0  0  0
   -8.4924    4.1805  -16.7706 C   0  0  0  0  0  0  0  0  0  0  0  0
   -9.2897    3.7917  -17.9053 C   0  0  0  0  0  0  0  0  0  0  0  0
   -8.5122    3.9448  -19.0839 C   0  0  0  0  0  0  0  0  0  0  0  0
   -7.3327    4.3881  -18.6497 N   0  0  0  0  0  0  0  0  0  0  0  0
   -7.3329    4.5218  -17.3606 C   0  0  0  0  0  0  0  0  0  0  0  0
  1  2  1  0
  2  3  2  0
  3  4  1  0
  4  5  1  0
  5  6  2  0
  6  7  1  0
  7  8  2  0
  7  9  1  0
  9 10  1  0
 10 11  2  0
 11 12  1  0
 12 13  2  0
 13 14  1  0
 14 15  2  0
 14 16  1  0
 16 17  1  0
 17 18  1  0
  6 19  1  0
 19 20  2  0
 20 21  1  0
 21 22  2  0
 22 23  1  0
 23 24  1  0
 23  2  1  0
 24  4  2  0
 15 10  1  0
 24 20  1  0
 18 13  1  0
M  END
>  <smiles>  (1395) 
C20599-P188

>  <fragmenstein_outcome>  (1395) 
acceptable

>  <inchikey>  (1395) 
OYIGYIMWTRFVAY-UHFFFAOYSA-N

>  <fragmenstein_mode>  (1395) 
expansion

>  <HIPPO Pose ID>  (1395) 
21315

>  <Energy>  (1395) 
72.09273

>  <fragmenstein_error>  (1395) 


>  <tags>  (1395) 
{'openbind_xx01zvns2b_c1_fragmenstein', 'fragmenstein_placed'}

>  <ref_pdb>  (1395) 
175

>  <scratch_subdir>  (1395) 
/opt/xchem-fragalysis-2/maxwin/BulkDock/SCRATCH/511028/C20599-P188

>  <alias>  (1395) 
Nc1nc2cc(C(=O)Nc3ccc4c(c3)CNC4)cc3ccn1c32

>  <HIPPO Compound ID>  (1395) 
41466

>  <fragmenstein_runtime>  (1395) 
2.243657

$$$$
O=C(Nc1ccc2c(c1)CNC2)c1cc2ccn3c(NC4CNC4)nc(c1)c23
     RDKit          3D

 28 33  0  0  0  0  0  0  0  0999 V2000
   -6.8899    6.3507  -13.1582 O   0  0  0  0  0  0  0  0  0  0  0  0
   -7.2689    5.2804  -13.4330 C   0  0  0  0  0  0  0  0  0  0  0  0
   -7.8804    4.1733  -12.5416 N   0  0  0  0  0  0  0  0  0  0  0  0
   -8.0592    4.1189  -11.1598 C   0  0  0  0  0  0  0  0  0  0  0  0
   -7.8765    5.2574  -10.3601 C   0  0  0  0  0  0  0  0  0  0  0  0
   -8.0739    5.2002   -8.9761 C   0  0  0  0  0  0  0  0  0  0  0  0
   -8.4524    3.9939   -8.4153 C   0  0  0  0  0  0  0  0  0  0  0  0
   -8.6318    2.8646   -9.2032 C   0  0  0  0  0  0  0  0  0  0  0  0
   -8.4451    2.9079  -10.5769 C   0  0  0  0  0  0  0  0  0  0  0  0
   -8.9975    1.7080   -8.3355 C   0  0  0  0  0  0  0  0  0  0  0  0
   -9.2402    2.2700   -6.9820 N   0  0  0  0  0  0  0  0  0  0  0  0
   -8.7140    3.6510   -6.9886 C   0  0  0  0  0  0  0  0  0  0  0  0
   -7.2700    4.8846  -14.8703 C   0  0  0  0  0  0  0  0  0  0  0  0
   -8.4951    4.3618  -15.4263 C   0  0  0  0  0  0  0  0  0  0  0  0
   -8.5184    4.1693  -16.8080 C   0  0  0  0  0  0  0  0  0  0  0  0
   -9.3367    3.7995  -17.9327 C   0  0  0  0  0  0  0  0  0  0  0  0
   -8.5723    3.9456  -19.1200 C   0  0  0  0  0  0  0  0  0  0  0  0
   -7.3791    4.3668  -18.6999 N   0  0  0  0  0  0  0  0  0  0  0  0
   -6.1949    4.7751  -19.2014 C   0  0  0  0  0  0  0  0  0  0  0  0
   -5.9360    4.8226  -20.5338 N   0  0  0  0  0  0  0  0  0  0  0  0
   -4.7935    5.5565  -21.0564 C   0  0  0  0  0  0  0  0  0  0  0  0
   -4.6464    5.3460  -22.5891 C   0  0  0  0  0  0  0  0  0  0  0  0
   -3.9316    4.0617  -22.2809 N   0  0  0  0  0  0  0  0  0  0  0  0
   -3.4668    4.7596  -21.0249 C   0  0  0  0  0  0  0  0  0  0  0  0
   -5.4045    5.1356  -18.1704 N   0  0  0  0  0  0  0  0  0  0  0  0
   -6.1693    4.9722  -17.0099 C   0  0  0  0  0  0  0  0  0  0  0  0
   -6.0869    5.1933  -15.6365 C   0  0  0  0  0  0  0  0  0  0  0  0
   -7.3602    4.4919  -17.4105 C   0  0  0  0  0  0  0  0  0  0  0  0
  1  2  2  0
  2  3  1  0
  3  4  1  0
  4  5  2  0
  5  6  1  0
  6  7  2  0
  7  8  1  0
  8  9  2  0
  8 10  1  0
 10 11  1  0
 11 12  1  0
  2 13  1  0
 13 14  2  0
 14 15  1  0
 15 16  1  0
 16 17  2  0
 17 18  1  0
 18 19  1  0
 19 20  1  0
 20 21  1  0
 21 22  1  0
 22 23  1  0
 23 24  1  0
 19 25  2  0
 25 26  1  0
 26 27  2  0
 26 28  1  0
  9  4  1  0
 27 13  1  0
 12  7  1  0
 28 15  2  0
 28 18  1  0
 24 21  1  0
M  END
>  <smiles>  (1396) 
C20604-P188

>  <fragmenstein_outcome>  (1396) 
acceptable

>  <inchikey>  (1396) 
GTRVSAOTNFNSOK-UHFFFAOYSA-N

>  <fragmenstein_mode>  (1396) 
expansion

>  <HIPPO Pose ID>  (1396) 
21317

>  <Energy>  (1396) 
114.927049

>  <fragmenstein_error>  (1396) 


>  <tags>  (1396) 
{'openbind_xx01zvns2b_c1_fragmenstein', 'fragmenstein_placed'}

>  <ref_pdb>  (1396) 
175

>  <scratch_subdir>  (1396) 
/opt/xchem-fragalysis-2/maxwin/BulkDock/SCRATCH/511028/C20604-P188

>  <alias>  (1396) 
O=C(Nc1ccc2c(c1)CNC2)c1cc2ccn3c(NC4CNC4)nc(c1)c23

>  <HIPPO Compound ID>  (1396) 
19676

>  <fragmenstein_runtime>  (1396) 
4.280605

$$$$
Nc1[nH]nc2c(C(=O)Nc3ccc4c(c3)[C@@H](N)NC4)cc(Cl)cc12
     RDKit          3D

 24 27  0  0  0  0  0  0  0  0999 V2000
   -5.1393    5.4030  -19.5857 N   0  0  0  0  0  0  0  0  0  0  0  0
   -5.4363    5.3586  -18.2690 C   0  0  0  0  0  0  0  0  0  0  0  0
   -4.5818    5.7978  -17.2971 N   0  0  0  0  0  0  0  0  0  0  0  0
   -5.0911    5.7769  -16.0481 N   0  0  0  0  0  0  0  0  0  0  0  0
   -6.3371    5.2830  -16.1897 C   0  0  0  0  0  0  0  0  0  0  0  0
   -7.3812    5.0577  -15.2710 C   0  0  0  0  0  0  0  0  0  0  0  0
   -7.3641    5.5588  -13.8870 C   0  0  0  0  0  0  0  0  0  0  0  0
   -7.0104    6.6492  -13.6730 O   0  0  0  0  0  0  0  0  0  0  0  0
   -7.9499    4.4931  -12.9378 N   0  0  0  0  0  0  0  0  0  0  0  0
   -8.1283    4.5118  -11.5624 C   0  0  0  0  0  0  0  0  0  0  0  0
   -7.9019    5.6624  -10.7906 C   0  0  0  0  0  0  0  0  0  0  0  0
   -8.0782    5.6395   -9.4004 C   0  0  0  0  0  0  0  0  0  0  0  0
   -8.4864    4.4572   -8.8151 C   0  0  0  0  0  0  0  0  0  0  0  0
   -8.7246    3.3311   -9.5908 C   0  0  0  0  0  0  0  0  0  0  0  0
   -8.5538    3.3336  -10.9614 C   0  0  0  0  0  0  0  0  0  0  0  0
   -9.0708    2.1827   -8.7203 C   0  0  1  0  0  0  0  0  0  0  0  0
   -7.9463    1.3113   -8.6342 N   0  0  0  0  0  0  0  0  0  0  0  0
   -9.2552    2.7253   -7.3735 N   0  0  0  0  0  0  0  0  0  0  0  0
   -8.6868    4.0967   -7.3827 C   0  0  0  0  0  0  0  0  0  0  0  0
   -8.5550    4.4891  -15.8274 C   0  0  0  0  0  0  0  0  0  0  0  0
   -8.6836    4.2007  -17.2138 C   0  0  0  0  0  0  0  0  0  0  0  0
  -10.2070    3.6863  -17.7974 Cl  0  0  0  0  0  0  0  0  0  0  0  0
   -7.6825    4.4175  -18.1657 C   0  0  0  0  0  0  0  0  0  0  0  0
   -6.5495    4.9653  -17.5843 C   0  0  0  0  0  0  0  0  0  0  0  0
  1  2  1  0
  2  3  1  0
  3  4  1  0
  4  5  2  0
  5  6  1  0
  6  7  1  0
  7  8  2  0
  7  9  1  0
  9 10  1  0
 10 11  2  0
 11 12  1  0
 12 13  2  0
 13 14  1  0
 14 15  2  0
 14 16  1  0
 16 17  1  1
 16 18  1  0
 18 19  1  0
  6 20  2  0
 20 21  1  0
 21 22  1  0
 21 23  2  0
 23 24  1  0
 24  2  2  0
 24  5  1  0
 15 10  1  0
 19 13  1  0
M  END
>  <smiles>  (1397) 
C20702-P189

>  <fragmenstein_outcome>  (1397) 
acceptable

>  <inchikey>  (1397) 
YAFAWLPJGNBFJQ-UHFFFAOYSA-N

>  <fragmenstein_mode>  (1397) 
expansion

>  <HIPPO Pose ID>  (1397) 
21337

>  <Energy>  (1397) 
8.050432

>  <fragmenstein_error>  (1397) 


>  <tags>  (1397) 
{'openbind_xx01zvns2b_c1_fragmenstein', 'fragmenstein_placed'}

>  <ref_pdb>  (1397) 
175

>  <scratch_subdir>  (1397) 
/opt/xchem-fragalysis-2/maxwin/BulkDock/SCRATCH/511028/C20702-P189

>  <alias>  (1397) 
Nc1[nH]nc2c(C(=O)Nc3ccc4c(c3)[C@@H](N)NC4)cc(Cl)cc12

>  <HIPPO Compound ID>  (1397) 
29529

>  <fragmenstein_runtime>  (1397) 
2.604108

$$$$
CC(C)n1cc2cccc(C(=O)Nc3ccc4c(c3)[C@H](N)NC4)c2n1
     RDKit          3D

 25 28  0  0  0  0  0  0  0  0999 V2000
   -3.6668    7.3442  -18.2857 C   0  0  0  0  0  0  0  0  0  0  0  0
   -3.7158    5.8699  -17.8861 C   0  0  0  0  0  0  0  0  0  0  0  0
   -2.7049    5.5773  -16.7762 C   0  0  0  0  0  0  0  0  0  0  0  0
   -5.0747    5.4822  -17.5351 N   0  0  0  0  0  0  0  0  0  0  0  0
   -5.9978    5.0107  -18.4190 C   0  0  0  0  0  0  0  0  0  0  0  0
   -7.0752    4.6905  -17.6483 C   0  0  0  0  0  0  0  0  0  0  0  0
   -8.2421    4.1199  -18.1345 C   0  0  0  0  0  0  0  0  0  0  0  0
   -9.1637    3.8894  -17.0999 C   0  0  0  0  0  0  0  0  0  0  0  0
   -8.9163    4.2151  -15.7304 C   0  0  0  0  0  0  0  0  0  0  0  0
   -7.7219    4.8317  -15.2772 C   0  0  0  0  0  0  0  0  0  0  0  0
   -7.5808    5.3342  -13.8987 C   0  0  0  0  0  0  0  0  0  0  0  0
   -7.2709    6.4488  -13.7365 O   0  0  0  0  0  0  0  0  0  0  0  0
   -7.9632    4.2388  -12.8718 N   0  0  0  0  0  0  0  0  0  0  0  0
   -8.1292    4.3120  -11.4899 C   0  0  0  0  0  0  0  0  0  0  0  0
   -7.9961    5.5353  -10.8120 C   0  0  0  0  0  0  0  0  0  0  0  0
   -8.1421    5.6083   -9.4240 C   0  0  0  0  0  0  0  0  0  0  0  0
   -8.4169    4.4422   -8.7375 C   0  0  0  0  0  0  0  0  0  0  0  0
   -8.5479    3.2242   -9.4004 C   0  0  0  0  0  0  0  0  0  0  0  0
   -8.4178    3.1422  -10.7799 C   0  0  0  0  0  0  0  0  0  0  0  0
   -8.7171    2.1539   -8.3727 C   0  0  2  0  0  0  0  0  0  0  0  0
   -9.8192    1.2703   -8.5808 N   0  0  0  0  0  0  0  0  0  0  0  0
   -9.0816    2.8364   -7.1353 N   0  0  0  0  0  0  0  0  0  0  0  0
   -8.5769    4.2136   -7.2729 C   0  0  0  0  0  0  0  0  0  0  0  0
   -6.7638    5.0597  -16.2858 C   0  0  0  0  0  0  0  0  0  0  0  0
   -5.5248    5.5930  -16.2656 N   0  0  0  0  0  0  0  0  0  0  0  0
  1  2  1  0
  2  3  1  0
  2  4  1  0
  4  5  1  0
  5  6  2  0
  6  7  1  0
  7  8  2  0
  8  9  1  0
  9 10  2  0
 10 11  1  0
 11 12  2  0
 11 13  1  0
 13 14  1  0
 14 15  2  0
 15 16  1  0
 16 17  2  0
 17 18  1  0
 18 19  2  0
 18 20  1  0
 20 21  1  6
 20 22  1  0
 22 23  1  0
 10 24  1  0
 24 25  2  0
 25  4  1  0
 24  6  1  0
 19 14  1  0
 23 17  1  0
M  END
>  <smiles>  (1398) 
C20704-P189

>  <fragmenstein_outcome>  (1398) 
acceptable

>  <inchikey>  (1398) 
TZMFCEPHDNHAOM-UHFFFAOYSA-N

>  <fragmenstein_mode>  (1398) 
expansion

>  <HIPPO Pose ID>  (1398) 
21339

>  <Energy>  (1398) 
-1.377531

>  <fragmenstein_error>  (1398) 


>  <tags>  (1398) 
{'openbind_xx01zvns2b_c1_fragmenstein', 'fragmenstein_placed'}

>  <ref_pdb>  (1398) 
175

>  <scratch_subdir>  (1398) 
/opt/xchem-fragalysis-2/maxwin/BulkDock/SCRATCH/511028/C20704-P189

>  <alias>  (1398) 
CC(C)n1cc2cccc(C(=O)Nc3ccc4c(c3)[C@H](N)NC4)c2n1

>  <HIPPO Compound ID>  (1398) 
20704

>  <fragmenstein_runtime>  (1398) 
4.24381

$$$$
O=C(Nc1ccc2c(c1)CNC2)c1cc(Br)cc2c[nH]nc12
     RDKit          3D

 22 25  0  0  0  0  0  0  0  0999 V2000
   -6.9559    6.5538  -13.4133 O   0  0  0  0  0  0  0  0  0  0  0  0
   -7.2608    5.4572  -13.6737 C   0  0  0  0  0  0  0  0  0  0  0  0
   -7.7317    4.3024  -12.7571 N   0  0  0  0  0  0  0  0  0  0  0  0
   -8.0062    4.2857  -11.3911 C   0  0  0  0  0  0  0  0  0  0  0  0
   -7.8403    5.4369  -10.6045 C   0  0  0  0  0  0  0  0  0  0  0  0
   -8.0605    5.4012   -9.2235 C   0  0  0  0  0  0  0  0  0  0  0  0
   -8.4550    4.2051   -8.6537 C   0  0  0  0  0  0  0  0  0  0  0  0
   -8.6452    3.0716   -9.4332 C   0  0  0  0  0  0  0  0  0  0  0  0
   -8.4270    3.0905  -10.8027 C   0  0  0  0  0  0  0  0  0  0  0  0
   -9.0427    1.9307   -8.5597 C   0  0  0  0  0  0  0  0  0  0  0  0
   -9.2639    2.5044   -7.2059 N   0  0  0  0  0  0  0  0  0  0  0  0
   -8.7137    3.8747   -7.2239 C   0  0  0  0  0  0  0  0  0  0  0  0
   -7.2566    5.0377  -15.0843 C   0  0  0  0  0  0  0  0  0  0  0  0
   -8.4087    4.5090  -15.7117 C   0  0  0  0  0  0  0  0  0  0  0  0
   -8.4681    4.2773  -17.1187 C   0  0  0  0  0  0  0  0  0  0  0  0
  -10.1196    3.7822  -17.8657 Br  0  0  0  0  0  0  0  0  0  0  0  0
   -7.4165    4.5031  -18.0218 C   0  0  0  0  0  0  0  0  0  0  0  0
   -6.3114    5.0090  -17.3621 C   0  0  0  0  0  0  0  0  0  0  0  0
   -5.1427    5.3615  -17.9717 C   0  0  0  0  0  0  0  0  0  0  0  0
   -4.3517    5.7983  -16.9547 N   0  0  0  0  0  0  0  0  0  0  0  0
   -4.9337    5.7725  -15.7416 N   0  0  0  0  0  0  0  0  0  0  0  0
   -6.1730    5.2882  -15.9516 C   0  0  0  0  0  0  0  0  0  0  0  0
  1  2  2  0
  2  3  1  0
  3  4  1  0
  4  5  2  0
  5  6  1  0
  6  7  2  0
  7  8  1  0
  8  9  2  0
  8 10  1  0
 10 11  1  0
 11 12  1  0
  2 13  1  0
 13 14  2  0
 14 15  1  0
 15 16  1  0
 15 17  2  0
 17 18  1  0
 18 19  2  0
 19 20  1  0
 20 21  1  0
 21 22  2  0
  9  4  1  0
 22 13  1  0
 12  7  1  0
 22 18  1  0
M  END
>  <smiles>  (1399) 
C20628-P189

>  <fragmenstein_outcome>  (1399) 
acceptable

>  <inchikey>  (1399) 
HQYUJNAPLGODNB-UHFFFAOYSA-N

>  <fragmenstein_mode>  (1399) 
expansion

>  <HIPPO Pose ID>  (1399) 
21341

>  <Energy>  (1399) 
60.407157

>  <fragmenstein_error>  (1399) 


>  <tags>  (1399) 
{'openbind_xx01zvns2b_c1_fragmenstein', 'fragmenstein_placed'}

>  <ref_pdb>  (1399) 
175

>  <scratch_subdir>  (1399) 
/opt/xchem-fragalysis-2/maxwin/BulkDock/SCRATCH/511028/C20628-P189

>  <alias>  (1399) 
O=C(Nc1ccc2c(c1)CNC2)c1cc(Br)cc2c[nH]nc12

>  <HIPPO Compound ID>  (1399) 
41483

>  <fragmenstein_runtime>  (1399) 
1.904534

$$$$
O=C(Nc1ccc2c(c1)CNC2)c1cc(F)cc2c[nH]nc12
     RDKit          3D

 22 25  0  0  0  0  0  0  0  0999 V2000
   -7.3378    6.4971  -13.6588 O   0  0  0  0  0  0  0  0  0  0  0  0
   -7.5912    5.3735  -13.8534 C   0  0  0  0  0  0  0  0  0  0  0  0
   -8.0259    4.2578  -12.8710 N   0  0  0  0  0  0  0  0  0  0  0  0
   -8.1425    4.2697  -11.4827 C   0  0  0  0  0  0  0  0  0  0  0  0
   -7.8440    5.4239  -10.7410 C   0  0  0  0  0  0  0  0  0  0  0  0
   -7.9614    5.4327   -9.3474 C   0  0  0  0  0  0  0  0  0  0  0  0
   -8.3761    4.2743   -8.7182 C   0  0  0  0  0  0  0  0  0  0  0  0
   -8.6800    3.1336   -9.4489 C   0  0  0  0  0  0  0  0  0  0  0  0
   -8.5705    3.1104  -10.8312 C   0  0  0  0  0  0  0  0  0  0  0  0
   -9.1378    2.0591   -8.5241 C   0  0  0  0  0  0  0  0  0  0  0  0
   -8.9431    2.5829   -7.1449 N   0  0  0  0  0  0  0  0  0  0  0  0
   -8.6066    4.0162   -7.2705 C   0  0  0  0  0  0  0  0  0  0  0  0
   -7.6123    4.8976  -15.2482 C   0  0  0  0  0  0  0  0  0  0  0  0
   -8.7408    4.2603  -15.8183 C   0  0  0  0  0  0  0  0  0  0  0  0
   -8.8340    3.9601  -17.2071 C   0  0  0  0  0  0  0  0  0  0  0  0
   -9.9614    3.3866  -17.6458 F   0  0  0  0  0  0  0  0  0  0  0  0
   -7.8431    4.2449  -18.1565 C   0  0  0  0  0  0  0  0  0  0  0  0
   -6.7475    4.8495  -17.5597 C   0  0  0  0  0  0  0  0  0  0  0  0
   -5.6220    5.2490  -18.2206 C   0  0  0  0  0  0  0  0  0  0  0  0
   -4.8210    5.7617  -17.2475 N   0  0  0  0  0  0  0  0  0  0  0  0
   -5.3612    5.7529  -16.0145 N   0  0  0  0  0  0  0  0  0  0  0  0
   -6.5751    5.1856  -16.1631 C   0  0  0  0  0  0  0  0  0  0  0  0
  1  2  2  0
  2  3  1  0
  3  4  1  0
  4  5  2  0
  5  6  1  0
  6  7  2  0
  7  8  1  0
  8  9  2  0
  8 10  1  0
 10 11  1  0
 11 12  1  0
  2 13  1  0
 13 14  2  0
 14 15  1  0
 15 16  1  0
 15 17  2  0
 17 18  1  0
 18 19  2  0
 19 20  1  0
 20 21  1  0
 21 22  2  0
  9  4  1  0
 22 13  1  0
 12  7  1  0
 22 18  1  0
M  END
>  <smiles>  (1400) 
C20710-P189

>  <fragmenstein_outcome>  (1400) 
acceptable

>  <inchikey>  (1400) 
SGOOYPJRRLHSKN-UHFFFAOYSA-N

>  <fragmenstein_mode>  (1400) 
expansion

>  <HIPPO Pose ID>  (1400) 
21343

>  <Energy>  (1400) 
54.550441

>  <fragmenstein_error>  (1400) 


>  <tags>  (1400) 
{'openbind_xx01zvns2b_c1_fragmenstein', 'fragmenstein_placed'}

>  <ref_pdb>  (1400) 
175

>  <scratch_subdir>  (1400) 
/opt/xchem-fragalysis-2/maxwin/BulkDock/SCRATCH/511028/C20710-P189

>  <alias>  (1400) 
O=C(Nc1ccc2c(c1)CNC2)c1cc(F)cc2c[nH]nc12

>  <HIPPO Compound ID>  (1400) 
30789

>  <fragmenstein_runtime>  (1400) 
2.774033

$$$$
O=C1N=Nc2c1cccc2C(=O)Nc1ccc2c(c1)CNC2
     RDKit          3D

 22 25  0  0  0  0  0  0  0  0999 V2000
   -5.1498    5.0534  -19.2591 O   0  0  0  0  0  0  0  0  0  0  0  0
   -5.4972    5.1749  -18.0974 C   0  0  0  0  0  0  0  0  0  0  0  0
   -4.7541    5.7080  -17.0518 N   0  0  0  0  0  0  0  0  0  0  0  0
   -5.4044    5.6513  -15.9624 N   0  0  0  0  0  0  0  0  0  0  0  0
   -6.6487    5.0685  -16.2374 C   0  0  0  0  0  0  0  0  0  0  0  0
   -6.7746    4.7531  -17.5692 C   0  0  0  0  0  0  0  0  0  0  0  0
   -7.8972    4.1774  -18.1291 C   0  0  0  0  0  0  0  0  0  0  0  0
   -8.9525    3.8843  -17.2651 C   0  0  0  0  0  0  0  0  0  0  0  0
   -8.8540    4.1826  -15.8914 C   0  0  0  0  0  0  0  0  0  0  0  0
   -7.6992    4.7941  -15.3728 C   0  0  0  0  0  0  0  0  0  0  0  0
   -7.6477    5.2814  -13.9712 C   0  0  0  0  0  0  0  0  0  0  0  0
   -7.2763    6.3740  -13.7916 O   0  0  0  0  0  0  0  0  0  0  0  0
   -8.1595    4.2188  -12.9695 N   0  0  0  0  0  0  0  0  0  0  0  0
   -8.2289    4.2460  -11.5763 C   0  0  0  0  0  0  0  0  0  0  0  0
   -7.9198    5.4115  -10.8568 C   0  0  0  0  0  0  0  0  0  0  0  0
   -7.9935    5.4341   -9.4596 C   0  0  0  0  0  0  0  0  0  0  0  0
   -8.3775    4.2793   -8.8039 C   0  0  0  0  0  0  0  0  0  0  0  0
   -8.6893    3.1271   -9.5115 C   0  0  0  0  0  0  0  0  0  0  0  0
   -8.6214    3.0899  -10.8967 C   0  0  0  0  0  0  0  0  0  0  0  0
   -9.0994    2.0543   -8.5618 C   0  0  0  0  0  0  0  0  0  0  0  0
   -8.9300    2.6150   -7.1946 N   0  0  0  0  0  0  0  0  0  0  0  0
   -8.5606    4.0371   -7.3465 C   0  0  0  0  0  0  0  0  0  0  0  0
  1  2  2  0
  2  3  1  0
  3  4  2  0
  4  5  1  0
  5  6  2  0
  6  7  1  0
  7  8  2  0
  8  9  1  0
  9 10  2  0
 10 11  1  0
 11 12  2  0
 11 13  1  0
 13 14  1  0
 14 15  2  0
 15 16  1  0
 16 17  2  0
 17 18  1  0
 18 19  2  0
 18 20  1  0
 20 21  1  0
 21 22  1  0
  6  2  1  0
 19 14  1  0
 10  5  1  0
 22 17  1  0
M  END
>  <smiles>  (1401) 
C20712-P189

>  <fragmenstein_outcome>  (1401) 
acceptable

>  <inchikey>  (1401) 
IGCASMKZGZWHFQ-UHFFFAOYSA-N

>  <fragmenstein_mode>  (1401) 
expansion

>  <HIPPO Pose ID>  (1401) 
21344

>  <Energy>  (1401) 
72.182515

>  <fragmenstein_error>  (1401) 


>  <tags>  (1401) 
{'openbind_xx01zvns2b_c1_fragmenstein', 'fragmenstein_placed'}

>  <ref_pdb>  (1401) 
175

>  <scratch_subdir>  (1401) 
/opt/xchem-fragalysis-2/maxwin/BulkDock/SCRATCH/511028/C20712-P189

>  <alias>  (1401) 
O=C1N=Nc2c1cccc2C(=O)Nc1ccc2c(c1)CNC2

>  <HIPPO Compound ID>  (1401) 
30138

>  <fragmenstein_runtime>  (1401) 
1.928211

$$$$
O=C(NCc1cccnc1)[C@@](O)(Nc1ccc2c(c1)CNC2)c1cc(Cl)cc2cn[nH]c12
     RDKit          3D

 32 36  0  0  0  0  0  0  0  0999 V2000
   -5.2248    6.3969  -12.6636 O   0  0  0  0  0  0  0  0  0  0  0  0
   -6.3424    6.3429  -13.0112 C   0  0  0  0  0  0  0  0  0  0  0  0
   -7.4153    7.4653  -13.1361 N   0  0  0  0  0  0  0  0  0  0  0  0
   -7.3048    8.8869  -12.9509 C   0  0  0  0  0  0  0  0  0  0  0  0
   -7.9872    9.3154  -11.6898 C   0  0  0  0  0  0  0  0  0  0  0  0
   -9.3798    9.4155  -11.5999 C   0  0  0  0  0  0  0  0  0  0  0  0
   -9.9666    9.7960  -10.3963 C   0  0  0  0  0  0  0  0  0  0  0  0
   -9.1390   10.0700   -9.3202 C   0  0  0  0  0  0  0  0  0  0  0  0
   -7.7920    9.9713   -9.3637 N   0  0  0  0  0  0  0  0  0  0  0  0
   -7.2497    9.5931  -10.5421 C   0  0  0  0  0  0  0  0  0  0  0  0
   -7.0211    4.9287  -13.4245 C   0  0  1  0  0  0  0  0  0  0  0  0
   -6.1210    3.8800  -13.1326 O   0  0  0  0  0  0  0  0  0  0  0  0
   -8.2945    4.6845  -12.7199 N   0  0  0  0  0  0  0  0  0  0  0  0
   -8.3024    4.5068  -11.3258 C   0  0  0  0  0  0  0  0  0  0  0  0
   -8.0976    5.5781  -10.4357 C   0  0  0  0  0  0  0  0  0  0  0  0
   -8.1821    5.4131   -9.0508 C   0  0  0  0  0  0  0  0  0  0  0  0
   -8.4997    4.1631   -8.5645 C   0  0  0  0  0  0  0  0  0  0  0  0
   -8.6988    3.0924   -9.4263 C   0  0  0  0  0  0  0  0  0  0  0  0
   -8.5944    3.2414  -10.8026 C   0  0  0  0  0  0  0  0  0  0  0  0
   -9.0163    1.8748   -8.6256 C   0  0  0  0  0  0  0  0  0  0  0  0
   -9.2549    2.3533   -7.2378 N   0  0  0  0  0  0  0  0  0  0  0  0
   -8.7049    3.7199   -7.1569 C   0  0  0  0  0  0  0  0  0  0  0  0
   -7.2112    4.8653  -14.9468 C   0  0  0  0  0  0  0  0  0  0  0  0
   -8.3825    4.3563  -15.5641 C   0  0  0  0  0  0  0  0  0  0  0  0
   -8.5085    4.2566  -16.9554 C   0  0  0  0  0  0  0  0  0  0  0  0
   -9.9603    3.6937  -17.6605 Cl  0  0  0  0  0  0  0  0  0  0  0  0
   -7.4873    4.6427  -17.8153 C   0  0  0  0  0  0  0  0  0  0  0  0
   -6.3056    5.1194  -17.2474 C   0  0  0  0  0  0  0  0  0  0  0  0
   -5.0698    5.5680  -17.7541 C   0  0  0  0  0  0  0  0  0  0  0  0
   -4.2203    5.9213  -16.7879 N   0  0  0  0  0  0  0  0  0  0  0  0
   -4.8880    5.6169  -15.6599 N   0  0  0  0  0  0  0  0  0  0  0  0
   -6.1870    5.2075  -15.8637 C   0  0  0  0  0  0  0  0  0  0  0  0
  1  2  2  0
  2  3  1  0
  3  4  1  0
  4  5  1  0
  5  6  2  0
  6  7  1  0
  7  8  2  0
  8  9  1  0
  9 10  2  0
  2 11  1  0
 11 12  1  1
 11 13  1  0
 13 14  1  0
 14 15  2  0
 15 16  1  0
 16 17  2  0
 17 18  1  0
 18 19  2  0
 18 20  1  0
 20 21  1  0
 21 22  1  0
 11 23  1  0
 23 24  2  0
 24 25  1  0
 25 26  1  0
 25 27  2  0
 27 28  1  0
 28 29  1  0
 29 30  2  0
 30 31  1  0
 31 32  1  0
 10  5  1  0
 19 14  1  0
 32 23  1  0
 22 17  1  0
 32 28  2  0
M  END
>  <smiles>  (1402) 
C20714-P189

>  <fragmenstein_outcome>  (1402) 
acceptable

>  <inchikey>  (1402) 
PTDOJHHSYKXDBN-UHFFFAOYSA-N

>  <fragmenstein_mode>  (1402) 
expansion

>  <HIPPO Pose ID>  (1402) 
21346

>  <Energy>  (1402) 
107.073987

>  <fragmenstein_error>  (1402) 


>  <tags>  (1402) 
{'openbind_xx01zvns2b_c1_fragmenstein', 'fragmenstein_placed'}

>  <ref_pdb>  (1402) 
175

>  <scratch_subdir>  (1402) 
/opt/xchem-fragalysis-2/maxwin/BulkDock/SCRATCH/511028/C20714-P189

>  <alias>  (1402) 
O=C(NCc1cccnc1)[C@@](O)(Nc1ccc2c(c1)CNC2)c1cc(Cl)cc2cn[nH]c12

>  <HIPPO Compound ID>  (1402) 
20730

>  <fragmenstein_runtime>  (1402) 
5.107434

$$$$
CC(C)CNC(=O)[C@@](O)(Nc1ccc2c(c1)CNC2)c1cc(Cl)cc2cn[nH]c12
     RDKit          3D

 29 32  0  0  0  0  0  0  0  0999 V2000
   -9.3038   10.7441  -12.3061 C   0  0  0  0  0  0  0  0  0  0  0  0
   -8.4470    9.4763  -12.3701 C   0  0  0  0  0  0  0  0  0  0  0  0
   -7.5212    9.4282  -11.1527 C   0  0  0  0  0  0  0  0  0  0  0  0
   -9.3561    8.2429  -12.4413 C   0  0  0  0  0  0  0  0  0  0  0  0
   -8.7283    6.9993  -12.8287 N   0  0  0  0  0  0  0  0  0  0  0  0
   -7.2834    6.7113  -13.3496 C   0  0  0  0  0  0  0  0  0  0  0  0
   -6.4107    7.4489  -13.6159 O   0  0  0  0  0  0  0  0  0  0  0  0
   -7.1539    5.1067  -13.5577 C   0  0  1  0  0  0  0  0  0  0  0  0
   -5.8710    4.6062  -13.2280 O   0  0  0  0  0  0  0  0  0  0  0  0
   -8.1404    4.3429  -12.7703 N   0  0  0  0  0  0  0  0  0  0  0  0
   -8.0983    4.2627  -11.3626 C   0  0  0  0  0  0  0  0  0  0  0  0
   -7.5902    5.2883  -10.5343 C   0  0  0  0  0  0  0  0  0  0  0  0
   -7.6850    5.2465   -9.1392 C   0  0  0  0  0  0  0  0  0  0  0  0
   -8.2835    4.1513   -8.5630 C   0  0  0  0  0  0  0  0  0  0  0  0
   -8.7794    3.1219   -9.3474 C   0  0  0  0  0  0  0  0  0  0  0  0
   -8.7183    3.1715  -10.7347 C   0  0  0  0  0  0  0  0  0  0  0  0
   -9.4040    2.0973   -8.4631 C   0  0  0  0  0  0  0  0  0  0  0  0
   -9.0416    2.4759   -7.0712 N   0  0  0  0  0  0  0  0  0  0  0  0
   -8.5672    3.8727   -7.1288 C   0  0  0  0  0  0  0  0  0  0  0  0
   -7.3079    4.8585  -15.0645 C   0  0  0  0  0  0  0  0  0  0  0  0
   -8.4912    4.3899  -15.6758 C   0  0  0  0  0  0  0  0  0  0  0  0
   -8.5873    4.2343  -17.0652 C   0  0  0  0  0  0  0  0  0  0  0  0
  -10.0619    3.7571  -17.7790 Cl  0  0  0  0  0  0  0  0  0  0  0  0
   -7.5330    4.5284  -17.9238 C   0  0  0  0  0  0  0  0  0  0  0  0
   -6.3561    5.0145  -17.3582 C   0  0  0  0  0  0  0  0  0  0  0  0
   -5.1065    5.4375  -17.8551 C   0  0  0  0  0  0  0  0  0  0  0  0
   -4.2814    5.8437  -16.8876 N   0  0  0  0  0  0  0  0  0  0  0  0
   -5.0050    5.6590  -15.7677 N   0  0  0  0  0  0  0  0  0  0  0  0
   -6.2714    5.1661  -15.9812 C   0  0  0  0  0  0  0  0  0  0  0  0
  1  2  1  0
  2  3  1  0
  2  4  1  0
  4  5  1  0
  5  6  1  0
  6  7  2  0
  6  8  1  0
  8  9  1  1
  8 10  1  0
 10 11  1  0
 11 12  2  0
 12 13  1  0
 13 14  2  0
 14 15  1  0
 15 16  2  0
 15 17  1  0
 17 18  1  0
 18 19  1  0
  8 20  1  0
 20 21  2  0
 21 22  1  0
 22 23  1  0
 22 24  2  0
 24 25  1  0
 25 26  1  0
 26 27  2  0
 27 28  1  0
 28 29  1  0
 16 11  1  0
 29 20  1  0
 19 14  1  0
 29 25  2  0
M  END
>  <smiles>  (1403) 
C20724-P189

>  <fragmenstein_outcome>  (1403) 
acceptable

>  <inchikey>  (1403) 
NTMLAIPZCRPEMP-UHFFFAOYSA-N

>  <fragmenstein_mode>  (1403) 
expansion

>  <HIPPO Pose ID>  (1403) 
21349

>  <Energy>  (1403) 
93.492672

>  <fragmenstein_error>  (1403) 


>  <tags>  (1403) 
{'openbind_xx01zvns2b_c1_fragmenstein', 'fragmenstein_placed'}

>  <ref_pdb>  (1403) 
175

>  <scratch_subdir>  (1403) 
/opt/xchem-fragalysis-2/maxwin/BulkDock/SCRATCH/511028/C20724-P189

>  <alias>  (1403) 
CC(C)CNC(=O)[C@@](O)(Nc1ccc2c(c1)CNC2)c1cc(Cl)cc2cn[nH]c12

>  <HIPPO Compound ID>  (1403) 
20724

>  <fragmenstein_runtime>  (1403) 
4.863374

$$$$
N#C[C@@](O)(Nc1ccc2c(c1)CNC2)c1cccc2c[nH]nc12
     RDKit          3D

 23 26  0  0  0  0  0  0  0  0999 V2000
   -6.7438    7.4141  -13.2057 N   0  0  0  0  0  0  0  0  0  0  0  0
   -6.9760    6.2800  -13.3471 C   0  0  0  0  0  0  0  0  0  0  0  0
   -7.2831    4.8320  -13.5669 C   0  0  1  0  0  0  0  0  0  0  0  0
   -6.1646    4.0317  -13.1909 O   0  0  0  0  0  0  0  0  0  0  0  0
   -8.4410    4.3300  -12.7996 N   0  0  0  0  0  0  0  0  0  0  0  0
   -8.3887    4.3104  -11.3875 C   0  0  0  0  0  0  0  0  0  0  0  0
   -8.1710    5.4609  -10.6050 C   0  0  0  0  0  0  0  0  0  0  0  0
   -8.1971    5.4180   -9.2037 C   0  0  0  0  0  0  0  0  0  0  0  0
   -8.4910    4.2185   -8.5885 C   0  0  0  0  0  0  0  0  0  0  0  0
   -8.7447    3.0834   -9.3402 C   0  0  0  0  0  0  0  0  0  0  0  0
   -8.6981    3.1103  -10.7247 C   0  0  0  0  0  0  0  0  0  0  0  0
   -9.0400    1.9391   -8.4339 C   0  0  0  0  0  0  0  0  0  0  0  0
   -9.1790    2.5262   -7.0739 N   0  0  0  0  0  0  0  0  0  0  0  0
   -8.6189    3.8919   -7.1413 C   0  0  0  0  0  0  0  0  0  0  0  0
   -7.5480    4.6326  -15.0545 C   0  0  0  0  0  0  0  0  0  0  0  0
   -8.7791    4.1845  -15.6288 C   0  0  0  0  0  0  0  0  0  0  0  0
   -9.0253    4.0331  -17.0332 C   0  0  0  0  0  0  0  0  0  0  0  0
   -8.0773    4.3238  -18.0271 C   0  0  0  0  0  0  0  0  0  0  0  0
   -6.8981    4.7737  -17.4566 C   0  0  0  0  0  0  0  0  0  0  0  0
   -5.7916    5.1673  -18.1525 C   0  0  0  0  0  0  0  0  0  0  0  0
   -4.8841    5.5030  -17.1941 N   0  0  0  0  0  0  0  0  0  0  0  0
   -5.3321    5.3710  -15.9262 N   0  0  0  0  0  0  0  0  0  0  0  0
   -6.5975    4.9280  -16.0573 C   0  0  0  0  0  0  0  0  0  0  0  0
  1  2  3  0
  2  3  1  0
  3  4  1  1
  3  5  1  0
  5  6  1  0
  6  7  2  0
  7  8  1  0
  8  9  2  0
  9 10  1  0
 10 11  2  0
 10 12  1  0
 12 13  1  0
 13 14  1  0
  3 15  1  0
 15 16  2  0
 16 17  1  0
 17 18  2  0
 18 19  1  0
 19 20  2  0
 20 21  1  0
 21 22  1  0
 22 23  2  0
 11  6  1  0
 23 15  1  0
 14  9  1  0
 23 19  1  0
M  END
>  <smiles>  (1404) 
C20726-P189

>  <fragmenstein_outcome>  (1404) 
acceptable

>  <inchikey>  (1404) 
FEXRLFSQMKEJES-UHFFFAOYSA-N

>  <fragmenstein_mode>  (1404) 
expansion

>  <HIPPO Pose ID>  (1404) 
21350

>  <Energy>  (1404) 
56.427276

>  <fragmenstein_error>  (1404) 


>  <tags>  (1404) 
{'openbind_xx01zvns2b_c1_fragmenstein', 'fragmenstein_placed'}

>  <ref_pdb>  (1404) 
175

>  <scratch_subdir>  (1404) 
/opt/xchem-fragalysis-2/maxwin/BulkDock/SCRATCH/511028/C20726-P189

>  <alias>  (1404) 
N#C[C@@](O)(Nc1ccc2c(c1)CNC2)c1cccc2c[nH]nc12

>  <HIPPO Compound ID>  (1404) 
20726

>  <fragmenstein_runtime>  (1404) 
1.984839

$$$$
Cc1cc(C(=O)Nc2ccc3c(c2)CNC3)c2n[nH]c(C)c2c1
     RDKit          3D

 23 26  0  0  0  0  0  0  0  0999 V2000
   -9.7329    3.6969  -17.9546 C   0  0  0  0  0  0  0  0  0  0  0  0
   -8.5004    4.2099  -17.2735 C   0  0  0  0  0  0  0  0  0  0  0  0
   -8.5014    4.4368  -15.8570 C   0  0  0  0  0  0  0  0  0  0  0  0
   -7.4018    5.0127  -15.1710 C   0  0  0  0  0  0  0  0  0  0  0  0
   -7.4900    5.4569  -13.7697 C   0  0  0  0  0  0  0  0  0  0  0  0
   -7.2741    6.5784  -13.5261 O   0  0  0  0  0  0  0  0  0  0  0  0
   -7.9478    4.3014  -12.8493 N   0  0  0  0  0  0  0  0  0  0  0  0
   -8.1372    4.2643  -11.4683 C   0  0  0  0  0  0  0  0  0  0  0  0
   -7.9832    5.4227  -10.6870 C   0  0  0  0  0  0  0  0  0  0  0  0
   -8.1661    5.3866   -9.3007 C   0  0  0  0  0  0  0  0  0  0  0  0
   -8.5208    4.1835   -8.7227 C   0  0  0  0  0  0  0  0  0  0  0  0
   -8.6766    3.0348   -9.4932 C   0  0  0  0  0  0  0  0  0  0  0  0
   -8.4846    3.0530  -10.8654 C   0  0  0  0  0  0  0  0  0  0  0  0
   -9.0289    1.8945   -8.5953 C   0  0  0  0  0  0  0  0  0  0  0  0
   -9.4465    2.5270   -7.3153 N   0  0  0  0  0  0  0  0  0  0  0  0
   -8.7838    3.8482   -7.2931 C   0  0  0  0  0  0  0  0  0  0  0  0
   -6.2829    5.3049  -15.9780 C   0  0  0  0  0  0  0  0  0  0  0  0
   -5.0775    5.8352  -15.6946 N   0  0  0  0  0  0  0  0  0  0  0  0
   -4.4367    5.9066  -16.8717 N   0  0  0  0  0  0  0  0  0  0  0  0
   -5.1509    5.4536  -17.9446 C   0  0  0  0  0  0  0  0  0  0  0  0
   -4.6198    5.4957  -19.3247 C   0  0  0  0  0  0  0  0  0  0  0  0
   -6.3325    5.0308  -17.3946 C   0  0  0  0  0  0  0  0  0  0  0  0
   -7.3906    4.4834  -18.1024 C   0  0  0  0  0  0  0  0  0  0  0  0
  1  2  1  0
  2  3  1  0
  3  4  2  0
  4  5  1  0
  5  6  2  0
  5  7  1  0
  7  8  1  0
  8  9  2  0
  9 10  1  0
 10 11  2  0
 11 12  1  0
 12 13  2  0
 12 14  1  0
 14 15  1  0
 15 16  1  0
  4 17  1  0
 17 18  2  0
 18 19  1  0
 19 20  1  0
 20 21  1  0
 20 22  2  0
 22 23  1  0
 23  2  2  0
 13  8  1  0
 22 17  1  0
 16 11  1  0
M  END
>  <smiles>  (1405) 
C20734-P189

>  <fragmenstein_outcome>  (1405) 
acceptable

>  <inchikey>  (1405) 
KNPPQLPLZBZIAH-UHFFFAOYSA-N

>  <fragmenstein_mode>  (1405) 
expansion

>  <HIPPO Pose ID>  (1405) 
21355

>  <Energy>  (1405) 
73.321262

>  <fragmenstein_error>  (1405) 


>  <tags>  (1405) 
{'openbind_xx01zvns2b_c1_fragmenstein', 'fragmenstein_placed'}

>  <ref_pdb>  (1405) 
175

>  <scratch_subdir>  (1405) 
/opt/xchem-fragalysis-2/maxwin/BulkDock/SCRATCH/511028/C20734-P189

>  <alias>  (1405) 
Cc1cc(C(=O)Nc2ccc3c(c2)CNC3)c2n[nH]c(C)c2c1

>  <HIPPO Compound ID>  (1405) 
20734

>  <fragmenstein_runtime>  (1405) 
5.445653

$$$$
O=C(Nc1ccc2c(c1)CNC2)c1cc(F)cc2c1NC1(CCCCC1)C2
     RDKit          3D

 27 31  0  0  0  0  0  0  0  0999 V2000
   -7.2594    6.4891  -13.7430 O   0  0  0  0  0  0  0  0  0  0  0  0
   -7.4960    5.3627  -13.9444 C   0  0  0  0  0  0  0  0  0  0  0  0
   -7.8223    4.2114  -12.9560 N   0  0  0  0  0  0  0  0  0  0  0  0
   -8.0112    4.2302  -11.5734 C   0  0  0  0  0  0  0  0  0  0  0  0
   -7.8264    5.4013  -10.8217 C   0  0  0  0  0  0  0  0  0  0  0  0
   -8.0336    5.4056   -9.4364 C   0  0  0  0  0  0  0  0  0  0  0  0
   -8.4307    4.2289   -8.8287 C   0  0  0  0  0  0  0  0  0  0  0  0
   -8.6118    3.0661   -9.5695 C   0  0  0  0  0  0  0  0  0  0  0  0
   -8.4078    3.0473  -10.9400 C   0  0  0  0  0  0  0  0  0  0  0  0
   -8.9946    1.9546   -8.6475 C   0  0  0  0  0  0  0  0  0  0  0  0
   -9.3829    2.6218   -7.3766 N   0  0  0  0  0  0  0  0  0  0  0  0
   -8.7062    3.9361   -7.3918 C   0  0  0  0  0  0  0  0  0  0  0  0
   -7.6176    4.8932  -15.3573 C   0  0  0  0  0  0  0  0  0  0  0  0
   -8.7970    4.2292  -15.7373 C   0  0  0  0  0  0  0  0  0  0  0  0
   -9.0178    3.8964  -17.0753 C   0  0  0  0  0  0  0  0  0  0  0  0
  -10.1645    3.3184  -17.4346 F   0  0  0  0  0  0  0  0  0  0  0  0
   -8.0873    4.1734  -18.0555 C   0  0  0  0  0  0  0  0  0  0  0  0
   -6.9343    4.8252  -17.6675 C   0  0  0  0  0  0  0  0  0  0  0  0
   -6.6896    5.2138  -16.3493 C   0  0  0  0  0  0  0  0  0  0  0  0
   -5.4812    5.9479  -16.2308 N   0  0  0  0  0  0  0  0  0  0  0  0
   -4.9728    6.1244  -17.6223 C   0  0  0  0  0  0  0  0  0  0  0  0
   -5.1914    7.5902  -18.0488 C   0  0  0  0  0  0  0  0  0  0  0  0
   -4.7713    7.8501  -19.4992 C   0  0  0  0  0  0  0  0  0  0  0  0
   -3.6445    6.9440  -19.9834 C   0  0  0  0  0  0  0  0  0  0  0  0
   -2.7317    6.5407  -18.8365 C   0  0  0  0  0  0  0  0  0  0  0  0
   -3.4612    5.8239  -17.6913 C   0  0  0  0  0  0  0  0  0  0  0  0
   -5.7948    5.1861  -18.5401 C   0  0  0  0  0  0  0  0  0  0  0  0
  1  2  2  0
  2  3  1  0
  3  4  1  0
  4  5  2  0
  5  6  1  0
  6  7  2  0
  7  8  1  0
  8  9  2  0
  8 10  1  0
 10 11  1  0
 11 12  1  0
  2 13  1  0
 13 14  2  0
 14 15  1  0
 15 16  1  0
 15 17  2  0
 17 18  1  0
 18 19  2  0
 19 20  1  0
 20 21  1  0
 21 22  1  0
 22 23  1  0
 23 24  1  0
 24 25  1  0
 25 26  1  0
 21 27  1  0
  9  4  1  0
 19 13  1  0
 26 21  1  0
 12  7  1  0
 27 18  1  0
M  END
>  <smiles>  (1406) 
C20737-P189

>  <fragmenstein_outcome>  (1406) 
acceptable

>  <inchikey>  (1406) 
LUKLFSKBDCSFEM-UHFFFAOYSA-N

>  <fragmenstein_mode>  (1406) 
expansion

>  <HIPPO Pose ID>  (1406) 
21357

>  <Energy>  (1406) 
90.955112

>  <fragmenstein_error>  (1406) 


>  <tags>  (1406) 
{'openbind_xx01zvns2b_c1_fragmenstein', 'fragmenstein_placed'}

>  <ref_pdb>  (1406) 
175

>  <scratch_subdir>  (1406) 
/opt/xchem-fragalysis-2/maxwin/BulkDock/SCRATCH/511028/C20737-P189

>  <alias>  (1406) 
O=C(Nc1ccc2c(c1)CNC2)c1cc(F)cc2c1NC1(CCCCC1)C2

>  <HIPPO Compound ID>  (1406) 
20952

>  <fragmenstein_runtime>  (1406) 
4.176232

$$$$
O=C(Nc1ccc2c(c1)CNC2)c1cccc2c1NC1(CCNCC1)C2
     RDKit          3D

 26 30  0  0  0  0  0  0  0  0999 V2000
   -6.9443    6.3064  -13.7407 O   0  0  0  0  0  0  0  0  0  0  0  0
   -7.4132    5.2517  -13.9254 C   0  0  0  0  0  0  0  0  0  0  0  0
   -7.9164    4.1838  -12.9164 N   0  0  0  0  0  0  0  0  0  0  0  0
   -8.0291    4.2325  -11.5282 C   0  0  0  0  0  0  0  0  0  0  0  0
   -7.6934    5.3876  -10.8063 C   0  0  0  0  0  0  0  0  0  0  0  0
   -7.8307    5.4276   -9.4140 C   0  0  0  0  0  0  0  0  0  0  0  0
   -8.2997    4.2993   -8.7669 C   0  0  0  0  0  0  0  0  0  0  0  0
   -8.6428    3.1582   -9.4790 C   0  0  0  0  0  0  0  0  0  0  0  0
   -8.5183    3.1061  -10.8589 C   0  0  0  0  0  0  0  0  0  0  0  0
   -9.1621    2.1243   -8.5392 C   0  0  0  0  0  0  0  0  0  0  0  0
   -8.9229    2.6525   -7.1690 N   0  0  0  0  0  0  0  0  0  0  0  0
   -8.5570    4.0769   -7.3171 C   0  0  0  0  0  0  0  0  0  0  0  0
   -7.6703    4.8090  -15.3356 C   0  0  0  0  0  0  0  0  0  0  0  0
   -8.9032    4.2006  -15.6457 C   0  0  0  0  0  0  0  0  0  0  0  0
   -9.2541    3.8911  -16.9683 C   0  0  0  0  0  0  0  0  0  0  0  0
   -8.3772    4.1583  -18.0047 C   0  0  0  0  0  0  0  0  0  0  0  0
   -7.1768    4.7681  -17.6910 C   0  0  0  0  0  0  0  0  0  0  0  0
   -6.8073    5.1077  -16.3887 C   0  0  0  0  0  0  0  0  0  0  0  0
   -5.5873    5.8220  -16.3591 N   0  0  0  0  0  0  0  0  0  0  0  0
   -5.1442    5.9634  -17.7690 C   0  0  0  0  0  0  0  0  0  0  0  0
   -3.7094    5.4865  -17.9651 C   0  0  0  0  0  0  0  0  0  0  0  0
   -3.2620    5.6275  -19.4266 C   0  0  0  0  0  0  0  0  0  0  0  0
   -3.8805    6.7449  -20.1492 N   0  0  0  0  0  0  0  0  0  0  0  0
   -4.2107    7.8434  -19.2468 C   0  0  0  0  0  0  0  0  0  0  0  0
   -5.2199    7.4594  -18.1599 C   0  0  0  0  0  0  0  0  0  0  0  0
   -6.1184    5.1501  -18.6519 C   0  0  0  0  0  0  0  0  0  0  0  0
  1  2  2  0
  2  3  1  0
  3  4  1  0
  4  5  2  0
  5  6  1  0
  6  7  2  0
  7  8  1  0
  8  9  2  0
  8 10  1  0
 10 11  1  0
 11 12  1  0
  2 13  1  0
 13 14  2  0
 14 15  1  0
 15 16  2  0
 16 17  1  0
 17 18  2  0
 18 19  1  0
 19 20  1  0
 20 21  1  0
 21 22  1  0
 22 23  1  0
 23 24  1  0
 24 25  1  0
 20 26  1  0
  9  4  1  0
 18 13  1  0
 25 20  1  0
 12  7  1  0
 26 17  1  0
M  END
>  <smiles>  (1407) 
C20741-P189

>  <fragmenstein_outcome>  (1407) 
acceptable

>  <inchikey>  (1407) 
PSQGMZIOCGDDBQ-UHFFFAOYSA-N

>  <fragmenstein_mode>  (1407) 
expansion

>  <HIPPO Pose ID>  (1407) 
21358

>  <Energy>  (1407) 
95.668154

>  <fragmenstein_error>  (1407) 


>  <tags>  (1407) 
{'openbind_xx01zvns2b_c1_fragmenstein', 'fragmenstein_placed'}

>  <ref_pdb>  (1407) 
175

>  <scratch_subdir>  (1407) 
/opt/xchem-fragalysis-2/maxwin/BulkDock/SCRATCH/511028/C20741-P189

>  <alias>  (1407) 
O=C(Nc1ccc2c(c1)CNC2)c1cccc2c1NC1(CCNCC1)C2

>  <HIPPO Compound ID>  (1407) 
42904

>  <fragmenstein_runtime>  (1407) 
5.996296

$$$$
N#Cc1cc2c(cc1NC(=O)c1cc(F)cc3c[nH]nc13)CNC2
     RDKit          3D

 24 27  0  0  0  0  0  0  0  0999 V2000
   -7.9216    7.9849  -11.3505 N   0  0  0  0  0  0  0  0  0  0  0  0
   -7.9617    6.8439  -11.1311 C   0  0  0  0  0  0  0  0  0  0  0  0
   -8.0929    5.4974  -10.6534 C   0  0  0  0  0  0  0  0  0  0  0  0
   -8.2287    5.3935   -9.2500 C   0  0  0  0  0  0  0  0  0  0  0  0
   -8.5154    4.1691   -8.6821 C   0  0  0  0  0  0  0  0  0  0  0  0
   -8.6782    3.0491   -9.4759 C   0  0  0  0  0  0  0  0  0  0  0  0
   -8.5169    3.1141  -10.8523 C   0  0  0  0  0  0  0  0  0  0  0  0
   -8.1945    4.3424  -11.4640 C   0  0  0  0  0  0  0  0  0  0  0  0
   -7.9785    4.2598  -12.8532 N   0  0  0  0  0  0  0  0  0  0  0  0
   -7.4956    5.3309  -13.8609 C   0  0  0  0  0  0  0  0  0  0  0  0
   -7.1292    6.4238  -13.6843 O   0  0  0  0  0  0  0  0  0  0  0  0
   -7.5777    4.8559  -15.2551 C   0  0  0  0  0  0  0  0  0  0  0  0
   -8.7288    4.2337  -15.7946 C   0  0  0  0  0  0  0  0  0  0  0  0
   -8.8635    3.9372  -17.1818 C   0  0  0  0  0  0  0  0  0  0  0  0
  -10.0023    3.3618  -17.5864 F   0  0  0  0  0  0  0  0  0  0  0  0
   -7.9020    4.2208  -18.1611 C   0  0  0  0  0  0  0  0  0  0  0  0
   -6.7850    4.8143  -17.5950 C   0  0  0  0  0  0  0  0  0  0  0  0
   -5.6788    5.2120  -18.2888 C   0  0  0  0  0  0  0  0  0  0  0  0
   -4.8434    5.7117  -17.3384 N   0  0  0  0  0  0  0  0  0  0  0  0
   -5.3401    5.6871  -16.0883 N   0  0  0  0  0  0  0  0  0  0  0  0
   -6.5662    5.1382  -16.2027 C   0  0  0  0  0  0  0  0  0  0  0  0
   -8.9944    1.8746   -8.6114 C   0  0  0  0  0  0  0  0  0  0  0  0
   -9.2331    2.4262   -7.2524 N   0  0  0  0  0  0  0  0  0  0  0  0
   -8.7134    3.8058   -7.2508 C   0  0  0  0  0  0  0  0  0  0  0  0
  1  2  3  0
  2  3  1  0
  3  4  2  0
  4  5  1  0
  5  6  2  0
  6  7  1  0
  7  8  2  0
  8  9  1  0
  9 10  1  0
 10 11  2  0
 10 12  1  0
 12 13  2  0
 13 14  1  0
 14 15  1  0
 14 16  2  0
 16 17  1  0
 17 18  2  0
 18 19  1  0
 19 20  1  0
 20 21  2  0
  6 22  1  0
 22 23  1  0
 23 24  1  0
  8  3  1  0
 21 12  1  0
 24  5  1  0
 21 17  1  0
M  END
>  <smiles>  (1408) 
C20738-P189

>  <fragmenstein_outcome>  (1408) 
acceptable

>  <inchikey>  (1408) 
XMFHOBNKXJDERX-UHFFFAOYSA-N

>  <fragmenstein_mode>  (1408) 
expansion

>  <HIPPO Pose ID>  (1408) 
21362

>  <Energy>  (1408) 
84.310929

>  <fragmenstein_error>  (1408) 


>  <tags>  (1408) 
{'openbind_xx01zvns2b_c1_fragmenstein', 'fragmenstein_placed'}

>  <ref_pdb>  (1408) 
175

>  <scratch_subdir>  (1408) 
/opt/xchem-fragalysis-2/maxwin/BulkDock/SCRATCH/511028/C20738-P189

>  <alias>  (1408) 
N#Cc1cc2c(cc1NC(=O)c1cc(F)cc3c[nH]nc13)CNC2

>  <HIPPO Compound ID>  (1408) 
24733

>  <fragmenstein_runtime>  (1408) 
2.550603

$$$$
CC(C)[C@H]1NN[C@]2(Cc3cc(F)cc(C(=O)Nc4ccc5c(c4)CNC5)c3N2)S1
     RDKit          3D

 29 33  0  0  0  0  0  0  0  0999 V2000
   -3.0716    9.6032  -15.4919 C   0  0  0  0  0  0  0  0  0  0  0  0
   -2.7681    9.3053  -16.9673 C   0  0  0  0  0  0  0  0  0  0  0  0
   -1.2665    9.5016  -17.2186 C   0  0  0  0  0  0  0  0  0  0  0  0
   -3.2242    7.9148  -17.4407 C   0  0  1  0  0  0  0  0  0  0  0  0
   -2.6827    6.8078  -16.6503 N   0  0  0  0  0  0  0  0  0  0  0  0
   -3.4343    5.6162  -17.0506 N   0  0  0  0  0  0  0  0  0  0  0  0
   -4.8744    5.9466  -17.0488 C   0  0  1  0  0  0  0  0  0  0  0  0
   -5.6123    5.1724  -18.1807 C   0  0  0  0  0  0  0  0  0  0  0  0
   -6.8770    4.7771  -17.4987 C   0  0  0  0  0  0  0  0  0  0  0  0
   -7.9933    4.1659  -18.0368 C   0  0  0  0  0  0  0  0  0  0  0  0
   -9.0343    3.8565  -17.1710 C   0  0  0  0  0  0  0  0  0  0  0  0
  -10.1272    3.2601  -17.6587 F   0  0  0  0  0  0  0  0  0  0  0  0
   -8.9759    4.1594  -15.8054 C   0  0  0  0  0  0  0  0  0  0  0  0
   -7.8554    4.8102  -15.2851 C   0  0  0  0  0  0  0  0  0  0  0  0
   -7.8182    5.3003  -13.8809 C   0  0  0  0  0  0  0  0  0  0  0  0
   -7.4690    6.4002  -13.6953 O   0  0  0  0  0  0  0  0  0  0  0  0
   -8.2861    4.2150  -12.8831 N   0  0  0  0  0  0  0  0  0  0  0  0
   -8.3303    4.2246  -11.4902 C   0  0  0  0  0  0  0  0  0  0  0  0
   -8.0364    5.3877  -10.7599 C   0  0  0  0  0  0  0  0  0  0  0  0
   -8.0888    5.3895   -9.3615 C   0  0  0  0  0  0  0  0  0  0  0  0
   -8.4433    4.2183   -8.7179 C   0  0  0  0  0  0  0  0  0  0  0  0
   -8.7325    3.0669   -9.4386 C   0  0  0  0  0  0  0  0  0  0  0  0
   -8.6780    3.0484  -10.8232 C   0  0  0  0  0  0  0  0  0  0  0  0
   -9.0579    1.9591   -8.4964 C   0  0  0  0  0  0  0  0  0  0  0  0
   -9.1625    2.5845   -7.1520 N   0  0  0  0  0  0  0  0  0  0  0  0
   -8.5816    3.9382   -7.2610 C   0  0  0  0  0  0  0  0  0  0  0  0
   -6.8039    5.1074  -16.1460 C   0  0  0  0  0  0  0  0  0  0  0  0
   -5.5625    5.6787  -15.7908 N   0  0  0  0  0  0  0  0  0  0  0  0
   -5.0122    7.7314  -17.3900 S   0  0  0  0  0  0  0  0  0  0  0  0
  1  2  1  0
  2  3  1  0
  4  2  1  1
  4  5  1  0
  5  6  1  0
  6  7  1  0
  7  8  1  6
  8  9  1  0
  9 10  2  0
 10 11  1  0
 11 12  1  0
 11 13  2  0
 13 14  1  0
 14 15  1  0
 15 16  2  0
 15 17  1  0
 17 18  1  0
 18 19  2  0
 19 20  1  0
 20 21  2  0
 21 22  1  0
 22 23  2  0
 22 24  1  0
 24 25  1  0
 25 26  1  0
 14 27  2  0
 27 28  1  0
  7 29  1  0
 29  4  1  0
 28  7  1  0
 27  9  1  0
 23 18  1  0
 26 21  1  0
M  END
>  <smiles>  (1409) 
C20748-P189

>  <fragmenstein_outcome>  (1409) 
acceptable

>  <inchikey>  (1409) 
QBQSGHXYXOZFAK-UHFFFAOYSA-N

>  <fragmenstein_mode>  (1409) 
expansion

>  <HIPPO Pose ID>  (1409) 
21364

>  <Energy>  (1409) 
58.107302

>  <fragmenstein_error>  (1409) 


>  <tags>  (1409) 
{'openbind_xx01zvns2b_c1_fragmenstein', 'fragmenstein_placed'}

>  <ref_pdb>  (1409) 
175

>  <scratch_subdir>  (1409) 
/opt/xchem-fragalysis-2/maxwin/BulkDock/SCRATCH/511028/C20748-P189

>  <alias>  (1409) 
CC(C)[C@H]1NN[C@]2(Cc3cc(F)cc(C(=O)Nc4ccc5c(c4)CNC5)c3N2)S1

>  <HIPPO Compound ID>  (1409) 
33811

>  <fragmenstein_runtime>  (1409) 
4.215878

$$$$
N[C@H]1NCc2ccc(N[C@@H]3N=Cc4ccc5c(c43)N=NC5=O)cc21
     RDKit          3D

 24 28  0  0  0  0  0  0  0  0999 V2000
   -7.9773    1.2519   -8.5789 N   0  0  0  0  0  0  0  0  0  0  0  0
   -9.0537    2.1599   -8.7759 C   0  0  1  0  0  0  0  0  0  0  0  0
   -9.3481    2.7182   -7.4557 N   0  0  0  0  0  0  0  0  0  0  0  0
   -8.7733    4.0865   -7.4329 C   0  0  0  0  0  0  0  0  0  0  0  0
   -8.4070    4.4148   -8.8397 C   0  0  0  0  0  0  0  0  0  0  0  0
   -7.8715    5.5587   -9.3897 C   0  0  0  0  0  0  0  0  0  0  0  0
   -7.4578    5.5142  -10.7302 C   0  0  0  0  0  0  0  0  0  0  0  0
   -7.5907    4.3489  -11.5178 C   0  0  0  0  0  0  0  0  0  0  0  0
   -7.0554    4.2281  -12.8138 N   0  0  0  0  0  0  0  0  0  0  0  0
   -7.1342    5.3871  -13.6768 C   0  0  2  0  0  0  0  0  0  0  0  0
   -8.4513    6.0550  -13.5809 N   0  0  0  0  0  0  0  0  0  0  0  0
   -9.1132    5.6210  -14.6090 C   0  0  0  0  0  0  0  0  0  0  0  0
   -8.3889    4.8076  -15.5595 C   0  0  0  0  0  0  0  0  0  0  0  0
   -8.7601    4.4426  -16.8536 C   0  0  0  0  0  0  0  0  0  0  0  0
   -7.7420    4.3926  -17.8005 C   0  0  0  0  0  0  0  0  0  0  0  0
   -6.4611    4.7013  -17.3521 C   0  0  0  0  0  0  0  0  0  0  0  0
   -6.1032    4.9448  -16.0419 C   0  0  0  0  0  0  0  0  0  0  0  0
   -7.0894    4.9552  -15.1047 C   0  0  0  0  0  0  0  0  0  0  0  0
   -4.7677    5.3243  -15.9167 N   0  0  0  0  0  0  0  0  0  0  0  0
   -4.2759    5.3585  -17.0885 N   0  0  0  0  0  0  0  0  0  0  0  0
   -5.2338    5.0141  -18.0363 C   0  0  0  0  0  0  0  0  0  0  0  0
   -5.1270    5.0249  -19.2481 O   0  0  0  0  0  0  0  0  0  0  0  0
   -8.1614    3.2196  -10.9364 C   0  0  0  0  0  0  0  0  0  0  0  0
   -8.5681    3.2787   -9.6153 C   0  0  0  0  0  0  0  0  0  0  0  0
  2  1  1  1
  2  3  1  0
  3  4  1  0
  4  5  1  0
  5  6  2  0
  6  7  1  0
  7  8  2  0
  8  9  1  0
 10  9  1  1
 10 11  1  0
 11 12  2  0
 12 13  1  0
 13 14  2  0
 14 15  1  0
 15 16  2  0
 16 17  1  0
 17 18  2  0
 17 19  1  0
 19 20  2  0
 20 21  1  0
 21 22  2  0
  8 23  1  0
 23 24  2  0
 24  2  1  0
 24  5  1  0
 18 10  1  0
 18 13  1  0
 21 16  1  0
M  END
>  <smiles>  (1410) 
C20751-P189

>  <fragmenstein_outcome>  (1410) 
acceptable

>  <inchikey>  (1410) 
UXWAEBOEZKKVMO-UHFFFAOYSA-N

>  <fragmenstein_mode>  (1410) 
expansion

>  <HIPPO Pose ID>  (1410) 
21366

>  <Energy>  (1410) 
-21.433639

>  <fragmenstein_error>  (1410) 


>  <tags>  (1410) 
{'openbind_xx01zvns2b_c1_fragmenstein', 'fragmenstein_placed'}

>  <ref_pdb>  (1410) 
175

>  <scratch_subdir>  (1410) 
/opt/xchem-fragalysis-2/maxwin/BulkDock/SCRATCH/511028/C20751-P189

>  <alias>  (1410) 
N[C@H]1NCc2ccc(N[C@@H]3N=Cc4ccc5c(c43)N=NC5=O)cc21

>  <HIPPO Compound ID>  (1410) 
21320

>  <fragmenstein_runtime>  (1410) 
3.362496

$$$$
O=C(NCC(F)F)[C@@](O)(Nc1ccc2c(c1)CNC2)c1cc(Br)cc2cn[nH]c12
     RDKit          3D

 29 32  0  0  0  0  0  0  0  0999 V2000
   -7.2875    7.3052  -13.4353 O   0  0  0  0  0  0  0  0  0  0  0  0
   -6.6837    6.3552  -13.1148 C   0  0  0  0  0  0  0  0  0  0  0  0
   -5.3395    6.2290  -12.3323 N   0  0  0  0  0  0  0  0  0  0  0  0
   -4.5196    7.2420  -11.7060 C   0  0  0  0  0  0  0  0  0  0  0  0
   -5.1578    7.8955  -10.4847 C   0  0  0  0  0  0  0  0  0  0  0  0
   -4.4001    8.9561  -10.0981 F   0  0  0  0  0  0  0  0  0  0  0  0
   -5.1512    7.0264   -9.4406 F   0  0  0  0  0  0  0  0  0  0  0  0
   -7.0952    4.8396  -13.5002 C   0  0  1  0  0  0  0  0  0  0  0  0
   -6.0448    3.9398  -13.1471 O   0  0  0  0  0  0  0  0  0  0  0  0
   -8.3222    4.3943  -12.8262 N   0  0  0  0  0  0  0  0  0  0  0  0
   -8.3592    4.3411  -11.4205 C   0  0  0  0  0  0  0  0  0  0  0  0
   -8.2028    5.4875  -10.6180 C   0  0  0  0  0  0  0  0  0  0  0  0
   -8.2453    5.4243   -9.2200 C   0  0  0  0  0  0  0  0  0  0  0  0
   -8.5018    4.2044   -8.6296 C   0  0  0  0  0  0  0  0  0  0  0  0
   -8.6994    3.0709   -9.4026 C   0  0  0  0  0  0  0  0  0  0  0  0
   -8.6196    3.1167  -10.7862 C   0  0  0  0  0  0  0  0  0  0  0  0
   -8.9856    1.9080   -8.5151 C   0  0  0  0  0  0  0  0  0  0  0  0
   -9.1628    2.4727   -7.1505 N   0  0  0  0  0  0  0  0  0  0  0  0
   -8.6453    3.8551   -7.1889 C   0  0  0  0  0  0  0  0  0  0  0  0
   -7.2247    4.7652  -15.0249 C   0  0  0  0  0  0  0  0  0  0  0  0
   -8.4085    4.3723  -15.6828 C   0  0  0  0  0  0  0  0  0  0  0  0
   -8.4824    4.2900  -17.0734 C   0  0  0  0  0  0  0  0  0  0  0  0
  -10.0957    3.8113  -17.8821 Br  0  0  0  0  0  0  0  0  0  0  0  0
   -7.4113    4.6098  -17.8984 C   0  0  0  0  0  0  0  0  0  0  0  0
   -6.2325    5.0324  -17.2864 C   0  0  0  0  0  0  0  0  0  0  0  0
   -4.9655    5.4471  -17.7430 C   0  0  0  0  0  0  0  0  0  0  0  0
   -4.1364    5.7507  -16.7421 N   0  0  0  0  0  0  0  0  0  0  0  0
   -4.8732    5.5054  -15.6448 N   0  0  0  0  0  0  0  0  0  0  0  0
   -6.1590    5.0922  -15.8993 C   0  0  0  0  0  0  0  0  0  0  0  0
  1  2  2  0
  2  3  1  0
  3  4  1  0
  4  5  1  0
  5  6  1  0
  5  7  1  0
  2  8  1  0
  8  9  1  1
  8 10  1  0
 10 11  1  0
 11 12  2  0
 12 13  1  0
 13 14  2  0
 14 15  1  0
 15 16  2  0
 15 17  1  0
 17 18  1  0
 18 19  1  0
  8 20  1  0
 20 21  2  0
 21 22  1  0
 22 23  1  0
 22 24  2  0
 24 25  1  0
 25 26  1  0
 26 27  2  0
 27 28  1  0
 28 29  1  0
 16 11  1  0
 29 20  1  0
 19 14  1  0
 29 25  2  0
M  END
>  <smiles>  (1411) 
C20749-P189

>  <fragmenstein_outcome>  (1411) 
acceptable

>  <inchikey>  (1411) 
LSYMJORTYQOGOX-UHFFFAOYSA-N

>  <fragmenstein_mode>  (1411) 
expansion

>  <HIPPO Pose ID>  (1411) 
21368

>  <Energy>  (1411) 
132.070713

>  <fragmenstein_error>  (1411) 


>  <tags>  (1411) 
{'openbind_xx01zvns2b_c1_fragmenstein', 'fragmenstein_placed'}

>  <ref_pdb>  (1411) 
175

>  <scratch_subdir>  (1411) 
/opt/xchem-fragalysis-2/maxwin/BulkDock/SCRATCH/511028/C20749-P189

>  <alias>  (1411) 
O=C(NCC(F)F)[C@@](O)(Nc1ccc2c(c1)CNC2)c1cc(Br)cc2cn[nH]c12

>  <HIPPO Compound ID>  (1411) 
20749

>  <fragmenstein_runtime>  (1411) 
5.242358

$$$$
O=C(NCC(F)F)[C@](O)(Nc1ccc2c(c1)CNC2)c1cc(Cl)cc2cn[nH]c12
     RDKit          3D

 29 32  0  0  0  0  0  0  0  0999 V2000
   -6.9599    1.8004  -13.4514 O   0  0  0  0  0  0  0  0  0  0  0  0
   -6.5630    2.8761  -13.2200 C   0  0  0  0  0  0  0  0  0  0  0  0
   -5.2897    3.3376  -12.4506 N   0  0  0  0  0  0  0  0  0  0  0  0
   -4.2979    2.5689  -11.7285 C   0  0  0  0  0  0  0  0  0  0  0  0
   -4.6178    2.3946  -10.2465 C   0  0  0  0  0  0  0  0  0  0  0  0
   -4.5710    3.6167   -9.6456 F   0  0  0  0  0  0  0  0  0  0  0  0
   -3.6423    1.6495   -9.6619 F   0  0  0  0  0  0  0  0  0  0  0  0
   -7.3270    4.2367  -13.6478 C   0  0  2  0  0  0  0  0  0  0  0  0
   -6.5892    5.4052  -13.2902 O   0  0  0  0  0  0  0  0  0  0  0  0
   -8.6286    4.3208  -12.9516 N   0  0  0  0  0  0  0  0  0  0  0  0
   -8.5641    4.2620  -11.5277 C   0  0  0  0  0  0  0  0  0  0  0  0
   -8.3148    5.4261  -10.7701 C   0  0  0  0  0  0  0  0  0  0  0  0
   -8.2208    5.3860   -9.3742 C   0  0  0  0  0  0  0  0  0  0  0  0
   -8.4047    4.1730   -8.7416 C   0  0  0  0  0  0  0  0  0  0  0  0
   -8.6554    3.0165   -9.4694 C   0  0  0  0  0  0  0  0  0  0  0  0
   -8.7219    3.0390  -10.8546 C   0  0  0  0  0  0  0  0  0  0  0  0
   -8.8015    1.8680   -8.5245 C   0  0  0  0  0  0  0  0  0  0  0  0
   -8.9501    2.4848   -7.1804 N   0  0  0  0  0  0  0  0  0  0  0  0
   -8.3715    3.8410   -7.2880 C   0  0  0  0  0  0  0  0  0  0  0  0
   -7.4691    4.3558  -15.1703 C   0  0  0  0  0  0  0  0  0  0  0  0
   -8.6752    4.1140  -15.8735 C   0  0  0  0  0  0  0  0  0  0  0  0
   -8.7653    4.1769  -17.2695 C   0  0  0  0  0  0  0  0  0  0  0  0
  -10.2663    3.9087  -18.0685 Cl  0  0  0  0  0  0  0  0  0  0  0  0
   -7.6650    4.5101  -18.0498 C   0  0  0  0  0  0  0  0  0  0  0  0
   -6.4718    4.8301  -17.3978 C   0  0  0  0  0  0  0  0  0  0  0  0
   -5.1899    5.2475  -17.8100 C   0  0  0  0  0  0  0  0  0  0  0  0
   -4.3658    5.4611  -16.7826 N   0  0  0  0  0  0  0  0  0  0  0  0
   -5.1141    5.1359  -15.7133 N   0  0  0  0  0  0  0  0  0  0  0  0
   -6.3996    4.7499  -16.0117 C   0  0  0  0  0  0  0  0  0  0  0  0
  1  2  2  0
  2  3  1  0
  3  4  1  0
  4  5  1  0
  5  6  1  0
  5  7  1  0
  2  8  1  0
  8  9  1  1
  8 10  1  0
 10 11  1  0
 11 12  2  0
 12 13  1  0
 13 14  2  0
 14 15  1  0
 15 16  2  0
 15 17  1  0
 17 18  1  0
 18 19  1  0
  8 20  1  0
 20 21  2  0
 21 22  1  0
 22 23  1  0
 22 24  2  0
 24 25  1  0
 25 26  1  0
 26 27  2  0
 27 28  1  0
 28 29  1  0
 16 11  1  0
 29 20  1  0
 19 14  1  0
 29 25  2  0
M  END
>  <smiles>  (1412) 
C20708-P80

>  <fragmenstein_outcome>  (1412) 
acceptable

>  <inchikey>  (1412) 
GUJCCBMPCSVXLH-UHFFFAOYSA-N

>  <fragmenstein_mode>  (1412) 
expansion

>  <HIPPO Pose ID>  (1412) 
21369

>  <Energy>  (1412) 
119.515089

>  <fragmenstein_error>  (1412) 


>  <tags>  (1412) 
{'openbind_xx01zvns2b_c1_fragmenstein', 'fragmenstein_placed'}

>  <ref_pdb>  (1412) 
175

>  <scratch_subdir>  (1412) 
/opt/xchem-fragalysis-2/maxwin/BulkDock/SCRATCH/511028/C20708-P80

>  <alias>  (1412) 
O=C(NCC(F)F)[C@](O)(Nc1ccc2c(c1)CNC2)c1cc(Cl)cc2cn[nH]c12

>  <HIPPO Compound ID>  (1412) 
20708

>  <fragmenstein_runtime>  (1412) 
5.051066

$$$$
COCCOc1c2cc(F)cc(C(=O)Nc3ccc4c(c3)CNC4)c2n(C)[n+]1[O-]
     RDKit          3D

 29 32  0  0  0  0  0  0  0  0999 V2000
   -3.0777    8.4186  -18.9677 C   0  0  0  0  0  0  0  0  0  0  0  0
   -4.3782    7.9357  -19.2899 O   0  0  0  0  0  0  0  0  0  0  0  0
   -4.3708    7.0759  -20.4332 C   0  0  0  0  0  0  0  0  0  0  0  0
   -4.1416    5.6102  -20.0645 C   0  0  0  0  0  0  0  0  0  0  0  0
   -5.3123    5.0246  -19.4967 O   0  0  0  0  0  0  0  0  0  0  0  0
   -5.5007    5.1949  -18.1617 C   0  0  0  0  0  0  0  0  0  0  0  0
   -6.7427    4.8196  -17.4880 C   0  0  0  0  0  0  0  0  0  0  0  0
   -7.9310    4.2490  -17.9905 C   0  0  0  0  0  0  0  0  0  0  0  0
   -8.9660    3.9364  -17.1159 C   0  0  0  0  0  0  0  0  0  0  0  0
  -10.0732    3.3635  -17.6023 F   0  0  0  0  0  0  0  0  0  0  0  0
   -8.8895    4.2192  -15.7606 C   0  0  0  0  0  0  0  0  0  0  0  0
   -7.7521    4.8348  -15.2299 C   0  0  0  0  0  0  0  0  0  0  0  0
   -7.7535    5.3129  -13.8286 C   0  0  0  0  0  0  0  0  0  0  0  0
   -7.5238    6.4404  -13.6340 O   0  0  0  0  0  0  0  0  0  0  0  0
   -8.0473    4.1666  -12.8385 N   0  0  0  0  0  0  0  0  0  0  0  0
   -8.2082    4.1849  -11.4551 C   0  0  0  0  0  0  0  0  0  0  0  0
   -7.9988    5.3589  -10.7117 C   0  0  0  0  0  0  0  0  0  0  0  0
   -8.1509    5.3646   -9.3208 C   0  0  0  0  0  0  0  0  0  0  0  0
   -8.5197    4.1860   -8.7013 C   0  0  0  0  0  0  0  0  0  0  0  0
   -8.7189    3.0210   -9.4356 C   0  0  0  0  0  0  0  0  0  0  0  0
   -8.5673    2.9998  -10.8111 C   0  0  0  0  0  0  0  0  0  0  0  0
   -9.0601    1.9086   -8.5006 C   0  0  0  0  0  0  0  0  0  0  0  0
   -9.4324    2.5792   -7.2273 N   0  0  0  0  0  0  0  0  0  0  0  0
   -8.7562    3.8936   -7.2575 C   0  0  0  0  0  0  0  0  0  0  0  0
   -6.6694    5.0878  -16.0933 C   0  0  0  0  0  0  0  0  0  0  0  0
   -5.3869    5.5727  -15.9132 N   0  0  0  0  0  0  0  0  0  0  0  0
   -4.7516    5.9308  -14.6694 C   0  0  0  0  0  0  0  0  0  0  0  0
   -4.6619    5.6212  -17.1865 N   0  0  0  0  0  0  0  0  0  0  0  0
   -3.4389    5.9152  -17.1806 O   0  0  0  0  0  0  0  0  0  0  0  0
  1  2  1  0
  2  3  1  0
  3  4  1  0
  4  5  1  0
  5  6  1  0
  6  7  1  0
  7  8  2  0
  8  9  1  0
  9 10  1  0
  9 11  2  0
 11 12  1  0
 12 13  1  0
 13 14  2  0
 13 15  1  0
 15 16  1  0
 16 17  2  0
 17 18  1  0
 18 19  2  0
 19 20  1  0
 20 21  2  0
 20 22  1  0
 22 23  1  0
 23 24  1  0
 12 25  2  0
 25 26  1  0
 26 27  1  0
 26 28  1  0
 28 29  1  0
 28  6  2  0
 25  7  1  0
 21 16  1  0
 24 19  1  0
M  CHG  2  28   1  29  -1
M  END
>  <smiles>  (1413) 
C20757-P189

>  <fragmenstein_outcome>  (1413) 
acceptable

>  <inchikey>  (1413) 
ZLAVQBYZXJSRJJ-UHFFFAOYSA-N

>  <fragmenstein_mode>  (1413) 
expansion

>  <HIPPO Pose ID>  (1413) 
21370

>  <Energy>  (1413) 
88.655484

>  <fragmenstein_error>  (1413) 


>  <tags>  (1413) 
{'openbind_xx01zvns2b_c1_fragmenstein', 'fragmenstein_placed'}

>  <ref_pdb>  (1413) 
175

>  <scratch_subdir>  (1413) 
/opt/xchem-fragalysis-2/maxwin/BulkDock/SCRATCH/511028/C20757-P189

>  <alias>  (1413) 
COCCOc1c2cc(F)cc(C(=O)Nc3ccc4c(c3)CNC4)c2n(C)[n+]1[O-]

>  <HIPPO Compound ID>  (1413) 
20757

>  <fragmenstein_runtime>  (1413) 
6.412351

$$$$
Cc1c2cccc(C(=O)Nc3ccc4c(c3)CNC4)c2nn1C
     RDKit          3D

 23 26  0  0  0  0  0  0  0  0999 V2000
   -5.1732    5.2881  -19.4982 C   0  0  0  0  0  0  0  0  0  0  0  0
   -5.5908    5.2949  -18.0769 C   0  0  0  0  0  0  0  0  0  0  0  0
   -6.7363    4.8769  -17.4441 C   0  0  0  0  0  0  0  0  0  0  0  0
   -7.8395    4.2856  -18.0581 C   0  0  0  0  0  0  0  0  0  0  0  0
   -8.8572    3.9784  -17.1329 C   0  0  0  0  0  0  0  0  0  0  0  0
   -8.7701    4.2696  -15.7385 C   0  0  0  0  0  0  0  0  0  0  0  0
   -7.6479    4.9047  -15.1503 C   0  0  0  0  0  0  0  0  0  0  0  0
   -7.6470    5.3750  -13.7540 C   0  0  0  0  0  0  0  0  0  0  0  0
   -7.4022    6.4958  -13.5377 O   0  0  0  0  0  0  0  0  0  0  0  0
   -8.0820    4.2419  -12.7970 N   0  0  0  0  0  0  0  0  0  0  0  0
   -8.2100    4.2283  -11.4106 C   0  0  0  0  0  0  0  0  0  0  0  0
   -8.0185    5.3940  -10.6500 C   0  0  0  0  0  0  0  0  0  0  0  0
   -8.1678    5.3760   -9.2594 C   0  0  0  0  0  0  0  0  0  0  0  0
   -8.5245    4.1841   -8.6587 C   0  0  0  0  0  0  0  0  0  0  0  0
   -8.7079    3.0274   -9.4105 C   0  0  0  0  0  0  0  0  0  0  0  0
   -8.5501    3.0274  -10.7853 C   0  0  0  0  0  0  0  0  0  0  0  0
   -9.0512    1.9009   -8.4938 C   0  0  0  0  0  0  0  0  0  0  0  0
   -9.4428    2.5531   -7.2161 N   0  0  0  0  0  0  0  0  0  0  0  0
   -8.7692    3.8697   -7.2212 C   0  0  0  0  0  0  0  0  0  0  0  0
   -6.5932    5.1903  -16.0397 C   0  0  0  0  0  0  0  0  0  0  0  0
   -5.3808    5.7403  -15.8456 N   0  0  0  0  0  0  0  0  0  0  0  0
   -4.8056    5.7735  -17.0598 N   0  0  0  0  0  0  0  0  0  0  0  0
   -3.4575    6.2805  -17.1681 C   0  0  0  0  0  0  0  0  0  0  0  0
  1  2  1  0
  2  3  2  0
  3  4  1  0
  4  5  2  0
  5  6  1  0
  6  7  2  0
  7  8  1  0
  8  9  2  0
  8 10  1  0
 10 11  1  0
 11 12  2  0
 12 13  1  0
 13 14  2  0
 14 15  1  0
 15 16  2  0
 15 17  1  0
 17 18  1  0
 18 19  1  0
  7 20  1  0
 20 21  2  0
 21 22  1  0
 22 23  1  0
 22  2  1  0
 20  3  1  0
 16 11  1  0
 19 14  1  0
M  END
>  <smiles>  (1414) 
C20760-P189

>  <fragmenstein_outcome>  (1414) 
acceptable

>  <inchikey>  (1414) 
QOMKCDWUPPSOAJ-UHFFFAOYSA-N

>  <fragmenstein_mode>  (1414) 
expansion

>  <HIPPO Pose ID>  (1414) 
21371

>  <Energy>  (1414) 
73.193703

>  <fragmenstein_error>  (1414) 


>  <tags>  (1414) 
{'openbind_xx01zvns2b_c1_fragmenstein', 'fragmenstein_placed'}

>  <ref_pdb>  (1414) 
175

>  <scratch_subdir>  (1414) 
/opt/xchem-fragalysis-2/maxwin/BulkDock/SCRATCH/511028/C20760-P189

>  <alias>  (1414) 
Cc1c2cccc(C(=O)Nc3ccc4c(c3)CNC4)c2nn1C

>  <HIPPO Compound ID>  (1414) 
20760

>  <fragmenstein_runtime>  (1414) 
2.791128

$$$$
CC(C)n1ncc2cc(Cl)cc([C@@](O)(Nc3ccc4c(c3)CNC4)C(=O)NCC(F)F)c21
     RDKit          3D

 32 35  0  0  0  0  0  0  0  0999 V2000
   -2.8656    5.0313  -14.7770 C   0  0  0  0  0  0  0  0  0  0  0  0
   -4.0798    5.9571  -14.6299 C   0  0  0  0  0  0  0  0  0  0  0  0
   -3.5868    7.3891  -14.4077 C   0  0  0  0  0  0  0  0  0  0  0  0
   -4.9762    5.8829  -15.7779 N   0  0  0  0  0  0  0  0  0  0  0  0
   -4.3942    6.1404  -16.9738 N   0  0  0  0  0  0  0  0  0  0  0  0
   -5.2406    5.6319  -17.8561 C   0  0  0  0  0  0  0  0  0  0  0  0
   -6.4123    5.1627  -17.2457 C   0  0  0  0  0  0  0  0  0  0  0  0
   -7.5534    4.5689  -17.7829 C   0  0  0  0  0  0  0  0  0  0  0  0
   -8.5812    4.2421  -16.9289 C   0  0  0  0  0  0  0  0  0  0  0  0
   -9.9861    3.5655  -17.6215 Cl  0  0  0  0  0  0  0  0  0  0  0  0
   -8.5049    4.5432  -15.5722 C   0  0  0  0  0  0  0  0  0  0  0  0
   -7.3946    5.2268  -14.9654 C   0  0  0  0  0  0  0  0  0  0  0  0
   -7.6201    5.6877  -13.4836 C   0  0  1  0  0  0  0  0  0  0  0  0
   -9.0020    6.0569  -13.4159 O   0  0  0  0  0  0  0  0  0  0  0  0
   -7.4121    4.5393  -12.5793 N   0  0  0  0  0  0  0  0  0  0  0  0
   -7.9677    4.4383  -11.2867 C   0  0  0  0  0  0  0  0  0  0  0  0
   -8.0966    5.5412  -10.4127 C   0  0  0  0  0  0  0  0  0  0  0  0
   -8.4082    5.3975   -9.0570 C   0  0  0  0  0  0  0  0  0  0  0  0
   -8.6626    4.1336   -8.5825 C   0  0  0  0  0  0  0  0  0  0  0  0
   -8.6149    3.0356   -9.4305 C   0  0  0  0  0  0  0  0  0  0  0  0
   -8.2343    3.1624  -10.7611 C   0  0  0  0  0  0  0  0  0  0  0  0
   -8.9747    1.8149   -8.6470 C   0  0  0  0  0  0  0  0  0  0  0  0
   -9.5591    2.3262   -7.3753 N   0  0  0  0  0  0  0  0  0  0  0  0
   -8.9909    3.6764   -7.2026 C   0  0  0  0  0  0  0  0  0  0  0  0
   -6.7444    6.9935  -13.0959 C   0  0  0  0  0  0  0  0  0  0  0  0
   -6.9005    8.0206  -13.6367 O   0  0  0  0  0  0  0  0  0  0  0  0
   -5.7472    6.5878  -11.9666 N   0  0  0  0  0  0  0  0  0  0  0  0
   -4.8061    7.3901  -11.2088 C   0  0  0  0  0  0  0  0  0  0  0  0
   -5.2737    7.7932   -9.8129 C   0  0  0  0  0  0  0  0  0  0  0  0
   -5.3924    6.6991   -9.0218 F   0  0  0  0  0  0  0  0  0  0  0  0
   -6.4906    8.3874   -9.8610 F   0  0  0  0  0  0  0  0  0  0  0  0
   -6.2931    5.4393  -15.8665 C   0  0  0  0  0  0  0  0  0  0  0  0
  1  2  1  0
  2  3  1  0
  2  4  1  0
  4  5  1  0
  5  6  2  0
  6  7  1  0
  7  8  2  0
  8  9  1  0
  9 10  1  0
  9 11  2  0
 11 12  1  0
 12 13  1  0
 13 14  1  6
 13 15  1  0
 15 16  1  0
 16 17  2  0
 17 18  1  0
 18 19  2  0
 19 20  1  0
 20 21  2  0
 20 22  1  0
 22 23  1  0
 23 24  1  0
 13 25  1  0
 25 26  2  0
 25 27  1  0
 27 28  1  0
 28 29  1  0
 29 30  1  0
 29 31  1  0
 12 32  2  0
 32  4  1  0
 32  7  1  0
 21 16  1  0
 24 19  1  0
M  END
>  <smiles>  (1415) 
C20761-P189

>  <fragmenstein_outcome>  (1415) 
acceptable

>  <inchikey>  (1415) 
VYYXLNYSXVGCNO-UHFFFAOYSA-N

>  <fragmenstein_mode>  (1415) 
expansion

>  <HIPPO Pose ID>  (1415) 
21372

>  <Energy>  (1415) 
143.858395

>  <fragmenstein_error>  (1415) 


>  <tags>  (1415) 
{'openbind_xx01zvns2b_c1_fragmenstein', 'fragmenstein_placed'}

>  <ref_pdb>  (1415) 
175

>  <scratch_subdir>  (1415) 
/opt/xchem-fragalysis-2/maxwin/BulkDock/SCRATCH/511028/C20761-P189

>  <alias>  (1415) 
CC(C)n1ncc2cc(Cl)cc([C@@](O)(Nc3ccc4c(c3)CNC4)C(=O)NCC(F)F)c21

>  <HIPPO Compound ID>  (1415) 
20761

>  <fragmenstein_runtime>  (1415) 
4.05038

$$$$
N#Cc1[nH]nc2c(C(=O)Nc3ccc4c(c3)CNC4)cccc12
     RDKit          3D

 23 26  0  0  0  0  0  0  0  0999 V2000
   -4.7259    5.5870  -20.5172 N   0  0  0  0  0  0  0  0  0  0  0  0
   -5.2490    5.4221  -19.4952 C   0  0  0  0  0  0  0  0  0  0  0  0
   -5.6802    5.3489  -18.1494 C   0  0  0  0  0  0  0  0  0  0  0  0
   -4.9207    5.8378  -17.1287 N   0  0  0  0  0  0  0  0  0  0  0  0
   -5.4852    5.7564  -15.9160 N   0  0  0  0  0  0  0  0  0  0  0  0
   -6.6781    5.1653  -16.1253 C   0  0  0  0  0  0  0  0  0  0  0  0
   -7.7276    4.8421  -15.2392 C   0  0  0  0  0  0  0  0  0  0  0  0
   -7.7414    5.3254  -13.8458 C   0  0  0  0  0  0  0  0  0  0  0  0
   -7.5360    6.4591  -13.6561 O   0  0  0  0  0  0  0  0  0  0  0  0
   -8.1238    4.1975  -12.8595 N   0  0  0  0  0  0  0  0  0  0  0  0
   -8.2362    4.2093  -11.4710 C   0  0  0  0  0  0  0  0  0  0  0  0
   -7.9762    5.3741  -10.7301 C   0  0  0  0  0  0  0  0  0  0  0  0
   -8.0788    5.3759   -9.3346 C   0  0  0  0  0  0  0  0  0  0  0  0
   -8.4485    4.2026   -8.7041 C   0  0  0  0  0  0  0  0  0  0  0  0
   -8.7101    3.0512   -9.4354 C   0  0  0  0  0  0  0  0  0  0  0  0
   -8.6070    3.0330  -10.8176 C   0  0  0  0  0  0  0  0  0  0  0  0
   -9.0561    1.9401   -8.5044 C   0  0  0  0  0  0  0  0  0  0  0  0
   -9.2012    2.5615   -7.1618 N   0  0  0  0  0  0  0  0  0  0  0  0
   -8.6229    3.9177   -7.2519 C   0  0  0  0  0  0  0  0  0  0  0  0
   -8.8304    4.1893  -15.8398 C   0  0  0  0  0  0  0  0  0  0  0  0
   -8.9019    3.9067  -17.2390 C   0  0  0  0  0  0  0  0  0  0  0  0
   -7.8895    4.2426  -18.1624 C   0  0  0  0  0  0  0  0  0  0  0  0
   -6.8063    4.8625  -17.5413 C   0  0  0  0  0  0  0  0  0  0  0  0
  1  2  3  0
  2  3  1  0
  3  4  1  0
  4  5  1  0
  5  6  2  0
  6  7  1  0
  7  8  1  0
  8  9  2  0
  8 10  1  0
 10 11  1  0
 11 12  2  0
 12 13  1  0
 13 14  2  0
 14 15  1  0
 15 16  2  0
 15 17  1  0
 17 18  1  0
 18 19  1  0
  7 20  2  0
 20 21  1  0
 21 22  2  0
 22 23  1  0
 23  3  2  0
 23  6  1  0
 16 11  1  0
 19 14  1  0
M  END
>  <smiles>  (1416) 
C20766-P189

>  <fragmenstein_outcome>  (1416) 
acceptable

>  <inchikey>  (1416) 
UYLLXAYZKPIQKF-UHFFFAOYSA-N

>  <fragmenstein_mode>  (1416) 
expansion

>  <HIPPO Pose ID>  (1416) 
21376

>  <Energy>  (1416) 
65.933501

>  <fragmenstein_error>  (1416) 


>  <tags>  (1416) 
{'openbind_xx01zvns2b_c1_fragmenstein', 'fragmenstein_placed'}

>  <ref_pdb>  (1416) 
175

>  <scratch_subdir>  (1416) 
/opt/xchem-fragalysis-2/maxwin/BulkDock/SCRATCH/511028/C20766-P189

>  <alias>  (1416) 
N#Cc1[nH]nc2c(C(=O)Nc3ccc4c(c3)CNC4)cccc12

>  <HIPPO Compound ID>  (1416) 
20766

>  <fragmenstein_runtime>  (1416) 
2.84752

$$$$
O=C(Nc1ccc2c(c1)CNC2)c1cccc2c1=N[N@H+]([O-])C=2
     RDKit          3D

 22 25  0  0  0  0  0  0  0  0999 V2000
   -7.2585    6.4304  -13.5488 O   0  0  0  0  0  0  0  0  0  0  0  0
   -7.6506    5.3491  -13.7550 C   0  0  0  0  0  0  0  0  0  0  0  0
   -8.1911    4.2726  -12.7779 N   0  0  0  0  0  0  0  0  0  0  0  0
   -8.2685    4.2708  -11.3849 C   0  0  0  0  0  0  0  0  0  0  0  0
   -7.9511    5.4207  -10.6432 C   0  0  0  0  0  0  0  0  0  0  0  0
   -8.0044    5.4121   -9.2451 C   0  0  0  0  0  0  0  0  0  0  0  0
   -8.3765    4.2421   -8.6100 C   0  0  0  0  0  0  0  0  0  0  0  0
   -8.6956    3.1045   -9.3395 C   0  0  0  0  0  0  0  0  0  0  0  0
   -8.6533    3.1022  -10.7266 C   0  0  0  0  0  0  0  0  0  0  0  0
   -9.0141    1.9894   -8.4002 C   0  0  0  0  0  0  0  0  0  0  0  0
   -9.0841    2.6010   -7.0480 N   0  0  0  0  0  0  0  0  0  0  0  0
   -8.4898    3.9477   -7.1533 C   0  0  0  0  0  0  0  0  0  0  0  0
   -7.7073    4.8293  -15.1523 C   0  0  0  0  0  0  0  0  0  0  0  0
   -8.8905    4.4748  -15.6878 C   0  0  0  0  0  0  0  0  0  0  0  0
   -9.1074    4.2795  -17.1137 C   0  0  0  0  0  0  0  0  0  0  0  0
   -8.1255    4.4965  -18.0022 C   0  0  0  0  0  0  0  0  0  0  0  0
   -6.8297    4.8167  -17.5026 C   0  0  0  0  0  0  0  0  0  0  0  0
   -6.5474    4.9429  -16.0617 C   0  0  0  0  0  0  0  0  0  0  0  0
   -5.3027    5.1152  -15.7462 N   0  0  0  0  0  0  0  0  0  0  0  0
   -4.5868    5.1665  -17.0443 N   0  0  2  0  0  0  0  0  0  0  0  0
   -4.0153    6.3658  -17.1509 O   0  0  0  0  0  0  0  0  0  0  0  0
   -5.6411    5.0266  -18.0610 C   0  0  0  0  0  0  0  0  0  0  0  0
  1  2  2  0
  2  3  1  0
  3  4  1  0
  4  5  2  0
  5  6  1  0
  6  7  2  0
  7  8  1  0
  8  9  2  0
  8 10  1  0
 10 11  1  0
 11 12  1  0
  2 13  1  0
 13 14  2  0
 14 15  1  0
 15 16  2  0
 16 17  1  0
 17 18  1  0
 18 19  2  0
 19 20  1  0
 20 21  1  6
 20 22  1  0
  9  4  1  0
 18 13  1  0
 12  7  1  0
 22 17  2  0
M  CHG  2  20   1  21  -1
M  END
>  <smiles>  (1417) 
C20723-P101

>  <fragmenstein_outcome>  (1417) 
acceptable

>  <inchikey>  (1417) 
COKNWLYJJSTVCC-UHFFFAOYSA-N

>  <fragmenstein_mode>  (1417) 
expansion

>  <HIPPO Pose ID>  (1417) 
21377

>  <Energy>  (1417) 
39.246368

>  <fragmenstein_error>  (1417) 


>  <tags>  (1417) 
{'openbind_xx01zvns2b_c1_fragmenstein', 'fragmenstein_placed'}

>  <ref_pdb>  (1417) 
175

>  <scratch_subdir>  (1417) 
/opt/xchem-fragalysis-2/maxwin/BulkDock/SCRATCH/511028/C20723-P101

>  <alias>  (1417) 
O=C(Nc1ccc2c(c1)CNC2)c1cccc2c1=N[N@H+]([O-])C=2

>  <HIPPO Compound ID>  (1417) 
42680

>  <fragmenstein_runtime>  (1417) 
1.698634

$$$$
O=C1NCc2cc(NC(=O)c3cccc4c3=N[N@@H+]([O-])C=4)ccc21
     RDKit          3D

 23 26  0  0  0  0  0  0  0  0999 V2000
   -8.5057    4.6951   -6.3111 O   0  0  0  0  0  0  0  0  0  0  0  0
   -8.6727    3.9070   -7.2226 C   0  0  0  0  0  0  0  0  0  0  0  0
   -9.0567    2.5867   -7.1415 N   0  0  0  0  0  0  0  0  0  0  0  0
   -8.9894    1.9113   -8.4207 C   0  0  0  0  0  0  0  0  0  0  0  0
   -8.6877    3.0266   -9.3644 C   0  0  0  0  0  0  0  0  0  0  0  0
   -8.5734    3.0174  -10.7458 C   0  0  0  0  0  0  0  0  0  0  0  0
   -8.2648    4.2188  -11.3950 C   0  0  0  0  0  0  0  0  0  0  0  0
   -8.1506    4.2210  -12.7837 N   0  0  0  0  0  0  0  0  0  0  0  0
   -7.8984    5.3891  -13.7710 C   0  0  0  0  0  0  0  0  0  0  0  0
   -7.8244    6.5394  -13.5800 O   0  0  0  0  0  0  0  0  0  0  0  0
   -7.8066    4.8488  -15.1576 C   0  0  0  0  0  0  0  0  0  0  0  0
   -8.8569    4.2149  -15.7187 C   0  0  0  0  0  0  0  0  0  0  0  0
   -8.9205    3.8742  -17.1337 C   0  0  0  0  0  0  0  0  0  0  0  0
   -7.9179    4.1776  -17.9733 C   0  0  0  0  0  0  0  0  0  0  0  0
   -6.7599    4.8156  -17.4400 C   0  0  0  0  0  0  0  0  0  0  0  0
   -6.6511    5.1888  -16.0202 C   0  0  0  0  0  0  0  0  0  0  0  0
   -5.5558    5.7929  -15.6808 N   0  0  0  0  0  0  0  0  0  0  0  0
   -4.7377    5.8297  -16.9190 N   0  0  1  0  0  0  0  0  0  0  0  0
   -3.6641    5.0576  -16.7109 O   0  0  0  0  0  0  0  0  0  0  0  0
   -5.5948    5.2135  -17.9453 C   0  0  0  0  0  0  0  0  0  0  0  0
   -8.0676    5.4004  -10.6533 C   0  0  0  0  0  0  0  0  0  0  0  0
   -8.1724    5.3996   -9.2592 C   0  0  0  0  0  0  0  0  0  0  0  0
   -8.4866    4.2033   -8.6481 C   0  0  0  0  0  0  0  0  0  0  0  0
  1  2  2  0
  2  3  1  0
  3  4  1  0
  4  5  1  0
  5  6  2  0
  6  7  1  0
  7  8  1  0
  8  9  1  0
  9 10  2  0
  9 11  1  0
 11 12  2  0
 12 13  1  0
 13 14  2  0
 14 15  1  0
 15 16  1  0
 16 17  2  0
 17 18  1  0
 18 19  1  1
 18 20  1  0
  7 21  2  0
 21 22  1  0
 22 23  2  0
 23  2  1  0
 23  5  1  0
 16 11  1  0
 20 15  2  0
M  CHG  2  18   1  19  -1
M  END
>  <smiles>  (1418) 
C20769-P189

>  <fragmenstein_outcome>  (1418) 
acceptable

>  <inchikey>  (1418) 
NSXYRKFTHGGMPP-UHFFFAOYSA-N

>  <fragmenstein_mode>  (1418) 
expansion

>  <HIPPO Pose ID>  (1418) 
21378

>  <Energy>  (1418) 
19.110953

>  <fragmenstein_error>  (1418) 


>  <tags>  (1418) 
{'openbind_xx01zvns2b_c1_fragmenstein', 'fragmenstein_placed'}

>  <ref_pdb>  (1418) 
175

>  <scratch_subdir>  (1418) 
/opt/xchem-fragalysis-2/maxwin/BulkDock/SCRATCH/511028/C20769-P189

>  <alias>  (1418) 
O=C1NCc2cc(NC(=O)c3cccc4c3=N[N@@H+]([O-])C=4)ccc21

>  <HIPPO Compound ID>  (1418) 
20769

>  <fragmenstein_runtime>  (1418) 
2.315152

$$$$
NCc1[nH]nc2c(C(=O)Nc3ccc4c(c3)CNC4)cc(Cl)cc12
     RDKit          3D

 24 27  0  0  0  0  0  0  0  0999 V2000
   -3.8121    5.3305  -20.0447 N   0  0  0  0  0  0  0  0  0  0  0  0
   -5.2332    5.3052  -19.7175 C   0  0  0  0  0  0  0  0  0  0  0  0
   -5.4661    5.3028  -18.2568 C   0  0  0  0  0  0  0  0  0  0  0  0
   -4.5656    5.7035  -17.3111 N   0  0  0  0  0  0  0  0  0  0  0  0
   -5.0313    5.7010  -16.0435 N   0  0  0  0  0  0  0  0  0  0  0  0
   -6.2837    5.2114  -16.1235 C   0  0  0  0  0  0  0  0  0  0  0  0
   -7.2901    4.9616  -15.1631 C   0  0  0  0  0  0  0  0  0  0  0  0
   -7.2349    5.3953  -13.7539 C   0  0  0  0  0  0  0  0  0  0  0  0
   -6.8443    6.4677  -13.5050 O   0  0  0  0  0  0  0  0  0  0  0  0
   -7.8356    4.3046  -12.8290 N   0  0  0  0  0  0  0  0  0  0  0  0
   -7.9857    4.2750  -11.4439 C   0  0  0  0  0  0  0  0  0  0  0  0
   -7.7670    5.4182  -10.6598 C   0  0  0  0  0  0  0  0  0  0  0  0
   -7.9834    5.3904   -9.2771 C   0  0  0  0  0  0  0  0  0  0  0  0
   -8.4191    4.2092   -8.7060 C   0  0  0  0  0  0  0  0  0  0  0  0
   -8.6231    3.0714   -9.4794 C   0  0  0  0  0  0  0  0  0  0  0  0
   -8.4180    3.0854  -10.8488 C   0  0  0  0  0  0  0  0  0  0  0  0
   -9.0334    1.9445   -8.5900 C   0  0  0  0  0  0  0  0  0  0  0  0
   -9.4276    2.5872   -7.3088 N   0  0  0  0  0  0  0  0  0  0  0  0
   -8.7250    3.8883   -7.2815 C   0  0  0  0  0  0  0  0  0  0  0  0
   -8.4953    4.4384  -15.6966 C   0  0  0  0  0  0  0  0  0  0  0  0
   -8.6774    4.1938  -17.0835 C   0  0  0  0  0  0  0  0  0  0  0  0
  -10.2166    3.7161  -17.6327 Cl  0  0  0  0  0  0  0  0  0  0  0  0
   -7.7141    4.4162  -18.0688 C   0  0  0  0  0  0  0  0  0  0  0  0
   -6.5545    4.9277  -17.5173 C   0  0  0  0  0  0  0  0  0  0  0  0
  1  2  1  0
  2  3  1  0
  3  4  1  0
  4  5  1  0
  5  6  2  0
  6  7  1  0
  7  8  1  0
  8  9  2  0
  8 10  1  0
 10 11  1  0
 11 12  2  0
 12 13  1  0
 13 14  2  0
 14 15  1  0
 15 16  2  0
 15 17  1  0
 17 18  1  0
 18 19  1  0
  7 20  2  0
 20 21  1  0
 21 22  1  0
 21 23  2  0
 23 24  1  0
 24  3  2  0
 24  6  1  0
 16 11  1  0
 19 14  1  0
M  END
>  <smiles>  (1419) 
C20770-P189

>  <fragmenstein_outcome>  (1419) 
acceptable

>  <inchikey>  (1419) 
SHCQODYBNOTSMA-UHFFFAOYSA-N

>  <fragmenstein_mode>  (1419) 
expansion

>  <HIPPO Pose ID>  (1419) 
21379

>  <Energy>  (1419) 
37.295156

>  <fragmenstein_error>  (1419) 


>  <tags>  (1419) 
{'openbind_xx01zvns2b_c1_fragmenstein', 'fragmenstein_placed'}

>  <ref_pdb>  (1419) 
175

>  <scratch_subdir>  (1419) 
/opt/xchem-fragalysis-2/maxwin/BulkDock/SCRATCH/511028/C20770-P189

>  <alias>  (1419) 
NCc1[nH]nc2c(C(=O)Nc3ccc4c(c3)CNC4)cc(Cl)cc12

>  <HIPPO Compound ID>  (1419) 
20513

>  <fragmenstein_runtime>  (1419) 
2.955263

$$$$
CNCc1n[nH]c2c(C(=O)Nc3ccc4c(c3)CNC4)cccc12
     RDKit          3D

 24 27  0  0  0  0  0  0  0  0999 V2000
   -3.3252    5.4539  -19.6442 C   0  0  0  0  0  0  0  0  0  0  0  0
   -4.7448    5.3464  -19.9516 N   0  0  0  0  0  0  0  0  0  0  0  0
   -5.5177    6.3475  -19.2238 C   0  0  0  0  0  0  0  0  0  0  0  0
   -5.7333    5.9384  -17.8097 C   0  0  0  0  0  0  0  0  0  0  0  0
   -4.9500    6.4373  -16.8393 N   0  0  0  0  0  0  0  0  0  0  0  0
   -5.5238    5.9872  -15.7149 N   0  0  0  0  0  0  0  0  0  0  0  0
   -6.6756    5.2754  -15.9201 C   0  0  0  0  0  0  0  0  0  0  0  0
   -7.6267    4.7994  -15.0111 C   0  0  0  0  0  0  0  0  0  0  0  0
   -7.4739    5.1825  -13.5806 C   0  0  0  0  0  0  0  0  0  0  0  0
   -6.9128    6.1834  -13.3613 O   0  0  0  0  0  0  0  0  0  0  0  0
   -8.0812    4.1450  -12.6156 N   0  0  0  0  0  0  0  0  0  0  0  0
   -8.2062    4.1639  -11.2327 C   0  0  0  0  0  0  0  0  0  0  0  0
   -7.8128    5.2942  -10.4950 C   0  0  0  0  0  0  0  0  0  0  0  0
   -7.9227    5.3170   -9.1036 C   0  0  0  0  0  0  0  0  0  0  0  0
   -8.4183    4.1927   -8.4755 C   0  0  0  0  0  0  0  0  0  0  0  0
   -8.8136    3.0783   -9.2060 C   0  0  0  0  0  0  0  0  0  0  0  0
   -8.7226    3.0441  -10.5865 C   0  0  0  0  0  0  0  0  0  0  0  0
   -9.3493    2.0462   -8.2782 C   0  0  0  0  0  0  0  0  0  0  0  0
   -9.0278    2.5198   -6.9071 N   0  0  0  0  0  0  0  0  0  0  0  0
   -8.6620    3.9467   -7.0278 C   0  0  0  0  0  0  0  0  0  0  0  0
   -8.7352    4.1311  -15.5496 C   0  0  0  0  0  0  0  0  0  0  0  0
   -8.8592    3.9422  -16.9304 C   0  0  0  0  0  0  0  0  0  0  0  0
   -7.8978    4.4473  -17.8163 C   0  0  0  0  0  0  0  0  0  0  0  0
   -6.7987    5.1509  -17.2932 C   0  0  0  0  0  0  0  0  0  0  0  0
  1  2  1  0
  2  3  1  0
  3  4  1  0
  4  5  2  0
  5  6  1  0
  6  7  1  0
  7  8  2  0
  8  9  1  0
  9 10  2  0
  9 11  1  0
 11 12  1  0
 12 13  2  0
 13 14  1  0
 14 15  2  0
 15 16  1  0
 16 17  2  0
 16 18  1  0
 18 19  1  0
 19 20  1  0
  8 21  1  0
 21 22  2  0
 22 23  1  0
 23 24  2  0
 24  4  1  0
 24  7  1  0
 17 12  1  0
 20 15  1  0
M  END
>  <smiles>  (1420) 
C20772-P189

>  <fragmenstein_outcome>  (1420) 
acceptable

>  <inchikey>  (1420) 
CUZXMFOKOAWAHT-UHFFFAOYSA-N

>  <fragmenstein_mode>  (1420) 
expansion

>  <HIPPO Pose ID>  (1420) 
21380

>  <Energy>  (1420) 
72.269137

>  <fragmenstein_error>  (1420) 


>  <tags>  (1420) 
{'openbind_xx01zvns2b_c1_fragmenstein', 'fragmenstein_placed'}

>  <ref_pdb>  (1420) 
175

>  <scratch_subdir>  (1420) 
/opt/xchem-fragalysis-2/maxwin/BulkDock/SCRATCH/511028/C20772-P189

>  <alias>  (1420) 
CNCc1n[nH]c2c(C(=O)Nc3ccc4c(c3)CNC4)cccc12

>  <HIPPO Compound ID>  (1420) 
20772

>  <fragmenstein_runtime>  (1420) 
3.785071

$$$$
CNCc1[nH]nc2c(C(=O)Nc3ccc4c(c3)CNC4)cc(Br)cc12
     RDKit          3D

 25 28  0  0  0  0  0  0  0  0999 V2000
   -4.3366    6.7916  -21.2795 C   0  0  0  0  0  0  0  0  0  0  0  0
   -4.8990    6.7104  -19.9387 N   0  0  0  0  0  0  0  0  0  0  0  0
   -4.7852    5.3523  -19.4179 C   0  0  0  0  0  0  0  0  0  0  0  0
   -5.2486    5.3468  -18.0112 C   0  0  0  0  0  0  0  0  0  0  0  0
   -4.4650    5.8073  -16.9892 N   0  0  0  0  0  0  0  0  0  0  0  0
   -5.0265    5.7325  -15.7687 N   0  0  0  0  0  0  0  0  0  0  0  0
   -6.2622    5.2422  -15.9757 C   0  0  0  0  0  0  0  0  0  0  0  0
   -7.3428    4.9930  -15.1034 C   0  0  0  0  0  0  0  0  0  0  0  0
   -7.3654    5.4463  -13.7041 C   0  0  0  0  0  0  0  0  0  0  0  0
   -7.0965    6.5598  -13.4760 O   0  0  0  0  0  0  0  0  0  0  0  0
   -7.8624    4.3211  -12.7637 N   0  0  0  0  0  0  0  0  0  0  0  0
   -8.0344    4.3075  -11.3822 C   0  0  0  0  0  0  0  0  0  0  0  0
   -7.7527    5.4447  -10.6087 C   0  0  0  0  0  0  0  0  0  0  0  0
   -7.9231    5.4293   -9.2214 C   0  0  0  0  0  0  0  0  0  0  0  0
   -8.3715    4.2635   -8.6310 C   0  0  0  0  0  0  0  0  0  0  0  0
   -8.6619    3.1406   -9.3944 C   0  0  0  0  0  0  0  0  0  0  0  0
   -8.5040    3.1421  -10.7719 C   0  0  0  0  0  0  0  0  0  0  0  0
   -9.1587    2.0528   -8.5062 C   0  0  0  0  0  0  0  0  0  0  0  0
   -8.9908    2.5428   -7.1113 N   0  0  0  0  0  0  0  0  0  0  0  0
   -8.6499    3.9781   -7.1969 C   0  0  0  0  0  0  0  0  0  0  0  0
   -8.5058    4.4843  -15.7258 C   0  0  0  0  0  0  0  0  0  0  0  0
   -8.5796    4.2648  -17.1305 C   0  0  0  0  0  0  0  0  0  0  0  0
  -10.2589    3.8750  -17.8790 Br  0  0  0  0  0  0  0  0  0  0  0  0
   -7.5278    4.4691  -18.0361 C   0  0  0  0  0  0  0  0  0  0  0  0
   -6.4077    4.9655  -17.3894 C   0  0  0  0  0  0  0  0  0  0  0  0
  1  2  1  0
  2  3  1  0
  3  4  1  0
  4  5  1  0
  5  6  1  0
  6  7  2  0
  7  8  1  0
  8  9  1  0
  9 10  2  0
  9 11  1  0
 11 12  1  0
 12 13  2  0
 13 14  1  0
 14 15  2  0
 15 16  1  0
 16 17  2  0
 16 18  1  0
 18 19  1  0
 19 20  1  0
  8 21  2  0
 21 22  1  0
 22 23  1  0
 22 24  2  0
 24 25  1  0
 25  4  2  0
 25  7  1  0
 17 12  1  0
 20 15  1  0
M  END
>  <smiles>  (1421) 
C20778-P189

>  <fragmenstein_outcome>  (1421) 
acceptable

>  <inchikey>  (1421) 
NEYXADAMJPZMSQ-UHFFFAOYSA-N

>  <fragmenstein_mode>  (1421) 
expansion

>  <HIPPO Pose ID>  (1421) 
21382

>  <Energy>  (1421) 
43.03315

>  <fragmenstein_error>  (1421) 


>  <tags>  (1421) 
{'openbind_xx01zvns2b_c1_fragmenstein', 'fragmenstein_placed'}

>  <ref_pdb>  (1421) 
175

>  <scratch_subdir>  (1421) 
/opt/xchem-fragalysis-2/maxwin/BulkDock/SCRATCH/511028/C20778-P189

>  <alias>  (1421) 
CNCc1[nH]nc2c(C(=O)Nc3ccc4c(c3)CNC4)cc(Br)cc12

>  <HIPPO Compound ID>  (1421) 
20778

>  <fragmenstein_runtime>  (1421) 
4.215776

$$$$
O=C(NCCCF)[C@](O)(Nc1ccc2c(c1)CNC2)c1cc(Cl)cc2cn[nH]c12
     RDKit          3D

 29 32  0  0  0  0  0  0  0  0999 V2000
   -6.4044    7.3679  -13.3446 O   0  0  0  0  0  0  0  0  0  0  0  0
   -6.4834    6.2060  -13.2195 C   0  0  0  0  0  0  0  0  0  0  0  0
   -5.4201    5.1658  -12.7459 N   0  0  0  0  0  0  0  0  0  0  0  0
   -4.0857    5.3572  -12.2440 C   0  0  0  0  0  0  0  0  0  0  0  0
   -4.0188    5.4829  -10.7253 C   0  0  0  0  0  0  0  0  0  0  0  0
   -4.2838    6.8948  -10.2292 C   0  0  0  0  0  0  0  0  0  0  0  0
   -5.5835    7.2260  -10.4202 F   0  0  0  0  0  0  0  0  0  0  0  0
   -7.7849    5.3573  -13.6492 C   0  0  2  0  0  0  0  0  0  0  0  0
   -8.9957    6.0906  -13.5745 O   0  0  0  0  0  0  0  0  0  0  0  0
   -7.9359    4.1592  -12.8125 N   0  0  0  0  0  0  0  0  0  0  0  0
   -8.2051    4.2042  -11.4339 C   0  0  0  0  0  0  0  0  0  0  0  0
   -8.0003    5.3340  -10.6126 C   0  0  0  0  0  0  0  0  0  0  0  0
   -8.1865    5.2996   -9.2239 C   0  0  0  0  0  0  0  0  0  0  0  0
   -8.5715    4.1107   -8.6499 C   0  0  0  0  0  0  0  0  0  0  0  0
   -8.7443    2.9751   -9.4283 C   0  0  0  0  0  0  0  0  0  0  0  0
   -8.5549    3.0012  -10.8019 C   0  0  0  0  0  0  0  0  0  0  0  0
   -9.0899    1.8295   -8.5366 C   0  0  0  0  0  0  0  0  0  0  0  0
   -9.5089    2.4556   -7.2542 N   0  0  0  0  0  0  0  0  0  0  0  0
   -8.8381    3.7720   -7.2228 C   0  0  0  0  0  0  0  0  0  0  0  0
   -7.6543    4.9410  -15.1371 C   0  0  0  0  0  0  0  0  0  0  0  0
   -8.7925    4.3948  -15.7828 C   0  0  0  0  0  0  0  0  0  0  0  0
   -8.8514    4.1797  -17.1581 C   0  0  0  0  0  0  0  0  0  0  0  0
  -10.3531    3.8027  -17.8827 Cl  0  0  0  0  0  0  0  0  0  0  0  0
   -7.7547    4.4041  -17.9756 C   0  0  0  0  0  0  0  0  0  0  0  0
   -6.5870    4.8921  -17.3823 C   0  0  0  0  0  0  0  0  0  0  0  0
   -5.3184    5.2646  -17.8740 C   0  0  0  0  0  0  0  0  0  0  0  0
   -4.5137    5.7171  -16.9131 N   0  0  0  0  0  0  0  0  0  0  0  0
   -5.2756    5.6331  -15.8099 N   0  0  0  0  0  0  0  0  0  0  0  0
   -6.5489    5.1470  -16.0093 C   0  0  0  0  0  0  0  0  0  0  0  0
  1  2  2  0
  2  3  1  0
  3  4  1  0
  4  5  1  0
  5  6  1  0
  6  7  1  0
  2  8  1  0
  8  9  1  6
  8 10  1  0
 10 11  1  0
 11 12  2  0
 12 13  1  0
 13 14  2  0
 14 15  1  0
 15 16  2  0
 15 17  1  0
 17 18  1  0
 18 19  1  0
  8 20  1  0
 20 21  2  0
 21 22  1  0
 22 23  1  0
 22 24  2  0
 24 25  1  0
 25 26  1  0
 26 27  2  0
 27 28  1  0
 28 29  1  0
 16 11  1  0
 29 20  1  0
 19 14  1  0
 29 25  2  0
M  END
>  <smiles>  (1422) 
C20781-P189

>  <fragmenstein_outcome>  (1422) 
acceptable

>  <inchikey>  (1422) 
OXJSBYVAHRLMCE-UHFFFAOYSA-N

>  <fragmenstein_mode>  (1422) 
expansion

>  <HIPPO Pose ID>  (1422) 
21383

>  <Energy>  (1422) 
90.065506

>  <fragmenstein_error>  (1422) 


>  <tags>  (1422) 
{'openbind_xx01zvns2b_c1_fragmenstein', 'fragmenstein_placed'}

>  <ref_pdb>  (1422) 
175

>  <scratch_subdir>  (1422) 
/opt/xchem-fragalysis-2/maxwin/BulkDock/SCRATCH/511028/C20781-P189

>  <alias>  (1422) 
O=C(NCCCF)[C@](O)(Nc1ccc2c(c1)CNC2)c1cc(Cl)cc2cn[nH]c12

>  <HIPPO Compound ID>  (1422) 
20781

>  <fragmenstein_runtime>  (1422) 
4.715075

$$$$
CNCc1[nH]nc2c(C(=O)Nc3cc(Br)c4c(c3)CNC4)cccc12
     RDKit          3D

 25 28  0  0  0  0  0  0  0  0999 V2000
   -1.6221    5.4369  -18.1810 C   0  0  0  0  0  0  0  0  0  0  0  0
   -2.8289    5.0968  -18.9060 N   0  0  0  0  0  0  0  0  0  0  0  0
   -3.9503    5.9908  -18.6830 C   0  0  0  0  0  0  0  0  0  0  0  0
   -4.7316    5.6776  -17.4713 C   0  0  0  0  0  0  0  0  0  0  0  0
   -4.2930    6.0304  -16.2247 N   0  0  0  0  0  0  0  0  0  0  0  0
   -5.1649    5.8027  -15.2347 N   0  0  0  0  0  0  0  0  0  0  0  0
   -6.2400    5.2605  -15.8378 C   0  0  0  0  0  0  0  0  0  0  0  0
   -7.4942    4.8702  -15.3321 C   0  0  0  0  0  0  0  0  0  0  0  0
   -7.8858    5.2630  -13.9866 C   0  0  0  0  0  0  0  0  0  0  0  0
   -8.0853    6.3961  -13.7959 O   0  0  0  0  0  0  0  0  0  0  0  0
   -7.9457    4.0635  -13.0243 N   0  0  0  0  0  0  0  0  0  0  0  0
   -8.1625    4.0169  -11.6560 C   0  0  0  0  0  0  0  0  0  0  0  0
   -8.0919    5.2155  -10.9394 C   0  0  0  0  0  0  0  0  0  0  0  0
   -8.2696    5.2309   -9.5639 C   0  0  0  0  0  0  0  0  0  0  0  0
   -8.1171    6.8695   -8.6814 Br  0  0  0  0  0  0  0  0  0  0  0  0
   -8.5603    4.0550   -8.9128 C   0  0  0  0  0  0  0  0  0  0  0  0
   -8.6469    2.8637   -9.6289 C   0  0  0  0  0  0  0  0  0  0  0  0
   -8.4229    2.8195  -10.9990 C   0  0  0  0  0  0  0  0  0  0  0  0
   -8.9731    1.7591   -8.6787 C   0  0  0  0  0  0  0  0  0  0  0  0
   -9.4242    2.4351   -7.4336 N   0  0  0  0  0  0  0  0  0  0  0  0
   -8.8062    3.7759   -7.4705 C   0  0  0  0  0  0  0  0  0  0  0  0
   -8.4071    4.3421  -16.2677 C   0  0  0  0  0  0  0  0  0  0  0  0
   -8.0859    4.2297  -17.6530 C   0  0  0  0  0  0  0  0  0  0  0  0
   -6.8516    4.6364  -18.2127 C   0  0  0  0  0  0  0  0  0  0  0  0
   -5.9732    5.1333  -17.2498 C   0  0  0  0  0  0  0  0  0  0  0  0
  1  2  1  0
  2  3  1  0
  3  4  1  0
  4  5  1  0
  5  6  1  0
  6  7  2  0
  7  8  1  0
  8  9  1  0
  9 10  2  0
  9 11  1  0
 11 12  1  0
 12 13  2  0
 13 14  1  0
 14 15  1  0
 14 16  2  0
 16 17  1  0
 17 18  2  0
 17 19  1  0
 19 20  1  0
 20 21  1  0
  8 22  2  0
 22 23  1  0
 23 24  2  0
 24 25  1  0
 25  4  2  0
 25  7  1  0
 18 12  1  0
 21 16  1  0
M  END
>  <smiles>  (1423) 
C20785-P189

>  <fragmenstein_outcome>  (1423) 
acceptable

>  <inchikey>  (1423) 
QBAHJHRLLPEXQO-UHFFFAOYSA-N

>  <fragmenstein_mode>  (1423) 
expansion

>  <HIPPO Pose ID>  (1423) 
21385

>  <Energy>  (1423) 
53.433877

>  <fragmenstein_error>  (1423) 


>  <tags>  (1423) 
{'openbind_xx01zvns2b_c1_fragmenstein', 'fragmenstein_placed'}

>  <ref_pdb>  (1423) 
175

>  <scratch_subdir>  (1423) 
/opt/xchem-fragalysis-2/maxwin/BulkDock/SCRATCH/511028/C20785-P189

>  <alias>  (1423) 
CNCc1[nH]nc2c(C(=O)Nc3cc(Br)c4c(c3)CNC4)cccc12

>  <HIPPO Compound ID>  (1423) 
20785

>  <fragmenstein_runtime>  (1423) 
3.681965

$$$$
O=C(Nc1ccc2c(c1)CNC2)c1cc(Cl)cc2c1NC1(CCNCC1)C2
     RDKit          3D

 27 31  0  0  0  0  0  0  0  0999 V2000
   -6.9432    6.4775  -13.5388 O   0  0  0  0  0  0  0  0  0  0  0  0
   -7.3389    5.4021  -13.7743 C   0  0  0  0  0  0  0  0  0  0  0  0
   -7.9409    4.3259  -12.8364 N   0  0  0  0  0  0  0  0  0  0  0  0
   -8.0881    4.3130  -11.4503 C   0  0  0  0  0  0  0  0  0  0  0  0
   -7.8003    5.4544  -10.6847 C   0  0  0  0  0  0  0  0  0  0  0  0
   -7.9432    5.4415   -9.2940 C   0  0  0  0  0  0  0  0  0  0  0  0
   -8.3719    4.2744   -8.6912 C   0  0  0  0  0  0  0  0  0  0  0  0
   -8.6688    3.1471   -9.4455 C   0  0  0  0  0  0  0  0  0  0  0  0
   -8.5382    3.1465  -10.8266 C   0  0  0  0  0  0  0  0  0  0  0  0
   -9.1402    2.0580   -8.5443 C   0  0  0  0  0  0  0  0  0  0  0  0
   -8.9686    2.5606   -7.1543 N   0  0  0  0  0  0  0  0  0  0  0  0
   -8.6236    3.9935   -7.2512 C   0  0  0  0  0  0  0  0  0  0  0  0
   -7.3595    4.9677  -15.1967 C   0  0  0  0  0  0  0  0  0  0  0  0
   -8.5092    4.4005  -15.7568 C   0  0  0  0  0  0  0  0  0  0  0  0
   -8.5598    4.1656  -17.1375 C   0  0  0  0  0  0  0  0  0  0  0  0
   -9.9933    3.5656  -17.8362 Cl  0  0  0  0  0  0  0  0  0  0  0  0
   -7.4932    4.4730  -17.9756 C   0  0  0  0  0  0  0  0  0  0  0  0
   -6.3690    5.0312  -17.4043 C   0  0  0  0  0  0  0  0  0  0  0  0
   -6.2945    5.2855  -16.0368 C   0  0  0  0  0  0  0  0  0  0  0  0
   -5.0241    5.7812  -15.6562 N   0  0  0  0  0  0  0  0  0  0  0  0
   -4.3899    6.2260  -16.9277 C   0  0  0  0  0  0  0  0  0  0  0  0
   -2.8927    5.8615  -16.8902 C   0  0  0  0  0  0  0  0  0  0  0  0
   -2.0642    7.0103  -16.3286 C   0  0  0  0  0  0  0  0  0  0  0  0
   -2.1475    8.2183  -17.1562 N   0  0  0  0  0  0  0  0  0  0  0  0
   -3.4306    8.3878  -17.8343 C   0  0  0  0  0  0  0  0  0  0  0  0
   -4.5937    7.7541  -17.0813 C   0  0  0  0  0  0  0  0  0  0  0  0
   -5.1020    5.4390  -18.0717 C   0  0  0  0  0  0  0  0  0  0  0  0
  1  2  2  0
  2  3  1  0
  3  4  1  0
  4  5  2  0
  5  6  1  0
  6  7  2  0
  7  8  1  0
  8  9  2  0
  8 10  1  0
 10 11  1  0
 11 12  1  0
  2 13  1  0
 13 14  2  0
 14 15  1  0
 15 16  1  0
 15 17  2  0
 17 18  1  0
 18 19  2  0
 19 20  1  0
 20 21  1  0
 21 22  1  0
 22 23  1  0
 23 24  1  0
 24 25  1  0
 25 26  1  0
 21 27  1  0
  9  4  1  0
 19 13  1  0
 26 21  1  0
 12  7  1  0
 27 18  1  0
M  END
>  <smiles>  (1424) 
C20790-P189

>  <fragmenstein_outcome>  (1424) 
acceptable

>  <inchikey>  (1424) 
CMIPRQMYSUVHEC-UHFFFAOYSA-N

>  <fragmenstein_mode>  (1424) 
expansion

>  <HIPPO Pose ID>  (1424) 
21386

>  <Energy>  (1424) 
73.084571

>  <fragmenstein_error>  (1424) 


>  <tags>  (1424) 
{'openbind_xx01zvns2b_c1_fragmenstein', 'fragmenstein_placed'}

>  <ref_pdb>  (1424) 
175

>  <scratch_subdir>  (1424) 
/opt/xchem-fragalysis-2/maxwin/BulkDock/SCRATCH/511028/C20790-P189

>  <alias>  (1424) 
O=C(Nc1ccc2c(c1)CNC2)c1cc(Cl)cc2c1NC1(CCNCC1)C2

>  <HIPPO Compound ID>  (1424) 
20790

>  <fragmenstein_runtime>  (1424) 
2.803731

$$$$
CN(Cc1n[nH]c2c(C(=O)Nc3ccc4c(c3)CNC4)cccc12)C1CCOCC1
     RDKit          3D

 30 34  0  0  0  0  0  0  0  0999 V2000
   -5.1373    6.2488  -21.5402 C   0  0  0  0  0  0  0  0  0  0  0  0
   -5.4208    6.4481  -20.1136 N   0  0  0  0  0  0  0  0  0  0  0  0
   -5.2970    5.1469  -19.4240 C   0  0  0  0  0  0  0  0  0  0  0  0
   -5.7306    5.2023  -17.9920 C   0  0  0  0  0  0  0  0  0  0  0  0
   -4.8992    5.6380  -17.0271 N   0  0  0  0  0  0  0  0  0  0  0  0
   -5.6435    5.5743  -15.9135 N   0  0  0  0  0  0  0  0  0  0  0  0
   -6.8725    5.0073  -16.1002 C   0  0  0  0  0  0  0  0  0  0  0  0
   -7.8949    4.7135  -15.1969 C   0  0  0  0  0  0  0  0  0  0  0  0
   -7.7665    5.1662  -13.7916 C   0  0  0  0  0  0  0  0  0  0  0  0
   -7.3317    6.2358  -13.6141 O   0  0  0  0  0  0  0  0  0  0  0  0
   -8.3016    4.1240  -12.7866 N   0  0  0  0  0  0  0  0  0  0  0  0
   -8.3260    4.1393  -11.3961 C   0  0  0  0  0  0  0  0  0  0  0  0
   -7.9765    5.2938  -10.6747 C   0  0  0  0  0  0  0  0  0  0  0  0
   -8.0583    5.3189   -9.2787 C   0  0  0  0  0  0  0  0  0  0  0  0
   -8.4799    4.1735   -8.6321 C   0  0  0  0  0  0  0  0  0  0  0  0
   -8.7868    3.0184   -9.3447 C   0  0  0  0  0  0  0  0  0  0  0  0
   -8.7263    2.9840  -10.7259 C   0  0  0  0  0  0  0  0  0  0  0  0
   -9.1272    1.9305   -8.3829 C   0  0  0  0  0  0  0  0  0  0  0  0
   -9.4168    2.6305   -7.1044 N   0  0  0  0  0  0  0  0  0  0  0  0
   -8.6810    3.9115   -7.1774 C   0  0  0  0  0  0  0  0  0  0  0  0
   -9.0466    4.1129  -15.7163 C   0  0  0  0  0  0  0  0  0  0  0  0
   -9.1759    3.8654  -17.0854 C   0  0  0  0  0  0  0  0  0  0  0  0
   -8.1467    4.1914  -17.9728 C   0  0  0  0  0  0  0  0  0  0  0  0
   -6.9687    4.7605  -17.4608 C   0  0  0  0  0  0  0  0  0  0  0  0
   -4.5846    7.5311  -19.5190 C   0  0  0  0  0  0  0  0  0  0  0  0
   -4.7472    8.8821  -20.2371 C   0  0  0  0  0  0  0  0  0  0  0  0
   -4.0500    9.9970  -19.4561 C   0  0  0  0  0  0  0  0  0  0  0  0
   -2.9546    9.5434  -18.6649 O   0  0  0  0  0  0  0  0  0  0  0  0
   -2.2288    8.4908  -19.2847 C   0  0  0  0  0  0  0  0  0  0  0  0
   -3.0755    7.2233  -19.3760 C   0  0  0  0  0  0  0  0  0  0  0  0
  1  2  1  0
  2  3  1  0
  3  4  1  0
  4  5  2  0
  5  6  1  0
  6  7  1  0
  7  8  2  0
  8  9  1  0
  9 10  2  0
  9 11  1  0
 11 12  1  0
 12 13  2  0
 13 14  1  0
 14 15  2  0
 15 16  1  0
 16 17  2  0
 16 18  1  0
 18 19  1  0
 19 20  1  0
  8 21  1  0
 21 22  2  0
 22 23  1  0
 23 24  2  0
  2 25  1  0
 25 26  1  0
 26 27  1  0
 27 28  1  0
 28 29  1  0
 29 30  1  0
 24  4  1  0
 30 25  1  0
 24  7  1  0
 17 12  1  0
 20 15  1  0
M  END
>  <smiles>  (1425) 
C20791-P189

>  <fragmenstein_outcome>  (1425) 
acceptable

>  <inchikey>  (1425) 
LBEXLNHYCJKNPE-UHFFFAOYSA-N

>  <fragmenstein_mode>  (1425) 
expansion

>  <HIPPO Pose ID>  (1425) 
21387

>  <Energy>  (1425) 
92.789094

>  <fragmenstein_error>  (1425) 


>  <tags>  (1425) 
{'openbind_xx01zvns2b_c1_fragmenstein', 'fragmenstein_placed'}

>  <ref_pdb>  (1425) 
175

>  <scratch_subdir>  (1425) 
/opt/xchem-fragalysis-2/maxwin/BulkDock/SCRATCH/511028/C20791-P189

>  <alias>  (1425) 
CN(Cc1n[nH]c2c(C(=O)Nc3ccc4c(c3)CNC4)cccc12)C1CCOCC1

>  <HIPPO Compound ID>  (1425) 
30708

>  <fragmenstein_runtime>  (1425) 
7.956731

$$$$
CNCc1[nH]nc2c(C(=O)Nc3ccc4c(c3)CN(C)[C@@H]4C)cc(Cl)cc12
     RDKit          3D

 27 30  0  0  0  0  0  0  0  0999 V2000
   -4.9051    6.8064  -21.2825 C   0  0  0  0  0  0  0  0  0  0  0  0
   -5.4478    6.6862  -19.9319 N   0  0  0  0  0  0  0  0  0  0  0  0
   -4.8613    5.5318  -19.2563 C   0  0  0  0  0  0  0  0  0  0  0  0
   -5.3313    5.4875  -17.8522 C   0  0  0  0  0  0  0  0  0  0  0  0
   -4.5900    5.9886  -16.8205 N   0  0  0  0  0  0  0  0  0  0  0  0
   -5.1401    5.8372  -15.6047 N   0  0  0  0  0  0  0  0  0  0  0  0
   -6.3486    5.2895  -15.8176 C   0  0  0  0  0  0  0  0  0  0  0  0
   -7.4183    4.9726  -14.9472 C   0  0  0  0  0  0  0  0  0  0  0  0
   -7.4561    5.4094  -13.5337 C   0  0  0  0  0  0  0  0  0  0  0  0
   -7.1371    6.5081  -13.2944 O   0  0  0  0  0  0  0  0  0  0  0  0
   -8.0131    4.2991  -12.6038 N   0  0  0  0  0  0  0  0  0  0  0  0
   -8.1965    4.2830  -11.2167 C   0  0  0  0  0  0  0  0  0  0  0  0
   -7.9755    5.4326  -10.4416 C   0  0  0  0  0  0  0  0  0  0  0  0
   -8.1131    5.4041   -9.0465 C   0  0  0  0  0  0  0  0  0  0  0  0
   -8.4830    4.2168   -8.4384 C   0  0  0  0  0  0  0  0  0  0  0  0
   -8.7215    3.0816   -9.2072 C   0  0  0  0  0  0  0  0  0  0  0  0
   -8.5887    3.0952  -10.5927 C   0  0  0  0  0  0  0  0  0  0  0  0
   -9.0601    1.9316   -8.3128 C   0  0  0  0  0  0  0  0  0  0  0  0
   -9.0834    2.4766   -6.9336 N   0  0  0  0  0  0  0  0  0  0  0  0
  -10.3361    2.2199   -6.2530 C   0  0  0  0  0  0  0  0  0  0  0  0
   -8.5885    3.8691   -6.9782 C   0  0  2  0  0  0  0  0  0  0  0  0
   -9.3147    4.9082   -6.1225 C   0  0  0  0  0  0  0  0  0  0  0  0
   -8.5385    4.3973  -15.5909 C   0  0  0  0  0  0  0  0  0  0  0  0
   -8.5816    4.1769  -17.0021 C   0  0  0  0  0  0  0  0  0  0  0  0
  -10.0406    3.6205  -17.7053 Cl  0  0  0  0  0  0  0  0  0  0  0  0
   -7.5451    4.4683  -17.9012 C   0  0  0  0  0  0  0  0  0  0  0  0
   -6.4669    5.0258  -17.2386 C   0  0  0  0  0  0  0  0  0  0  0  0
  1  2  1  0
  2  3  1  0
  3  4  1  0
  4  5  1  0
  5  6  1  0
  6  7  2  0
  7  8  1  0
  8  9  1  0
  9 10  2  0
  9 11  1  0
 11 12  1  0
 12 13  2  0
 13 14  1  0
 14 15  2  0
 15 16  1  0
 16 17  2  0
 16 18  1  0
 18 19  1  0
 19 20  1  0
 19 21  1  0
 21 22  1  1
  8 23  2  0
 23 24  1  0
 24 25  1  0
 24 26  2  0
 26 27  1  0
 27  4  2  0
 27  7  1  0
 17 12  1  0
 21 15  1  0
M  END
>  <smiles>  (1426) 
C20803-P189

>  <fragmenstein_outcome>  (1426) 
acceptable

>  <inchikey>  (1426) 
DXEYMFXKFZMTFG-UHFFFAOYSA-N

>  <fragmenstein_mode>  (1426) 
expansion

>  <HIPPO Pose ID>  (1426) 
21388

>  <Energy>  (1426) 
56.064865

>  <fragmenstein_error>  (1426) 


>  <tags>  (1426) 
{'openbind_xx01zvns2b_c1_fragmenstein', 'fragmenstein_placed'}

>  <ref_pdb>  (1426) 
175

>  <scratch_subdir>  (1426) 
/opt/xchem-fragalysis-2/maxwin/BulkDock/SCRATCH/511028/C20803-P189

>  <alias>  (1426) 
CNCc1[nH]nc2c(C(=O)Nc3ccc4c(c3)CN(C)[C@@H]4C)cc(Cl)cc12

>  <HIPPO Compound ID>  (1426) 
20803

>  <fragmenstein_runtime>  (1426) 
4.652367

$$$$
O=Cc1cc2c(c(C(=O)Nc3ccc4c(c3)CNC4)c1)NC1(CCCCC1)C2
     RDKit          3D

 28 32  0  0  0  0  0  0  0  0999 V2000
  -10.6717    3.5595  -17.6670 O   0  0  0  0  0  0  0  0  0  0  0  0
   -9.6170    3.8770  -18.1927 C   0  0  0  0  0  0  0  0  0  0  0  0
   -8.4403    4.2528  -17.4050 C   0  0  0  0  0  0  0  0  0  0  0  0
   -7.2843    4.5313  -18.1306 C   0  0  0  0  0  0  0  0  0  0  0  0
   -6.2037    5.0390  -17.4469 C   0  0  0  0  0  0  0  0  0  0  0  0
   -6.2508    5.2749  -16.0779 C   0  0  0  0  0  0  0  0  0  0  0  0
   -7.3980    4.9727  -15.3417 C   0  0  0  0  0  0  0  0  0  0  0  0
   -7.4845    5.4190  -13.9253 C   0  0  0  0  0  0  0  0  0  0  0  0
   -7.1601    6.5175  -13.6881 O   0  0  0  0  0  0  0  0  0  0  0  0
   -8.0231    4.3080  -12.9913 N   0  0  0  0  0  0  0  0  0  0  0  0
   -8.1801    4.2865  -11.6031 C   0  0  0  0  0  0  0  0  0  0  0  0
   -7.9486    5.4411  -10.8361 C   0  0  0  0  0  0  0  0  0  0  0  0
   -8.0681    5.4185   -9.4421 C   0  0  0  0  0  0  0  0  0  0  0  0
   -8.4259    4.2299   -8.8346 C   0  0  0  0  0  0  0  0  0  0  0  0
   -8.6687    3.0887   -9.5876 C   0  0  0  0  0  0  0  0  0  0  0  0
   -8.5522    3.0965  -10.9719 C   0  0  0  0  0  0  0  0  0  0  0  0
   -9.0153    1.9603   -8.6757 C   0  0  0  0  0  0  0  0  0  0  0  0
   -9.1289    2.5455   -7.3131 N   0  0  0  0  0  0  0  0  0  0  0  0
   -8.6049    3.9235   -7.3879 C   0  0  0  0  0  0  0  0  0  0  0  0
   -8.5089    4.4415  -16.0103 C   0  0  0  0  0  0  0  0  0  0  0  0
   -5.0168    5.7466  -15.5796 N   0  0  0  0  0  0  0  0  0  0  0  0
   -4.2013    6.0946  -16.7702 C   0  0  0  0  0  0  0  0  0  0  0  0
   -4.1333    7.6313  -16.9155 C   0  0  0  0  0  0  0  0  0  0  0  0
   -3.1066    8.0917  -17.9521 C   0  0  0  0  0  0  0  0  0  0  0  0
   -1.7291    7.4905  -17.6950 C   0  0  0  0  0  0  0  0  0  0  0  0
   -1.7886    5.9711  -17.6063 C   0  0  0  0  0  0  0  0  0  0  0  0
   -2.7881    5.5246  -16.5440 C   0  0  0  0  0  0  0  0  0  0  0  0
   -4.8835    5.4357  -18.0062 C   0  0  0  0  0  0  0  0  0  0  0  0
  1  2  2  0
  2  3  1  0
  3  4  2  0
  4  5  1  0
  5  6  2  0
  6  7  1  0
  7  8  1  0
  8  9  2  0
  8 10  1  0
 10 11  1  0
 11 12  2  0
 12 13  1  0
 13 14  2  0
 14 15  1  0
 15 16  2  0
 15 17  1  0
 17 18  1  0
 18 19  1  0
  7 20  2  0
  6 21  1  0
 21 22  1  0
 22 23  1  0
 23 24  1  0
 24 25  1  0
 25 26  1  0
 26 27  1  0
 22 28  1  0
 20  3  1  0
 27 22  1  0
 28  5  1  0
 16 11  1  0
 19 14  1  0
M  END
>  <smiles>  (1427) 
C20812-P189

>  <fragmenstein_outcome>  (1427) 
acceptable

>  <inchikey>  (1427) 
ZAIXXZMNWBUORE-UHFFFAOYSA-N

>  <fragmenstein_mode>  (1427) 
expansion

>  <HIPPO Pose ID>  (1427) 
21389

>  <Energy>  (1427) 
96.564774

>  <fragmenstein_error>  (1427) 


>  <tags>  (1427) 
{'openbind_xx01zvns2b_c1_fragmenstein', 'fragmenstein_placed'}

>  <ref_pdb>  (1427) 
175

>  <scratch_subdir>  (1427) 
/opt/xchem-fragalysis-2/maxwin/BulkDock/SCRATCH/511028/C20812-P189

>  <alias>  (1427) 
O=Cc1cc2c(c(C(=O)Nc3ccc4c(c3)CNC4)c1)NC1(CCCCC1)C2

>  <HIPPO Compound ID>  (1427) 
24141

>  <fragmenstein_runtime>  (1427) 
3.869428

$$$$
O=C(Nc1ccc2c(c1)CNC2)c1cccc2c(NC3CCC3)[nH]nc12
     RDKit          3D

 26 30  0  0  0  0  0  0  0  0999 V2000
   -7.3750    6.3931  -13.7000 O   0  0  0  0  0  0  0  0  0  0  0  0
   -7.5764    5.2566  -13.8761 C   0  0  0  0  0  0  0  0  0  0  0  0
   -7.8673    4.1224  -12.8667 N   0  0  0  0  0  0  0  0  0  0  0  0
   -8.0581    4.1656  -11.4880 C   0  0  0  0  0  0  0  0  0  0  0  0
   -7.8963    5.3574  -10.7638 C   0  0  0  0  0  0  0  0  0  0  0  0
   -8.0978    5.3877   -9.3795 C   0  0  0  0  0  0  0  0  0  0  0  0
   -8.4687    4.2158   -8.7479 C   0  0  0  0  0  0  0  0  0  0  0  0
   -8.6280    3.0340   -9.4641 C   0  0  0  0  0  0  0  0  0  0  0  0
   -8.4238    2.9881  -10.8321 C   0  0  0  0  0  0  0  0  0  0  0  0
   -8.9877    1.9344   -8.5206 C   0  0  0  0  0  0  0  0  0  0  0  0
   -9.3907    2.6226   -7.2643 N   0  0  0  0  0  0  0  0  0  0  0  0
   -8.7308    3.9447   -7.3051 C   0  0  0  0  0  0  0  0  0  0  0  0
   -7.6795    4.7640  -15.2587 C   0  0  0  0  0  0  0  0  0  0  0  0
   -8.8746    4.1799  -15.7483 C   0  0  0  0  0  0  0  0  0  0  0  0
   -9.1010    3.9006  -17.1291 C   0  0  0  0  0  0  0  0  0  0  0  0
   -8.1647    4.1758  -18.1413 C   0  0  0  0  0  0  0  0  0  0  0  0
   -6.9908    4.7205  -17.6261 C   0  0  0  0  0  0  0  0  0  0  0  0
   -5.9180    5.1398  -18.3665 C   0  0  0  0  0  0  0  0  0  0  0  0
   -5.7161    5.2483  -19.7043 N   0  0  0  0  0  0  0  0  0  0  0  0
   -4.4962    5.6047  -20.3652 C   0  0  0  0  0  0  0  0  0  0  0  0
   -4.6867    6.0811  -21.8239 C   0  0  0  0  0  0  0  0  0  0  0  0
   -4.6793    7.5319  -21.3265 C   0  0  0  0  0  0  0  0  0  0  0  0
   -3.9897    7.0376  -20.0482 C   0  0  0  0  0  0  0  0  0  0  0  0
   -4.9952    5.5036  -17.4214 N   0  0  0  0  0  0  0  0  0  0  0  0
   -5.4476    5.5101  -16.1545 N   0  0  0  0  0  0  0  0  0  0  0  0
   -6.6966    5.0112  -16.2362 C   0  0  0  0  0  0  0  0  0  0  0  0
  1  2  2  0
  2  3  1  0
  3  4  1  0
  4  5  2  0
  5  6  1  0
  6  7  2  0
  7  8  1  0
  8  9  2  0
  8 10  1  0
 10 11  1  0
 11 12  1  0
  2 13  1  0
 13 14  2  0
 14 15  1  0
 15 16  2  0
 16 17  1  0
 17 18  2  0
 18 19  1  0
 19 20  1  0
 20 21  1  0
 21 22  1  0
 22 23  1  0
 18 24  1  0
 24 25  1  0
 25 26  2  0
  9  4  1  0
 26 13  1  0
 12  7  1  0
 26 17  1  0
 23 20  1  0
M  END
>  <smiles>  (1428) 
C20813-P189

>  <fragmenstein_outcome>  (1428) 
acceptable

>  <inchikey>  (1428) 
SRGHSPJNCBTSMW-UHFFFAOYSA-N

>  <fragmenstein_mode>  (1428) 
expansion

>  <HIPPO Pose ID>  (1428) 
21390

>  <Energy>  (1428) 
107.034364

>  <fragmenstein_error>  (1428) 


>  <tags>  (1428) 
{'openbind_xx01zvns2b_c1_fragmenstein', 'fragmenstein_placed'}

>  <ref_pdb>  (1428) 
175

>  <scratch_subdir>  (1428) 
/opt/xchem-fragalysis-2/maxwin/BulkDock/SCRATCH/511028/C20813-P189

>  <alias>  (1428) 
O=C(Nc1ccc2c(c1)CNC2)c1cccc2c(NC3CCC3)[nH]nc12

>  <HIPPO Compound ID>  (1428) 
20813

>  <fragmenstein_runtime>  (1428) 
4.127378

$$$$
O=C(Nc1ccc2c(c1)CNC2)c1cc(Cl)cc2cn(CC3CNC3)nc12
     RDKit          3D

 27 31  0  0  0  0  0  0  0  0999 V2000
   -7.2323    6.5890  -13.2891 O   0  0  0  0  0  0  0  0  0  0  0  0
   -7.4478    5.4679  -13.5387 C   0  0  0  0  0  0  0  0  0  0  0  0
   -7.9176    4.3074  -12.6242 N   0  0  0  0  0  0  0  0  0  0  0  0
   -8.1210    4.2662  -11.2412 C   0  0  0  0  0  0  0  0  0  0  0  0
   -7.9643    5.4106  -10.4416 C   0  0  0  0  0  0  0  0  0  0  0  0
   -8.1473    5.3533   -9.0527 C   0  0  0  0  0  0  0  0  0  0  0  0
   -8.5049    4.1443   -8.4857 C   0  0  0  0  0  0  0  0  0  0  0  0
   -8.6793    3.0147   -9.2752 C   0  0  0  0  0  0  0  0  0  0  0  0
   -8.4860    3.0529  -10.6497 C   0  0  0  0  0  0  0  0  0  0  0  0
   -9.0362    1.8570   -8.4055 C   0  0  0  0  0  0  0  0  0  0  0  0
   -9.3083    2.4290   -7.0624 N   0  0  0  0  0  0  0  0  0  0  0  0
   -8.7434    3.7914   -7.0560 C   0  0  0  0  0  0  0  0  0  0  0  0
   -7.3682    5.0396  -14.9508 C   0  0  0  0  0  0  0  0  0  0  0  0
   -8.4521    4.4149  -15.6126 C   0  0  0  0  0  0  0  0  0  0  0  0
   -8.4566    4.1774  -17.0232 C   0  0  0  0  0  0  0  0  0  0  0  0
   -9.8724    3.5267  -17.7388 Cl  0  0  0  0  0  0  0  0  0  0  0  0
   -7.4118    4.5007  -17.9026 C   0  0  0  0  0  0  0  0  0  0  0  0
   -6.3729    5.0977  -17.2147 C   0  0  0  0  0  0  0  0  0  0  0  0
   -5.2305    5.5591  -17.8022 C   0  0  0  0  0  0  0  0  0  0  0  0
   -4.5194    6.0968  -16.7737 N   0  0  0  0  0  0  0  0  0  0  0  0
   -3.2415    6.7846  -16.8788 C   0  0  0  0  0  0  0  0  0  0  0  0
   -2.1086    5.9683  -16.2998 C   0  0  0  0  0  0  0  0  0  0  0  0
   -0.7388    6.6702  -16.2486 C   0  0  0  0  0  0  0  0  0  0  0  0
   -0.5110    6.0590  -14.9215 N   0  0  0  0  0  0  0  0  0  0  0  0
   -1.9791    5.9177  -14.7629 C   0  0  0  0  0  0  0  0  0  0  0  0
   -5.1174    6.0001  -15.5695 N   0  0  0  0  0  0  0  0  0  0  0  0
   -6.2943    5.3886  -15.7997 C   0  0  0  0  0  0  0  0  0  0  0  0
  1  2  2  0
  2  3  1  0
  3  4  1  0
  4  5  2  0
  5  6  1  0
  6  7  2  0
  7  8  1  0
  8  9  2  0
  8 10  1  0
 10 11  1  0
 11 12  1  0
  2 13  1  0
 13 14  2  0
 14 15  1  0
 15 16  1  0
 15 17  2  0
 17 18  1  0
 18 19  2  0
 19 20  1  0
 20 21  1  0
 21 22  1  0
 22 23  1  0
 23 24  1  0
 24 25  1  0
 20 26  1  0
 26 27  2  0
  9  4  1  0
 27 13  1  0
 12  7  1  0
 27 18  1  0
 25 22  1  0
M  END
>  <smiles>  (1429) 
C20798-P189

>  <fragmenstein_outcome>  (1429) 
acceptable

>  <inchikey>  (1429) 
SRGWHDHJNIHJSV-UHFFFAOYSA-N

>  <fragmenstein_mode>  (1429) 
expansion

>  <HIPPO Pose ID>  (1429) 
21391

>  <Energy>  (1429) 
60.439005

>  <fragmenstein_error>  (1429) 


>  <tags>  (1429) 
{'openbind_xx01zvns2b_c1_fragmenstein', 'fragmenstein_placed'}

>  <ref_pdb>  (1429) 
175

>  <scratch_subdir>  (1429) 
/opt/xchem-fragalysis-2/maxwin/BulkDock/SCRATCH/511028/C20798-P189

>  <alias>  (1429) 
O=C(Nc1ccc2c(c1)CNC2)c1cc(Cl)cc2cn(CC3CNC3)nc12

>  <HIPPO Compound ID>  (1429) 
20798

>  <fragmenstein_runtime>  (1429) 
4.004799

$$$$
NCn1cnc2c([C@H](Nc3ccc4c(c3)CNC4)C(=O)NCC(F)F)cc(Br)cc21
     RDKit          3D

 30 33  0  0  0  0  0  0  0  0999 V2000
   -5.7795    4.5801  -20.0538 N   0  0  0  0  0  0  0  0  0  0  0  0
   -5.2373    5.6379  -19.2243 C   0  0  0  0  0  0  0  0  0  0  0  0
   -5.5004    5.3705  -17.8227 N   0  0  0  0  0  0  0  0  0  0  0  0
   -4.6180    5.5681  -16.7984 C   0  0  0  0  0  0  0  0  0  0  0  0
   -5.1685    5.3250  -15.6294 N   0  0  0  0  0  0  0  0  0  0  0  0
   -6.4679    4.9591  -15.9060 C   0  0  0  0  0  0  0  0  0  0  0  0
   -7.5189    4.6295  -15.0195 C   0  0  0  0  0  0  0  0  0  0  0  0
   -7.2962    4.6949  -13.5133 C   0  0  2  0  0  0  0  0  0  0  0  0
   -8.5465    4.3685  -12.7796 N   0  0  0  0  0  0  0  0  0  0  0  0
   -8.4736    4.3024  -11.3744 C   0  0  0  0  0  0  0  0  0  0  0  0
   -8.2704    5.4549  -10.5907 C   0  0  0  0  0  0  0  0  0  0  0  0
   -8.2752    5.4045   -9.1931 C   0  0  0  0  0  0  0  0  0  0  0  0
   -8.5386    4.1925   -8.5905 C   0  0  0  0  0  0  0  0  0  0  0  0
   -8.7399    3.0454   -9.3487 C   0  0  0  0  0  0  0  0  0  0  0  0
   -8.6913    3.0765  -10.7310 C   0  0  0  0  0  0  0  0  0  0  0  0
   -9.0225    1.9005   -8.4347 C   0  0  0  0  0  0  0  0  0  0  0  0
   -9.3675    2.5318   -7.1330 N   0  0  0  0  0  0  0  0  0  0  0  0
   -8.7099    3.8565   -7.1483 C   0  0  0  0  0  0  0  0  0  0  0  0
   -6.7313    6.1324  -13.1447 C   0  0  0  0  0  0  0  0  0  0  0  0
   -7.2390    7.1229  -13.5116 O   0  0  0  0  0  0  0  0  0  0  0  0
   -5.4319    5.9125  -12.3068 N   0  0  0  0  0  0  0  0  0  0  0  0
   -4.5516    6.8674  -11.6736 C   0  0  0  0  0  0  0  0  0  0  0  0
   -5.2493    7.8733  -10.7637 C   0  0  0  0  0  0  0  0  0  0  0  0
   -5.5782    7.2819   -9.5856 F   0  0  0  0  0  0  0  0  0  0  0  0
   -4.3757    8.8694  -10.4518 F   0  0  0  0  0  0  0  0  0  0  0  0
   -8.7542    4.2689  -15.6137 C   0  0  0  0  0  0  0  0  0  0  0  0
   -8.9222    4.2702  -16.9939 C   0  0  0  0  0  0  0  0  0  0  0  0
  -10.5757    3.9666  -17.8103 Br  0  0  0  0  0  0  0  0  0  0  0  0
   -7.9018    4.6254  -17.8508 C   0  0  0  0  0  0  0  0  0  0  0  0
   -6.6877    4.9648  -17.2761 C   0  0  0  0  0  0  0  0  0  0  0  0
  1  2  1  0
  2  3  1  0
  3  4  1  0
  4  5  2  0
  5  6  1  0
  6  7  2  0
  7  8  1  0
  8  9  1  1
  9 10  1  0
 10 11  2  0
 11 12  1  0
 12 13  2  0
 13 14  1  0
 14 15  2  0
 14 16  1  0
 16 17  1  0
 17 18  1  0
  8 19  1  0
 19 20  2  0
 19 21  1  0
 21 22  1  0
 22 23  1  0
 23 24  1  0
 23 25  1  0
  7 26  1  0
 26 27  2  0
 27 28  1  0
 27 29  1  0
 29 30  2  0
 30  3  1  0
 30  6  1  0
 15 10  1  0
 18 13  1  0
M  END
>  <smiles>  (1430) 
C20849-P189

>  <fragmenstein_outcome>  (1430) 
acceptable

>  <inchikey>  (1430) 
XVLDTRBSPPSAJD-UHFFFAOYSA-N

>  <fragmenstein_mode>  (1430) 
expansion

>  <HIPPO Pose ID>  (1430) 
21399

>  <Energy>  (1430) 
130.823156

>  <fragmenstein_error>  (1430) 


>  <tags>  (1430) 
{'openbind_xx01zvns2b_c1_fragmenstein', 'fragmenstein_placed'}

>  <ref_pdb>  (1430) 
175

>  <scratch_subdir>  (1430) 
/opt/xchem-fragalysis-2/maxwin/BulkDock/SCRATCH/511028/C20849-P189

>  <alias>  (1430) 
NCn1cnc2c([C@H](Nc3ccc4c(c3)CNC4)C(=O)NCC(F)F)cc(Br)cc21

>  <HIPPO Compound ID>  (1430) 
20849

>  <fragmenstein_runtime>  (1430) 
5.877657

$$$$
O=C(NCC(F)F)[C@@H](Nc1ccc2c(c1)CNC2)c1cc(Br)cc2nc[nH]c12
     RDKit          3D

 28 31  0  0  0  0  0  0  0  0999 V2000
   -5.9993    6.6369  -13.1545 O   0  0  0  0  0  0  0  0  0  0  0  0
   -6.1526    5.5312  -12.8012 C   0  0  0  0  0  0  0  0  0  0  0  0
   -5.3908    4.7007  -11.7221 N   0  0  0  0  0  0  0  0  0  0  0  0
   -4.3526    5.0933  -10.7968 C   0  0  0  0  0  0  0  0  0  0  0  0
   -2.9557    4.9765  -11.4018 C   0  0  0  0  0  0  0  0  0  0  0  0
   -2.8822    5.6501  -12.5796 F   0  0  0  0  0  0  0  0  0  0  0  0
   -2.6826    3.6752  -11.6848 F   0  0  0  0  0  0  0  0  0  0  0  0
   -7.1813    4.5430  -13.4783 C   0  0  1  0  0  0  0  0  0  0  0  0
   -8.5279    4.5931  -12.8449 N   0  0  0  0  0  0  0  0  0  0  0  0
   -8.5325    4.5033  -11.4353 C   0  0  0  0  0  0  0  0  0  0  0  0
   -8.3295    5.6621  -10.6579 C   0  0  0  0  0  0  0  0  0  0  0  0
   -8.3211    5.6065   -9.2622 C   0  0  0  0  0  0  0  0  0  0  0  0
   -8.5461    4.3823   -8.6620 C   0  0  0  0  0  0  0  0  0  0  0  0
   -8.7300    3.2293   -9.4199 C   0  0  0  0  0  0  0  0  0  0  0  0
   -8.7013    3.2645  -10.8027 C   0  0  0  0  0  0  0  0  0  0  0  0
   -8.9740    2.0723   -8.5070 C   0  0  0  0  0  0  0  0  0  0  0  0
   -9.2729    2.6869   -7.1864 N   0  0  0  0  0  0  0  0  0  0  0  0
   -8.6730    4.0368   -7.2170 C   0  0  0  0  0  0  0  0  0  0  0  0
   -7.2718    4.7235  -15.0021 C   0  0  0  0  0  0  0  0  0  0  0  0
   -8.4271    4.3302  -15.7160 C   0  0  0  0  0  0  0  0  0  0  0  0
   -8.4868    4.3361  -17.1101 C   0  0  0  0  0  0  0  0  0  0  0  0
  -10.1058    3.8922  -17.9438 Br  0  0  0  0  0  0  0  0  0  0  0  0
   -7.4051    4.7148  -17.8937 C   0  0  0  0  0  0  0  0  0  0  0  0
   -6.2484    5.1290  -17.2358 C   0  0  0  0  0  0  0  0  0  0  0  0
   -5.0632    5.5660  -17.7805 N   0  0  0  0  0  0  0  0  0  0  0  0
   -4.2994    5.8439  -16.7543 C   0  0  0  0  0  0  0  0  0  0  0  0
   -4.9356    5.6000  -15.5733 N   0  0  0  0  0  0  0  0  0  0  0  0
   -6.2045    5.1314  -15.8405 C   0  0  0  0  0  0  0  0  0  0  0  0
  1  2  2  0
  2  3  1  0
  3  4  1  0
  4  5  1  0
  5  6  1  0
  5  7  1  0
  2  8  1  0
  8  9  1  1
  9 10  1  0
 10 11  2  0
 11 12  1  0
 12 13  2  0
 13 14  1  0
 14 15  2  0
 14 16  1  0
 16 17  1  0
 17 18  1  0
  8 19  1  0
 19 20  2  0
 20 21  1  0
 21 22  1  0
 21 23  2  0
 23 24  1  0
 24 25  1  0
 25 26  2  0
 26 27  1  0
 27 28  1  0
 15 10  1  0
 28 19  1  0
 18 13  1  0
 28 24  2  0
M  END
>  <smiles>  (1431) 
C170-P189

>  <fragmenstein_outcome>  (1431) 
acceptable

>  <inchikey>  (1431) 
ZDOBRSVSMPMTBA-UHFFFAOYSA-N

>  <fragmenstein_mode>  (1431) 
expansion

>  <HIPPO Pose ID>  (1431) 
21404

>  <Energy>  (1431) 
118.715726

>  <fragmenstein_error>  (1431) 


>  <tags>  (1431) 
{'openbind_xx01zvns2b_c1_fragmenstein', 'fragmenstein_placed'}

>  <ref_pdb>  (1431) 
175

>  <scratch_subdir>  (1431) 
/opt/xchem-fragalysis-2/maxwin/BulkDock/SCRATCH/511028/C170-P189

>  <alias>  (1431) 
O=C(NCC(F)F)[C@@H](Nc1ccc2c(c1)CNC2)c1cc(Br)cc2nc[nH]c12

>  <HIPPO Compound ID>  (1431) 
170

>  <fragmenstein_runtime>  (1431) 
3.801847

$$$$
CCc1nc2c([C@H](Nc3ccc4c(c3)CNC4)C(=O)NCC(F)F)cc(Br)c3c2n1C=CC=C3
     RDKit          3D

 34 38  0  0  0  0  0  0  0  0999 V2000
   -2.3392    6.6395  -14.7024 C   0  0  0  0  0  0  0  0  0  0  0  0
   -2.8614    6.4478  -16.1194 C   0  0  0  0  0  0  0  0  0  0  0  0
   -4.2763    5.9638  -16.1479 C   0  0  0  0  0  0  0  0  0  0  0  0
   -5.0727    5.8582  -15.1060 N   0  0  0  0  0  0  0  0  0  0  0  0
   -6.2232    5.2937  -15.5837 C   0  0  0  0  0  0  0  0  0  0  0  0
   -7.3769    4.9697  -14.8434 C   0  0  0  0  0  0  0  0  0  0  0  0
   -7.4460    5.2807  -13.3599 C   0  0  2  0  0  0  0  0  0  0  0  0
   -8.3405    4.3464  -12.6542 N   0  0  0  0  0  0  0  0  0  0  0  0
   -8.2894    4.2727  -11.2495 C   0  0  0  0  0  0  0  0  0  0  0  0
   -7.9634    5.3633  -10.4149 C   0  0  0  0  0  0  0  0  0  0  0  0
   -8.0439    5.2891   -9.0186 C   0  0  0  0  0  0  0  0  0  0  0  0
   -8.4672    4.1078   -8.4531 C   0  0  0  0  0  0  0  0  0  0  0  0
   -8.7887    3.0213   -9.2498 C   0  0  0  0  0  0  0  0  0  0  0  0
   -8.7228    3.0896  -10.6339 C   0  0  0  0  0  0  0  0  0  0  0  0
   -9.1625    1.8712   -8.3826 C   0  0  0  0  0  0  0  0  0  0  0  0
   -9.3078    2.4232   -7.0099 N   0  0  0  0  0  0  0  0  0  0  0  0
   -8.6790    3.7594   -7.0213 C   0  0  0  0  0  0  0  0  0  0  0  0
   -7.8965    6.7850  -13.1994 C   0  0  0  0  0  0  0  0  0  0  0  0
   -9.0063    7.1083  -13.0146 O   0  0  0  0  0  0  0  0  0  0  0  0
   -6.5992    7.6450  -13.3128 N   0  0  0  0  0  0  0  0  0  0  0  0
   -6.3954    9.0619  -13.1273 C   0  0  0  0  0  0  0  0  0  0  0  0
   -6.8103    9.5694  -11.7499 C   0  0  0  0  0  0  0  0  0  0  0  0
   -6.6774   10.9223  -11.7175 F   0  0  0  0  0  0  0  0  0  0  0  0
   -5.9585    9.0814  -10.8089 F   0  0  0  0  0  0  0  0  0  0  0  0
   -8.4691    4.4718  -15.5683 C   0  0  0  0  0  0  0  0  0  0  0  0
   -8.3822    4.2588  -16.9459 C   0  0  0  0  0  0  0  0  0  0  0  0
   -9.9665    3.7143  -17.8124 Br  0  0  0  0  0  0  0  0  0  0  0  0
   -7.2064    4.5169  -17.6767 C   0  0  0  0  0  0  0  0  0  0  0  0
   -6.1503    5.0850  -16.9559 C   0  0  0  0  0  0  0  0  0  0  0  0
   -4.9011    5.5663  -17.3245 N   0  0  0  0  0  0  0  0  0  0  0  0
   -4.3555    5.6984  -18.5988 C   0  0  0  0  0  0  0  0  0  0  0  0
   -4.8561    5.2548  -19.7497 C   0  0  0  0  0  0  0  0  0  0  0  0
   -6.0266    4.4538  -19.9238 C   0  0  0  0  0  0  0  0  0  0  0  0
   -7.0273    4.1644  -19.0813 C   0  0  0  0  0  0  0  0  0  0  0  0
  1  2  1  0
  2  3  1  0
  3  4  2  0
  4  5  1  0
  5  6  2  0
  6  7  1  0
  7  8  1  1
  8  9  1  0
  9 10  2  0
 10 11  1  0
 11 12  2  0
 12 13  1  0
 13 14  2  0
 13 15  1  0
 15 16  1  0
 16 17  1  0
  7 18  1  0
 18 19  2  0
 18 20  1  0
 20 21  1  0
 21 22  1  0
 22 23  1  0
 22 24  1  0
  6 25  1  0
 25 26  2  0
 26 27  1  0
 26 28  1  0
 28 29  2  0
 29 30  1  0
 30 31  1  0
 31 32  2  0
 32 33  1  0
 33 34  2  0
 30  3  1  0
 29  5  1  0
 14  9  1  0
 34 28  1  0
 17 12  1  0
M  END
>  <smiles>  (1432) 
C20871-P189

>  <fragmenstein_outcome>  (1432) 
acceptable

>  <inchikey>  (1432) 
KPERNJQGCSTHRL-UHFFFAOYSA-N

>  <fragmenstein_mode>  (1432) 
expansion

>  <HIPPO Pose ID>  (1432) 
21406

>  <Energy>  (1432) 
141.878053

>  <fragmenstein_error>  (1432) 


>  <tags>  (1432) 
{'openbind_xx01zvns2b_c1_fragmenstein', 'fragmenstein_placed'}

>  <ref_pdb>  (1432) 
175

>  <scratch_subdir>  (1432) 
/opt/xchem-fragalysis-2/maxwin/BulkDock/SCRATCH/511028/C20871-P189

>  <alias>  (1432) 
CCc1nc2c([C@H](Nc3ccc4c(c3)CNC4)C(=O)NCC(F)F)cc(Br)c3c2n1C=CC=C3

>  <HIPPO Compound ID>  (1432) 
20871

>  <fragmenstein_runtime>  (1432) 
9.25326

$$$$
O=C(NCC(F)F)[C@@H](Nc1ccc2c(c1)CNC2)[C@@H]1C[C@H](Br)[C@H]2CNCN3CN[C@@H]1[C@H]23
     RDKit          3D

 31 35  0  0  0  0  0  0  0  0999 V2000
   -6.7431    7.7286  -12.8818 O   0  0  0  0  0  0  0  0  0  0  0  0
   -7.6595    7.0046  -12.8588 C   0  0  0  0  0  0  0  0  0  0  0  0
   -9.1692    7.3001  -12.6525 N   0  0  0  0  0  0  0  0  0  0  0  0
   -9.8519    8.5417  -12.3358 C   0  0  0  0  0  0  0  0  0  0  0  0
  -11.0487    8.8667  -13.2281 C   0  0  0  0  0  0  0  0  0  0  0  0
  -11.9100    7.8180  -13.2496 F   0  0  0  0  0  0  0  0  0  0  0  0
  -11.7307    9.9239  -12.7159 F   0  0  0  0  0  0  0  0  0  0  0  0
   -7.5369    5.4526  -13.1664 C   0  0  1  0  0  0  0  0  0  0  0  0
   -8.5923    4.6576  -12.4956 N   0  0  0  0  0  0  0  0  0  0  0  0
   -8.4333    4.4423  -11.1006 C   0  0  0  0  0  0  0  0  0  0  0  0
   -8.0907    5.4690  -10.1936 C   0  0  0  0  0  0  0  0  0  0  0  0
   -8.1495    5.2887   -8.8080 C   0  0  0  0  0  0  0  0  0  0  0  0
   -8.5613    4.0657   -8.3337 C   0  0  0  0  0  0  0  0  0  0  0  0
   -8.8437    3.0228   -9.2060 C   0  0  0  0  0  0  0  0  0  0  0  0
   -8.7979    3.1919  -10.5786 C   0  0  0  0  0  0  0  0  0  0  0  0
   -9.1839    1.8126   -8.4065 C   0  0  0  0  0  0  0  0  0  0  0  0
   -9.5560    2.3407   -7.0685 N   0  0  0  0  0  0  0  0  0  0  0  0
   -8.8189    3.6163   -6.9356 C   0  0  0  0  0  0  0  0  0  0  0  0
   -7.6433    5.3124  -14.7063 C   0  0  2  0  0  0  0  0  0  0  0  0
   -8.5061    4.1586  -15.3143 C   0  0  0  0  0  0  0  0  0  0  0  0
   -8.5326    4.2059  -16.8551 C   0  0  2  0  0  0  0  0  0  0  0  0
   -9.4755    2.7356  -17.6550 Br  0  0  0  0  0  0  0  0  0  0  0  0
   -7.1547    4.3411  -17.4730 C   0  0  1  0  0  0  0  0  0  0  0  0
   -7.1112    4.6835  -18.9456 C   0  0  0  0  0  0  0  0  0  0  0  0
   -5.7389    4.9794  -19.4039 N   0  0  0  0  0  0  0  0  0  0  0  0
   -5.0924    6.0297  -18.6449 C   0  0  0  0  0  0  0  0  0  0  0  0
   -5.0482    5.5685  -17.2791 N   0  0  0  0  0  0  0  0  0  0  0  0
   -4.4629    6.4780  -16.3140 C   0  0  0  0  0  0  0  0  0  0  0  0
   -5.3133    6.3927  -15.1140 N   0  0  0  0  0  0  0  0  0  0  0  0
   -6.2420    5.2818  -15.3375 C   0  0  2  0  0  0  0  0  0  0  0  0
   -6.4167    5.4522  -16.8116 C   0  0  2  0  0  0  0  0  0  0  0  0
  1  2  2  0
  2  3  1  0
  3  4  1  0
  4  5  1  0
  5  6  1  0
  5  7  1  0
  2  8  1  0
  8  9  1  1
  9 10  1  0
 10 11  2  0
 11 12  1  0
 12 13  2  0
 13 14  1  0
 14 15  2  0
 14 16  1  0
 16 17  1  0
 17 18  1  0
  8 19  1  0
 19 20  1  1
 20 21  1  0
 21 22  1  6
 21 23  1  0
 23 24  1  6
 24 25  1  0
 25 26  1  0
 26 27  1  0
 27 28  1  0
 28 29  1  0
 30 29  1  1
 30 31  1  0
 15 10  1  0
 30 19  1  0
 18 13  1  0
 31 23  1  0
 31 27  1  6
M  END
>  <smiles>  (1433) 
C20885-P189

>  <fragmenstein_outcome>  (1433) 
acceptable

>  <inchikey>  (1433) 
PJQAFUBGUHLQCZ-UHFFFAOYSA-N

>  <fragmenstein_mode>  (1433) 
expansion

>  <HIPPO Pose ID>  (1433) 
21409

>  <Energy>  (1433) 
43.891843

>  <fragmenstein_error>  (1433) 


>  <tags>  (1433) 
{'openbind_xx01zvns2b_c1_fragmenstein', 'fragmenstein_placed'}

>  <ref_pdb>  (1433) 
175

>  <scratch_subdir>  (1433) 
/opt/xchem-fragalysis-2/maxwin/BulkDock/SCRATCH/511028/C20885-P189

>  <alias>  (1433) 
O=C(NCC(F)F)[C@@H](Nc1ccc2c(c1)CNC2)[C@@H]1C[C@H](Br)[C@H]2CNCN3CN[C@@H]1[C@H]23

>  <HIPPO Compound ID>  (1433) 
20885

>  <fragmenstein_runtime>  (1433) 
7.702227

$$$$
CNc1nc2c([nH]1)[C@](O)([C@@H](Nc1ccc3c(c1)CNC3)C(=O)NCC(F)F)C[C@H](Br)C2
     RDKit          3D

 31 34  0  0  0  0  0  0  0  0999 V2000
   -2.3429    6.0393  -17.6781 C   0  0  0  0  0  0  0  0  0  0  0  0
   -3.1061    6.1305  -16.4553 N   0  0  0  0  0  0  0  0  0  0  0  0
   -4.4193    5.8353  -16.5085 C   0  0  0  0  0  0  0  0  0  0  0  0
   -5.1872    5.5918  -17.5430 N   0  0  0  0  0  0  0  0  0  0  0  0
   -6.3896    5.2073  -17.0080 C   0  0  0  0  0  0  0  0  0  0  0  0
   -6.3782    5.2805  -15.6343 C   0  0  0  0  0  0  0  0  0  0  0  0
   -5.1248    5.7336  -15.3388 N   0  0  0  0  0  0  0  0  0  0  0  0
   -7.4697    4.8991  -14.7056 C   0  0  2  0  0  0  0  0  0  0  0  0
   -8.2601    6.0977  -14.5747 O   0  0  0  0  0  0  0  0  0  0  0  0
   -7.0802    4.5442  -13.2226 C   0  0  1  0  0  0  0  0  0  0  0  0
   -8.3054    4.0599  -12.5123 N   0  0  0  0  0  0  0  0  0  0  0  0
   -8.4124    4.1847  -11.1261 C   0  0  0  0  0  0  0  0  0  0  0  0
   -7.9677    5.3201  -10.4235 C   0  0  0  0  0  0  0  0  0  0  0  0
   -7.9894    5.3675   -9.0263 C   0  0  0  0  0  0  0  0  0  0  0  0
   -8.4585    4.2638   -8.3441 C   0  0  0  0  0  0  0  0  0  0  0  0
   -8.9295    3.1521   -9.0247 C   0  0  0  0  0  0  0  0  0  0  0  0
   -8.9337    3.1030  -10.4037 C   0  0  0  0  0  0  0  0  0  0  0  0
   -9.4331    2.1447   -8.0541 C   0  0  0  0  0  0  0  0  0  0  0  0
   -9.0083    2.6282   -6.7172 N   0  0  0  0  0  0  0  0  0  0  0  0
   -8.6181    4.0446   -6.8809 C   0  0  0  0  0  0  0  0  0  0  0  0
   -5.7394    3.7623  -12.9116 C   0  0  0  0  0  0  0  0  0  0  0  0
   -4.7155    4.1553  -13.3160 O   0  0  0  0  0  0  0  0  0  0  0  0
   -6.0568    2.5741  -11.9714 N   0  0  0  0  0  0  0  0  0  0  0  0
   -5.1883    1.5632  -11.4085 C   0  0  0  0  0  0  0  0  0  0  0  0
   -4.6758    1.9236  -10.0203 C   0  0  0  0  0  0  0  0  0  0  0  0
   -3.9492    0.8898   -9.5145 F   0  0  0  0  0  0  0  0  0  0  0  0
   -3.8187    2.9772  -10.0870 F   0  0  0  0  0  0  0  0  0  0  0  0
   -8.4228    3.9135  -15.4331 C   0  0  0  0  0  0  0  0  0  0  0  0
   -8.6794    4.2339  -16.9243 C   0  0  2  0  0  0  0  0  0  0  0  0
   -9.5148    2.7242  -17.8092 Br  0  0  0  0  0  0  0  0  0  0  0  0
   -7.5075    4.6818  -17.8095 C   0  0  0  0  0  0  0  0  0  0  0  0
  1  2  1  0
  2  3  1  0
  3  4  2  0
  4  5  1  0
  5  6  2  0
  6  7  1  0
  6  8  1  0
  8  9  1  1
  8 10  1  0
 10 11  1  6
 11 12  1  0
 12 13  2  0
 13 14  1  0
 14 15  2  0
 15 16  1  0
 16 17  2  0
 16 18  1  0
 18 19  1  0
 19 20  1  0
 10 21  1  0
 21 22  2  0
 21 23  1  0
 23 24  1  0
 24 25  1  0
 25 26  1  0
 25 27  1  0
  8 28  1  0
 28 29  1  0
 29 30  1  6
 29 31  1  0
  7  3  1  0
 17 12  1  0
 31  5  1  0
 20 15  1  0
M  END
>  <smiles>  (1434) 
C20902-P189

>  <fragmenstein_outcome>  (1434) 
acceptable

>  <inchikey>  (1434) 
FWIBRWVXISTGSG-UHFFFAOYSA-N

>  <fragmenstein_mode>  (1434) 
expansion

>  <HIPPO Pose ID>  (1434) 
21414

>  <Energy>  (1434) 
108.00039

>  <fragmenstein_error>  (1434) 


>  <tags>  (1434) 
{'openbind_xx01zvns2b_c1_fragmenstein', 'fragmenstein_placed'}

>  <ref_pdb>  (1434) 
175

>  <scratch_subdir>  (1434) 
/opt/xchem-fragalysis-2/maxwin/BulkDock/SCRATCH/511028/C20902-P189

>  <alias>  (1434) 
CNc1nc2c([nH]1)[C@](O)([C@@H](Nc1ccc3c(c1)CNC3)C(=O)NCC(F)F)C[C@H](Br)C2

>  <HIPPO Compound ID>  (1434) 
31848

>  <fragmenstein_runtime>  (1434) 
7.00243

$$$$
Cc1nc2c([C@H](Nc3ccc4c(c3)CNC4)C(=O)NCC(F)F)cc(Br)cc2n1CO
     RDKit          3D

 31 34  0  0  0  0  0  0  0  0999 V2000
   -2.9876    6.3937  -17.0266 C   0  0  0  0  0  0  0  0  0  0  0  0
   -4.3595    5.8570  -16.8369 C   0  0  0  0  0  0  0  0  0  0  0  0
   -4.9653    5.7032  -15.6730 N   0  0  0  0  0  0  0  0  0  0  0  0
   -6.2014    5.1815  -15.9524 C   0  0  0  0  0  0  0  0  0  0  0  0
   -7.2551    4.8815  -15.0611 C   0  0  0  0  0  0  0  0  0  0  0  0
   -7.1475    5.1859  -13.5715 C   0  0  2  0  0  0  0  0  0  0  0  0
   -8.0255    4.2750  -12.7992 N   0  0  0  0  0  0  0  0  0  0  0  0
   -8.0590    4.2351  -11.3988 C   0  0  0  0  0  0  0  0  0  0  0  0
   -7.8020    5.3391  -10.5619 C   0  0  0  0  0  0  0  0  0  0  0  0
   -7.9925    5.2908   -9.1717 C   0  0  0  0  0  0  0  0  0  0  0  0
   -8.4476    4.1172   -8.6142 C   0  0  0  0  0  0  0  0  0  0  0  0
   -8.6899    3.0088   -9.4105 C   0  0  0  0  0  0  0  0  0  0  0  0
   -8.5255    3.0577  -10.7874 C   0  0  0  0  0  0  0  0  0  0  0  0
   -9.1022    1.8704   -8.5398 C   0  0  0  0  0  0  0  0  0  0  0  0
   -9.4889    2.4938   -7.2456 N   0  0  0  0  0  0  0  0  0  0  0  0
   -8.7614    3.7810   -7.1962 C   0  0  0  0  0  0  0  0  0  0  0  0
   -7.4835    6.7174  -13.3793 C   0  0  0  0  0  0  0  0  0  0  0  0
   -8.5411    7.1057  -13.0589 O   0  0  0  0  0  0  0  0  0  0  0  0
   -6.1617    7.5007  -13.6640 N   0  0  0  0  0  0  0  0  0  0  0  0
   -5.8542    8.9051  -13.5187 C   0  0  0  0  0  0  0  0  0  0  0  0
   -4.9919    9.4908  -14.6319 C   0  0  0  0  0  0  0  0  0  0  0  0
   -3.8199    8.8150  -14.7328 F   0  0  0  0  0  0  0  0  0  0  0  0
   -5.6098    9.3949  -15.8361 F   0  0  0  0  0  0  0  0  0  0  0  0
   -8.4555    4.4258  -15.6456 C   0  0  0  0  0  0  0  0  0  0  0  0
   -8.5676    4.2672  -17.0252 C   0  0  0  0  0  0  0  0  0  0  0  0
  -10.2062    3.8230  -17.8025 Br  0  0  0  0  0  0  0  0  0  0  0  0
   -7.5250    4.5405  -17.8982 C   0  0  0  0  0  0  0  0  0  0  0  0
   -6.3560    5.0183  -17.3236 C   0  0  0  0  0  0  0  0  0  0  0  0
   -5.1763    5.4618  -17.8721 N   0  0  0  0  0  0  0  0  0  0  0  0
   -4.9342    5.6073  -19.2964 C   0  0  0  0  0  0  0  0  0  0  0  0
   -3.6592    5.0776  -19.6303 O   0  0  0  0  0  0  0  0  0  0  0  0
  1  2  1  0
  2  3  2  0
  3  4  1  0
  4  5  2  0
  5  6  1  0
  6  7  1  1
  7  8  1  0
  8  9  2  0
  9 10  1  0
 10 11  2  0
 11 12  1  0
 12 13  2  0
 12 14  1  0
 14 15  1  0
 15 16  1  0
  6 17  1  0
 17 18  2  0
 17 19  1  0
 19 20  1  0
 20 21  1  0
 21 22  1  0
 21 23  1  0
  5 24  1  0
 24 25  2  0
 25 26  1  0
 25 27  1  0
 27 28  2  0
 28 29  1  0
 29 30  1  0
 30 31  1  0
 29  2  1  0
 28  4  1  0
 13  8  1  0
 16 11  1  0
M  END
>  <smiles>  (1435) 
C20917-P189

>  <fragmenstein_outcome>  (1435) 
acceptable

>  <inchikey>  (1435) 
MYAFPJUPHZFPDI-UHFFFAOYSA-N

>  <fragmenstein_mode>  (1435) 
expansion

>  <HIPPO Pose ID>  (1435) 
21421

>  <Energy>  (1435) 
123.379975

>  <fragmenstein_error>  (1435) 


>  <tags>  (1435) 
{'openbind_xx01zvns2b_c1_fragmenstein', 'fragmenstein_placed'}

>  <ref_pdb>  (1435) 
175

>  <scratch_subdir>  (1435) 
/opt/xchem-fragalysis-2/maxwin/BulkDock/SCRATCH/511028/C20917-P189

>  <alias>  (1435) 
Cc1nc2c([C@H](Nc3ccc4c(c3)CNC4)C(=O)NCC(F)F)cc(Br)cc2n1CO

>  <HIPPO Compound ID>  (1435) 
20917

>  <fragmenstein_runtime>  (1435) 
6.64976

$$$$
Nn1cnc2c([C@@H](Nc3ccc4c(c3)CNC4)C(=O)NCC(F)F)cc(Br)cc21
     RDKit          3D

 29 32  0  0  0  0  0  0  0  0999 V2000
   -5.1746    5.6172  -19.5662 N   0  0  0  0  0  0  0  0  0  0  0  0
   -5.3629    5.5078  -18.1576 N   0  0  0  0  0  0  0  0  0  0  0  0
   -4.5075    5.9499  -17.1911 C   0  0  0  0  0  0  0  0  0  0  0  0
   -5.0137    5.8038  -15.9836 N   0  0  0  0  0  0  0  0  0  0  0  0
   -6.2444    5.2122  -16.1725 C   0  0  0  0  0  0  0  0  0  0  0  0
   -7.2240    4.8436  -15.2179 C   0  0  0  0  0  0  0  0  0  0  0  0
   -7.0590    5.0674  -13.7136 C   0  0  1  0  0  0  0  0  0  0  0  0
   -7.9577    4.1520  -12.9680 N   0  0  0  0  0  0  0  0  0  0  0  0
   -8.0772    4.2504  -11.5711 C   0  0  0  0  0  0  0  0  0  0  0  0
   -7.8890    5.4441  -10.8493 C   0  0  0  0  0  0  0  0  0  0  0  0
   -8.0229    5.4885   -9.4536 C   0  0  0  0  0  0  0  0  0  0  0  0
   -8.3889    4.3345   -8.7886 C   0  0  0  0  0  0  0  0  0  0  0  0
   -8.6569    3.1715   -9.4900 C   0  0  0  0  0  0  0  0  0  0  0  0
   -8.5238    3.1185  -10.8691 C   0  0  0  0  0  0  0  0  0  0  0  0
   -9.1064    2.1089   -8.5477 C   0  0  0  0  0  0  0  0  0  0  0  0
   -8.9142    2.6625   -7.1782 N   0  0  0  0  0  0  0  0  0  0  0  0
   -8.6076    4.0999   -7.3351 C   0  0  0  0  0  0  0  0  0  0  0  0
   -5.5653    4.8542  -13.2308 C   0  0  0  0  0  0  0  0  0  0  0  0
   -5.0905    3.7909  -13.1072 O   0  0  0  0  0  0  0  0  0  0  0  0
   -4.9772    6.2652  -12.9207 N   0  0  0  0  0  0  0  0  0  0  0  0
   -3.6557    6.6555  -12.4871 C   0  0  0  0  0  0  0  0  0  0  0  0
   -3.5878    8.0672  -11.9222 C   0  0  0  0  0  0  0  0  0  0  0  0
   -4.0287    8.9601  -12.8468 F   0  0  0  0  0  0  0  0  0  0  0  0
   -4.4124    8.1867  -10.8505 F   0  0  0  0  0  0  0  0  0  0  0  0
   -8.4542    4.3763  -15.7478 C   0  0  0  0  0  0  0  0  0  0  0  0
   -8.6524    4.2329  -17.1205 C   0  0  0  0  0  0  0  0  0  0  0  0
  -10.3471    3.8527  -17.8099 Br  0  0  0  0  0  0  0  0  0  0  0  0
   -7.6590    4.5046  -18.0454 C   0  0  0  0  0  0  0  0  0  0  0  0
   -6.4813    5.0296  -17.5351 C   0  0  0  0  0  0  0  0  0  0  0  0
  1  2  1  0
  2  3  1  0
  3  4  2  0
  4  5  1  0
  5  6  2  0
  6  7  1  0
  7  8  1  1
  8  9  1  0
  9 10  2  0
 10 11  1  0
 11 12  2  0
 12 13  1  0
 13 14  2  0
 13 15  1  0
 15 16  1  0
 16 17  1  0
  7 18  1  0
 18 19  2  0
 18 20  1  0
 20 21  1  0
 21 22  1  0
 22 23  1  0
 22 24  1  0
  6 25  1  0
 25 26  2  0
 26 27  1  0
 26 28  1  0
 28 29  2  0
 29  2  1  0
 29  5  1  0
 14  9  1  0
 17 12  1  0
M  END
>  <smiles>  (1436) 
C20906-P189

>  <fragmenstein_outcome>  (1436) 
acceptable

>  <inchikey>  (1436) 
SBRBARILCMMYSI-UHFFFAOYSA-N

>  <fragmenstein_mode>  (1436) 
expansion

>  <HIPPO Pose ID>  (1436) 
21422

>  <Energy>  (1436) 
109.285102

>  <fragmenstein_error>  (1436) 


>  <tags>  (1436) 
{'openbind_xx01zvns2b_c1_fragmenstein', 'fragmenstein_placed'}

>  <ref_pdb>  (1436) 
175

>  <scratch_subdir>  (1436) 
/opt/xchem-fragalysis-2/maxwin/BulkDock/SCRATCH/511028/C20906-P189

>  <alias>  (1436) 
Nn1cnc2c([C@@H](Nc3ccc4c(c3)CNC4)C(=O)NCC(F)F)cc(Br)cc21

>  <HIPPO Compound ID>  (1436) 
27880

>  <fragmenstein_runtime>  (1436) 
3.667378

$$$$
O=C(NCC(F)F)[C@](O)(Nc1ccc2c(c1)CNC2)c1cc(Br)cc2nc[nH]c12
     RDKit          3D

 29 32  0  0  0  0  0  0  0  0999 V2000
   -7.2389    2.0958  -13.3058 O   0  0  0  0  0  0  0  0  0  0  0  0
   -6.6817    3.0854  -13.0283 C   0  0  0  0  0  0  0  0  0  0  0  0
   -5.2164    3.3187  -12.5497 N   0  0  0  0  0  0  0  0  0  0  0  0
   -4.1266    2.3995  -12.4101 C   0  0  0  0  0  0  0  0  0  0  0  0
   -3.1267    2.6267  -13.5272 C   0  0  0  0  0  0  0  0  0  0  0  0
   -3.6420    2.2366  -14.7166 F   0  0  0  0  0  0  0  0  0  0  0  0
   -2.0211    1.8796  -13.2990 F   0  0  0  0  0  0  0  0  0  0  0  0
   -7.2745    4.5733  -13.1736 C   0  0  2  0  0  0  0  0  0  0  0  0
   -6.3750    5.5357  -12.5849 O   0  0  0  0  0  0  0  0  0  0  0  0
   -8.5580    4.7729  -12.5064 N   0  0  0  0  0  0  0  0  0  0  0  0
   -8.5803    4.5777  -11.1077 C   0  0  0  0  0  0  0  0  0  0  0  0
   -8.4192    5.6857  -10.2407 C   0  0  0  0  0  0  0  0  0  0  0  0
   -8.3915    5.5301   -8.8534 C   0  0  0  0  0  0  0  0  0  0  0  0
   -8.5651    4.2591   -8.3415 C   0  0  0  0  0  0  0  0  0  0  0  0
   -8.7146    3.1615   -9.1797 C   0  0  0  0  0  0  0  0  0  0  0  0
   -8.6950    3.2969  -10.5603 C   0  0  0  0  0  0  0  0  0  0  0  0
   -8.9305    1.9328   -8.3622 C   0  0  0  0  0  0  0  0  0  0  0  0
   -9.0322    2.3908   -6.9510 N   0  0  0  0  0  0  0  0  0  0  0  0
   -8.6887    3.8251   -6.9223 C   0  0  0  0  0  0  0  0  0  0  0  0
   -7.3633    4.9122  -14.6637 C   0  0  0  0  0  0  0  0  0  0  0  0
   -8.3757    4.3823  -15.4989 C   0  0  0  0  0  0  0  0  0  0  0  0
   -8.3998    4.6193  -16.8809 C   0  0  0  0  0  0  0  0  0  0  0  0
   -9.8367    3.9836  -17.9343 Br  0  0  0  0  0  0  0  0  0  0  0  0
   -7.4057    5.3664  -17.5160 C   0  0  0  0  0  0  0  0  0  0  0  0
   -6.4127    5.9372  -16.7187 C   0  0  0  0  0  0  0  0  0  0  0  0
   -5.3752    6.7691  -17.0757 N   0  0  0  0  0  0  0  0  0  0  0  0
   -4.7410    7.0316  -15.9585 C   0  0  0  0  0  0  0  0  0  0  0  0
   -5.3299    6.4162  -14.8972 N   0  0  0  0  0  0  0  0  0  0  0  0
   -6.4181    5.7064  -15.3481 C   0  0  0  0  0  0  0  0  0  0  0  0
  1  2  2  0
  2  3  1  0
  3  4  1  0
  4  5  1  0
  5  6  1  0
  5  7  1  0
  2  8  1  0
  8  9  1  1
  8 10  1  0
 10 11  1  0
 11 12  2  0
 12 13  1  0
 13 14  2  0
 14 15  1  0
 15 16  2  0
 15 17  1  0
 17 18  1  0
 18 19  1  0
  8 20  1  0
 20 21  2  0
 21 22  1  0
 22 23  1  0
 22 24  2  0
 24 25  1  0
 25 26  1  0
 26 27  2  0
 27 28  1  0
 28 29  1  0
 16 11  1  0
 29 20  1  0
 19 14  1  0
 29 25  2  0
M  END
>  <smiles>  (1437) 
C20901-P190

>  <fragmenstein_outcome>  (1437) 
acceptable

>  <inchikey>  (1437) 
YITDJZNYLBICLK-UHFFFAOYSA-N

>  <fragmenstein_mode>  (1437) 
expansion

>  <HIPPO Pose ID>  (1437) 
21428

>  <Energy>  (1437) 
112.061972

>  <fragmenstein_error>  (1437) 


>  <tags>  (1437) 
{'openbind_xx01zvns2b_c1_fragmenstein', 'fragmenstein_placed'}

>  <ref_pdb>  (1437) 
175

>  <scratch_subdir>  (1437) 
/opt/xchem-fragalysis-2/maxwin/BulkDock/SCRATCH/511028/C20901-P190

>  <alias>  (1437) 
O=C(NCC(F)F)[C@](O)(Nc1ccc2c(c1)CNC2)c1cc(Br)cc2nc[nH]c12

>  <HIPPO Compound ID>  (1437) 
20901

>  <fragmenstein_runtime>  (1437) 
3.764994

$$$$
O=C(NCC(F)F)[C@@](O)(Nc1ccc2c(c1)CNC2)c1cc2scnc2c2nc[nH]c12
     RDKit          3D

 31 35  0  0  0  0  0  0  0  0999 V2000
   -7.3227    1.7466  -13.4673 O   0  0  0  0  0  0  0  0  0  0  0  0
   -7.0560    2.8213  -13.0911 C   0  0  0  0  0  0  0  0  0  0  0  0
   -5.7469    3.3700  -12.4558 N   0  0  0  0  0  0  0  0  0  0  0  0
   -4.4744    2.7341  -12.2430 C   0  0  0  0  0  0  0  0  0  0  0  0
   -3.7915    2.3098  -13.5383 C   0  0  0  0  0  0  0  0  0  0  0  0
   -3.8612    3.2971  -14.4646 F   0  0  0  0  0  0  0  0  0  0  0  0
   -2.4686    2.1103  -13.2954 F   0  0  0  0  0  0  0  0  0  0  0  0
   -8.0456    4.1163  -13.2641 C   0  0  1  0  0  0  0  0  0  0  0  0
   -9.4292    3.9482  -13.2722 O   0  0  0  0  0  0  0  0  0  0  0  0
   -7.7903    5.1122  -12.2110 N   0  0  0  0  0  0  0  0  0  0  0  0
   -8.0744    4.7940  -10.8600 C   0  0  0  0  0  0  0  0  0  0  0  0
   -7.9238    5.8429   -9.9264 C   0  0  0  0  0  0  0  0  0  0  0  0
   -8.1313    5.6498   -8.5571 C   0  0  0  0  0  0  0  0  0  0  0  0
   -8.4854    4.3885   -8.1219 C   0  0  0  0  0  0  0  0  0  0  0  0
   -8.6323    3.3430   -9.0192 C   0  0  0  0  0  0  0  0  0  0  0  0
   -8.4331    3.5246  -10.3812 C   0  0  0  0  0  0  0  0  0  0  0  0
   -9.0537    2.1113   -8.2910 C   0  0  0  0  0  0  0  0  0  0  0  0
   -9.0443    2.4607   -6.8457 N   0  0  0  0  0  0  0  0  0  0  0  0
   -8.8135    3.9172   -6.7482 C   0  0  0  0  0  0  0  0  0  0  0  0
   -7.6962    4.7281  -14.6334 C   0  0  0  0  0  0  0  0  0  0  0  0
   -8.4168    4.2991  -15.7761 C   0  0  0  0  0  0  0  0  0  0  0  0
   -7.9403    4.5692  -17.0613 C   0  0  0  0  0  0  0  0  0  0  0  0
   -8.5786    4.0878  -18.5816 S   0  0  0  0  0  0  0  0  0  0  0  0
   -7.1049    4.5861  -19.3137 C   0  0  0  0  0  0  0  0  0  0  0  0
   -6.2955    5.3143  -18.5813 N   0  0  0  0  0  0  0  0  0  0  0  0
   -6.7833    5.2867  -17.3024 C   0  0  0  0  0  0  0  0  0  0  0  0
   -6.1565    5.9035  -16.1694 C   0  0  0  0  0  0  0  0  0  0  0  0
   -5.0814    6.7468  -16.1602 N   0  0  0  0  0  0  0  0  0  0  0  0
   -4.8607    6.9618  -14.8858 C   0  0  0  0  0  0  0  0  0  0  0  0
   -5.7527    6.2899  -14.0958 N   0  0  0  0  0  0  0  0  0  0  0  0
   -6.6234    5.5958  -14.9048 C   0  0  0  0  0  0  0  0  0  0  0  0
  1  2  2  0
  2  3  1  0
  3  4  1  0
  4  5  1  0
  5  6  1  0
  5  7  1  0
  2  8  1  0
  8  9  1  6
  8 10  1  0
 10 11  1  0
 11 12  2  0
 12 13  1  0
 13 14  2  0
 14 15  1  0
 15 16  2  0
 15 17  1  0
 17 18  1  0
 18 19  1  0
  8 20  1  0
 20 21  2  0
 21 22  1  0
 22 23  1  0
 23 24  1  0
 24 25  2  0
 25 26  1  0
 26 27  1  0
 27 28  1  0
 28 29  2  0
 29 30  1  0
 30 31  1  0
 16 11  1  0
 31 20  1  0
 19 14  1  0
 26 22  2  0
 31 27  2  0
M  END
>  <smiles>  (1438) 
C20941-P190

>  <fragmenstein_outcome>  (1438) 
acceptable

>  <inchikey>  (1438) 
OLGGYODFTFVHLH-UHFFFAOYSA-N

>  <fragmenstein_mode>  (1438) 
expansion

>  <HIPPO Pose ID>  (1438) 
21430

>  <Energy>  (1438) 
153.578977

>  <fragmenstein_error>  (1438) 


>  <tags>  (1438) 
{'openbind_xx01zvns2b_c1_fragmenstein', 'fragmenstein_placed'}

>  <ref_pdb>  (1438) 
175

>  <scratch_subdir>  (1438) 
/opt/xchem-fragalysis-2/maxwin/BulkDock/SCRATCH/511028/C20941-P190

>  <alias>  (1438) 
O=C(NCC(F)F)[C@@](O)(Nc1ccc2c(c1)CNC2)c1cc2scnc2c2nc[nH]c12

>  <HIPPO Compound ID>  (1438) 
29269

>  <fragmenstein_runtime>  (1438) 
6.237162

$$$$
O=C(NCC(F)F)[C@](O)(Nc1ccc2c(c1)CNC2)c1cc(Br)cc2c1ncn2C(F)(F)F
     RDKit          3D

 33 36  0  0  0  0  0  0  0  0999 V2000
   -7.0054    2.1421  -13.4249 O   0  0  0  0  0  0  0  0  0  0  0  0
   -6.5958    3.1662  -13.0368 C   0  0  0  0  0  0  0  0  0  0  0  0
   -5.2292    3.5246  -12.3984 N   0  0  0  0  0  0  0  0  0  0  0  0
   -4.0599    2.7242  -12.1950 C   0  0  0  0  0  0  0  0  0  0  0  0
   -3.1272    2.8889  -13.3872 C   0  0  0  0  0  0  0  0  0  0  0  0
   -3.6994    2.4323  -14.5304 F   0  0  0  0  0  0  0  0  0  0  0  0
   -2.0030    2.1589  -13.1902 F   0  0  0  0  0  0  0  0  0  0  0  0
   -7.3813    4.5735  -13.1866 C   0  0  2  0  0  0  0  0  0  0  0  0
   -6.6917    5.6560  -12.5411 O   0  0  0  0  0  0  0  0  0  0  0  0
   -8.7163    4.4400  -12.5962 N   0  0  0  0  0  0  0  0  0  0  0  0
   -8.6536    4.3530  -11.1695 C   0  0  0  0  0  0  0  0  0  0  0  0
   -8.4147    5.5051  -10.3876 C   0  0  0  0  0  0  0  0  0  0  0  0
   -8.3549    5.4466   -8.9926 C   0  0  0  0  0  0  0  0  0  0  0  0
   -8.5648    4.2236   -8.3864 C   0  0  0  0  0  0  0  0  0  0  0  0
   -8.7897    3.0796   -9.1407 C   0  0  0  0  0  0  0  0  0  0  0  0
   -8.8207    3.1209  -10.5265 C   0  0  0  0  0  0  0  0  0  0  0  0
   -8.9949    1.9151   -8.2345 C   0  0  0  0  0  0  0  0  0  0  0  0
   -9.0542    2.4723   -6.8567 N   0  0  0  0  0  0  0  0  0  0  0  0
   -8.6385    3.8881   -6.9384 C   0  0  0  0  0  0  0  0  0  0  0  0
   -7.3901    4.8455  -14.6955 C   0  0  0  0  0  0  0  0  0  0  0  0
   -8.4192    4.4902  -15.5858 C   0  0  0  0  0  0  0  0  0  0  0  0
   -8.2472    4.6031  -16.9750 C   0  0  0  0  0  0  0  0  0  0  0  0
   -9.6945    4.1443  -18.1118 Br  0  0  0  0  0  0  0  0  0  0  0  0
   -7.0378    5.0272  -17.5571 C   0  0  0  0  0  0  0  0  0  0  0  0
   -6.0158    5.3782  -16.6702 C   0  0  0  0  0  0  0  0  0  0  0  0
   -6.2061    5.3315  -15.2918 C   0  0  0  0  0  0  0  0  0  0  0  0
   -5.1046    5.8092  -14.6146 N   0  0  0  0  0  0  0  0  0  0  0  0
   -4.2320    6.0830  -15.5449 C   0  0  0  0  0  0  0  0  0  0  0  0
   -4.6991    5.7557  -16.7897 N   0  0  0  0  0  0  0  0  0  0  0  0
   -3.8022    5.8061  -17.9225 C   0  0  0  0  0  0  0  0  0  0  0  0
   -4.1905    5.0806  -18.9888 F   0  0  0  0  0  0  0  0  0  0  0  0
   -2.5669    5.3552  -17.5594 F   0  0  0  0  0  0  0  0  0  0  0  0
   -3.6355    7.0867  -18.3459 F   0  0  0  0  0  0  0  0  0  0  0  0
  1  2  2  0
  2  3  1  0
  3  4  1  0
  4  5  1  0
  5  6  1  0
  5  7  1  0
  2  8  1  0
  8  9  1  1
  8 10  1  0
 10 11  1  0
 11 12  2  0
 12 13  1  0
 13 14  2  0
 14 15  1  0
 15 16  2  0
 15 17  1  0
 17 18  1  0
 18 19  1  0
  8 20  1  0
 20 21  2  0
 21 22  1  0
 22 23  1  0
 22 24  2  0
 24 25  1  0
 25 26  2  0
 26 27  1  0
 27 28  2  0
 28 29  1  0
 29 30  1  0
 30 31  1  0
 30 32  1  0
 30 33  1  0
 16 11  1  0
 26 20  1  0
 19 14  1  0
 29 25  1  0
M  END
>  <smiles>  (1439) 
C20952-P190

>  <fragmenstein_outcome>  (1439) 
acceptable

>  <inchikey>  (1439) 
DPVILKOBBYLOHP-UHFFFAOYSA-N

>  <fragmenstein_mode>  (1439) 
expansion

>  <HIPPO Pose ID>  (1439) 
21436

>  <Energy>  (1439) 
126.385721

>  <fragmenstein_error>  (1439) 


>  <tags>  (1439) 
{'openbind_xx01zvns2b_c1_fragmenstein', 'fragmenstein_placed'}

>  <ref_pdb>  (1439) 
175

>  <scratch_subdir>  (1439) 
/opt/xchem-fragalysis-2/maxwin/BulkDock/SCRATCH/511028/C20952-P190

>  <alias>  (1439) 
O=C(NCC(F)F)[C@](O)(Nc1ccc2c(c1)CNC2)c1cc(Br)cc2c1ncn2C(F)(F)F

>  <HIPPO Compound ID>  (1439) 
40283

>  <fragmenstein_runtime>  (1439) 
6.575864

$$$$
O=C(NCC(F)F)[C@@](O)(Nc1ccc2c(c1)CNC2)[C@@H]1CC2=C(NCCC2)c2nc[nH]c21
     RDKit          3D

 32 36  0  0  0  0  0  0  0  0999 V2000
   -7.0839    1.9647  -13.4213 O   0  0  0  0  0  0  0  0  0  0  0  0
   -6.8764    3.0016  -12.9225 C   0  0  0  0  0  0  0  0  0  0  0  0
   -5.5819    3.5670  -12.2800 N   0  0  0  0  0  0  0  0  0  0  0  0
   -4.2573    3.0118  -12.2047 C   0  0  0  0  0  0  0  0  0  0  0  0
   -3.7690    2.3910  -13.5075 C   0  0  0  0  0  0  0  0  0  0  0  0
   -3.8556    3.2784  -14.5275 F   0  0  0  0  0  0  0  0  0  0  0  0
   -2.4477    2.0947  -13.3736 F   0  0  0  0  0  0  0  0  0  0  0  0
   -7.9577    4.1835  -12.8624 C   0  0  1  0  0  0  0  0  0  0  0  0
   -9.2792    3.7296  -12.6943 O   0  0  0  0  0  0  0  0  0  0  0  0
   -7.6724    5.1045  -11.7395 N   0  0  0  0  0  0  0  0  0  0  0  0
   -7.9920    4.7181  -10.4190 C   0  0  0  0  0  0  0  0  0  0  0  0
   -7.9336    5.7365   -9.4425 C   0  0  0  0  0  0  0  0  0  0  0  0
   -8.2247    5.4860   -8.1011 C   0  0  0  0  0  0  0  0  0  0  0  0
   -8.5793    4.2013   -7.7431 C   0  0  0  0  0  0  0  0  0  0  0  0
   -8.6148    3.1827   -8.6818 C   0  0  0  0  0  0  0  0  0  0  0  0
   -8.2955    3.4134  -10.0100 C   0  0  0  0  0  0  0  0  0  0  0  0
   -9.0375    1.9103   -8.0308 C   0  0  0  0  0  0  0  0  0  0  0  0
   -9.3734    2.2585   -6.6251 N   0  0  0  0  0  0  0  0  0  0  0  0
   -8.9722    3.6644   -6.4120 C   0  0  0  0  0  0  0  0  0  0  0  0
   -7.9587    5.0328  -14.1650 C   0  0  2  0  0  0  0  0  0  0  0  0
   -8.6414    4.2316  -15.2917 C   0  0  0  0  0  0  0  0  0  0  0  0
   -8.3227    4.6226  -16.7002 C   0  0  0  0  0  0  0  0  0  0  0  0
   -7.2198    5.3378  -17.0198 C   0  0  0  0  0  0  0  0  0  0  0  0
   -6.8557    5.5066  -18.3409 N   0  0  0  0  0  0  0  0  0  0  0  0
   -7.2624    4.4325  -19.2258 C   0  0  0  0  0  0  0  0  0  0  0  0
   -8.7809    4.2668  -19.1417 C   0  0  0  0  0  0  0  0  0  0  0  0
   -9.2593    4.0442  -17.7227 C   0  0  0  0  0  0  0  0  0  0  0  0
   -6.3718    5.8197  -15.9847 C   0  0  0  0  0  0  0  0  0  0  0  0
   -5.2138    6.5176  -16.1600 N   0  0  0  0  0  0  0  0  0  0  0  0
   -4.8149    6.7731  -14.9320 C   0  0  0  0  0  0  0  0  0  0  0  0
   -5.6895    6.2871  -13.9894 N   0  0  0  0  0  0  0  0  0  0  0  0
   -6.6904    5.6488  -14.6615 C   0  0  0  0  0  0  0  0  0  0  0  0
  1  2  2  0
  2  3  1  0
  3  4  1  0
  4  5  1  0
  5  6  1  0
  5  7  1  0
  2  8  1  0
  8  9  1  1
  8 10  1  0
 10 11  1  0
 11 12  2  0
 12 13  1  0
 13 14  2  0
 14 15  1  0
 15 16  2  0
 15 17  1  0
 17 18  1  0
 18 19  1  0
  8 20  1  0
 20 21  1  6
 21 22  1  0
 22 23  2  0
 23 24  1  0
 24 25  1  0
 25 26  1  0
 26 27  1  0
 23 28  1  0
 28 29  1  0
 29 30  2  0
 30 31  1  0
 31 32  1  0
 16 11  1  0
 32 20  1  0
 19 14  1  0
 27 22  1  0
 32 28  2  0
M  END
>  <smiles>  (1440) 
C20957-P190

>  <fragmenstein_outcome>  (1440) 
acceptable

>  <inchikey>  (1440) 
CIZWFICHNGVBGR-UHFFFAOYSA-N

>  <fragmenstein_mode>  (1440) 
expansion

>  <HIPPO Pose ID>  (1440) 
21437

>  <Energy>  (1440) 
122.057314

>  <fragmenstein_error>  (1440) 


>  <tags>  (1440) 
{'openbind_xx01zvns2b_c1_fragmenstein', 'fragmenstein_placed'}

>  <ref_pdb>  (1440) 
175

>  <scratch_subdir>  (1440) 
/opt/xchem-fragalysis-2/maxwin/BulkDock/SCRATCH/511028/C20957-P190

>  <alias>  (1440) 
O=C(NCC(F)F)[C@@](O)(Nc1ccc2c(c1)CNC2)[C@@H]1CC2=C(NCCC2)c2nc[nH]c21

>  <HIPPO Compound ID>  (1440) 
20957

>  <fragmenstein_runtime>  (1440) 
5.922423

$$$$
Cc1c(C[C@@H](C)F)cc([C@@](O)(Nc2ccc3c(c2)CNC3)C(=O)NCC(F)F)c2[nH]cnc12
     RDKit          3D

 33 36  0  0  0  0  0  0  0  0999 V2000
   -6.3487    5.4649  -18.8034 C   0  0  0  0  0  0  0  0  0  0  0  0
   -6.6034    5.3691  -17.3272 C   0  0  0  0  0  0  0  0  0  0  0  0
   -7.8140    4.8876  -16.7878 C   0  0  0  0  0  0  0  0  0  0  0  0
   -9.0527    4.8913  -17.6334 C   0  0  0  0  0  0  0  0  0  0  0  0
   -9.6947    3.5983  -17.9982 C   0  0  1  0  0  0  0  0  0  0  0  0
  -11.1461    3.9227  -18.2085 C   0  0  0  0  0  0  0  0  0  0  0  0
   -9.1722    3.1615  -19.1661 F   0  0  0  0  0  0  0  0  0  0  0  0
   -7.9577    4.6269  -15.4053 C   0  0  0  0  0  0  0  0  0  0  0  0
   -6.9770    4.9912  -14.4664 C   0  0  0  0  0  0  0  0  0  0  0  0
   -7.0576    4.5949  -12.9924 C   0  0  1  0  0  0  0  0  0  0  0  0
   -6.1673    5.4828  -12.2794 O   0  0  0  0  0  0  0  0  0  0  0  0
   -8.3941    4.8072  -12.4396 N   0  0  0  0  0  0  0  0  0  0  0  0
   -8.5210    4.5871  -11.0493 C   0  0  0  0  0  0  0  0  0  0  0  0
   -8.3911    5.6759  -10.1526 C   0  0  0  0  0  0  0  0  0  0  0  0
   -8.4364    5.4928   -8.7685 C   0  0  0  0  0  0  0  0  0  0  0  0
   -8.6571    4.2152   -8.2942 C   0  0  0  0  0  0  0  0  0  0  0  0
   -8.7690    3.1338   -9.1634 C   0  0  0  0  0  0  0  0  0  0  0  0
   -8.6773    3.2958  -10.5366 C   0  0  0  0  0  0  0  0  0  0  0  0
   -9.0189    1.8940   -8.3687 C   0  0  0  0  0  0  0  0  0  0  0  0
   -9.4320    2.3799   -7.0254 N   0  0  0  0  0  0  0  0  0  0  0  0
   -8.8647    3.7379   -6.8952 C   0  0  0  0  0  0  0  0  0  0  0  0
   -6.5286    3.0806  -12.8956 C   0  0  0  0  0  0  0  0  0  0  0  0
   -7.1227    2.1176  -13.1904 O   0  0  0  0  0  0  0  0  0  0  0  0
   -5.0503    3.2518  -12.4287 N   0  0  0  0  0  0  0  0  0  0  0  0
   -3.9932    2.2944  -12.3245 C   0  0  0  0  0  0  0  0  0  0  0  0
   -3.0575    2.4711  -13.5059 C   0  0  0  0  0  0  0  0  0  0  0  0
   -3.6412    2.0474  -14.6506 F   0  0  0  0  0  0  0  0  0  0  0  0
   -1.9492    1.7172  -13.3130 F   0  0  0  0  0  0  0  0  0  0  0  0
   -5.8934    5.6847  -15.0361 C   0  0  0  0  0  0  0  0  0  0  0  0
   -4.8202    6.3180  -14.4575 N   0  0  0  0  0  0  0  0  0  0  0  0
   -4.0404    6.8417  -15.4405 C   0  0  0  0  0  0  0  0  0  0  0  0
   -4.5247    6.5734  -16.6270 N   0  0  0  0  0  0  0  0  0  0  0  0
   -5.6821    5.8619  -16.3968 C   0  0  0  0  0  0  0  0  0  0  0  0
  1  2  1  0
  2  3  2  0
  3  4  1  0
  4  5  1  0
  5  6  1  6
  5  7  1  0
  3  8  1  0
  8  9  2  0
  9 10  1  0
 10 11  1  1
 10 12  1  0
 12 13  1  0
 13 14  2  0
 14 15  1  0
 15 16  2  0
 16 17  1  0
 17 18  2  0
 17 19  1  0
 19 20  1  0
 20 21  1  0
 10 22  1  0
 22 23  2  0
 22 24  1  0
 24 25  1  0
 25 26  1  0
 26 27  1  0
 26 28  1  0
  9 29  1  0
 29 30  1  0
 30 31  1  0
 31 32  2  0
 32 33  1  0
 33  2  1  0
 18 13  1  0
 33 29  2  0
 21 16  1  0
M  END
>  <smiles>  (1441) 
C20960-P190

>  <fragmenstein_outcome>  (1441) 
acceptable

>  <inchikey>  (1441) 
WNDRNCWESVVFKK-UHFFFAOYSA-N

>  <fragmenstein_mode>  (1441) 
expansion

>  <HIPPO Pose ID>  (1441) 
21440

>  <Energy>  (1441) 
148.977533

>  <fragmenstein_error>  (1441) 


>  <tags>  (1441) 
{'openbind_xx01zvns2b_c1_fragmenstein', 'fragmenstein_placed'}

>  <ref_pdb>  (1441) 
175

>  <scratch_subdir>  (1441) 
/opt/xchem-fragalysis-2/maxwin/BulkDock/SCRATCH/511028/C20960-P190

>  <alias>  (1441) 
Cc1c(C[C@@H](C)F)cc([C@@](O)(Nc2ccc3c(c2)CNC3)C(=O)NCC(F)F)c2[nH]cnc12

>  <HIPPO Compound ID>  (1441) 
20960

>  <fragmenstein_runtime>  (1441) 
12.110788

$$$$
CCc1cc([C@](O)(Nc2ccc3c(c2)CNC3)C(=O)NCC(F)F)c2ncn(C)c2c1
     RDKit          3D

 31 34  0  0  0  0  0  0  0  0999 V2000
   -9.4499    4.4799  -19.2393 C   0  0  0  0  0  0  0  0  0  0  0  0
   -9.6344    4.0592  -17.8149 C   0  0  0  0  0  0  0  0  0  0  0  0
   -8.5192    4.5275  -16.9115 C   0  0  0  0  0  0  0  0  0  0  0  0
   -8.6542    4.2153  -15.5636 C   0  0  0  0  0  0  0  0  0  0  0  0
   -7.7435    4.6172  -14.5584 C   0  0  0  0  0  0  0  0  0  0  0  0
   -7.9367    4.0464  -13.1517 C   0  0  2  0  0  0  0  0  0  0  0  0
   -9.2989    3.7451  -13.0270 O   0  0  0  0  0  0  0  0  0  0  0  0
   -7.6827    5.0502  -12.1169 N   0  0  0  0  0  0  0  0  0  0  0  0
   -8.0133    4.7764  -10.7746 C   0  0  0  0  0  0  0  0  0  0  0  0
   -7.9043    5.8412   -9.8562 C   0  0  0  0  0  0  0  0  0  0  0  0
   -8.1498    5.6677   -8.4890 C   0  0  0  0  0  0  0  0  0  0  0  0
   -8.4978    4.4087   -8.0400 C   0  0  0  0  0  0  0  0  0  0  0  0
   -8.5926    3.3446   -8.9202 C   0  0  0  0  0  0  0  0  0  0  0  0
   -8.3355    3.5041  -10.2729 C   0  0  0  0  0  0  0  0  0  0  0  0
   -9.0329    2.1211   -8.1923 C   0  0  0  0  0  0  0  0  0  0  0  0
   -9.0493    2.4856   -6.7499 N   0  0  0  0  0  0  0  0  0  0  0  0
   -8.8589    3.9508   -6.6706 C   0  0  0  0  0  0  0  0  0  0  0  0
   -6.8667    2.8383  -13.0090 C   0  0  0  0  0  0  0  0  0  0  0  0
   -7.1022    1.7129  -13.2340 O   0  0  0  0  0  0  0  0  0  0  0  0
   -5.5416    3.5210  -12.5560 N   0  0  0  0  0  0  0  0  0  0  0  0
   -4.2287    2.9779  -12.3821 C   0  0  0  0  0  0  0  0  0  0  0  0
   -3.6913    2.2909  -13.6239 C   0  0  0  0  0  0  0  0  0  0  0  0
   -3.7246    3.1135  -14.7019 F   0  0  0  0  0  0  0  0  0  0  0  0
   -2.3802    1.9891  -13.4189 F   0  0  0  0  0  0  0  0  0  0  0  0
   -6.6630    5.4137  -14.9941 C   0  0  0  0  0  0  0  0  0  0  0  0
   -5.6343    5.9919  -14.2777 N   0  0  0  0  0  0  0  0  0  0  0  0
   -4.8840    6.6067  -15.1649 C   0  0  0  0  0  0  0  0  0  0  0  0
   -5.3803    6.4660  -16.4259 N   0  0  0  0  0  0  0  0  0  0  0  0
   -4.8170    7.0202  -17.6320 C   0  0  0  0  0  0  0  0  0  0  0  0
   -6.5197    5.7060  -16.3506 C   0  0  0  0  0  0  0  0  0  0  0  0
   -7.4051    5.2577  -17.3331 C   0  0  0  0  0  0  0  0  0  0  0  0
  1  2  1  0
  2  3  1  0
  3  4  2  0
  4  5  1  0
  5  6  1  0
  6  7  1  6
  6  8  1  0
  8  9  1  0
  9 10  2  0
 10 11  1  0
 11 12  2  0
 12 13  1  0
 13 14  2  0
 13 15  1  0
 15 16  1  0
 16 17  1  0
  6 18  1  0
 18 19  2  0
 18 20  1  0
 20 21  1  0
 21 22  1  0
 22 23  1  0
 22 24  1  0
  5 25  2  0
 25 26  1  0
 26 27  2  0
 27 28  1  0
 28 29  1  0
 28 30  1  0
 30 31  2  0
 31  3  1  0
 14  9  1  0
 30 25  1  0
 17 12  1  0
M  END
>  <smiles>  (1442) 
C20962-P190

>  <fragmenstein_outcome>  (1442) 
acceptable

>  <inchikey>  (1442) 
ZULVXUCHQSNFII-UHFFFAOYSA-N

>  <fragmenstein_mode>  (1442) 
expansion

>  <HIPPO Pose ID>  (1442) 
21441

>  <Energy>  (1442) 
114.847134

>  <fragmenstein_error>  (1442) 


>  <tags>  (1442) 
{'openbind_xx01zvns2b_c1_fragmenstein', 'fragmenstein_placed'}

>  <ref_pdb>  (1442) 
175

>  <scratch_subdir>  (1442) 
/opt/xchem-fragalysis-2/maxwin/BulkDock/SCRATCH/511028/C20962-P190

>  <alias>  (1442) 
CCc1cc([C@](O)(Nc2ccc3c(c2)CNC3)C(=O)NCC(F)F)c2ncn(C)c2c1

>  <HIPPO Compound ID>  (1442) 
20962

>  <fragmenstein_runtime>  (1442) 
9.887909

$$$$
Cc1nc2c([C@@](O)(Nc3ccc4c(c3)CNC4)C(=O)NCC(F)F)cc(Br)cc2n1C
     RDKit          3D

 31 34  0  0  0  0  0  0  0  0999 V2000
   -3.2870    7.2335  -16.1327 C   0  0  0  0  0  0  0  0  0  0  0  0
   -4.6168    6.5745  -16.1377 C   0  0  0  0  0  0  0  0  0  0  0  0
   -5.2858    6.1960  -15.0664 N   0  0  0  0  0  0  0  0  0  0  0  0
   -6.4321    5.5898  -15.5351 C   0  0  0  0  0  0  0  0  0  0  0  0
   -7.4592    4.9904  -14.7781 C   0  0  0  0  0  0  0  0  0  0  0  0
   -7.2889    4.8192  -13.2671 C   0  0  1  0  0  0  0  0  0  0  0  0
   -6.6050    5.9765  -12.7597 O   0  0  0  0  0  0  0  0  0  0  0  0
   -8.5812    4.7962  -12.5803 N   0  0  0  0  0  0  0  0  0  0  0  0
   -8.4996    4.5748  -11.1794 C   0  0  0  0  0  0  0  0  0  0  0  0
   -8.2525    5.6532  -10.2985 C   0  0  0  0  0  0  0  0  0  0  0  0
   -8.2722    5.4831   -8.9120 C   0  0  0  0  0  0  0  0  0  0  0  0
   -8.5519    4.2236   -8.4219 C   0  0  0  0  0  0  0  0  0  0  0  0
   -8.7278    3.1393   -9.2783 C   0  0  0  0  0  0  0  0  0  0  0  0
   -8.6786    3.2896  -10.6565 C   0  0  0  0  0  0  0  0  0  0  0  0
   -8.9988    1.9193   -8.4607 C   0  0  0  0  0  0  0  0  0  0  0  0
   -9.3766    2.4343   -7.1164 N   0  0  0  0  0  0  0  0  0  0  0  0
   -8.7570    3.7732   -7.0147 C   0  0  0  0  0  0  0  0  0  0  0  0
   -6.4508    3.4591  -13.0676 C   0  0  0  0  0  0  0  0  0  0  0  0
   -6.8088    2.3978  -13.4058 O   0  0  0  0  0  0  0  0  0  0  0  0
   -5.0965    3.9175  -12.4525 N   0  0  0  0  0  0  0  0  0  0  0  0
   -3.8874    3.1876  -12.2199 C   0  0  0  0  0  0  0  0  0  0  0  0
   -3.5218    2.3200  -13.4197 C   0  0  0  0  0  0  0  0  0  0  0  0
   -3.5576    3.0402  -14.5718 F   0  0  0  0  0  0  0  0  0  0  0  0
   -2.2356    1.9023  -13.2784 F   0  0  0  0  0  0  0  0  0  0  0  0
   -8.5471    4.4709  -15.5189 C   0  0  0  0  0  0  0  0  0  0  0  0
   -8.5908    4.5721  -16.9165 C   0  0  0  0  0  0  0  0  0  0  0  0
  -10.0929    3.9850  -17.8958 Br  0  0  0  0  0  0  0  0  0  0  0  0
   -7.5507    5.1392  -17.6513 C   0  0  0  0  0  0  0  0  0  0  0  0
   -6.4865    5.6455  -16.9148 C   0  0  0  0  0  0  0  0  0  0  0  0
   -5.3131    6.2539  -17.2786 N   0  0  0  0  0  0  0  0  0  0  0  0
   -4.9129    6.4535  -18.6461 C   0  0  0  0  0  0  0  0  0  0  0  0
  1  2  1  0
  2  3  2  0
  3  4  1  0
  4  5  2  0
  5  6  1  0
  6  7  1  1
  6  8  1  0
  8  9  1  0
  9 10  2  0
 10 11  1  0
 11 12  2  0
 12 13  1  0
 13 14  2  0
 13 15  1  0
 15 16  1  0
 16 17  1  0
  6 18  1  0
 18 19  2  0
 18 20  1  0
 20 21  1  0
 21 22  1  0
 22 23  1  0
 22 24  1  0
  5 25  1  0
 25 26  2  0
 26 27  1  0
 26 28  1  0
 28 29  2  0
 29 30  1  0
 30 31  1  0
 30  2  1  0
 29  4  1  0
 14  9  1  0
 17 12  1  0
M  END
>  <smiles>  (1443) 
C20987-P190

>  <fragmenstein_outcome>  (1443) 
acceptable

>  <inchikey>  (1443) 
BVCBLTGZSBXLQM-UHFFFAOYSA-N

>  <fragmenstein_mode>  (1443) 
expansion

>  <HIPPO Pose ID>  (1443) 
21450

>  <Energy>  (1443) 
105.655598

>  <fragmenstein_error>  (1443) 


>  <tags>  (1443) 
{'openbind_xx01zvns2b_c1_fragmenstein', 'fragmenstein_placed'}

>  <ref_pdb>  (1443) 
175

>  <scratch_subdir>  (1443) 
/opt/xchem-fragalysis-2/maxwin/BulkDock/SCRATCH/511028/C20987-P190

>  <alias>  (1443) 
Cc1nc2c([C@@](O)(Nc3ccc4c(c3)CNC4)C(=O)NCC(F)F)cc(Br)cc2n1C

>  <HIPPO Compound ID>  (1443) 
20987

>  <fragmenstein_runtime>  (1443) 
5.527324

$$$$
O=C(NCC(F)F)[C@](O)(Nc1ccc2c(c1)CNC2)c1cc(Br)cc2c1[nH]c[n+]2[O-]
     RDKit          3D

 30 33  0  0  0  0  0  0  0  0999 V2000
   -7.1551    2.0351  -13.4415 O   0  0  0  0  0  0  0  0  0  0  0  0
   -6.6414    3.0532  -13.1830 C   0  0  0  0  0  0  0  0  0  0  0  0
   -5.2173    3.3519  -12.6222 N   0  0  0  0  0  0  0  0  0  0  0  0
   -4.1167    2.4707  -12.3600 C   0  0  0  0  0  0  0  0  0  0  0  0
   -3.0965    2.6127  -13.4765 C   0  0  0  0  0  0  0  0  0  0  0  0
   -3.6306    2.2306  -14.6620 F   0  0  0  0  0  0  0  0  0  0  0  0
   -2.0322    1.8149  -13.2347 F   0  0  0  0  0  0  0  0  0  0  0  0
   -7.2613    4.5157  -13.4511 C   0  0  2  0  0  0  0  0  0  0  0  0
   -6.3601    5.5435  -12.9888 O   0  0  0  0  0  0  0  0  0  0  0  0
   -8.5260    4.7621  -12.7577 N   0  0  0  0  0  0  0  0  0  0  0  0
   -8.5300    4.6017  -11.3523 C   0  0  0  0  0  0  0  0  0  0  0  0
   -8.3602    5.7288  -10.5132 C   0  0  0  0  0  0  0  0  0  0  0  0
   -8.3255    5.6080   -9.1204 C   0  0  0  0  0  0  0  0  0  0  0  0
   -8.4938    4.3515   -8.5716 C   0  0  0  0  0  0  0  0  0  0  0  0
   -8.6580    3.2342   -9.3795 C   0  0  0  0  0  0  0  0  0  0  0  0
   -8.6515    3.3362  -10.7656 C   0  0  0  0  0  0  0  0  0  0  0  0
   -8.8704    2.0284   -8.5253 C   0  0  0  0  0  0  0  0  0  0  0  0
   -8.9393    2.5222   -7.1241 N   0  0  0  0  0  0  0  0  0  0  0  0
   -8.5876    3.9540   -7.1390 C   0  0  0  0  0  0  0  0  0  0  0  0
   -7.3572    4.7086  -14.9763 C   0  0  0  0  0  0  0  0  0  0  0  0
   -8.5001    4.3165  -15.7193 C   0  0  0  0  0  0  0  0  0  0  0  0
   -8.5450    4.3747  -17.1235 C   0  0  0  0  0  0  0  0  0  0  0  0
  -10.1210    3.9217  -18.0471 Br  0  0  0  0  0  0  0  0  0  0  0  0
   -7.4526    4.7695  -17.8893 C   0  0  0  0  0  0  0  0  0  0  0  0
   -6.3232    5.1499  -17.1809 C   0  0  0  0  0  0  0  0  0  0  0  0
   -6.2671    5.1631  -15.7671 C   0  0  0  0  0  0  0  0  0  0  0  0
   -5.0261    5.6664  -15.3473 N   0  0  0  0  0  0  0  0  0  0  0  0
   -4.3136    5.8922  -16.4785 C   0  0  0  0  0  0  0  0  0  0  0  0
   -5.1179    5.5573  -17.6312 N   0  0  0  0  0  0  0  0  0  0  0  0
   -4.6461    5.7363  -18.7767 O   0  0  0  0  0  0  0  0  0  0  0  0
  1  2  2  0
  2  3  1  0
  3  4  1  0
  4  5  1  0
  5  6  1  0
  5  7  1  0
  2  8  1  0
  8  9  1  1
  8 10  1  0
 10 11  1  0
 11 12  2  0
 12 13  1  0
 13 14  2  0
 14 15  1  0
 15 16  2  0
 15 17  1  0
 17 18  1  0
 18 19  1  0
  8 20  1  0
 20 21  2  0
 21 22  1  0
 22 23  1  0
 22 24  2  0
 24 25  1  0
 25 26  2  0
 26 27  1  0
 27 28  1  0
 28 29  2  0
 29 30  1  0
 16 11  1  0
 26 20  1  0
 19 14  1  0
 29 25  1  0
M  CHG  2  29   1  30  -1
M  END
>  <smiles>  (1444) 
C20954-P190

>  <fragmenstein_outcome>  (1444) 
acceptable

>  <inchikey>  (1444) 
UAEHSCHMOFZHRV-UHFFFAOYSA-N

>  <fragmenstein_mode>  (1444) 
expansion

>  <HIPPO Pose ID>  (1444) 
21452

>  <Energy>  (1444) 
144.797995

>  <fragmenstein_error>  (1444) 


>  <tags>  (1444) 
{'openbind_xx01zvns2b_c1_fragmenstein', 'fragmenstein_placed'}

>  <ref_pdb>  (1444) 
175

>  <scratch_subdir>  (1444) 
/opt/xchem-fragalysis-2/maxwin/BulkDock/SCRATCH/511028/C20954-P190

>  <alias>  (1444) 
O=C(NCC(F)F)[C@](O)(Nc1ccc2c(c1)CNC2)c1cc(Br)cc2c1[nH]c[n+]2[O-]

>  <HIPPO Compound ID>  (1444) 
22512

>  <fragmenstein_runtime>  (1444) 
3.751422

$$$$
N#Cc1csc2cc([C@](O)(Nc3ccc4c(c3)CNC4)C(=O)NCC(F)F)c3[nH]cnc3c12
     RDKit          3D

 33 37  0  0  0  0  0  0  0  0999 V2000
   -3.9266    6.9050  -19.2285 N   0  0  0  0  0  0  0  0  0  0  0  0
   -4.8465    6.2946  -18.8656 C   0  0  0  0  0  0  0  0  0  0  0  0
   -6.0022    5.5499  -18.4707 C   0  0  0  0  0  0  0  0  0  0  0  0
   -6.6975    4.7467  -19.3427 C   0  0  0  0  0  0  0  0  0  0  0  0
   -8.1718    4.1687  -18.6604 S   0  0  0  0  0  0  0  0  0  0  0  0
   -7.7011    4.6545  -17.0868 C   0  0  0  0  0  0  0  0  0  0  0  0
   -8.2643    4.3338  -15.8472 C   0  0  0  0  0  0  0  0  0  0  0  0
   -7.6705    4.7993  -14.6453 C   0  0  0  0  0  0  0  0  0  0  0  0
   -8.0864    4.1527  -13.3099 C   0  0  2  0  0  0  0  0  0  0  0  0
   -9.4707    4.0175  -13.3815 O   0  0  0  0  0  0  0  0  0  0  0  0
   -7.8503    5.1227  -12.2290 N   0  0  0  0  0  0  0  0  0  0  0  0
   -8.1003    4.7770  -10.8819 C   0  0  0  0  0  0  0  0  0  0  0  0
   -7.9449    5.8166   -9.9370 C   0  0  0  0  0  0  0  0  0  0  0  0
   -8.1408    5.6101   -8.5687 C   0  0  0  0  0  0  0  0  0  0  0  0
   -8.4894    4.3441   -8.1454 C   0  0  0  0  0  0  0  0  0  0  0  0
   -8.6387    3.3072   -9.0531 C   0  0  0  0  0  0  0  0  0  0  0  0
   -8.4539    3.5031  -10.4164 C   0  0  0  0  0  0  0  0  0  0  0  0
   -9.0429    2.0652   -8.3320 C   0  0  0  0  0  0  0  0  0  0  0  0
   -9.0538    2.4077   -6.8852 N   0  0  0  0  0  0  0  0  0  0  0  0
   -8.8104    3.8605   -6.7743 C   0  0  0  0  0  0  0  0  0  0  0  0
   -7.1225    2.8432  -13.1550 C   0  0  0  0  0  0  0  0  0  0  0  0
   -7.4288    1.7733  -13.5126 O   0  0  0  0  0  0  0  0  0  0  0  0
   -5.7799    3.3627  -12.5680 N   0  0  0  0  0  0  0  0  0  0  0  0
   -4.5156    2.6945  -12.3913 C   0  0  0  0  0  0  0  0  0  0  0  0
   -3.5325    3.0305  -13.5089 C   0  0  0  0  0  0  0  0  0  0  0  0
   -3.9067    2.4406  -14.6693 F   0  0  0  0  0  0  0  0  0  0  0  0
   -2.3085    2.5342  -13.1962 F   0  0  0  0  0  0  0  0  0  0  0  0
   -6.6316    5.7311  -14.8181 C   0  0  0  0  0  0  0  0  0  0  0  0
   -5.8836    6.4751  -13.9344 N   0  0  0  0  0  0  0  0  0  0  0  0
   -4.9596    7.1920  -14.6440 C   0  0  0  0  0  0  0  0  0  0  0  0
   -5.0473    6.9567  -15.9315 N   0  0  0  0  0  0  0  0  0  0  0  0
   -6.0784    6.0771  -16.0332 C   0  0  0  0  0  0  0  0  0  0  0  0
   -6.5884    5.4538  -17.2004 C   0  0  0  0  0  0  0  0  0  0  0  0
  1  2  3  0
  2  3  1  0
  3  4  2  0
  4  5  1  0
  5  6  1  0
  6  7  2  0
  7  8  1  0
  8  9  1  0
  9 10  1  6
  9 11  1  0
 11 12  1  0
 12 13  2  0
 13 14  1  0
 14 15  2  0
 15 16  1  0
 16 17  2  0
 16 18  1  0
 18 19  1  0
 19 20  1  0
  9 21  1  0
 21 22  2  0
 21 23  1  0
 23 24  1  0
 24 25  1  0
 25 26  1  0
 25 27  1  0
  8 28  2  0
 28 29  1  0
 29 30  1  0
 30 31  2  0
 31 32  1  0
 32 33  2  0
 33  3  1  0
 33  6  1  0
 17 12  1  0
 32 28  1  0
 20 15  1  0
M  END
>  <smiles>  (1445) 
C21000-P190

>  <fragmenstein_outcome>  (1445) 
acceptable

>  <inchikey>  (1445) 
VDLPUHYEAORXEM-UHFFFAOYSA-N

>  <fragmenstein_mode>  (1445) 
expansion

>  <HIPPO Pose ID>  (1445) 
21456

>  <Energy>  (1445) 
134.057498

>  <fragmenstein_error>  (1445) 


>  <tags>  (1445) 
{'openbind_xx01zvns2b_c1_fragmenstein', 'fragmenstein_placed'}

>  <ref_pdb>  (1445) 
175

>  <scratch_subdir>  (1445) 
/opt/xchem-fragalysis-2/maxwin/BulkDock/SCRATCH/511028/C21000-P190

>  <alias>  (1445) 
N#Cc1csc2cc([C@](O)(Nc3ccc4c(c3)CNC4)C(=O)NCC(F)F)c3[nH]cnc3c12

>  <HIPPO Compound ID>  (1445) 
39640

>  <fragmenstein_runtime>  (1445) 
4.06644

$$$$
O=C1C=C([C@H]2c3nc[nH]c3[C@](O)([C@H](Nc3cc4c(c(-c5ccncc5)c3)CNC4)C(=O)NCC(F)F)C[C@H]2Br)C=N1
     RDKit          3D

 41 46  0  0  0  0  0  0  0  0999 V2000
   -5.6301    4.4549  -21.8833 O   0  0  0  0  0  0  0  0  0  0  0  0
   -5.5824    4.7632  -20.7064 C   0  0  0  0  0  0  0  0  0  0  0  0
   -6.6272    4.4178  -19.7357 C   0  0  0  0  0  0  0  0  0  0  0  0
   -6.2653    4.8714  -18.5378 C   0  0  0  0  0  0  0  0  0  0  0  0
   -6.8628    4.6801  -17.1945 C   0  0  1  0  0  0  0  0  0  0  0  0
   -6.6088    5.7375  -16.1744 C   0  0  0  0  0  0  0  0  0  0  0  0
   -5.6178    6.6826  -16.2108 N   0  0  0  0  0  0  0  0  0  0  0  0
   -5.6412    7.2556  -15.0279 C   0  0  0  0  0  0  0  0  0  0  0  0
   -6.6134    6.7212  -14.2284 N   0  0  0  0  0  0  0  0  0  0  0  0
   -7.2343    5.7397  -14.9497 C   0  0  0  0  0  0  0  0  0  0  0  0
   -8.3689    4.8811  -14.5128 C   0  0  2  0  0  0  0  0  0  0  0  0
   -9.4524    5.8212  -14.3548 O   0  0  0  0  0  0  0  0  0  0  0  0
   -8.1874    4.1347  -13.1341 C   0  0  2  0  0  0  0  0  0  0  0  0
   -8.0306    5.1522  -12.0487 N   0  0  0  0  0  0  0  0  0  0  0  0
   -8.1935    4.7327  -10.7097 C   0  0  0  0  0  0  0  0  0  0  0  0
   -8.5441    3.4416  -10.3059 C   0  0  0  0  0  0  0  0  0  0  0  0
   -8.7375    3.1965   -8.9570 C   0  0  0  0  0  0  0  0  0  0  0  0
   -8.5643    4.1913   -7.9965 C   0  0  0  0  0  0  0  0  0  0  0  0
   -8.1295    5.4651   -8.3438 C   0  0  0  0  0  0  0  0  0  0  0  0
   -7.8181    6.5038   -7.3512 C   0  0  0  0  0  0  0  0  0  0  0  0
   -8.3681    7.7858   -7.4389 C   0  0  0  0  0  0  0  0  0  0  0  0
   -8.0341    8.7324   -6.4816 C   0  0  0  0  0  0  0  0  0  0  0  0
   -7.1831    8.5011   -5.4602 N   0  0  0  0  0  0  0  0  0  0  0  0
   -6.6490    7.2655   -5.3937 C   0  0  0  0  0  0  0  0  0  0  0  0
   -6.9289    6.2538   -6.2992 C   0  0  0  0  0  0  0  0  0  0  0  0
   -7.9789    5.7178   -9.7211 C   0  0  0  0  0  0  0  0  0  0  0  0
   -8.9415    3.6253   -6.6621 C   0  0  0  0  0  0  0  0  0  0  0  0
   -9.6045    2.3328   -6.9440 N   0  0  0  0  0  0  0  0  0  0  0  0
   -9.1320    1.9226   -8.2859 C   0  0  0  0  0  0  0  0  0  0  0  0
   -7.0089    3.0930  -13.1247 C   0  0  0  0  0  0  0  0  0  0  0  0
   -7.1260    2.0044  -13.5288 O   0  0  0  0  0  0  0  0  0  0  0  0
   -5.7764    3.8138  -12.5297 N   0  0  0  0  0  0  0  0  0  0  0  0
   -4.4103    3.3756  -12.3963 C   0  0  0  0  0  0  0  0  0  0  0  0
   -3.5932    3.5148  -13.6735 C   0  0  0  0  0  0  0  0  0  0  0  0
   -4.0667    2.7012  -14.6486 F   0  0  0  0  0  0  0  0  0  0  0  0
   -2.3187    3.1149  -13.4251 F   0  0  0  0  0  0  0  0  0  0  0  0
   -8.7314    3.8559  -15.6033 C   0  0  0  0  0  0  0  0  0  0  0  0
   -8.2904    4.1078  -17.0505 C   0  0  1  0  0  0  0  0  0  0  0  0
   -9.7522    4.8155  -18.0885 Br  0  0  0  0  0  0  0  0  0  0  0  0
   -4.9552    5.4484  -18.8176 C   0  0  0  0  0  0  0  0  0  0  0  0
   -4.5700    5.4015  -20.0481 N   0  0  0  0  0  0  0  0  0  0  0  0
  1  2  2  0
  2  3  1  0
  3  4  2  0
  5  4  1  6
  5  6  1  0
  6  7  1  0
  7  8  2  0
  8  9  1  0
  9 10  1  0
 10 11  1  0
 11 12  1  1
 11 13  1  0
 13 14  1  1
 14 15  1  0
 15 16  2  0
 16 17  1  0
 17 18  2  0
 18 19  1  0
 19 20  1  0
 20 21  2  0
 21 22  1  0
 22 23  2  0
 23 24  1  0
 24 25  2  0
 19 26  2  0
 18 27  1  0
 27 28  1  0
 28 29  1  0
 13 30  1  0
 30 31  2  0
 30 32  1  0
 32 33  1  0
 33 34  1  0
 34 35  1  0
 34 36  1  0
 11 37  1  0
 37 38  1  0
 38 39  1  1
  4 40  1  0
 40 41  2  0
 41  2  1  0
 38  5  1  0
 10  6  2  0
 26 15  1  0
 29 17  1  0
 25 20  1  0
M  END
>  <smiles>  (1446) 
C21002-P190

>  <fragmenstein_outcome>  (1446) 
acceptable

>  <inchikey>  (1446) 
DVGFYGCPFOHOHB-UHFFFAOYSA-N

>  <fragmenstein_mode>  (1446) 
expansion

>  <HIPPO Pose ID>  (1446) 
21457

>  <Energy>  (1446) 
142.160268

>  <fragmenstein_error>  (1446) 


>  <tags>  (1446) 
{'openbind_xx01zvns2b_c1_fragmenstein', 'fragmenstein_placed'}

>  <ref_pdb>  (1446) 
175

>  <scratch_subdir>  (1446) 
/opt/xchem-fragalysis-2/maxwin/BulkDock/SCRATCH/511028/C21002-P190

>  <alias>  (1446) 
O=C1C=C([C@H]2c3nc[nH]c3[C@](O)([C@H](Nc3cc4c(c(-c5ccncc5)c3)CNC4)C(=O)NCC(F)F)C[C@H]2Br)C=N1

>  <HIPPO Compound ID>  (1446) 
21002

>  <fragmenstein_runtime>  (1446) 
14.302266

$$$$
CNCn1cnc2c([C@@](O)(Nc3ccc4c(c3)CNC4)C(=O)NCC(F)F)cc(Br)cc21
     RDKit          3D

 32 35  0  0  0  0  0  0  0  0999 V2000
   -4.9354    8.7023  -20.0346 C   0  0  0  0  0  0  0  0  0  0  0  0
   -5.3240    8.2685  -18.6986 N   0  0  0  0  0  0  0  0  0  0  0  0
   -4.9267    6.8690  -18.4996 C   0  0  0  0  0  0  0  0  0  0  0  0
   -5.3605    6.4803  -17.1679 N   0  0  0  0  0  0  0  0  0  0  0  0
   -4.6613    6.6978  -16.0115 C   0  0  0  0  0  0  0  0  0  0  0  0
   -5.2836    6.2051  -14.9645 N   0  0  0  0  0  0  0  0  0  0  0  0
   -6.4265    5.6160  -15.4692 C   0  0  0  0  0  0  0  0  0  0  0  0
   -7.4418    4.9477  -14.7492 C   0  0  0  0  0  0  0  0  0  0  0  0
   -7.3116    4.6933  -13.2398 C   0  0  1  0  0  0  0  0  0  0  0  0
   -6.5505    5.7563  -12.6576 O   0  0  0  0  0  0  0  0  0  0  0  0
   -8.6181    4.7731  -12.5741 N   0  0  0  0  0  0  0  0  0  0  0  0
   -8.5525    4.5524  -11.1680 C   0  0  0  0  0  0  0  0  0  0  0  0
   -8.3016    5.6337  -10.2898 C   0  0  0  0  0  0  0  0  0  0  0  0
   -8.3095    5.4669   -8.9029 C   0  0  0  0  0  0  0  0  0  0  0  0
   -8.5822    4.2079   -8.4080 C   0  0  0  0  0  0  0  0  0  0  0  0
   -8.7645    3.1218   -9.2608 C   0  0  0  0  0  0  0  0  0  0  0  0
   -8.7295    3.2690  -10.6397 C   0  0  0  0  0  0  0  0  0  0  0  0
   -9.0207    1.9022   -8.4386 C   0  0  0  0  0  0  0  0  0  0  0  0
   -9.3904    2.4184   -7.0924 N   0  0  0  0  0  0  0  0  0  0  0  0
   -8.7727    3.7592   -6.9983 C   0  0  0  0  0  0  0  0  0  0  0  0
   -6.6550    3.2219  -13.0823 C   0  0  0  0  0  0  0  0  0  0  0  0
   -7.1312    2.2448  -13.5147 O   0  0  0  0  0  0  0  0  0  0  0  0
   -5.2936    3.4470  -12.3667 N   0  0  0  0  0  0  0  0  0  0  0  0
   -4.2068    2.5399  -12.1242 C   0  0  0  0  0  0  0  0  0  0  0  0
   -3.2793    2.4173  -13.3306 C   0  0  0  0  0  0  0  0  0  0  0  0
   -3.9529    2.4221  -14.5048 F   0  0  0  0  0  0  0  0  0  0  0  0
   -2.4299    3.4762  -13.3682 F   0  0  0  0  0  0  0  0  0  0  0  0
   -8.5113    4.4385  -15.5250 C   0  0  0  0  0  0  0  0  0  0  0  0
   -8.5524    4.6062  -16.9149 C   0  0  0  0  0  0  0  0  0  0  0  0
  -10.0299    3.9980  -17.9215 Br  0  0  0  0  0  0  0  0  0  0  0  0
   -7.5356    5.2587  -17.6127 C   0  0  0  0  0  0  0  0  0  0  0  0
   -6.4901    5.7682  -16.8485 C   0  0  0  0  0  0  0  0  0  0  0  0
  1  2  1  0
  2  3  1  0
  3  4  1  0
  4  5  1  0
  5  6  2  0
  6  7  1  0
  7  8  2  0
  8  9  1  0
  9 10  1  1
  9 11  1  0
 11 12  1  0
 12 13  2  0
 13 14  1  0
 14 15  2  0
 15 16  1  0
 16 17  2  0
 16 18  1  0
 18 19  1  0
 19 20  1  0
  9 21  1  0
 21 22  2  0
 21 23  1  0
 23 24  1  0
 24 25  1  0
 25 26  1  0
 25 27  1  0
  8 28  1  0
 28 29  2  0
 29 30  1  0
 29 31  1  0
 31 32  2  0
 32  4  1  0
 32  7  1  0
 17 12  1  0
 20 15  1  0
M  END
>  <smiles>  (1447) 
C21001-P190

>  <fragmenstein_outcome>  (1447) 
acceptable

>  <inchikey>  (1447) 
SJMHSHXWSMJZQX-UHFFFAOYSA-N

>  <fragmenstein_mode>  (1447) 
expansion

>  <HIPPO Pose ID>  (1447) 
21460

>  <Energy>  (1447) 
113.219045

>  <fragmenstein_error>  (1447) 


>  <tags>  (1447) 
{'openbind_xx01zvns2b_c1_fragmenstein', 'fragmenstein_placed'}

>  <ref_pdb>  (1447) 
175

>  <scratch_subdir>  (1447) 
/opt/xchem-fragalysis-2/maxwin/BulkDock/SCRATCH/511028/C21001-P190

>  <alias>  (1447) 
CNCn1cnc2c([C@@](O)(Nc3ccc4c(c3)CNC4)C(=O)NCC(F)F)cc(Br)cc21

>  <HIPPO Compound ID>  (1447) 
29097

>  <fragmenstein_runtime>  (1447) 
6.103457

$$$$
O=C1CCC[C@@]2(N1)c1nc[nH]c1[C@@H]([C@](O)(Nc1ccc3c(c1)CNC3)C(=O)NCC(F)F)C[C@H]2Br
     RDKit          3D

 35 39  0  0  0  0  0  0  0  0999 V2000
   -3.1954    4.5627  -17.6076 O   0  0  0  0  0  0  0  0  0  0  0  0
   -4.2428    5.0262  -18.0476 C   0  0  0  0  0  0  0  0  0  0  0  0
   -4.2938    6.1287  -19.0685 C   0  0  0  0  0  0  0  0  0  0  0  0
   -5.6738    6.1879  -19.6998 C   0  0  0  0  0  0  0  0  0  0  0  0
   -6.7276    6.4094  -18.6157 C   0  0  0  0  0  0  0  0  0  0  0  0
   -6.6469    5.4120  -17.4531 C   0  0  1  0  0  0  0  0  0  0  0  0
   -5.4453    4.5526  -17.6074 N   0  0  0  0  0  0  0  0  0  0  0  0
   -6.3336    6.1410  -16.1513 C   0  0  0  0  0  0  0  0  0  0  0  0
   -5.5298    7.2458  -16.0295 N   0  0  0  0  0  0  0  0  0  0  0  0
   -5.4202    7.4478  -14.7346 C   0  0  0  0  0  0  0  0  0  0  0  0
   -6.1241    6.5229  -14.0112 N   0  0  0  0  0  0  0  0  0  0  0  0
   -6.6868    5.6675  -14.9081 C   0  0  0  0  0  0  0  0  0  0  0  0
   -7.4661    4.4107  -14.7137 C   0  0  1  0  0  0  0  0  0  0  0  0
   -7.9659    3.9804  -13.2810 C   0  0  2  0  0  0  0  0  0  0  0  0
   -9.3539    3.8697  -13.3282 O   0  0  0  0  0  0  0  0  0  0  0  0
   -7.7399    5.0244  -12.2612 N   0  0  0  0  0  0  0  0  0  0  0  0
   -8.0217    4.7081  -10.9004 C   0  0  0  0  0  0  0  0  0  0  0  0
   -7.8908    5.7628   -9.9692 C   0  0  0  0  0  0  0  0  0  0  0  0
   -8.1424    5.5805   -8.6033 C   0  0  0  0  0  0  0  0  0  0  0  0
   -8.5329    4.3285   -8.1722 C   0  0  0  0  0  0  0  0  0  0  0  0
   -8.6567    3.2767   -9.0682 C   0  0  0  0  0  0  0  0  0  0  0  0
   -8.4148    3.4473  -10.4230 C   0  0  0  0  0  0  0  0  0  0  0  0
   -9.0551    2.0410   -8.3290 C   0  0  0  0  0  0  0  0  0  0  0  0
   -9.5116    2.5193   -6.9993 N   0  0  0  0  0  0  0  0  0  0  0  0
   -8.8817    3.8434   -6.8045 C   0  0  0  0  0  0  0  0  0  0  0  0
   -7.0191    2.7037  -13.0355 C   0  0  0  0  0  0  0  0  0  0  0  0
   -7.3295    1.6102  -13.3049 O   0  0  0  0  0  0  0  0  0  0  0  0
   -5.6728    3.2649  -12.5030 N   0  0  0  0  0  0  0  0  0  0  0  0
   -4.4083    2.6110  -12.2846 C   0  0  0  0  0  0  0  0  0  0  0  0
   -3.4410    2.9168  -13.4267 C   0  0  0  0  0  0  0  0  0  0  0  0
   -3.9291    2.4383  -14.5986 F   0  0  0  0  0  0  0  0  0  0  0  0
   -2.2578    2.2973  -13.2023 F   0  0  0  0  0  0  0  0  0  0  0  0
   -8.5490    4.4342  -15.8127 C   0  0  0  0  0  0  0  0  0  0  0  0
   -7.9070    4.4657  -17.2226 C   0  0  1  0  0  0  0  0  0  0  0  0
   -9.3887    4.4533  -18.4988 Br  0  0  0  0  0  0  0  0  0  0  0  0
  1  2  2  0
  2  3  1  0
  3  4  1  0
  4  5  1  0
  6  5  1  6
  6  7  1  0
  6  8  1  0
  8  9  1  0
  9 10  2  0
 10 11  1  0
 11 12  1  0
 12 13  1  0
 13 14  1  0
 14 15  1  6
 14 16  1  0
 16 17  1  0
 17 18  2  0
 18 19  1  0
 19 20  2  0
 20 21  1  0
 21 22  2  0
 21 23  1  0
 23 24  1  0
 24 25  1  0
 14 26  1  0
 26 27  2  0
 26 28  1  0
 28 29  1  0
 29 30  1  0
 30 31  1  0
 30 32  1  0
 13 33  1  6
 33 34  1  0
 34 35  1  6
  7  2  1  0
 12  8  2  0
 22 17  1  0
 34  6  1  0
 25 20  1  0
M  END
>  <smiles>  (1448) 
C21010-P190

>  <fragmenstein_outcome>  (1448) 
acceptable

>  <inchikey>  (1448) 
OYQXQUPIEVONJN-UHFFFAOYSA-N

>  <fragmenstein_mode>  (1448) 
expansion

>  <HIPPO Pose ID>  (1448) 
21467

>  <Energy>  (1448) 
155.775589

>  <fragmenstein_error>  (1448) 


>  <tags>  (1448) 
{'openbind_xx01zvns2b_c1_fragmenstein', 'fragmenstein_placed'}

>  <ref_pdb>  (1448) 
175

>  <scratch_subdir>  (1448) 
/opt/xchem-fragalysis-2/maxwin/BulkDock/SCRATCH/511028/C21010-P190

>  <alias>  (1448) 
O=C1CCC[C@@]2(N1)c1nc[nH]c1[C@@H]([C@](O)(Nc1ccc3c(c1)CNC3)C(=O)NCC(F)F)C[C@H]2Br

>  <HIPPO Compound ID>  (1448) 
24756

>  <fragmenstein_runtime>  (1448) 
11.976054

$$$$
NCNc1cc(NNCC2CCNCC2)c(Br)cc1[C@@](O)(Nc1ccc2c(c1)CNC2)C(=O)NCC(F)F
     RDKit          3D

 38 41  0  0  0  0  0  0  0  0999 V2000
   -3.1118    7.2729  -13.8847 N   0  0  0  0  0  0  0  0  0  0  0  0
   -3.9696    6.6739  -14.8854 C   0  0  0  0  0  0  0  0  0  0  0  0
   -5.2940    6.3423  -14.4402 N   0  0  0  0  0  0  0  0  0  0  0  0
   -6.2151    5.6648  -15.2484 C   0  0  0  0  0  0  0  0  0  0  0  0
   -6.1536    5.8311  -16.6355 C   0  0  0  0  0  0  0  0  0  0  0  0
   -7.1252    5.3457  -17.5127 C   0  0  0  0  0  0  0  0  0  0  0  0
   -6.9760    5.5958  -18.8924 N   0  0  0  0  0  0  0  0  0  0  0  0
   -5.7215    5.4156  -19.5159 N   0  0  0  0  0  0  0  0  0  0  0  0
   -5.1915    6.7197  -19.9170 C   0  0  0  0  0  0  0  0  0  0  0  0
   -4.0453    6.5754  -20.9343 C   0  0  0  0  0  0  0  0  0  0  0  0
   -4.5187    5.9635  -22.2639 C   0  0  0  0  0  0  0  0  0  0  0  0
   -5.0781    7.0262  -23.2069 C   0  0  0  0  0  0  0  0  0  0  0  0
   -4.1401    8.1106  -23.5119 N   0  0  0  0  0  0  0  0  0  0  0  0
   -2.9814    8.1602  -22.6208 C   0  0  0  0  0  0  0  0  0  0  0  0
   -3.3852    7.9506  -21.1653 C   0  0  0  0  0  0  0  0  0  0  0  0
   -8.2262    4.6851  -16.9588 C   0  0  0  0  0  0  0  0  0  0  0  0
   -9.6602    4.0947  -18.0572 Br  0  0  0  0  0  0  0  0  0  0  0  0
   -8.3049    4.4584  -15.5743 C   0  0  0  0  0  0  0  0  0  0  0  0
   -7.3047    4.9335  -14.6937 C   0  0  0  0  0  0  0  0  0  0  0  0
   -7.3174    4.5265  -13.2003 C   0  0  1  0  0  0  0  0  0  0  0  0
   -6.5757    5.5273  -12.5002 O   0  0  0  0  0  0  0  0  0  0  0  0
   -8.6555    4.4970  -12.6004 N   0  0  0  0  0  0  0  0  0  0  0  0
   -8.6265    4.3566  -11.1760 C   0  0  0  0  0  0  0  0  0  0  0  0
   -8.4410    5.4874  -10.3454 C   0  0  0  0  0  0  0  0  0  0  0  0
   -8.4281    5.3832   -8.9512 C   0  0  0  0  0  0  0  0  0  0  0  0
   -8.6455    4.1390   -8.3970 C   0  0  0  0  0  0  0  0  0  0  0  0
   -8.8014    3.0124   -9.1990 C   0  0  0  0  0  0  0  0  0  0  0  0
   -8.7694    3.0967  -10.5822 C   0  0  0  0  0  0  0  0  0  0  0  0
   -9.0251    1.8236   -8.3234 C   0  0  0  0  0  0  0  0  0  0  0  0
   -9.4009    2.3913   -7.0017 N   0  0  0  0  0  0  0  0  0  0  0  0
   -8.8109    3.7464   -6.9672 C   0  0  0  0  0  0  0  0  0  0  0  0
   -6.6163    3.0909  -13.0949 C   0  0  0  0  0  0  0  0  0  0  0  0
   -7.0667    2.0946  -13.5072 O   0  0  0  0  0  0  0  0  0  0  0  0
   -5.2364    3.3776  -12.4463 N   0  0  0  0  0  0  0  0  0  0  0  0
   -4.1009    2.5244  -12.2605 C   0  0  0  0  0  0  0  0  0  0  0  0
   -3.1325    2.7296  -13.4163 C   0  0  0  0  0  0  0  0  0  0  0  0
   -3.6792    2.3181  -14.5873 F   0  0  0  0  0  0  0  0  0  0  0  0
   -2.0180    1.9876  -13.2147 F   0  0  0  0  0  0  0  0  0  0  0  0
  1  2  1  0
  2  3  1  0
  3  4  1  0
  4  5  2  0
  5  6  1  0
  6  7  1  0
  7  8  1  0
  8  9  1  0
  9 10  1  0
 10 11  1  0
 11 12  1  0
 12 13  1  0
 13 14  1  0
 14 15  1  0
  6 16  2  0
 16 17  1  0
 16 18  1  0
 18 19  2  0
 19 20  1  0
 20 21  1  1
 20 22  1  0
 22 23  1  0
 23 24  2  0
 24 25  1  0
 25 26  2  0
 26 27  1  0
 27 28  2  0
 27 29  1  0
 29 30  1  0
 30 31  1  0
 20 32  1  0
 32 33  2  0
 32 34  1  0
 34 35  1  0
 35 36  1  0
 36 37  1  0
 36 38  1  0
 19  4  1  0
 28 23  1  0
 15 10  1  0
 31 26  1  0
M  END
>  <smiles>  (1449) 
C21015-P190

>  <fragmenstein_outcome>  (1449) 
acceptable

>  <inchikey>  (1449) 
VAFMNXVPGQMAML-UHFFFAOYSA-N

>  <fragmenstein_mode>  (1449) 
expansion

>  <HIPPO Pose ID>  (1449) 
21471

>  <Energy>  (1449) 
121.315936

>  <fragmenstein_error>  (1449) 


>  <tags>  (1449) 
{'openbind_xx01zvns2b_c1_fragmenstein', 'fragmenstein_placed'}

>  <ref_pdb>  (1449) 
175

>  <scratch_subdir>  (1449) 
/opt/xchem-fragalysis-2/maxwin/BulkDock/SCRATCH/511028/C21015-P190

>  <alias>  (1449) 
NCNc1cc(NNCC2CCNCC2)c(Br)cc1[C@@](O)(Nc1ccc2c(c1)CNC2)C(=O)NCC(F)F

>  <HIPPO Compound ID>  (1449) 
27072

>  <fragmenstein_runtime>  (1449) 
12.407383

$$$$
NCNc1cc(NNCCC2CCNCC2)c(Br)cc1[C@@](O)(Nc1ccc2c(c1)CNC2)C(=O)NCC(F)F
     RDKit          3D

 39 42  0  0  0  0  0  0  0  0999 V2000
   -3.2123    7.4901  -13.8715 N   0  0  0  0  0  0  0  0  0  0  0  0
   -4.1236    6.9828  -14.8770 C   0  0  0  0  0  0  0  0  0  0  0  0
   -5.0559    5.9819  -14.4073 N   0  0  0  0  0  0  0  0  0  0  0  0
   -6.1203    5.5754  -15.2509 C   0  0  0  0  0  0  0  0  0  0  0  0
   -6.0144    5.6999  -16.6392 C   0  0  0  0  0  0  0  0  0  0  0  0
   -7.0197    5.2895  -17.5246 C   0  0  0  0  0  0  0  0  0  0  0  0
   -6.7948    5.4726  -18.9115 N   0  0  0  0  0  0  0  0  0  0  0  0
   -5.5038    5.1063  -19.3617 N   0  0  0  0  0  0  0  0  0  0  0  0
   -5.2008    5.7485  -20.6365 C   0  0  0  0  0  0  0  0  0  0  0  0
   -3.7224    5.5146  -20.9667 C   0  0  0  0  0  0  0  0  0  0  0  0
   -3.2771    6.1378  -22.3079 C   0  0  0  0  0  0  0  0  0  0  0  0
   -3.3446    7.6707  -22.3213 C   0  0  0  0  0  0  0  0  0  0  0  0
   -2.2852    8.3055  -21.4147 C   0  0  0  0  0  0  0  0  0  0  0  0
   -0.9747    7.6495  -21.4487 N   0  0  0  0  0  0  0  0  0  0  0  0
   -0.8105    6.8025  -22.6282 C   0  0  0  0  0  0  0  0  0  0  0  0
   -1.8447    5.6740  -22.6626 C   0  0  0  0  0  0  0  0  0  0  0  0
   -8.1775    4.7229  -16.9826 C   0  0  0  0  0  0  0  0  0  0  0  0
   -9.6161    4.1746  -18.0972 Br  0  0  0  0  0  0  0  0  0  0  0  0
   -8.2905    4.5201  -15.5961 C   0  0  0  0  0  0  0  0  0  0  0  0
   -7.2628    4.9178  -14.7085 C   0  0  0  0  0  0  0  0  0  0  0  0
   -7.3065    4.5302  -13.2177 C   0  0  1  0  0  0  0  0  0  0  0  0
   -6.5676    5.5354  -12.5005 O   0  0  0  0  0  0  0  0  0  0  0  0
   -8.6626    4.4722  -12.6429 N   0  0  0  0  0  0  0  0  0  0  0  0
   -8.6796    4.3790  -11.2193 C   0  0  0  0  0  0  0  0  0  0  0  0
   -8.5076    5.5423  -10.4315 C   0  0  0  0  0  0  0  0  0  0  0  0
   -8.4386    5.4806   -9.0375 C   0  0  0  0  0  0  0  0  0  0  0  0
   -8.5913    4.2457   -8.4373 C   0  0  0  0  0  0  0  0  0  0  0  0
   -8.7696    3.0959   -9.1964 C   0  0  0  0  0  0  0  0  0  0  0  0
   -8.7904    3.1388  -10.5821 C   0  0  0  0  0  0  0  0  0  0  0  0
   -8.9449    1.9217   -8.2943 C   0  0  0  0  0  0  0  0  0  0  0  0
   -9.0291    2.4751   -6.9173 N   0  0  0  0  0  0  0  0  0  0  0  0
   -8.6493    3.8998   -6.9899 C   0  0  0  0  0  0  0  0  0  0  0  0
   -6.6021    3.0933  -13.0766 C   0  0  0  0  0  0  0  0  0  0  0  0
   -7.1232    2.0654  -13.2727 O   0  0  0  0  0  0  0  0  0  0  0  0
   -5.1497    3.4163  -12.6323 N   0  0  0  0  0  0  0  0  0  0  0  0
   -4.0273    2.5547  -12.4332 C   0  0  0  0  0  0  0  0  0  0  0  0
   -3.0855    2.6578  -13.6124 C   0  0  0  0  0  0  0  0  0  0  0  0
   -3.6265    2.0730  -14.7070 F   0  0  0  0  0  0  0  0  0  0  0  0
   -1.9493    1.9803  -13.3137 F   0  0  0  0  0  0  0  0  0  0  0  0
  1  2  1  0
  2  3  1  0
  3  4  1  0
  4  5  2  0
  5  6  1  0
  6  7  1  0
  7  8  1  0
  8  9  1  0
  9 10  1  0
 10 11  1  0
 11 12  1  0
 12 13  1  0
 13 14  1  0
 14 15  1  0
 15 16  1  0
  6 17  2  0
 17 18  1  0
 17 19  1  0
 19 20  2  0
 20 21  1  0
 21 22  1  1
 21 23  1  0
 23 24  1  0
 24 25  2  0
 25 26  1  0
 26 27  2  0
 27 28  1  0
 28 29  2  0
 28 30  1  0
 30 31  1  0
 31 32  1  0
 21 33  1  0
 33 34  2  0
 33 35  1  0
 35 36  1  0
 36 37  1  0
 37 38  1  0
 37 39  1  0
 20  4  1  0
 29 24  1  0
 16 11  1  0
 32 27  1  0
M  END
>  <smiles>  (1450) 
C21022-P190

>  <fragmenstein_outcome>  (1450) 
acceptable

>  <inchikey>  (1450) 
GVGQSJOENXUDDE-UHFFFAOYSA-N

>  <fragmenstein_mode>  (1450) 
expansion

>  <HIPPO Pose ID>  (1450) 
21474

>  <Energy>  (1450) 
119.354664

>  <fragmenstein_error>  (1450) 


>  <tags>  (1450) 
{'openbind_xx01zvns2b_c1_fragmenstein', 'fragmenstein_placed'}

>  <ref_pdb>  (1450) 
175

>  <scratch_subdir>  (1450) 
/opt/xchem-fragalysis-2/maxwin/BulkDock/SCRATCH/511028/C21022-P190

>  <alias>  (1450) 
NCNc1cc(NNCCC2CCNCC2)c(Br)cc1[C@@](O)(Nc1ccc2c(c1)CNC2)C(=O)NCC(F)F

>  <HIPPO Compound ID>  (1450) 
21022

>  <fragmenstein_runtime>  (1450) 
14.587967

$$$$
NCNc1cc(NCCC2CCOCC2)c(Br)cc1[C@@](O)(Nc1ccc2c(c1)CNC2)C(=O)NCC(F)F
     RDKit          3D

 38 41  0  0  0  0  0  0  0  0999 V2000
   -3.1303    6.9738  -13.6977 N   0  0  0  0  0  0  0  0  0  0  0  0
   -4.0850    6.7158  -14.7559 C   0  0  0  0  0  0  0  0  0  0  0  0
   -4.9754    5.6051  -14.4725 N   0  0  0  0  0  0  0  0  0  0  0  0
   -6.1207    5.4320  -15.2903 C   0  0  0  0  0  0  0  0  0  0  0  0
   -6.0654    5.7283  -16.6513 C   0  0  0  0  0  0  0  0  0  0  0  0
   -7.1171    5.4584  -17.5200 C   0  0  0  0  0  0  0  0  0  0  0  0
   -7.0852    5.9595  -18.8144 N   0  0  0  0  0  0  0  0  0  0  0  0
   -5.8675    6.3372  -19.5263 C   0  0  0  0  0  0  0  0  0  0  0  0
   -5.1374    5.1004  -20.0471 C   0  0  0  0  0  0  0  0  0  0  0  0
   -3.8244    5.3654  -20.8145 C   0  0  0  0  0  0  0  0  0  0  0  0
   -2.7205    5.9572  -19.9202 C   0  0  0  0  0  0  0  0  0  0  0  0
   -2.2984    7.3569  -20.3435 C   0  0  0  0  0  0  0  0  0  0  0  0
   -3.4531    8.1151  -20.6887 O   0  0  0  0  0  0  0  0  0  0  0  0
   -4.0152    7.6873  -21.9273 C   0  0  0  0  0  0  0  0  0  0  0  0
   -4.0187    6.1697  -22.1058 C   0  0  0  0  0  0  0  0  0  0  0  0
   -8.2399    4.8020  -16.9780 C   0  0  0  0  0  0  0  0  0  0  0  0
   -9.6998    4.2892  -18.0916 Br  0  0  0  0  0  0  0  0  0  0  0  0
   -8.3228    4.4889  -15.6085 C   0  0  0  0  0  0  0  0  0  0  0  0
   -7.2731    4.8163  -14.7343 C   0  0  0  0  0  0  0  0  0  0  0  0
   -7.2951    4.4663  -13.2247 C   0  0  1  0  0  0  0  0  0  0  0  0
   -6.6141    5.5187  -12.5261 O   0  0  0  0  0  0  0  0  0  0  0  0
   -8.6495    4.3483  -12.6619 N   0  0  0  0  0  0  0  0  0  0  0  0
   -8.6315    4.2659  -11.2358 C   0  0  0  0  0  0  0  0  0  0  0  0
   -8.4180    5.4211  -10.4490 C   0  0  0  0  0  0  0  0  0  0  0  0
   -8.4058    5.3696   -9.0516 C   0  0  0  0  0  0  0  0  0  0  0  0
   -8.6421    4.1498   -8.4508 C   0  0  0  0  0  0  0  0  0  0  0  0
   -8.8262    2.9985   -9.2110 C   0  0  0  0  0  0  0  0  0  0  0  0
   -8.8077    3.0348  -10.5959 C   0  0  0  0  0  0  0  0  0  0  0  0
   -9.0478    1.8422   -8.2940 C   0  0  0  0  0  0  0  0  0  0  0  0
   -9.4008    2.4581   -6.9867 N   0  0  0  0  0  0  0  0  0  0  0  0
   -8.7890    3.8056   -7.0071 C   0  0  0  0  0  0  0  0  0  0  0  0
   -6.5386    3.0491  -13.0838 C   0  0  0  0  0  0  0  0  0  0  0  0
   -6.9413    2.0405  -13.5176 O   0  0  0  0  0  0  0  0  0  0  0  0
   -5.1960    3.3747  -12.3762 N   0  0  0  0  0  0  0  0  0  0  0  0
   -4.0448    2.5556  -12.1446 C   0  0  0  0  0  0  0  0  0  0  0  0
   -3.0263    2.8211  -13.2465 C   0  0  0  0  0  0  0  0  0  0  0  0
   -3.5955    2.6717  -14.4742 F   0  0  0  0  0  0  0  0  0  0  0  0
   -2.0119    1.9296  -13.1698 F   0  0  0  0  0  0  0  0  0  0  0  0
  1  2  1  0
  2  3  1  0
  3  4  1  0
  4  5  2  0
  5  6  1  0
  6  7  1  0
  7  8  1  0
  8  9  1  0
  9 10  1  0
 10 11  1  0
 11 12  1  0
 12 13  1  0
 13 14  1  0
 14 15  1  0
  6 16  2  0
 16 17  1  0
 16 18  1  0
 18 19  2  0
 19 20  1  0
 20 21  1  1
 20 22  1  0
 22 23  1  0
 23 24  2  0
 24 25  1  0
 25 26  2  0
 26 27  1  0
 27 28  2  0
 27 29  1  0
 29 30  1  0
 30 31  1  0
 20 32  1  0
 32 33  2  0
 32 34  1  0
 34 35  1  0
 35 36  1  0
 36 37  1  0
 36 38  1  0
 19  4  1  0
 28 23  1  0
 15 10  1  0
 31 26  1  0
M  END
>  <smiles>  (1451) 
C21056-P190

>  <fragmenstein_outcome>  (1451) 
acceptable

>  <inchikey>  (1451) 
CUCJSSQXEPJPRQ-UHFFFAOYSA-N

>  <fragmenstein_mode>  (1451) 
expansion

>  <HIPPO Pose ID>  (1451) 
21485

>  <Energy>  (1451) 
105.151528

>  <fragmenstein_error>  (1451) 


>  <tags>  (1451) 
{'openbind_xx01zvns2b_c1_fragmenstein', 'fragmenstein_placed'}

>  <ref_pdb>  (1451) 
175

>  <scratch_subdir>  (1451) 
/opt/xchem-fragalysis-2/maxwin/BulkDock/SCRATCH/511028/C21056-P190

>  <alias>  (1451) 
NCNc1cc(NCCC2CCOCC2)c(Br)cc1[C@@](O)(Nc1ccc2c(c1)CNC2)C(=O)NCC(F)F

>  <HIPPO Compound ID>  (1451) 
25489

>  <fragmenstein_runtime>  (1451) 
9.136142

$$$$
Cc1ccncc1[C@@H](C)Nc1cc(NCN)c([C@@](O)(Nc2ccc3c(c2)CNC3)C(=O)NCC(F)F)cc1Br
     RDKit          3D

 39 42  0  0  0  0  0  0  0  0999 V2000
   -2.6768    4.7443  -19.5205 C   0  0  0  0  0  0  0  0  0  0  0  0
   -3.3665    5.3519  -20.7139 C   0  0  0  0  0  0  0  0  0  0  0  0
   -2.7134    5.2962  -21.9493 C   0  0  0  0  0  0  0  0  0  0  0  0
   -3.3161    5.8684  -23.0550 C   0  0  0  0  0  0  0  0  0  0  0  0
   -4.5168    6.4781  -23.0228 N   0  0  0  0  0  0  0  0  0  0  0  0
   -5.1217    6.5428  -21.8135 C   0  0  0  0  0  0  0  0  0  0  0  0
   -4.5971    6.0393  -20.6240 C   0  0  0  0  0  0  0  0  0  0  0  0
   -5.2384    6.3531  -19.2842 C   0  0  1  0  0  0  0  0  0  0  0  0
   -5.6783    7.8123  -19.1607 C   0  0  0  0  0  0  0  0  0  0  0  0
   -6.3306    5.4304  -18.9163 N   0  0  0  0  0  0  0  0  0  0  0  0
   -6.6807    5.2860  -17.5515 C   0  0  0  0  0  0  0  0  0  0  0  0
   -5.7388    5.5782  -16.5618 C   0  0  0  0  0  0  0  0  0  0  0  0
   -5.9678    5.4984  -15.1867 C   0  0  0  0  0  0  0  0  0  0  0  0
   -4.9467    5.9025  -14.2982 N   0  0  0  0  0  0  0  0  0  0  0  0
   -4.0705    6.9981  -14.6543 C   0  0  0  0  0  0  0  0  0  0  0  0
   -4.6552    8.2852  -14.9856 N   0  0  0  0  0  0  0  0  0  0  0  0
   -7.1594    4.8873  -14.7260 C   0  0  0  0  0  0  0  0  0  0  0  0
   -7.2870    4.5298  -13.2307 C   0  0  1  0  0  0  0  0  0  0  0  0
   -6.6443    5.6055  -12.5476 O   0  0  0  0  0  0  0  0  0  0  0  0
   -8.6633    4.5213  -12.6935 N   0  0  0  0  0  0  0  0  0  0  0  0
   -8.6641    4.3877  -11.2558 C   0  0  0  0  0  0  0  0  0  0  0  0
   -8.4964    5.5258  -10.4286 C   0  0  0  0  0  0  0  0  0  0  0  0
   -8.4405    5.4266   -9.0357 C   0  0  0  0  0  0  0  0  0  0  0  0
   -8.5994    4.1791   -8.4696 C   0  0  0  0  0  0  0  0  0  0  0  0
   -8.7693    3.0508   -9.2606 C   0  0  0  0  0  0  0  0  0  0  0  0
   -8.7832    3.1309  -10.6480 C   0  0  0  0  0  0  0  0  0  0  0  0
   -8.9416    1.8553   -8.3859 C   0  0  0  0  0  0  0  0  0  0  0  0
   -9.0228    2.3693   -6.9926 N   0  0  0  0  0  0  0  0  0  0  0  0
   -8.6773    3.8036   -7.0317 C   0  0  0  0  0  0  0  0  0  0  0  0
   -6.6360    3.0641  -13.0416 C   0  0  0  0  0  0  0  0  0  0  0  0
   -7.1718    2.0737  -13.3584 O   0  0  0  0  0  0  0  0  0  0  0  0
   -5.2202    3.2966  -12.4546 N   0  0  0  0  0  0  0  0  0  0  0  0
   -4.1437    2.3762  -12.2267 C   0  0  0  0  0  0  0  0  0  0  0  0
   -3.1882    2.3284  -13.4114 C   0  0  0  0  0  0  0  0  0  0  0  0
   -3.8434    2.3074  -14.5947 F   0  0  0  0  0  0  0  0  0  0  0  0
   -2.4035    3.4361  -13.4120 F   0  0  0  0  0  0  0  0  0  0  0  0
   -8.1189    4.5235  -15.6953 C   0  0  0  0  0  0  0  0  0  0  0  0
   -7.8877    4.7344  -17.0815 C   0  0  0  0  0  0  0  0  0  0  0  0
   -9.2906    4.2459  -18.2752 Br  0  0  0  0  0  0  0  0  0  0  0  0
  1  2  1  0
  2  3  2  0
  3  4  1  0
  4  5  2  0
  5  6  1  0
  6  7  2  0
  7  8  1  0
  8  9  1  6
  8 10  1  0
 10 11  1  0
 11 12  2  0
 12 13  1  0
 13 14  1  0
 14 15  1  0
 15 16  1  0
 13 17  2  0
 17 18  1  0
 18 19  1  1
 18 20  1  0
 20 21  1  0
 21 22  2  0
 22 23  1  0
 23 24  2  0
 24 25  1  0
 25 26  2  0
 25 27  1  0
 27 28  1  0
 28 29  1  0
 18 30  1  0
 30 31  2  0
 30 32  1  0
 32 33  1  0
 33 34  1  0
 34 35  1  0
 34 36  1  0
 17 37  1  0
 37 38  2  0
 38 39  1  0
  7  2  1  0
 38 11  1  0
 26 21  1  0
 29 24  1  0
M  END
>  <smiles>  (1452) 
C21057-P190

>  <fragmenstein_outcome>  (1452) 
acceptable

>  <inchikey>  (1452) 
JCIGKSOBIMHABW-UHFFFAOYSA-N

>  <fragmenstein_mode>  (1452) 
expansion

>  <HIPPO Pose ID>  (1452) 
21486

>  <Energy>  (1452) 
120.7585

>  <fragmenstein_error>  (1452) 


>  <tags>  (1452) 
{'openbind_xx01zvns2b_c1_fragmenstein', 'fragmenstein_placed'}

>  <ref_pdb>  (1452) 
175

>  <scratch_subdir>  (1452) 
/opt/xchem-fragalysis-2/maxwin/BulkDock/SCRATCH/511028/C21057-P190

>  <alias>  (1452) 
Cc1ccncc1[C@@H](C)Nc1cc(NCN)c([C@@](O)(Nc2ccc3c(c2)CNC3)C(=O)NCC(F)F)cc1Br

>  <HIPPO Compound ID>  (1452) 
42656

>  <fragmenstein_runtime>  (1452) 
6.330081

$$$$
NCc1cccc(N[C@](O)(F)c2cccc3c2C[C@H]2NCCCN32)c1
     RDKit          3D

 25 28  0  0  0  0  0  0  0  0999 V2000
   -8.6499    2.3927   -7.0152 N   0  0  0  0  0  0  0  0  0  0  0  0
   -8.8341    2.1582   -8.4522 C   0  0  0  0  0  0  0  0  0  0  0  0
   -8.5695    3.3792   -9.3112 C   0  0  0  0  0  0  0  0  0  0  0  0
   -8.4582    4.6534   -8.7472 C   0  0  0  0  0  0  0  0  0  0  0  0
   -8.2180    5.7585   -9.5515 C   0  0  0  0  0  0  0  0  0  0  0  0
   -8.0939    5.6068  -10.9353 C   0  0  0  0  0  0  0  0  0  0  0  0
   -8.2279    4.3581  -11.5618 C   0  0  0  0  0  0  0  0  0  0  0  0
   -7.9988    4.1397  -12.9409 N   0  0  0  0  0  0  0  0  0  0  0  0
   -7.7865    5.2423  -13.8605 C   0  0  2  0  0  0  0  0  0  0  0  0
   -6.5732    5.8504  -13.4965 O   0  0  0  0  0  0  0  0  0  0  0  0
   -8.7585    6.1735  -13.6461 F   0  0  0  0  0  0  0  0  0  0  0  0
   -7.7614    4.8606  -15.3331 C   0  0  0  0  0  0  0  0  0  0  0  0
   -8.9670    4.4095  -15.9085 C   0  0  0  0  0  0  0  0  0  0  0  0
   -9.1269    4.2224  -17.2886 C   0  0  0  0  0  0  0  0  0  0  0  0
   -8.0709    4.4802  -18.1524 C   0  0  0  0  0  0  0  0  0  0  0  0
   -6.8641    4.8986  -17.6214 C   0  0  0  0  0  0  0  0  0  0  0  0
   -6.6997    5.0660  -16.2287 C   0  0  0  0  0  0  0  0  0  0  0  0
   -5.2572    5.4533  -15.9964 C   0  0  0  0  0  0  0  0  0  0  0  0
   -4.8289    5.8903  -17.4286 C   0  0  1  0  0  0  0  0  0  0  0  0
   -3.4072    5.7837  -17.7604 N   0  0  0  0  0  0  0  0  0  0  0  0
   -3.2458    5.7133  -19.2316 C   0  0  0  0  0  0  0  0  0  0  0  0
   -4.3911    6.3403  -20.0298 C   0  0  0  0  0  0  0  0  0  0  0  0
   -5.7336    5.6815  -19.6908 C   0  0  0  0  0  0  0  0  0  0  0  0
   -5.6989    5.1718  -18.3338 N   0  0  0  0  0  0  0  0  0  0  0  0
   -8.4597    3.2532  -10.7187 C   0  0  0  0  0  0  0  0  0  0  0  0
  1  2  1  0
  2  3  1  0
  3  4  2  0
  4  5  1  0
  5  6  2  0
  6  7  1  0
  7  8  1  0
  8  9  1  0
  9 10  1  1
  9 11  1  0
  9 12  1  0
 12 13  2  0
 13 14  1  0
 14 15  2  0
 15 16  1  0
 16 17  2  0
 17 18  1  0
 19 18  1  1
 19 20  1  0
 20 21  1  0
 21 22  1  0
 22 23  1  0
 23 24  1  0
  7 25  2  0
 25  3  1  0
 17 12  1  0
 24 19  1  0
 24 16  1  0
M  END
>  <smiles>  (1453) 
C21098-P259

>  <fragmenstein_outcome>  (1453) 
acceptable

>  <inchikey>  (1453) 
JWCAJSYLFSKYKR-UHFFFAOYSA-N

>  <fragmenstein_mode>  (1453) 
expansion

>  <HIPPO Pose ID>  (1453) 
21492

>  <Energy>  (1453) 
-60.921403

>  <fragmenstein_error>  (1453) 


>  <tags>  (1453) 
{'openbind_xx01zvns2b_c1_fragmenstein', 'fragmenstein_placed'}

>  <ref_pdb>  (1453) 
175

>  <scratch_subdir>  (1453) 
/opt/xchem-fragalysis-2/maxwin/BulkDock/SCRATCH/511028/C21098-P259

>  <alias>  (1453) 
NCc1cccc(N[C@](O)(F)c2cccc3c2C[C@H]2NCCCN32)c1

>  <HIPPO Compound ID>  (1453) 
21098

>  <fragmenstein_runtime>  (1453) 
5.357192

$$$$
N[C@@H]1C(=O)Nc2cccc(C(=O)N[C@H]3CCC[C@@]4(CCNC4)C3)c21
     RDKit          3D

 24 27  0  0  0  0  0  0  0  0999 V2000
   -4.7062    6.4821  -16.6760 N   0  0  0  0  0  0  0  0  0  0  0  0
   -5.1183    5.1619  -17.1490 C   0  0  2  0  0  0  0  0  0  0  0  0
   -4.8506    5.0216  -18.6821 C   0  0  0  0  0  0  0  0  0  0  0  0
   -3.7876    5.1635  -19.2701 O   0  0  0  0  0  0  0  0  0  0  0  0
   -6.0622    4.6899  -19.2824 N   0  0  0  0  0  0  0  0  0  0  0  0
   -7.0720    4.5529  -18.3411 C   0  0  0  0  0  0  0  0  0  0  0  0
   -8.3754    4.1520  -18.5683 C   0  0  0  0  0  0  0  0  0  0  0  0
   -9.2363    4.0728  -17.4738 C   0  0  0  0  0  0  0  0  0  0  0  0
   -8.7826    4.4163  -16.1903 C   0  0  0  0  0  0  0  0  0  0  0  0
   -7.4534    4.8303  -15.9901 C   0  0  0  0  0  0  0  0  0  0  0  0
   -7.0394    5.3943  -14.6864 C   0  0  0  0  0  0  0  0  0  0  0  0
   -6.5483    6.4486  -14.6847 O   0  0  0  0  0  0  0  0  0  0  0  0
   -7.4404    4.4852  -13.5243 N   0  0  0  0  0  0  0  0  0  0  0  0
   -7.2371    4.6353  -12.0994 C   0  0  1  0  0  0  0  0  0  0  0  0
   -7.5428    6.0898  -11.7120 C   0  0  0  0  0  0  0  0  0  0  0  0
   -7.6337    6.3172  -10.2159 C   0  0  0  0  0  0  0  0  0  0  0  0
   -8.6232    5.3367   -9.6104 C   0  0  0  0  0  0  0  0  0  0  0  0
   -8.2412    3.8630   -9.8691 C   0  0  2  0  0  0  0  0  0  0  0  0
   -9.2286    2.8605   -9.2517 C   0  0  0  0  0  0  0  0  0  0  0  0
   -8.8066    2.7296   -7.8019 C   0  0  0  0  0  0  0  0  0  0  0  0
   -7.5742    3.5215   -7.7033 N   0  0  0  0  0  0  0  0  0  0  0  0
   -7.0048    3.5154   -9.0622 C   0  0  0  0  0  0  0  0  0  0  0  0
   -8.1124    3.6159  -11.3705 C   0  0  0  0  0  0  0  0  0  0  0  0
   -6.5926    4.8761  -17.0735 C   0  0  0  0  0  0  0  0  0  0  0  0
  2  1  1  6
  2  3  1  0
  3  4  2  0
  3  5  1  0
  5  6  1  0
  6  7  2  0
  7  8  1  0
  8  9  2  0
  9 10  1  0
 10 11  1  0
 11 12  2  0
 11 13  1  0
 14 13  1  6
 14 15  1  0
 15 16  1  0
 16 17  1  0
 18 17  1  6
 18 19  1  0
 19 20  1  0
 20 21  1  0
 21 22  1  0
 18 23  1  0
 10 24  2  0
 24  2  1  0
 24  6  1  0
 23 14  1  0
 22 18  1  0
M  END
>  <smiles>  (1454) 
C21174-P191

>  <fragmenstein_outcome>  (1454) 
acceptable

>  <inchikey>  (1454) 
DOXPLBHJYWNMDQ-UHFFFAOYSA-N

>  <fragmenstein_mode>  (1454) 
expansion

>  <HIPPO Pose ID>  (1454) 
21513

>  <Energy>  (1454) 
73.101113

>  <fragmenstein_error>  (1454) 


>  <tags>  (1454) 
{'openbind_xx01zvns2b_c1_fragmenstein', 'fragmenstein_placed'}

>  <ref_pdb>  (1454) 
175

>  <scratch_subdir>  (1454) 
/opt/xchem-fragalysis-2/maxwin/BulkDock/SCRATCH/511028/C21174-P191

>  <alias>  (1454) 
N[C@@H]1C(=O)Nc2cccc(C(=O)N[C@H]3CCC[C@@]4(CCNC4)C3)c21

>  <HIPPO Compound ID>  (1454) 
27762

>  <fragmenstein_runtime>  (1454) 
5.15028

$$$$
O=C(N[C@@H]1CCC[C@@]2(CCNC2)C1)c1cccc2c1CC(=NC(F)F)N2
     RDKit          3D

 26 29  0  0  0  0  0  0  0  0999 V2000
   -6.9303    6.4742  -14.6925 O   0  0  0  0  0  0  0  0  0  0  0  0
   -7.4785    5.4481  -14.6707 C   0  0  0  0  0  0  0  0  0  0  0  0
   -8.0722    4.6638  -13.4963 N   0  0  0  0  0  0  0  0  0  0  0  0
   -8.2041    5.0175  -12.1039 C   0  0  2  0  0  0  0  0  0  0  0  0
   -7.0100    5.8181  -11.5861 C   0  0  0  0  0  0  0  0  0  0  0  0
   -7.1959    6.2759  -10.1407 C   0  0  0  0  0  0  0  0  0  0  0  0
   -8.2440    5.4685   -9.3839 C   0  0  0  0  0  0  0  0  0  0  0  0
   -8.2151    3.9821   -9.7492 C   0  0  2  0  0  0  0  0  0  0  0  0
   -9.1954    3.1616   -8.8939 C   0  0  0  0  0  0  0  0  0  0  0  0
   -8.4866    1.8585   -8.5868 C   0  0  0  0  0  0  0  0  0  0  0  0
   -7.2172    1.9424   -9.3025 N   0  0  0  0  0  0  0  0  0  0  0  0
   -6.8782    3.3544   -9.3617 C   0  0  0  0  0  0  0  0  0  0  0  0
   -8.4759    3.7686  -11.2627 C   0  0  0  0  0  0  0  0  0  0  0  0
   -7.7608    4.7928  -15.9763 C   0  0  0  0  0  0  0  0  0  0  0  0
   -9.0279    4.2611  -16.2550 C   0  0  0  0  0  0  0  0  0  0  0  0
   -9.3854    3.9059  -17.5657 C   0  0  0  0  0  0  0  0  0  0  0  0
   -8.4912    4.0910  -18.6181 C   0  0  0  0  0  0  0  0  0  0  0  0
   -7.2565    4.6420  -18.3399 C   0  0  0  0  0  0  0  0  0  0  0  0
   -6.8687    4.9321  -17.0258 C   0  0  0  0  0  0  0  0  0  0  0  0
   -5.4635    5.4534  -17.0381 C   0  0  0  0  0  0  0  0  0  0  0  0
   -5.2024    5.5711  -18.5558 C   0  0  0  0  0  0  0  0  0  0  0  0
   -4.1721    6.2357  -18.9267 N   0  0  0  0  0  0  0  0  0  0  0  0
   -4.0887    6.5467  -20.3299 C   0  0  0  0  0  0  0  0  0  0  0  0
   -2.8764    7.1036  -20.5818 F   0  0  0  0  0  0  0  0  0  0  0  0
   -5.0173    7.4904  -20.6303 F   0  0  0  0  0  0  0  0  0  0  0  0
   -6.2334    4.9541  -19.2485 N   0  0  0  0  0  0  0  0  0  0  0  0
  1  2  2  0
  2  3  1  0
  4  3  1  6
  4  5  1  0
  5  6  1  0
  6  7  1  0
  8  7  1  1
  8  9  1  0
  9 10  1  0
 10 11  1  0
 11 12  1  0
  8 13  1  0
  2 14  1  0
 14 15  2  0
 15 16  1  0
 16 17  2  0
 17 18  1  0
 18 19  2  0
 19 20  1  0
 20 21  1  0
 21 22  2  3
 22 23  1  0
 23 24  1  0
 23 25  1  0
 21 26  1  0
 13  4  1  0
 19 14  1  0
 12  8  1  0
 26 18  1  0
M  END
>  <smiles>  (1455) 
C21176-P191

>  <fragmenstein_outcome>  (1455) 
acceptable

>  <inchikey>  (1455) 
CMBMAMBPROTYDA-UHFFFAOYSA-N

>  <fragmenstein_mode>  (1455) 
expansion

>  <HIPPO Pose ID>  (1455) 
21514

>  <Energy>  (1455) 
43.16698

>  <fragmenstein_error>  (1455) 


>  <tags>  (1455) 
{'openbind_xx01zvns2b_c1_fragmenstein', 'fragmenstein_placed'}

>  <ref_pdb>  (1455) 
175

>  <scratch_subdir>  (1455) 
/opt/xchem-fragalysis-2/maxwin/BulkDock/SCRATCH/511028/C21176-P191

>  <alias>  (1455) 
O=C(N[C@@H]1CCC[C@@]2(CCNC2)C1)c1cccc2c1CC(=NC(F)F)N2

>  <HIPPO Compound ID>  (1455) 
21176

>  <fragmenstein_runtime>  (1455) 
3.434578

$$$$
CCc1cc2c(c(C(=O)N[C@@H]3CCC[C@@]4(CCNC4)C3)c1)CC(=O)N2
     RDKit          3D

 25 28  0  0  0  0  0  0  0  0999 V2000
  -11.0858    4.4141  -18.1494 C   0  0  0  0  0  0  0  0  0  0  0  0
   -9.8785    3.5451  -18.3537 C   0  0  0  0  0  0  0  0  0  0  0  0
   -8.6069    4.1150  -17.8303 C   0  0  0  0  0  0  0  0  0  0  0  0
   -7.5736    4.2577  -18.7497 C   0  0  0  0  0  0  0  0  0  0  0  0
   -6.3978    4.7806  -18.3062 C   0  0  0  0  0  0  0  0  0  0  0  0
   -6.1808    5.1574  -16.9891 C   0  0  0  0  0  0  0  0  0  0  0  0
   -7.1991    5.0358  -16.0575 C   0  0  0  0  0  0  0  0  0  0  0  0
   -7.0675    5.6652  -14.7166 C   0  0  0  0  0  0  0  0  0  0  0  0
   -6.5680    6.7170  -14.6679 O   0  0  0  0  0  0  0  0  0  0  0  0
   -7.7275    4.8229  -13.6123 N   0  0  0  0  0  0  0  0  0  0  0  0
   -7.9995    5.1371  -12.2252 C   0  0  2  0  0  0  0  0  0  0  0  0
   -6.8755    5.9441  -11.5797 C   0  0  0  0  0  0  0  0  0  0  0  0
   -7.1934    6.3528  -10.1427 C   0  0  0  0  0  0  0  0  0  0  0  0
   -8.2646    5.4878   -9.4895 C   0  0  0  0  0  0  0  0  0  0  0  0
   -8.1650    4.0161   -9.9007 C   0  0  2  0  0  0  0  0  0  0  0  0
   -9.1786    3.1422   -9.1360 C   0  0  0  0  0  0  0  0  0  0  0  0
   -8.4186    1.9132   -8.6838 C   0  0  0  0  0  0  0  0  0  0  0  0
   -7.1410    1.9973   -9.3832 N   0  0  0  0  0  0  0  0  0  0  0  0
   -6.8302    3.4150   -9.4529 C   0  0  0  0  0  0  0  0  0  0  0  0
   -8.3350    3.8611  -11.4371 C   0  0  0  0  0  0  0  0  0  0  0  0
   -8.4234    4.4898  -16.4820 C   0  0  0  0  0  0  0  0  0  0  0  0
   -4.7733    5.6570  -16.8668 C   0  0  0  0  0  0  0  0  0  0  0  0
   -4.2397    5.4666  -18.2988 C   0  0  0  0  0  0  0  0  0  0  0  0
   -3.1080    5.6746  -18.7030 O   0  0  0  0  0  0  0  0  0  0  0  0
   -5.2781    4.9968  -19.0780 N   0  0  0  0  0  0  0  0  0  0  0  0
  1  2  1  0
  2  3  1  0
  3  4  2  0
  4  5  1  0
  5  6  2  0
  6  7  1  0
  7  8  1  0
  8  9  2  0
  8 10  1  0
 11 10  1  6
 11 12  1  0
 12 13  1  0
 13 14  1  0
 15 14  1  6
 15 16  1  0
 16 17  1  0
 17 18  1  0
 18 19  1  0
 15 20  1  0
  7 21  2  0
  6 22  1  0
 22 23  1  0
 23 24  2  0
 23 25  1  0
 21  3  1  0
 25  5  1  0
 20 11  1  0
 19 15  1  0
M  END
>  <smiles>  (1456) 
C21184-P191

>  <fragmenstein_outcome>  (1456) 
acceptable

>  <inchikey>  (1456) 
LZRGBCFOUKMTQL-UHFFFAOYSA-N

>  <fragmenstein_mode>  (1456) 
expansion

>  <HIPPO Pose ID>  (1456) 
21520

>  <Energy>  (1456) 
47.835335

>  <fragmenstein_error>  (1456) 


>  <tags>  (1456) 
{'openbind_xx01zvns2b_c1_fragmenstein', 'fragmenstein_placed'}

>  <ref_pdb>  (1456) 
175

>  <scratch_subdir>  (1456) 
/opt/xchem-fragalysis-2/maxwin/BulkDock/SCRATCH/511028/C21184-P191

>  <alias>  (1456) 
CCc1cc2c(c(C(=O)N[C@@H]3CCC[C@@]4(CCNC4)C3)c1)CC(=O)N2

>  <HIPPO Compound ID>  (1456) 
21184

>  <fragmenstein_runtime>  (1456) 
4.292482

$$$$
CO[C@]1(C)C(=O)Nc2cccc(C(=O)N[C@@H]3CCC[C@@]4(CCNC4)C3)c21
     RDKit          3D

 26 29  0  0  0  0  0  0  0  0999 V2000
   -4.2209    7.8561  -16.9552 C   0  0  0  0  0  0  0  0  0  0  0  0
   -5.4300    7.1311  -17.1234 O   0  0  0  0  0  0  0  0  0  0  0  0
   -5.3053    5.7002  -17.0690 C   0  0  2  0  0  0  0  0  0  0  0  0
   -4.3768    5.2059  -15.9644 C   0  0  0  0  0  0  0  0  0  0  0  0
   -4.8479    5.2247  -18.4955 C   0  0  0  0  0  0  0  0  0  0  0  0
   -3.7247    5.2804  -18.9792 O   0  0  0  0  0  0  0  0  0  0  0  0
   -5.9730    4.7456  -19.1531 N   0  0  0  0  0  0  0  0  0  0  0  0
   -7.0441    4.6287  -18.2804 C   0  0  0  0  0  0  0  0  0  0  0  0
   -8.2777    4.0814  -18.5779 C   0  0  0  0  0  0  0  0  0  0  0  0
   -9.2109    3.9894  -17.5515 C   0  0  0  0  0  0  0  0  0  0  0  0
   -8.8870    4.4401  -16.2622 C   0  0  0  0  0  0  0  0  0  0  0  0
   -7.6291    5.0141  -15.9814 C   0  0  0  0  0  0  0  0  0  0  0  0
   -7.3995    5.6605  -14.6577 C   0  0  0  0  0  0  0  0  0  0  0  0
   -6.9220    6.7212  -14.6463 O   0  0  0  0  0  0  0  0  0  0  0  0
   -7.9504    4.8051  -13.5086 N   0  0  0  0  0  0  0  0  0  0  0  0
   -8.1186    5.1119  -12.1085 C   0  0  2  0  0  0  0  0  0  0  0  0
   -6.9385    5.8963  -11.5395 C   0  0  0  0  0  0  0  0  0  0  0  0
   -7.1662    6.3179  -10.0893 C   0  0  0  0  0  0  0  0  0  0  0  0
   -8.2291    5.4867   -9.3797 C   0  0  0  0  0  0  0  0  0  0  0  0
   -8.1854    4.0097   -9.7828 C   0  0  2  0  0  0  0  0  0  0  0  0
   -9.1843    3.1670   -8.9694 C   0  0  0  0  0  0  0  0  0  0  0  0
   -8.4629    1.8800   -8.6269 C   0  0  0  0  0  0  0  0  0  0  0  0
   -7.1916    1.9650   -9.3383 N   0  0  0  0  0  0  0  0  0  0  0  0
   -6.8531    3.3774   -9.3825 C   0  0  0  0  0  0  0  0  0  0  0  0
   -8.4133    3.8389  -11.3084 C   0  0  0  0  0  0  0  0  0  0  0  0
   -6.7036    5.1139  -17.0134 C   0  0  0  0  0  0  0  0  0  0  0  0
  1  2  1  0
  2  3  1  0
  3  4  1  1
  3  5  1  0
  5  6  2  0
  5  7  1  0
  7  8  1  0
  8  9  2  0
  9 10  1  0
 10 11  2  0
 11 12  1  0
 12 13  1  0
 13 14  2  0
 13 15  1  0
 16 15  1  6
 16 17  1  0
 17 18  1  0
 18 19  1  0
 20 19  1  1
 20 21  1  0
 21 22  1  0
 22 23  1  0
 23 24  1  0
 20 25  1  0
 12 26  2  0
 26  3  1  0
 26  8  1  0
 25 16  1  0
 24 20  1  0
M  END
>  <smiles>  (1457) 
C21212-P191

>  <fragmenstein_outcome>  (1457) 
acceptable

>  <inchikey>  (1457) 
BYWKDYBUWVLGQV-UHFFFAOYSA-N

>  <fragmenstein_mode>  (1457) 
expansion

>  <HIPPO Pose ID>  (1457) 
21523

>  <Energy>  (1457) 
86.600881

>  <fragmenstein_error>  (1457) 


>  <tags>  (1457) 
{'openbind_xx01zvns2b_c1_fragmenstein', 'fragmenstein_placed'}

>  <ref_pdb>  (1457) 
175

>  <scratch_subdir>  (1457) 
/opt/xchem-fragalysis-2/maxwin/BulkDock/SCRATCH/511028/C21212-P191

>  <alias>  (1457) 
CO[C@]1(C)C(=O)Nc2cccc(C(=O)N[C@@H]3CCC[C@@]4(CCNC4)C3)c21

>  <HIPPO Compound ID>  (1457) 
42621

>  <fragmenstein_runtime>  (1457) 
5.412979

$$$$
CNC[C@@]1(O)Cc2c(cc(Br)cc2C(=O)N[C@@H]2CCC[C@]3(CCNC3)C2)N1
     RDKit          3D

 27 30  0  0  0  0  0  0  0  0999 V2000
   -2.1339    8.4143  -18.9340 C   0  0  0  0  0  0  0  0  0  0  0  0
   -2.8055    7.3098  -18.2680 N   0  0  0  0  0  0  0  0  0  0  0  0
   -4.0745    6.9705  -18.9456 C   0  0  0  0  0  0  0  0  0  0  0  0
   -4.7335    5.6859  -18.3885 C   0  0  1  0  0  0  0  0  0  0  0  0
   -3.8499    4.5920  -18.5871 O   0  0  0  0  0  0  0  0  0  0  0  0
   -5.1281    5.8016  -16.8865 C   0  0  0  0  0  0  0  0  0  0  0  0
   -6.4864    5.1599  -16.8784 C   0  0  0  0  0  0  0  0  0  0  0  0
   -6.8572    4.8930  -18.1938 C   0  0  0  0  0  0  0  0  0  0  0  0
   -8.1048    4.4006  -18.4868 C   0  0  0  0  0  0  0  0  0  0  0  0
   -9.0082    4.2376  -17.4453 C   0  0  0  0  0  0  0  0  0  0  0  0
  -10.8049    3.9867  -17.9282 Br  0  0  0  0  0  0  0  0  0  0  0  0
   -8.6447    4.4579  -16.1087 C   0  0  0  0  0  0  0  0  0  0  0  0
   -7.3528    4.9153  -15.8141 C   0  0  0  0  0  0  0  0  0  0  0  0
   -6.9413    5.2870  -14.4269 C   0  0  0  0  0  0  0  0  0  0  0  0
   -6.2957    6.2472  -14.2911 O   0  0  0  0  0  0  0  0  0  0  0  0
   -7.4317    4.2603  -13.3911 N   0  0  0  0  0  0  0  0  0  0  0  0
   -7.3107    4.2484  -11.9486 C   0  0  2  0  0  0  0  0  0  0  0  0
   -8.1569    3.1331  -11.3356 C   0  0  0  0  0  0  0  0  0  0  0  0
   -8.0324    3.1018   -9.8170 C   0  0  0  0  0  0  0  0  0  0  0  0
   -8.3194    4.4624   -9.1879 C   0  0  0  0  0  0  0  0  0  0  0  0
   -7.4979    5.6168   -9.8077 C   0  0  1  0  0  0  0  0  0  0  0  0
   -7.9144    6.9623   -9.2047 C   0  0  0  0  0  0  0  0  0  0  0  0
   -7.0912    7.0838   -7.9263 C   0  0  0  0  0  0  0  0  0  0  0  0
   -6.0150    6.0815   -7.9988 N   0  0  0  0  0  0  0  0  0  0  0  0
   -6.0238    5.5775   -9.3823 C   0  0  0  0  0  0  0  0  0  0  0  0
   -7.6695    5.6077  -11.3357 C   0  0  0  0  0  0  0  0  0  0  0  0
   -5.9387    5.3748  -19.1293 N   0  0  0  0  0  0  0  0  0  0  0  0
  1  2  1  0
  2  3  1  0
  3  4  1  0
  4  5  1  1
  4  6  1  0
  6  7  1  0
  7  8  2  0
  8  9  1  0
  9 10  2  0
 10 11  1  0
 10 12  1  0
 12 13  2  0
 13 14  1  0
 14 15  2  0
 14 16  1  0
 17 16  1  6
 17 18  1  0
 18 19  1  0
 19 20  1  0
 21 20  1  1
 21 22  1  0
 22 23  1  0
 23 24  1  0
 24 25  1  0
 21 26  1  0
  8 27  1  0
 27  4  1  0
 13  7  1  0
 26 17  1  0
 25 21  1  0
M  END
>  <smiles>  (1458) 
C21246-P191

>  <fragmenstein_outcome>  (1458) 
acceptable

>  <inchikey>  (1458) 
COZNLVWNRMILNC-UHFFFAOYSA-N

>  <fragmenstein_mode>  (1458) 
expansion

>  <HIPPO Pose ID>  (1458) 
21533

>  <Energy>  (1458) 
63.606088

>  <fragmenstein_error>  (1458) 


>  <tags>  (1458) 
{'openbind_xx01zvns2b_c1_fragmenstein', 'fragmenstein_placed'}

>  <ref_pdb>  (1458) 
175

>  <scratch_subdir>  (1458) 
/opt/xchem-fragalysis-2/maxwin/BulkDock/SCRATCH/511028/C21246-P191

>  <alias>  (1458) 
CNC[C@@]1(O)Cc2c(cc(Br)cc2C(=O)N[C@@H]2CCC[C@]3(CCNC3)C2)N1

>  <HIPPO Compound ID>  (1458) 
21246

>  <fragmenstein_runtime>  (1458) 
4.130437

$$$$
CN1CCC2(CC1)Cc1c(cccc1C(=O)N[C@@H]1CCC[C@]3(CCNC3)C1)N2
     RDKit          3D

 28 32  0  0  0  0  0  0  0  0999 V2000
   -2.0945    8.2279  -19.6447 C   0  0  0  0  0  0  0  0  0  0  0  0
   -3.4203    7.6957  -19.9522 N   0  0  0  0  0  0  0  0  0  0  0  0
   -4.3928    8.0945  -18.9272 C   0  0  0  0  0  0  0  0  0  0  0  0
   -5.6214    7.1886  -18.9389 C   0  0  0  0  0  0  0  0  0  0  0  0
   -5.2463    5.7350  -18.5540 C   0  0  0  0  0  0  0  0  0  0  0  0
   -3.7995    5.4301  -18.9629 C   0  0  0  0  0  0  0  0  0  0  0  0
   -3.3922    6.2441  -20.1887 C   0  0  0  0  0  0  0  0  0  0  0  0
   -5.4450    5.4941  -17.0243 C   0  0  0  0  0  0  0  0  0  0  0  0
   -6.8440    4.9763  -17.0013 C   0  0  0  0  0  0  0  0  0  0  0  0
   -7.2017    4.5958  -18.2931 C   0  0  0  0  0  0  0  0  0  0  0  0
   -8.4375    4.0378  -18.5642 C   0  0  0  0  0  0  0  0  0  0  0  0
   -9.3530    3.9074  -17.5243 C   0  0  0  0  0  0  0  0  0  0  0  0
   -9.0058    4.3017  -16.2245 C   0  0  0  0  0  0  0  0  0  0  0  0
   -7.7402    4.8443  -15.9525 C   0  0  0  0  0  0  0  0  0  0  0  0
   -7.4647    5.4585  -14.6249 C   0  0  0  0  0  0  0  0  0  0  0  0
   -6.9788    6.5167  -14.5995 O   0  0  0  0  0  0  0  0  0  0  0  0
   -7.9881    4.5756  -13.4823 N   0  0  0  0  0  0  0  0  0  0  0  0
   -8.1128    4.8456  -12.0705 C   0  0  2  0  0  0  0  0  0  0  0  0
   -6.8556    5.4710  -11.4744 C   0  0  0  0  0  0  0  0  0  0  0  0
   -7.0689    5.9010  -10.0231 C   0  0  0  0  0  0  0  0  0  0  0  0
   -8.2417    5.1935   -9.3480 C   0  0  0  0  0  0  0  0  0  0  0  0
   -8.3688    3.7231   -9.7658 C   0  0  1  0  0  0  0  0  0  0  0  0
   -7.1733    2.8923   -9.2833 C   0  0  0  0  0  0  0  0  0  0  0  0
   -7.7890    1.5977   -8.7496 C   0  0  0  0  0  0  0  0  0  0  0  0
   -9.1818    1.6275   -9.1460 N   0  0  0  0  0  0  0  0  0  0  0  0
   -9.5077    3.0247   -9.0231 C   0  0  0  0  0  0  0  0  0  0  0  0
   -8.5196    3.5824  -11.3057 C   0  0  0  0  0  0  0  0  0  0  0  0
   -6.1645    4.7850  -19.2380 N   0  0  0  0  0  0  0  0  0  0  0  0
  1  2  1  0
  2  3  1  0
  3  4  1  0
  4  5  1  0
  5  6  1  0
  6  7  1  0
  5  8  1  0
  8  9  1  0
  9 10  2  0
 10 11  1  0
 11 12  2  0
 12 13  1  0
 13 14  2  0
 14 15  1  0
 15 16  2  0
 15 17  1  0
 18 17  1  6
 18 19  1  0
 19 20  1  0
 20 21  1  0
 22 21  1  6
 22 23  1  0
 23 24  1  0
 24 25  1  0
 25 26  1  0
 22 27  1  0
 10 28  1  0
  7  2  1  0
 14  9  1  0
 27 18  1  0
 28  5  1  0
 26 22  1  0
M  END
>  <smiles>  (1459) 
C21248-P191

>  <fragmenstein_outcome>  (1459) 
acceptable

>  <inchikey>  (1459) 
OHIGDAUMRBTGNV-UHFFFAOYSA-N

>  <fragmenstein_mode>  (1459) 
expansion

>  <HIPPO Pose ID>  (1459) 
21534

>  <Energy>  (1459) 
72.967331

>  <fragmenstein_error>  (1459) 


>  <tags>  (1459) 
{'openbind_xx01zvns2b_c1_fragmenstein', 'fragmenstein_placed'}

>  <ref_pdb>  (1459) 
175

>  <scratch_subdir>  (1459) 
/opt/xchem-fragalysis-2/maxwin/BulkDock/SCRATCH/511028/C21248-P191

>  <alias>  (1459) 
CN1CCC2(CC1)Cc1c(cccc1C(=O)N[C@@H]1CCC[C@]3(CCNC3)C1)N2

>  <HIPPO Compound ID>  (1459) 
21248

>  <fragmenstein_runtime>  (1459) 
4.592315

$$$$
CN(C)C[C@H]1Cc2c(cccc2C(=O)N[C@H]2CCC[C@@]3(CCNC3)C2)N1
     RDKit          3D

 26 29  0  0  0  0  0  0  0  0999 V2000
   -4.5651    9.1750  -19.2740 C   0  0  0  0  0  0  0  0  0  0  0  0
   -4.3367    7.8784  -18.6355 N   0  0  0  0  0  0  0  0  0  0  0  0
   -2.9393    7.4775  -18.8079 C   0  0  0  0  0  0  0  0  0  0  0  0
   -5.2722    6.8714  -19.1833 C   0  0  0  0  0  0  0  0  0  0  0  0
   -5.2214    5.4522  -18.5487 C   0  0  1  0  0  0  0  0  0  0  0  0
   -5.5195    5.4433  -17.0234 C   0  0  0  0  0  0  0  0  0  0  0  0
   -6.9175    4.9257  -16.9913 C   0  0  0  0  0  0  0  0  0  0  0  0
   -7.2748    4.5110  -18.2739 C   0  0  0  0  0  0  0  0  0  0  0  0
   -8.5297    3.9975  -18.5460 C   0  0  0  0  0  0  0  0  0  0  0  0
   -9.4532    3.9148  -17.5114 C   0  0  0  0  0  0  0  0  0  0  0  0
   -9.0906    4.2977  -16.2127 C   0  0  0  0  0  0  0  0  0  0  0  0
   -7.8129    4.8088  -15.9375 C   0  0  0  0  0  0  0  0  0  0  0  0
   -7.5263    5.3600  -14.5799 C   0  0  0  0  0  0  0  0  0  0  0  0
   -7.0377    6.4158  -14.5027 O   0  0  0  0  0  0  0  0  0  0  0  0
   -8.0478    4.4166  -13.4765 N   0  0  0  0  0  0  0  0  0  0  0  0
   -8.1649    4.6155  -12.0459 C   0  0  1  0  0  0  0  0  0  0  0  0
   -8.3853    3.2815  -11.3289 C   0  0  0  0  0  0  0  0  0  0  0  0
   -8.5575    3.4594   -9.8258 C   0  0  0  0  0  0  0  0  0  0  0  0
   -7.4305    4.2757   -9.2047 C   0  0  0  0  0  0  0  0  0  0  0  0
   -7.1656    5.6169   -9.9298 C   0  0  2  0  0  0  0  0  0  0  0  0
   -5.9532    6.3101   -9.3091 C   0  0  0  0  0  0  0  0  0  0  0  0
   -6.5072    7.0437   -8.0951 C   0  0  0  0  0  0  0  0  0  0  0  0
   -7.9542    7.1824   -8.3023 N   0  0  0  0  0  0  0  0  0  0  0  0
   -8.2346    6.6780   -9.6531 C   0  0  0  0  0  0  0  0  0  0  0  0
   -6.9771    5.3678  -11.4378 C   0  0  0  0  0  0  0  0  0  0  0  0
   -6.2171    4.5773  -19.2075 N   0  0  0  0  0  0  0  0  0  0  0  0
  1  2  1  0
  2  3  1  0
  2  4  1  0
  5  4  1  6
  5  6  1  0
  6  7  1  0
  7  8  2  0
  8  9  1  0
  9 10  2  0
 10 11  1  0
 11 12  2  0
 12 13  1  0
 13 14  2  0
 13 15  1  0
 16 15  1  6
 16 17  1  0
 17 18  1  0
 18 19  1  0
 20 19  1  1
 20 21  1  0
 21 22  1  0
 22 23  1  0
 23 24  1  0
 20 25  1  0
  8 26  1  0
 26  5  1  0
 12  7  1  0
 25 16  1  0
 24 20  1  0
M  END
>  <smiles>  (1460) 
C21251-P191

>  <fragmenstein_outcome>  (1460) 
acceptable

>  <inchikey>  (1460) 
SUGQQXKANLNLOG-UHFFFAOYSA-N

>  <fragmenstein_mode>  (1460) 
expansion

>  <HIPPO Pose ID>  (1460) 
21536

>  <Energy>  (1460) 
88.827729

>  <fragmenstein_error>  (1460) 


>  <tags>  (1460) 
{'openbind_xx01zvns2b_c1_fragmenstein', 'fragmenstein_placed'}

>  <ref_pdb>  (1460) 
175

>  <scratch_subdir>  (1460) 
/opt/xchem-fragalysis-2/maxwin/BulkDock/SCRATCH/511028/C21251-P191

>  <alias>  (1460) 
CN(C)C[C@H]1Cc2c(cccc2C(=O)N[C@H]2CCC[C@@]3(CCNC3)C2)N1

>  <HIPPO Compound ID>  (1460) 
21251

>  <fragmenstein_runtime>  (1460) 
4.729191

$$$$
Cn1cc2ccc(NC(=O)c3cccc4c3CC(=O)C4=O)cc2c1
     RDKit          3D

 24 27  0  0  0  0  0  0  0  0999 V2000
   -8.6841    2.2550   -6.5750 C   0  0  0  0  0  0  0  0  0  0  0  0
   -8.6107    3.0086   -7.7955 N   0  0  0  0  0  0  0  0  0  0  0  0
   -8.1719    4.3139   -7.9041 C   0  0  0  0  0  0  0  0  0  0  0  0
   -8.1427    4.6016   -9.2433 C   0  0  0  0  0  0  0  0  0  0  0  0
   -7.7043    5.7750   -9.8374 C   0  0  0  0  0  0  0  0  0  0  0  0
   -7.7747    5.6572  -11.2484 C   0  0  0  0  0  0  0  0  0  0  0  0
   -8.2484    4.4844  -11.9427 C   0  0  0  0  0  0  0  0  0  0  0  0
   -8.2826    4.4442  -13.3303 N   0  0  0  0  0  0  0  0  0  0  0  0
   -7.6794    5.4023  -14.3743 C   0  0  0  0  0  0  0  0  0  0  0  0
   -7.1241    6.4183  -14.2363 O   0  0  0  0  0  0  0  0  0  0  0  0
   -7.9188    4.8947  -15.7451 C   0  0  0  0  0  0  0  0  0  0  0  0
   -9.1767    4.3876  -16.1104 C   0  0  0  0  0  0  0  0  0  0  0  0
   -9.4656    4.0068  -17.4295 C   0  0  0  0  0  0  0  0  0  0  0  0
   -8.4799    4.0875  -18.3980 C   0  0  0  0  0  0  0  0  0  0  0  0
   -7.2427    4.5646  -18.0017 C   0  0  0  0  0  0  0  0  0  0  0  0
   -6.9352    4.9854  -16.7081 C   0  0  0  0  0  0  0  0  0  0  0  0
   -5.5150    5.4632  -16.5691 C   0  0  0  0  0  0  0  0  0  0  0  0
   -4.9460    5.2219  -17.9502 C   0  0  0  0  0  0  0  0  0  0  0  0
   -3.8109    5.4218  -18.3380 O   0  0  0  0  0  0  0  0  0  0  0  0
   -6.0507    4.6528  -18.8158 C   0  0  0  0  0  0  0  0  0  0  0  0
   -5.9428    4.2569  -19.9454 O   0  0  0  0  0  0  0  0  0  0  0  0
   -8.7062    3.3148  -11.3026 C   0  0  0  0  0  0  0  0  0  0  0  0
   -8.6122    3.4559   -9.9356 C   0  0  0  0  0  0  0  0  0  0  0  0
   -8.9305    2.4898   -9.0247 C   0  0  0  0  0  0  0  0  0  0  0  0
  1  2  1  0
  2  3  1  0
  3  4  2  0
  4  5  1  0
  5  6  2  0
  6  7  1  0
  7  8  1  0
  8  9  1  0
  9 10  2  0
  9 11  1  0
 11 12  2  0
 12 13  1  0
 13 14  2  0
 14 15  1  0
 15 16  2  0
 16 17  1  0
 17 18  1  0
 18 19  2  0
 18 20  1  0
 20 21  2  0
  7 22  2  0
 22 23  1  0
 23 24  2  0
 24  2  1  0
 23  4  1  0
 16 11  1  0
 20 15  1  0
M  END
>  <smiles>  (1461) 
C21253-P191

>  <fragmenstein_outcome>  (1461) 
acceptable

>  <inchikey>  (1461) 
YFAKMSFSTURCPY-UHFFFAOYSA-N

>  <fragmenstein_mode>  (1461) 
expansion

>  <HIPPO Pose ID>  (1461) 
21537

>  <Energy>  (1461) 
94.278821

>  <fragmenstein_error>  (1461) 


>  <tags>  (1461) 
{'openbind_xx01zvns2b_c1_fragmenstein', 'fragmenstein_placed'}

>  <ref_pdb>  (1461) 
175

>  <scratch_subdir>  (1461) 
/opt/xchem-fragalysis-2/maxwin/BulkDock/SCRATCH/511028/C21253-P191

>  <alias>  (1461) 
Cn1cc2ccc(NC(=O)c3cccc4c3CC(=O)C4=O)cc2c1

>  <HIPPO Compound ID>  (1461) 
21253

>  <fragmenstein_runtime>  (1461) 
3.932717

$$$$
CNC[C@@]1(O)Cc2c(cc(Cl)cc2C(=O)Nc2cccc(OC(C)(C)C)c2)N1
     RDKit          3D

 28 30  0  0  0  0  0  0  0  0999 V2000
   -2.6441    7.6784  -18.4068 C   0  0  0  0  0  0  0  0  0  0  0  0
   -4.0456    8.0309  -18.6055 N   0  0  0  0  0  0  0  0  0  0  0  0
   -4.8231    6.9215  -19.2024 C   0  0  0  0  0  0  0  0  0  0  0  0
   -4.8428    5.5252  -18.5045 C   0  0  1  0  0  0  0  0  0  0  0  0
   -3.5970    4.8754  -18.6887 O   0  0  0  0  0  0  0  0  0  0  0  0
   -5.1965    5.5730  -16.9896 C   0  0  0  0  0  0  0  0  0  0  0  0
   -6.5957    5.0494  -16.9882 C   0  0  0  0  0  0  0  0  0  0  0  0
   -6.9112    4.6161  -18.2731 C   0  0  0  0  0  0  0  0  0  0  0  0
   -8.1733    4.1541  -18.5812 C   0  0  0  0  0  0  0  0  0  0  0  0
   -9.1408    4.1886  -17.5857 C   0  0  0  0  0  0  0  0  0  0  0  0
  -10.7794    3.9648  -18.0222 Cl  0  0  0  0  0  0  0  0  0  0  0  0
   -8.8255    4.5569  -16.2721 C   0  0  0  0  0  0  0  0  0  0  0  0
   -7.5321    4.9962  -15.9622 C   0  0  0  0  0  0  0  0  0  0  0  0
   -7.2450    5.5991  -14.6302 C   0  0  0  0  0  0  0  0  0  0  0  0
   -6.6185    6.5835  -14.5990 O   0  0  0  0  0  0  0  0  0  0  0  0
   -7.9469    4.8222  -13.4938 N   0  0  0  0  0  0  0  0  0  0  0  0
   -7.9452    5.0344  -12.1208 C   0  0  0  0  0  0  0  0  0  0  0  0
   -7.3537    6.1708  -11.5681 C   0  0  0  0  0  0  0  0  0  0  0  0
   -7.4477    6.4194  -10.1988 C   0  0  0  0  0  0  0  0  0  0  0  0
   -8.1311    5.5289   -9.3792 C   0  0  0  0  0  0  0  0  0  0  0  0
   -8.6801    4.3744   -9.9267 C   0  0  0  0  0  0  0  0  0  0  0  0
   -9.4367    3.5295   -9.1694 O   0  0  0  0  0  0  0  0  0  0  0  0
   -8.7259    2.6144   -8.3164 C   0  0  0  0  0  0  0  0  0  0  0  0
   -7.6359    1.8920   -9.1047 C   0  0  0  0  0  0  0  0  0  0  0  0
   -9.7885    1.6135   -7.8687 C   0  0  0  0  0  0  0  0  0  0  0  0
   -8.2468    3.3381   -7.0500 C   0  0  0  0  0  0  0  0  0  0  0  0
   -8.6062    4.1297  -11.2976 C   0  0  0  0  0  0  0  0  0  0  0  0
   -5.8125    4.6386  -19.1572 N   0  0  0  0  0  0  0  0  0  0  0  0
  1  2  1  0
  2  3  1  0
  3  4  1  0
  4  5  1  1
  4  6  1  0
  6  7  1  0
  7  8  2  0
  8  9  1  0
  9 10  2  0
 10 11  1  0
 10 12  1  0
 12 13  2  0
 13 14  1  0
 14 15  2  0
 14 16  1  0
 16 17  1  0
 17 18  2  0
 18 19  1  0
 19 20  2  0
 20 21  1  0
 21 22  1  0
 22 23  1  0
 23 24  1  0
 23 25  1  0
 23 26  1  0
 21 27  2  0
  8 28  1  0
 28  4  1  0
 13  7  1  0
 27 17  1  0
M  END
>  <smiles>  (1462) 
C21257-P191

>  <fragmenstein_outcome>  (1462) 
acceptable

>  <inchikey>  (1462) 
QHZKGQUQPZZGMJ-UHFFFAOYSA-N

>  <fragmenstein_mode>  (1462) 
expansion

>  <HIPPO Pose ID>  (1462) 
21538

>  <Energy>  (1462) 
81.920038

>  <fragmenstein_error>  (1462) 


>  <tags>  (1462) 
{'openbind_xx01zvns2b_c1_fragmenstein', 'fragmenstein_placed'}

>  <ref_pdb>  (1462) 
175

>  <scratch_subdir>  (1462) 
/opt/xchem-fragalysis-2/maxwin/BulkDock/SCRATCH/511028/C21257-P191

>  <alias>  (1462) 
CNC[C@@]1(O)Cc2c(cc(Cl)cc2C(=O)Nc2cccc(OC(C)(C)C)c2)N1

>  <HIPPO Compound ID>  (1462) 
212

>  <fragmenstein_runtime>  (1462) 
5.679855

$$$$
CNC[C@@H]1Cc2c(cc(Cl)cc2C(=O)N[C@H]2C[C@@H](CN)C3(CCCCC3)[C@H](F)C2)N1
     RDKit          3D

 30 33  0  0  0  0  0  0  0  0999 V2000
   -1.3120    6.4041  -17.4573 C   0  0  0  0  0  0  0  0  0  0  0  0
   -2.7311    6.3656  -17.1388 N   0  0  0  0  0  0  0  0  0  0  0  0
   -3.4758    5.5433  -18.1062 C   0  0  0  0  0  0  0  0  0  0  0  0
   -4.9876    5.7228  -17.9344 C   0  0  2  0  0  0  0  0  0  0  0  0
   -5.3832    5.4753  -16.4685 C   0  0  0  0  0  0  0  0  0  0  0  0
   -6.7678    4.9923  -16.6545 C   0  0  0  0  0  0  0  0  0  0  0  0
   -6.9621    4.6508  -17.9908 C   0  0  0  0  0  0  0  0  0  0  0  0
   -8.1867    4.1917  -18.4236 C   0  0  0  0  0  0  0  0  0  0  0  0
   -9.2227    4.1379  -17.4912 C   0  0  0  0  0  0  0  0  0  0  0  0
  -10.8246    3.8831  -18.0332 Cl  0  0  0  0  0  0  0  0  0  0  0  0
   -9.0185    4.4365  -16.1371 C   0  0  0  0  0  0  0  0  0  0  0  0
   -7.7743    4.8870  -15.7154 C   0  0  0  0  0  0  0  0  0  0  0  0
   -7.6023    5.5046  -14.3825 C   0  0  0  0  0  0  0  0  0  0  0  0
   -7.1562    6.5787  -14.3441 O   0  0  0  0  0  0  0  0  0  0  0  0
   -8.1420    4.6122  -13.2600 N   0  0  0  0  0  0  0  0  0  0  0  0
   -8.3373    4.8854  -11.8584 C   0  0  2  0  0  0  0  0  0  0  0  0
   -7.3866    5.9604  -11.3353 C   0  0  0  0  0  0  0  0  0  0  0  0
   -7.6685    6.2815   -9.8751 C   0  0  1  0  0  0  0  0  0  0  0  0
   -8.9087    6.8582   -9.8247 F   0  0  0  0  0  0  0  0  0  0  0  0
   -7.6629    5.0449   -8.9288 C   0  0  0  0  0  0  0  0  0  0  0  0
   -6.2180    4.5014   -8.8459 C   0  0  0  0  0  0  0  0  0  0  0  0
   -5.3163    5.2994   -7.9056 C   0  0  0  0  0  0  0  0  0  0  0  0
   -5.8767    5.4271   -6.4902 C   0  0  0  0  0  0  0  0  0  0  0  0
   -7.3338    4.9964   -6.3706 C   0  0  0  0  0  0  0  0  0  0  0  0
   -8.1529    5.5434   -7.5319 C   0  0  0  0  0  0  0  0  0  0  0  0
   -8.6688    4.0020   -9.5411 C   0  0  2  0  0  0  0  0  0  0  0  0
   -9.1167    2.7902   -8.7007 C   0  0  0  0  0  0  0  0  0  0  0  0
   -8.2303    1.6660   -8.5962 N   0  0  0  0  0  0  0  0  0  0  0  0
   -8.3213    3.6243  -10.9942 C   0  0  0  0  0  0  0  0  0  0  0  0
   -5.7814    4.7923  -18.7734 N   0  0  0  0  0  0  0  0  0  0  0  0
  1  2  1  0
  2  3  1  0
  4  3  1  1
  4  5  1  0
  5  6  1  0
  6  7  2  0
  7  8  1  0
  8  9  2  0
  9 10  1  0
  9 11  1  0
 11 12  2  0
 12 13  1  0
 13 14  2  0
 13 15  1  0
 16 15  1  6
 16 17  1  0
 17 18  1  0
 18 19  1  6
 18 20  1  0
 20 21  1  0
 21 22  1  0
 22 23  1  0
 23 24  1  0
 24 25  1  0
 20 26  1  0
 26 27  1  1
 27 28  1  0
 26 29  1  0
  7 30  1  0
 30  4  1  0
 12  6  1  0
 29 16  1  0
 25 20  1  0
M  END
>  <smiles>  (1463) 
C21264-P191

>  <fragmenstein_outcome>  (1463) 
acceptable

>  <inchikey>  (1463) 
AGANTASUJLFHKD-UHFFFAOYSA-N

>  <fragmenstein_mode>  (1463) 
expansion

>  <HIPPO Pose ID>  (1463) 
21541

>  <Energy>  (1463) 
89.349965

>  <fragmenstein_error>  (1463) 


>  <tags>  (1463) 
{'openbind_xx01zvns2b_c1_fragmenstein', 'fragmenstein_placed'}

>  <ref_pdb>  (1463) 
175

>  <scratch_subdir>  (1463) 
/opt/xchem-fragalysis-2/maxwin/BulkDock/SCRATCH/511028/C21264-P191

>  <alias>  (1463) 
CNC[C@@H]1Cc2c(cc(Cl)cc2C(=O)N[C@H]2C[C@@H](CN)C3(CCCCC3)[C@H](F)C2)N1

>  <HIPPO Compound ID>  (1463) 
21264

>  <fragmenstein_runtime>  (1463) 
6.54781

$$$$
CNc1cc2c([C@H](C(=O)NCC(F)F)C(=O)c3ccc4c(c3)CNC4)cc(Br)cc2n1O
     RDKit          3D

 32 35  0  0  0  0  0  0  0  0999 V2000
   -2.7502    5.0590  -19.6047 C   0  0  0  0  0  0  0  0  0  0  0  0
   -3.2899    5.7116  -18.4212 N   0  0  0  0  0  0  0  0  0  0  0  0
   -4.5110    5.3787  -17.9161 C   0  0  0  0  0  0  0  0  0  0  0  0
   -4.9502    5.4707  -16.6082 C   0  0  0  0  0  0  0  0  0  0  0  0
   -6.2906    4.9820  -16.5287 C   0  0  0  0  0  0  0  0  0  0  0  0
   -7.2399    4.8480  -15.4703 C   0  0  0  0  0  0  0  0  0  0  0  0
   -7.0236    5.4323  -14.0576 C   0  0  2  0  0  0  0  0  0  0  0  0
   -5.6985    5.1194  -13.3353 C   0  0  0  0  0  0  0  0  0  0  0  0
   -5.0274    5.9944  -12.9491 O   0  0  0  0  0  0  0  0  0  0  0  0
   -5.5469    3.5906  -13.1649 N   0  0  0  0  0  0  0  0  0  0  0  0
   -4.5825    2.8154  -12.3971 C   0  0  0  0  0  0  0  0  0  0  0  0
   -5.1895    2.1191  -11.1817 C   0  0  0  0  0  0  0  0  0  0  0  0
   -5.4905    3.0380  -10.2332 F   0  0  0  0  0  0  0  0  0  0  0  0
   -6.3455    1.4998  -11.5349 F   0  0  0  0  0  0  0  0  0  0  0  0
   -8.2457    5.4317  -13.1414 C   0  0  0  0  0  0  0  0  0  0  0  0
   -9.3549    5.8498  -13.4896 O   0  0  0  0  0  0  0  0  0  0  0  0
   -8.1386    5.0184  -11.7334 C   0  0  0  0  0  0  0  0  0  0  0  0
   -7.8946    6.0113  -10.7675 C   0  0  0  0  0  0  0  0  0  0  0  0
   -7.9986    5.7059   -9.4078 C   0  0  0  0  0  0  0  0  0  0  0  0
   -8.3600    4.4165   -9.0532 C   0  0  0  0  0  0  0  0  0  0  0  0
   -8.5643    3.4318  -10.0181 C   0  0  0  0  0  0  0  0  0  0  0  0
   -8.4668    3.7112  -11.3700 C   0  0  0  0  0  0  0  0  0  0  0  0
   -8.8800    2.1422   -9.3348 C   0  0  0  0  0  0  0  0  0  0  0  0
   -9.2711    2.5190   -7.9573 N   0  0  0  0  0  0  0  0  0  0  0  0
   -8.6084    3.8179   -7.7028 C   0  0  0  0  0  0  0  0  0  0  0  0
   -8.5188    4.3765  -15.8592 C   0  0  0  0  0  0  0  0  0  0  0  0
   -8.8474    4.1429  -17.1894 C   0  0  0  0  0  0  0  0  0  0  0  0
  -10.6417    4.0988  -17.7149 Br  0  0  0  0  0  0  0  0  0  0  0  0
   -7.9085    4.1847  -18.1947 C   0  0  0  0  0  0  0  0  0  0  0  0
   -6.6448    4.6394  -17.8399 C   0  0  0  0  0  0  0  0  0  0  0  0
   -5.5699    4.9036  -18.6498 N   0  0  0  0  0  0  0  0  0  0  0  0
   -5.5744    4.7223  -20.0326 O   0  0  0  0  0  0  0  0  0  0  0  0
  1  2  1  0
  2  3  1  0
  3  4  2  0
  4  5  1  0
  5  6  2  0
  6  7  1  0
  7  8  1  1
  8  9  2  0
  8 10  1  0
 10 11  1  0
 11 12  1  0
 12 13  1  0
 12 14  1  0
  7 15  1  0
 15 16  2  0
 15 17  1  0
 17 18  2  0
 18 19  1  0
 19 20  2  0
 20 21  1  0
 21 22  2  0
 21 23  1  0
 23 24  1  0
 24 25  1  0
  6 26  1  0
 26 27  2  0
 27 28  1  0
 27 29  1  0
 29 30  2  0
 30 31  1  0
 31 32  1  0
 31  3  1  0
 30  5  1  0
 22 17  1  0
 25 20  1  0
M  END
>  <smiles>  (1464) 
C21426-P322

>  <fragmenstein_outcome>  (1464) 
acceptable

>  <inchikey>  (1464) 
MKKCJCXUCWORFV-UHFFFAOYSA-N

>  <fragmenstein_mode>  (1464) 
expansion

>  <HIPPO Pose ID>  (1464) 
21607

>  <Energy>  (1464) 
137.751223

>  <fragmenstein_error>  (1464) 


>  <tags>  (1464) 
{'openbind_xx01zvns2b_c1_fragmenstein', 'fragmenstein_placed'}

>  <ref_pdb>  (1464) 
175

>  <scratch_subdir>  (1464) 
/opt/xchem-fragalysis-2/maxwin/BulkDock/SCRATCH/511028/C21426-P322

>  <alias>  (1464) 
CNc1cc2c([C@H](C(=O)NCC(F)F)C(=O)c3ccc4c(c3)CNC4)cc(Br)cc2n1O

>  <HIPPO Compound ID>  (1464) 
21426

>  <fragmenstein_runtime>  (1464) 
8.415011

$$$$
C[C@]1(N)Cc2csc3cc([C@](O)(Nc4ccc5c(c4)CNC5)C(=O)NCC(F)F)cc(c23)C1=O
     RDKit          3D

 34 38  0  0  0  0  0  0  0  0999 V2000
   -3.6980    6.9026  -18.8404 C   0  0  0  0  0  0  0  0  0  0  0  0
   -4.5756    5.7976  -18.2376 C   0  0  2  0  0  0  0  0  0  0  0  0
   -3.6795    4.6429  -18.0074 N   0  0  0  0  0  0  0  0  0  0  0  0
   -5.7089    5.4539  -19.2594 C   0  0  0  0  0  0  0  0  0  0  0  0
   -6.9363    4.8850  -18.6262 C   0  0  0  0  0  0  0  0  0  0  0  0
   -7.9765    4.1932  -19.2097 C   0  0  0  0  0  0  0  0  0  0  0  0
   -9.3057    3.9827  -18.1603 S   0  0  0  0  0  0  0  0  0  0  0  0
   -8.3531    4.4706  -16.8268 C   0  0  0  0  0  0  0  0  0  0  0  0
   -8.6572    4.3557  -15.4765 C   0  0  0  0  0  0  0  0  0  0  0  0
   -7.7055    4.7516  -14.5054 C   0  0  0  0  0  0  0  0  0  0  0  0
   -7.8895    4.2136  -13.0762 C   0  0  2  0  0  0  0  0  0  0  0  0
   -9.2701    4.0618  -12.9635 O   0  0  0  0  0  0  0  0  0  0  0  0
   -7.5149    5.2006  -12.0575 N   0  0  0  0  0  0  0  0  0  0  0  0
   -7.8607    4.8961  -10.7088 C   0  0  0  0  0  0  0  0  0  0  0  0
   -7.7377    5.9327   -9.7593 C   0  0  0  0  0  0  0  0  0  0  0  0
   -8.0248    5.7292   -8.4022 C   0  0  0  0  0  0  0  0  0  0  0  0
   -8.4246    4.4707   -7.9949 C   0  0  0  0  0  0  0  0  0  0  0  0
   -8.5338    3.4355   -8.9066 C   0  0  0  0  0  0  0  0  0  0  0  0
   -8.2401    3.6225  -10.2478 C   0  0  0  0  0  0  0  0  0  0  0  0
   -9.0360    2.2083   -8.2245 C   0  0  0  0  0  0  0  0  0  0  0  0
   -9.0102    2.5156   -6.7680 N   0  0  0  0  0  0  0  0  0  0  0  0
   -8.8299    3.9812   -6.6475 C   0  0  0  0  0  0  0  0  0  0  0  0
   -6.9072    2.9084  -12.9828 C   0  0  0  0  0  0  0  0  0  0  0  0
   -7.2248    1.8307  -13.3105 O   0  0  0  0  0  0  0  0  0  0  0  0
   -5.5319    3.4494  -12.4942 N   0  0  0  0  0  0  0  0  0  0  0  0
   -4.2969    2.7564  -12.2200 C   0  0  0  0  0  0  0  0  0  0  0  0
   -3.7046    2.1704  -13.4962 C   0  0  0  0  0  0  0  0  0  0  0  0
   -2.4124    1.8037  -13.3052 F   0  0  0  0  0  0  0  0  0  0  0  0
   -3.6824    3.1227  -14.4719 F   0  0  0  0  0  0  0  0  0  0  0  0
   -6.5589    5.4424  -14.9195 C   0  0  0  0  0  0  0  0  0  0  0  0
   -6.2928    5.5817  -16.2859 C   0  0  0  0  0  0  0  0  0  0  0  0
   -7.1501    5.0175  -17.2341 C   0  0  0  0  0  0  0  0  0  0  0  0
   -5.0857    6.2490  -16.8251 C   0  0  0  0  0  0  0  0  0  0  0  0
   -4.5231    7.0878  -16.1242 O   0  0  0  0  0  0  0  0  0  0  0  0
  2  1  1  6
  2  3  1  0
  2  4  1  0
  4  5  1  0
  5  6  2  0
  6  7  1  0
  7  8  1  0
  8  9  1  0
  9 10  2  0
 10 11  1  0
 11 12  1  1
 11 13  1  0
 13 14  1  0
 14 15  2  0
 15 16  1  0
 16 17  2  0
 17 18  1  0
 18 19  2  0
 18 20  1  0
 20 21  1  0
 21 22  1  0
 11 23  1  0
 23 24  2  0
 23 25  1  0
 25 26  1  0
 26 27  1  0
 27 28  1  0
 27 29  1  0
 10 30  1  0
 30 31  2  0
 31 32  1  0
 31 33  1  0
 33 34  2  0
 33  2  1  0
 32  5  1  0
 32  8  2  0
 19 14  1  0
 22 17  1  0
M  END
>  <smiles>  (1465) 
C21443-P192

>  <fragmenstein_outcome>  (1465) 
acceptable

>  <inchikey>  (1465) 
XTKMGNIPKHJZAN-UHFFFAOYSA-N

>  <fragmenstein_mode>  (1465) 
expansion

>  <HIPPO Pose ID>  (1465) 
21616

>  <Energy>  (1465) 
199.191512

>  <fragmenstein_error>  (1465) 


>  <tags>  (1465) 
{'openbind_xx01zvns2b_c1_fragmenstein', 'fragmenstein_placed'}

>  <ref_pdb>  (1465) 
175

>  <scratch_subdir>  (1465) 
/opt/xchem-fragalysis-2/maxwin/BulkDock/SCRATCH/511028/C21443-P192

>  <alias>  (1465) 
C[C@]1(N)Cc2csc3cc([C@](O)(Nc4ccc5c(c4)CNC5)C(=O)NCC(F)F)cc(c23)C1=O

>  <HIPPO Compound ID>  (1465) 
21443

>  <fragmenstein_runtime>  (1465) 
10.789299

$$$$
CC1=Nc2c(Br)cc([C@](C=O)(Nc3ccc4c(c3)CNC4)C(=O)NCC(F)F)cc2[C@@H]1O
     RDKit          3D

 32 35  0  0  0  0  0  0  0  0999 V2000
   -4.0094    6.2287  -19.5604 C   0  0  0  0  0  0  0  0  0  0  0  0
   -4.9220    5.7481  -18.4883 C   0  0  0  0  0  0  0  0  0  0  0  0
   -6.1895    5.5108  -18.6629 N   0  0  0  0  0  0  0  0  0  0  0  0
   -6.6822    5.0893  -17.4147 C   0  0  0  0  0  0  0  0  0  0  0  0
   -7.9321    4.6022  -17.1052 C   0  0  0  0  0  0  0  0  0  0  0  0
   -9.2885    4.3036  -18.3897 Br  0  0  0  0  0  0  0  0  0  0  0  0
   -8.1762    4.2471  -15.7780 C   0  0  0  0  0  0  0  0  0  0  0  0
   -7.2128    4.4131  -14.7291 C   0  0  0  0  0  0  0  0  0  0  0  0
   -7.5200    3.9284  -13.2863 C   0  0  2  0  0  0  0  0  0  0  0  0
   -9.0176    3.8430  -13.1366 C   0  0  0  0  0  0  0  0  0  0  0  0
   -9.7672    4.7332  -13.5583 O   0  0  0  0  0  0  0  0  0  0  0  0
   -7.0794    4.9351  -12.2306 N   0  0  0  0  0  0  0  0  0  0  0  0
   -7.5661    4.7307  -10.8966 C   0  0  0  0  0  0  0  0  0  0  0  0
   -7.6148    5.8403  -10.0266 C   0  0  0  0  0  0  0  0  0  0  0  0
   -8.0393    5.7185   -8.6911 C   0  0  0  0  0  0  0  0  0  0  0  0
   -8.4249    4.4740   -8.2275 C   0  0  0  0  0  0  0  0  0  0  0  0
   -8.3660    3.3691   -9.0568 C   0  0  0  0  0  0  0  0  0  0  0  0
   -7.8927    3.4707  -10.3554 C   0  0  0  0  0  0  0  0  0  0  0  0
   -8.8467    2.1572   -8.3259 C   0  0  0  0  0  0  0  0  0  0  0  0
   -9.4461    2.6734   -7.0661 N   0  0  0  0  0  0  0  0  0  0  0  0
   -8.8914    4.0342   -6.8798 C   0  0  0  0  0  0  0  0  0  0  0  0
   -6.7483    2.5644  -13.0787 C   0  0  0  0  0  0  0  0  0  0  0  0
   -7.1577    1.5167  -13.3918 O   0  0  0  0  0  0  0  0  0  0  0  0
   -5.3813    2.9664  -12.4580 N   0  0  0  0  0  0  0  0  0  0  0  0
   -4.2095    2.1752  -12.1862 C   0  0  0  0  0  0  0  0  0  0  0  0
   -3.1234    2.3786  -13.2367 C   0  0  0  0  0  0  0  0  0  0  0  0
   -3.3342    1.6207  -14.3362 F   0  0  0  0  0  0  0  0  0  0  0  0
   -3.1022    3.6693  -13.6679 F   0  0  0  0  0  0  0  0  0  0  0  0
   -5.9479    4.8855  -15.0779 C   0  0  0  0  0  0  0  0  0  0  0  0
   -5.7009    5.1674  -16.4127 C   0  0  0  0  0  0  0  0  0  0  0  0
   -4.3985    5.4697  -17.0737 C   0  0  2  0  0  0  0  0  0  0  0  0
   -3.7194    6.4986  -16.4084 O   0  0  0  0  0  0  0  0  0  0  0  0
  1  2  1  0
  2  3  2  0
  3  4  1  0
  4  5  2  0
  5  6  1  0
  5  7  1  0
  7  8  2  0
  8  9  1  0
  9 10  1  0
 10 11  2  0
  9 12  1  1
 12 13  1  0
 13 14  2  0
 14 15  1  0
 15 16  2  0
 16 17  1  0
 17 18  2  0
 17 19  1  0
 19 20  1  0
 20 21  1  0
  9 22  1  0
 22 23  2  0
 22 24  1  0
 24 25  1  0
 25 26  1  0
 26 27  1  0
 26 28  1  0
  8 29  1  0
 29 30  2  0
 30 31  1  0
 31 32  1  1
 31  2  1  0
 30  4  1  0
 18 13  1  0
 21 16  1  0
M  END
>  <smiles>  (1466) 
C21451-P192

>  <fragmenstein_outcome>  (1466) 
acceptable

>  <inchikey>  (1466) 
DHQHKIGLXKKSTE-UHFFFAOYSA-N

>  <fragmenstein_mode>  (1466) 
expansion

>  <HIPPO Pose ID>  (1466) 
21628

>  <Energy>  (1466) 
215.688936

>  <fragmenstein_error>  (1466) 


>  <tags>  (1466) 
{'openbind_xx01zvns2b_c1_fragmenstein', 'fragmenstein_placed'}

>  <ref_pdb>  (1466) 
175

>  <scratch_subdir>  (1466) 
/opt/xchem-fragalysis-2/maxwin/BulkDock/SCRATCH/511028/C21451-P192

>  <alias>  (1466) 
CC1=Nc2c(Br)cc([C@](C=O)(Nc3ccc4c(c3)CNC4)C(=O)NCC(F)F)cc2[C@@H]1O

>  <HIPPO Compound ID>  (1466) 
29134

>  <fragmenstein_runtime>  (1466) 
5.977933

$$$$
Cc1ncc2c(Br)cc([C@@H](Nc3ccc4c(c3)CNC4)C(=O)NCC(F)F)c(O)c2c1O
     RDKit          3D

 32 35  0  0  0  0  0  0  0  0999 V2000
   -3.2991    6.1804  -19.0372 C   0  0  0  0  0  0  0  0  0  0  0  0
   -4.5791    5.7433  -18.4034 C   0  0  0  0  0  0  0  0  0  0  0  0
   -5.5875    5.4270  -19.2267 N   0  0  0  0  0  0  0  0  0  0  0  0
   -6.7529    5.0065  -18.6680 C   0  0  0  0  0  0  0  0  0  0  0  0
   -7.0191    4.9391  -17.2912 C   0  0  0  0  0  0  0  0  0  0  0  0
   -8.2396    4.5147  -16.7028 C   0  0  0  0  0  0  0  0  0  0  0  0
   -9.7507    4.0585  -17.7723 Br  0  0  0  0  0  0  0  0  0  0  0  0
   -8.3652    4.3965  -15.3095 C   0  0  0  0  0  0  0  0  0  0  0  0
   -7.3044    4.7622  -14.4691 C   0  0  0  0  0  0  0  0  0  0  0  0
   -7.2635    4.4711  -12.9740 C   0  0  1  0  0  0  0  0  0  0  0  0
   -8.5820    4.6110  -12.3558 N   0  0  0  0  0  0  0  0  0  0  0  0
   -8.5130    4.4654  -10.9469 C   0  0  0  0  0  0  0  0  0  0  0  0
   -8.2450    5.5732  -10.1136 C   0  0  0  0  0  0  0  0  0  0  0  0
   -8.2642    5.4468   -8.7201 C   0  0  0  0  0  0  0  0  0  0  0  0
   -8.5623    4.2070   -8.1863 C   0  0  0  0  0  0  0  0  0  0  0  0
   -8.7519    3.0991   -9.0062 C   0  0  0  0  0  0  0  0  0  0  0  0
   -8.7002    3.2026  -10.3823 C   0  0  0  0  0  0  0  0  0  0  0  0
   -9.0481    1.9059   -8.1636 C   0  0  0  0  0  0  0  0  0  0  0  0
   -9.4454    2.4693   -6.8430 N   0  0  0  0  0  0  0  0  0  0  0  0
   -8.7841    3.7942   -6.7691 C   0  0  0  0  0  0  0  0  0  0  0  0
   -6.5749    3.0577  -12.8072 C   0  0  0  0  0  0  0  0  0  0  0  0
   -7.0867    2.0390  -13.0723 O   0  0  0  0  0  0  0  0  0  0  0  0
   -5.1178    3.3652  -12.3408 N   0  0  0  0  0  0  0  0  0  0  0  0
   -3.9810    2.4975  -12.2006 C   0  0  0  0  0  0  0  0  0  0  0  0
   -3.4762    2.1003  -13.5823 C   0  0  0  0  0  0  0  0  0  0  0  0
   -2.1976    1.6522  -13.5116 F   0  0  0  0  0  0  0  0  0  0  0  0
   -3.4355    3.2011  -14.3989 F   0  0  0  0  0  0  0  0  0  0  0  0
   -6.1407    5.2644  -15.0565 C   0  0  0  0  0  0  0  0  0  0  0  0
   -5.1624    5.7311  -14.2027 O   0  0  0  0  0  0  0  0  0  0  0  0
   -5.9500    5.2959  -16.4502 C   0  0  0  0  0  0  0  0  0  0  0  0
   -4.7130    5.6331  -17.0302 C   0  0  0  0  0  0  0  0  0  0  0  0
   -3.6065    5.7701  -16.2286 O   0  0  0  0  0  0  0  0  0  0  0  0
  1  2  1  0
  2  3  2  0
  3  4  1  0
  4  5  2  0
  5  6  1  0
  6  7  1  0
  6  8  2  0
  8  9  1  0
  9 10  1  0
 10 11  1  6
 11 12  1  0
 12 13  2  0
 13 14  1  0
 14 15  2  0
 15 16  1  0
 16 17  2  0
 16 18  1  0
 18 19  1  0
 19 20  1  0
 10 21  1  0
 21 22  2  0
 21 23  1  0
 23 24  1  0
 24 25  1  0
 25 26  1  0
 25 27  1  0
  9 28  2  0
 28 29  1  0
 28 30  1  0
 30 31  2  0
 31 32  1  0
 31  2  1  0
 30  5  1  0
 17 12  1  0
 20 15  1  0
M  END
>  <smiles>  (1467) 
C21452-P192

>  <fragmenstein_outcome>  (1467) 
acceptable

>  <inchikey>  (1467) 
ONBKQRMGTWUDIS-UHFFFAOYSA-N

>  <fragmenstein_mode>  (1467) 
expansion

>  <HIPPO Pose ID>  (1467) 
21629

>  <Energy>  (1467) 
160.061551

>  <fragmenstein_error>  (1467) 


>  <tags>  (1467) 
{'openbind_xx01zvns2b_c1_fragmenstein', 'fragmenstein_placed'}

>  <ref_pdb>  (1467) 
175

>  <scratch_subdir>  (1467) 
/opt/xchem-fragalysis-2/maxwin/BulkDock/SCRATCH/511028/C21452-P192

>  <alias>  (1467) 
Cc1ncc2c(Br)cc([C@@H](Nc3ccc4c(c3)CNC4)C(=O)NCC(F)F)c(O)c2c1O

>  <HIPPO Compound ID>  (1467) 
21452

>  <fragmenstein_runtime>  (1467) 
4.016295

$$$$
CC(C)(NO)c1cc(Br)cc([C@H](Nc2ccc3c(c2)CNC3)C(=O)NCC(F)F)c1
     RDKit          3D

 30 32  0  0  0  0  0  0  0  0999 V2000
   -3.7497    4.9470  -16.5774 C   0  0  0  0  0  0  0  0  0  0  0  0
   -4.9961    5.4657  -17.3180 C   0  0  0  0  0  0  0  0  0  0  0  0
   -4.9330    4.9567  -18.7754 C   0  0  0  0  0  0  0  0  0  0  0  0
   -4.9423    6.9465  -17.3658 N   0  0  0  0  0  0  0  0  0  0  0  0
   -3.7845    7.3235  -18.1706 O   0  0  0  0  0  0  0  0  0  0  0  0
   -6.3248    5.0541  -16.6457 C   0  0  0  0  0  0  0  0  0  0  0  0
   -7.4856    4.9421  -17.4317 C   0  0  0  0  0  0  0  0  0  0  0  0
   -8.6809    4.4883  -16.8894 C   0  0  0  0  0  0  0  0  0  0  0  0
  -10.1588    4.2407  -18.0341 Br  0  0  0  0  0  0  0  0  0  0  0  0
   -8.7737    4.1723  -15.5407 C   0  0  0  0  0  0  0  0  0  0  0  0
   -7.6472    4.2556  -14.7106 C   0  0  0  0  0  0  0  0  0  0  0  0
   -7.7484    3.7174  -13.2767 C   0  0  2  0  0  0  0  0  0  0  0  0
   -7.5622    4.8191  -12.2992 N   0  0  0  0  0  0  0  0  0  0  0  0
   -7.9821    4.6129  -10.9648 C   0  0  0  0  0  0  0  0  0  0  0  0
   -7.9053    5.7091  -10.0760 C   0  0  0  0  0  0  0  0  0  0  0  0
   -8.1880    5.5780   -8.7079 C   0  0  0  0  0  0  0  0  0  0  0  0
   -8.5542    4.3344   -8.2317 C   0  0  0  0  0  0  0  0  0  0  0  0
   -8.6210    3.2433   -9.0850 C   0  0  0  0  0  0  0  0  0  0  0  0
   -8.3239    3.3593  -10.4340 C   0  0  0  0  0  0  0  0  0  0  0  0
   -9.0098    2.0278   -8.3089 C   0  0  0  0  0  0  0  0  0  0  0  0
   -9.5196    2.5473   -7.0108 N   0  0  0  0  0  0  0  0  0  0  0  0
   -8.9036    3.8855   -6.8516 C   0  0  0  0  0  0  0  0  0  0  0  0
   -6.7111    2.5476  -13.0588 C   0  0  0  0  0  0  0  0  0  0  0  0
   -6.8886    1.4594  -13.4436 O   0  0  0  0  0  0  0  0  0  0  0  0
   -5.4754    3.1797  -12.3716 N   0  0  0  0  0  0  0  0  0  0  0  0
   -4.1708    2.6295  -12.1025 C   0  0  0  0  0  0  0  0  0  0  0  0
   -3.4983    2.2042  -13.4005 C   0  0  0  0  0  0  0  0  0  0  0  0
   -2.2142    1.8277  -13.1827 F   0  0  0  0  0  0  0  0  0  0  0  0
   -3.4313    3.2786  -14.2345 F   0  0  0  0  0  0  0  0  0  0  0  0
   -6.4397    4.7371  -15.2705 C   0  0  0  0  0  0  0  0  0  0  0  0
  1  2  1  0
  2  3  1  0
  2  4  1  0
  4  5  1  0
  2  6  1  0
  6  7  2  0
  7  8  1  0
  8  9  1  0
  8 10  2  0
 10 11  1  0
 11 12  1  0
 12 13  1  1
 13 14  1  0
 14 15  2  0
 15 16  1  0
 16 17  2  0
 17 18  1  0
 18 19  2  0
 18 20  1  0
 20 21  1  0
 21 22  1  0
 12 23  1  0
 23 24  2  0
 23 25  1  0
 25 26  1  0
 26 27  1  0
 27 28  1  0
 27 29  1  0
 11 30  2  0
 30  6  1  0
 19 14  1  0
 22 17  1  0
M  END
>  <smiles>  (1468) 
C21455-P192

>  <fragmenstein_outcome>  (1468) 
acceptable

>  <inchikey>  (1468) 
PTTPHRFXBLZWAT-UHFFFAOYSA-N

>  <fragmenstein_mode>  (1468) 
expansion

>  <HIPPO Pose ID>  (1468) 
21630

>  <Energy>  (1468) 
156.542041

>  <fragmenstein_error>  (1468) 


>  <tags>  (1468) 
{'openbind_xx01zvns2b_c1_fragmenstein', 'fragmenstein_placed'}

>  <ref_pdb>  (1468) 
175

>  <scratch_subdir>  (1468) 
/opt/xchem-fragalysis-2/maxwin/BulkDock/SCRATCH/511028/C21455-P192

>  <alias>  (1468) 
CC(C)(NO)c1cc(Br)cc([C@H](Nc2ccc3c(c2)CNC3)C(=O)NCC(F)F)c1

>  <HIPPO Compound ID>  (1468) 
37175

>  <fragmenstein_runtime>  (1468) 
5.28422

$$$$
CNC[C@@H](O)Nc1cc(Br)cc([C@H](C(=O)NCC(F)F)C(=O)c2ccc3c(c2)CNC3)c1
     RDKit          3D

 32 34  0  0  0  0  0  0  0  0999 V2000
   -1.8675    5.5013  -18.8362 C   0  0  0  0  0  0  0  0  0  0  0  0
   -2.5175    6.7775  -18.5505 N   0  0  0  0  0  0  0  0  0  0  0  0
   -3.7728    6.9288  -19.3338 C   0  0  0  0  0  0  0  0  0  0  0  0
   -4.9754    6.0183  -18.9476 C   0  0  1  0  0  0  0  0  0  0  0  0
   -4.7202    4.6987  -19.3732 O   0  0  0  0  0  0  0  0  0  0  0  0
   -5.1532    6.0345  -17.5109 N   0  0  0  0  0  0  0  0  0  0  0  0
   -6.2290    5.4042  -16.8974 C   0  0  0  0  0  0  0  0  0  0  0  0
   -7.4095    5.0719  -17.5587 C   0  0  0  0  0  0  0  0  0  0  0  0
   -8.4811    4.5055  -16.8689 C   0  0  0  0  0  0  0  0  0  0  0  0
  -10.0248    4.0587  -17.8600 Br  0  0  0  0  0  0  0  0  0  0  0  0
   -8.4188    4.2961  -15.4925 C   0  0  0  0  0  0  0  0  0  0  0  0
   -7.2642    4.6641  -14.7920 C   0  0  0  0  0  0  0  0  0  0  0  0
   -7.0974    4.4609  -13.2880 C   0  0  2  0  0  0  0  0  0  0  0  0
   -6.6191    3.0294  -12.9939 C   0  0  0  0  0  0  0  0  0  0  0  0
   -7.2612    2.0774  -13.2052 O   0  0  0  0  0  0  0  0  0  0  0  0
   -5.1638    3.1650  -12.4672 N   0  0  0  0  0  0  0  0  0  0  0  0
   -4.1729    2.1567  -12.1850 C   0  0  0  0  0  0  0  0  0  0  0  0
   -3.0514    2.2247  -13.2143 C   0  0  0  0  0  0  0  0  0  0  0  0
   -3.3688    1.5658  -14.3500 F   0  0  0  0  0  0  0  0  0  0  0  0
   -2.8461    3.5228  -13.5815 F   0  0  0  0  0  0  0  0  0  0  0  0
   -8.2311    4.9911  -12.4411 C   0  0  0  0  0  0  0  0  0  0  0  0
   -8.9847    5.8838  -12.8380 O   0  0  0  0  0  0  0  0  0  0  0  0
   -8.2695    4.6602  -10.9951 C   0  0  0  0  0  0  0  0  0  0  0  0
   -8.1006    5.7283  -10.0867 C   0  0  0  0  0  0  0  0  0  0  0  0
   -8.2196    5.5204   -8.7105 C   0  0  0  0  0  0  0  0  0  0  0  0
   -8.5353    4.2468   -8.2744 C   0  0  0  0  0  0  0  0  0  0  0  0
   -8.6802    3.1886   -9.1705 C   0  0  0  0  0  0  0  0  0  0  0  0
   -8.5473    3.3703  -10.5379 C   0  0  0  0  0  0  0  0  0  0  0  0
   -9.0218    1.9504   -8.4071 C   0  0  0  0  0  0  0  0  0  0  0  0
   -9.4674    2.4334   -7.0719 N   0  0  0  0  0  0  0  0  0  0  0  0
   -8.8253    3.7551   -6.8939 C   0  0  0  0  0  0  0  0  0  0  0  0
   -6.1854    5.2132  -15.5123 C   0  0  0  0  0  0  0  0  0  0  0  0
  1  2  1  0
  2  3  1  0
  3  4  1  0
  4  5  1  1
  4  6  1  0
  6  7  1  0
  7  8  2  0
  8  9  1  0
  9 10  1  0
  9 11  2  0
 11 12  1  0
 12 13  1  0
 13 14  1  6
 14 15  2  0
 14 16  1  0
 16 17  1  0
 17 18  1  0
 18 19  1  0
 18 20  1  0
 13 21  1  0
 21 22  2  0
 21 23  1  0
 23 24  2  0
 24 25  1  0
 25 26  2  0
 26 27  1  0
 27 28  2  0
 27 29  1  0
 29 30  1  0
 30 31  1  0
 12 32  2  0
 32  7  1  0
 28 23  1  0
 31 26  1  0
M  END
>  <smiles>  (1469) 
C21462-P192

>  <fragmenstein_outcome>  (1469) 
acceptable

>  <inchikey>  (1469) 
ZCHALLWMEWUUHD-UHFFFAOYSA-N

>  <fragmenstein_mode>  (1469) 
expansion

>  <HIPPO Pose ID>  (1469) 
21635

>  <Energy>  (1469) 
122.930865

>  <fragmenstein_error>  (1469) 


>  <tags>  (1469) 
{'openbind_xx01zvns2b_c1_fragmenstein', 'fragmenstein_placed'}

>  <ref_pdb>  (1469) 
175

>  <scratch_subdir>  (1469) 
/opt/xchem-fragalysis-2/maxwin/BulkDock/SCRATCH/511028/C21462-P192

>  <alias>  (1469) 
CNC[C@@H](O)Nc1cc(Br)cc([C@H](C(=O)NCC(F)F)C(=O)c2ccc3c(c2)CNC3)c1

>  <HIPPO Compound ID>  (1469) 
35550

>  <fragmenstein_runtime>  (1469) 
7.625019

$$$$
CNc1c(C)oc2c([C@H](Nc3ccc4c(c3)CNC4)C(=O)NCC(F)F)cc(Br)cc12
     RDKit          3D

 31 34  0  0  0  0  0  0  0  0999 V2000
   -3.3900    6.2910  -18.4538 C   0  0  0  0  0  0  0  0  0  0  0  0
   -4.7950    6.2391  -18.1229 N   0  0  0  0  0  0  0  0  0  0  0  0
   -5.2484    5.8426  -16.9023 C   0  0  0  0  0  0  0  0  0  0  0  0
   -4.6537    5.8907  -15.6582 C   0  0  0  0  0  0  0  0  0  0  0  0
   -3.3491    6.3574  -15.1505 C   0  0  0  0  0  0  0  0  0  0  0  0
   -5.4960    5.3635  -14.7145 O   0  0  0  0  0  0  0  0  0  0  0  0
   -6.6326    4.9615  -15.3518 C   0  0  0  0  0  0  0  0  0  0  0  0
   -7.7356    4.3287  -14.7574 C   0  0  0  0  0  0  0  0  0  0  0  0
   -7.8047    3.7850  -13.3383 C   0  0  2  0  0  0  0  0  0  0  0  0
   -7.7827    4.8816  -12.3546 N   0  0  0  0  0  0  0  0  0  0  0  0
   -7.9962    4.6477  -10.9951 C   0  0  0  0  0  0  0  0  0  0  0  0
   -7.8824    5.7307  -10.0968 C   0  0  0  0  0  0  0  0  0  0  0  0
   -8.1204    5.5853   -8.7210 C   0  0  0  0  0  0  0  0  0  0  0  0
   -8.5008    4.3443   -8.2497 C   0  0  0  0  0  0  0  0  0  0  0  0
   -8.6325    3.2707   -9.1170 C   0  0  0  0  0  0  0  0  0  0  0  0
   -8.4015    3.4072  -10.4773 C   0  0  0  0  0  0  0  0  0  0  0  0
   -9.0287    2.0549   -8.3459 C   0  0  0  0  0  0  0  0  0  0  0  0
   -9.4879    2.5687   -7.0266 N   0  0  0  0  0  0  0  0  0  0  0  0
   -8.8360    3.8902   -6.8680 C   0  0  0  0  0  0  0  0  0  0  0  0
   -6.7061    2.6787  -13.1047 C   0  0  0  0  0  0  0  0  0  0  0  0
   -6.8678    1.5656  -13.4235 O   0  0  0  0  0  0  0  0  0  0  0  0
   -5.4616    3.3803  -12.5042 N   0  0  0  0  0  0  0  0  0  0  0  0
   -4.1327    2.8807  -12.2610 C   0  0  0  0  0  0  0  0  0  0  0  0
   -3.5277    2.2761  -13.5213 C   0  0  0  0  0  0  0  0  0  0  0  0
   -2.2418    1.8995  -13.2972 F   0  0  0  0  0  0  0  0  0  0  0  0
   -3.4667    3.2233  -14.4970 F   0  0  0  0  0  0  0  0  0  0  0  0
   -8.8273    4.1431  -15.6331 C   0  0  0  0  0  0  0  0  0  0  0  0
   -8.7580    4.4522  -16.9904 C   0  0  0  0  0  0  0  0  0  0  0  0
  -10.2427    4.1617  -18.1043 Br  0  0  0  0  0  0  0  0  0  0  0  0
   -7.6089    4.9877  -17.5554 C   0  0  0  0  0  0  0  0  0  0  0  0
   -6.5358    5.2781  -16.7042 C   0  0  0  0  0  0  0  0  0  0  0  0
  1  2  1  0
  2  3  1  0
  3  4  2  0
  4  5  1  0
  4  6  1  0
  6  7  1  0
  7  8  2  0
  8  9  1  0
  9 10  1  1
 10 11  1  0
 11 12  2  0
 12 13  1  0
 13 14  2  0
 14 15  1  0
 15 16  2  0
 15 17  1  0
 17 18  1  0
 18 19  1  0
  9 20  1  0
 20 21  2  0
 20 22  1  0
 22 23  1  0
 23 24  1  0
 24 25  1  0
 24 26  1  0
  8 27  1  0
 27 28  2  0
 28 29  1  0
 28 30  1  0
 30 31  2  0
 31  3  1  0
 31  7  1  0
 16 11  1  0
 19 14  1  0
M  END
>  <smiles>  (1470) 
C21463-P192

>  <fragmenstein_outcome>  (1470) 
acceptable

>  <inchikey>  (1470) 
UUOOUBHEFMHWRX-UHFFFAOYSA-N

>  <fragmenstein_mode>  (1470) 
expansion

>  <HIPPO Pose ID>  (1470) 
21636

>  <Energy>  (1470) 
114.815688

>  <fragmenstein_error>  (1470) 


>  <tags>  (1470) 
{'openbind_xx01zvns2b_c1_fragmenstein', 'fragmenstein_placed'}

>  <ref_pdb>  (1470) 
175

>  <scratch_subdir>  (1470) 
/opt/xchem-fragalysis-2/maxwin/BulkDock/SCRATCH/511028/C21463-P192

>  <alias>  (1470) 
CNc1c(C)oc2c([C@H](Nc3ccc4c(c3)CNC4)C(=O)NCC(F)F)cc(Br)cc12

>  <HIPPO Compound ID>  (1470) 
21463

>  <fragmenstein_runtime>  (1470) 
2.944963

$$$$
CN[C@@](O)(F)c1cc(Br)cc([C@@H](Nc2ccc3c(c2)CNC3)C(=O)NCC(F)F)c1
     RDKit          3D

 30 32  0  0  0  0  0  0  0  0999 V2000
   -4.8507    5.2374  -19.5805 C   0  0  0  0  0  0  0  0  0  0  0  0
   -4.3025    5.4361  -18.2445 N   0  0  0  0  0  0  0  0  0  0  0  0
   -5.1627    6.2234  -17.3958 C   0  0  1  0  0  0  0  0  0  0  0  0
   -4.3364    6.7931  -16.4016 O   0  0  0  0  0  0  0  0  0  0  0  0
   -5.5810    7.3185  -18.0872 F   0  0  0  0  0  0  0  0  0  0  0  0
   -6.2953    5.4869  -16.7268 C   0  0  0  0  0  0  0  0  0  0  0  0
   -7.4369    5.1313  -17.4502 C   0  0  0  0  0  0  0  0  0  0  0  0
   -8.5153    4.5187  -16.8156 C   0  0  0  0  0  0  0  0  0  0  0  0
  -10.0126    4.0623  -17.8702 Br  0  0  0  0  0  0  0  0  0  0  0  0
   -8.4959    4.2779  -15.4407 C   0  0  0  0  0  0  0  0  0  0  0  0
   -7.3687    4.6278  -14.6853 C   0  0  0  0  0  0  0  0  0  0  0  0
   -7.2342    4.3593  -13.1868 C   0  0  1  0  0  0  0  0  0  0  0  0
   -8.5036    4.5937  -12.4942 N   0  0  0  0  0  0  0  0  0  0  0  0
   -8.4262    4.4622  -11.0919 C   0  0  0  0  0  0  0  0  0  0  0  0
   -8.1677    5.5804  -10.2711 C   0  0  0  0  0  0  0  0  0  0  0  0
   -8.2019    5.4740   -8.8754 C   0  0  0  0  0  0  0  0  0  0  0  0
   -8.5035    4.2421   -8.3251 C   0  0  0  0  0  0  0  0  0  0  0  0
   -8.6865    3.1231   -9.1302 C   0  0  0  0  0  0  0  0  0  0  0  0
   -8.6215    3.2082  -10.5083 C   0  0  0  0  0  0  0  0  0  0  0  0
   -8.9965    1.9431   -8.2720 C   0  0  0  0  0  0  0  0  0  0  0  0
   -9.3930    2.5251   -6.9590 N   0  0  0  0  0  0  0  0  0  0  0  0
   -8.7327    3.8505   -6.9030 C   0  0  0  0  0  0  0  0  0  0  0  0
   -6.5839    2.9413  -12.9836 C   0  0  0  0  0  0  0  0  0  0  0  0
   -7.0789    1.9366  -13.3217 O   0  0  0  0  0  0  0  0  0  0  0  0
   -5.1780    3.2171  -12.3672 N   0  0  0  0  0  0  0  0  0  0  0  0
   -4.0711    2.3295  -12.1337 C   0  0  0  0  0  0  0  0  0  0  0  0
   -3.4441    1.9896  -13.4823 C   0  0  0  0  0  0  0  0  0  0  0  0
   -2.1734    1.5440  -13.3294 F   0  0  0  0  0  0  0  0  0  0  0  0
   -3.3498    3.1254  -14.2372 F   0  0  0  0  0  0  0  0  0  0  0  0
   -6.2709    5.1990  -15.3513 C   0  0  0  0  0  0  0  0  0  0  0  0
  1  2  1  0
  2  3  1  0
  3  4  1  1
  3  5  1  0
  3  6  1  0
  6  7  2  0
  7  8  1  0
  8  9  1  0
  8 10  2  0
 10 11  1  0
 11 12  1  0
 12 13  1  1
 13 14  1  0
 14 15  2  0
 15 16  1  0
 16 17  2  0
 17 18  1  0
 18 19  2  0
 18 20  1  0
 20 21  1  0
 21 22  1  0
 12 23  1  0
 23 24  2  0
 23 25  1  0
 25 26  1  0
 26 27  1  0
 27 28  1  0
 27 29  1  0
 11 30  2  0
 30  6  1  0
 19 14  1  0
 22 17  1  0
M  END
>  <smiles>  (1471) 
C21468-P192

>  <fragmenstein_outcome>  (1471) 
acceptable

>  <inchikey>  (1471) 
FGHMWEZFJIQDJO-UHFFFAOYSA-N

>  <fragmenstein_mode>  (1471) 
expansion

>  <HIPPO Pose ID>  (1471) 
21642

>  <Energy>  (1471) 
66.399609

>  <fragmenstein_error>  (1471) 


>  <tags>  (1471) 
{'openbind_xx01zvns2b_c1_fragmenstein', 'fragmenstein_placed'}

>  <ref_pdb>  (1471) 
175

>  <scratch_subdir>  (1471) 
/opt/xchem-fragalysis-2/maxwin/BulkDock/SCRATCH/511028/C21468-P192

>  <alias>  (1471) 
CN[C@@](O)(F)c1cc(Br)cc([C@@H](Nc2ccc3c(c2)CNC3)C(=O)NCC(F)F)c1

>  <HIPPO Compound ID>  (1471) 
40497

>  <fragmenstein_runtime>  (1471) 
4.651346

$$$$
CNN(O)Cc1cc(Br)cc([C@@H](C(=O)NCC(F)F)C(=O)c2ccc3c(c2)CNC3)c1
     RDKit          3D

 31 33  0  0  0  0  0  0  0  0999 V2000
   -4.6402    7.9442  -19.3354 C   0  0  0  0  0  0  0  0  0  0  0  0
   -3.7728    7.0031  -18.6366 N   0  0  0  0  0  0  0  0  0  0  0  0
   -4.5578    5.9362  -18.1030 N   0  0  0  0  0  0  0  0  0  0  0  0
   -3.7083    4.7779  -17.9067 O   0  0  0  0  0  0  0  0  0  0  0  0
   -5.0966    6.2502  -16.7643 C   0  0  0  0  0  0  0  0  0  0  0  0
   -6.3076    5.4203  -16.3958 C   0  0  0  0  0  0  0  0  0  0  0  0
   -7.3136    5.1406  -17.3286 C   0  0  0  0  0  0  0  0  0  0  0  0
   -8.4772    4.4972  -16.9201 C   0  0  0  0  0  0  0  0  0  0  0  0
   -9.8452    4.1561  -18.1734 Br  0  0  0  0  0  0  0  0  0  0  0  0
   -8.6541    4.1193  -15.5905 C   0  0  0  0  0  0  0  0  0  0  0  0
   -7.6458    4.3415  -14.6444 C   0  0  0  0  0  0  0  0  0  0  0  0
   -7.8116    3.8301  -13.2077 C   0  0  1  0  0  0  0  0  0  0  0  0
   -6.7855    2.7034  -12.9307 C   0  0  0  0  0  0  0  0  0  0  0  0
   -7.0426    1.5871  -13.1645 O   0  0  0  0  0  0  0  0  0  0  0  0
   -5.4616    3.3488  -12.4383 N   0  0  0  0  0  0  0  0  0  0  0  0
   -4.1578    2.7665  -12.2244 C   0  0  0  0  0  0  0  0  0  0  0  0
   -3.5533    2.2897  -13.5383 C   0  0  0  0  0  0  0  0  0  0  0  0
   -2.2642    1.9073  -13.3566 F   0  0  0  0  0  0  0  0  0  0  0  0
   -3.5168    3.3322  -14.4154 F   0  0  0  0  0  0  0  0  0  0  0  0
   -7.8634    4.9490  -12.1740 C   0  0  0  0  0  0  0  0  0  0  0  0
   -7.6618    6.1297  -12.4707 O   0  0  0  0  0  0  0  0  0  0  0  0
   -8.1209    4.6320  -10.7352 C   0  0  0  0  0  0  0  0  0  0  0  0
   -7.9740    5.6856   -9.8023 C   0  0  0  0  0  0  0  0  0  0  0  0
   -8.1857    5.4811   -8.4373 C   0  0  0  0  0  0  0  0  0  0  0  0
   -8.5439    4.2146   -8.0209 C   0  0  0  0  0  0  0  0  0  0  0  0
   -8.6866    3.1737   -8.9299 C   0  0  0  0  0  0  0  0  0  0  0  0
   -8.4863    3.3579  -10.2898 C   0  0  0  0  0  0  0  0  0  0  0  0
   -9.1032    1.9366   -8.2099 C   0  0  0  0  0  0  0  0  0  0  0  0
   -9.0626    2.2660   -6.7601 N   0  0  0  0  0  0  0  0  0  0  0  0
   -8.8869    3.7305   -6.6541 C   0  0  0  0  0  0  0  0  0  0  0  0
   -6.4850    5.0136  -15.0631 C   0  0  0  0  0  0  0  0  0  0  0  0
  1  2  1  0
  2  3  1  0
  3  4  1  0
  3  5  1  0
  5  6  1  0
  6  7  2  0
  7  8  1  0
  8  9  1  0
  8 10  2  0
 10 11  1  0
 11 12  1  0
 12 13  1  1
 13 14  2  0
 13 15  1  0
 15 16  1  0
 16 17  1  0
 17 18  1  0
 17 19  1  0
 12 20  1  0
 20 21  2  0
 20 22  1  0
 22 23  2  0
 23 24  1  0
 24 25  2  0
 25 26  1  0
 26 27  2  0
 26 28  1  0
 28 29  1  0
 29 30  1  0
 11 31  2  0
 31  6  1  0
 27 22  1  0
 30 25  1  0
M  END
>  <smiles>  (1472) 
C21469-P192

>  <fragmenstein_outcome>  (1472) 
acceptable

>  <inchikey>  (1472) 
FZTAYJPELYTGOW-UHFFFAOYSA-N

>  <fragmenstein_mode>  (1472) 
expansion

>  <HIPPO Pose ID>  (1472) 
21643

>  <Energy>  (1472) 
150.363512

>  <fragmenstein_error>  (1472) 


>  <tags>  (1472) 
{'openbind_xx01zvns2b_c1_fragmenstein', 'fragmenstein_placed'}

>  <ref_pdb>  (1472) 
175

>  <scratch_subdir>  (1472) 
/opt/xchem-fragalysis-2/maxwin/BulkDock/SCRATCH/511028/C21469-P192

>  <alias>  (1472) 
CNN(O)Cc1cc(Br)cc([C@@H](C(=O)NCC(F)F)C(=O)c2ccc3c(c2)CNC3)c1

>  <HIPPO Compound ID>  (1472) 
23273

>  <fragmenstein_runtime>  (1472) 
6.940616

$$$$
CNN(c1cc(Br)cc([C@@H](C(=O)NCC(F)F)C(=O)c2ccc3c(c2)CNC3)c1)N(O)CC1CNC1
     RDKit          3D

 36 39  0  0  0  0  0  0  0  0999 V2000
   -3.1045    6.4996  -15.2403 C   0  0  0  0  0  0  0  0  0  0  0  0
   -4.4930    6.8582  -15.4652 N   0  0  0  0  0  0  0  0  0  0  0  0
   -5.0291    6.1466  -16.5672 N   0  0  0  0  0  0  0  0  0  0  0  0
   -6.2318    5.4111  -16.2398 C   0  0  0  0  0  0  0  0  0  0  0  0
   -7.2555    5.1657  -17.1697 C   0  0  0  0  0  0  0  0  0  0  0  0
   -8.4329    4.5326  -16.7787 C   0  0  0  0  0  0  0  0  0  0  0  0
   -9.7831    4.1855  -18.0585 Br  0  0  0  0  0  0  0  0  0  0  0  0
   -8.6255    4.1474  -15.4548 C   0  0  0  0  0  0  0  0  0  0  0  0
   -7.6049    4.3064  -14.5087 C   0  0  0  0  0  0  0  0  0  0  0  0
   -7.7707    3.7402  -13.1005 C   0  0  1  0  0  0  0  0  0  0  0  0
   -6.7886    2.5581  -12.8788 C   0  0  0  0  0  0  0  0  0  0  0  0
   -7.0879    1.4701  -13.1819 O   0  0  0  0  0  0  0  0  0  0  0  0
   -5.4477    3.1164  -12.3358 N   0  0  0  0  0  0  0  0  0  0  0  0
   -4.1708    2.4685  -12.1444 C   0  0  0  0  0  0  0  0  0  0  0  0
   -3.5353    2.1334  -13.4882 C   0  0  0  0  0  0  0  0  0  0  0  0
   -2.2369    1.7771  -13.3268 F   0  0  0  0  0  0  0  0  0  0  0  0
   -3.5199    3.2529  -14.2659 F   0  0  0  0  0  0  0  0  0  0  0  0
   -7.8934    4.7114  -11.9342 C   0  0  0  0  0  0  0  0  0  0  0  0
   -8.4660    4.4050  -10.8873 O   0  0  0  0  0  0  0  0  0  0  0  0
   -7.2060    6.0236  -11.9071 C   0  0  0  0  0  0  0  0  0  0  0  0
   -6.2533    6.2166  -10.8806 C   0  0  0  0  0  0  0  0  0  0  0  0
   -5.5518    7.4168  -10.7712 C   0  0  0  0  0  0  0  0  0  0  0  0
   -5.8460    8.4188  -11.6756 C   0  0  0  0  0  0  0  0  0  0  0  0
   -6.8158    8.2462  -12.6629 C   0  0  0  0  0  0  0  0  0  0  0  0
   -7.5157    7.0556  -12.7949 C   0  0  0  0  0  0  0  0  0  0  0  0
   -6.8969    9.4908  -13.4805 C   0  0  0  0  0  0  0  0  0  0  0  0
   -6.1398   10.5214  -12.7244 N   0  0  0  0  0  0  0  0  0  0  0  0
   -5.2425    9.7766  -11.8061 C   0  0  0  0  0  0  0  0  0  0  0  0
   -6.4135    4.9157  -14.9317 C   0  0  0  0  0  0  0  0  0  0  0  0
   -5.0882    6.8755  -17.7676 N   0  0  0  0  0  0  0  0  0  0  0  0
   -4.5046    8.2021  -17.7508 O   0  0  0  0  0  0  0  0  0  0  0  0
   -4.5973    6.1275  -18.9531 C   0  0  0  0  0  0  0  0  0  0  0  0
   -3.0922    6.2121  -19.2068 C   0  0  0  0  0  0  0  0  0  0  0  0
   -2.1878    5.2309  -18.4439 C   0  0  0  0  0  0  0  0  0  0  0  0
   -2.1463    4.3638  -19.6280 N   0  0  0  0  0  0  0  0  0  0  0  0
   -2.6003    5.4754  -20.4729 C   0  0  0  0  0  0  0  0  0  0  0  0
  1  2  1  0
  2  3  1  0
  3  4  1  0
  4  5  2  0
  5  6  1  0
  6  7  1  0
  6  8  2  0
  8  9  1  0
  9 10  1  0
 10 11  1  1
 11 12  2  0
 11 13  1  0
 13 14  1  0
 14 15  1  0
 15 16  1  0
 15 17  1  0
 10 18  1  0
 18 19  2  0
 18 20  1  0
 20 21  2  0
 21 22  1  0
 22 23  2  0
 23 24  1  0
 24 25  2  0
 24 26  1  0
 26 27  1  0
 27 28  1  0
  9 29  2  0
  3 30  1  0
 30 31  1  0
 30 32  1  0
 32 33  1  0
 33 34  1  0
 34 35  1  0
 35 36  1  0
 29  4  1  0
 36 33  1  0
 25 20  1  0
 28 23  1  0
M  END
>  <smiles>  (1473) 
C21479-P192

>  <fragmenstein_outcome>  (1473) 
acceptable

>  <inchikey>  (1473) 
PIFFLSVPQUDODW-UHFFFAOYSA-N

>  <fragmenstein_mode>  (1473) 
expansion

>  <HIPPO Pose ID>  (1473) 
21647

>  <Energy>  (1473) 
138.644654

>  <fragmenstein_error>  (1473) 


>  <tags>  (1473) 
{'openbind_xx01zvns2b_c1_fragmenstein', 'fragmenstein_placed'}

>  <ref_pdb>  (1473) 
175

>  <scratch_subdir>  (1473) 
/opt/xchem-fragalysis-2/maxwin/BulkDock/SCRATCH/511028/C21479-P192

>  <alias>  (1473) 
CNN(c1cc(Br)cc([C@@H](C(=O)NCC(F)F)C(=O)c2ccc3c(c2)CNC3)c1)N(O)CC1CNC1

>  <HIPPO Compound ID>  (1473) 
21479

>  <fragmenstein_runtime>  (1473) 
17.67683

$$$$
CC[C@@H](NO)c1cc(Br)cc([C@H](C(=O)NCC(F)F)N(C)c2ccc3c(c2)CNC3)c1
     RDKit          3D

 31 33  0  0  0  0  0  0  0  0999 V2000
   -3.3629    6.1295  -19.3397 C   0  0  0  0  0  0  0  0  0  0  0  0
   -4.6967    5.6560  -18.7780 C   0  0  0  0  0  0  0  0  0  0  0  0
   -4.9236    6.1095  -17.3245 C   0  0  1  0  0  0  0  0  0  0  0  0
   -4.9913    7.5880  -17.3018 N   0  0  0  0  0  0  0  0  0  0  0  0
   -4.9119    8.0208  -15.9173 O   0  0  0  0  0  0  0  0  0  0  0  0
   -6.1505    5.4798  -16.6845 C   0  0  0  0  0  0  0  0  0  0  0  0
   -7.2890    5.1018  -17.4027 C   0  0  0  0  0  0  0  0  0  0  0  0
   -8.3861    4.5401  -16.7449 C   0  0  0  0  0  0  0  0  0  0  0  0
   -9.8860    4.0509  -17.7888 Br  0  0  0  0  0  0  0  0  0  0  0  0
   -8.3788    4.3593  -15.3591 C   0  0  0  0  0  0  0  0  0  0  0  0
   -7.2565    4.7498  -14.6145 C   0  0  0  0  0  0  0  0  0  0  0  0
   -7.1187    4.5472  -13.0993 C   0  0  2  0  0  0  0  0  0  0  0  0
   -6.6055    3.0754  -12.8780 C   0  0  0  0  0  0  0  0  0  0  0  0
   -7.2095    2.1150  -13.1648 O   0  0  0  0  0  0  0  0  0  0  0  0
   -5.1536    3.2287  -12.3244 N   0  0  0  0  0  0  0  0  0  0  0  0
   -4.1299    2.2438  -12.1058 C   0  0  0  0  0  0  0  0  0  0  0  0
   -3.4859    1.9325  -13.4563 C   0  0  0  0  0  0  0  0  0  0  0  0
   -2.2151    1.4884  -13.2980 F   0  0  0  0  0  0  0  0  0  0  0  0
   -3.3812    3.0830  -14.1912 F   0  0  0  0  0  0  0  0  0  0  0  0
   -8.3008    5.0143  -12.3315 N   0  0  0  0  0  0  0  0  0  0  0  0
   -8.6272    6.4189  -12.6145 C   0  0  0  0  0  0  0  0  0  0  0  0
   -8.2021    4.7509  -10.9386 C   0  0  0  0  0  0  0  0  0  0  0  0
   -7.8343    5.7396   -9.9928 C   0  0  0  0  0  0  0  0  0  0  0  0
   -7.9225    5.5165   -8.6142 C   0  0  0  0  0  0  0  0  0  0  0  0
   -8.3586    4.2822   -8.1821 C   0  0  0  0  0  0  0  0  0  0  0  0
   -8.6516    3.2743   -9.0879 C   0  0  0  0  0  0  0  0  0  0  0  0
   -8.5752    3.4867  -10.4581 C   0  0  0  0  0  0  0  0  0  0  0  0
   -9.1182    2.0653   -8.3524 C   0  0  0  0  0  0  0  0  0  0  0  0
   -8.9734    2.3751   -6.9012 N   0  0  0  0  0  0  0  0  0  0  0  0
   -8.6703    3.8188   -6.8022 C   0  0  0  0  0  0  0  0  0  0  0  0
   -6.1532    5.2908  -15.2962 C   0  0  0  0  0  0  0  0  0  0  0  0
  1  2  1  0
  3  2  1  6
  3  4  1  0
  4  5  1  0
  3  6  1  0
  6  7  2  0
  7  8  1  0
  8  9  1  0
  8 10  2  0
 10 11  1  0
 11 12  1  0
 12 13  1  0
 13 14  2  0
 13 15  1  0
 15 16  1  0
 16 17  1  0
 17 18  1  0
 17 19  1  0
 12 20  1  1
 20 21  1  0
 20 22  1  0
 22 23  2  0
 23 24  1  0
 24 25  2  0
 25 26  1  0
 26 27  2  0
 26 28  1  0
 28 29  1  0
 29 30  1  0
 11 31  2  0
 31  6  1  0
 27 22  1  0
 30 25  1  0
M  END
>  <smiles>  (1474) 
C21487-P192

>  <fragmenstein_outcome>  (1474) 
acceptable

>  <inchikey>  (1474) 
XUEVGXHNDLAAMH-UHFFFAOYSA-N

>  <fragmenstein_mode>  (1474) 
expansion

>  <HIPPO Pose ID>  (1474) 
21655

>  <Energy>  (1474) 
178.41427

>  <fragmenstein_error>  (1474) 


>  <tags>  (1474) 
{'openbind_xx01zvns2b_c1_fragmenstein', 'fragmenstein_placed'}

>  <ref_pdb>  (1474) 
175

>  <scratch_subdir>  (1474) 
/opt/xchem-fragalysis-2/maxwin/BulkDock/SCRATCH/511028/C21487-P192

>  <alias>  (1474) 
CC[C@@H](NO)c1cc(Br)cc([C@H](C(=O)NCC(F)F)N(C)c2ccc3c(c2)CNC3)c1

>  <HIPPO Compound ID>  (1474) 
21487

>  <fragmenstein_runtime>  (1474) 
5.298131

$$$$
CC[C@H](O)c1cc(Br)cc([C@H](C(=O)NCC(F)F)N(C)c2ccc3c(c2)CNC3)c1
     RDKit          3D

 30 32  0  0  0  0  0  0  0  0999 V2000
   -3.3935    6.1147  -19.2114 C   0  0  0  0  0  0  0  0  0  0  0  0
   -4.3485    5.4064  -18.2614 C   0  0  0  0  0  0  0  0  0  0  0  0
   -5.2557    6.3859  -17.5157 C   0  0  2  0  0  0  0  0  0  0  0  0
   -4.4948    7.2095  -16.6285 O   0  0  0  0  0  0  0  0  0  0  0  0
   -6.3430    5.6668  -16.7559 C   0  0  0  0  0  0  0  0  0  0  0  0
   -7.4443    5.1722  -17.4596 C   0  0  0  0  0  0  0  0  0  0  0  0
   -8.4886    4.5443  -16.7860 C   0  0  0  0  0  0  0  0  0  0  0  0
   -9.9727    3.9908  -17.8113 Br  0  0  0  0  0  0  0  0  0  0  0  0
   -8.4440    4.3698  -15.4016 C   0  0  0  0  0  0  0  0  0  0  0  0
   -7.3323    4.8282  -14.6755 C   0  0  0  0  0  0  0  0  0  0  0  0
   -7.1600    4.5795  -13.1676 C   0  0  2  0  0  0  0  0  0  0  0  0
   -6.7216    3.0772  -13.0028 C   0  0  0  0  0  0  0  0  0  0  0  0
   -7.3995    2.1594  -13.2579 O   0  0  0  0  0  0  0  0  0  0  0  0
   -5.2310    3.1364  -12.5531 N   0  0  0  0  0  0  0  0  0  0  0  0
   -4.2540    2.0897  -12.4203 C   0  0  0  0  0  0  0  0  0  0  0  0
   -3.0285    2.4674  -13.2429 C   0  0  0  0  0  0  0  0  0  0  0  0
   -2.2661    1.3938  -13.5423 F   0  0  0  0  0  0  0  0  0  0  0  0
   -3.4088    3.0215  -14.4287 F   0  0  0  0  0  0  0  0  0  0  0  0
   -8.3036    5.0782  -12.3547 N   0  0  0  0  0  0  0  0  0  0  0  0
   -8.5897    6.4968  -12.6032 C   0  0  0  0  0  0  0  0  0  0  0  0
   -8.2193    4.7655  -10.9707 C   0  0  0  0  0  0  0  0  0  0  0  0
   -7.9102    5.7338   -9.9807 C   0  0  0  0  0  0  0  0  0  0  0  0
   -8.0356    5.4700   -8.6103 C   0  0  0  0  0  0  0  0  0  0  0  0
   -8.4591    4.2162   -8.2281 C   0  0  0  0  0  0  0  0  0  0  0  0
   -8.6746    3.2223   -9.1730 C   0  0  0  0  0  0  0  0  0  0  0  0
   -8.5610    3.4757  -10.5336 C   0  0  0  0  0  0  0  0  0  0  0  0
   -9.0670    1.9655   -8.4702 C   0  0  0  0  0  0  0  0  0  0  0  0
   -9.4940    2.4014   -7.1107 N   0  0  0  0  0  0  0  0  0  0  0  0
   -8.7975    3.6871   -6.8747 C   0  0  0  0  0  0  0  0  0  0  0  0
   -6.2901    5.4710  -15.3709 C   0  0  0  0  0  0  0  0  0  0  0  0
  1  2  1  0
  2  3  1  0
  3  4  1  1
  3  5  1  0
  5  6  2  0
  6  7  1  0
  7  8  1  0
  7  9  2  0
  9 10  1  0
 10 11  1  0
 11 12  1  0
 12 13  2  0
 12 14  1  0
 14 15  1  0
 15 16  1  0
 16 17  1  0
 16 18  1  0
 11 19  1  1
 19 20  1  0
 19 21  1  0
 21 22  2  0
 22 23  1  0
 23 24  2  0
 24 25  1  0
 25 26  2  0
 25 27  1  0
 27 28  1  0
 28 29  1  0
 10 30  2  0
 30  5  1  0
 26 21  1  0
 29 24  1  0
M  END
>  <smiles>  (1475) 
C21491-P192

>  <fragmenstein_outcome>  (1475) 
acceptable

>  <inchikey>  (1475) 
DIIWANSCDJAHCE-UHFFFAOYSA-N

>  <fragmenstein_mode>  (1475) 
expansion

>  <HIPPO Pose ID>  (1475) 
21657

>  <Energy>  (1475) 
157.550838

>  <fragmenstein_error>  (1475) 


>  <tags>  (1475) 
{'openbind_xx01zvns2b_c1_fragmenstein', 'fragmenstein_placed'}

>  <ref_pdb>  (1475) 
175

>  <scratch_subdir>  (1475) 
/opt/xchem-fragalysis-2/maxwin/BulkDock/SCRATCH/511028/C21491-P192

>  <alias>  (1475) 
CC[C@H](O)c1cc(Br)cc([C@H](C(=O)NCC(F)F)N(C)c2ccc3c(c2)CNC3)c1

>  <HIPPO Compound ID>  (1475) 
21491

>  <fragmenstein_runtime>  (1475) 
5.904614

$$$$
CNC1(NN(O)Cc2cc(Br)cc([C@H](C(=O)NCC(F)F)C(=O)c3ccc4c(c3)CNC4)c2)CNC1
     RDKit          3D

 36 39  0  0  0  0  0  0  0  0999 V2000
   -2.0446    4.6569  -20.3663 C   0  0  0  0  0  0  0  0  0  0  0  0
   -2.9999    5.4202  -21.1465 N   0  0  0  0  0  0  0  0  0  0  0  0
   -3.2044    6.7659  -20.6113 C   0  0  0  0  0  0  0  0  0  0  0  0
   -3.6184    6.9253  -19.2274 N   0  0  0  0  0  0  0  0  0  0  0  0
   -4.8718    6.2266  -18.9837 N   0  0  0  0  0  0  0  0  0  0  0  0
   -5.9741    7.0259  -19.5048 O   0  0  0  0  0  0  0  0  0  0  0  0
   -5.0634    6.1806  -17.5263 C   0  0  0  0  0  0  0  0  0  0  0  0
   -6.2588    5.4366  -16.9948 C   0  0  0  0  0  0  0  0  0  0  0  0
   -7.3476    4.9846  -17.7426 C   0  0  0  0  0  0  0  0  0  0  0  0
   -8.4547    4.4289  -17.1044 C   0  0  0  0  0  0  0  0  0  0  0  0
   -9.9731    3.9703  -18.1166 Br  0  0  0  0  0  0  0  0  0  0  0  0
   -8.4743    4.2711  -15.7240 C   0  0  0  0  0  0  0  0  0  0  0  0
   -7.3823    4.6984  -14.9652 C   0  0  0  0  0  0  0  0  0  0  0  0
   -7.3121    4.5791  -13.4589 C   0  0  2  0  0  0  0  0  0  0  0  0
   -6.7480    3.2017  -13.0703 C   0  0  0  0  0  0  0  0  0  0  0  0
   -7.3317    2.2023  -13.2272 O   0  0  0  0  0  0  0  0  0  0  0  0
   -5.2964    3.4528  -12.5679 N   0  0  0  0  0  0  0  0  0  0  0  0
   -4.2417    2.5216  -12.2491 C   0  0  0  0  0  0  0  0  0  0  0  0
   -3.5613    2.0722  -13.5369 C   0  0  0  0  0  0  0  0  0  0  0  0
   -2.2939    1.6567  -13.2976 F   0  0  0  0  0  0  0  0  0  0  0  0
   -3.4461    3.1408  -14.3818 F   0  0  0  0  0  0  0  0  0  0  0  0
   -8.5479    5.0527  -12.7479 C   0  0  0  0  0  0  0  0  0  0  0  0
   -9.4680    5.6652  -13.2892 O   0  0  0  0  0  0  0  0  0  0  0  0
   -8.4538    5.0450  -11.2777 C   0  0  0  0  0  0  0  0  0  0  0  0
   -8.5048    3.8402  -10.5595 C   0  0  0  0  0  0  0  0  0  0  0  0
   -8.3174    3.8515   -9.1788 C   0  0  0  0  0  0  0  0  0  0  0  0
   -8.0804    5.0685   -8.5617 C   0  0  0  0  0  0  0  0  0  0  0  0
   -8.0464    6.2632   -9.2786 C   0  0  0  0  0  0  0  0  0  0  0  0
   -8.2367    6.2762  -10.6448 C   0  0  0  0  0  0  0  0  0  0  0  0
   -7.8395    7.3944   -8.3299 C   0  0  0  0  0  0  0  0  0  0  0  0
   -7.3909    6.7647   -7.0598 N   0  0  0  0  0  0  0  0  0  0  0  0
   -7.8852    5.3614   -7.1137 C   0  0  0  0  0  0  0  0  0  0  0  0
   -6.2848    5.2666  -15.6103 C   0  0  0  0  0  0  0  0  0  0  0  0
   -2.0343    7.7292  -20.9600 C   0  0  0  0  0  0  0  0  0  0  0  0
   -2.7149    8.0313  -22.2503 N   0  0  0  0  0  0  0  0  0  0  0  0
   -4.0061    7.6556  -21.5944 C   0  0  0  0  0  0  0  0  0  0  0  0
  1  2  1  0
  2  3  1  0
  3  4  1  0
  4  5  1  0
  5  6  1  0
  5  7  1  0
  7  8  1  0
  8  9  2  0
  9 10  1  0
 10 11  1  0
 10 12  2  0
 12 13  1  0
 13 14  1  0
 14 15  1  6
 15 16  2  0
 15 17  1  0
 17 18  1  0
 18 19  1  0
 19 20  1  0
 19 21  1  0
 14 22  1  0
 22 23  2  0
 22 24  1  0
 24 25  2  0
 25 26  1  0
 26 27  2  0
 27 28  1  0
 28 29  2  0
 28 30  1  0
 30 31  1  0
 31 32  1  0
 13 33  2  0
  3 34  1  0
 34 35  1  0
 35 36  1  0
 36  3  1  0
 33  8  1  0
 29 24  1  0
 32 27  1  0
M  END
>  <smiles>  (1476) 
C21494-P192

>  <fragmenstein_outcome>  (1476) 
acceptable

>  <inchikey>  (1476) 
VMZSLIVHGBDGEF-UHFFFAOYSA-N

>  <fragmenstein_mode>  (1476) 
expansion

>  <HIPPO Pose ID>  (1476) 
21659

>  <Energy>  (1476) 
207.253331

>  <fragmenstein_error>  (1476) 


>  <tags>  (1476) 
{'openbind_xx01zvns2b_c1_fragmenstein', 'fragmenstein_placed'}

>  <ref_pdb>  (1476) 
175

>  <scratch_subdir>  (1476) 
/opt/xchem-fragalysis-2/maxwin/BulkDock/SCRATCH/511028/C21494-P192

>  <alias>  (1476) 
CNC1(NN(O)Cc2cc(Br)cc([C@H](C(=O)NCC(F)F)C(=O)c3ccc4c(c3)CNC4)c2)CNC1

>  <HIPPO Compound ID>  (1476) 
21494

>  <fragmenstein_runtime>  (1476) 
7.038753

$$$$
CN1C[C@@]2(C[C@@H](Br)C[C@H]([C@@H](Nc3ccc4c(c3)CNC4)C(=O)NCC(F)F)C2)CN1O
     RDKit          3D

 31 34  0  0  0  0  0  0  0  0999 V2000
   -3.8518    7.2248  -18.9086 C   0  0  0  0  0  0  0  0  0  0  0  0
   -4.5788    6.2677  -18.1020 N   0  0  0  0  0  0  0  0  0  0  0  0
   -5.5020    6.8403  -17.1258 C   0  0  0  0  0  0  0  0  0  0  0  0
   -5.9723    5.5777  -16.4039 C   0  0  2  0  0  0  0  0  0  0  0  0
   -7.0296    4.8336  -17.2931 C   0  0  0  0  0  0  0  0  0  0  0  0
   -8.3996    4.7354  -16.6280 C   0  0  1  0  0  0  0  0  0  0  0  0
   -9.7038    3.9329  -17.8123 Br  0  0  0  0  0  0  0  0  0  0  0  0
   -8.4412    4.1650  -15.2246 C   0  0  0  0  0  0  0  0  0  0  0  0
   -7.1216    4.4432  -14.4921 C   0  0  2  0  0  0  0  0  0  0  0  0
   -7.1376    4.2510  -12.9531 C   0  0  1  0  0  0  0  0  0  0  0  0
   -8.4788    4.3762  -12.3821 N   0  0  0  0  0  0  0  0  0  0  0  0
   -8.4484    4.3347  -10.9644 C   0  0  0  0  0  0  0  0  0  0  0  0
   -8.1262    5.4809  -10.2133 C   0  0  0  0  0  0  0  0  0  0  0  0
   -8.1593    5.4544   -8.8127 C   0  0  0  0  0  0  0  0  0  0  0  0
   -8.5130    4.2699   -8.1900 C   0  0  0  0  0  0  0  0  0  0  0  0
   -8.7689    3.1218   -8.9294 C   0  0  0  0  0  0  0  0  0  0  0  0
   -8.7245    3.1316  -10.3073 C   0  0  0  0  0  0  0  0  0  0  0  0
   -9.0986    1.9962   -8.0113 C   0  0  0  0  0  0  0  0  0  0  0  0
   -9.4294    2.6539   -6.7178 N   0  0  0  0  0  0  0  0  0  0  0  0
   -8.7190    3.9557   -6.7457 C   0  0  0  0  0  0  0  0  0  0  0  0
   -6.5285    2.8236  -12.7582 C   0  0  0  0  0  0  0  0  0  0  0  0
   -7.1079    1.8348  -12.9851 O   0  0  0  0  0  0  0  0  0  0  0  0
   -5.0545    3.0493  -12.3313 N   0  0  0  0  0  0  0  0  0  0  0  0
   -3.9698    2.1150  -12.1894 C   0  0  0  0  0  0  0  0  0  0  0  0
   -2.9087    2.4467  -13.2318 C   0  0  0  0  0  0  0  0  0  0  0  0
   -2.0880    1.4000  -13.4685 F   0  0  0  0  0  0  0  0  0  0  0  0
   -3.4891    2.7637  -14.4214 F   0  0  0  0  0  0  0  0  0  0  0  0
   -6.5134    5.7814  -14.9660 C   0  0  0  0  0  0  0  0  0  0  0  0
   -4.6211    4.8204  -16.3312 C   0  0  0  0  0  0  0  0  0  0  0  0
   -3.7456    5.3554  -17.3899 N   0  0  0  0  0  0  0  0  0  0  0  0
   -2.6694    6.0354  -16.6858 O   0  0  0  0  0  0  0  0  0  0  0  0
  1  2  1  0
  2  3  1  0
  4  3  1  6
  4  5  1  0
  5  6  1  0
  6  7  1  6
  6  8  1  0
  9  8  1  1
  9 10  1  0
 10 11  1  6
 11 12  1  0
 12 13  2  0
 13 14  1  0
 14 15  2  0
 15 16  1  0
 16 17  2  0
 16 18  1  0
 18 19  1  0
 19 20  1  0
 10 21  1  0
 21 22  2  0
 21 23  1  0
 23 24  1  0
 24 25  1  0
 25 26  1  0
 25 27  1  0
  9 28  1  0
  4 29  1  0
 29 30  1  0
 30 31  1  0
 30  2  1  0
 28  4  1  0
 17 12  1  0
 20 15  1  0
M  END
>  <smiles>  (1477) 
C21495-P192

>  <fragmenstein_outcome>  (1477) 
acceptable

>  <inchikey>  (1477) 
ZMWMUPKIBISPGX-UHFFFAOYSA-N

>  <fragmenstein_mode>  (1477) 
expansion

>  <HIPPO Pose ID>  (1477) 
21660

>  <Energy>  (1477) 
155.834899

>  <fragmenstein_error>  (1477) 


>  <tags>  (1477) 
{'openbind_xx01zvns2b_c1_fragmenstein', 'fragmenstein_placed'}

>  <ref_pdb>  (1477) 
175

>  <scratch_subdir>  (1477) 
/opt/xchem-fragalysis-2/maxwin/BulkDock/SCRATCH/511028/C21495-P192

>  <alias>  (1477) 
CN1C[C@@]2(C[C@@H](Br)C[C@H]([C@@H](Nc3ccc4c(c3)CNC4)C(=O)NCC(F)F)C2)CN1O

>  <HIPPO Compound ID>  (1477) 
21495

>  <fragmenstein_runtime>  (1477) 
4.642822

$$$$
C[C@@H]1NC[C@H]1NN(O)Cc1cc(Br)cc([C@@H](C(=O)NCC(F)F)C(=O)c2ccc3c(c2)CNC3)c1
     RDKit          3D

 35 38  0  0  0  0  0  0  0  0999 V2000
   -5.1403    7.4562  -23.0834 C   0  0  0  0  0  0  0  0  0  0  0  0
   -4.7486    7.9626  -21.7081 C   0  0  2  0  0  0  0  0  0  0  0  0
   -3.4218    8.6466  -21.7515 N   0  0  0  0  0  0  0  0  0  0  0  0
   -3.1174    8.0662  -20.4270 C   0  0  0  0  0  0  0  0  0  0  0  0
   -4.1578    6.9480  -20.6851 C   0  0  1  0  0  0  0  0  0  0  0  0
   -5.0624    6.8194  -19.5170 N   0  0  0  0  0  0  0  0  0  0  0  0
   -4.5222    5.8512  -18.5502 N   0  0  0  0  0  0  0  0  0  0  0  0
   -3.0916    6.0578  -18.3656 O   0  0  0  0  0  0  0  0  0  0  0  0
   -5.1059    6.0743  -17.1955 C   0  0  0  0  0  0  0  0  0  0  0  0
   -6.3311    5.2744  -16.8069 C   0  0  0  0  0  0  0  0  0  0  0  0
   -7.4000    5.0581  -17.6751 C   0  0  0  0  0  0  0  0  0  0  0  0
   -8.5702    4.4719  -17.2021 C   0  0  0  0  0  0  0  0  0  0  0  0
  -10.0420    4.2666  -18.3516 Br  0  0  0  0  0  0  0  0  0  0  0  0
   -8.6935    4.0709  -15.8771 C   0  0  0  0  0  0  0  0  0  0  0  0
   -7.6179    4.1999  -14.9949 C   0  0  0  0  0  0  0  0  0  0  0  0
   -7.7765    3.6968  -13.5599 C   0  0  1  0  0  0  0  0  0  0  0  0
   -6.7231    2.6374  -13.1756 C   0  0  0  0  0  0  0  0  0  0  0  0
   -6.9413    1.4967  -13.3001 O   0  0  0  0  0  0  0  0  0  0  0  0
   -5.4713    3.3654  -12.6254 N   0  0  0  0  0  0  0  0  0  0  0  0
   -4.1916    2.8428  -12.2029 C   0  0  0  0  0  0  0  0  0  0  0  0
   -3.1615    2.8220  -13.3259 C   0  0  0  0  0  0  0  0  0  0  0  0
   -3.3487    1.7890  -14.1747 F   0  0  0  0  0  0  0  0  0  0  0  0
   -3.2582    3.9612  -14.0644 F   0  0  0  0  0  0  0  0  0  0  0  0
   -7.9700    4.8330  -12.5718 C   0  0  0  0  0  0  0  0  0  0  0  0
   -7.9538    6.0177  -12.9200 O   0  0  0  0  0  0  0  0  0  0  0  0
   -8.1656    4.5434  -11.1223 C   0  0  0  0  0  0  0  0  0  0  0  0
   -8.0111    5.6334  -10.2374 C   0  0  0  0  0  0  0  0  0  0  0  0
   -8.1722    5.4748   -8.8630 C   0  0  0  0  0  0  0  0  0  0  0  0
   -8.4890    4.2176   -8.3897 C   0  0  0  0  0  0  0  0  0  0  0  0
   -8.6393    3.1378   -9.2502 C   0  0  0  0  0  0  0  0  0  0  0  0
   -8.4874    3.2765  -10.6222 C   0  0  0  0  0  0  0  0  0  0  0  0
   -8.9944    1.9225   -8.4623 C   0  0  0  0  0  0  0  0  0  0  0  0
   -8.9843    2.3290   -7.0313 N   0  0  0  0  0  0  0  0  0  0  0  0
   -8.7661    3.7888   -6.9914 C   0  0  0  0  0  0  0  0  0  0  0  0
   -6.4548    4.8311  -15.4692 C   0  0  0  0  0  0  0  0  0  0  0  0
  2  1  1  6
  2  3  1  0
  3  4  1  0
  4  5  1  0
  5  6  1  1
  6  7  1  0
  7  8  1  0
  7  9  1  0
  9 10  1  0
 10 11  2  0
 11 12  1  0
 12 13  1  0
 12 14  2  0
 14 15  1  0
 15 16  1  0
 16 17  1  1
 17 18  2  0
 17 19  1  0
 19 20  1  0
 20 21  1  0
 21 22  1  0
 21 23  1  0
 16 24  1  0
 24 25  2  0
 24 26  1  0
 26 27  2  0
 27 28  1  0
 28 29  2  0
 29 30  1  0
 30 31  2  0
 30 32  1  0
 32 33  1  0
 33 34  1  0
 15 35  2  0
  5  2  1  0
 35 10  1  0
 31 26  1  0
 34 29  1  0
M  END
>  <smiles>  (1478) 
C21538-P192

>  <fragmenstein_outcome>  (1478) 
acceptable

>  <inchikey>  (1478) 
GQDZQMRYJVZBSX-UHFFFAOYSA-N

>  <fragmenstein_mode>  (1478) 
expansion

>  <HIPPO Pose ID>  (1478) 
21700

>  <Energy>  (1478) 
203.749653

>  <fragmenstein_error>  (1478) 


>  <tags>  (1478) 
{'openbind_xx01zvns2b_c1_fragmenstein', 'fragmenstein_placed'}

>  <ref_pdb>  (1478) 
175

>  <scratch_subdir>  (1478) 
/opt/xchem-fragalysis-2/maxwin/BulkDock/SCRATCH/511028/C21538-P192

>  <alias>  (1478) 
C[C@@H]1NC[C@H]1NN(O)Cc1cc(Br)cc([C@@H](C(=O)NCC(F)F)C(=O)c2ccc3c(c2)CNC3)c1

>  <HIPPO Compound ID>  (1478) 
21538

>  <fragmenstein_runtime>  (1478) 
8.112571

$$$$
CN[C@@H](c1cc(Br)cc([C@](O)(Nc2ccc3c(c2)CNC3)C(=O)NCC(F)F)c1)N(O)NC1CNC1
     RDKit          3D

 36 39  0  0  0  0  0  0  0  0999 V2000
   -3.5723    6.1493  -18.6592 C   0  0  0  0  0  0  0  0  0  0  0  0
   -4.2864    5.4801  -17.5723 N   0  0  0  0  0  0  0  0  0  0  0  0
   -5.2443    6.4023  -16.9351 C   0  0  1  0  0  0  0  0  0  0  0  0
   -6.4377    5.6048  -16.4068 C   0  0  0  0  0  0  0  0  0  0  0  0
   -7.4089    5.2294  -17.3509 C   0  0  0  0  0  0  0  0  0  0  0  0
   -8.5424    4.5436  -16.9521 C   0  0  0  0  0  0  0  0  0  0  0  0
   -9.8734    4.1252  -18.2145 Br  0  0  0  0  0  0  0  0  0  0  0  0
   -8.7159    4.1922  -15.6209 C   0  0  0  0  0  0  0  0  0  0  0  0
   -7.7427    4.4866  -14.6452 C   0  0  0  0  0  0  0  0  0  0  0  0
   -7.8967    3.9589  -13.2020 C   0  0  2  0  0  0  0  0  0  0  0  0
   -9.2665    3.7494  -13.0460 O   0  0  0  0  0  0  0  0  0  0  0  0
   -7.5646    5.0065  -12.2118 N   0  0  0  0  0  0  0  0  0  0  0  0
   -7.9015    4.7412  -10.8484 C   0  0  0  0  0  0  0  0  0  0  0  0
   -7.8139    5.8129   -9.9326 C   0  0  0  0  0  0  0  0  0  0  0  0
   -8.1055    5.6472   -8.5691 C   0  0  0  0  0  0  0  0  0  0  0  0
   -8.4909    4.3962   -8.1251 C   0  0  0  0  0  0  0  0  0  0  0  0
   -8.5549    3.3261   -9.0024 C   0  0  0  0  0  0  0  0  0  0  0  0
   -8.2432    3.4734  -10.3437 C   0  0  0  0  0  0  0  0  0  0  0  0
   -8.9812    2.0978   -8.2679 C   0  0  0  0  0  0  0  0  0  0  0  0
   -9.4985    2.5907   -6.9626 N   0  0  0  0  0  0  0  0  0  0  0  0
   -8.8732    3.9201   -6.7633 C   0  0  0  0  0  0  0  0  0  0  0  0
   -6.8743    2.6930  -13.0363 C   0  0  0  0  0  0  0  0  0  0  0  0
   -7.1285    1.6109  -13.4020 O   0  0  0  0  0  0  0  0  0  0  0  0
   -5.5625    3.2694  -12.4285 N   0  0  0  0  0  0  0  0  0  0  0  0
   -4.2712    2.6562  -12.2363 C   0  0  0  0  0  0  0  0  0  0  0  0
   -3.6251    2.2755  -13.5610 C   0  0  0  0  0  0  0  0  0  0  0  0
   -2.3266    1.9251  -13.3785 F   0  0  0  0  0  0  0  0  0  0  0  0
   -3.6080    3.3563  -14.3934 F   0  0  0  0  0  0  0  0  0  0  0  0
   -6.6076    5.1961  -15.0665 C   0  0  0  0  0  0  0  0  0  0  0  0
   -4.4906    7.2378  -15.9543 N   0  0  0  0  0  0  0  0  0  0  0  0
   -3.8572    6.3575  -14.9891 O   0  0  0  0  0  0  0  0  0  0  0  0
   -5.3158    8.2095  -15.3026 N   0  0  0  0  0  0  0  0  0  0  0  0
   -4.4802    9.3689  -14.9654 C   0  0  0  0  0  0  0  0  0  0  0  0
   -5.3581   10.4467  -14.2943 C   0  0  0  0  0  0  0  0  0  0  0  0
   -4.3088   10.6056  -13.2542 N   0  0  0  0  0  0  0  0  0  0  0  0
   -3.8508    9.2231  -13.5629 C   0  0  0  0  0  0  0  0  0  0  0  0
  1  2  1  0
  3  2  1  1
  3  4  1  0
  4  5  2  0
  5  6  1  0
  6  7  1  0
  6  8  2  0
  8  9  1  0
  9 10  1  0
 10 11  1  1
 10 12  1  0
 12 13  1  0
 13 14  2  0
 14 15  1  0
 15 16  2  0
 16 17  1  0
 17 18  2  0
 17 19  1  0
 19 20  1  0
 20 21  1  0
 10 22  1  0
 22 23  2  0
 22 24  1  0
 24 25  1  0
 25 26  1  0
 26 27  1  0
 26 28  1  0
  9 29  2  0
  3 30  1  0
 30 31  1  0
 30 32  1  0
 32 33  1  0
 33 34  1  0
 34 35  1  0
 35 36  1  0
 29  4  1  0
 36 33  1  0
 18 13  1  0
 21 16  1  0
M  END
>  <smiles>  (1479) 
C21551-P192

>  <fragmenstein_outcome>  (1479) 
acceptable

>  <inchikey>  (1479) 
CEGQJIMHNXLWAY-UHFFFAOYSA-N

>  <fragmenstein_mode>  (1479) 
expansion

>  <HIPPO Pose ID>  (1479) 
21706

>  <Energy>  (1479) 
176.204353

>  <fragmenstein_error>  (1479) 


>  <tags>  (1479) 
{'openbind_xx01zvns2b_c1_fragmenstein', 'fragmenstein_placed'}

>  <ref_pdb>  (1479) 
175

>  <scratch_subdir>  (1479) 
/opt/xchem-fragalysis-2/maxwin/BulkDock/SCRATCH/511028/C21551-P192

>  <alias>  (1479) 
CN[C@@H](c1cc(Br)cc([C@](O)(Nc2ccc3c(c2)CNC3)C(=O)NCC(F)F)c1)N(O)NC1CNC1

>  <HIPPO Compound ID>  (1479) 
21551

>  <fragmenstein_runtime>  (1479) 
7.624837

$$$$
CNC[C@]1(O)Cc2c(cccc2C(=O)Nc2cccc(CCN)c2)N1
     RDKit          3D

 25 27  0  0  0  0  0  0  0  0999 V2000
   -2.3511    5.8267  -17.0287 C   0  0  0  0  0  0  0  0  0  0  0  0
   -3.1091    5.2922  -18.1529 N   0  0  0  0  0  0  0  0  0  0  0  0
   -3.9899    6.3243  -18.7441 C   0  0  0  0  0  0  0  0  0  0  0  0
   -5.5067    6.2705  -18.4013 C   0  0  2  0  0  0  0  0  0  0  0  0
   -6.1081    7.4870  -18.8519 O   0  0  0  0  0  0  0  0  0  0  0  0
   -5.7611    6.0827  -16.8853 C   0  0  0  0  0  0  0  0  0  0  0  0
   -7.0367    5.3106  -16.9160 C   0  0  0  0  0  0  0  0  0  0  0  0
   -7.2703    4.8784  -18.2199 C   0  0  0  0  0  0  0  0  0  0  0  0
   -8.4342    4.2197  -18.5509 C   0  0  0  0  0  0  0  0  0  0  0  0
   -9.3620    3.9787  -17.5398 C   0  0  0  0  0  0  0  0  0  0  0  0
   -9.0913    4.3502  -16.2104 C   0  0  0  0  0  0  0  0  0  0  0  0
   -7.9310    5.0490  -15.8880 C   0  0  0  0  0  0  0  0  0  0  0  0
   -7.7736    5.7484  -14.5861 C   0  0  0  0  0  0  0  0  0  0  0  0
   -7.4951    6.8807  -14.6633 O   0  0  0  0  0  0  0  0  0  0  0  0
   -8.0972    4.8777  -13.3491 N   0  0  0  0  0  0  0  0  0  0  0  0
   -8.0545    5.1852  -11.9875 C   0  0  0  0  0  0  0  0  0  0  0  0
   -7.7732    6.5027  -11.6097 C   0  0  0  0  0  0  0  0  0  0  0  0
   -7.7474    6.8728  -10.2712 C   0  0  0  0  0  0  0  0  0  0  0  0
   -7.9890    5.9183   -9.2950 C   0  0  0  0  0  0  0  0  0  0  0  0
   -8.2636    4.5835   -9.6403 C   0  0  0  0  0  0  0  0  0  0  0  0
   -8.5199    3.6432   -8.4824 C   0  0  0  0  0  0  0  0  0  0  0  0
   -8.7576    2.1759   -8.8108 C   0  0  0  0  0  0  0  0  0  0  0  0
   -9.0758    1.4089   -7.6013 N   0  0  0  0  0  0  0  0  0  0  0  0
   -8.3015    4.2227  -11.0034 C   0  0  0  0  0  0  0  0  0  0  0  0
   -6.2088    5.1918  -19.1100 N   0  0  0  0  0  0  0  0  0  0  0  0
  1  2  1  0
  2  3  1  0
  3  4  1  0
  4  5  1  6
  4  6  1  0
  6  7  1  0
  7  8  2  0
  8  9  1  0
  9 10  2  0
 10 11  1  0
 11 12  2  0
 12 13  1  0
 13 14  2  0
 13 15  1  0
 15 16  1  0
 16 17  2  0
 17 18  1  0
 18 19  2  0
 19 20  1  0
 20 21  1  0
 21 22  1  0
 22 23  1  0
 20 24  2  0
  8 25  1  0
 25  4  1  0
 12  7  1  0
 24 16  1  0
M  END
>  <smiles>  (1480) 
C21728-P43

>  <fragmenstein_outcome>  (1480) 
acceptable

>  <inchikey>  (1480) 
BCZNINZRALPMFY-UHFFFAOYSA-N

>  <fragmenstein_mode>  (1480) 
expansion

>  <HIPPO Pose ID>  (1480) 
21766

>  <Energy>  (1480) 
91.641401

>  <fragmenstein_error>  (1480) 


>  <tags>  (1480) 
{'openbind_xx01zvns2b_c1_fragmenstein', 'fragmenstein_placed'}

>  <ref_pdb>  (1480) 
175

>  <scratch_subdir>  (1480) 
/opt/xchem-fragalysis-2/maxwin/BulkDock/SCRATCH/511028/C21728-P43

>  <alias>  (1480) 
CNC[C@]1(O)Cc2c(cccc2C(=O)Nc2cccc(CCN)c2)N1

>  <HIPPO Compound ID>  (1480) 
24812

>  <fragmenstein_runtime>  (1480) 
4.873393

$$$$
N[C@@H]1C[C@]2(CCC[C@@H]([C@](N)(CC(=O)O)C(=O)c3cccc4c3CC(=O)N4)C2)CN1
     RDKit          3D

 29 32  0  0  0  0  0  0  0  0999 V2000
   -8.7418    1.7438   -7.6200 N   0  0  0  0  0  0  0  0  0  0  0  0
   -7.8829    2.1049   -8.7240 C   0  0  2  0  0  0  0  0  0  0  0  0
   -7.2924    3.5285   -8.5881 C   0  0  0  0  0  0  0  0  0  0  0  0
   -7.8395    4.3236   -9.7729 C   0  0  1  0  0  0  0  0  0  0  0  0
   -8.1890    5.7986   -9.4547 C   0  0  0  0  0  0  0  0  0  0  0  0
   -7.2516    6.8091  -10.1233 C   0  0  0  0  0  0  0  0  0  0  0  0
   -7.2077    6.6614  -11.6528 C   0  0  0  0  0  0  0  0  0  0  0  0
   -7.4039    5.2058  -12.1042 C   0  0  1  0  0  0  0  0  0  0  0  0
   -6.8623    4.7636  -13.4868 C   0  0  2  0  0  0  0  0  0  0  0  0
   -7.5734    3.5152  -13.7673 N   0  0  0  0  0  0  0  0  0  0  0  0
   -5.3441    4.4733  -13.5291 C   0  0  0  0  0  0  0  0  0  0  0  0
   -4.4455    5.6181  -13.1552 C   0  0  0  0  0  0  0  0  0  0  0  0
   -4.0713    5.9075  -12.0310 O   0  0  0  0  0  0  0  0  0  0  0  0
   -4.0169    6.3222  -14.2190 O   0  0  0  0  0  0  0  0  0  0  0  0
   -7.1573    5.7117  -14.6667 C   0  0  0  0  0  0  0  0  0  0  0  0
   -6.9213    6.9166  -14.6083 O   0  0  0  0  0  0  0  0  0  0  0  0
   -7.5897    5.1596  -15.9836 C   0  0  0  0  0  0  0  0  0  0  0  0
   -8.8956    4.6791  -16.1660 C   0  0  0  0  0  0  0  0  0  0  0  0
   -9.3305    4.2230  -17.4249 C   0  0  0  0  0  0  0  0  0  0  0  0
   -8.4708    4.2500  -18.5230 C   0  0  0  0  0  0  0  0  0  0  0  0
   -7.1919    4.7244  -18.3187 C   0  0  0  0  0  0  0  0  0  0  0  0
   -6.7401    5.1732  -17.0777 C   0  0  0  0  0  0  0  0  0  0  0  0
   -5.3151    5.6155  -17.2104 C   0  0  0  0  0  0  0  0  0  0  0  0
   -5.0181    5.3380  -18.6889 C   0  0  0  0  0  0  0  0  0  0  0  0
   -3.9503    5.5099  -19.2579 O   0  0  0  0  0  0  0  0  0  0  0  0
   -6.1801    4.8446  -19.2602 N   0  0  0  0  0  0  0  0  0  0  0  0
   -6.9085    4.2492  -10.9879 C   0  0  0  0  0  0  0  0  0  0  0  0
   -9.0828    3.4949  -10.0473 C   0  0  0  0  0  0  0  0  0  0  0  0
   -8.7559    2.0925   -9.8615 N   0  0  0  0  0  0  0  0  0  0  0  0
  2  1  1  1
  2  3  1  0
  4  3  1  1
  4  5  1  0
  5  6  1  0
  6  7  1  0
  8  7  1  1
  8  9  1  0
  9 10  1  6
  9 11  1  0
 11 12  1  0
 12 13  2  0
 12 14  1  0
  9 15  1  0
 15 16  2  0
 15 17  1  0
 17 18  2  0
 18 19  1  0
 19 20  2  0
 20 21  1  0
 21 22  2  0
 22 23  1  0
 23 24  1  0
 24 25  2  0
 24 26  1  0
  8 27  1  0
  4 28  1  0
 28 29  1  0
 29  2  1  0
 27  4  1  0
 22 17  1  0
 26 21  1  0
M  END
>  <smiles>  (1481) 
C21737-P193

>  <fragmenstein_outcome>  (1481) 
acceptable

>  <inchikey>  (1481) 
RFENSWNNTCZZEP-UHFFFAOYSA-N

>  <fragmenstein_mode>  (1481) 
expansion

>  <HIPPO Pose ID>  (1481) 
21768

>  <Energy>  (1481) 
21.535169

>  <fragmenstein_error>  (1481) 


>  <tags>  (1481) 
{'openbind_xx01zvns2b_c1_fragmenstein', 'fragmenstein_placed'}

>  <ref_pdb>  (1481) 
175

>  <scratch_subdir>  (1481) 
/opt/xchem-fragalysis-2/maxwin/BulkDock/SCRATCH/511028/C21737-P193

>  <alias>  (1481) 
N[C@@H]1C[C@]2(CCC[C@@H]([C@](N)(CC(=O)O)C(=O)c3cccc4c3CC(=O)N4)C2)CN1

>  <HIPPO Compound ID>  (1481) 
21737

>  <fragmenstein_runtime>  (1481) 
5.215103

$$$$
CNC[C@]1(O)Cc2c(cc(Cl)cc2C(=O)Nc2cccc(CCN)c2)N1
     RDKit          3D

 26 28  0  0  0  0  0  0  0  0999 V2000
   -2.6440    5.9756  -21.0180 C   0  0  0  0  0  0  0  0  0  0  0  0
   -2.7258    4.8660  -20.0791 N   0  0  0  0  0  0  0  0  0  0  0  0
   -3.0836    5.2938  -18.7076 C   0  0  0  0  0  0  0  0  0  0  0  0
   -4.4395    6.0369  -18.4919 C   0  0  2  0  0  0  0  0  0  0  0  0
   -4.3085    7.3965  -18.9153 O   0  0  0  0  0  0  0  0  0  0  0  0
   -4.8978    6.0157  -17.0003 C   0  0  0  0  0  0  0  0  0  0  0  0
   -6.2027    5.2823  -17.0655 C   0  0  0  0  0  0  0  0  0  0  0  0
   -6.4249    4.9137  -18.3892 C   0  0  0  0  0  0  0  0  0  0  0  0
   -7.5721    4.2590  -18.7516 C   0  0  0  0  0  0  0  0  0  0  0  0
   -8.5139    3.9996  -17.7672 C   0  0  0  0  0  0  0  0  0  0  0  0
   -9.9904    3.3487  -18.3041 Cl  0  0  0  0  0  0  0  0  0  0  0  0
   -8.3126    4.3506  -16.4203 C   0  0  0  0  0  0  0  0  0  0  0  0
   -7.1319    5.0091  -16.0543 C   0  0  0  0  0  0  0  0  0  0  0  0
   -6.9735    5.6676  -14.7168 C   0  0  0  0  0  0  0  0  0  0  0  0
   -6.4943    6.7342  -14.7382 O   0  0  0  0  0  0  0  0  0  0  0  0
   -7.5554    4.8519  -13.5345 N   0  0  0  0  0  0  0  0  0  0  0  0
   -7.7485    5.2054  -12.1958 C   0  0  0  0  0  0  0  0  0  0  0  0
   -7.5925    6.5479  -11.8338 C   0  0  0  0  0  0  0  0  0  0  0  0
   -7.7585    6.9591  -10.5166 C   0  0  0  0  0  0  0  0  0  0  0  0
   -8.0574    6.0202   -9.5409 C   0  0  0  0  0  0  0  0  0  0  0  0
   -8.2146    4.6621   -9.8692 C   0  0  0  0  0  0  0  0  0  0  0  0
   -8.4813    3.7300   -8.7056 C   0  0  0  0  0  0  0  0  0  0  0  0
   -8.7823    2.2736   -9.0293 C   0  0  0  0  0  0  0  0  0  0  0  0
   -9.0788    1.5229   -7.8064 N   0  0  0  0  0  0  0  0  0  0  0  0
   -8.0796    4.2622  -11.2163 C   0  0  0  0  0  0  0  0  0  0  0  0
   -5.4940    5.4366  -19.2885 N   0  0  0  0  0  0  0  0  0  0  0  0
  1  2  1  0
  2  3  1  0
  3  4  1  0
  4  5  1  6
  4  6  1  0
  6  7  1  0
  7  8  2  0
  8  9  1  0
  9 10  2  0
 10 11  1  0
 10 12  1  0
 12 13  2  0
 13 14  1  0
 14 15  2  0
 14 16  1  0
 16 17  1  0
 17 18  2  0
 18 19  1  0
 19 20  2  0
 20 21  1  0
 21 22  1  0
 22 23  1  0
 23 24  1  0
 21 25  2  0
  8 26  1  0
 26  4  1  0
 13  7  1  0
 25 17  1  0
M  END
>  <smiles>  (1482) 
C21744-P70

>  <fragmenstein_outcome>  (1482) 
acceptable

>  <inchikey>  (1482) 
UMLMRUOGYWTMGS-UHFFFAOYSA-N

>  <fragmenstein_mode>  (1482) 
expansion

>  <HIPPO Pose ID>  (1482) 
21772

>  <Energy>  (1482) 
82.56129

>  <fragmenstein_error>  (1482) 


>  <tags>  (1482) 
{'openbind_xx01zvns2b_c1_fragmenstein', 'fragmenstein_placed'}

>  <ref_pdb>  (1482) 
175

>  <scratch_subdir>  (1482) 
/opt/xchem-fragalysis-2/maxwin/BulkDock/SCRATCH/511028/C21744-P70

>  <alias>  (1482) 
CNC[C@]1(O)Cc2c(cc(Cl)cc2C(=O)Nc2cccc(CCN)c2)N1

>  <HIPPO Compound ID>  (1482) 
21744

>  <fragmenstein_runtime>  (1482) 
4.457885

$$$$
CNC[C@H]1C(=O)Nc2cc(Br)cc(C(=O)N[C@H]3CCC[C@@]4(CCNC4)C3)c21
     RDKit          3D

 27 30  0  0  0  0  0  0  0  0999 V2000
   -2.4088    6.8553  -15.9926 C   0  0  0  0  0  0  0  0  0  0  0  0
   -3.3402    6.0981  -15.1728 N   0  0  0  0  0  0  0  0  0  0  0  0
   -4.1125    5.1265  -15.9592 C   0  0  0  0  0  0  0  0  0  0  0  0
   -5.0667    5.7483  -16.9839 C   0  0  1  0  0  0  0  0  0  0  0  0
   -4.6295    5.4348  -18.4343 C   0  0  0  0  0  0  0  0  0  0  0  0
   -3.5298    5.6185  -18.9314 O   0  0  0  0  0  0  0  0  0  0  0  0
   -5.7259    4.9128  -19.1026 N   0  0  0  0  0  0  0  0  0  0  0  0
   -6.7989    4.7508  -18.2477 C   0  0  0  0  0  0  0  0  0  0  0  0
   -8.0519    4.3025  -18.5727 C   0  0  0  0  0  0  0  0  0  0  0  0
   -8.9918    4.3183  -17.5493 C   0  0  0  0  0  0  0  0  0  0  0  0
  -10.7951    4.1888  -17.9997 Br  0  0  0  0  0  0  0  0  0  0  0  0
   -8.6740    4.6672  -16.2310 C   0  0  0  0  0  0  0  0  0  0  0  0
   -7.3970    5.1366  -15.9450 C   0  0  0  0  0  0  0  0  0  0  0  0
   -7.1290    5.7816  -14.6437 C   0  0  0  0  0  0  0  0  0  0  0  0
   -6.6830    6.8558  -14.6487 O   0  0  0  0  0  0  0  0  0  0  0  0
   -7.4915    4.8610  -13.4721 N   0  0  0  0  0  0  0  0  0  0  0  0
   -7.2945    5.0279  -12.0567 C   0  0  1  0  0  0  0  0  0  0  0  0
   -7.6648    6.4475  -11.6066 C   0  0  0  0  0  0  0  0  0  0  0  0
   -7.7739    6.5795  -10.0885 C   0  0  0  0  0  0  0  0  0  0  0  0
   -6.9831    5.4885   -9.3825 C   0  0  0  0  0  0  0  0  0  0  0  0
   -7.5495    4.0942   -9.7289 C   0  0  2  0  0  0  0  0  0  0  0  0
   -8.6361    3.7202   -8.7276 C   0  0  0  0  0  0  0  0  0  0  0  0
   -8.7285    2.2228   -8.8201 C   0  0  0  0  0  0  0  0  0  0  0  0
   -7.3665    1.7810   -9.1502 N   0  0  0  0  0  0  0  0  0  0  0  0
   -6.5526    2.9725   -9.4623 C   0  0  0  0  0  0  0  0  0  0  0  0
   -8.0394    4.0028  -11.2054 C   0  0  0  0  0  0  0  0  0  0  0  0
   -6.4630    5.1833  -16.9675 C   0  0  0  0  0  0  0  0  0  0  0  0
  1  2  1  0
  2  3  1  0
  4  3  1  1
  4  5  1  0
  5  6  2  0
  5  7  1  0
  7  8  1  0
  8  9  2  0
  9 10  1  0
 10 11  1  0
 10 12  2  0
 12 13  1  0
 13 14  1  0
 14 15  2  0
 14 16  1  0
 17 16  1  6
 17 18  1  0
 18 19  1  0
 19 20  1  0
 21 20  1  1
 21 22  1  0
 22 23  1  0
 23 24  1  0
 24 25  1  0
 21 26  1  0
 13 27  2  0
 27  4  1  0
 27  8  1  0
 26 17  1  0
 25 21  1  0
M  END
>  <smiles>  (1483) 
C21746-P72

>  <fragmenstein_outcome>  (1483) 
acceptable

>  <inchikey>  (1483) 
WKYBZIFBFIQSEG-UHFFFAOYSA-N

>  <fragmenstein_mode>  (1483) 
expansion

>  <HIPPO Pose ID>  (1483) 
21773

>  <Energy>  (1483) 
58.490753

>  <fragmenstein_error>  (1483) 


>  <tags>  (1483) 
{'openbind_xx01zvns2b_c1_fragmenstein', 'fragmenstein_placed'}

>  <ref_pdb>  (1483) 
175

>  <scratch_subdir>  (1483) 
/opt/xchem-fragalysis-2/maxwin/BulkDock/SCRATCH/511028/C21746-P72

>  <alias>  (1483) 
CNC[C@H]1C(=O)Nc2cc(Br)cc(C(=O)N[C@H]3CCC[C@@]4(CCNC4)C3)c21

>  <HIPPO Compound ID>  (1483) 
21746

>  <fragmenstein_runtime>  (1483) 
7.845349

$$$$
CC(C)NC(=O)[C@](N)(C(=O)c1cc(Cl)cc2c1C(F)(F)C(=O)N2)[C@H]1CCC[C@@]2(CN[C@@H](N)C2)C1
     RDKit          3D

 34 37  0  0  0  0  0  0  0  0999 V2000
   -2.8471    3.1474  -13.0312 C   0  0  0  0  0  0  0  0  0  0  0  0
   -4.1280    2.3452  -12.8477 C   0  0  0  0  0  0  0  0  0  0  0  0
   -4.1186    1.6421  -11.4938 C   0  0  0  0  0  0  0  0  0  0  0  0
   -5.2773    3.2116  -12.9380 N   0  0  0  0  0  0  0  0  0  0  0  0
   -6.7820    2.8755  -13.1619 C   0  0  0  0  0  0  0  0  0  0  0  0
   -7.3255    1.8414  -13.2298 O   0  0  0  0  0  0  0  0  0  0  0  0
   -7.5641    4.2542  -13.1825 C   0  0  2  0  0  0  0  0  0  0  0  0
   -9.0086    4.0186  -13.3568 N   0  0  0  0  0  0  0  0  0  0  0  0
   -7.0437    5.0700  -14.4064 C   0  0  0  0  0  0  0  0  0  0  0  0
   -6.1400    5.8975  -14.2669 O   0  0  0  0  0  0  0  0  0  0  0  0
   -7.4810    4.7721  -15.8226 C   0  0  0  0  0  0  0  0  0  0  0  0
   -8.8193    4.5293  -16.1933 C   0  0  0  0  0  0  0  0  0  0  0  0
   -9.1893    4.2760  -17.5272 C   0  0  0  0  0  0  0  0  0  0  0  0
  -10.8290    4.0463  -17.9618 Cl  0  0  0  0  0  0  0  0  0  0  0  0
   -8.2535    4.2952  -18.5396 C   0  0  0  0  0  0  0  0  0  0  0  0
   -6.9640    4.5974  -18.1829 C   0  0  0  0  0  0  0  0  0  0  0  0
   -6.5587    4.8319  -16.8637 C   0  0  0  0  0  0  0  0  0  0  0  0
   -5.0842    5.1463  -16.8663 C   0  0  0  0  0  0  0  0  0  0  0  0
   -4.7893    6.4021  -16.4239 F   0  0  0  0  0  0  0  0  0  0  0  0
   -4.3477    4.2779  -16.1159 F   0  0  0  0  0  0  0  0  0  0  0  0
   -4.7353    5.0371  -18.3881 C   0  0  0  0  0  0  0  0  0  0  0  0
   -3.6559    5.2099  -18.9345 O   0  0  0  0  0  0  0  0  0  0  0  0
   -5.9087    4.7330  -19.0635 N   0  0  0  0  0  0  0  0  0  0  0  0
   -7.3844    4.9374  -11.7649 C   0  0  1  0  0  0  0  0  0  0  0  0
   -7.8442    6.3980  -11.6689 C   0  0  0  0  0  0  0  0  0  0  0  0
   -7.5466    6.9469  -10.2711 C   0  0  0  0  0  0  0  0  0  0  0  0
   -8.2755    6.1624   -9.1872 C   0  0  0  0  0  0  0  0  0  0  0  0
   -8.0066    4.6523   -9.2230 C   0  0  2  0  0  0  0  0  0  0  0  0
   -9.0000    3.8897   -8.3314 C   0  0  0  0  0  0  0  0  0  0  0  0
   -8.3815    2.6055   -8.0551 N   0  0  0  0  0  0  0  0  0  0  0  0
   -6.9880    2.9111   -7.8881 C   0  0  1  0  0  0  0  0  0  0  0  0
   -6.3417    1.8264   -8.5681 N   0  0  0  0  0  0  0  0  0  0  0  0
   -6.6857    4.2564   -8.5619 C   0  0  0  0  0  0  0  0  0  0  0  0
   -8.1088    4.1157  -10.6606 C   0  0  0  0  0  0  0  0  0  0  0  0
  1  2  1  0
  2  3  1  0
  2  4  1  0
  4  5  1  0
  5  6  2  0
  5  7  1  0
  7  8  1  6
  7  9  1  0
  9 10  2  0
  9 11  1  0
 11 12  2  0
 12 13  1  0
 13 14  1  0
 13 15  2  0
 15 16  1  0
 16 17  2  0
 17 18  1  0
 18 19  1  0
 18 20  1  0
 18 21  1  0
 21 22  2  0
 21 23  1  0
  7 24  1  0
 24 25  1  6
 25 26  1  0
 26 27  1  0
 28 27  1  6
 28 29  1  0
 29 30  1  0
 30 31  1  0
 31 32  1  6
 31 33  1  0
 28 34  1  0
 17 11  1  0
 34 24  1  0
 23 16  1  0
 33 28  1  0
M  END
>  <smiles>  (1484) 
C21749-P76

>  <fragmenstein_outcome>  (1484) 
acceptable

>  <inchikey>  (1484) 
DGIQPCFXJNOJRM-UHFFFAOYSA-N

>  <fragmenstein_mode>  (1484) 
expansion

>  <HIPPO Pose ID>  (1484) 
21775

>  <Energy>  (1484) 
108.726476

>  <fragmenstein_error>  (1484) 


>  <tags>  (1484) 
{'openbind_xx01zvns2b_c1_fragmenstein', 'fragmenstein_placed'}

>  <ref_pdb>  (1484) 
175

>  <scratch_subdir>  (1484) 
/opt/xchem-fragalysis-2/maxwin/BulkDock/SCRATCH/511028/C21749-P76

>  <alias>  (1484) 
CC(C)NC(=O)[C@](N)(C(=O)c1cc(Cl)cc2c1C(F)(F)C(=O)N2)[C@H]1CCC[C@@]2(CN[C@@H](N)C2)C1

>  <HIPPO Compound ID>  (1484) 
21749

>  <fragmenstein_runtime>  (1484) 
9.020103

$$$$
O=C(NCC(F)F)[C@@H](Nc1ccc2c(c1)CNC2)c1cc(Br)cc2c(F)cccc12
     RDKit          3D

 30 33  0  0  0  0  0  0  0  0999 V2000
   -6.8391    1.6412  -13.6635 O   0  0  0  0  0  0  0  0  0  0  0  0
   -6.6646    2.7218  -13.2607 C   0  0  0  0  0  0  0  0  0  0  0  0
   -5.4889    3.3093  -12.4483 N   0  0  0  0  0  0  0  0  0  0  0  0
   -4.2367    2.7118  -12.0433 C   0  0  0  0  0  0  0  0  0  0  0  0
   -3.4889    2.1170  -13.2356 C   0  0  0  0  0  0  0  0  0  0  0  0
   -3.1346    3.1192  -14.0899 F   0  0  0  0  0  0  0  0  0  0  0  0
   -2.3226    1.5464  -12.8398 F   0  0  0  0  0  0  0  0  0  0  0  0
   -7.6741    3.9038  -13.5771 C   0  0  1  0  0  0  0  0  0  0  0  0
   -7.6053    5.0068  -12.5994 N   0  0  0  0  0  0  0  0  0  0  0  0
   -8.0513    4.7870  -11.2774 C   0  0  0  0  0  0  0  0  0  0  0  0
   -8.0044    5.8918  -10.3990 C   0  0  0  0  0  0  0  0  0  0  0  0
   -8.2500    5.7587   -9.0271 C   0  0  0  0  0  0  0  0  0  0  0  0
   -8.5473    4.5033   -8.5358 C   0  0  0  0  0  0  0  0  0  0  0  0
   -8.6115    3.4046   -9.3808 C   0  0  0  0  0  0  0  0  0  0  0  0
   -8.3660    3.5263  -10.7404 C   0  0  0  0  0  0  0  0  0  0  0  0
   -8.9017    2.1788   -8.5746 C   0  0  0  0  0  0  0  0  0  0  0  0
   -9.3581    2.6887   -7.2539 N   0  0  0  0  0  0  0  0  0  0  0  0
   -8.8001    4.0528   -7.1364 C   0  0  0  0  0  0  0  0  0  0  0  0
   -7.5568    4.4264  -15.0264 C   0  0  0  0  0  0  0  0  0  0  0  0
   -8.6828    4.2095  -15.8483 C   0  0  0  0  0  0  0  0  0  0  0  0
   -8.6482    4.4299  -17.2190 C   0  0  0  0  0  0  0  0  0  0  0  0
  -10.1784    4.1078  -18.2668 Br  0  0  0  0  0  0  0  0  0  0  0  0
   -7.4948    4.8917  -17.8212 C   0  0  0  0  0  0  0  0  0  0  0  0
   -6.3829    5.2104  -17.0413 C   0  0  0  0  0  0  0  0  0  0  0  0
   -5.2402    5.7137  -17.6758 C   0  0  0  0  0  0  0  0  0  0  0  0
   -5.2013    5.8135  -19.0144 F   0  0  0  0  0  0  0  0  0  0  0  0
   -4.1244    6.1125  -16.9569 C   0  0  0  0  0  0  0  0  0  0  0  0
   -4.1416    6.0058  -15.5750 C   0  0  0  0  0  0  0  0  0  0  0  0
   -5.2622    5.4709  -14.9250 C   0  0  0  0  0  0  0  0  0  0  0  0
   -6.4058    5.0274  -15.6255 C   0  0  0  0  0  0  0  0  0  0  0  0
  1  2  2  0
  2  3  1  0
  3  4  1  0
  4  5  1  0
  5  6  1  0
  5  7  1  0
  2  8  1  0
  8  9  1  1
  9 10  1  0
 10 11  2  0
 11 12  1  0
 12 13  2  0
 13 14  1  0
 14 15  2  0
 14 16  1  0
 16 17  1  0
 17 18  1  0
  8 19  1  0
 19 20  2  0
 20 21  1  0
 21 22  1  0
 21 23  2  0
 23 24  1  0
 24 25  2  0
 25 26  1  0
 25 27  1  0
 27 28  2  0
 28 29  1  0
 29 30  2  0
 15 10  1  0
 30 19  1  0
 18 13  1  0
 30 24  1  0
M  END
>  <smiles>  (1485) 
C21936-P195

>  <fragmenstein_outcome>  (1485) 
acceptable

>  <inchikey>  (1485) 
AURBOPDLSLCDEM-UHFFFAOYSA-N

>  <fragmenstein_mode>  (1485) 
expansion

>  <HIPPO Pose ID>  (1485) 
21866

>  <Energy>  (1485) 
136.588158

>  <fragmenstein_error>  (1485) 


>  <tags>  (1485) 
{'openbind_xx01zvns2b_c1_fragmenstein', 'fragmenstein_placed'}

>  <ref_pdb>  (1485) 
175

>  <scratch_subdir>  (1485) 
/opt/xchem-fragalysis-2/maxwin/BulkDock/SCRATCH/511028/C21936-P195

>  <alias>  (1485) 
O=C(NCC(F)F)[C@@H](Nc1ccc2c(c1)CNC2)c1cc(Br)cc2c(F)cccc12

>  <HIPPO Compound ID>  (1485) 
40210

>  <fragmenstein_runtime>  (1485) 
4.337072

$$$$
N#Cc1cccc2c([C@@](O)(Nc3ccc4c(c3)CNC4)C(=O)NCC(F)F)cc(Br)cc12
     RDKit          3D

 32 35  0  0  0  0  0  0  0  0999 V2000
   -4.6126    5.1628  -20.5051 N   0  0  0  0  0  0  0  0  0  0  0  0
   -4.8362    5.3146  -19.3748 C   0  0  0  0  0  0  0  0  0  0  0  0
   -4.9523    5.5029  -17.9574 C   0  0  0  0  0  0  0  0  0  0  0  0
   -3.7877    5.9383  -17.3180 C   0  0  0  0  0  0  0  0  0  0  0  0
   -3.7494    6.0113  -15.9442 C   0  0  0  0  0  0  0  0  0  0  0  0
   -4.8701    5.6315  -15.2101 C   0  0  0  0  0  0  0  0  0  0  0  0
   -6.0952    5.2155  -15.7954 C   0  0  0  0  0  0  0  0  0  0  0  0
   -7.2623    4.8106  -15.0426 C   0  0  0  0  0  0  0  0  0  0  0  0
   -7.2484    4.6375  -13.4961 C   0  0  1  0  0  0  0  0  0  0  0  0
   -6.5474    5.7489  -12.9620 O   0  0  0  0  0  0  0  0  0  0  0  0
   -8.5982    4.7645  -12.9073 N   0  0  0  0  0  0  0  0  0  0  0  0
   -8.6722    4.6208  -11.4999 C   0  0  0  0  0  0  0  0  0  0  0  0
   -8.5643    5.7622  -10.6675 C   0  0  0  0  0  0  0  0  0  0  0  0
   -8.5097    5.6524   -9.2761 C   0  0  0  0  0  0  0  0  0  0  0  0
   -8.6189    4.3921   -8.7244 C   0  0  0  0  0  0  0  0  0  0  0  0
   -8.7382    3.2604   -9.5268 C   0  0  0  0  0  0  0  0  0  0  0  0
   -8.7419    3.3534  -10.9101 C   0  0  0  0  0  0  0  0  0  0  0  0
   -8.8589    2.0558   -8.6484 C   0  0  0  0  0  0  0  0  0  0  0  0
   -9.2012    2.6015   -7.3058 N   0  0  0  0  0  0  0  0  0  0  0  0
   -8.6696    3.9789   -7.2915 C   0  0  0  0  0  0  0  0  0  0  0  0
   -6.5779    3.1807  -13.1728 C   0  0  0  0  0  0  0  0  0  0  0  0
   -7.0669    2.1595  -13.4668 O   0  0  0  0  0  0  0  0  0  0  0  0
   -5.2141    3.4848  -12.4817 N   0  0  0  0  0  0  0  0  0  0  0  0
   -4.1374    2.5988  -12.1006 C   0  0  0  0  0  0  0  0  0  0  0  0
   -3.4516    2.0124  -13.3280 C   0  0  0  0  0  0  0  0  0  0  0  0
   -3.0500    3.0331  -14.1405 F   0  0  0  0  0  0  0  0  0  0  0  0
   -2.3176    1.3554  -12.9800 F   0  0  0  0  0  0  0  0  0  0  0  0
   -8.4277    4.4506  -15.7531 C   0  0  0  0  0  0  0  0  0  0  0  0
   -8.4572    4.4765  -17.1427 C   0  0  0  0  0  0  0  0  0  0  0  0
  -10.0386    4.0477  -18.0826 Br  0  0  0  0  0  0  0  0  0  0  0  0
   -7.3252    4.8260  -17.8677 C   0  0  0  0  0  0  0  0  0  0  0  0
   -6.1281    5.1885  -17.2227 C   0  0  0  0  0  0  0  0  0  0  0  0
  1  2  3  0
  2  3  1  0
  3  4  2  0
  4  5  1  0
  5  6  2  0
  6  7  1  0
  7  8  2  0
  8  9  1  0
  9 10  1  1
  9 11  1  0
 11 12  1  0
 12 13  2  0
 13 14  1  0
 14 15  2  0
 15 16  1  0
 16 17  2  0
 16 18  1  0
 18 19  1  0
 19 20  1  0
  9 21  1  0
 21 22  2  0
 21 23  1  0
 23 24  1  0
 24 25  1  0
 25 26  1  0
 25 27  1  0
  8 28  1  0
 28 29  2  0
 29 30  1  0
 29 31  1  0
 31 32  2  0
 32  3  1  0
 32  7  1  0
 17 12  1  0
 20 15  1  0
M  END
>  <smiles>  (1486) 
C21937-P195

>  <fragmenstein_outcome>  (1486) 
acceptable

>  <inchikey>  (1486) 
HAVYRUMYJJPLLJ-UHFFFAOYSA-N

>  <fragmenstein_mode>  (1486) 
expansion

>  <HIPPO Pose ID>  (1486) 
21867

>  <Energy>  (1486) 
152.44151

>  <fragmenstein_error>  (1486) 


>  <tags>  (1486) 
{'openbind_xx01zvns2b_c1_fragmenstein', 'fragmenstein_placed'}

>  <ref_pdb>  (1486) 
175

>  <scratch_subdir>  (1486) 
/opt/xchem-fragalysis-2/maxwin/BulkDock/SCRATCH/511028/C21937-P195

>  <alias>  (1486) 
N#Cc1cccc2c([C@@](O)(Nc3ccc4c(c3)CNC4)C(=O)NCC(F)F)cc(Br)cc12

>  <HIPPO Compound ID>  (1486) 
21937

>  <fragmenstein_runtime>  (1486) 
5.597584

$$$$
CNCc1cccc2c([C@H](Nc3ccc4c(c3)CNC4)C(=O)NCC(F)F)cc(Br)cc12
     RDKit          3D

 32 35  0  0  0  0  0  0  0  0999 V2000
   -4.8190    5.1419  -21.3083 C   0  0  0  0  0  0  0  0  0  0  0  0
   -5.0996    4.9150  -19.9024 N   0  0  0  0  0  0  0  0  0  0  0  0
   -5.2913    6.1591  -19.1791 C   0  0  0  0  0  0  0  0  0  0  0  0
   -5.3418    5.9164  -17.6822 C   0  0  0  0  0  0  0  0  0  0  0  0
   -4.2104    6.2555  -16.9293 C   0  0  0  0  0  0  0  0  0  0  0  0
   -4.1910    6.0389  -15.5621 C   0  0  0  0  0  0  0  0  0  0  0  0
   -5.2883    5.4506  -14.9319 C   0  0  0  0  0  0  0  0  0  0  0  0
   -6.4411    5.0478  -15.6336 C   0  0  0  0  0  0  0  0  0  0  0  0
   -7.5609    4.3987  -15.0228 C   0  0  0  0  0  0  0  0  0  0  0  0
   -7.6409    3.8539  -13.5801 C   0  0  2  0  0  0  0  0  0  0  0  0
   -7.5699    4.9542  -12.5941 N   0  0  0  0  0  0  0  0  0  0  0  0
   -8.0271    4.7440  -11.2771 C   0  0  0  0  0  0  0  0  0  0  0  0
   -7.9906    5.8549  -10.4056 C   0  0  0  0  0  0  0  0  0  0  0  0
   -8.2489    5.7316   -9.0353 C   0  0  0  0  0  0  0  0  0  0  0  0
   -8.5484    4.4791   -8.5384 C   0  0  0  0  0  0  0  0  0  0  0  0
   -8.6015    3.3743   -9.3765 C   0  0  0  0  0  0  0  0  0  0  0  0
   -8.3410    3.4863  -10.7341 C   0  0  0  0  0  0  0  0  0  0  0  0
   -8.8988    2.1538   -8.5654 C   0  0  0  0  0  0  0  0  0  0  0  0
   -9.3675    2.6717   -7.2516 N   0  0  0  0  0  0  0  0  0  0  0  0
   -8.8127    4.0375   -7.1386 C   0  0  0  0  0  0  0  0  0  0  0  0
   -6.6345    2.6683  -13.2745 C   0  0  0  0  0  0  0  0  0  0  0  0
   -6.8155    1.5876  -13.6723 O   0  0  0  0  0  0  0  0  0  0  0  0
   -5.4626    3.2488  -12.4550 N   0  0  0  0  0  0  0  0  0  0  0  0
   -4.3130    2.5981  -11.8718 C   0  0  0  0  0  0  0  0  0  0  0  0
   -3.1494    2.4075  -12.8465 C   0  0  0  0  0  0  0  0  0  0  0  0
   -2.8674    3.5732  -13.4885 F   0  0  0  0  0  0  0  0  0  0  0  0
   -3.4007    1.4903  -13.8054 F   0  0  0  0  0  0  0  0  0  0  0  0
   -8.7077    4.1823  -15.8129 C   0  0  0  0  0  0  0  0  0  0  0  0
   -8.7251    4.4568  -17.1667 C   0  0  0  0  0  0  0  0  0  0  0  0
  -10.2620    4.1257  -18.2025 Br  0  0  0  0  0  0  0  0  0  0  0  0
   -7.6126    5.0010  -17.7736 C   0  0  0  0  0  0  0  0  0  0  0  0
   -6.4636    5.3258  -17.0383 C   0  0  0  0  0  0  0  0  0  0  0  0
  1  2  1  0
  2  3  1  0
  3  4  1  0
  4  5  2  0
  5  6  1  0
  6  7  2  0
  7  8  1  0
  8  9  2  0
  9 10  1  0
 10 11  1  1
 11 12  1  0
 12 13  2  0
 13 14  1  0
 14 15  2  0
 15 16  1  0
 16 17  2  0
 16 18  1  0
 18 19  1  0
 19 20  1  0
 10 21  1  0
 21 22  2  0
 21 23  1  0
 23 24  1  0
 24 25  1  0
 25 26  1  0
 25 27  1  0
  9 28  1  0
 28 29  2  0
 29 30  1  0
 29 31  1  0
 31 32  2  0
 32  4  1  0
 32  8  1  0
 17 12  1  0
 20 15  1  0
M  END
>  <smiles>  (1487) 
C21943-P195

>  <fragmenstein_outcome>  (1487) 
acceptable

>  <inchikey>  (1487) 
SJNLZDWOKMXQTM-UHFFFAOYSA-N

>  <fragmenstein_mode>  (1487) 
expansion

>  <HIPPO Pose ID>  (1487) 
21870

>  <Energy>  (1487) 
141.227814

>  <fragmenstein_error>  (1487) 


>  <tags>  (1487) 
{'openbind_xx01zvns2b_c1_fragmenstein', 'fragmenstein_placed'}

>  <ref_pdb>  (1487) 
175

>  <scratch_subdir>  (1487) 
/opt/xchem-fragalysis-2/maxwin/BulkDock/SCRATCH/511028/C21943-P195

>  <alias>  (1487) 
CNCc1cccc2c([C@H](Nc3ccc4c(c3)CNC4)C(=O)NCC(F)F)cc(Br)cc12

>  <HIPPO Compound ID>  (1487) 
36715

>  <fragmenstein_runtime>  (1487) 
11.751424

$$$$
O=C1Nc2c(Br)cc([C@H](Nc3ccc4c(c3)CNC4)C(=O)NCC(F)F)c3cccc1c23
     RDKit          3D

 32 36  0  0  0  0  0  0  0  0999 V2000
   -5.0600    6.4453  -19.7924 O   0  0  0  0  0  0  0  0  0  0  0  0
   -5.7090    5.9424  -18.8979 C   0  0  0  0  0  0  0  0  0  0  0  0
   -6.9781    5.4000  -18.9317 N   0  0  0  0  0  0  0  0  0  0  0  0
   -7.3576    5.0056  -17.6541 C   0  0  0  0  0  0  0  0  0  0  0  0
   -8.5283    4.4664  -17.1889 C   0  0  0  0  0  0  0  0  0  0  0  0
   -9.9872    4.1165  -18.3220 Br  0  0  0  0  0  0  0  0  0  0  0  0
   -8.6153    4.1881  -15.8194 C   0  0  0  0  0  0  0  0  0  0  0  0
   -7.5346    4.4121  -14.9128 C   0  0  0  0  0  0  0  0  0  0  0  0
   -7.7029    3.8765  -13.4818 C   0  0  2  0  0  0  0  0  0  0  0  0
   -7.6056    4.9793  -12.5111 N   0  0  0  0  0  0  0  0  0  0  0  0
   -8.0426    4.7847  -11.1868 C   0  0  0  0  0  0  0  0  0  0  0  0
   -7.9492    5.8948  -10.3201 C   0  0  0  0  0  0  0  0  0  0  0  0
   -8.1702    5.7779   -8.9445 C   0  0  0  0  0  0  0  0  0  0  0  0
   -8.4752    4.5310   -8.4366 C   0  0  0  0  0  0  0  0  0  0  0  0
   -8.5989    3.4326   -9.2724 C   0  0  0  0  0  0  0  0  0  0  0  0
   -8.3908    3.5398  -10.6391 C   0  0  0  0  0  0  0  0  0  0  0  0
   -8.9568    2.2278   -8.4683 C   0  0  0  0  0  0  0  0  0  0  0  0
   -8.8429    2.6412   -7.0439 N   0  0  0  0  0  0  0  0  0  0  0  0
   -8.7287    4.1146   -7.0299 C   0  0  0  0  0  0  0  0  0  0  0  0
   -6.7077    2.6805  -13.1821 C   0  0  0  0  0  0  0  0  0  0  0  0
   -6.8906    1.6094  -13.6064 O   0  0  0  0  0  0  0  0  0  0  0  0
   -5.5191    3.2471  -12.3735 N   0  0  0  0  0  0  0  0  0  0  0  0
   -4.2622    2.6377  -11.9995 C   0  0  0  0  0  0  0  0  0  0  0  0
   -3.5259    2.0757  -13.2149 C   0  0  0  0  0  0  0  0  0  0  0  0
   -3.1923    3.0962  -14.0553 F   0  0  0  0  0  0  0  0  0  0  0  0
   -2.3498    1.5059  -12.8488 F   0  0  0  0  0  0  0  0  0  0  0  0
   -6.3539    5.0539  -15.4121 C   0  0  0  0  0  0  0  0  0  0  0  0
   -5.1770    5.5086  -14.7590 C   0  0  0  0  0  0  0  0  0  0  0  0
   -4.1026    6.1056  -15.4678 C   0  0  0  0  0  0  0  0  0  0  0  0
   -4.1570    6.2836  -16.8522 C   0  0  0  0  0  0  0  0  0  0  0  0
   -5.3028    5.8621  -17.4851 C   0  0  0  0  0  0  0  0  0  0  0  0
   -6.3391    5.2895  -16.7881 C   0  0  0  0  0  0  0  0  0  0  0  0
  1  2  2  0
  2  3  1  0
  3  4  1  0
  4  5  2  0
  5  6  1  0
  5  7  1  0
  7  8  2  0
  8  9  1  0
  9 10  1  1
 10 11  1  0
 11 12  2  0
 12 13  1  0
 13 14  2  0
 14 15  1  0
 15 16  2  0
 15 17  1  0
 17 18  1  0
 18 19  1  0
  9 20  1  0
 20 21  2  0
 20 22  1  0
 22 23  1  0
 23 24  1  0
 24 25  1  0
 24 26  1  0
  8 27  1  0
 27 28  2  0
 28 29  1  0
 29 30  2  0
 30 31  1  0
 31 32  2  0
 31  2  1  0
 32  4  1  0
 16 11  1  0
 32 27  1  0
 19 14  1  0
M  END
>  <smiles>  (1488) 
C21946-P195

>  <fragmenstein_outcome>  (1488) 
acceptable

>  <inchikey>  (1488) 
KFZDCQFEFMUDOJ-UHFFFAOYSA-N

>  <fragmenstein_mode>  (1488) 
expansion

>  <HIPPO Pose ID>  (1488) 
21871

>  <Energy>  (1488) 
145.401389

>  <fragmenstein_error>  (1488) 


>  <tags>  (1488) 
{'openbind_xx01zvns2b_c1_fragmenstein', 'fragmenstein_placed'}

>  <ref_pdb>  (1488) 
175

>  <scratch_subdir>  (1488) 
/opt/xchem-fragalysis-2/maxwin/BulkDock/SCRATCH/511028/C21946-P195

>  <alias>  (1488) 
O=C1Nc2c(Br)cc([C@H](Nc3ccc4c(c3)CNC4)C(=O)NCC(F)F)c3cccc1c23

>  <HIPPO Compound ID>  (1488) 
21946

>  <fragmenstein_runtime>  (1488) 
9.530775

$$$$
CN1CCC[C@@]2(CCc3c([C@@](O)(Nc4ccc5c(c4)CNC5)C(=O)NCC(F)F)cc(Br)c4[nH]cc2c34)C1
     RDKit          3D

 38 43  0  0  0  0  0  0  0  0999 V2000
   -4.4485    8.8175  -19.3182 C   0  0  0  0  0  0  0  0  0  0  0  0
   -3.5597    8.8009  -18.1611 N   0  0  0  0  0  0  0  0  0  0  0  0
   -2.1663    8.5363  -18.5514 C   0  0  0  0  0  0  0  0  0  0  0  0
   -1.6019    7.1810  -18.1079 C   0  0  0  0  0  0  0  0  0  0  0  0
   -2.6452    6.0786  -18.2535 C   0  0  0  0  0  0  0  0  0  0  0  0
   -3.8688    6.3541  -17.3468 C   0  0  2  0  0  0  0  0  0  0  0  0
   -3.6253    5.6605  -15.9515 C   0  0  0  0  0  0  0  0  0  0  0  0
   -4.8319    5.7003  -14.9748 C   0  0  0  0  0  0  0  0  0  0  0  0
   -6.1164    5.2151  -15.6067 C   0  0  0  0  0  0  0  0  0  0  0  0
   -7.2714    4.7272  -14.9290 C   0  0  0  0  0  0  0  0  0  0  0  0
   -7.2694    4.4680  -13.4015 C   0  0  1  0  0  0  0  0  0  0  0  0
   -6.5200    5.5251  -12.8185 O   0  0  0  0  0  0  0  0  0  0  0  0
   -8.6299    4.5544  -12.8165 N   0  0  0  0  0  0  0  0  0  0  0  0
   -8.6488    4.4568  -11.3928 C   0  0  0  0  0  0  0  0  0  0  0  0
   -8.4771    5.6150  -10.6020 C   0  0  0  0  0  0  0  0  0  0  0  0
   -8.4360    5.5495   -9.2066 C   0  0  0  0  0  0  0  0  0  0  0  0
   -8.6049    4.3153   -8.6126 C   0  0  0  0  0  0  0  0  0  0  0  0
   -8.7695    3.1639   -9.3767 C   0  0  0  0  0  0  0  0  0  0  0  0
   -8.7771    3.2115  -10.7605 C   0  0  0  0  0  0  0  0  0  0  0  0
   -8.9180    1.9920   -8.4619 C   0  0  0  0  0  0  0  0  0  0  0  0
   -9.2517    2.5899   -7.1393 N   0  0  0  0  0  0  0  0  0  0  0  0
   -8.6734    3.9507   -7.1681 C   0  0  0  0  0  0  0  0  0  0  0  0
   -6.6574    2.9955  -13.1267 C   0  0  0  0  0  0  0  0  0  0  0  0
   -7.1741    2.0050  -13.4698 O   0  0  0  0  0  0  0  0  0  0  0  0
   -5.2879    3.2276  -12.4366 N   0  0  0  0  0  0  0  0  0  0  0  0
   -4.2331    2.2990  -12.1136 C   0  0  0  0  0  0  0  0  0  0  0  0
   -3.0288    2.4691  -13.0339 C   0  0  0  0  0  0  0  0  0  0  0  0
   -3.4099    2.6691  -14.3208 F   0  0  0  0  0  0  0  0  0  0  0  0
   -2.2456    1.3630  -13.0341 F   0  0  0  0  0  0  0  0  0  0  0  0
   -8.4064    4.3948  -15.7143 C   0  0  0  0  0  0  0  0  0  0  0  0
   -8.4140    4.4634  -17.1184 C   0  0  0  0  0  0  0  0  0  0  0  0
   -9.9509    4.0237  -18.1152 Br  0  0  0  0  0  0  0  0  0  0  0  0
   -7.2445    4.8796  -17.7406 C   0  0  0  0  0  0  0  0  0  0  0  0
   -6.8769    4.9903  -19.0585 N   0  0  0  0  0  0  0  0  0  0  0  0
   -5.6002    5.4996  -19.1645 C   0  0  0  0  0  0  0  0  0  0  0  0
   -5.1418    5.7520  -17.8956 C   0  0  0  0  0  0  0  0  0  0  0  0
   -6.1503    5.2860  -17.0097 C   0  0  0  0  0  0  0  0  0  0  0  0
   -4.0303    7.8940  -17.0992 C   0  0  0  0  0  0  0  0  0  0  0  0
  1  2  1  0
  2  3  1  0
  3  4  1  0
  4  5  1  0
  6  5  1  6
  6  7  1  0
  7  8  1  0
  8  9  1  0
  9 10  2  0
 10 11  1  0
 11 12  1  1
 11 13  1  0
 13 14  1  0
 14 15  2  0
 15 16  1  0
 16 17  2  0
 17 18  1  0
 18 19  2  0
 18 20  1  0
 20 21  1  0
 21 22  1  0
 11 23  1  0
 23 24  2  0
 23 25  1  0
 25 26  1  0
 26 27  1  0
 27 28  1  0
 27 29  1  0
 10 30  1  0
 30 31  2  0
 31 32  1  0
 31 33  1  0
 33 34  1  0
 34 35  1  0
 35 36  2  0
 36 37  1  0
  6 38  1  0
 38  2  1  0
 36  6  1  0
 37  9  1  0
 19 14  1  0
 37 33  2  0
 22 17  1  0
M  END
>  <smiles>  (1489) 
C21953-P195

>  <fragmenstein_outcome>  (1489) 
acceptable

>  <inchikey>  (1489) 
JQRIGIHMJDQEFG-UHFFFAOYSA-N

>  <fragmenstein_mode>  (1489) 
expansion

>  <HIPPO Pose ID>  (1489) 
21873

>  <Energy>  (1489) 
173.18524

>  <fragmenstein_error>  (1489) 


>  <tags>  (1489) 
{'openbind_xx01zvns2b_c1_fragmenstein', 'fragmenstein_placed'}

>  <ref_pdb>  (1489) 
175

>  <scratch_subdir>  (1489) 
/opt/xchem-fragalysis-2/maxwin/BulkDock/SCRATCH/511028/C21953-P195

>  <alias>  (1489) 
CN1CCC[C@@]2(CCc3c([C@@](O)(Nc4ccc5c(c4)CNC5)C(=O)NCC(F)F)cc(Br)c4[nH]cc2c34)C1

>  <HIPPO Compound ID>  (1489) 
21953

>  <fragmenstein_runtime>  (1489) 
5.65219

$$$$
O=C(NCC(F)F)[C@@](O)(Nc1ccc2c(c1)CNC2)c1cc(Br)cc2c1CCC1(CCNCC1)C2
     RDKit          3D

 35 39  0  0  0  0  0  0  0  0999 V2000
   -7.3016    1.7984  -13.5437 O   0  0  0  0  0  0  0  0  0  0  0  0
   -6.9644    2.8769  -13.2466 C   0  0  0  0  0  0  0  0  0  0  0  0
   -5.6356    3.3776  -12.6177 N   0  0  0  0  0  0  0  0  0  0  0  0
   -4.4859    2.6395  -12.1377 C   0  0  0  0  0  0  0  0  0  0  0  0
   -3.6790    2.0231  -13.2752 C   0  0  0  0  0  0  0  0  0  0  0  0
   -3.2567    3.0086  -14.1168 F   0  0  0  0  0  0  0  0  0  0  0  0
   -2.5483    1.4372  -12.8079 F   0  0  0  0  0  0  0  0  0  0  0  0
   -7.8987    4.2129  -13.5243 C   0  0  1  0  0  0  0  0  0  0  0  0
   -9.2932    4.0931  -13.3607 O   0  0  0  0  0  0  0  0  0  0  0  0
   -7.5691    5.2455  -12.5353 N   0  0  0  0  0  0  0  0  0  0  0  0
   -7.9357    4.9950  -11.1753 C   0  0  0  0  0  0  0  0  0  0  0  0
   -7.8213    6.0727  -10.2735 C   0  0  0  0  0  0  0  0  0  0  0  0
   -8.0656    5.9171   -8.9016 C   0  0  0  0  0  0  0  0  0  0  0  0
   -8.4183    4.6664   -8.4307 C   0  0  0  0  0  0  0  0  0  0  0  0
   -8.5291    3.5895   -9.2939 C   0  0  0  0  0  0  0  0  0  0  0  0
   -8.2910    3.7344  -10.6509 C   0  0  0  0  0  0  0  0  0  0  0  0
   -8.8735    2.3584   -8.5190 C   0  0  0  0  0  0  0  0  0  0  0  0
   -9.2897    2.8525   -7.1801 N   0  0  0  0  0  0  0  0  0  0  0  0
   -8.6958    4.2003   -7.0416 C   0  0  0  0  0  0  0  0  0  0  0  0
   -7.6781    4.6483  -15.0124 C   0  0  0  0  0  0  0  0  0  0  0  0
   -8.7101    4.2989  -15.9221 C   0  0  0  0  0  0  0  0  0  0  0  0
   -8.5939    4.4364  -17.2971 C   0  0  0  0  0  0  0  0  0  0  0  0
  -10.0594    4.0277  -18.3988 Br  0  0  0  0  0  0  0  0  0  0  0  0
   -7.4225    4.9031  -17.8435 C   0  0  0  0  0  0  0  0  0  0  0  0
   -6.3865    5.3218  -16.9980 C   0  0  0  0  0  0  0  0  0  0  0  0
   -6.5192    5.2463  -15.5809 C   0  0  0  0  0  0  0  0  0  0  0  0
   -5.3914    5.7913  -14.7456 C   0  0  0  0  0  0  0  0  0  0  0  0
   -4.5668    6.8645  -15.4618 C   0  0  0  0  0  0  0  0  0  0  0  0
   -4.0141    6.3979  -16.8256 C   0  0  0  0  0  0  0  0  0  0  0  0
   -3.3538    7.5952  -17.5577 C   0  0  0  0  0  0  0  0  0  0  0  0
   -2.1082    8.1269  -16.8419 C   0  0  0  0  0  0  0  0  0  0  0  0
   -1.2696    7.0927  -16.2400 N   0  0  0  0  0  0  0  0  0  0  0  0
   -1.4981    5.7885  -16.8546 C   0  0  0  0  0  0  0  0  0  0  0  0
   -2.9384    5.2887  -16.6504 C   0  0  0  0  0  0  0  0  0  0  0  0
   -5.1908    5.9175  -17.7012 C   0  0  0  0  0  0  0  0  0  0  0  0
  1  2  2  0
  2  3  1  0
  3  4  1  0
  4  5  1  0
  5  6  1  0
  5  7  1  0
  2  8  1  0
  8  9  1  6
  8 10  1  0
 10 11  1  0
 11 12  2  0
 12 13  1  0
 13 14  2  0
 14 15  1  0
 15 16  2  0
 15 17  1  0
 17 18  1  0
 18 19  1  0
  8 20  1  0
 20 21  2  0
 21 22  1  0
 22 23  1  0
 22 24  2  0
 24 25  1  0
 25 26  2  0
 26 27  1  0
 27 28  1  0
 28 29  1  0
 29 30  1  0
 30 31  1  0
 31 32  1  0
 32 33  1  0
 33 34  1  0
 29 35  1  0
 16 11  1  0
 26 20  1  0
 34 29  1  0
 19 14  1  0
 35 25  1  0
M  END
>  <smiles>  (1490) 
C21960-P195

>  <fragmenstein_outcome>  (1490) 
acceptable

>  <inchikey>  (1490) 
ZSGBPGFOLFCBHX-UHFFFAOYSA-N

>  <fragmenstein_mode>  (1490) 
expansion

>  <HIPPO Pose ID>  (1490) 
21874

>  <Energy>  (1490) 
156.84688

>  <fragmenstein_error>  (1490) 


>  <tags>  (1490) 
{'openbind_xx01zvns2b_c1_fragmenstein', 'fragmenstein_placed'}

>  <ref_pdb>  (1490) 
175

>  <scratch_subdir>  (1490) 
/opt/xchem-fragalysis-2/maxwin/BulkDock/SCRATCH/511028/C21960-P195

>  <alias>  (1490) 
O=C(NCC(F)F)[C@@](O)(Nc1ccc2c(c1)CNC2)c1cc(Br)cc2c1CCC1(CCNCC1)C2

>  <HIPPO Compound ID>  (1490) 
21960

>  <fragmenstein_runtime>  (1490) 
9.0508

$$$$
CNCc1cccc2c([C@@](O)(Nc3ccc4c(c3)CNC4)C(=O)NCC(F)F)cc(Br)cc12
     RDKit          3D

 33 36  0  0  0  0  0  0  0  0999 V2000
   -4.7082    7.8485  -19.7134 C   0  0  0  0  0  0  0  0  0  0  0  0
   -5.3411    6.6486  -20.2166 N   0  0  0  0  0  0  0  0  0  0  0  0
   -4.9448    5.4150  -19.5417 C   0  0  0  0  0  0  0  0  0  0  0  0
   -4.9851    5.4618  -18.0229 C   0  0  0  0  0  0  0  0  0  0  0  0
   -3.7780    5.7940  -17.3876 C   0  0  0  0  0  0  0  0  0  0  0  0
   -3.6918    5.8172  -16.0135 C   0  0  0  0  0  0  0  0  0  0  0  0
   -4.8075    5.4851  -15.2529 C   0  0  0  0  0  0  0  0  0  0  0  0
   -6.0637    5.1487  -15.8127 C   0  0  0  0  0  0  0  0  0  0  0  0
   -7.2194    4.7753  -15.0302 C   0  0  0  0  0  0  0  0  0  0  0  0
   -7.1780    4.5960  -13.4827 C   0  0  1  0  0  0  0  0  0  0  0  0
   -6.4080    5.6599  -12.9293 O   0  0  0  0  0  0  0  0  0  0  0  0
   -8.5191    4.7798  -12.8835 N   0  0  0  0  0  0  0  0  0  0  0  0
   -8.6134    4.6325  -11.4814 C   0  0  0  0  0  0  0  0  0  0  0  0
   -8.5036    5.7707  -10.6462 C   0  0  0  0  0  0  0  0  0  0  0  0
   -8.4762    5.6580   -9.2541 C   0  0  0  0  0  0  0  0  0  0  0  0
   -8.6075    4.3981   -8.7059 C   0  0  0  0  0  0  0  0  0  0  0  0
   -8.7268    3.2694   -9.5121 C   0  0  0  0  0  0  0  0  0  0  0  0
   -8.7105    3.3655  -10.8948 C   0  0  0  0  0  0  0  0  0  0  0  0
   -8.8669    2.0633   -8.6390 C   0  0  0  0  0  0  0  0  0  0  0  0
   -9.2196    2.6075   -7.2983 N   0  0  0  0  0  0  0  0  0  0  0  0
   -8.6787    3.9817   -7.2749 C   0  0  0  0  0  0  0  0  0  0  0  0
   -6.5614    3.1165  -13.1667 C   0  0  0  0  0  0  0  0  0  0  0  0
   -7.0862    2.1109  -13.4528 O   0  0  0  0  0  0  0  0  0  0  0  0
   -5.1825    3.3780  -12.4874 N   0  0  0  0  0  0  0  0  0  0  0  0
   -4.1338    2.4593  -12.1116 C   0  0  0  0  0  0  0  0  0  0  0  0
   -3.3854    1.9665  -13.3418 C   0  0  0  0  0  0  0  0  0  0  0  0
   -2.9324    3.0421  -14.0480 F   0  0  0  0  0  0  0  0  0  0  0  0
   -2.2771    1.2700  -12.9874 F   0  0  0  0  0  0  0  0  0  0  0  0
   -8.4117    4.4488  -15.7155 C   0  0  0  0  0  0  0  0  0  0  0  0
   -8.4784    4.4974  -17.1030 C   0  0  0  0  0  0  0  0  0  0  0  0
  -10.0775    4.0826  -18.0213 Br  0  0  0  0  0  0  0  0  0  0  0  0
   -7.3658    4.8548  -17.8516 C   0  0  0  0  0  0  0  0  0  0  0  0
   -6.1409    5.1674  -17.2426 C   0  0  0  0  0  0  0  0  0  0  0  0
  1  2  1  0
  2  3  1  0
  3  4  1  0
  4  5  2  0
  5  6  1  0
  6  7  2  0
  7  8  1  0
  8  9  2  0
  9 10  1  0
 10 11  1  1
 10 12  1  0
 12 13  1  0
 13 14  2  0
 14 15  1  0
 15 16  2  0
 16 17  1  0
 17 18  2  0
 17 19  1  0
 19 20  1  0
 20 21  1  0
 10 22  1  0
 22 23  2  0
 22 24  1  0
 24 25  1  0
 25 26  1  0
 26 27  1  0
 26 28  1  0
  9 29  1  0
 29 30  2  0
 30 31  1  0
 30 32  1  0
 32 33  2  0
 33  4  1  0
 33  8  1  0
 18 13  1  0
 21 16  1  0
M  END
>  <smiles>  (1491) 
C21947-P195

>  <fragmenstein_outcome>  (1491) 
acceptable

>  <inchikey>  (1491) 
OLLMXNLPCMJKQT-UHFFFAOYSA-N

>  <fragmenstein_mode>  (1491) 
expansion

>  <HIPPO Pose ID>  (1491) 
21875

>  <Energy>  (1491) 
142.564851

>  <fragmenstein_error>  (1491) 


>  <tags>  (1491) 
{'openbind_xx01zvns2b_c1_fragmenstein', 'fragmenstein_placed'}

>  <ref_pdb>  (1491) 
175

>  <scratch_subdir>  (1491) 
/opt/xchem-fragalysis-2/maxwin/BulkDock/SCRATCH/511028/C21947-P195

>  <alias>  (1491) 
CNCc1cccc2c([C@@](O)(Nc3ccc4c(c3)CNC4)C(=O)NCC(F)F)cc(Br)cc12

>  <HIPPO Compound ID>  (1491) 
21947

>  <fragmenstein_runtime>  (1491) 
4.668

$$$$
CNCc1cccc2c([C@@](O)(N[C@H]3CC4=C(CNC4)C[C@]34CCCC4=O)C(=O)NCC(F)F)cc(Br)cc12
     RDKit          3D

 38 42  0  0  0  0  0  0  0  0999 V2000
   -3.2479    5.2811  -20.8631 C   0  0  0  0  0  0  0  0  0  0  0  0
   -4.1335    6.3735  -20.4869 N   0  0  0  0  0  0  0  0  0  0  0  0
   -5.2965    5.9075  -19.7139 C   0  0  0  0  0  0  0  0  0  0  0  0
   -5.1184    5.6972  -18.2078 C   0  0  0  0  0  0  0  0  0  0  0  0
   -3.8972    5.9866  -17.5847 C   0  0  0  0  0  0  0  0  0  0  0  0
   -3.7350    5.7903  -16.2276 C   0  0  0  0  0  0  0  0  0  0  0  0
   -4.8000    5.3290  -15.4626 C   0  0  0  0  0  0  0  0  0  0  0  0
   -6.0843    5.0667  -15.9937 C   0  0  0  0  0  0  0  0  0  0  0  0
   -7.2247    4.6623  -15.1876 C   0  0  0  0  0  0  0  0  0  0  0  0
   -7.1302    4.5357  -13.6261 C   0  0  1  0  0  0  0  0  0  0  0  0
   -6.4245    5.6866  -13.2147 O   0  0  0  0  0  0  0  0  0  0  0  0
   -8.4375    4.6000  -12.9492 N   0  0  0  0  0  0  0  0  0  0  0  0
   -8.4772    4.6079  -11.4520 C   0  0  1  0  0  0  0  0  0  0  0  0
   -8.1653    3.2393  -10.7865 C   0  0  0  0  0  0  0  0  0  0  0  0
   -8.4965    3.2591   -9.3416 C   0  0  0  0  0  0  0  0  0  0  0  0
   -8.5494    4.3611   -8.5985 C   0  0  0  0  0  0  0  0  0  0  0  0
   -8.8444    4.0081   -7.1868 C   0  0  0  0  0  0  0  0  0  0  0  0
   -9.2715    2.6011   -7.2303 N   0  0  0  0  0  0  0  0  0  0  0  0
   -8.7815    2.0546   -8.5190 C   0  0  0  0  0  0  0  0  0  0  0  0
   -8.3282    5.7420   -9.0919 C   0  0  0  0  0  0  0  0  0  0  0  0
   -8.0093    5.8630  -10.6226 C   0  0  2  0  0  0  0  0  0  0  0  0
   -8.6568    7.1782  -11.1587 C   0  0  0  0  0  0  0  0  0  0  0  0
   -7.5538    8.0760  -11.6939 C   0  0  0  0  0  0  0  0  0  0  0  0
   -6.2896    7.6654  -10.9661 C   0  0  0  0  0  0  0  0  0  0  0  0
   -6.5275    6.2053  -10.6776 C   0  0  0  0  0  0  0  0  0  0  0  0
   -5.6073    5.4349  -10.4238 O   0  0  0  0  0  0  0  0  0  0  0  0
   -6.4281    3.1205  -13.2875 C   0  0  0  0  0  0  0  0  0  0  0  0
   -6.8326    2.0951  -13.6715 O   0  0  0  0  0  0  0  0  0  0  0  0
   -5.1475    3.4564  -12.4847 N   0  0  0  0  0  0  0  0  0  0  0  0
   -4.0531    2.6125  -12.0712 C   0  0  0  0  0  0  0  0  0  0  0  0
   -3.3522    2.0221  -13.2876 C   0  0  0  0  0  0  0  0  0  0  0  0
   -2.9227    3.0380  -14.0908 F   0  0  0  0  0  0  0  0  0  0  0  0
   -2.2364    1.3412  -12.9278 F   0  0  0  0  0  0  0  0  0  0  0  0
   -8.4395    4.3831  -15.8409 C   0  0  0  0  0  0  0  0  0  0  0  0
   -8.5385    4.4830  -17.2207 C   0  0  0  0  0  0  0  0  0  0  0  0
  -10.1644    4.1015  -18.1019 Br  0  0  0  0  0  0  0  0  0  0  0  0
   -7.4561    4.9037  -17.9823 C   0  0  0  0  0  0  0  0  0  0  0  0
   -6.2169    5.2281  -17.4069 C   0  0  0  0  0  0  0  0  0  0  0  0
  1  2  1  0
  2  3  1  0
  3  4  1  0
  4  5  2  0
  5  6  1  0
  6  7  2  0
  7  8  1  0
  8  9  2  0
  9 10  1  0
 10 11  1  1
 10 12  1  0
 13 12  1  6
 13 14  1  0
 14 15  1  0
 15 16  2  0
 16 17  1  0
 17 18  1  0
 18 19  1  0
 16 20  1  0
 21 20  1  1
 21 22  1  0
 22 23  1  0
 23 24  1  0
 24 25  1  0
 25 26  2  0
 10 27  1  0
 27 28  2  0
 27 29  1  0
 29 30  1  0
 30 31  1  0
 31 32  1  0
 31 33  1  0
  9 34  1  0
 34 35  2  0
 35 36  1  0
 35 37  1  0
 37 38  2  0
 38  4  1  0
 38  8  1  0
 21 13  1  0
 19 15  1  0
 25 21  1  0
M  END
>  <smiles>  (1492) 
C21972-P195

>  <fragmenstein_outcome>  (1492) 
acceptable

>  <inchikey>  (1492) 
PXKBRHIWRCKUJC-UHFFFAOYSA-N

>  <fragmenstein_mode>  (1492) 
expansion

>  <HIPPO Pose ID>  (1492) 
21877

>  <Energy>  (1492) 
140.713581

>  <fragmenstein_error>  (1492) 


>  <tags>  (1492) 
{'openbind_xx01zvns2b_c1_fragmenstein', 'fragmenstein_placed'}

>  <ref_pdb>  (1492) 
175

>  <scratch_subdir>  (1492) 
/opt/xchem-fragalysis-2/maxwin/BulkDock/SCRATCH/511028/C21972-P195

>  <alias>  (1492) 
CNCc1cccc2c([C@@](O)(N[C@H]3CC4=C(CNC4)C[C@]34CCCC4=O)C(=O)NCC(F)F)cc(Br)cc12

>  <HIPPO Compound ID>  (1492) 
22181

>  <fragmenstein_runtime>  (1492) 
7.25572

$$$$
CNCc1cccc2c([C@](O)(Nc3ccc4c(c3)CN(C)C4)C(=O)NCC(F)F)cc(Br)cc12
     RDKit          3D

 34 37  0  0  0  0  0  0  0  0999 V2000
   -4.4727    6.3670  -21.0419 C   0  0  0  0  0  0  0  0  0  0  0  0
   -4.6731    6.6302  -19.6233 N   0  0  0  0  0  0  0  0  0  0  0  0
   -4.5230    5.3928  -18.8511 C   0  0  0  0  0  0  0  0  0  0  0  0
   -4.9201    5.6085  -17.4058 C   0  0  0  0  0  0  0  0  0  0  0  0
   -3.9368    6.1176  -16.5483 C   0  0  0  0  0  0  0  0  0  0  0  0
   -4.1878    6.2355  -15.1944 C   0  0  0  0  0  0  0  0  0  0  0  0
   -5.4026    5.7916  -14.6719 C   0  0  0  0  0  0  0  0  0  0  0  0
   -6.4312    5.2552  -15.4779 C   0  0  0  0  0  0  0  0  0  0  0  0
   -7.6557    4.7139  -14.9638 C   0  0  0  0  0  0  0  0  0  0  0  0
   -7.9183    4.2606  -13.4922 C   0  0  2  0  0  0  0  0  0  0  0  0
   -9.3228    4.1649  -13.3488 O   0  0  0  0  0  0  0  0  0  0  0  0
   -7.5580    5.2661  -12.4907 N   0  0  0  0  0  0  0  0  0  0  0  0
   -7.9324    5.0410  -11.1360 C   0  0  0  0  0  0  0  0  0  0  0  0
   -7.8113    6.1366  -10.2554 C   0  0  0  0  0  0  0  0  0  0  0  0
   -8.0736    6.0184   -8.8849 C   0  0  0  0  0  0  0  0  0  0  0  0
   -8.4352    4.7813   -8.3881 C   0  0  0  0  0  0  0  0  0  0  0  0
   -8.5469    3.6840   -9.2290 C   0  0  0  0  0  0  0  0  0  0  0  0
   -8.3031    3.7965  -10.5902 C   0  0  0  0  0  0  0  0  0  0  0  0
   -8.9650    2.4802   -8.4413 C   0  0  0  0  0  0  0  0  0  0  0  0
   -8.9121    2.9182   -7.0324 N   0  0  0  0  0  0  0  0  0  0  0  0
   -9.9692    2.3726   -6.2082 C   0  0  0  0  0  0  0  0  0  0  0  0
   -8.7848    4.3786   -6.9920 C   0  0  0  0  0  0  0  0  0  0  0  0
   -7.0772    2.8744  -13.2451 C   0  0  0  0  0  0  0  0  0  0  0  0
   -7.5226    1.8382  -13.5438 O   0  0  0  0  0  0  0  0  0  0  0  0
   -5.7112    3.2336  -12.6120 N   0  0  0  0  0  0  0  0  0  0  0  0
   -4.5714    2.3993  -12.3027 C   0  0  0  0  0  0  0  0  0  0  0  0
   -3.3319    2.7011  -13.1365 C   0  0  0  0  0  0  0  0  0  0  0  0
   -3.6292    2.8030  -14.4542 F   0  0  0  0  0  0  0  0  0  0  0  0
   -2.4233    1.6977  -13.0297 F   0  0  0  0  0  0  0  0  0  0  0  0
   -8.6632    4.3831  -15.9014 C   0  0  0  0  0  0  0  0  0  0  0  0
   -8.4784    4.5041  -17.2655 C   0  0  0  0  0  0  0  0  0  0  0  0
   -9.9023    4.0849  -18.4261 Br  0  0  0  0  0  0  0  0  0  0  0  0
   -7.2573    4.9164  -17.7604 C   0  0  0  0  0  0  0  0  0  0  0  0
   -6.2033    5.2653  -16.8942 C   0  0  0  0  0  0  0  0  0  0  0  0
  1  2  1  0
  2  3  1  0
  3  4  1  0
  4  5  2  0
  5  6  1  0
  6  7  2  0
  7  8  1  0
  8  9  2  0
  9 10  1  0
 10 11  1  6
 10 12  1  0
 12 13  1  0
 13 14  2  0
 14 15  1  0
 15 16  2  0
 16 17  1  0
 17 18  2  0
 17 19  1  0
 19 20  1  0
 20 21  1  0
 20 22  1  0
 10 23  1  0
 23 24  2  0
 23 25  1  0
 25 26  1  0
 26 27  1  0
 27 28  1  0
 27 29  1  0
  9 30  1  0
 30 31  2  0
 31 32  1  0
 31 33  1  0
 33 34  2  0
 34  4  1  0
 34  8  1  0
 18 13  1  0
 22 16  1  0
M  END
>  <smiles>  (1493) 
C21975-P195

>  <fragmenstein_outcome>  (1493) 
acceptable

>  <inchikey>  (1493) 
RVWVPSCWCHYUSM-UHFFFAOYSA-N

>  <fragmenstein_mode>  (1493) 
expansion

>  <HIPPO Pose ID>  (1493) 
21878

>  <Energy>  (1493) 
155.827929

>  <fragmenstein_error>  (1493) 


>  <tags>  (1493) 
{'openbind_xx01zvns2b_c1_fragmenstein', 'fragmenstein_placed'}

>  <ref_pdb>  (1493) 
175

>  <scratch_subdir>  (1493) 
/opt/xchem-fragalysis-2/maxwin/BulkDock/SCRATCH/511028/C21975-P195

>  <alias>  (1493) 
CNCc1cccc2c([C@](O)(Nc3ccc4c(c3)CN(C)C4)C(=O)NCC(F)F)cc(Br)cc12

>  <HIPPO Compound ID>  (1493) 
21975

>  <fragmenstein_runtime>  (1493) 
6.665825

$$$$
CNCc1cccc2c([C@@](O)(Nc3cc4c(cc3F)CNC4)C(=O)NCC(F)F)cc(Br)cc12
     RDKit          3D

 34 37  0  0  0  0  0  0  0  0999 V2000
   -4.9406    7.5916  -21.3376 C   0  0  0  0  0  0  0  0  0  0  0  0
   -5.2002    7.4071  -19.9153 N   0  0  0  0  0  0  0  0  0  0  0  0
   -5.0645    5.9849  -19.5599 C   0  0  0  0  0  0  0  0  0  0  0  0
   -5.1013    5.7879  -18.0534 C   0  0  0  0  0  0  0  0  0  0  0  0
   -3.9152    6.1103  -17.3747 C   0  0  0  0  0  0  0  0  0  0  0  0
   -3.8241    5.9420  -16.0114 C   0  0  0  0  0  0  0  0  0  0  0  0
   -4.9210    5.4531  -15.3080 C   0  0  0  0  0  0  0  0  0  0  0  0
   -6.1655    5.1319  -15.9067 C   0  0  0  0  0  0  0  0  0  0  0  0
   -7.3245    4.6577  -15.1685 C   0  0  0  0  0  0  0  0  0  0  0  0
   -7.3105    4.4475  -13.6307 C   0  0  1  0  0  0  0  0  0  0  0  0
   -6.6370    5.5769  -13.1150 O   0  0  0  0  0  0  0  0  0  0  0  0
   -8.6669    4.4658  -13.0166 N   0  0  0  0  0  0  0  0  0  0  0  0
   -8.6500    4.4248  -11.5824 C   0  0  0  0  0  0  0  0  0  0  0  0
   -8.8155    3.2086  -10.9041 C   0  0  0  0  0  0  0  0  0  0  0  0
   -8.7376    3.1962   -9.5169 C   0  0  0  0  0  0  0  0  0  0  0  0
   -8.4891    4.3551   -8.7905 C   0  0  0  0  0  0  0  0  0  0  0  0
   -8.3093    5.5678   -9.4241 C   0  0  0  0  0  0  0  0  0  0  0  0
   -8.3944    5.5882  -10.8140 C   0  0  0  0  0  0  0  0  0  0  0  0
   -8.2080    6.7636  -11.4394 F   0  0  0  0  0  0  0  0  0  0  0  0
   -8.4597    4.0395   -7.3365 C   0  0  0  0  0  0  0  0  0  0  0  0
   -8.8320    2.6176   -7.2109 N   0  0  0  0  0  0  0  0  0  0  0  0
   -8.8669    2.0409   -8.5808 C   0  0  0  0  0  0  0  0  0  0  0  0
   -6.6332    3.0180  -13.2796 C   0  0  0  0  0  0  0  0  0  0  0  0
   -7.1137    1.9945  -13.5733 O   0  0  0  0  0  0  0  0  0  0  0  0
   -5.2930    3.3301  -12.5669 N   0  0  0  0  0  0  0  0  0  0  0  0
   -4.2242    2.4518  -12.1544 C   0  0  0  0  0  0  0  0  0  0  0  0
   -3.0181    2.5447  -13.0834 C   0  0  0  0  0  0  0  0  0  0  0  0
   -3.4001    2.6691  -14.3784 F   0  0  0  0  0  0  0  0  0  0  0  0
   -2.2534    1.4285  -13.0129 F   0  0  0  0  0  0  0  0  0  0  0  0
   -8.4968    4.3606  -15.8865 C   0  0  0  0  0  0  0  0  0  0  0  0
   -8.5414    4.5027  -17.2637 C   0  0  0  0  0  0  0  0  0  0  0  0
  -10.1259    4.1012  -18.2077 Br  0  0  0  0  0  0  0  0  0  0  0  0
   -7.4391    4.9728  -17.9650 C   0  0  0  0  0  0  0  0  0  0  0  0
   -6.2344    5.3042  -17.3245 C   0  0  0  0  0  0  0  0  0  0  0  0
  1  2  1  0
  2  3  1  0
  3  4  1  0
  4  5  2  0
  5  6  1  0
  6  7  2  0
  7  8  1  0
  8  9  2  0
  9 10  1  0
 10 11  1  1
 10 12  1  0
 12 13  1  0
 13 14  2  0
 14 15  1  0
 15 16  2  0
 16 17  1  0
 17 18  2  0
 18 19  1  0
 16 20  1  0
 20 21  1  0
 21 22  1  0
 10 23  1  0
 23 24  2  0
 23 25  1  0
 25 26  1  0
 26 27  1  0
 27 28  1  0
 27 29  1  0
  9 30  1  0
 30 31  2  0
 31 32  1  0
 31 33  1  0
 33 34  2  0
 34  4  1  0
 34  8  1  0
 18 13  1  0
 22 15  1  0
M  END
>  <smiles>  (1494) 
C21977-P195

>  <fragmenstein_outcome>  (1494) 
acceptable

>  <inchikey>  (1494) 
JMVPHVAZSXDAGE-UHFFFAOYSA-N

>  <fragmenstein_mode>  (1494) 
expansion

>  <HIPPO Pose ID>  (1494) 
21879

>  <Energy>  (1494) 
160.675431

>  <fragmenstein_error>  (1494) 


>  <tags>  (1494) 
{'openbind_xx01zvns2b_c1_fragmenstein', 'fragmenstein_placed'}

>  <ref_pdb>  (1494) 
175

>  <scratch_subdir>  (1494) 
/opt/xchem-fragalysis-2/maxwin/BulkDock/SCRATCH/511028/C21977-P195

>  <alias>  (1494) 
CNCc1cccc2c([C@@](O)(Nc3cc4c(cc3F)CNC4)C(=O)NCC(F)F)cc(Br)cc12

>  <HIPPO Compound ID>  (1494) 
26072

>  <fragmenstein_runtime>  (1494) 
3.585635

$$$$
CNCc1cccc2c([C@](O)(Nc3ccc4c(c3)CN(F)C4)C(=O)NCC(F)F)cc(Br)cc12
     RDKit          3D

 34 37  0  0  0  0  0  0  0  0999 V2000
   -3.7282    7.1425  -20.3754 C   0  0  0  0  0  0  0  0  0  0  0  0
   -3.8565    5.7557  -19.9534 N   0  0  0  0  0  0  0  0  0  0  0  0
   -5.1694    5.5039  -19.3416 C   0  0  0  0  0  0  0  0  0  0  0  0
   -5.2409    5.5966  -17.8171 C   0  0  0  0  0  0  0  0  0  0  0  0
   -4.1413    6.0098  -17.0594 C   0  0  0  0  0  0  0  0  0  0  0  0
   -4.2085    6.0294  -15.6717 C   0  0  0  0  0  0  0  0  0  0  0  0
   -5.3609    5.5976  -15.0083 C   0  0  0  0  0  0  0  0  0  0  0  0
   -6.4979    5.1369  -15.6985 C   0  0  0  0  0  0  0  0  0  0  0  0
   -7.6777    4.6182  -15.0639 C   0  0  0  0  0  0  0  0  0  0  0  0
   -7.8440    4.1898  -13.5686 C   0  0  2  0  0  0  0  0  0  0  0  0
   -9.2391    4.0853  -13.3499 O   0  0  0  0  0  0  0  0  0  0  0  0
   -7.4600    5.2175  -12.5899 N   0  0  0  0  0  0  0  0  0  0  0  0
   -7.8293    4.9942  -11.2233 C   0  0  0  0  0  0  0  0  0  0  0  0
   -7.6812    6.0786  -10.3352 C   0  0  0  0  0  0  0  0  0  0  0  0
   -7.9202    5.9456   -8.9593 C   0  0  0  0  0  0  0  0  0  0  0  0
   -8.2985    4.7096   -8.4676 C   0  0  0  0  0  0  0  0  0  0  0  0
   -8.4529    3.6282   -9.3157 C   0  0  0  0  0  0  0  0  0  0  0  0
   -8.2191    3.7514  -10.6775 C   0  0  0  0  0  0  0  0  0  0  0  0
   -8.8400    2.4150   -8.5286 C   0  0  0  0  0  0  0  0  0  0  0  0
   -9.0672    2.8859   -7.1388 N   0  0  0  0  0  0  0  0  0  0  0  0
  -10.4076    2.8313   -6.8125 F   0  0  0  0  0  0  0  0  0  0  0  0
   -8.5623    4.2735   -7.0652 C   0  0  0  0  0  0  0  0  0  0  0  0
   -6.9760    2.8154  -13.3001 C   0  0  0  0  0  0  0  0  0  0  0  0
   -7.4050    1.7586  -13.5482 O   0  0  0  0  0  0  0  0  0  0  0  0
   -5.6254    3.2254  -12.6618 N   0  0  0  0  0  0  0  0  0  0  0  0
   -4.5627    2.4138  -12.1093 C   0  0  0  0  0  0  0  0  0  0  0  0
   -3.3080    2.3228  -12.9737 C   0  0  0  0  0  0  0  0  0  0  0  0
   -2.9745    3.5455  -13.4660 F   0  0  0  0  0  0  0  0  0  0  0  0
   -3.4667    1.5080  -14.0399 F   0  0  0  0  0  0  0  0  0  0  0  0
   -8.7775    4.3239  -15.9080 C   0  0  0  0  0  0  0  0  0  0  0  0
   -8.7280    4.4524  -17.2793 C   0  0  0  0  0  0  0  0  0  0  0  0
  -10.2510    4.0989  -18.3209 Br  0  0  0  0  0  0  0  0  0  0  0  0
   -7.5635    4.8567  -17.8864 C   0  0  0  0  0  0  0  0  0  0  0  0
   -6.4314    5.2030  -17.1369 C   0  0  0  0  0  0  0  0  0  0  0  0
  1  2  1  0
  2  3  1  0
  3  4  1  0
  4  5  2  0
  5  6  1  0
  6  7  2  0
  7  8  1  0
  8  9  2  0
  9 10  1  0
 10 11  1  6
 10 12  1  0
 12 13  1  0
 13 14  2  0
 14 15  1  0
 15 16  2  0
 16 17  1  0
 17 18  2  0
 17 19  1  0
 19 20  1  0
 20 21  1  0
 20 22  1  0
 10 23  1  0
 23 24  2  0
 23 25  1  0
 25 26  1  0
 26 27  1  0
 27 28  1  0
 27 29  1  0
  9 30  1  0
 30 31  2  0
 31 32  1  0
 31 33  1  0
 33 34  2  0
 34  4  1  0
 34  8  1  0
 18 13  1  0
 22 16  1  0
M  END
>  <smiles>  (1495) 
C21980-P195

>  <fragmenstein_outcome>  (1495) 
acceptable

>  <inchikey>  (1495) 
BYEUVQXGGBNWLT-UHFFFAOYSA-N

>  <fragmenstein_mode>  (1495) 
expansion

>  <HIPPO Pose ID>  (1495) 
21880

>  <Energy>  (1495) 
162.339279

>  <fragmenstein_error>  (1495) 


>  <tags>  (1495) 
{'openbind_xx01zvns2b_c1_fragmenstein', 'fragmenstein_placed'}

>  <ref_pdb>  (1495) 
175

>  <scratch_subdir>  (1495) 
/opt/xchem-fragalysis-2/maxwin/BulkDock/SCRATCH/511028/C21980-P195

>  <alias>  (1495) 
CNCc1cccc2c([C@](O)(Nc3ccc4c(c3)CN(F)C4)C(=O)NCC(F)F)cc(Br)cc12

>  <HIPPO Compound ID>  (1495) 
21980

>  <fragmenstein_runtime>  (1495) 
6.375191

$$$$
O=C(NCC(F)F)[C@](O)(Nc1ccc2c(c1)CNC2)c1cc(Br)cc2c1CCCC21CNNC1
     RDKit          3D

 34 38  0  0  0  0  0  0  0  0999 V2000
   -6.9664    2.0642  -13.5339 O   0  0  0  0  0  0  0  0  0  0  0  0
   -6.4477    3.0815  -13.2813 C   0  0  0  0  0  0  0  0  0  0  0  0
   -5.0904    3.3736  -12.5718 N   0  0  0  0  0  0  0  0  0  0  0  0
   -4.0574    2.4723  -12.1174 C   0  0  0  0  0  0  0  0  0  0  0  0
   -3.2777    1.9215  -13.3004 C   0  0  0  0  0  0  0  0  0  0  0  0
   -2.7533    2.9651  -14.0056 F   0  0  0  0  0  0  0  0  0  0  0  0
   -2.2134    1.1924  -12.8890 F   0  0  0  0  0  0  0  0  0  0  0  0
   -7.0500    4.5399  -13.6675 C   0  0  2  0  0  0  0  0  0  0  0  0
   -6.2708    5.6145  -13.1516 O   0  0  0  0  0  0  0  0  0  0  0  0
   -8.3932    4.7593  -13.0736 N   0  0  0  0  0  0  0  0  0  0  0  0
   -8.5118    4.6504  -11.6702 C   0  0  0  0  0  0  0  0  0  0  0  0
   -8.4073    5.8063  -10.8624 C   0  0  0  0  0  0  0  0  0  0  0  0
   -8.3823    5.7245   -9.4666 C   0  0  0  0  0  0  0  0  0  0  0  0
   -8.4918    4.4763   -8.8838 C   0  0  0  0  0  0  0  0  0  0  0  0
   -8.6278    3.3345   -9.6604 C   0  0  0  0  0  0  0  0  0  0  0  0
   -8.6261    3.4017  -11.0478 C   0  0  0  0  0  0  0  0  0  0  0  0
   -8.7684    2.1410   -8.7754 C   0  0  0  0  0  0  0  0  0  0  0  0
   -8.7389    2.6523   -7.3786 N   0  0  0  0  0  0  0  0  0  0  0  0
   -8.5174    4.1089   -7.4408 C   0  0  0  0  0  0  0  0  0  0  0  0
   -7.0793    4.6961  -15.2230 C   0  0  0  0  0  0  0  0  0  0  0  0
   -8.2885    4.4026  -15.8908 C   0  0  0  0  0  0  0  0  0  0  0  0
   -8.3955    4.5125  -17.2723 C   0  0  0  0  0  0  0  0  0  0  0  0
  -10.0171    4.1154  -18.1509 Br  0  0  0  0  0  0  0  0  0  0  0  0
   -7.3214    4.9478  -18.0331 C   0  0  0  0  0  0  0  0  0  0  0  0
   -6.0785    5.2217  -17.4503 C   0  0  0  0  0  0  0  0  0  0  0  0
   -5.9445    5.0686  -16.0345 C   0  0  0  0  0  0  0  0  0  0  0  0
   -4.5556    5.1474  -15.4314 C   0  0  0  0  0  0  0  0  0  0  0  0
   -3.4893    5.8428  -16.2622 C   0  0  0  0  0  0  0  0  0  0  0  0
   -3.5645    5.4157  -17.7114 C   0  0  0  0  0  0  0  0  0  0  0  0
   -4.9391    5.7451  -18.3386 C   0  0  0  0  0  0  0  0  0  0  0  0
   -4.8824    5.2622  -19.8164 C   0  0  0  0  0  0  0  0  0  0  0  0
   -4.8327    6.4732  -20.6552 N   0  0  0  0  0  0  0  0  0  0  0  0
   -4.4436    7.5698  -19.8051 N   0  0  0  0  0  0  0  0  0  0  0  0
   -5.1197    7.2658  -18.5377 C   0  0  0  0  0  0  0  0  0  0  0  0
  1  2  2  0
  2  3  1  0
  3  4  1  0
  4  5  1  0
  5  6  1  0
  5  7  1  0
  2  8  1  0
  8  9  1  1
  8 10  1  0
 10 11  1  0
 11 12  2  0
 12 13  1  0
 13 14  2  0
 14 15  1  0
 15 16  2  0
 15 17  1  0
 17 18  1  0
 18 19  1  0
  8 20  1  0
 20 21  2  0
 21 22  1  0
 22 23  1  0
 22 24  2  0
 24 25  1  0
 25 26  2  0
 26 27  1  0
 27 28  1  0
 28 29  1  0
 29 30  1  0
 30 31  1  0
 31 32  1  0
 32 33  1  0
 33 34  1  0
 16 11  1  0
 26 20  1  0
 34 30  1  0
 19 14  1  0
 30 25  1  0
M  END
>  <smiles>  (1496) 
C21984-P195

>  <fragmenstein_outcome>  (1496) 
acceptable

>  <inchikey>  (1496) 
IYRXOKRTUHJJIM-UHFFFAOYSA-N

>  <fragmenstein_mode>  (1496) 
expansion

>  <HIPPO Pose ID>  (1496) 
21882

>  <Energy>  (1496) 
204.286456

>  <fragmenstein_error>  (1496) 


>  <tags>  (1496) 
{'openbind_xx01zvns2b_c1_fragmenstein', 'fragmenstein_placed'}

>  <ref_pdb>  (1496) 
175

>  <scratch_subdir>  (1496) 
/opt/xchem-fragalysis-2/maxwin/BulkDock/SCRATCH/511028/C21984-P195

>  <alias>  (1496) 
O=C(NCC(F)F)[C@](O)(Nc1ccc2c(c1)CNC2)c1cc(Br)cc2c1CCCC21CNNC1

>  <HIPPO Compound ID>  (1496) 
21984

>  <fragmenstein_runtime>  (1496) 
7.467424

$$$$
CCNc1cccc2c([C@@](O)(Nc3ccc4c(c3)CNC4)C(=O)NCC(F)F)cc(Br)cc12
     RDKit          3D

 33 36  0  0  0  0  0  0  0  0999 V2000
   -3.4349    5.0808  -21.0151 C   0  0  0  0  0  0  0  0  0  0  0  0
   -4.4574    6.1081  -20.5724 C   0  0  0  0  0  0  0  0  0  0  0  0
   -5.4411    5.5308  -19.6714 N   0  0  0  0  0  0  0  0  0  0  0  0
   -5.3071    5.5583  -18.2696 C   0  0  0  0  0  0  0  0  0  0  0  0
   -4.0816    5.8560  -17.6662 C   0  0  0  0  0  0  0  0  0  0  0  0
   -3.9295    5.8107  -16.2891 C   0  0  0  0  0  0  0  0  0  0  0  0
   -4.9984    5.4368  -15.4798 C   0  0  0  0  0  0  0  0  0  0  0  0
   -6.2660    5.0930  -15.9963 C   0  0  0  0  0  0  0  0  0  0  0  0
   -7.3944    4.6952  -15.1764 C   0  0  0  0  0  0  0  0  0  0  0  0
   -7.3047    4.5507  -13.6270 C   0  0  1  0  0  0  0  0  0  0  0  0
   -6.6650    5.7281  -13.1660 O   0  0  0  0  0  0  0  0  0  0  0  0
   -8.6430    4.5429  -12.9765 N   0  0  0  0  0  0  0  0  0  0  0  0
   -8.6138    4.4701  -11.5508 C   0  0  0  0  0  0  0  0  0  0  0  0
   -8.4259    5.6342  -10.7734 C   0  0  0  0  0  0  0  0  0  0  0  0
   -8.3815    5.5847   -9.3760 C   0  0  0  0  0  0  0  0  0  0  0  0
   -8.5563    4.3602   -8.7644 C   0  0  0  0  0  0  0  0  0  0  0  0
   -8.7310    3.2009   -9.5130 C   0  0  0  0  0  0  0  0  0  0  0  0
   -8.7465    3.2335  -10.8985 C   0  0  0  0  0  0  0  0  0  0  0  0
   -8.8816    2.0417   -8.5808 C   0  0  0  0  0  0  0  0  0  0  0  0
   -9.2002    2.6578   -7.2634 N   0  0  0  0  0  0  0  0  0  0  0  0
   -8.6160    4.0151   -7.3145 C   0  0  0  0  0  0  0  0  0  0  0  0
   -6.5507    3.1637  -13.2580 C   0  0  0  0  0  0  0  0  0  0  0  0
   -6.9388    2.1128  -13.5914 O   0  0  0  0  0  0  0  0  0  0  0  0
   -5.2623    3.5623  -12.4905 N   0  0  0  0  0  0  0  0  0  0  0  0
   -4.1407    2.7592  -12.0593 C   0  0  0  0  0  0  0  0  0  0  0  0
   -3.4503    2.1059  -13.2535 C   0  0  0  0  0  0  0  0  0  0  0  0
   -3.0303    3.0814  -14.1095 F   0  0  0  0  0  0  0  0  0  0  0  0
   -2.3285    1.4486  -12.8678 F   0  0  0  0  0  0  0  0  0  0  0  0
   -8.6093    4.3979  -15.8266 C   0  0  0  0  0  0  0  0  0  0  0  0
   -8.7086    4.4315  -17.2079 C   0  0  0  0  0  0  0  0  0  0  0  0
  -10.3350    4.0802  -18.0913 Br  0  0  0  0  0  0  0  0  0  0  0  0
   -7.6181    4.7723  -17.9854 C   0  0  0  0  0  0  0  0  0  0  0  0
   -6.3909    5.1467  -17.4246 C   0  0  0  0  0  0  0  0  0  0  0  0
  1  2  1  0
  2  3  1  0
  3  4  1  0
  4  5  2  0
  5  6  1  0
  6  7  2  0
  7  8  1  0
  8  9  2  0
  9 10  1  0
 10 11  1  1
 10 12  1  0
 12 13  1  0
 13 14  2  0
 14 15  1  0
 15 16  2  0
 16 17  1  0
 17 18  2  0
 17 19  1  0
 19 20  1  0
 20 21  1  0
 10 22  1  0
 22 23  2  0
 22 24  1  0
 24 25  1  0
 25 26  1  0
 26 27  1  0
 26 28  1  0
  9 29  1  0
 29 30  2  0
 30 31  1  0
 30 32  1  0
 32 33  2  0
 33  4  1  0
 33  8  1  0
 18 13  1  0
 21 16  1  0
M  END
>  <smiles>  (1497) 
C21988-P195

>  <fragmenstein_outcome>  (1497) 
acceptable

>  <inchikey>  (1497) 
YUNHXPOGOAYHDS-UHFFFAOYSA-N

>  <fragmenstein_mode>  (1497) 
expansion

>  <HIPPO Pose ID>  (1497) 
21884

>  <Energy>  (1497) 
142.076351

>  <fragmenstein_error>  (1497) 


>  <tags>  (1497) 
{'openbind_xx01zvns2b_c1_fragmenstein', 'fragmenstein_placed'}

>  <ref_pdb>  (1497) 
175

>  <scratch_subdir>  (1497) 
/opt/xchem-fragalysis-2/maxwin/BulkDock/SCRATCH/511028/C21988-P195

>  <alias>  (1497) 
CCNc1cccc2c([C@@](O)(Nc3ccc4c(c3)CNC4)C(=O)NCC(F)F)cc(Br)cc12

>  <HIPPO Compound ID>  (1497) 
21988

>  <fragmenstein_runtime>  (1497) 
5.703348

$$$$
CC(C)Nc1cccc2c([C@@](O)(Nc3ccc4c(c3)CNC4)C(=O)NCC(F)F)cc(Br)cc12
     RDKit          3D

 34 37  0  0  0  0  0  0  0  0999 V2000
   -3.3119    5.0398  -21.1999 C   0  0  0  0  0  0  0  0  0  0  0  0
   -4.3460    6.0318  -20.6743 C   0  0  0  0  0  0  0  0  0  0  0  0
   -5.0219    6.7156  -21.8645 C   0  0  0  0  0  0  0  0  0  0  0  0
   -5.3543    5.3337  -19.8653 N   0  0  0  0  0  0  0  0  0  0  0  0
   -5.2307    5.2539  -18.4560 C   0  0  0  0  0  0  0  0  0  0  0  0
   -3.9790    5.3991  -17.8474 C   0  0  0  0  0  0  0  0  0  0  0  0
   -3.8282    5.2916  -16.4761 C   0  0  0  0  0  0  0  0  0  0  0  0
   -4.9286    5.0148  -15.6735 C   0  0  0  0  0  0  0  0  0  0  0  0
   -6.2234    4.8117  -16.1895 C   0  0  0  0  0  0  0  0  0  0  0  0
   -7.3697    4.5101  -15.3529 C   0  0  0  0  0  0  0  0  0  0  0  0
   -7.2794    4.3955  -13.7979 C   0  0  1  0  0  0  0  0  0  0  0  0
   -6.5878    5.5630  -13.3776 O   0  0  0  0  0  0  0  0  0  0  0  0
   -8.6169    4.4760  -13.1340 N   0  0  0  0  0  0  0  0  0  0  0  0
   -8.5915    4.4420  -11.7055 C   0  0  0  0  0  0  0  0  0  0  0  0
   -8.3929    5.6256  -10.9611 C   0  0  0  0  0  0  0  0  0  0  0  0
   -8.3450    5.6148   -9.5614 C   0  0  0  0  0  0  0  0  0  0  0  0
   -8.5205    4.4089   -8.9129 C   0  0  0  0  0  0  0  0  0  0  0  0
   -8.7076    3.2311   -9.6279 C   0  0  0  0  0  0  0  0  0  0  0  0
   -8.7324    3.2268  -11.0146 C   0  0  0  0  0  0  0  0  0  0  0  0
   -8.8527    2.0966   -8.6644 C   0  0  0  0  0  0  0  0  0  0  0  0
   -9.1468    2.7476   -7.3572 N   0  0  0  0  0  0  0  0  0  0  0  0
   -8.5616    4.1020   -7.4536 C   0  0  0  0  0  0  0  0  0  0  0  0
   -6.5823    2.9967  -13.3527 C   0  0  0  0  0  0  0  0  0  0  0  0
   -7.0171    1.9435  -13.6111 O   0  0  0  0  0  0  0  0  0  0  0  0
   -5.3194    3.3913  -12.5425 N   0  0  0  0  0  0  0  0  0  0  0  0
   -4.2808    2.5696  -11.9652 C   0  0  0  0  0  0  0  0  0  0  0  0
   -3.1139    2.3193  -12.9179 C   0  0  0  0  0  0  0  0  0  0  0  0
   -2.7314    3.4880  -13.5032 F   0  0  0  0  0  0  0  0  0  0  0  0
   -3.4331    1.4787  -13.9254 F   0  0  0  0  0  0  0  0  0  0  0  0
   -8.6090    4.3172  -15.9908 C   0  0  0  0  0  0  0  0  0  0  0  0
   -8.7174    4.3663  -17.3730 C   0  0  0  0  0  0  0  0  0  0  0  0
  -10.3883    4.1348  -18.2078 Br  0  0  0  0  0  0  0  0  0  0  0  0
   -7.6131    4.6329  -18.1673 C   0  0  0  0  0  0  0  0  0  0  0  0
   -6.3507    4.9043  -17.6195 C   0  0  0  0  0  0  0  0  0  0  0  0
  1  2  1  0
  2  3  1  0
  2  4  1  0
  4  5  1  0
  5  6  2  0
  6  7  1  0
  7  8  2  0
  8  9  1  0
  9 10  2  0
 10 11  1  0
 11 12  1  1
 11 13  1  0
 13 14  1  0
 14 15  2  0
 15 16  1  0
 16 17  2  0
 17 18  1  0
 18 19  2  0
 18 20  1  0
 20 21  1  0
 21 22  1  0
 11 23  1  0
 23 24  2  0
 23 25  1  0
 25 26  1  0
 26 27  1  0
 27 28  1  0
 27 29  1  0
 10 30  1  0
 30 31  2  0
 31 32  1  0
 31 33  1  0
 33 34  2  0
 34  5  1  0
 34  9  1  0
 19 14  1  0
 22 17  1  0
M  END
>  <smiles>  (1498) 
C21873-P195

>  <fragmenstein_outcome>  (1498) 
acceptable

>  <inchikey>  (1498) 
QKNIIWHXRVKIEH-UHFFFAOYSA-N

>  <fragmenstein_mode>  (1498) 
expansion

>  <HIPPO Pose ID>  (1498) 
21885

>  <Energy>  (1498) 
145.638098

>  <fragmenstein_error>  (1498) 


>  <tags>  (1498) 
{'openbind_xx01zvns2b_c1_fragmenstein', 'fragmenstein_placed'}

>  <ref_pdb>  (1498) 
175

>  <scratch_subdir>  (1498) 
/opt/xchem-fragalysis-2/maxwin/BulkDock/SCRATCH/511028/C21873-P195

>  <alias>  (1498) 
CC(C)Nc1cccc2c([C@@](O)(Nc3ccc4c(c3)CNC4)C(=O)NCC(F)F)cc(Br)cc12

>  <HIPPO Compound ID>  (1498) 
29276

>  <fragmenstein_runtime>  (1498) 
6.883607

$$$$
CNCc1ccc2c([C@@](O)(Nc3ccc4c(c3)CNC4)C(=O)NCC(F)F)cc(Br)c3c2c1C=N3
     RDKit          3D

 35 39  0  0  0  0  0  0  0  0999 V2000
   -1.9783    7.9130  -19.9354 C   0  0  0  0  0  0  0  0  0  0  0  0
   -3.0383    7.5812  -18.9937 N   0  0  0  0  0  0  0  0  0  0  0  0
   -2.8654    6.2303  -18.4635 C   0  0  0  0  0  0  0  0  0  0  0  0
   -3.9524    5.8968  -17.4860 C   0  0  0  0  0  0  0  0  0  0  0  0
   -3.7666    6.0131  -16.0993 C   0  0  0  0  0  0  0  0  0  0  0  0
   -4.7913    5.6688  -15.1819 C   0  0  0  0  0  0  0  0  0  0  0  0
   -6.0789    5.2340  -15.6112 C   0  0  0  0  0  0  0  0  0  0  0  0
   -7.2568    4.8328  -14.8849 C   0  0  0  0  0  0  0  0  0  0  0  0
   -7.2196    4.6656  -13.3481 C   0  0  1  0  0  0  0  0  0  0  0  0
   -6.4701    5.7582  -12.8115 O   0  0  0  0  0  0  0  0  0  0  0  0
   -8.5639    4.7888  -12.7665 N   0  0  0  0  0  0  0  0  0  0  0  0
   -8.5834    4.6402  -11.3578 C   0  0  0  0  0  0  0  0  0  0  0  0
   -8.3705    5.7585  -10.5226 C   0  0  0  0  0  0  0  0  0  0  0  0
   -8.3275    5.6294   -9.1332 C   0  0  0  0  0  0  0  0  0  0  0  0
   -8.5067    4.3712   -8.5914 C   0  0  0  0  0  0  0  0  0  0  0  0
   -8.7045    3.2612   -9.4015 C   0  0  0  0  0  0  0  0  0  0  0  0
   -8.7321    3.3733  -10.7831 C   0  0  0  0  0  0  0  0  0  0  0  0
   -8.8786    2.0470   -8.5550 C   0  0  0  0  0  0  0  0  0  0  0  0
   -8.7951    2.5071   -7.1417 N   0  0  0  0  0  0  0  0  0  0  0  0
   -8.5609    3.9642   -7.1613 C   0  0  0  0  0  0  0  0  0  0  0  0
   -6.5447    3.2141  -13.0640 C   0  0  0  0  0  0  0  0  0  0  0  0
   -6.9815    2.1971  -13.4411 O   0  0  0  0  0  0  0  0  0  0  0  0
   -5.2171    3.5244  -12.3154 N   0  0  0  0  0  0  0  0  0  0  0  0
   -4.1152    2.6599  -11.9640 C   0  0  0  0  0  0  0  0  0  0  0  0
   -3.4936    2.0404  -13.2145 C   0  0  0  0  0  0  0  0  0  0  0  0
   -3.1130    3.0372  -14.0676 F   0  0  0  0  0  0  0  0  0  0  0  0
   -2.3528    1.3725  -12.9085 F   0  0  0  0  0  0  0  0  0  0  0  0
   -8.4226    4.4604  -15.6250 C   0  0  0  0  0  0  0  0  0  0  0  0
   -8.4337    4.4336  -17.0304 C   0  0  0  0  0  0  0  0  0  0  0  0
   -9.9966    3.9981  -17.9927 Br  0  0  0  0  0  0  0  0  0  0  0  0
   -7.2753    4.7504  -17.7047 C   0  0  0  0  0  0  0  0  0  0  0  0
   -6.1861    5.1607  -16.9943 C   0  0  0  0  0  0  0  0  0  0  0  0
   -5.1951    5.4545  -17.8873 C   0  0  0  0  0  0  0  0  0  0  0  0
   -5.7755    5.1490  -19.1879 C   0  0  0  0  0  0  0  0  0  0  0  0
   -6.9926    4.7141  -19.0794 N   0  0  0  0  0  0  0  0  0  0  0  0
  1  2  1  0
  2  3  1  0
  3  4  1  0
  4  5  2  0
  5  6  1  0
  6  7  2  0
  7  8  1  0
  8  9  1  0
  9 10  1  1
  9 11  1  0
 11 12  1  0
 12 13  2  0
 13 14  1  0
 14 15  2  0
 15 16  1  0
 16 17  2  0
 16 18  1  0
 18 19  1  0
 19 20  1  0
  9 21  1  0
 21 22  2  0
 21 23  1  0
 23 24  1  0
 24 25  1  0
 25 26  1  0
 25 27  1  0
  8 28  2  0
 28 29  1  0
 29 30  1  0
 29 31  2  0
 31 32  1  0
 32 33  2  0
 33 34  1  0
 34 35  2  0
 33  4  1  0
 32  7  1  0
 17 12  1  0
 35 31  1  0
 20 15  1  0
M  END
>  <smiles>  (1499) 
C21989-P195

>  <fragmenstein_outcome>  (1499) 
acceptable

>  <inchikey>  (1499) 
KUXWLOLVMXOAOV-UHFFFAOYSA-N

>  <fragmenstein_mode>  (1499) 
expansion

>  <HIPPO Pose ID>  (1499) 
21886

>  <Energy>  (1499) 
170.986855

>  <fragmenstein_error>  (1499) 


>  <tags>  (1499) 
{'openbind_xx01zvns2b_c1_fragmenstein', 'fragmenstein_placed'}

>  <ref_pdb>  (1499) 
175

>  <scratch_subdir>  (1499) 
/opt/xchem-fragalysis-2/maxwin/BulkDock/SCRATCH/511028/C21989-P195

>  <alias>  (1499) 
CNCc1ccc2c([C@@](O)(Nc3ccc4c(c3)CNC4)C(=O)NCC(F)F)cc(Br)c3c2c1C=N3

>  <HIPPO Compound ID>  (1499) 
21989

>  <fragmenstein_runtime>  (1499) 
5.721327

$$$$
O=C(NCC(F)F)[C@](O)(Nc1ccc2c(c1)CNC2)c1cc(Br)cc2c1CCC[C@@]21COCN1
     RDKit          3D

 34 38  0  0  0  0  0  0  0  0999 V2000
   -7.0508    2.0573  -13.5062 O   0  0  0  0  0  0  0  0  0  0  0  0
   -6.5483    3.0819  -13.2497 C   0  0  0  0  0  0  0  0  0  0  0  0
   -5.1724    3.3931  -12.5913 N   0  0  0  0  0  0  0  0  0  0  0  0
   -4.0976    2.5096  -12.2032 C   0  0  0  0  0  0  0  0  0  0  0  0
   -3.3772    1.9651  -13.4252 C   0  0  0  0  0  0  0  0  0  0  0  0
   -2.9970    3.0103  -14.2157 F   0  0  0  0  0  0  0  0  0  0  0  0
   -2.2310    1.3343  -13.0716 F   0  0  0  0  0  0  0  0  0  0  0  0
   -7.2472    4.5245  -13.5214 C   0  0  2  0  0  0  0  0  0  0  0  0
   -6.5066    5.5639  -12.8930 O   0  0  0  0  0  0  0  0  0  0  0  0
   -8.6109    4.5082  -12.9228 N   0  0  0  0  0  0  0  0  0  0  0  0
   -8.6712    4.4558  -11.5069 C   0  0  0  0  0  0  0  0  0  0  0  0
   -8.5467    5.6452  -10.7554 C   0  0  0  0  0  0  0  0  0  0  0  0
   -8.4698    5.6222   -9.3609 C   0  0  0  0  0  0  0  0  0  0  0  0
   -8.5605    4.3979   -8.7256 C   0  0  0  0  0  0  0  0  0  0  0  0
   -8.7149    3.2236   -9.4495 C   0  0  0  0  0  0  0  0  0  0  0  0
   -8.7534    3.2302  -10.8349 C   0  0  0  0  0  0  0  0  0  0  0  0
   -8.8374    2.0674   -8.5163 C   0  0  0  0  0  0  0  0  0  0  0  0
   -8.7431    2.6307   -7.1432 N   0  0  0  0  0  0  0  0  0  0  0  0
   -8.5629    4.0905   -7.2691 C   0  0  0  0  0  0  0  0  0  0  0  0
   -7.2887    4.8032  -15.0610 C   0  0  0  0  0  0  0  0  0  0  0  0
   -8.4348    4.4027  -15.7852 C   0  0  0  0  0  0  0  0  0  0  0  0
   -8.5090    4.5304  -17.1674 C   0  0  0  0  0  0  0  0  0  0  0  0
  -10.0732    4.0406  -18.1045 Br  0  0  0  0  0  0  0  0  0  0  0  0
   -7.4429    5.0446  -17.8848 C   0  0  0  0  0  0  0  0  0  0  0  0
   -6.2640    5.4523  -17.2458 C   0  0  0  0  0  0  0  0  0  0  0  0
   -6.2029    5.3813  -15.8174 C   0  0  0  0  0  0  0  0  0  0  0  0
   -4.9621    5.9053  -15.1176 C   0  0  0  0  0  0  0  0  0  0  0  0
   -4.0089    6.7261  -15.9726 C   0  0  0  0  0  0  0  0  0  0  0  0
   -3.7934    6.0477  -17.3052 C   0  0  0  0  0  0  0  0  0  0  0  0
   -5.1106    5.9660  -18.1141 C   0  0  1  0  0  0  0  0  0  0  0  0
   -4.8170    5.1247  -19.3699 C   0  0  0  0  0  0  0  0  0  0  0  0
   -4.1542    6.0506  -20.2399 O   0  0  0  0  0  0  0  0  0  0  0  0
   -4.8753    7.2588  -20.0510 C   0  0  0  0  0  0  0  0  0  0  0  0
   -5.4292    7.3008  -18.6969 N   0  0  0  0  0  0  0  0  0  0  0  0
  1  2  2  0
  2  3  1  0
  3  4  1  0
  4  5  1  0
  5  6  1  0
  5  7  1  0
  2  8  1  0
  8  9  1  1
  8 10  1  0
 10 11  1  0
 11 12  2  0
 12 13  1  0
 13 14  2  0
 14 15  1  0
 15 16  2  0
 15 17  1  0
 17 18  1  0
 18 19  1  0
  8 20  1  0
 20 21  2  0
 21 22  1  0
 22 23  1  0
 22 24  2  0
 24 25  1  0
 25 26  2  0
 26 27  1  0
 27 28  1  0
 28 29  1  0
 30 29  1  1
 30 31  1  0
 31 32  1  0
 32 33  1  0
 33 34  1  0
 16 11  1  0
 26 20  1  0
 34 30  1  0
 19 14  1  0
 30 25  1  0
M  END
>  <smiles>  (1500) 
C21995-P195

>  <fragmenstein_outcome>  (1500) 
acceptable

>  <inchikey>  (1500) 
NJQLXDPBOWHNGA-UHFFFAOYSA-N

>  <fragmenstein_mode>  (1500) 
expansion

>  <HIPPO Pose ID>  (1500) 
21890

>  <Energy>  (1500) 
144.623988

>  <fragmenstein_error>  (1500) 


>  <tags>  (1500) 
{'openbind_xx01zvns2b_c1_fragmenstein', 'fragmenstein_placed'}

>  <ref_pdb>  (1500) 
175

>  <scratch_subdir>  (1500) 
/opt/xchem-fragalysis-2/maxwin/BulkDock/SCRATCH/511028/C21995-P195

>  <alias>  (1500) 
O=C(NCC(F)F)[C@](O)(Nc1ccc2c(c1)CNC2)c1cc(Br)cc2c1CCC[C@@]21COCN1

>  <HIPPO Compound ID>  (1500) 
20213

>  <fragmenstein_runtime>  (1500) 
5.345734

$$$$
NC[C@H]1CC[C@]2(CC1)NCc1cc(C(=O)Nc3ccc4c(c3)CNC4)c(Cl)c3scc2c13
     RDKit          3D

 32 37  0  0  0  0  0  0  0  0999 V2000
   -1.6788    6.8803  -21.9113 N   0  0  0  0  0  0  0  0  0  0  0  0
   -2.9508    7.0498  -22.5999 C   0  0  0  0  0  0  0  0  0  0  0  0
   -4.1973    6.5915  -21.8223 C   0  0  1  0  0  0  0  0  0  0  0  0
   -4.2266    5.0690  -21.6327 C   0  0  0  0  0  0  0  0  0  0  0  0
   -5.4538    4.6489  -20.8283 C   0  0  0  0  0  0  0  0  0  0  0  0
   -5.4981    5.3138  -19.4308 C   0  0  2  0  0  0  0  0  0  0  0  0
   -5.5767    6.8393  -19.6854 C   0  0  0  0  0  0  0  0  0  0  0  0
   -4.3814    7.3528  -20.4971 C   0  0  0  0  0  0  0  0  0  0  0  0
   -4.2442    4.9845  -18.6700 N   0  0  0  0  0  0  0  0  0  0  0  0
   -4.1552    5.5643  -17.3148 C   0  0  0  0  0  0  0  0  0  0  0  0
   -5.3721    5.2663  -16.4868 C   0  0  0  0  0  0  0  0  0  0  0  0
   -5.3957    5.4073  -15.1002 C   0  0  0  0  0  0  0  0  0  0  0  0
   -6.5695    5.1508  -14.3977 C   0  0  0  0  0  0  0  0  0  0  0  0
   -6.5620    5.4534  -12.9367 C   0  0  0  0  0  0  0  0  0  0  0  0
   -6.1232    6.4805  -12.5926 O   0  0  0  0  0  0  0  0  0  0  0  0
   -7.2145    4.3154  -12.1150 N   0  0  0  0  0  0  0  0  0  0  0  0
   -7.5368    4.2470  -10.7642 C   0  0  0  0  0  0  0  0  0  0  0  0
   -7.4011    5.3671   -9.9307 C   0  0  0  0  0  0  0  0  0  0  0  0
   -7.7749    5.3060   -8.5860 C   0  0  0  0  0  0  0  0  0  0  0  0
   -8.2596    4.1079   -8.0977 C   0  0  0  0  0  0  0  0  0  0  0  0
   -8.4005    2.9978   -8.9230 C   0  0  0  0  0  0  0  0  0  0  0  0
   -8.0621    3.0513  -10.2640 C   0  0  0  0  0  0  0  0  0  0  0  0
   -8.9547    1.8624   -8.1334 C   0  0  0  0  0  0  0  0  0  0  0  0
   -8.8948    2.2942   -6.7126 N   0  0  0  0  0  0  0  0  0  0  0  0
   -8.7223    3.7627   -6.7257 C   0  0  0  0  0  0  0  0  0  0  0  0
   -7.7378    4.7461  -15.0723 C   0  0  0  0  0  0  0  0  0  0  0  0
   -9.2203    4.6417  -14.2305 Cl  0  0  0  0  0  0  0  0  0  0  0  0
   -7.7006    4.5603  -16.4690 C   0  0  0  0  0  0  0  0  0  0  0  0
   -8.8956    4.0009  -17.5871 S   0  0  0  0  0  0  0  0  0  0  0  0
   -7.9100    4.3454  -18.9492 C   0  0  0  0  0  0  0  0  0  0  0  0
   -6.6706    4.8265  -18.5886 C   0  0  0  0  0  0  0  0  0  0  0  0
   -6.5430    4.8735  -17.1632 C   0  0  0  0  0  0  0  0  0  0  0  0
  1  2  1  0
  3  2  1  1
  3  4  1  0
  4  5  1  0
  6  5  1  6
  6  7  1  0
  7  8  1  0
  6  9  1  0
  9 10  1  0
 10 11  1  0
 11 12  2  0
 12 13  1  0
 13 14  1  0
 14 15  2  0
 14 16  1  0
 16 17  1  0
 17 18  2  0
 18 19  1  0
 19 20  2  0
 20 21  1  0
 21 22  2  0
 21 23  1  0
 23 24  1  0
 24 25  1  0
 13 26  2  0
 26 27  1  0
 26 28  1  0
 28 29  1  0
 29 30  1  0
 30 31  2  0
 31 32  1  0
  8  3  1  0
 32 11  1  0
 31  6  1  0
 22 17  1  0
 32 28  2  0
 25 20  1  0
M  END
>  <smiles>  (1501) 
C22196-P197

>  <fragmenstein_outcome>  (1501) 
acceptable

>  <inchikey>  (1501) 
VQRGPKHBDZKUDH-UHFFFAOYSA-N

>  <fragmenstein_mode>  (1501) 
expansion

>  <HIPPO Pose ID>  (1501) 
21988

>  <Energy>  (1501) 
61.074614

>  <fragmenstein_error>  (1501) 


>  <tags>  (1501) 
{'openbind_xx01zvns2b_c1_fragmenstein', 'fragmenstein_placed'}

>  <ref_pdb>  (1501) 
175

>  <scratch_subdir>  (1501) 
/opt/xchem-fragalysis-2/maxwin/BulkDock/SCRATCH/511028/C22196-P197

>  <alias>  (1501) 
NC[C@H]1CC[C@]2(CC1)NCc1cc(C(=O)Nc3ccc4c(c3)CNC4)c(Cl)c3scc2c13

>  <HIPPO Compound ID>  (1501) 
22196

>  <fragmenstein_runtime>  (1501) 
5.181274

$$$$
NC[C@H]1CC[C@@]2(CC1)NNc1cc(C(=O)Nc3cc(Br)c4c(c3)CNC4)cc3scc2c13
     RDKit          3D

 32 37  0  0  0  0  0  0  0  0999 V2000
   -1.8704    7.7273  -22.0024 N   0  0  0  0  0  0  0  0  0  0  0  0
   -3.0534    7.0707  -22.5470 C   0  0  0  0  0  0  0  0  0  0  0  0
   -3.8592    6.3659  -21.4511 C   0  0  2  0  0  0  0  0  0  0  0  0
   -4.9240    5.4507  -22.0400 C   0  0  0  0  0  0  0  0  0  0  0  0
   -5.5470    4.5717  -20.9517 C   0  0  0  0  0  0  0  0  0  0  0  0
   -5.7409    5.2519  -19.5589 C   0  0  2  0  0  0  0  0  0  0  0  0
   -5.7859    6.7814  -19.7806 C   0  0  0  0  0  0  0  0  0  0  0  0
   -4.5173    7.3434  -20.4552 C   0  0  0  0  0  0  0  0  0  0  0  0
   -4.5617    4.9447  -18.6561 N   0  0  0  0  0  0  0  0  0  0  0  0
   -4.6722    5.5537  -17.3274 N   0  0  0  0  0  0  0  0  0  0  0  0
   -5.8630    5.2160  -16.6376 C   0  0  0  0  0  0  0  0  0  0  0  0
   -6.0462    5.4311  -15.2774 C   0  0  0  0  0  0  0  0  0  0  0  0
   -7.2423    5.0510  -14.6603 C   0  0  0  0  0  0  0  0  0  0  0  0
   -7.4065    5.4184  -13.2313 C   0  0  0  0  0  0  0  0  0  0  0  0
   -7.1666    6.5211  -12.9299 O   0  0  0  0  0  0  0  0  0  0  0  0
   -7.8857    4.2262  -12.3715 N   0  0  0  0  0  0  0  0  0  0  0  0
   -8.0723    4.1203  -10.9931 C   0  0  0  0  0  0  0  0  0  0  0  0
   -7.8410    5.2235  -10.1539 C   0  0  0  0  0  0  0  0  0  0  0  0
   -8.0209    5.1192   -8.7721 C   0  0  0  0  0  0  0  0  0  0  0  0
   -7.6511    6.6025   -7.6651 Br  0  0  0  0  0  0  0  0  0  0  0  0
   -8.4500    3.9175   -8.2464 C   0  0  0  0  0  0  0  0  0  0  0  0
   -8.6475    2.8143   -9.0751 C   0  0  0  0  0  0  0  0  0  0  0  0
   -8.4692    2.8962  -10.4485 C   0  0  0  0  0  0  0  0  0  0  0  0
   -8.9985    1.6345   -8.2299 C   0  0  0  0  0  0  0  0  0  0  0  0
   -9.4229    2.2087   -6.9296 N   0  0  0  0  0  0  0  0  0  0  0  0
   -8.7473    3.5241   -6.8385 C   0  0  0  0  0  0  0  0  0  0  0  0
   -8.2865    4.4548  -15.3831 C   0  0  0  0  0  0  0  0  0  0  0  0
   -8.1265    4.3489  -16.7748 C   0  0  0  0  0  0  0  0  0  0  0  0
   -9.2252    3.7847  -17.9675 S   0  0  0  0  0  0  0  0  0  0  0  0
   -8.1706    4.2044  -19.2531 C   0  0  0  0  0  0  0  0  0  0  0  0
   -6.9706    4.7167  -18.8171 C   0  0  0  0  0  0  0  0  0  0  0  0
   -6.9528    4.7555  -17.3869 C   0  0  0  0  0  0  0  0  0  0  0  0
  1  2  1  0
  3  2  1  6
  3  4  1  0
  4  5  1  0
  6  5  1  6
  6  7  1  0
  7  8  1  0
  6  9  1  0
  9 10  1  0
 10 11  1  0
 11 12  2  0
 12 13  1  0
 13 14  1  0
 14 15  2  0
 14 16  1  0
 16 17  1  0
 17 18  2  0
 18 19  1  0
 19 20  1  0
 19 21  2  0
 21 22  1  0
 22 23  2  0
 22 24  1  0
 24 25  1  0
 25 26  1  0
 13 27  2  0
 27 28  1  0
 28 29  1  0
 29 30  1  0
 30 31  2  0
 31 32  1  0
  8  3  1  0
 32 11  1  0
 31  6  1  0
 23 17  1  0
 32 28  2  0
 26 21  1  0
M  END
>  <smiles>  (1502) 
C22202-P197

>  <fragmenstein_outcome>  (1502) 
acceptable

>  <inchikey>  (1502) 
GSZLNZYTJIYVAU-UHFFFAOYSA-N

>  <fragmenstein_mode>  (1502) 
expansion

>  <HIPPO Pose ID>  (1502) 
21992

>  <Energy>  (1502) 
109.280482

>  <fragmenstein_error>  (1502) 


>  <tags>  (1502) 
{'openbind_xx01zvns2b_c1_fragmenstein', 'fragmenstein_placed'}

>  <ref_pdb>  (1502) 
175

>  <scratch_subdir>  (1502) 
/opt/xchem-fragalysis-2/maxwin/BulkDock/SCRATCH/511028/C22202-P197

>  <alias>  (1502) 
NC[C@H]1CC[C@@]2(CC1)NNc1cc(C(=O)Nc3cc(Br)c4c(c3)CNC4)cc3scc2c13

>  <HIPPO Compound ID>  (1502) 
24278

>  <fragmenstein_runtime>  (1502) 
7.378033

$$$$
NC[C@H]1CC[C@]2(CC1)NCc1cc(C(=O)Nc3cc(F)c4c(c3)CNC4=O)c(Cl)c3scc2c13
     RDKit          3D

 34 39  0  0  0  0  0  0  0  0999 V2000
   -1.8126    6.7582  -22.0658 N   0  0  0  0  0  0  0  0  0  0  0  0
   -3.0806    7.1022  -22.6877 C   0  0  0  0  0  0  0  0  0  0  0  0
   -4.3181    6.6182  -21.9105 C   0  0  1  0  0  0  0  0  0  0  0  0
   -4.3157    5.0947  -21.7170 C   0  0  0  0  0  0  0  0  0  0  0  0
   -5.5170    4.6408  -20.8900 C   0  0  0  0  0  0  0  0  0  0  0  0
   -5.5764    5.3280  -19.5050 C   0  0  2  0  0  0  0  0  0  0  0  0
   -5.6835    6.8472  -19.7674 C   0  0  0  0  0  0  0  0  0  0  0  0
   -4.5030    7.3797  -20.5861 C   0  0  0  0  0  0  0  0  0  0  0  0
   -4.3079    5.0378  -18.7633 N   0  0  0  0  0  0  0  0  0  0  0  0
   -4.2099    5.6199  -17.4080 C   0  0  0  0  0  0  0  0  0  0  0  0
   -5.3983    5.2722  -16.5512 C   0  0  0  0  0  0  0  0  0  0  0  0
   -5.4002    5.3795  -15.1565 C   0  0  0  0  0  0  0  0  0  0  0  0
   -6.5562    5.0935  -14.4259 C   0  0  0  0  0  0  0  0  0  0  0  0
   -6.5173    5.3585  -12.9480 C   0  0  0  0  0  0  0  0  0  0  0  0
   -5.9904    6.3418  -12.5955 O   0  0  0  0  0  0  0  0  0  0  0  0
   -7.2347    4.2515  -12.1278 N   0  0  0  0  0  0  0  0  0  0  0  0
   -7.5240    4.1773  -10.7638 C   0  0  0  0  0  0  0  0  0  0  0  0
   -7.2791    5.2694   -9.9161 C   0  0  0  0  0  0  0  0  0  0  0  0
   -7.5862    5.1927   -8.5573 C   0  0  0  0  0  0  0  0  0  0  0  0
   -7.3302    6.2383   -7.7611 F   0  0  0  0  0  0  0  0  0  0  0  0
   -8.1239    4.0259   -8.0668 C   0  0  0  0  0  0  0  0  0  0  0  0
   -8.3791    2.9326   -8.8937 C   0  0  0  0  0  0  0  0  0  0  0  0
   -8.1006    3.0006  -10.2539 C   0  0  0  0  0  0  0  0  0  0  0  0
   -8.9028    1.7982   -8.0756 C   0  0  0  0  0  0  0  0  0  0  0  0
   -8.9852    2.3737   -6.7516 N   0  0  0  0  0  0  0  0  0  0  0  0
   -8.4791    3.6555   -6.6933 C   0  0  0  0  0  0  0  0  0  0  0  0
   -8.3343    4.3339   -5.6946 O   0  0  0  0  0  0  0  0  0  0  0  0
   -7.7325    4.7056  -15.0947 C   0  0  0  0  0  0  0  0  0  0  0  0
   -9.2100    4.6129  -14.2413 Cl  0  0  0  0  0  0  0  0  0  0  0  0
   -7.7154    4.5366  -16.4968 C   0  0  0  0  0  0  0  0  0  0  0  0
   -8.9279    3.9833  -17.5996 S   0  0  0  0  0  0  0  0  0  0  0  0
   -7.9667    4.3359  -18.9763 C   0  0  0  0  0  0  0  0  0  0  0  0
   -6.7248    4.8246  -18.6368 C   0  0  0  0  0  0  0  0  0  0  0  0
   -6.5737    4.8662  -17.2107 C   0  0  0  0  0  0  0  0  0  0  0  0
  1  2  1  0
  3  2  1  1
  3  4  1  0
  4  5  1  0
  6  5  1  6
  6  7  1  0
  7  8  1  0
  6  9  1  0
  9 10  1  0
 10 11  1  0
 11 12  2  0
 12 13  1  0
 13 14  1  0
 14 15  2  0
 14 16  1  0
 16 17  1  0
 17 18  2  0
 18 19  1  0
 19 20  1  0
 19 21  2  0
 21 22  1  0
 22 23  2  0
 22 24  1  0
 24 25  1  0
 25 26  1  0
 26 27  2  0
 13 28  2  0
 28 29  1  0
 28 30  1  0
 30 31  1  0
 31 32  1  0
 32 33  2  0
 33 34  1  0
  8  3  1  0
 34 11  1  0
 33  6  1  0
 23 17  1  0
 34 30  2  0
 26 21  1  0
M  END
>  <smiles>  (1503) 
C22217-P197

>  <fragmenstein_outcome>  (1503) 
acceptable

>  <inchikey>  (1503) 
SCKWYYOWCKKFDF-UHFFFAOYSA-N

>  <fragmenstein_mode>  (1503) 
expansion

>  <HIPPO Pose ID>  (1503) 
21998

>  <Energy>  (1503) 
38.731143

>  <fragmenstein_error>  (1503) 


>  <tags>  (1503) 
{'openbind_xx01zvns2b_c1_fragmenstein', 'fragmenstein_placed'}

>  <ref_pdb>  (1503) 
175

>  <scratch_subdir>  (1503) 
/opt/xchem-fragalysis-2/maxwin/BulkDock/SCRATCH/511028/C22217-P197

>  <alias>  (1503) 
NC[C@H]1CC[C@]2(CC1)NCc1cc(C(=O)Nc3cc(F)c4c(c3)CNC4=O)c(Cl)c3scc2c13

>  <HIPPO Compound ID>  (1503) 
22217

>  <fragmenstein_runtime>  (1503) 
11.475365

$$$$
NC[C@H]1CC[C@]2(CC1)NCc1cc(C(=O)Nc3ccc4c(c3)CNC4)cc3sc(F)c2c13
     RDKit          3D

 32 37  0  0  0  0  0  0  0  0999 V2000
   -1.7016    6.9463  -21.7681 N   0  0  0  0  0  0  0  0  0  0  0  0
   -2.9452    7.0903  -22.5115 C   0  0  0  0  0  0  0  0  0  0  0  0
   -4.2127    6.5889  -21.7975 C   0  0  1  0  0  0  0  0  0  0  0  0
   -4.1896    5.0701  -21.5874 C   0  0  0  0  0  0  0  0  0  0  0  0
   -5.4581    4.6144  -20.8736 C   0  0  0  0  0  0  0  0  0  0  0  0
   -5.6382    5.2820  -19.4858 C   0  0  2  0  0  0  0  0  0  0  0  0
   -5.7420    6.8020  -19.7588 C   0  0  0  0  0  0  0  0  0  0  0  0
   -4.5076    7.3499  -20.4917 C   0  0  0  0  0  0  0  0  0  0  0  0
   -4.4392    5.0164  -18.6231 N   0  0  0  0  0  0  0  0  0  0  0  0
   -4.4932    5.6230  -17.2667 C   0  0  0  0  0  0  0  0  0  0  0  0
   -5.7603    5.2861  -16.5324 C   0  0  0  0  0  0  0  0  0  0  0  0
   -5.9460    5.4585  -15.1633 C   0  0  0  0  0  0  0  0  0  0  0  0
   -7.1572    5.0883  -14.5674 C   0  0  0  0  0  0  0  0  0  0  0  0
   -7.3409    5.4536  -13.1393 C   0  0  0  0  0  0  0  0  0  0  0  0
   -7.0503    6.5385  -12.8195 O   0  0  0  0  0  0  0  0  0  0  0  0
   -7.8931    4.2776  -12.3042 N   0  0  0  0  0  0  0  0  0  0  0  0
   -8.1069    4.1637  -10.9311 C   0  0  0  0  0  0  0  0  0  0  0  0
   -7.9734    5.2852  -10.0933 C   0  0  0  0  0  0  0  0  0  0  0  0
   -8.1817    5.1842   -8.7150 C   0  0  0  0  0  0  0  0  0  0  0  0
   -8.5297    3.9511   -8.2006 C   0  0  0  0  0  0  0  0  0  0  0  0
   -8.6503    2.8342   -9.0244 C   0  0  0  0  0  0  0  0  0  0  0  0
   -8.4465    2.9200  -10.3926 C   0  0  0  0  0  0  0  0  0  0  0  0
   -8.9762    1.6473   -8.1791 C   0  0  0  0  0  0  0  0  0  0  0  0
   -9.4453    2.2145   -6.8878 N   0  0  0  0  0  0  0  0  0  0  0  0
   -8.8176    3.5519   -6.7929 C   0  0  0  0  0  0  0  0  0  0  0  0
   -8.1973    4.5007  -15.3084 C   0  0  0  0  0  0  0  0  0  0  0  0
   -8.0144    4.3817  -16.6964 C   0  0  0  0  0  0  0  0  0  0  0  0
   -9.0704    3.7567  -17.9061 S   0  0  0  0  0  0  0  0  0  0  0  0
   -7.9706    4.1154  -19.1444 C   0  0  0  0  0  0  0  0  0  0  0  0
   -8.1664    3.7880  -20.4240 F   0  0  0  0  0  0  0  0  0  0  0  0
   -6.8332    4.7424  -18.7204 C   0  0  0  0  0  0  0  0  0  0  0  0
   -6.8394    4.8145  -17.2939 C   0  0  0  0  0  0  0  0  0  0  0  0
  1  2  1  0
  3  2  1  1
  3  4  1  0
  4  5  1  0
  6  5  1  6
  6  7  1  0
  7  8  1  0
  6  9  1  0
  9 10  1  0
 10 11  1  0
 11 12  2  0
 12 13  1  0
 13 14  1  0
 14 15  2  0
 14 16  1  0
 16 17  1  0
 17 18  2  0
 18 19  1  0
 19 20  2  0
 20 21  1  0
 21 22  2  0
 21 23  1  0
 23 24  1  0
 24 25  1  0
 13 26  2  0
 26 27  1  0
 27 28  1  0
 28 29  1  0
 29 30  1  0
 29 31  2  0
 31 32  1  0
  8  3  1  0
 32 11  1  0
 31  6  1  0
 22 17  1  0
 32 27  2  0
 25 20  1  0
M  END
>  <smiles>  (1504) 
C22241-P197

>  <fragmenstein_outcome>  (1504) 
acceptable

>  <inchikey>  (1504) 
WIDXKILAEBCWPM-UHFFFAOYSA-N

>  <fragmenstein_mode>  (1504) 
expansion

>  <HIPPO Pose ID>  (1504) 
22020

>  <Energy>  (1504) 
51.440562

>  <fragmenstein_error>  (1504) 


>  <tags>  (1504) 
{'openbind_xx01zvns2b_c1_fragmenstein', 'fragmenstein_placed'}

>  <ref_pdb>  (1504) 
175

>  <scratch_subdir>  (1504) 
/opt/xchem-fragalysis-2/maxwin/BulkDock/SCRATCH/511028/C22241-P197

>  <alias>  (1504) 
NC[C@H]1CC[C@]2(CC1)NCc1cc(C(=O)Nc3ccc4c(c3)CNC4)cc3sc(F)c2c13

>  <HIPPO Compound ID>  (1504) 
20402

>  <fragmenstein_runtime>  (1504) 
3.658022

$$$$
O=C(NCCCF)[C@@](O)(Nc1ccc2c(c1)CNC2)c1cc(Cl)cc2c3c([nH]c12)CCC3
     RDKit          3D

 32 36  0  0  0  0  0  0  0  0999 V2000
   -7.2578    7.2870  -13.5258 O   0  0  0  0  0  0  0  0  0  0  0  0
   -6.5544    6.3761  -13.3100 C   0  0  0  0  0  0  0  0  0  0  0  0
   -5.1451    6.3237  -12.6432 N   0  0  0  0  0  0  0  0  0  0  0  0
   -4.2832    7.3855  -12.1973 C   0  0  0  0  0  0  0  0  0  0  0  0
   -4.8104    8.0229  -10.9191 C   0  0  0  0  0  0  0  0  0  0  0  0
   -3.8382    9.0546  -10.3824 C   0  0  0  0  0  0  0  0  0  0  0  0
   -3.6347   10.0146  -11.3222 F   0  0  0  0  0  0  0  0  0  0  0  0
   -6.9363    4.8519  -13.6402 C   0  0  1  0  0  0  0  0  0  0  0  0
   -5.8903    3.9676  -13.2712 O   0  0  0  0  0  0  0  0  0  0  0  0
   -8.1539    4.4550  -12.9135 N   0  0  0  0  0  0  0  0  0  0  0  0
   -8.1297    4.3401  -11.5094 C   0  0  0  0  0  0  0  0  0  0  0  0
   -7.9461    5.4532  -10.6648 C   0  0  0  0  0  0  0  0  0  0  0  0
   -8.0370    5.3401   -9.2736 C   0  0  0  0  0  0  0  0  0  0  0  0
   -8.3381    4.1048   -8.7358 C   0  0  0  0  0  0  0  0  0  0  0  0
   -8.5298    3.0001   -9.5516 C   0  0  0  0  0  0  0  0  0  0  0  0
   -8.4216    3.0967  -10.9325 C   0  0  0  0  0  0  0  0  0  0  0  0
   -8.8966    1.8220   -8.7150 C   0  0  0  0  0  0  0  0  0  0  0  0
   -8.9135    2.2928   -7.3029 N   0  0  0  0  0  0  0  0  0  0  0  0
   -8.5706    3.7295   -7.3147 C   0  0  0  0  0  0  0  0  0  0  0  0
   -7.1336    4.7143  -15.1557 C   0  0  0  0  0  0  0  0  0  0  0  0
   -8.3488    4.2696  -15.7318 C   0  0  0  0  0  0  0  0  0  0  0  0
   -8.5281    4.1814  -17.1131 C   0  0  0  0  0  0  0  0  0  0  0  0
  -10.0525    3.7587  -17.7562 Cl  0  0  0  0  0  0  0  0  0  0  0  0
   -7.5199    4.5103  -18.0074 C   0  0  0  0  0  0  0  0  0  0  0  0
   -6.2969    4.9382  -17.4902 C   0  0  0  0  0  0  0  0  0  0  0  0
   -5.0908    5.3341  -18.0772 C   0  0  0  0  0  0  0  0  0  0  0  0
   -4.2014    5.5912  -17.0795 C   0  0  0  0  0  0  0  0  0  0  0  0
   -4.7967    5.4181  -15.8795 N   0  0  0  0  0  0  0  0  0  0  0  0
   -6.1165    5.0214  -16.0956 C   0  0  0  0  0  0  0  0  0  0  0  0
   -2.8458    5.9371  -17.5358 C   0  0  0  0  0  0  0  0  0  0  0  0
   -2.9545    5.5414  -19.0502 C   0  0  0  0  0  0  0  0  0  0  0  0
   -4.4802    5.5017  -19.4101 C   0  0  0  0  0  0  0  0  0  0  0  0
  1  2  2  0
  2  3  1  0
  3  4  1  0
  4  5  1  0
  5  6  1  0
  6  7  1  0
  2  8  1  0
  8  9  1  1
  8 10  1  0
 10 11  1  0
 11 12  2  0
 12 13  1  0
 13 14  2  0
 14 15  1  0
 15 16  2  0
 15 17  1  0
 17 18  1  0
 18 19  1  0
  8 20  1  0
 20 21  2  0
 21 22  1  0
 22 23  1  0
 22 24  2  0
 24 25  1  0
 25 26  1  0
 26 27  2  0
 27 28  1  0
 28 29  1  0
 27 30  1  0
 30 31  1  0
 31 32  1  0
 16 11  1  0
 29 20  1  0
 19 14  1  0
 29 25  2  0
 32 26  1  0
M  END
>  <smiles>  (1505) 
C22408-P198

>  <fragmenstein_outcome>  (1505) 
acceptable

>  <inchikey>  (1505) 
RUHRATOWMMAGQJ-UHFFFAOYSA-N

>  <fragmenstein_mode>  (1505) 
expansion

>  <HIPPO Pose ID>  (1505) 
22065

>  <Energy>  (1505) 
103.971312

>  <fragmenstein_error>  (1505) 


>  <tags>  (1505) 
{'openbind_xx01zvns2b_c1_fragmenstein', 'fragmenstein_placed'}

>  <ref_pdb>  (1505) 
175

>  <scratch_subdir>  (1505) 
/opt/xchem-fragalysis-2/maxwin/BulkDock/SCRATCH/511028/C22408-P198

>  <alias>  (1505) 
O=C(NCCCF)[C@@](O)(Nc1ccc2c(c1)CNC2)c1cc(Cl)cc2c3c([nH]c12)CCC3

>  <HIPPO Compound ID>  (1505) 
22408

>  <fragmenstein_runtime>  (1505) 
5.795641

$$$$
N[C@H]1CCc2[nH]c3c(C(=O)Nc4ccc5c(c4)CNC5)cc(Cl)cc3c21
     RDKit          3D

 26 30  0  0  0  0  0  0  0  0999 V2000
   -5.5491    6.3108  -20.2218 N   0  0  0  0  0  0  0  0  0  0  0  0
   -4.7737    5.2839  -19.5424 C   0  0  1  0  0  0  0  0  0  0  0  0
   -3.2949    5.7183  -19.2278 C   0  0  0  0  0  0  0  0  0  0  0  0
   -3.2157    6.1283  -17.7141 C   0  0  0  0  0  0  0  0  0  0  0  0
   -4.4914    5.5899  -17.2171 C   0  0  0  0  0  0  0  0  0  0  0  0
   -5.0868    5.5004  -16.0059 N   0  0  0  0  0  0  0  0  0  0  0  0
   -6.3655    4.9850  -16.1958 C   0  0  0  0  0  0  0  0  0  0  0  0
   -7.3954    4.7495  -15.2698 C   0  0  0  0  0  0  0  0  0  0  0  0
   -7.2228    5.1449  -13.8470 C   0  0  0  0  0  0  0  0  0  0  0  0
   -6.6660    6.1477  -13.6225 O   0  0  0  0  0  0  0  0  0  0  0  0
   -7.8471    4.1073  -12.8842 N   0  0  0  0  0  0  0  0  0  0  0  0
   -7.9951    4.1324  -11.4991 C   0  0  0  0  0  0  0  0  0  0  0  0
   -7.6749    5.2786  -10.7550 C   0  0  0  0  0  0  0  0  0  0  0  0
   -7.8296    5.2970   -9.3649 C   0  0  0  0  0  0  0  0  0  0  0  0
   -8.2848    4.1505   -8.7409 C   0  0  0  0  0  0  0  0  0  0  0  0
   -8.6009    3.0144   -9.4736 C   0  0  0  0  0  0  0  0  0  0  0  0
   -8.4753    2.9893  -10.8539 C   0  0  0  0  0  0  0  0  0  0  0  0
   -9.0792    1.9460   -8.5518 C   0  0  0  0  0  0  0  0  0  0  0  0
   -8.8742    2.4626   -7.1714 N   0  0  0  0  0  0  0  0  0  0  0  0
   -8.5430    3.8989   -7.2965 C   0  0  0  0  0  0  0  0  0  0  0  0
   -8.6222    4.2921  -15.7654 C   0  0  0  0  0  0  0  0  0  0  0  0
   -8.7941    4.0960  -17.1344 C   0  0  0  0  0  0  0  0  0  0  0  0
  -10.3564    3.8042  -17.7614 Cl  0  0  0  0  0  0  0  0  0  0  0  0
   -7.7599    4.2794  -18.0476 C   0  0  0  0  0  0  0  0  0  0  0  0
   -6.5298    4.7401  -17.5696 C   0  0  0  0  0  0  0  0  0  0  0  0
   -5.3347    5.1273  -18.1844 C   0  0  0  0  0  0  0  0  0  0  0  0
  2  1  1  6
  2  3  1  0
  3  4  1  0
  4  5  1  0
  5  6  1  0
  6  7  1  0
  7  8  2  0
  8  9  1  0
  9 10  2  0
  9 11  1  0
 11 12  1  0
 12 13  2  0
 13 14  1  0
 14 15  2  0
 15 16  1  0
 16 17  2  0
 16 18  1  0
 18 19  1  0
 19 20  1  0
  8 21  1  0
 21 22  2  0
 22 23  1  0
 22 24  1  0
 24 25  2  0
 25 26  1  0
 26  2  1  0
 26  5  2  0
 25  7  1  0
 17 12  1  0
 20 15  1  0
M  END
>  <smiles>  (1506) 
C22347-P198

>  <fragmenstein_outcome>  (1506) 
acceptable

>  <inchikey>  (1506) 
MURVHGCLORQQCZ-UHFFFAOYSA-N

>  <fragmenstein_mode>  (1506) 
expansion

>  <HIPPO Pose ID>  (1506) 
22066

>  <Energy>  (1506) 
51.961718

>  <fragmenstein_error>  (1506) 


>  <tags>  (1506) 
{'openbind_xx01zvns2b_c1_fragmenstein', 'fragmenstein_placed'}

>  <ref_pdb>  (1506) 
175

>  <scratch_subdir>  (1506) 
/opt/xchem-fragalysis-2/maxwin/BulkDock/SCRATCH/511028/C22347-P198

>  <alias>  (1506) 
N[C@H]1CCc2[nH]c3c(C(=O)Nc4ccc5c(c4)CNC5)cc(Cl)cc3c21

>  <HIPPO Compound ID>  (1506) 
22347

>  <fragmenstein_runtime>  (1506) 
2.682353

$$$$
CNC[C@@H]1CCc2[nH]c3c(C(=O)Nc4ccc5c(c4)CNC5)cc(Cl)cc3c21
     RDKit          3D

 28 32  0  0  0  0  0  0  0  0999 V2000
   -5.7802    3.6878  -21.5733 C   0  0  0  0  0  0  0  0  0  0  0  0
   -5.8373    4.4453  -20.3335 N   0  0  0  0  0  0  0  0  0  0  0  0
   -4.5723    5.1039  -20.0812 C   0  0  0  0  0  0  0  0  0  0  0  0
   -4.5953    6.0663  -18.9085 C   0  0  2  0  0  0  0  0  0  0  0  0
   -3.1245    6.4462  -18.4713 C   0  0  0  0  0  0  0  0  0  0  0  0
   -3.1237    6.6010  -16.9148 C   0  0  0  0  0  0  0  0  0  0  0  0
   -4.3843    5.9277  -16.5727 C   0  0  0  0  0  0  0  0  0  0  0  0
   -5.0239    5.6528  -15.4163 N   0  0  0  0  0  0  0  0  0  0  0  0
   -6.2750    5.1363  -15.7345 C   0  0  0  0  0  0  0  0  0  0  0  0
   -7.3518    4.8072  -14.8969 C   0  0  0  0  0  0  0  0  0  0  0  0
   -7.2804    5.1691  -13.4606 C   0  0  0  0  0  0  0  0  0  0  0  0
   -6.8227    6.2051  -13.1775 O   0  0  0  0  0  0  0  0  0  0  0  0
   -7.8552    4.0533  -12.5671 N   0  0  0  0  0  0  0  0  0  0  0  0
   -8.0680    4.0155  -11.1949 C   0  0  0  0  0  0  0  0  0  0  0  0
   -7.8585    5.1539  -10.3981 C   0  0  0  0  0  0  0  0  0  0  0  0
   -8.0873    5.1147   -9.0199 C   0  0  0  0  0  0  0  0  0  0  0  0
   -8.5235    3.9257   -8.4688 C   0  0  0  0  0  0  0  0  0  0  0  0
   -8.7159    2.7947   -9.2575 C   0  0  0  0  0  0  0  0  0  0  0  0
   -8.4985    2.8196  -10.6222 C   0  0  0  0  0  0  0  0  0  0  0  0
   -9.1243    1.6580   -8.3836 C   0  0  0  0  0  0  0  0  0  0  0  0
   -9.5731    2.2947   -7.1174 N   0  0  0  0  0  0  0  0  0  0  0  0
   -8.8455    3.5833   -7.0528 C   0  0  0  0  0  0  0  0  0  0  0  0
   -8.5227    4.3046  -15.4812 C   0  0  0  0  0  0  0  0  0  0  0  0
   -8.6012    4.1696  -16.8622 C   0  0  0  0  0  0  0  0  0  0  0  0
  -10.0686    3.7255  -17.6226 Cl  0  0  0  0  0  0  0  0  0  0  0  0
   -7.5418    4.5231  -17.6911 C   0  0  0  0  0  0  0  0  0  0  0  0
   -6.3600    5.0260  -17.1303 C   0  0  0  0  0  0  0  0  0  0  0  0
   -5.1758    5.5926  -17.6303 C   0  0  0  0  0  0  0  0  0  0  0  0
  1  2  1  0
  2  3  1  0
  4  3  1  6
  4  5  1  0
  5  6  1  0
  6  7  1  0
  7  8  1  0
  8  9  1  0
  9 10  2  0
 10 11  1  0
 11 12  2  0
 11 13  1  0
 13 14  1  0
 14 15  2  0
 15 16  1  0
 16 17  2  0
 17 18  1  0
 18 19  2  0
 18 20  1  0
 20 21  1  0
 21 22  1  0
 10 23  1  0
 23 24  2  0
 24 25  1  0
 24 26  1  0
 26 27  2  0
 27 28  1  0
 28  4  1  0
 28  7  2  0
 27  9  1  0
 19 14  1  0
 22 17  1  0
M  END
>  <smiles>  (1507) 
C22417-P198

>  <fragmenstein_outcome>  (1507) 
acceptable

>  <inchikey>  (1507) 
MZELUCOUQOURLS-UHFFFAOYSA-N

>  <fragmenstein_mode>  (1507) 
expansion

>  <HIPPO Pose ID>  (1507) 
22068

>  <Energy>  (1507) 
82.727324

>  <fragmenstein_error>  (1507) 


>  <tags>  (1507) 
{'openbind_xx01zvns2b_c1_fragmenstein', 'fragmenstein_placed'}

>  <ref_pdb>  (1507) 
175

>  <scratch_subdir>  (1507) 
/opt/xchem-fragalysis-2/maxwin/BulkDock/SCRATCH/511028/C22417-P198

>  <alias>  (1507) 
CNC[C@@H]1CCc2[nH]c3c(C(=O)Nc4ccc5c(c4)CNC5)cc(Cl)cc3c21

>  <HIPPO Compound ID>  (1507) 
43462

>  <fragmenstein_runtime>  (1507) 
9.126459

$$$$
CNC[C@H]1CCc2c1[nH]c1c(C(=O)Nc3ccc4c(c3)CNC4)cc(Cl)cc21
     RDKit          3D

 28 32  0  0  0  0  0  0  0  0999 V2000
   -1.5360    7.6813  -15.3631 C   0  0  0  0  0  0  0  0  0  0  0  0
   -1.7761    6.2552  -15.5356 N   0  0  0  0  0  0  0  0  0  0  0  0
   -1.8448    5.8646  -16.9548 C   0  0  0  0  0  0  0  0  0  0  0  0
   -3.0860    6.3615  -17.6981 C   0  0  1  0  0  0  0  0  0  0  0  0
   -3.1475    5.8125  -19.1795 C   0  0  0  0  0  0  0  0  0  0  0  0
   -4.6579    5.5406  -19.5029 C   0  0  0  0  0  0  0  0  0  0  0  0
   -5.2252    5.3834  -18.1501 C   0  0  0  0  0  0  0  0  0  0  0  0
   -4.3713    5.8309  -17.1888 C   0  0  0  0  0  0  0  0  0  0  0  0
   -4.9330    5.6976  -15.9643 N   0  0  0  0  0  0  0  0  0  0  0  0
   -6.2017    5.1565  -16.1355 C   0  0  0  0  0  0  0  0  0  0  0  0
   -7.2048    4.8609  -15.1978 C   0  0  0  0  0  0  0  0  0  0  0  0
   -7.0728    5.2412  -13.7670 C   0  0  0  0  0  0  0  0  0  0  0  0
   -6.6858    6.3141  -13.5111 O   0  0  0  0  0  0  0  0  0  0  0  0
   -7.5933    4.1143  -12.8406 N   0  0  0  0  0  0  0  0  0  0  0  0
   -7.8268    4.1073  -11.4656 C   0  0  0  0  0  0  0  0  0  0  0  0
   -7.6274    5.2506  -10.6767 C   0  0  0  0  0  0  0  0  0  0  0  0
   -7.9010    5.2298   -9.3031 C   0  0  0  0  0  0  0  0  0  0  0  0
   -8.3643    4.0530   -8.7435 C   0  0  0  0  0  0  0  0  0  0  0  0
   -8.5503    2.9153   -9.5206 C   0  0  0  0  0  0  0  0  0  0  0  0
   -8.2950    2.9251  -10.8816 C   0  0  0  0  0  0  0  0  0  0  0  0
   -8.9964    1.7918   -8.6442 C   0  0  0  0  0  0  0  0  0  0  0  0
   -9.4260    2.4372   -7.3749 N   0  0  0  0  0  0  0  0  0  0  0  0
   -8.7091    3.7322   -7.3277 C   0  0  0  0  0  0  0  0  0  0  0  0
   -8.4208    4.3631  -15.6804 C   0  0  0  0  0  0  0  0  0  0  0  0
   -8.6048    4.1698  -17.0447 C   0  0  0  0  0  0  0  0  0  0  0  0
  -10.1596    3.7854  -17.6228 Cl  0  0  0  0  0  0  0  0  0  0  0  0
   -7.6034    4.4227  -17.9772 C   0  0  0  0  0  0  0  0  0  0  0  0
   -6.3891    4.9399  -17.5164 C   0  0  0  0  0  0  0  0  0  0  0  0
  1  2  1  0
  2  3  1  0
  4  3  1  1
  4  5  1  0
  5  6  1  0
  6  7  1  0
  7  8  2  0
  8  9  1  0
  9 10  1  0
 10 11  2  0
 11 12  1  0
 12 13  2  0
 12 14  1  0
 14 15  1  0
 15 16  2  0
 16 17  1  0
 17 18  2  0
 18 19  1  0
 19 20  2  0
 19 21  1  0
 21 22  1  0
 22 23  1  0
 11 24  1  0
 24 25  2  0
 25 26  1  0
 25 27  1  0
 27 28  2  0
  8  4  1  0
 28 10  1  0
 28  7  1  0
 20 15  1  0
 23 18  1  0
M  END
>  <smiles>  (1508) 
C22424-P198

>  <fragmenstein_outcome>  (1508) 
acceptable

>  <inchikey>  (1508) 
AXFKZZBUASYPSA-UHFFFAOYSA-N

>  <fragmenstein_mode>  (1508) 
expansion

>  <HIPPO Pose ID>  (1508) 
22072

>  <Energy>  (1508) 
77.515533

>  <fragmenstein_error>  (1508) 


>  <tags>  (1508) 
{'openbind_xx01zvns2b_c1_fragmenstein', 'fragmenstein_placed'}

>  <ref_pdb>  (1508) 
175

>  <scratch_subdir>  (1508) 
/opt/xchem-fragalysis-2/maxwin/BulkDock/SCRATCH/511028/C22424-P198

>  <alias>  (1508) 
CNC[C@H]1CCc2c1[nH]c1c(C(=O)Nc3ccc4c(c3)CNC4)cc(Cl)cc21

>  <HIPPO Compound ID>  (1508) 
26927

>  <fragmenstein_runtime>  (1508) 
4.505494

$$$$
O=C(Nc1cc(F)c2c(c1)CN[C@@]21CCCC1=O)c1cc(Cl)cc2c3c([nH]c12)CCC3
     RDKit          3D

 31 36  0  0  0  0  0  0  0  0999 V2000
   -6.7624    6.3493  -13.5614 O   0  0  0  0  0  0  0  0  0  0  0  0
   -7.2509    5.3069  -13.7684 C   0  0  0  0  0  0  0  0  0  0  0  0
   -7.8790    4.2802  -12.7915 N   0  0  0  0  0  0  0  0  0  0  0  0
   -8.1141    4.3621  -11.4153 C   0  0  0  0  0  0  0  0  0  0  0  0
   -7.9353    5.5754  -10.7332 C   0  0  0  0  0  0  0  0  0  0  0  0
   -8.1004    5.6420   -9.3494 C   0  0  0  0  0  0  0  0  0  0  0  0
   -7.8652    6.7932   -8.7066 F   0  0  0  0  0  0  0  0  0  0  0  0
   -8.4232    4.5052   -8.6405 C   0  0  0  0  0  0  0  0  0  0  0  0
   -8.6207    3.3031   -9.3193 C   0  0  0  0  0  0  0  0  0  0  0  0
   -8.4913    3.2156  -10.7051 C   0  0  0  0  0  0  0  0  0  0  0  0
   -8.8695    2.2081   -8.3347 C   0  0  0  0  0  0  0  0  0  0  0  0
   -8.8800    2.8534   -6.9901 N   0  0  0  0  0  0  0  0  0  0  0  0
   -8.4034    4.2591   -7.1685 C   0  0  1  0  0  0  0  0  0  0  0  0
   -6.9908    4.5469   -6.6123 C   0  0  0  0  0  0  0  0  0  0  0  0
   -7.1692    4.7046   -5.1141 C   0  0  0  0  0  0  0  0  0  0  0  0
   -8.3935    5.5969   -5.0203 C   0  0  0  0  0  0  0  0  0  0  0  0
   -9.2145    5.1367   -6.2040 C   0  0  0  0  0  0  0  0  0  0  0  0
  -10.4124    5.3933   -6.2726 O   0  0  0  0  0  0  0  0  0  0  0  0
   -7.3067    4.8615  -15.1900 C   0  0  0  0  0  0  0  0  0  0  0  0
   -8.4760    4.3471  -15.7615 C   0  0  0  0  0  0  0  0  0  0  0  0
   -8.5462    4.1473  -17.1411 C   0  0  0  0  0  0  0  0  0  0  0  0
  -10.0217    3.7005  -17.8677 Cl  0  0  0  0  0  0  0  0  0  0  0  0
   -7.4801    4.4164  -17.9958 C   0  0  0  0  0  0  0  0  0  0  0  0
   -6.3013    4.9172  -17.4427 C   0  0  0  0  0  0  0  0  0  0  0  0
   -5.0771    5.3295  -17.9765 C   0  0  0  0  0  0  0  0  0  0  0  0
   -4.2772    5.7163  -16.9434 C   0  0  0  0  0  0  0  0  0  0  0  0
   -4.9597    5.6388  -15.7781 N   0  0  0  0  0  0  0  0  0  0  0  0
   -6.2252    5.1283  -16.0536 C   0  0  0  0  0  0  0  0  0  0  0  0
   -2.9202    6.1286  -17.3376 C   0  0  0  0  0  0  0  0  0  0  0  0
   -2.9001    5.6294  -18.8257 C   0  0  0  0  0  0  0  0  0  0  0  0
   -4.3915    5.4644  -19.2764 C   0  0  0  0  0  0  0  0  0  0  0  0
  1  2  2  0
  2  3  1  0
  3  4  1  0
  4  5  2  0
  5  6  1  0
  6  7  1  0
  6  8  2  0
  8  9  1  0
  9 10  2  0
  9 11  1  0
 11 12  1  0
 12 13  1  0
 13 14  1  1
 14 15  1  0
 15 16  1  0
 16 17  1  0
 17 18  2  0
  2 19  1  0
 19 20  2  0
 20 21  1  0
 21 22  1  0
 21 23  2  0
 23 24  1  0
 24 25  1  0
 25 26  2  0
 26 27  1  0
 27 28  1  0
 26 29  1  0
 29 30  1  0
 30 31  1  0
 10  4  1  0
 17 13  1  0
 28 19  1  0
 13  8  1  0
 28 24  2  0
 31 25  1  0
M  END
>  <smiles>  (1509) 
C22425-P198

>  <fragmenstein_outcome>  (1509) 
acceptable

>  <inchikey>  (1509) 
JALIXOFBDXZDON-UHFFFAOYSA-N

>  <fragmenstein_mode>  (1509) 
expansion

>  <HIPPO Pose ID>  (1509) 
22073

>  <Energy>  (1509) 
97.164919

>  <fragmenstein_error>  (1509) 


>  <tags>  (1509) 
{'openbind_xx01zvns2b_c1_fragmenstein', 'fragmenstein_placed'}

>  <ref_pdb>  (1509) 
175

>  <scratch_subdir>  (1509) 
/opt/xchem-fragalysis-2/maxwin/BulkDock/SCRATCH/511028/C22425-P198

>  <alias>  (1509) 
O=C(Nc1cc(F)c2c(c1)CN[C@@]21CCCC1=O)c1cc(Cl)cc2c3c([nH]c12)CCC3

>  <HIPPO Compound ID>  (1509) 
24423

>  <fragmenstein_runtime>  (1509) 
4.260349

$$$$
CNC[C@H]1CCc2[nH]c3c(C(=O)Nc4cc5c(c6c4OC(C)(C)C6)CNC5)cc(Cl)cc3c21
     RDKit          3D

 33 38  0  0  0  0  0  0  0  0999 V2000
   -3.7629    8.8233  -19.8814 C   0  0  0  0  0  0  0  0  0  0  0  0
   -4.9043    8.0170  -19.4837 N   0  0  0  0  0  0  0  0  0  0  0  0
   -4.9493    6.7083  -20.1610 C   0  0  0  0  0  0  0  0  0  0  0  0
   -4.4562    5.4820  -19.3657 C   0  0  1  0  0  0  0  0  0  0  0  0
   -2.9360    5.5572  -18.9555 C   0  0  0  0  0  0  0  0  0  0  0  0
   -2.8815    6.0482  -17.4658 C   0  0  0  0  0  0  0  0  0  0  0  0
   -4.2368    5.6759  -17.0246 C   0  0  0  0  0  0  0  0  0  0  0  0
   -4.8747    5.5924  -15.8344 N   0  0  0  0  0  0  0  0  0  0  0  0
   -6.1653    5.1287  -16.0716 C   0  0  0  0  0  0  0  0  0  0  0  0
   -7.2099    4.8561  -15.1709 C   0  0  0  0  0  0  0  0  0  0  0  0
   -7.0585    5.1960  -13.7296 C   0  0  0  0  0  0  0  0  0  0  0  0
   -6.4809    6.1760  -13.4588 O   0  0  0  0  0  0  0  0  0  0  0  0
   -7.7588    4.1577  -12.8165 N   0  0  0  0  0  0  0  0  0  0  0  0
   -7.9688    4.1592  -11.4337 C   0  0  0  0  0  0  0  0  0  0  0  0
   -8.3870    2.9528  -10.8497 C   0  0  0  0  0  0  0  0  0  0  0  0
   -8.6114    2.9021   -9.4769 C   0  0  0  0  0  0  0  0  0  0  0  0
   -8.4410    4.0195   -8.6672 C   0  0  0  0  0  0  0  0  0  0  0  0
   -8.0388    5.2043   -9.2315 C   0  0  0  0  0  0  0  0  0  0  0  0
   -7.8165    5.2720  -10.6027 C   0  0  0  0  0  0  0  0  0  0  0  0
   -7.5053    6.5394  -11.0180 O   0  0  0  0  0  0  0  0  0  0  0  0
   -7.4664    7.3717   -9.8302 C   0  0  0  0  0  0  0  0  0  0  0  0
   -6.0560    7.9600   -9.7335 C   0  0  0  0  0  0  0  0  0  0  0  0
   -8.4879    8.4960  -10.0217 C   0  0  0  0  0  0  0  0  0  0  0  0
   -7.8027    6.5142   -8.5936 C   0  0  0  0  0  0  0  0  0  0  0  0
   -8.7565    3.6563   -7.2585 C   0  0  0  0  0  0  0  0  0  0  0  0
   -9.4551    2.3535   -7.3367 N   0  0  0  0  0  0  0  0  0  0  0  0
   -9.0166    1.7459   -8.6221 C   0  0  0  0  0  0  0  0  0  0  0  0
   -8.4180    4.3848  -15.7012 C   0  0  0  0  0  0  0  0  0  0  0  0
   -8.5569    4.2030  -17.0759 C   0  0  0  0  0  0  0  0  0  0  0  0
  -10.0760    3.7512  -17.7225 Cl  0  0  0  0  0  0  0  0  0  0  0  0
   -7.5224    4.4773  -17.9690 C   0  0  0  0  0  0  0  0  0  0  0  0
   -6.3094    4.9509  -17.4585 C   0  0  0  0  0  0  0  0  0  0  0  0
   -5.0958    5.3435  -18.0312 C   0  0  0  0  0  0  0  0  0  0  0  0
  1  2  1  0
  2  3  1  0
  4  3  1  1
  4  5  1  0
  5  6  1  0
  6  7  1  0
  7  8  1  0
  8  9  1  0
  9 10  2  0
 10 11  1  0
 11 12  2  0
 11 13  1  0
 13 14  1  0
 14 15  2  0
 15 16  1  0
 16 17  2  0
 17 18  1  0
 18 19  2  0
 19 20  1  0
 20 21  1  0
 21 22  1  0
 21 23  1  0
 21 24  1  0
 17 25  1  0
 25 26  1  0
 26 27  1  0
 10 28  1  0
 28 29  2  0
 29 30  1  0
 29 31  1  0
 31 32  2  0
 32 33  1  0
 33  4  1  0
 33  7  2  0
 32  9  1  0
 19 14  1  0
 27 16  1  0
 24 18  1  0
M  END
>  <smiles>  (1510) 
C22429-P198

>  <fragmenstein_outcome>  (1510) 
acceptable

>  <inchikey>  (1510) 
VDOYJDJKQLRQTC-UHFFFAOYSA-N

>  <fragmenstein_mode>  (1510) 
expansion

>  <HIPPO Pose ID>  (1510) 
22074

>  <Energy>  (1510) 
113.187816

>  <fragmenstein_error>  (1510) 


>  <tags>  (1510) 
{'openbind_xx01zvns2b_c1_fragmenstein', 'fragmenstein_placed'}

>  <ref_pdb>  (1510) 
175

>  <scratch_subdir>  (1510) 
/opt/xchem-fragalysis-2/maxwin/BulkDock/SCRATCH/511028/C22429-P198

>  <alias>  (1510) 
CNC[C@H]1CCc2[nH]c3c(C(=O)Nc4cc5c(c6c4OC(C)(C)C6)CNC5)cc(Cl)cc3c21

>  <HIPPO Compound ID>  (1510) 
29192

>  <fragmenstein_runtime>  (1510) 
5.449708

$$$$
CNC[C@H]1CCc2[nH]c3c(C(=O)Nc4cc(C#N)c5c(c4)CNC5)cc(Cl)cc3c21
     RDKit          3D

 30 34  0  0  0  0  0  0  0  0999 V2000
   -4.8424    5.8711  -22.3313 C   0  0  0  0  0  0  0  0  0  0  0  0
   -5.4272    6.5594  -21.1878 N   0  0  0  0  0  0  0  0  0  0  0  0
   -4.4861    6.6926  -20.0702 C   0  0  0  0  0  0  0  0  0  0  0  0
   -4.2365    5.3953  -19.2722 C   0  0  1  0  0  0  0  0  0  0  0  0
   -2.7563    5.3849  -18.7089 C   0  0  0  0  0  0  0  0  0  0  0  0
   -2.8178    5.9896  -17.2688 C   0  0  0  0  0  0  0  0  0  0  0  0
   -4.2157    5.6774  -16.9323 C   0  0  0  0  0  0  0  0  0  0  0  0
   -4.9213    5.6233  -15.7835 N   0  0  0  0  0  0  0  0  0  0  0  0
   -6.1870    5.1363  -16.0834 C   0  0  0  0  0  0  0  0  0  0  0  0
   -7.2644    4.8559  -15.2234 C   0  0  0  0  0  0  0  0  0  0  0  0
   -7.1864    5.2290  -13.7832 C   0  0  0  0  0  0  0  0  0  0  0  0
   -6.6722    6.2448  -13.5181 O   0  0  0  0  0  0  0  0  0  0  0  0
   -7.8871    4.1915  -12.8726 N   0  0  0  0  0  0  0  0  0  0  0  0
   -8.0132    4.1434  -11.4838 C   0  0  0  0  0  0  0  0  0  0  0  0
   -7.6762    5.2530  -10.6916 C   0  0  0  0  0  0  0  0  0  0  0  0
   -7.8120    5.2049   -9.2970 C   0  0  0  0  0  0  0  0  0  0  0  0
   -7.4230    6.3173   -8.4848 C   0  0  0  0  0  0  0  0  0  0  0  0
   -7.0819    7.1875   -7.7957 N   0  0  0  0  0  0  0  0  0  0  0  0
   -8.2910    4.0394   -8.7207 C   0  0  0  0  0  0  0  0  0  0  0  0
   -8.6077    2.9358   -9.5028 C   0  0  0  0  0  0  0  0  0  0  0  0
   -8.4848    2.9717  -10.8844 C   0  0  0  0  0  0  0  0  0  0  0  0
   -9.0140    1.8035   -8.6211 C   0  0  0  0  0  0  0  0  0  0  0  0
   -9.1373    2.3707   -7.2540 N   0  0  0  0  0  0  0  0  0  0  0  0
   -8.5274    3.7157   -7.2840 C   0  0  0  0  0  0  0  0  0  0  0  0
   -8.4343    4.3522  -15.7960 C   0  0  0  0  0  0  0  0  0  0  0  0
   -8.5060    4.1590  -17.1736 C   0  0  0  0  0  0  0  0  0  0  0  0
   -9.9914    3.6783  -17.8610 Cl  0  0  0  0  0  0  0  0  0  0  0  0
   -7.4384    4.4382  -18.0302 C   0  0  0  0  0  0  0  0  0  0  0  0
   -6.2535    4.9392  -17.4774 C   0  0  0  0  0  0  0  0  0  0  0  0
   -5.0035    5.3238  -17.9914 C   0  0  0  0  0  0  0  0  0  0  0  0
  1  2  1  0
  2  3  1  0
  4  3  1  1
  4  5  1  0
  5  6  1  0
  6  7  1  0
  7  8  1  0
  8  9  1  0
  9 10  2  0
 10 11  1  0
 11 12  2  0
 11 13  1  0
 13 14  1  0
 14 15  2  0
 15 16  1  0
 16 17  1  0
 17 18  3  0
 16 19  2  0
 19 20  1  0
 20 21  2  0
 20 22  1  0
 22 23  1  0
 23 24  1  0
 10 25  1  0
 25 26  2  0
 26 27  1  0
 26 28  1  0
 28 29  2  0
 29 30  1  0
 30  4  1  0
 30  7  2  0
 29  9  1  0
 21 14  1  0
 24 19  1  0
M  END
>  <smiles>  (1511) 
C22435-P198

>  <fragmenstein_outcome>  (1511) 
acceptable

>  <inchikey>  (1511) 
RGLNEIFHKMWSDW-UHFFFAOYSA-N

>  <fragmenstein_mode>  (1511) 
expansion

>  <HIPPO Pose ID>  (1511) 
22076

>  <Energy>  (1511) 
84.161514

>  <fragmenstein_error>  (1511) 


>  <tags>  (1511) 
{'openbind_xx01zvns2b_c1_fragmenstein', 'fragmenstein_placed'}

>  <ref_pdb>  (1511) 
175

>  <scratch_subdir>  (1511) 
/opt/xchem-fragalysis-2/maxwin/BulkDock/SCRATCH/511028/C22435-P198

>  <alias>  (1511) 
CNC[C@H]1CCc2[nH]c3c(C(=O)Nc4cc(C#N)c5c(c4)CNC5)cc(Cl)cc3c21

>  <HIPPO Compound ID>  (1511) 
22435

>  <fragmenstein_runtime>  (1511) 
6.959198

$$$$
O=C(Nc1ccc2c(c1)CN(F)C2)c1cc(Cl)cc2c3c([nH]c12)CCC3
     RDKit          3D

 26 30  0  0  0  0  0  0  0  0999 V2000
   -6.7450    6.2428  -13.5973 O   0  0  0  0  0  0  0  0  0  0  0  0
   -7.1928    5.1927  -13.8471 C   0  0  0  0  0  0  0  0  0  0  0  0
   -7.7405    4.0885  -12.9130 N   0  0  0  0  0  0  0  0  0  0  0  0
   -7.9329    4.0837  -11.5320 C   0  0  0  0  0  0  0  0  0  0  0  0
   -7.6512    5.2164  -10.7497 C   0  0  0  0  0  0  0  0  0  0  0  0
   -7.8640    5.2075   -9.3659 C   0  0  0  0  0  0  0  0  0  0  0  0
   -8.3496    4.0498   -8.7894 C   0  0  0  0  0  0  0  0  0  0  0  0
   -8.6133    2.9188   -9.5608 C   0  0  0  0  0  0  0  0  0  0  0  0
   -8.4188    2.9191  -10.9313 C   0  0  0  0  0  0  0  0  0  0  0  0
   -9.0821    1.8183   -8.6625 C   0  0  0  0  0  0  0  0  0  0  0  0
   -9.4768    2.5113   -7.4182 N   0  0  0  0  0  0  0  0  0  0  0  0
   -9.3218    1.7206   -6.3055 F   0  0  0  0  0  0  0  0  0  0  0  0
   -8.6695    3.7442   -7.3608 C   0  0  0  0  0  0  0  0  0  0  0  0
   -7.3168    4.8155  -15.2793 C   0  0  0  0  0  0  0  0  0  0  0  0
   -8.5180    4.3346  -15.8124 C   0  0  0  0  0  0  0  0  0  0  0  0
   -8.6467    4.1534  -17.1882 C   0  0  0  0  0  0  0  0  0  0  0  0
  -10.1748    3.7612  -17.8464 Cl  0  0  0  0  0  0  0  0  0  0  0  0
   -7.6003    4.4089  -18.0740 C   0  0  0  0  0  0  0  0  0  0  0  0
   -6.3915    4.8893  -17.5579 C   0  0  0  0  0  0  0  0  0  0  0  0
   -5.1756    5.2911  -18.1222 C   0  0  0  0  0  0  0  0  0  0  0  0
   -4.3383    5.6552  -17.1094 C   0  0  0  0  0  0  0  0  0  0  0  0
   -4.9842    5.5702  -15.9250 N   0  0  0  0  0  0  0  0  0  0  0  0
   -6.2641    5.0838  -16.1704 C   0  0  0  0  0  0  0  0  0  0  0  0
   -2.9868    6.0520  -17.5371 C   0  0  0  0  0  0  0  0  0  0  0  0
   -3.0171    5.5680  -19.0294 C   0  0  0  0  0  0  0  0  0  0  0  0
   -4.5243    5.4305  -19.4395 C   0  0  0  0  0  0  0  0  0  0  0  0
  1  2  2  0
  2  3  1  0
  3  4  1  0
  4  5  2  0
  5  6  1  0
  6  7  2  0
  7  8  1  0
  8  9  2  0
  8 10  1  0
 10 11  1  0
 11 12  1  0
 11 13  1  0
  2 14  1  0
 14 15  2  0
 15 16  1  0
 16 17  1  0
 16 18  2  0
 18 19  1  0
 19 20  1  0
 20 21  2  0
 21 22  1  0
 22 23  1  0
 21 24  1  0
 24 25  1  0
 25 26  1  0
  9  4  1  0
 23 14  1  0
 13  7  1  0
 23 19  2  0
 26 20  1  0
M  END
>  <smiles>  (1512) 
C22436-P198

>  <fragmenstein_outcome>  (1512) 
acceptable

>  <inchikey>  (1512) 
ZJRRELMQKOWTGT-UHFFFAOYSA-N

>  <fragmenstein_mode>  (1512) 
expansion

>  <HIPPO Pose ID>  (1512) 
22077

>  <Energy>  (1512) 
73.482575

>  <fragmenstein_error>  (1512) 


>  <tags>  (1512) 
{'openbind_xx01zvns2b_c1_fragmenstein', 'fragmenstein_placed'}

>  <ref_pdb>  (1512) 
175

>  <scratch_subdir>  (1512) 
/opt/xchem-fragalysis-2/maxwin/BulkDock/SCRATCH/511028/C22436-P198

>  <alias>  (1512) 
O=C(Nc1ccc2c(c1)CN(F)C2)c1cc(Cl)cc2c3c([nH]c12)CCC3

>  <HIPPO Compound ID>  (1512) 
22436

>  <fragmenstein_runtime>  (1512) 
2.81421

$$$$
O=C(Nc1ccc2c(c1)CN(CC(F)F)C2)c1cc(Cl)cc2c3c([nH]c12)CCC3
     RDKit          3D

 29 33  0  0  0  0  0  0  0  0999 V2000
   -6.3163    6.1749  -13.7568 O   0  0  0  0  0  0  0  0  0  0  0  0
   -6.9510    5.2131  -13.9545 C   0  0  0  0  0  0  0  0  0  0  0  0
   -7.6499    4.2521  -12.9644 N   0  0  0  0  0  0  0  0  0  0  0  0
   -7.7890    4.3231  -11.5828 C   0  0  0  0  0  0  0  0  0  0  0  0
   -7.3104    5.4519  -10.8943 C   0  0  0  0  0  0  0  0  0  0  0  0
   -7.4214    5.5528   -9.5110 C   0  0  0  0  0  0  0  0  0  0  0  0
   -8.0242    4.5123   -8.8419 C   0  0  0  0  0  0  0  0  0  0  0  0
   -8.5221    3.3950   -9.5165 C   0  0  0  0  0  0  0  0  0  0  0  0
   -8.4070    3.2770  -10.8916 C   0  0  0  0  0  0  0  0  0  0  0  0
   -9.1446    2.4705   -8.5146 C   0  0  0  0  0  0  0  0  0  0  0  0
   -9.2898    3.3276   -7.3056 N   0  0  0  0  0  0  0  0  0  0  0  0
   -9.2602    2.5751   -6.0544 C   0  0  0  0  0  0  0  0  0  0  0  0
  -10.5359    1.7873   -5.7765 C   0  0  0  0  0  0  0  0  0  0  0  0
  -10.7705    0.9044   -6.7705 F   0  0  0  0  0  0  0  0  0  0  0  0
  -11.6020    2.6282   -5.6934 F   0  0  0  0  0  0  0  0  0  0  0  0
   -8.2510    4.3540   -7.3798 C   0  0  0  0  0  0  0  0  0  0  0  0
   -7.1630    4.8222  -15.3713 C   0  0  0  0  0  0  0  0  0  0  0  0
   -8.3869    4.3455  -15.8487 C   0  0  0  0  0  0  0  0  0  0  0  0
   -8.5663    4.1472  -17.2156 C   0  0  0  0  0  0  0  0  0  0  0  0
  -10.1112    3.7255  -17.8002 Cl  0  0  0  0  0  0  0  0  0  0  0  0
   -7.5595    4.3940  -18.1488 C   0  0  0  0  0  0  0  0  0  0  0  0
   -6.3309    4.8764  -17.6883 C   0  0  0  0  0  0  0  0  0  0  0  0
   -5.1353    5.2699  -18.3000 C   0  0  0  0  0  0  0  0  0  0  0  0
   -4.2581    5.6346  -17.3215 C   0  0  0  0  0  0  0  0  0  0  0  0
   -4.8579    5.5561  -16.1149 N   0  0  0  0  0  0  0  0  0  0  0  0
   -6.1489    5.0764  -16.3102 C   0  0  0  0  0  0  0  0  0  0  0  0
   -2.9211    6.0211  -17.7977 C   0  0  0  0  0  0  0  0  0  0  0  0
   -3.0087    5.5296  -19.2846 C   0  0  0  0  0  0  0  0  0  0  0  0
   -4.5309    5.3980  -19.6401 C   0  0  0  0  0  0  0  0  0  0  0  0
  1  2  2  0
  2  3  1  0
  3  4  1  0
  4  5  2  0
  5  6  1  0
  6  7  2  0
  7  8  1  0
  8  9  2  0
  8 10  1  0
 10 11  1  0
 11 12  1  0
 12 13  1  0
 13 14  1  0
 13 15  1  0
 11 16  1  0
  2 17  1  0
 17 18  2  0
 18 19  1  0
 19 20  1  0
 19 21  2  0
 21 22  1  0
 22 23  1  0
 23 24  2  0
 24 25  1  0
 25 26  1  0
 24 27  1  0
 27 28  1  0
 28 29  1  0
  9  4  1  0
 26 17  1  0
 16  7  1  0
 26 22  2  0
 29 23  1  0
M  END
>  <smiles>  (1513) 
C22437-P198

>  <fragmenstein_outcome>  (1513) 
acceptable

>  <inchikey>  (1513) 
PKMBTGWSMHCVPP-UHFFFAOYSA-N

>  <fragmenstein_mode>  (1513) 
expansion

>  <HIPPO Pose ID>  (1513) 
22078

>  <Energy>  (1513) 
109.60578

>  <fragmenstein_error>  (1513) 


>  <tags>  (1513) 
{'openbind_xx01zvns2b_c1_fragmenstein', 'fragmenstein_placed'}

>  <ref_pdb>  (1513) 
175

>  <scratch_subdir>  (1513) 
/opt/xchem-fragalysis-2/maxwin/BulkDock/SCRATCH/511028/C22437-P198

>  <alias>  (1513) 
O=C(Nc1ccc2c(c1)CN(CC(F)F)C2)c1cc(Cl)cc2c3c([nH]c12)CCC3

>  <HIPPO Compound ID>  (1513) 
22437

>  <fragmenstein_runtime>  (1513) 
4.411115

$$$$
O=C(Nc1ccc2c(c1)CNC2)c1cc(Cl)cc2c3c([nH]c12)C1(CCNCC1)CC3
     RDKit          3D

 30 35  0  0  0  0  0  0  0  0999 V2000
   -6.6083    6.2146  -13.5756 O   0  0  0  0  0  0  0  0  0  0  0  0
   -7.0916    5.1822  -13.8338 C   0  0  0  0  0  0  0  0  0  0  0  0
   -7.6927    4.0967  -12.9089 N   0  0  0  0  0  0  0  0  0  0  0  0
   -7.9033    4.0964  -11.5302 C   0  0  0  0  0  0  0  0  0  0  0  0
   -7.6924    5.2471  -10.7541 C   0  0  0  0  0  0  0  0  0  0  0  0
   -7.9320    5.2356   -9.3740 C   0  0  0  0  0  0  0  0  0  0  0  0
   -8.3755    4.0607   -8.7949 C   0  0  0  0  0  0  0  0  0  0  0  0
   -8.5734    2.9159   -9.5590 C   0  0  0  0  0  0  0  0  0  0  0  0
   -8.3507    2.9167  -10.9262 C   0  0  0  0  0  0  0  0  0  0  0  0
   -8.9930    1.7974   -8.6627 C   0  0  0  0  0  0  0  0  0  0  0  0
   -9.4005    2.4526   -7.3912 N   0  0  0  0  0  0  0  0  0  0  0  0
   -8.6872    3.7499   -7.3692 C   0  0  0  0  0  0  0  0  0  0  0  0
   -7.2322    4.8138  -15.2689 C   0  0  0  0  0  0  0  0  0  0  0  0
   -8.4411    4.3200  -15.7759 C   0  0  0  0  0  0  0  0  0  0  0  0
   -8.6009    4.1387  -17.1474 C   0  0  0  0  0  0  0  0  0  0  0  0
  -10.1291    3.7180  -17.7736 Cl  0  0  0  0  0  0  0  0  0  0  0  0
   -7.5859    4.4127  -18.0589 C   0  0  0  0  0  0  0  0  0  0  0  0
   -6.3762    4.9130  -17.5719 C   0  0  0  0  0  0  0  0  0  0  0  0
   -5.1974    5.3538  -18.1775 C   0  0  0  0  0  0  0  0  0  0  0  0
   -4.3321    5.7382  -17.1962 C   0  0  0  0  0  0  0  0  0  0  0  0
   -4.9320    5.6157  -15.9861 N   0  0  0  0  0  0  0  0  0  0  0  0
   -6.2093    5.1041  -16.1886 C   0  0  0  0  0  0  0  0  0  0  0  0
   -3.0125    6.2356  -17.6829 C   0  0  0  0  0  0  0  0  0  0  0  0
   -2.9359    7.7727  -17.6069 C   0  0  0  0  0  0  0  0  0  0  0  0
   -2.1980    8.2254  -16.3491 C   0  0  0  0  0  0  0  0  0  0  0  0
   -0.8193    7.7383  -16.2850 N   0  0  0  0  0  0  0  0  0  0  0  0
   -0.5992    6.4733  -16.9906 C   0  0  0  0  0  0  0  0  0  0  0  0
   -1.8292    5.5724  -16.9688 C   0  0  0  0  0  0  0  0  0  0  0  0
   -3.1164    5.7555  -19.2030 C   0  0  0  0  0  0  0  0  0  0  0  0
   -4.6325    5.5415  -19.5253 C   0  0  0  0  0  0  0  0  0  0  0  0
  1  2  2  0
  2  3  1  0
  3  4  1  0
  4  5  2  0
  5  6  1  0
  6  7  2  0
  7  8  1  0
  8  9  2  0
  8 10  1  0
 10 11  1  0
 11 12  1  0
  2 13  1  0
 13 14  2  0
 14 15  1  0
 15 16  1  0
 15 17  2  0
 17 18  1  0
 18 19  1  0
 19 20  2  0
 20 21  1  0
 21 22  1  0
 20 23  1  0
 23 24  1  0
 24 25  1  0
 25 26  1  0
 26 27  1  0
 27 28  1  0
 23 29  1  0
 29 30  1  0
  9  4  1  0
 22 13  1  0
 28 23  1  0
 12  7  1  0
 22 18  2  0
 30 19  1  0
M  END
>  <smiles>  (1514) 
C22423-P198

>  <fragmenstein_outcome>  (1514) 
acceptable

>  <inchikey>  (1514) 
DLSIZFMZXRKWNZ-UHFFFAOYSA-M

>  <fragmenstein_mode>  (1514) 
expansion

>  <HIPPO Pose ID>  (1514) 
22079

>  <Energy>  (1514) 
70.436574

>  <fragmenstein_error>  (1514) 


>  <tags>  (1514) 
{'openbind_xx01zvns2b_c1_fragmenstein', 'fragmenstein_placed'}

>  <ref_pdb>  (1514) 
175

>  <scratch_subdir>  (1514) 
/opt/xchem-fragalysis-2/maxwin/BulkDock/SCRATCH/511028/C22423-P198

>  <alias>  (1514) 
O=C(Nc1ccc2c(c1)CNC2)c1cc(Cl)cc2c3c([nH]c12)C1(CCNCC1)CC3

>  <HIPPO Compound ID>  (1514) 
30436

>  <fragmenstein_runtime>  (1514) 
4.036047

$$$$
CO[C@@H]1CC[C@]2(CCc3c2[nH]c2c(C(=O)Nc4ccc5c(c4)CNC5)cc(F)cc32)N1
     RDKit          3D

 31 36  0  0  0  0  0  0  0  0999 V2000
   -2.0743    9.9088  -15.2112 C   0  0  0  0  0  0  0  0  0  0  0  0
   -2.4577    9.4083  -16.4834 O   0  0  0  0  0  0  0  0  0  0  0  0
   -2.8690    8.0561  -16.4399 C   0  0  2  0  0  0  0  0  0  0  0  0
   -1.7143    7.0824  -16.2602 C   0  0  0  0  0  0  0  0  0  0  0  0
   -2.2062    5.7848  -16.8945 C   0  0  0  0  0  0  0  0  0  0  0  0
   -3.4057    6.2012  -17.7362 C   0  0  1  0  0  0  0  0  0  0  0  0
   -3.4006    5.6225  -19.2012 C   0  0  0  0  0  0  0  0  0  0  0  0
   -4.9013    5.4020  -19.6031 C   0  0  0  0  0  0  0  0  0  0  0  0
   -5.5359    5.2360  -18.2776 C   0  0  0  0  0  0  0  0  0  0  0  0
   -4.7179    5.6812  -17.2766 C   0  0  0  0  0  0  0  0  0  0  0  0
   -5.3498    5.5532  -16.0873 N   0  0  0  0  0  0  0  0  0  0  0  0
   -6.6009    4.9921  -16.3193 C   0  0  0  0  0  0  0  0  0  0  0  0
   -7.6319    4.6868  -15.4123 C   0  0  0  0  0  0  0  0  0  0  0  0
   -7.5061    5.1126  -13.9888 C   0  0  0  0  0  0  0  0  0  0  0  0
   -7.0173    6.1543  -13.7813 O   0  0  0  0  0  0  0  0  0  0  0  0
   -8.1150    4.0785  -13.0128 N   0  0  0  0  0  0  0  0  0  0  0  0
   -8.1630    4.0671  -11.6177 C   0  0  0  0  0  0  0  0  0  0  0  0
   -7.8672    5.2204  -10.8714 C   0  0  0  0  0  0  0  0  0  0  0  0
   -7.9826    5.2227   -9.4757 C   0  0  0  0  0  0  0  0  0  0  0  0
   -8.3868    4.0578   -8.8509 C   0  0  0  0  0  0  0  0  0  0  0  0
   -8.6470    2.9046   -9.5839 C   0  0  0  0  0  0  0  0  0  0  0  0
   -8.5462    2.8918  -10.9656 C   0  0  0  0  0  0  0  0  0  0  0  0
   -9.0039    1.8010   -8.6430 C   0  0  0  0  0  0  0  0  0  0  0  0
   -9.3359    2.4811   -7.3627 N   0  0  0  0  0  0  0  0  0  0  0  0
   -8.6132    3.7728   -7.4039 C   0  0  0  0  0  0  0  0  0  0  0  0
   -8.7993    4.1134  -15.9309 C   0  0  0  0  0  0  0  0  0  0  0  0
   -8.9196    3.8782  -17.2983 C   0  0  0  0  0  0  0  0  0  0  0  0
  -10.0651    3.3762  -17.7783 F   0  0  0  0  0  0  0  0  0  0  0  0
   -7.9045    4.1943  -18.1980 C   0  0  0  0  0  0  0  0  0  0  0  0
   -6.7233    4.7647  -17.7021 C   0  0  0  0  0  0  0  0  0  0  0  0
   -3.4096    7.6617  -17.7295 N   0  0  0  0  0  0  0  0  0  0  0  0
  1  2  1  0
  3  2  1  6
  3  4  1  0
  4  5  1  0
  6  5  1  1
  6  7  1  0
  7  8  1  0
  8  9  1  0
  9 10  2  0
 10 11  1  0
 11 12  1  0
 12 13  2  0
 13 14  1  0
 14 15  2  0
 14 16  1  0
 16 17  1  0
 17 18  2  0
 18 19  1  0
 19 20  2  0
 20 21  1  0
 21 22  2  0
 21 23  1  0
 23 24  1  0
 24 25  1  0
 13 26  1  0
 26 27  2  0
 27 28  1  0
 27 29  1  0
 29 30  2  0
  6 31  1  0
 31  3  1  0
 10  6  1  0
 30 12  1  0
 30  9  1  0
 22 17  1  0
 25 20  1  0
M  END
>  <smiles>  (1515) 
C22441-P198

>  <fragmenstein_outcome>  (1515) 
acceptable

>  <inchikey>  (1515) 
JEQGWNBYQMKAEG-UHFFFAOYSA-N

>  <fragmenstein_mode>  (1515) 
expansion

>  <HIPPO Pose ID>  (1515) 
22080

>  <Energy>  (1515) 
21.463943

>  <fragmenstein_error>  (1515) 


>  <tags>  (1515) 
{'openbind_xx01zvns2b_c1_fragmenstein', 'fragmenstein_placed'}

>  <ref_pdb>  (1515) 
175

>  <scratch_subdir>  (1515) 
/opt/xchem-fragalysis-2/maxwin/BulkDock/SCRATCH/511028/C22441-P198

>  <alias>  (1515) 
CO[C@@H]1CC[C@]2(CCc3c2[nH]c2c(C(=O)Nc4ccc5c(c4)CNC5)cc(F)cc32)N1

>  <HIPPO Compound ID>  (1515) 
22441

>  <fragmenstein_runtime>  (1515) 
4.55573

$$$$
CNC[C@H]1CCc2[nH]c3c(C(=O)Nc4ccc5c(c4)CNC5)cc(F)cc3c21
     RDKit          3D

 28 32  0  0  0  0  0  0  0  0999 V2000
   -4.3889    5.7027  -22.4257 C   0  0  0  0  0  0  0  0  0  0  0  0
   -4.2281    6.8162  -21.4975 N   0  0  0  0  0  0  0  0  0  0  0  0
   -4.9554    6.5950  -20.2365 C   0  0  0  0  0  0  0  0  0  0  0  0
   -4.4737    5.4095  -19.3838 C   0  0  1  0  0  0  0  0  0  0  0  0
   -2.9886    5.5900  -18.8809 C   0  0  0  0  0  0  0  0  0  0  0  0
   -3.0646    6.1675  -17.4251 C   0  0  0  0  0  0  0  0  0  0  0  0
   -4.4278    5.7539  -17.0525 C   0  0  0  0  0  0  0  0  0  0  0  0
   -5.1223    5.6847  -15.8960 N   0  0  0  0  0  0  0  0  0  0  0  0
   -6.3640    5.1231  -16.1758 C   0  0  0  0  0  0  0  0  0  0  0  0
   -7.4268    4.8117  -15.3080 C   0  0  0  0  0  0  0  0  0  0  0  0
   -7.3524    5.2192  -13.8781 C   0  0  0  0  0  0  0  0  0  0  0  0
   -6.9191    6.2772  -13.6358 O   0  0  0  0  0  0  0  0  0  0  0  0
   -7.8676    4.1069  -12.9353 N   0  0  0  0  0  0  0  0  0  0  0  0
   -8.0401    4.1004  -11.5512 C   0  0  0  0  0  0  0  0  0  0  0  0
   -7.8261    5.2555  -10.7812 C   0  0  0  0  0  0  0  0  0  0  0  0
   -8.0149    5.2397   -9.3937 C   0  0  0  0  0  0  0  0  0  0  0  0
   -8.4168    4.0570   -8.8015 C   0  0  0  0  0  0  0  0  0  0  0  0
   -8.6160    2.9075   -9.5589 C   0  0  0  0  0  0  0  0  0  0  0  0
   -8.4354    2.9104  -10.9324 C   0  0  0  0  0  0  0  0  0  0  0  0
   -8.9968    1.7854   -8.6498 C   0  0  0  0  0  0  0  0  0  0  0  0
   -9.3903    2.4403   -7.3735 N   0  0  0  0  0  0  0  0  0  0  0  0
   -8.6887    3.7442   -7.3681 C   0  0  0  0  0  0  0  0  0  0  0  0
   -8.5589    4.2018  -15.8583 C   0  0  0  0  0  0  0  0  0  0  0  0
   -8.6101    3.9396  -17.2236 C   0  0  0  0  0  0  0  0  0  0  0  0
   -9.6927    3.3458  -17.7331 F   0  0  0  0  0  0  0  0  0  0  0  0
   -7.5762    4.2809  -18.0933 C   0  0  0  0  0  0  0  0  0  0  0  0
   -6.4249    4.8758  -17.5603 C   0  0  0  0  0  0  0  0  0  0  0  0
   -5.2023    5.3188  -18.0879 C   0  0  0  0  0  0  0  0  0  0  0  0
  1  2  1  0
  2  3  1  0
  4  3  1  1
  4  5  1  0
  5  6  1  0
  6  7  1  0
  7  8  1  0
  8  9  1  0
  9 10  2  0
 10 11  1  0
 11 12  2  0
 11 13  1  0
 13 14  1  0
 14 15  2  0
 15 16  1  0
 16 17  2  0
 17 18  1  0
 18 19  2  0
 18 20  1  0
 20 21  1  0
 21 22  1  0
 10 23  1  0
 23 24  2  0
 24 25  1  0
 24 26  1  0
 26 27  2  0
 27 28  1  0
 28  4  1  0
 28  7  2  0
 27  9  1  0
 19 14  1  0
 22 17  1  0
M  END
>  <smiles>  (1516) 
C22442-P198

>  <fragmenstein_outcome>  (1516) 
acceptable

>  <inchikey>  (1516) 
CAGFGCMKTNIUMU-UHFFFAOYSA-N

>  <fragmenstein_mode>  (1516) 
expansion

>  <HIPPO Pose ID>  (1516) 
22081

>  <Energy>  (1516) 
72.44835

>  <fragmenstein_error>  (1516) 


>  <tags>  (1516) 
{'openbind_xx01zvns2b_c1_fragmenstein', 'fragmenstein_placed'}

>  <ref_pdb>  (1516) 
175

>  <scratch_subdir>  (1516) 
/opt/xchem-fragalysis-2/maxwin/BulkDock/SCRATCH/511028/C22442-P198

>  <alias>  (1516) 
CNC[C@H]1CCc2[nH]c3c(C(=O)Nc4ccc5c(c4)CNC5)cc(F)cc3c21

>  <HIPPO Compound ID>  (1516) 
22442

>  <fragmenstein_runtime>  (1516) 
4.396648

$$$$
CC[C@@H]1CCc2[nH]c3c(C(=O)Nc4ccc5c(c4)CNC5)cccc3c21
     RDKit          3D

 26 30  0  0  0  0  0  0  0  0999 V2000
   -5.4158    4.9896  -21.1181 C   0  0  0  0  0  0  0  0  0  0  0  0
   -4.1915    5.2237  -20.2840 C   0  0  0  0  0  0  0  0  0  0  0  0
   -4.4265    6.1185  -19.0861 C   0  0  2  0  0  0  0  0  0  0  0  0
   -3.0072    6.4781  -18.4806 C   0  0  0  0  0  0  0  0  0  0  0  0
   -3.1932    6.6806  -16.9568 C   0  0  0  0  0  0  0  0  0  0  0  0
   -4.4634    5.9731  -16.7547 C   0  0  0  0  0  0  0  0  0  0  0  0
   -5.1715    5.6900  -15.6468 N   0  0  0  0  0  0  0  0  0  0  0  0
   -6.3719    5.1240  -16.0396 C   0  0  0  0  0  0  0  0  0  0  0  0
   -7.4706    4.7640  -15.2392 C   0  0  0  0  0  0  0  0  0  0  0  0
   -7.4779    5.1844  -13.8091 C   0  0  0  0  0  0  0  0  0  0  0  0
   -7.0918    6.2598  -13.5657 O   0  0  0  0  0  0  0  0  0  0  0  0
   -8.0388    4.0886  -12.8788 N   0  0  0  0  0  0  0  0  0  0  0  0
   -8.1512    4.0501  -11.4889 C   0  0  0  0  0  0  0  0  0  0  0  0
   -7.9159    5.2010  -10.7154 C   0  0  0  0  0  0  0  0  0  0  0  0
   -8.0660    5.1781   -9.3245 C   0  0  0  0  0  0  0  0  0  0  0  0
   -8.4552    3.9926   -8.7322 C   0  0  0  0  0  0  0  0  0  0  0  0
   -8.6666    2.8460   -9.4925 C   0  0  0  0  0  0  0  0  0  0  0  0
   -8.5195    2.8545  -10.8699 C   0  0  0  0  0  0  0  0  0  0  0  0
   -9.0308    1.7218   -8.5801 C   0  0  0  0  0  0  0  0  0  0  0  0
   -9.4228    2.3763   -7.3033 N   0  0  0  0  0  0  0  0  0  0  0  0
   -8.7138    3.6761   -7.2973 C   0  0  0  0  0  0  0  0  0  0  0  0
   -8.5782    4.1819  -15.8633 C   0  0  0  0  0  0  0  0  0  0  0  0
   -8.5922    4.0133  -17.2476 C   0  0  0  0  0  0  0  0  0  0  0  0
   -7.5146    4.4465  -18.0426 C   0  0  0  0  0  0  0  0  0  0  0  0
   -6.3665    5.0065  -17.4440 C   0  0  0  0  0  0  0  0  0  0  0  0
   -5.1552    5.6103  -17.8800 C   0  0  0  0  0  0  0  0  0  0  0  0
  1  2  1  0
  3  2  1  6
  3  4  1  0
  4  5  1  0
  5  6  1  0
  6  7  1  0
  7  8  1  0
  8  9  2  0
  9 10  1  0
 10 11  2  0
 10 12  1  0
 12 13  1  0
 13 14  2  0
 14 15  1  0
 15 16  2  0
 16 17  1  0
 17 18  2  0
 17 19  1  0
 19 20  1  0
 20 21  1  0
  9 22  1  0
 22 23  2  0
 23 24  1  0
 24 25  2  0
 25 26  1  0
 26  3  1  0
 26  6  2  0
 25  8  1  0
 18 13  1  0
 21 16  1  0
M  END
>  <smiles>  (1517) 
C22443-P198

>  <fragmenstein_outcome>  (1517) 
acceptable

>  <inchikey>  (1517) 
XDYQPZAOBOYKED-UHFFFAOYSA-N

>  <fragmenstein_mode>  (1517) 
expansion

>  <HIPPO Pose ID>  (1517) 
22082

>  <Energy>  (1517) 
79.338761

>  <fragmenstein_error>  (1517) 


>  <tags>  (1517) 
{'openbind_xx01zvns2b_c1_fragmenstein', 'fragmenstein_placed'}

>  <ref_pdb>  (1517) 
175

>  <scratch_subdir>  (1517) 
/opt/xchem-fragalysis-2/maxwin/BulkDock/SCRATCH/511028/C22443-P198

>  <alias>  (1517) 
CC[C@@H]1CCc2[nH]c3c(C(=O)Nc4ccc5c(c4)CNC5)cccc3c21

>  <HIPPO Compound ID>  (1517) 
22443

>  <fragmenstein_runtime>  (1517) 
4.64648

$$$$
O=C(Nc1ccc2c(c1)CNC2)c1cc(F)cc2c3c([nH]c12)CCCCCC3
     RDKit          3D

 28 32  0  0  0  0  0  0  0  0999 V2000
   -7.2524    6.1926  -13.5379 O   0  0  0  0  0  0  0  0  0  0  0  0
   -7.7116    5.1404  -13.7521 C   0  0  0  0  0  0  0  0  0  0  0  0
   -8.2679    4.0765  -12.7843 N   0  0  0  0  0  0  0  0  0  0  0  0
   -8.2895    4.0428  -11.3912 C   0  0  0  0  0  0  0  0  0  0  0  0
   -7.9674    5.1883  -10.6428 C   0  0  0  0  0  0  0  0  0  0  0  0
   -8.0286    5.1748   -9.2462 C   0  0  0  0  0  0  0  0  0  0  0  0
   -8.4063    4.0014   -8.6215 C   0  0  0  0  0  0  0  0  0  0  0  0
   -8.7040    2.8621   -9.3580 C   0  0  0  0  0  0  0  0  0  0  0  0
   -8.6537    2.8624  -10.7432 C   0  0  0  0  0  0  0  0  0  0  0  0
   -9.0353    1.7444   -8.4305 C   0  0  0  0  0  0  0  0  0  0  0  0
   -9.1314    2.3473   -7.0744 N   0  0  0  0  0  0  0  0  0  0  0  0
   -8.5688    3.7117   -7.1698 C   0  0  0  0  0  0  0  0  0  0  0  0
   -7.7862    4.7142  -15.1712 C   0  0  0  0  0  0  0  0  0  0  0  0
   -8.9285    4.1766  -15.7586 C   0  0  0  0  0  0  0  0  0  0  0  0
   -8.9721    3.9831  -17.1351 C   0  0  0  0  0  0  0  0  0  0  0  0
  -10.0844    3.4797  -17.6845 F   0  0  0  0  0  0  0  0  0  0  0  0
   -7.9030    4.3176  -17.9687 C   0  0  0  0  0  0  0  0  0  0  0  0
   -6.7133    4.7900  -17.3830 C   0  0  0  0  0  0  0  0  0  0  0  0
   -5.4166    5.1551  -17.8917 C   0  0  0  0  0  0  0  0  0  0  0  0
   -4.6031    5.2955  -16.7748 C   0  0  0  0  0  0  0  0  0  0  0  0
   -5.4250    5.3742  -15.6791 N   0  0  0  0  0  0  0  0  0  0  0  0
   -6.6872    4.9575  -16.0044 C   0  0  0  0  0  0  0  0  0  0  0  0
   -3.1347    5.2955  -16.5476 C   0  0  0  0  0  0  0  0  0  0  0  0
   -2.4383    6.5586  -17.0005 C   0  0  0  0  0  0  0  0  0  0  0  0
   -1.8540    6.4375  -18.4065 C   0  0  0  0  0  0  0  0  0  0  0  0
   -2.8762    6.4664  -19.5404 C   0  0  0  0  0  0  0  0  0  0  0  0
   -3.6335    5.1562  -19.7611 C   0  0  0  0  0  0  0  0  0  0  0  0
   -5.1014    5.2157  -19.3552 C   0  0  0  0  0  0  0  0  0  0  0  0
  1  2  2  0
  2  3  1  0
  3  4  1  0
  4  5  2  0
  5  6  1  0
  6  7  2  0
  7  8  1  0
  8  9  2  0
  8 10  1  0
 10 11  1  0
 11 12  1  0
  2 13  1  0
 13 14  2  0
 14 15  1  0
 15 16  1  0
 15 17  2  0
 17 18  1  0
 18 19  1  0
 19 20  2  0
 20 21  1  0
 21 22  1  0
 20 23  1  0
 23 24  1  0
 24 25  1  0
 25 26  1  0
 26 27  1  0
 27 28  1  0
  9  4  1  0
 22 13  1  0
 12  7  1  0
 22 18  2  0
 28 19  1  0
M  END
>  <smiles>  (1518) 
C22449-P198

>  <fragmenstein_outcome>  (1518) 
acceptable

>  <inchikey>  (1518) 
ZDJBKDHTQKIJIU-UHFFFAOYSA-N

>  <fragmenstein_mode>  (1518) 
expansion

>  <HIPPO Pose ID>  (1518) 
22086

>  <Energy>  (1518) 
53.814085

>  <fragmenstein_error>  (1518) 


>  <tags>  (1518) 
{'openbind_xx01zvns2b_c1_fragmenstein', 'fragmenstein_placed'}

>  <ref_pdb>  (1518) 
175

>  <scratch_subdir>  (1518) 
/opt/xchem-fragalysis-2/maxwin/BulkDock/SCRATCH/511028/C22449-P198

>  <alias>  (1518) 
O=C(Nc1ccc2c(c1)CNC2)c1cc(F)cc2c3c([nH]c12)CCCCCC3

>  <HIPPO Compound ID>  (1518) 
32014

>  <fragmenstein_runtime>  (1518) 
5.312604

$$$$
C[C@@H]1CCNC[C@]12CCc1[nH]c3c(C(=O)Nc4ccc5c(c4)CNC5)cc(Cl)cc3c12
     RDKit          3D

 31 36  0  0  0  0  0  0  0  0999 V2000
   -4.9898    4.4177  -21.0633 C   0  0  0  0  0  0  0  0  0  0  0  0
   -4.9556    5.8963  -20.7253 C   0  0  2  0  0  0  0  0  0  0  0  0
   -4.1631    6.6406  -21.8262 C   0  0  0  0  0  0  0  0  0  0  0  0
   -3.7250    8.0513  -21.4292 C   0  0  0  0  0  0  0  0  0  0  0  0
   -4.6388    8.6485  -20.4630 N   0  0  0  0  0  0  0  0  0  0  0  0
   -4.6834    7.8622  -19.2121 C   0  0  0  0  0  0  0  0  0  0  0  0
   -4.4680    6.2947  -19.3252 C   0  0  2  0  0  0  0  0  0  0  0  0
   -2.9400    5.9552  -19.0284 C   0  0  0  0  0  0  0  0  0  0  0  0
   -2.7939    5.9820  -17.4665 C   0  0  0  0  0  0  0  0  0  0  0  0
   -4.1728    5.6329  -17.0872 C   0  0  0  0  0  0  0  0  0  0  0  0
   -4.7820    5.3761  -15.9129 N   0  0  0  0  0  0  0  0  0  0  0  0
   -6.1010    5.0440  -16.1830 C   0  0  0  0  0  0  0  0  0  0  0  0
   -7.1390    4.7258  -15.2851 C   0  0  0  0  0  0  0  0  0  0  0  0
   -6.9716    5.0465  -13.8359 C   0  0  0  0  0  0  0  0  0  0  0  0
   -6.3576    6.0079  -13.5797 O   0  0  0  0  0  0  0  0  0  0  0  0
   -7.7027    4.0475  -12.9090 N   0  0  0  0  0  0  0  0  0  0  0  0
   -7.9047    4.0731  -11.5294 C   0  0  0  0  0  0  0  0  0  0  0  0
   -7.5775    5.2163  -10.7806 C   0  0  0  0  0  0  0  0  0  0  0  0
   -7.7679    5.2499   -9.3957 C   0  0  0  0  0  0  0  0  0  0  0  0
   -8.2603    4.1173   -8.7772 C   0  0  0  0  0  0  0  0  0  0  0  0
   -8.5858    2.9848   -9.5126 C   0  0  0  0  0  0  0  0  0  0  0  0
   -8.4345    2.9492  -10.8918 C   0  0  0  0  0  0  0  0  0  0  0  0
   -9.0952    1.9297   -8.5914 C   0  0  0  0  0  0  0  0  0  0  0  0
   -8.8874    2.4434   -7.2099 N   0  0  0  0  0  0  0  0  0  0  0  0
   -8.5459    3.8769   -7.3362 C   0  0  0  0  0  0  0  0  0  0  0  0
   -8.3515    4.2954  -15.8278 C   0  0  0  0  0  0  0  0  0  0  0  0
   -8.5080    4.2397  -17.2115 C   0  0  0  0  0  0  0  0  0  0  0  0
  -10.0330    3.8005  -17.8538 Cl  0  0  0  0  0  0  0  0  0  0  0  0
   -7.5082    4.6630  -18.0975 C   0  0  0  0  0  0  0  0  0  0  0  0
   -6.2770    5.0899  -17.5808 C   0  0  0  0  0  0  0  0  0  0  0  0
   -5.0948    5.6609  -18.1014 C   0  0  0  0  0  0  0  0  0  0  0  0
  2  1  1  6
  2  3  1  0
  3  4  1  0
  4  5  1  0
  5  6  1  0
  7  6  1  1
  7  8  1  0
  8  9  1  0
  9 10  1  0
 10 11  1  0
 11 12  1  0
 12 13  2  0
 13 14  1  0
 14 15  2  0
 14 16  1  0
 16 17  1  0
 17 18  2  0
 18 19  1  0
 19 20  2  0
 20 21  1  0
 21 22  2  0
 21 23  1  0
 23 24  1  0
 24 25  1  0
 13 26  1  0
 26 27  2  0
 27 28  1  0
 27 29  1  0
 29 30  2  0
 30 31  1  0
  7  2  1  0
 31 10  2  0
 31  7  1  0
 30 12  1  0
 22 17  1  0
 25 20  1  0
M  END
>  <smiles>  (1519) 
C22450-P198

>  <fragmenstein_outcome>  (1519) 
acceptable

>  <inchikey>  (1519) 
RGSATGGPFXKDNA-UHFFFAOYSA-N

>  <fragmenstein_mode>  (1519) 
expansion

>  <HIPPO Pose ID>  (1519) 
22087

>  <Energy>  (1519) 
104.742597

>  <fragmenstein_error>  (1519) 


>  <tags>  (1519) 
{'openbind_xx01zvns2b_c1_fragmenstein', 'fragmenstein_placed'}

>  <ref_pdb>  (1519) 
175

>  <scratch_subdir>  (1519) 
/opt/xchem-fragalysis-2/maxwin/BulkDock/SCRATCH/511028/C22450-P198

>  <alias>  (1519) 
C[C@@H]1CCNC[C@]12CCc1[nH]c3c(C(=O)Nc4ccc5c(c4)CNC5)cc(Cl)cc3c12

>  <HIPPO Compound ID>  (1519) 
22450

>  <fragmenstein_runtime>  (1519) 
6.215583

$$$$
O=C(Nc1ccc2c(c1)CNC2)c1cc(Cl)cc2c3c([nH]c12)C1(CCOCC1)CC3
     RDKit          3D

 30 35  0  0  0  0  0  0  0  0999 V2000
   -6.7491    6.2242  -13.6064 O   0  0  0  0  0  0  0  0  0  0  0  0
   -7.2292    5.1878  -13.8549 C   0  0  0  0  0  0  0  0  0  0  0  0
   -7.8946    4.1424  -12.9280 N   0  0  0  0  0  0  0  0  0  0  0  0
   -8.0190    4.1119  -11.5389 C   0  0  0  0  0  0  0  0  0  0  0  0
   -7.7649    5.2531  -10.7606 C   0  0  0  0  0  0  0  0  0  0  0  0
   -7.9493    5.2310   -9.3728 C   0  0  0  0  0  0  0  0  0  0  0  0
   -8.3805    4.0546   -8.7885 C   0  0  0  0  0  0  0  0  0  0  0  0
   -8.6086    2.9156   -9.5536 C   0  0  0  0  0  0  0  0  0  0  0  0
   -8.4413    2.9269  -10.9286 C   0  0  0  0  0  0  0  0  0  0  0  0
   -9.0049    1.7942   -8.6502 C   0  0  0  0  0  0  0  0  0  0  0  0
   -9.3836    2.4475   -7.3691 N   0  0  0  0  0  0  0  0  0  0  0  0
   -8.6620    3.7403   -7.3572 C   0  0  0  0  0  0  0  0  0  0  0  0
   -7.3335    4.7976  -15.2881 C   0  0  0  0  0  0  0  0  0  0  0  0
   -8.5266    4.2972  -15.8248 C   0  0  0  0  0  0  0  0  0  0  0  0
   -8.6534    4.1161  -17.2004 C   0  0  0  0  0  0  0  0  0  0  0  0
  -10.1793    3.7228  -17.8612 Cl  0  0  0  0  0  0  0  0  0  0  0  0
   -7.6104    4.3813  -18.0850 C   0  0  0  0  0  0  0  0  0  0  0  0
   -6.4137    4.8890  -17.5687 C   0  0  0  0  0  0  0  0  0  0  0  0
   -5.2191    5.3387  -18.1406 C   0  0  0  0  0  0  0  0  0  0  0  0
   -4.4009    5.7704  -17.1373 C   0  0  0  0  0  0  0  0  0  0  0  0
   -5.0330    5.6378  -15.9462 N   0  0  0  0  0  0  0  0  0  0  0  0
   -6.2905    5.0934  -16.1829 C   0  0  0  0  0  0  0  0  0  0  0  0
   -3.0958    6.3322  -17.5901 C   0  0  0  0  0  0  0  0  0  0  0  0
   -3.1361    7.8667  -17.5519 C   0  0  0  0  0  0  0  0  0  0  0  0
   -1.8150    8.4879  -18.0005 C   0  0  0  0  0  0  0  0  0  0  0  0
   -0.6837    7.6473  -17.7848 O   0  0  0  0  0  0  0  0  0  0  0  0
   -0.8053    6.8496  -16.6144 C   0  0  0  0  0  0  0  0  0  0  0  0
   -1.8932    5.7962  -16.8015 C   0  0  0  0  0  0  0  0  0  0  0  0
   -3.1119    5.7962  -19.0940 C   0  0  0  0  0  0  0  0  0  0  0  0
   -4.6097    5.5276  -19.4710 C   0  0  0  0  0  0  0  0  0  0  0  0
  1  2  2  0
  2  3  1  0
  3  4  1  0
  4  5  2  0
  5  6  1  0
  6  7  2  0
  7  8  1  0
  8  9  2  0
  8 10  1  0
 10 11  1  0
 11 12  1  0
  2 13  1  0
 13 14  2  0
 14 15  1  0
 15 16  1  0
 15 17  2  0
 17 18  1  0
 18 19  1  0
 19 20  2  0
 20 21  1  0
 21 22  1  0
 20 23  1  0
 23 24  1  0
 24 25  1  0
 25 26  1  0
 26 27  1  0
 27 28  1  0
 23 29  1  0
 29 30  1  0
  9  4  1  0
 22 13  1  0
 28 23  1  0
 12  7  1  0
 22 18  2  0
 30 19  1  0
M  END
>  <smiles>  (1520) 
C22451-P198

>  <fragmenstein_outcome>  (1520) 
acceptable

>  <inchikey>  (1520) 
FRABAORTOGAZGP-UHFFFAOYSA-N

>  <fragmenstein_mode>  (1520) 
expansion

>  <HIPPO Pose ID>  (1520) 
22088

>  <Energy>  (1520) 
78.79463

>  <fragmenstein_error>  (1520) 


>  <tags>  (1520) 
{'openbind_xx01zvns2b_c1_fragmenstein', 'fragmenstein_placed'}

>  <ref_pdb>  (1520) 
175

>  <scratch_subdir>  (1520) 
/opt/xchem-fragalysis-2/maxwin/BulkDock/SCRATCH/511028/C22451-P198

>  <alias>  (1520) 
O=C(Nc1ccc2c(c1)CNC2)c1cc(Cl)cc2c3c([nH]c12)C1(CCOCC1)CC3

>  <HIPPO Compound ID>  (1520) 
22451

>  <fragmenstein_runtime>  (1520) 
4.716527

$$$$
CNC[C@@H]1Cc2c(cccc2C(=O)N[C@@H]2CCN(c3ccccn3)C2)N1
     RDKit          3D

 26 29  0  0  0  0  0  0  0  0999 V2000
   -4.5021    7.1505  -21.3953 C   0  0  0  0  0  0  0  0  0  0  0  0
   -3.7763    7.0362  -20.1346 N   0  0  0  0  0  0  0  0  0  0  0  0
   -4.1301    5.7977  -19.4073 C   0  0  0  0  0  0  0  0  0  0  0  0
   -5.5393    5.8142  -18.7899 C   0  0  2  0  0  0  0  0  0  0  0  0
   -5.5635    5.4877  -17.2752 C   0  0  0  0  0  0  0  0  0  0  0  0
   -6.9322    4.9033  -17.1619 C   0  0  0  0  0  0  0  0  0  0  0  0
   -7.3610    4.5577  -18.4475 C   0  0  0  0  0  0  0  0  0  0  0  0
   -8.5980    3.9971  -18.6794 C   0  0  0  0  0  0  0  0  0  0  0  0
   -9.4534    3.8347  -17.6014 C   0  0  0  0  0  0  0  0  0  0  0  0
   -9.0369    4.1780  -16.3060 C   0  0  0  0  0  0  0  0  0  0  0  0
   -7.7606    4.7109  -16.0643 C   0  0  0  0  0  0  0  0  0  0  0  0
   -7.4465    5.2873  -14.7185 C   0  0  0  0  0  0  0  0  0  0  0  0
   -6.8860    6.3094  -14.6899 O   0  0  0  0  0  0  0  0  0  0  0  0
   -8.0317    4.4362  -13.5736 N   0  0  0  0  0  0  0  0  0  0  0  0
   -8.1345    4.7095  -12.1616 C   0  0  2  0  0  0  0  0  0  0  0  0
   -7.0717    5.6421  -11.6030 C   0  0  0  0  0  0  0  0  0  0  0  0
   -7.3173    5.5177  -10.1028 C   0  0  0  0  0  0  0  0  0  0  0  0
   -7.6643    4.1142   -9.9289 N   0  0  0  0  0  0  0  0  0  0  0  0
   -8.2190    3.7109   -8.7290 C   0  0  0  0  0  0  0  0  0  0  0  0
   -8.5593    2.3778   -8.5165 C   0  0  0  0  0  0  0  0  0  0  0  0
   -9.1059    1.9641   -7.3051 C   0  0  0  0  0  0  0  0  0  0  0  0
   -9.2800    2.8923   -6.2977 C   0  0  0  0  0  0  0  0  0  0  0  0
   -8.9038    4.1950   -6.5618 C   0  0  0  0  0  0  0  0  0  0  0  0
   -8.3922    4.6231   -7.7411 N   0  0  0  0  0  0  0  0  0  0  0  0
   -8.0673    3.5055  -11.2036 C   0  0  0  0  0  0  0  0  0  0  0  0
   -6.4020    4.8213  -19.4579 N   0  0  0  0  0  0  0  0  0  0  0  0
  1  2  1  0
  2  3  1  0
  4  3  1  6
  4  5  1  0
  5  6  1  0
  6  7  2  0
  7  8  1  0
  8  9  2  0
  9 10  1  0
 10 11  2  0
 11 12  1  0
 12 13  2  0
 12 14  1  0
 15 14  1  6
 15 16  1  0
 16 17  1  0
 17 18  1  0
 18 19  1  0
 19 20  2  0
 20 21  1  0
 21 22  2  0
 22 23  1  0
 23 24  2  0
 18 25  1  0
  7 26  1  0
 26  4  1  0
 11  6  1  0
 25 15  1  0
 24 19  1  0
M  END
>  <smiles>  (1521) 
C22615-P199

>  <fragmenstein_outcome>  (1521) 
acceptable

>  <inchikey>  (1521) 
MLDKOCQZFVYUDV-UHFFFAOYSA-N

>  <fragmenstein_mode>  (1521) 
expansion

>  <HIPPO Pose ID>  (1521) 
22109

>  <Energy>  (1521) 
74.91039

>  <fragmenstein_error>  (1521) 


>  <tags>  (1521) 
{'openbind_xx01zvns2b_c1_fragmenstein', 'fragmenstein_placed'}

>  <ref_pdb>  (1521) 
175

>  <scratch_subdir>  (1521) 
/opt/xchem-fragalysis-2/maxwin/BulkDock/SCRATCH/511028/C22615-P199

>  <alias>  (1521) 
CNC[C@@H]1Cc2c(cccc2C(=O)N[C@@H]2CCN(c3ccccn3)C2)N1

>  <HIPPO Compound ID>  (1521) 
22615

>  <fragmenstein_runtime>  (1521) 
6.117072

$$$$
O=C(N[C@H]1CCN(c2ccccn2)C1)c1cccc2c1C1(CCNCC1)C(=O)N2
     RDKit          3D

 29 33  0  0  0  0  0  0  0  0999 V2000
   -6.5517    6.5896  -14.5735 O   0  0  0  0  0  0  0  0  0  0  0  0
   -6.9263    5.4896  -14.6361 C   0  0  0  0  0  0  0  0  0  0  0  0
   -7.1563    4.4508  -13.5265 N   0  0  0  0  0  0  0  0  0  0  0  0
   -7.0639    4.5760  -12.0879 C   0  0  1  0  0  0  0  0  0  0  0  0
   -7.5747    5.9318  -11.6034 C   0  0  0  0  0  0  0  0  0  0  0  0
   -7.7593    5.7025  -10.1138 C   0  0  0  0  0  0  0  0  0  0  0  0
   -8.2547    4.3411  -10.0546 N   0  0  0  0  0  0  0  0  0  0  0  0
   -8.5371    3.7852   -8.8296 C   0  0  0  0  0  0  0  0  0  0  0  0
   -8.9662    2.4673   -8.7145 C   0  0  0  0  0  0  0  0  0  0  0  0
   -9.2760    1.9258   -7.4699 C   0  0  0  0  0  0  0  0  0  0  0  0
   -9.1667    2.7225   -6.3467 C   0  0  0  0  0  0  0  0  0  0  0  0
   -8.7487    4.0256   -6.5272 C   0  0  0  0  0  0  0  0  0  0  0  0
   -8.4461    4.5709   -7.7282 N   0  0  0  0  0  0  0  0  0  0  0  0
   -7.8877    3.5746  -11.2464 C   0  0  0  0  0  0  0  0  0  0  0  0
   -7.3026    4.9667  -15.9774 C   0  0  0  0  0  0  0  0  0  0  0  0
   -8.5990    4.4352  -16.1509 C   0  0  0  0  0  0  0  0  0  0  0  0
   -9.0665    4.0559  -17.4204 C   0  0  0  0  0  0  0  0  0  0  0  0
   -8.2411    4.1723  -18.5333 C   0  0  0  0  0  0  0  0  0  0  0  0
   -6.9717    4.6841  -18.3374 C   0  0  0  0  0  0  0  0  0  0  0  0
   -6.4826    5.1140  -17.0951 C   0  0  0  0  0  0  0  0  0  0  0  0
   -5.0815    5.7002  -17.2986 C   0  0  0  0  0  0  0  0  0  0  0  0
   -3.9916    5.2319  -16.3290 C   0  0  0  0  0  0  0  0  0  0  0  0
   -2.6521    5.9462  -16.5214 C   0  0  0  0  0  0  0  0  0  0  0  0
   -2.7899    7.3976  -16.4935 N   0  0  0  0  0  0  0  0  0  0  0  0
   -3.7239    7.8606  -17.5130 C   0  0  0  0  0  0  0  0  0  0  0  0
   -5.1078    7.2390  -17.3186 C   0  0  0  0  0  0  0  0  0  0  0  0
   -4.8004    5.2421  -18.7672 C   0  0  0  0  0  0  0  0  0  0  0  0
   -3.7411    5.2827  -19.3762 O   0  0  0  0  0  0  0  0  0  0  0  0
   -5.9974    4.8152  -19.3108 N   0  0  0  0  0  0  0  0  0  0  0  0
  1  2  2  0
  2  3  1  0
  4  3  1  6
  4  5  1  0
  5  6  1  0
  6  7  1  0
  7  8  1  0
  8  9  2  0
  9 10  1  0
 10 11  2  0
 11 12  1  0
 12 13  2  0
  7 14  1  0
  2 15  1  0
 15 16  2  0
 16 17  1  0
 17 18  2  0
 18 19  1  0
 19 20  2  0
 20 21  1  0
 21 22  1  0
 22 23  1  0
 23 24  1  0
 24 25  1  0
 25 26  1  0
 21 27  1  0
 27 28  2  0
 27 29  1  0
 14  4  1  0
 20 15  1  0
 26 21  1  0
 13  8  1  0
 29 19  1  0
M  END
>  <smiles>  (1522) 
C22467-P199

>  <fragmenstein_outcome>  (1522) 
acceptable

>  <inchikey>  (1522) 
ZYQAGVMMYAHOTR-UHFFFAOYSA-N

>  <fragmenstein_mode>  (1522) 
expansion

>  <HIPPO Pose ID>  (1522) 
22111

>  <Energy>  (1522) 
23.781628

>  <fragmenstein_error>  (1522) 


>  <tags>  (1522) 
{'openbind_xx01zvns2b_c1_fragmenstein', 'fragmenstein_placed'}

>  <ref_pdb>  (1522) 
175

>  <scratch_subdir>  (1522) 
/opt/xchem-fragalysis-2/maxwin/BulkDock/SCRATCH/511028/C22467-P199

>  <alias>  (1522) 
O=C(N[C@H]1CCN(c2ccccn2)C1)c1cccc2c1C1(CCNCC1)C(=O)N2

>  <HIPPO Compound ID>  (1522) 
22467

>  <fragmenstein_runtime>  (1522) 
5.903283

$$$$
CNC[C@@H]1C(=O)Nc2cc(Br)cc(C(=O)N[C@@H]3CCN(c4ccccn4)C3)c21
     RDKit          3D

 28 31  0  0  0  0  0  0  0  0999 V2000
   -3.2040    6.0298  -14.6788 C   0  0  0  0  0  0  0  0  0  0  0  0
   -4.1636    6.9285  -15.2966 N   0  0  0  0  0  0  0  0  0  0  0  0
   -4.4462    6.6280  -16.7043 C   0  0  0  0  0  0  0  0  0  0  0  0
   -4.9455    5.2309  -17.0795 C   0  0  2  0  0  0  0  0  0  0  0  0
   -4.6312    5.0486  -18.5902 C   0  0  0  0  0  0  0  0  0  0  0  0
   -3.5456    5.1600  -19.1404 O   0  0  0  0  0  0  0  0  0  0  0  0
   -5.8023    4.7139  -19.2315 N   0  0  0  0  0  0  0  0  0  0  0  0
   -6.8426    4.5979  -18.3322 C   0  0  0  0  0  0  0  0  0  0  0  0
   -8.1264    4.2529  -18.6704 C   0  0  0  0  0  0  0  0  0  0  0  0
   -9.0490    4.2528  -17.6448 C   0  0  0  0  0  0  0  0  0  0  0  0
  -10.8597    4.2087  -18.0861 Br  0  0  0  0  0  0  0  0  0  0  0  0
   -8.6831    4.5062  -16.3209 C   0  0  0  0  0  0  0  0  0  0  0  0
   -7.3609    4.8503  -15.9958 C   0  0  0  0  0  0  0  0  0  0  0  0
   -7.1794    5.4053  -14.6277 C   0  0  0  0  0  0  0  0  0  0  0  0
   -6.6650    6.4456  -14.5416 O   0  0  0  0  0  0  0  0  0  0  0  0
   -7.8156    4.5149  -13.5460 N   0  0  0  0  0  0  0  0  0  0  0  0
   -8.0383    4.7605  -12.1404 C   0  0  2  0  0  0  0  0  0  0  0  0
   -7.0469    5.7247  -11.5072 C   0  0  0  0  0  0  0  0  0  0  0  0
   -7.3661    5.5687  -10.0266 C   0  0  0  0  0  0  0  0  0  0  0  0
   -7.6630    4.1495   -9.8927 N   0  0  0  0  0  0  0  0  0  0  0  0
   -8.2309    3.7124   -8.7108 C   0  0  0  0  0  0  0  0  0  0  0  0
   -8.5606    2.3729   -8.5297 C   0  0  0  0  0  0  0  0  0  0  0  0
   -9.1204    1.9311   -7.3342 C   0  0  0  0  0  0  0  0  0  0  0  0
   -9.3173    2.8373   -6.3108 C   0  0  0  0  0  0  0  0  0  0  0  0
   -8.9498    4.1479   -6.5434 C   0  0  0  0  0  0  0  0  0  0  0  0
   -8.4262    4.6023   -7.7072 N   0  0  0  0  0  0  0  0  0  0  0  0
   -8.0014    3.5501  -11.1883 C   0  0  0  0  0  0  0  0  0  0  0  0
   -6.4273    4.9184  -17.0282 C   0  0  0  0  0  0  0  0  0  0  0  0
  1  2  1  0
  2  3  1  0
  4  3  1  6
  4  5  1  0
  5  6  2  0
  5  7  1  0
  7  8  1  0
  8  9  2  0
  9 10  1  0
 10 11  1  0
 10 12  2  0
 12 13  1  0
 13 14  1  0
 14 15  2  0
 14 16  1  0
 17 16  1  6
 17 18  1  0
 18 19  1  0
 19 20  1  0
 20 21  1  0
 21 22  2  0
 22 23  1  0
 23 24  2  0
 24 25  1  0
 25 26  2  0
 20 27  1  0
 13 28  2  0
 28  4  1  0
 28  8  1  0
 27 17  1  0
 26 21  1  0
M  END
>  <smiles>  (1523) 
C22638-P199

>  <fragmenstein_outcome>  (1523) 
acceptable

>  <inchikey>  (1523) 
PXDIQALWEOIVTA-UHFFFAOYSA-N

>  <fragmenstein_mode>  (1523) 
expansion

>  <HIPPO Pose ID>  (1523) 
22112

>  <Energy>  (1523) 
39.428034

>  <fragmenstein_error>  (1523) 


>  <tags>  (1523) 
{'openbind_xx01zvns2b_c1_fragmenstein', 'fragmenstein_placed'}

>  <ref_pdb>  (1523) 
175

>  <scratch_subdir>  (1523) 
/opt/xchem-fragalysis-2/maxwin/BulkDock/SCRATCH/511028/C22638-P199

>  <alias>  (1523) 
CNC[C@@H]1C(=O)Nc2cc(Br)cc(C(=O)N[C@@H]3CCN(c4ccccn4)C3)c21

>  <HIPPO Compound ID>  (1523) 
22638

>  <fragmenstein_runtime>  (1523) 
6.297661

$$$$
CNC[C@@H]1Cc2c(cc(Cl)cc2C(=O)N[C@@H]2CN(c3ccccn3)C3(CCN(C)CC3)C2)N1
     RDKit          3D

 33 37  0  0  0  0  0  0  0  0999 V2000
   -2.4410    6.2424  -21.3786 C   0  0  0  0  0  0  0  0  0  0  0  0
   -3.7724    6.1819  -20.8127 N   0  0  0  0  0  0  0  0  0  0  0  0
   -3.7676    5.7367  -19.4115 C   0  0  0  0  0  0  0  0  0  0  0  0
   -5.1765    5.7906  -18.8176 C   0  0  2  0  0  0  0  0  0  0  0  0
   -5.1961    5.4761  -17.3070 C   0  0  0  0  0  0  0  0  0  0  0  0
   -6.5886    4.9531  -17.1838 C   0  0  0  0  0  0  0  0  0  0  0  0
   -7.0443    4.6251  -18.4624 C   0  0  0  0  0  0  0  0  0  0  0  0
   -8.3208    4.1703  -18.6757 C   0  0  0  0  0  0  0  0  0  0  0  0
   -9.1762    4.1455  -17.5844 C   0  0  0  0  0  0  0  0  0  0  0  0
  -10.8461    4.0162  -17.9175 Cl  0  0  0  0  0  0  0  0  0  0  0  0
   -8.7325    4.4165  -16.2790 C   0  0  0  0  0  0  0  0  0  0  0  0
   -7.4101    4.8215  -16.0708 C   0  0  0  0  0  0  0  0  0  0  0  0
   -6.9613    5.3352  -14.7478 C   0  0  0  0  0  0  0  0  0  0  0  0
   -6.3814    6.3454  -14.7429 O   0  0  0  0  0  0  0  0  0  0  0  0
   -7.4023    4.4339  -13.5836 N   0  0  0  0  0  0  0  0  0  0  0  0
   -7.1396    4.5359  -12.1638 C   0  0  2  0  0  0  0  0  0  0  0  0
   -8.0070    3.6873  -11.2246 C   0  0  0  0  0  0  0  0  0  0  0  0
   -8.0310    4.4508   -9.9629 N   0  0  0  0  0  0  0  0  0  0  0  0
   -8.4016    3.7743   -8.8266 C   0  0  0  0  0  0  0  0  0  0  0  0
   -8.2525    4.2885   -7.5395 C   0  0  0  0  0  0  0  0  0  0  0  0
   -8.6751    3.5633   -6.4231 C   0  0  0  0  0  0  0  0  0  0  0  0
   -9.2206    2.3074   -6.6032 C   0  0  0  0  0  0  0  0  0  0  0  0
   -9.3125    1.8393   -7.8946 C   0  0  0  0  0  0  0  0  0  0  0  0
   -8.9424    2.5496   -8.9826 N   0  0  0  0  0  0  0  0  0  0  0  0
   -7.4583    5.8022  -10.1200 C   0  0  0  0  0  0  0  0  0  0  0  0
   -6.0306    5.8772   -9.5260 C   0  0  0  0  0  0  0  0  0  0  0  0
   -5.7759    7.1854   -8.7707 C   0  0  0  0  0  0  0  0  0  0  0  0
   -6.2653    8.3181   -9.5521 N   0  0  0  0  0  0  0  0  0  0  0  0
   -5.8071    9.5937   -9.0110 C   0  0  0  0  0  0  0  0  0  0  0  0
   -7.7268    8.3055   -9.7128 C   0  0  0  0  0  0  0  0  0  0  0  0
   -8.3623    6.9171   -9.5682 C   0  0  0  0  0  0  0  0  0  0  0  0
   -7.4107    5.9485  -11.6621 C   0  0  0  0  0  0  0  0  0  0  0  0
   -6.0713    4.8161  -19.4764 N   0  0  0  0  0  0  0  0  0  0  0  0
  1  2  1  0
  2  3  1  0
  4  3  1  6
  4  5  1  0
  5  6  1  0
  6  7  2  0
  7  8  1  0
  8  9  2  0
  9 10  1  0
  9 11  1  0
 11 12  2  0
 12 13  1  0
 13 14  2  0
 13 15  1  0
 16 15  1  6
 16 17  1  0
 17 18  1  0
 18 19  1  0
 19 20  2  0
 20 21  1  0
 21 22  2  0
 22 23  1  0
 23 24  2  0
 18 25  1  0
 25 26  1  0
 26 27  1  0
 27 28  1  0
 28 29  1  0
 28 30  1  0
 30 31  1  0
 25 32  1  0
  7 33  1  0
 33  4  1  0
 12  6  1  0
 32 16  1  0
 24 19  1  0
 31 25  1  0
M  END
>  <smiles>  (1524) 
C22645-P199

>  <fragmenstein_outcome>  (1524) 
acceptable

>  <inchikey>  (1524) 
VUOLDQSPHPAOOE-UHFFFAOYSA-N

>  <fragmenstein_mode>  (1524) 
expansion

>  <HIPPO Pose ID>  (1524) 
22114

>  <Energy>  (1524) 
75.902901

>  <fragmenstein_error>  (1524) 


>  <tags>  (1524) 
{'openbind_xx01zvns2b_c1_fragmenstein', 'fragmenstein_placed'}

>  <ref_pdb>  (1524) 
175

>  <scratch_subdir>  (1524) 
/opt/xchem-fragalysis-2/maxwin/BulkDock/SCRATCH/511028/C22645-P199

>  <alias>  (1524) 
CNC[C@@H]1Cc2c(cc(Cl)cc2C(=O)N[C@@H]2CN(c3ccccn3)C3(CCN(C)CC3)C2)N1

>  <HIPPO Compound ID>  (1524) 
26579

>  <fragmenstein_runtime>  (1524) 
6.517413

$$$$
CNC[C@@]1(O)Cc2c(cc(Cl)cc2C(=O)N[C@@H]2CN(c3ccccn3)C[C@@]23CCCC3=O)N1
     RDKit          3D

 33 37  0  0  0  0  0  0  0  0999 V2000
   -5.3125    8.7177  -18.9268 C   0  0  0  0  0  0  0  0  0  0  0  0
   -4.1551    8.2712  -18.1729 N   0  0  0  0  0  0  0  0  0  0  0  0
   -3.8073    6.8832  -18.5056 C   0  0  0  0  0  0  0  0  0  0  0  0
   -4.7687    5.7278  -18.1456 C   0  0  1  0  0  0  0  0  0  0  0  0
   -4.0491    4.5412  -18.4371 O   0  0  0  0  0  0  0  0  0  0  0  0
   -5.2251    5.7370  -16.6593 C   0  0  0  0  0  0  0  0  0  0  0  0
   -6.5898    5.1307  -16.7785 C   0  0  0  0  0  0  0  0  0  0  0  0
   -6.9269    5.0363  -18.1292 C   0  0  0  0  0  0  0  0  0  0  0  0
   -8.1663    4.5804  -18.5206 C   0  0  0  0  0  0  0  0  0  0  0  0
   -9.0916    4.2632  -17.5305 C   0  0  0  0  0  0  0  0  0  0  0  0
  -10.7119    4.0027  -17.9989 Cl  0  0  0  0  0  0  0  0  0  0  0  0
   -8.7700    4.3440  -16.1716 C   0  0  0  0  0  0  0  0  0  0  0  0
   -7.5065    4.7975  -15.7928 C   0  0  0  0  0  0  0  0  0  0  0  0
   -7.3090    5.2192  -14.3926 C   0  0  0  0  0  0  0  0  0  0  0  0
   -7.3827    6.3560  -14.1615 O   0  0  0  0  0  0  0  0  0  0  0  0
   -7.0983    4.0258  -13.4541 N   0  0  0  0  0  0  0  0  0  0  0  0
   -7.0269    3.9659  -12.0018 C   0  0  2  0  0  0  0  0  0  0  0  0
   -8.3341    4.2948  -11.2652 C   0  0  0  0  0  0  0  0  0  0  0  0
   -7.9339    4.6773   -9.9001 N   0  0  0  0  0  0  0  0  0  0  0  0
   -8.4084    3.8892   -8.8441 C   0  0  0  0  0  0  0  0  0  0  0  0
   -8.4418    4.4524   -7.5646 C   0  0  0  0  0  0  0  0  0  0  0  0
   -8.8557    3.6875   -6.4776 C   0  0  0  0  0  0  0  0  0  0  0  0
   -9.2161    2.3672   -6.6887 C   0  0  0  0  0  0  0  0  0  0  0  0
   -9.1488    1.8797   -7.9811 C   0  0  0  0  0  0  0  0  0  0  0  0
   -8.7670    2.6119   -9.0524 N   0  0  0  0  0  0  0  0  0  0  0  0
   -6.4688    4.7928   -9.8373 C   0  0  0  0  0  0  0  0  0  0  0  0
   -6.0007    4.8521  -11.2910 C   0  0  1  0  0  0  0  0  0  0  0  0
   -4.5540    4.3608  -11.4717 C   0  0  0  0  0  0  0  0  0  0  0  0
   -4.0413    5.0965  -12.7021 C   0  0  0  0  0  0  0  0  0  0  0  0
   -4.5951    6.5062  -12.5584 C   0  0  0  0  0  0  0  0  0  0  0  0
   -5.8492    6.2960  -11.7396 C   0  0  0  0  0  0  0  0  0  0  0  0
   -6.5749    7.2262  -11.4079 O   0  0  0  0  0  0  0  0  0  0  0  0
   -5.9692    5.6468  -18.9656 N   0  0  0  0  0  0  0  0  0  0  0  0
  1  2  1  0
  2  3  1  0
  3  4  1  0
  4  5  1  1
  4  6  1  0
  6  7  1  0
  7  8  2  0
  8  9  1  0
  9 10  2  0
 10 11  1  0
 10 12  1  0
 12 13  2  0
 13 14  1  0
 14 15  2  0
 14 16  1  0
 17 16  1  6
 17 18  1  0
 18 19  1  0
 19 20  1  0
 20 21  2  0
 21 22  1  0
 22 23  2  0
 23 24  1  0
 24 25  2  0
 19 26  1  0
 27 26  1  1
 27 28  1  0
 28 29  1  0
 29 30  1  0
 30 31  1  0
 31 32  2  0
  8 33  1  0
 33  4  1  0
 13  7  1  0
 27 17  1  0
 25 20  1  0
 31 27  1  0
M  END
>  <smiles>  (1525) 
C22646-P199

>  <fragmenstein_outcome>  (1525) 
acceptable

>  <inchikey>  (1525) 
PSILDHITUQUQTG-UHFFFAOYSA-N

>  <fragmenstein_mode>  (1525) 
expansion

>  <HIPPO Pose ID>  (1525) 
22116

>  <Energy>  (1525) 
62.542906

>  <fragmenstein_error>  (1525) 


>  <tags>  (1525) 
{'openbind_xx01zvns2b_c1_fragmenstein', 'fragmenstein_placed'}

>  <ref_pdb>  (1525) 
175

>  <scratch_subdir>  (1525) 
/opt/xchem-fragalysis-2/maxwin/BulkDock/SCRATCH/511028/C22646-P199

>  <alias>  (1525) 
CNC[C@@]1(O)Cc2c(cc(Cl)cc2C(=O)N[C@@H]2CN(c3ccccn3)C[C@@]23CCCC3=O)N1

>  <HIPPO Compound ID>  (1525) 
22995

>  <fragmenstein_runtime>  (1525) 
8.350915

$$$$
CNC[C@@H]1Cc2c(cc(Cl)cc2C(=O)N[C@@H]2CCN(c3ccc(C)cn3)C2)N1
     RDKit          3D

 28 31  0  0  0  0  0  0  0  0999 V2000
   -2.1010    7.1040  -17.5863 C   0  0  0  0  0  0  0  0  0  0  0  0
   -2.2986    5.6622  -17.5192 N   0  0  0  0  0  0  0  0  0  0  0  0
   -3.2907    5.1947  -18.4990 C   0  0  0  0  0  0  0  0  0  0  0  0
   -4.7495    5.6039  -18.2304 C   0  0  2  0  0  0  0  0  0  0  0  0
   -5.1298    5.4291  -16.7417 C   0  0  0  0  0  0  0  0  0  0  0  0
   -6.5418    4.9849  -16.8599 C   0  0  0  0  0  0  0  0  0  0  0  0
   -6.8104    4.6696  -18.1924 C   0  0  0  0  0  0  0  0  0  0  0  0
   -8.0622    4.2547  -18.5844 C   0  0  0  0  0  0  0  0  0  0  0  0
   -9.0590    4.2346  -17.6171 C   0  0  0  0  0  0  0  0  0  0  0  0
  -10.6854    4.1485  -18.1163 Cl  0  0  0  0  0  0  0  0  0  0  0  0
   -8.7942    4.4949  -16.2682 C   0  0  0  0  0  0  0  0  0  0  0  0
   -7.5155    4.8846  -15.8796 C   0  0  0  0  0  0  0  0  0  0  0  0
   -7.3137    5.4489  -14.5211 C   0  0  0  0  0  0  0  0  0  0  0  0
   -6.8397    6.5101  -14.4420 O   0  0  0  0  0  0  0  0  0  0  0  0
   -7.8818    4.5271  -13.4293 N   0  0  0  0  0  0  0  0  0  0  0  0
   -8.0743    4.7541  -12.0197 C   0  0  2  0  0  0  0  0  0  0  0  0
   -7.0696    5.7187  -11.4093 C   0  0  0  0  0  0  0  0  0  0  0  0
   -7.3268    5.5269   -9.9226 C   0  0  0  0  0  0  0  0  0  0  0  0
   -7.5766    4.0949   -9.8004 N   0  0  0  0  0  0  0  0  0  0  0  0
   -8.2216    3.6619   -8.6495 C   0  0  0  0  0  0  0  0  0  0  0  0
   -8.5321    2.3158   -8.4825 C   0  0  0  0  0  0  0  0  0  0  0  0
   -9.2601    1.8862   -7.3778 C   0  0  0  0  0  0  0  0  0  0  0  0
   -9.6348    2.8088   -6.4146 C   0  0  0  0  0  0  0  0  0  0  0  0
  -10.5206    2.4339   -5.2745 C   0  0  0  0  0  0  0  0  0  0  0  0
   -9.2237    4.1186   -6.6073 C   0  0  0  0  0  0  0  0  0  0  0  0
   -8.5366    4.5609   -7.6869 N   0  0  0  0  0  0  0  0  0  0  0  0
   -7.9728    3.5260  -11.0995 C   0  0  0  0  0  0  0  0  0  0  0  0
   -5.6807    4.7819  -19.0347 N   0  0  0  0  0  0  0  0  0  0  0  0
  1  2  1  0
  2  3  1  0
  4  3  1  1
  4  5  1  0
  5  6  1  0
  6  7  2  0
  7  8  1  0
  8  9  2  0
  9 10  1  0
  9 11  1  0
 11 12  2  0
 12 13  1  0
 13 14  2  0
 13 15  1  0
 16 15  1  6
 16 17  1  0
 17 18  1  0
 18 19  1  0
 19 20  1  0
 20 21  2  0
 21 22  1  0
 22 23  2  0
 23 24  1  0
 23 25  1  0
 25 26  2  0
 19 27  1  0
  7 28  1  0
 28  4  1  0
 12  6  1  0
 27 16  1  0
 26 20  1  0
M  END
>  <smiles>  (1526) 
C22647-P199

>  <fragmenstein_outcome>  (1526) 
acceptable

>  <inchikey>  (1526) 
MALSQHGNNOXZLC-UHFFFAOYSA-N

>  <fragmenstein_mode>  (1526) 
expansion

>  <HIPPO Pose ID>  (1526) 
22117

>  <Energy>  (1526) 
63.844059

>  <fragmenstein_error>  (1526) 


>  <tags>  (1526) 
{'openbind_xx01zvns2b_c1_fragmenstein', 'fragmenstein_placed'}

>  <ref_pdb>  (1526) 
175

>  <scratch_subdir>  (1526) 
/opt/xchem-fragalysis-2/maxwin/BulkDock/SCRATCH/511028/C22647-P199

>  <alias>  (1526) 
CNC[C@@H]1Cc2c(cc(Cl)cc2C(=O)N[C@@H]2CCN(c3ccc(C)cn3)C2)N1

>  <HIPPO Compound ID>  (1526) 
22647

>  <fragmenstein_runtime>  (1526) 
4.195315

$$$$
CNC[C@H]1Cc2c(cc(Cl)cc2C(=O)N[C@H]2CCN(c3ccccn3)C2)N1
     RDKit          3D

 27 30  0  0  0  0  0  0  0  0999 V2000
   -5.6251    7.8914  -19.6519 C   0  0  0  0  0  0  0  0  0  0  0  0
   -4.2585    7.6989  -19.1887 N   0  0  0  0  0  0  0  0  0  0  0  0
   -3.8205    6.2999  -19.3122 C   0  0  0  0  0  0  0  0  0  0  0  0
   -4.6618    5.1953  -18.6364 C   0  0  1  0  0  0  0  0  0  0  0  0
   -5.0364    5.4763  -17.1623 C   0  0  0  0  0  0  0  0  0  0  0  0
   -6.4327    4.9355  -17.1023 C   0  0  0  0  0  0  0  0  0  0  0  0
   -6.8529    4.6207  -18.3949 C   0  0  0  0  0  0  0  0  0  0  0  0
   -8.1532    4.2491  -18.6409 C   0  0  0  0  0  0  0  0  0  0  0  0
   -9.0310    4.1926  -17.5642 C   0  0  0  0  0  0  0  0  0  0  0  0
  -10.6971    4.0388  -17.9176 Cl  0  0  0  0  0  0  0  0  0  0  0  0
   -8.6101    4.4354  -16.2467 C   0  0  0  0  0  0  0  0  0  0  0  0
   -7.2871    4.8227  -16.0094 C   0  0  0  0  0  0  0  0  0  0  0  0
   -6.8405    5.3002  -14.6689 C   0  0  0  0  0  0  0  0  0  0  0  0
   -6.1911    6.2660  -14.6337 O   0  0  0  0  0  0  0  0  0  0  0  0
   -7.3256    4.3846  -13.5346 N   0  0  0  0  0  0  0  0  0  0  0  0
   -7.1940    4.5151  -12.1021 C   0  0  1  0  0  0  0  0  0  0  0  0
   -7.6726    5.8823  -11.6200 C   0  0  0  0  0  0  0  0  0  0  0  0
   -7.8113    5.6707  -10.1217 C   0  0  0  0  0  0  0  0  0  0  0  0
   -8.3022    4.3087  -10.0292 N   0  0  0  0  0  0  0  0  0  0  0  0
   -8.5686    3.7701   -8.7945 C   0  0  0  0  0  0  0  0  0  0  0  0
   -8.9970    2.4541   -8.6537 C   0  0  0  0  0  0  0  0  0  0  0  0
   -9.2955    1.9344   -7.3972 C   0  0  0  0  0  0  0  0  0  0  0  0
   -9.1738    2.7501   -6.2890 C   0  0  0  0  0  0  0  0  0  0  0  0
   -8.7530    4.0484   -6.4947 C   0  0  0  0  0  0  0  0  0  0  0  0
   -8.4609    4.5725   -7.7072 N   0  0  0  0  0  0  0  0  0  0  0  0
   -7.9953    3.5307  -11.2271 C   0  0  0  0  0  0  0  0  0  0  0  0
   -5.9067    4.9494  -19.3692 N   0  0  0  0  0  0  0  0  0  0  0  0
  1  2  1  0
  2  3  1  0
  4  3  1  6
  4  5  1  0
  5  6  1  0
  6  7  2  0
  7  8  1  0
  8  9  2  0
  9 10  1  0
  9 11  1  0
 11 12  2  0
 12 13  1  0
 13 14  2  0
 13 15  1  0
 16 15  1  6
 16 17  1  0
 17 18  1  0
 18 19  1  0
 19 20  1  0
 20 21  2  0
 21 22  1  0
 22 23  2  0
 23 24  1  0
 24 25  2  0
 19 26  1  0
  7 27  1  0
 27  4  1  0
 12  6  1  0
 26 16  1  0
 25 20  1  0
M  END
>  <smiles>  (1527) 
C22626-P199

>  <fragmenstein_outcome>  (1527) 
acceptable

>  <inchikey>  (1527) 
OGQRRHGNKQNFSE-UHFFFAOYSA-N

>  <fragmenstein_mode>  (1527) 
expansion

>  <HIPPO Pose ID>  (1527) 
22118

>  <Energy>  (1527) 
61.771546

>  <fragmenstein_error>  (1527) 


>  <tags>  (1527) 
{'openbind_xx01zvns2b_c1_fragmenstein', 'fragmenstein_placed'}

>  <ref_pdb>  (1527) 
175

>  <scratch_subdir>  (1527) 
/opt/xchem-fragalysis-2/maxwin/BulkDock/SCRATCH/511028/C22626-P199

>  <alias>  (1527) 
CNC[C@H]1Cc2c(cc(Cl)cc2C(=O)N[C@H]2CCN(c3ccccn3)C2)N1

>  <HIPPO Compound ID>  (1527) 
22626

>  <fragmenstein_runtime>  (1527) 
4.547107

$$$$
CNC[C@]1(O)Cc2c(cc(Cl)cc2C(=O)N[C@H]2CN(c3ccccn3)C[C@@H]2F)N1
     RDKit          3D

 29 32  0  0  0  0  0  0  0  0999 V2000
   -2.1760    4.8537  -18.4735 C   0  0  0  0  0  0  0  0  0  0  0  0
   -2.8579    5.9335  -19.1679 N   0  0  0  0  0  0  0  0  0  0  0  0
   -4.0993    5.4821  -19.8035 C   0  0  0  0  0  0  0  0  0  0  0  0
   -5.4326    5.6572  -19.0295 C   0  0  2  0  0  0  0  0  0  0  0  0
   -5.9453    6.9691  -19.2958 O   0  0  0  0  0  0  0  0  0  0  0  0
   -5.4366    5.4048  -17.4888 C   0  0  0  0  0  0  0  0  0  0  0  0
   -6.8249    4.8592  -17.2974 C   0  0  0  0  0  0  0  0  0  0  0  0
   -7.3140    4.5243  -18.5666 C   0  0  0  0  0  0  0  0  0  0  0  0
   -8.5926    4.0840  -18.7730 C   0  0  0  0  0  0  0  0  0  0  0  0
   -9.4309    4.0925  -17.6835 C   0  0  0  0  0  0  0  0  0  0  0  0
  -11.1026    4.0277  -17.9854 Cl  0  0  0  0  0  0  0  0  0  0  0  0
   -8.9620    4.3558  -16.3923 C   0  0  0  0  0  0  0  0  0  0  0  0
   -7.6262    4.7200  -16.1683 C   0  0  0  0  0  0  0  0  0  0  0  0
   -7.2374    5.2148  -14.8025 C   0  0  0  0  0  0  0  0  0  0  0  0
   -6.4802    6.0998  -14.7412 O   0  0  0  0  0  0  0  0  0  0  0  0
   -8.0243    4.4891  -13.6844 N   0  0  0  0  0  0  0  0  0  0  0  0
   -8.1146    4.7670  -12.2631 C   0  0  1  0  0  0  0  0  0  0  0  0
   -7.8880    3.5767  -11.3163 C   0  0  0  0  0  0  0  0  0  0  0  0
   -7.5609    4.2051  -10.0296 N   0  0  0  0  0  0  0  0  0  0  0  0
   -8.1269    3.7629   -8.8445 C   0  0  0  0  0  0  0  0  0  0  0  0
   -8.4005    2.4133   -8.6432 C   0  0  0  0  0  0  0  0  0  0  0  0
   -8.9681    1.9688   -7.4511 C   0  0  0  0  0  0  0  0  0  0  0  0
   -9.2208    2.8816   -6.4461 C   0  0  0  0  0  0  0  0  0  0  0  0
   -8.8988    4.2013   -6.6944 C   0  0  0  0  0  0  0  0  0  0  0  0
   -8.3721    4.6577   -7.8574 N   0  0  0  0  0  0  0  0  0  0  0  0
   -7.3731    5.6468  -10.1955 C   0  0  0  0  0  0  0  0  0  0  0  0
   -7.1909    5.8392  -11.7001 C   0  0  2  0  0  0  0  0  0  0  0  0
   -7.6162    7.0759  -12.0691 F   0  0  0  0  0  0  0  0  0  0  0  0
   -6.3889    4.7174  -19.6041 N   0  0  0  0  0  0  0  0  0  0  0  0
  1  2  1  0
  2  3  1  0
  3  4  1  0
  4  5  1  1
  4  6  1  0
  6  7  1  0
  7  8  2  0
  8  9  1  0
  9 10  2  0
 10 11  1  0
 10 12  1  0
 12 13  2  0
 13 14  1  0
 14 15  2  0
 14 16  1  0
 17 16  1  6
 17 18  1  0
 18 19  1  0
 19 20  1  0
 20 21  2  0
 21 22  1  0
 22 23  2  0
 23 24  1  0
 24 25  2  0
 19 26  1  0
 26 27  1  0
 27 28  1  6
  8 29  1  0
 29  4  1  0
 13  7  1  0
 27 17  1  0
 25 20  1  0
M  END
>  <smiles>  (1528) 
C22651-P199

>  <fragmenstein_outcome>  (1528) 
acceptable

>  <inchikey>  (1528) 
AOQYTADPWIMDHE-UHFFFAOYSA-N

>  <fragmenstein_mode>  (1528) 
expansion

>  <HIPPO Pose ID>  (1528) 
22119

>  <Energy>  (1528) 
92.302198

>  <fragmenstein_error>  (1528) 


>  <tags>  (1528) 
{'openbind_xx01zvns2b_c1_fragmenstein', 'fragmenstein_placed'}

>  <ref_pdb>  (1528) 
175

>  <scratch_subdir>  (1528) 
/opt/xchem-fragalysis-2/maxwin/BulkDock/SCRATCH/511028/C22651-P199

>  <alias>  (1528) 
CNC[C@]1(O)Cc2c(cc(Cl)cc2C(=O)N[C@H]2CN(c3ccccn3)C[C@@H]2F)N1

>  <HIPPO Compound ID>  (1528) 
22651

>  <fragmenstein_runtime>  (1528) 
6.755081

$$$$
CNC[C@]1(O)Cc2c(cc(Cl)cc2C(=O)N[C@@H]2CCN(c3ccccn3)C2)N1
     RDKit          3D

 28 31  0  0  0  0  0  0  0  0999 V2000
   -2.6521    6.0284  -21.1046 C   0  0  0  0  0  0  0  0  0  0  0  0
   -3.4314    4.9696  -20.4764 N   0  0  0  0  0  0  0  0  0  0  0  0
   -3.6165    5.2552  -19.0278 C   0  0  0  0  0  0  0  0  0  0  0  0
   -5.0569    5.6511  -18.6198 C   0  0  2  0  0  0  0  0  0  0  0  0
   -5.3300    6.9621  -19.0941 O   0  0  0  0  0  0  0  0  0  0  0  0
   -5.2976    5.5633  -17.0893 C   0  0  0  0  0  0  0  0  0  0  0  0
   -6.6813    4.9984  -17.0481 C   0  0  0  0  0  0  0  0  0  0  0  0
   -7.0498    4.6271  -18.3425 C   0  0  0  0  0  0  0  0  0  0  0  0
   -8.3080    4.1562  -18.6366 C   0  0  0  0  0  0  0  0  0  0  0  0
   -9.2299    4.1359  -17.6062 C   0  0  0  0  0  0  0  0  0  0  0  0
  -10.8849    4.0174  -18.0007 Cl  0  0  0  0  0  0  0  0  0  0  0  0
   -8.8643    4.4192  -16.2865 C   0  0  0  0  0  0  0  0  0  0  0  0
   -7.5668    4.8493  -15.9878 C   0  0  0  0  0  0  0  0  0  0  0  0
   -7.3024    5.4077  -14.6295 C   0  0  0  0  0  0  0  0  0  0  0  0
   -6.7530    6.4340  -14.5684 O   0  0  0  0  0  0  0  0  0  0  0  0
   -7.9167    4.5349  -13.5159 N   0  0  0  0  0  0  0  0  0  0  0  0
   -8.0678    4.7873  -12.1039 C   0  0  2  0  0  0  0  0  0  0  0  0
   -7.0242    5.7119  -11.4998 C   0  0  0  0  0  0  0  0  0  0  0  0
   -7.3075    5.5568  -10.0098 C   0  0  0  0  0  0  0  0  0  0  0  0
   -7.6529    4.1488   -9.8741 N   0  0  0  0  0  0  0  0  0  0  0  0
   -8.2228    3.7176   -8.6919 C   0  0  0  0  0  0  0  0  0  0  0  0
   -8.5664    2.3803   -8.5142 C   0  0  0  0  0  0  0  0  0  0  0  0
   -9.1279    1.9408   -7.3190 C   0  0  0  0  0  0  0  0  0  0  0  0
   -9.3145    2.8470   -6.2936 C   0  0  0  0  0  0  0  0  0  0  0  0
   -8.9351    4.1550   -6.5239 C   0  0  0  0  0  0  0  0  0  0  0  0
   -8.4085    4.6080   -7.6867 N   0  0  0  0  0  0  0  0  0  0  0  0
   -8.0275    3.5654  -11.1672 C   0  0  0  0  0  0  0  0  0  0  0  0
   -6.0477    4.8331  -19.3141 N   0  0  0  0  0  0  0  0  0  0  0  0
  1  2  1  0
  2  3  1  0
  3  4  1  0
  4  5  1  6
  4  6  1  0
  6  7  1  0
  7  8  2  0
  8  9  1  0
  9 10  2  0
 10 11  1  0
 10 12  1  0
 12 13  2  0
 13 14  1  0
 14 15  2  0
 14 16  1  0
 17 16  1  6
 17 18  1  0
 18 19  1  0
 19 20  1  0
 20 21  1  0
 21 22  2  0
 22 23  1  0
 23 24  2  0
 24 25  1  0
 25 26  2  0
 20 27  1  0
  8 28  1  0
 28  4  1  0
 13  7  1  0
 27 17  1  0
 26 21  1  0
M  END
>  <smiles>  (1529) 
C22636-P199

>  <fragmenstein_outcome>  (1529) 
acceptable

>  <inchikey>  (1529) 
UGPRSXASOPMQNI-UHFFFAOYSA-N

>  <fragmenstein_mode>  (1529) 
expansion

>  <HIPPO Pose ID>  (1529) 
22120

>  <Energy>  (1529) 
50.838984

>  <fragmenstein_error>  (1529) 


>  <tags>  (1529) 
{'openbind_xx01zvns2b_c1_fragmenstein', 'fragmenstein_placed'}

>  <ref_pdb>  (1529) 
175

>  <scratch_subdir>  (1529) 
/opt/xchem-fragalysis-2/maxwin/BulkDock/SCRATCH/511028/C22636-P199

>  <alias>  (1529) 
CNC[C@]1(O)Cc2c(cc(Cl)cc2C(=O)N[C@@H]2CCN(c3ccccn3)C2)N1

>  <HIPPO Compound ID>  (1529) 
22636

>  <fragmenstein_runtime>  (1529) 
5.011366

$$$$
CNC[C@H]1Cc2c(cc(Cl)cc2C(=O)N[C@H]2CCN(c3ccc(F)cn3)C2)N1
     RDKit          3D

 28 31  0  0  0  0  0  0  0  0999 V2000
   -5.3410    7.5070  -20.4425 C   0  0  0  0  0  0  0  0  0  0  0  0
   -4.1402    7.3619  -19.6413 N   0  0  0  0  0  0  0  0  0  0  0  0
   -3.7352    5.9690  -19.4424 C   0  0  0  0  0  0  0  0  0  0  0  0
   -4.6389    5.0208  -18.6351 C   0  0  1  0  0  0  0  0  0  0  0  0
   -5.0647    5.4851  -17.2270 C   0  0  0  0  0  0  0  0  0  0  0  0
   -6.4540    4.9432  -17.1471 C   0  0  0  0  0  0  0  0  0  0  0  0
   -6.8632    4.5569  -18.4199 C   0  0  0  0  0  0  0  0  0  0  0  0
   -8.1654    4.1844  -18.6633 C   0  0  0  0  0  0  0  0  0  0  0  0
   -9.0593    4.2066  -17.5994 C   0  0  0  0  0  0  0  0  0  0  0  0
  -10.7238    4.0488  -17.9508 Cl  0  0  0  0  0  0  0  0  0  0  0  0
   -8.6468    4.5020  -16.2929 C   0  0  0  0  0  0  0  0  0  0  0  0
   -7.3226    4.8862  -16.0632 C   0  0  0  0  0  0  0  0  0  0  0  0
   -6.9013    5.4017  -14.7347 C   0  0  0  0  0  0  0  0  0  0  0  0
   -6.3343    6.4191  -14.7076 O   0  0  0  0  0  0  0  0  0  0  0  0
   -7.3648    4.4875  -13.5876 N   0  0  0  0  0  0  0  0  0  0  0  0
   -7.1448    4.5847  -12.1619 C   0  0  1  0  0  0  0  0  0  0  0  0
   -7.6060    5.9387  -11.6292 C   0  0  0  0  0  0  0  0  0  0  0  0
   -7.6715    5.7117  -10.1275 C   0  0  0  0  0  0  0  0  0  0  0  0
   -8.0661    4.3209  -10.0105 N   0  0  0  0  0  0  0  0  0  0  0  0
   -8.4656    3.8133   -8.8058 C   0  0  0  0  0  0  0  0  0  0  0  0
   -8.8688    2.4868   -8.6615 C   0  0  0  0  0  0  0  0  0  0  0  0
   -9.3275    2.0063   -7.4347 C   0  0  0  0  0  0  0  0  0  0  0  0
   -9.3784    2.8765   -6.3687 C   0  0  0  0  0  0  0  0  0  0  0  0
   -9.8785    2.4961   -5.1883 F   0  0  0  0  0  0  0  0  0  0  0  0
   -8.9447    4.1709   -6.5581 C   0  0  0  0  0  0  0  0  0  0  0  0
   -8.4969    4.6558   -7.7415 N   0  0  0  0  0  0  0  0  0  0  0  0
   -7.9046    3.5867  -11.2621 C   0  0  0  0  0  0  0  0  0  0  0  0
   -5.8319    4.5586  -19.3748 N   0  0  0  0  0  0  0  0  0  0  0  0
  1  2  1  0
  2  3  1  0
  4  3  1  6
  4  5  1  0
  5  6  1  0
  6  7  2  0
  7  8  1  0
  8  9  2  0
  9 10  1  0
  9 11  1  0
 11 12  2  0
 12 13  1  0
 13 14  2  0
 13 15  1  0
 16 15  1  6
 16 17  1  0
 17 18  1  0
 18 19  1  0
 19 20  1  0
 20 21  2  0
 21 22  1  0
 22 23  2  0
 23 24  1  0
 23 25  1  0
 25 26  2  0
 19 27  1  0
  7 28  1  0
 28  4  1  0
 12  6  1  0
 27 16  1  0
 26 20  1  0
M  END
>  <smiles>  (1530) 
C22653-P199

>  <fragmenstein_outcome>  (1530) 
acceptable

>  <inchikey>  (1530) 
HTNVZEYLQPHJCN-UHFFFAOYSA-N

>  <fragmenstein_mode>  (1530) 
expansion

>  <HIPPO Pose ID>  (1530) 
22121

>  <Energy>  (1530) 
70.01164

>  <fragmenstein_error>  (1530) 


>  <tags>  (1530) 
{'openbind_xx01zvns2b_c1_fragmenstein', 'fragmenstein_placed'}

>  <ref_pdb>  (1530) 
175

>  <scratch_subdir>  (1530) 
/opt/xchem-fragalysis-2/maxwin/BulkDock/SCRATCH/511028/C22653-P199

>  <alias>  (1530) 
CNC[C@H]1Cc2c(cc(Cl)cc2C(=O)N[C@H]2CCN(c3ccc(F)cn3)C2)N1

>  <HIPPO Compound ID>  (1530) 
22653

>  <fragmenstein_runtime>  (1530) 
5.225014

$$$$
CNC[C@H]1Cc2c(cc(Cl)cc2C(=O)N[C@H]2CCN(c3ccc(C(F)F)cn3)C2)N1
     RDKit          3D

 30 33  0  0  0  0  0  0  0  0999 V2000
   -2.6800    7.1756  -18.7872 C   0  0  0  0  0  0  0  0  0  0  0  0
   -4.0215    7.7032  -18.9789 N   0  0  0  0  0  0  0  0  0  0  0  0
   -4.9514    6.7183  -19.5492 C   0  0  0  0  0  0  0  0  0  0  0  0
   -4.9895    5.3071  -18.8995 C   0  0  1  0  0  0  0  0  0  0  0  0
   -5.2007    5.3260  -17.3633 C   0  0  0  0  0  0  0  0  0  0  0  0
   -6.6159    4.8804  -17.2411 C   0  0  0  0  0  0  0  0  0  0  0  0
   -7.0751    4.5069  -18.5000 C   0  0  0  0  0  0  0  0  0  0  0  0
   -8.3766    4.1177  -18.6908 C   0  0  0  0  0  0  0  0  0  0  0  0
   -9.2280    4.1514  -17.5955 C   0  0  0  0  0  0  0  0  0  0  0  0
  -10.8972    3.9810  -17.9039 Cl  0  0  0  0  0  0  0  0  0  0  0  0
   -8.7709    4.4571  -16.3036 C   0  0  0  0  0  0  0  0  0  0  0  0
   -7.4375    4.8280  -16.1188 C   0  0  0  0  0  0  0  0  0  0  0  0
   -6.9364    5.3290  -14.8068 C   0  0  0  0  0  0  0  0  0  0  0  0
   -6.3052    6.3082  -14.8212 O   0  0  0  0  0  0  0  0  0  0  0  0
   -7.3554    4.4301  -13.6309 N   0  0  0  0  0  0  0  0  0  0  0  0
   -7.1660    4.5969  -12.2078 C   0  0  1  0  0  0  0  0  0  0  0  0
   -7.7556    5.9100  -11.7050 C   0  0  0  0  0  0  0  0  0  0  0  0
   -7.7614    5.7275  -10.1913 C   0  0  0  0  0  0  0  0  0  0  0  0
   -7.9016    4.2918  -10.0078 N   0  0  0  0  0  0  0  0  0  0  0  0
   -8.3919    3.8008   -8.8254 C   0  0  0  0  0  0  0  0  0  0  0  0
   -8.7177    2.4594   -8.6667 C   0  0  0  0  0  0  0  0  0  0  0  0
   -9.3003    1.9962   -7.4875 C   0  0  0  0  0  0  0  0  0  0  0  0
   -9.5335    2.8894   -6.4523 C   0  0  0  0  0  0  0  0  0  0  0  0
  -10.2781    2.5154   -5.2136 C   0  0  0  0  0  0  0  0  0  0  0  0
  -11.6045    2.8138   -5.3070 F   0  0  0  0  0  0  0  0  0  0  0  0
   -9.8409    3.2051   -4.1174 F   0  0  0  0  0  0  0  0  0  0  0  0
   -9.1271    4.1969   -6.6529 C   0  0  0  0  0  0  0  0  0  0  0  0
   -8.5721    4.6641   -7.7979 N   0  0  0  0  0  0  0  0  0  0  0  0
   -7.8136    3.5627  -11.2691 C   0  0  0  0  0  0  0  0  0  0  0  0
   -6.0811    4.5115  -19.4974 N   0  0  0  0  0  0  0  0  0  0  0  0
  1  2  1  0
  2  3  1  0
  4  3  1  6
  4  5  1  0
  5  6  1  0
  6  7  2  0
  7  8  1  0
  8  9  2  0
  9 10  1  0
  9 11  1  0
 11 12  2  0
 12 13  1  0
 13 14  2  0
 13 15  1  0
 16 15  1  6
 16 17  1  0
 17 18  1  0
 18 19  1  0
 19 20  1  0
 20 21  2  0
 21 22  1  0
 22 23  2  0
 23 24  1  0
 24 25  1  0
 24 26  1  0
 23 27  1  0
 27 28  2  0
 19 29  1  0
  7 30  1  0
 30  4  1  0
 12  6  1  0
 29 16  1  0
 28 20  1  0
M  END
>  <smiles>  (1531) 
C22654-P199

>  <fragmenstein_outcome>  (1531) 
acceptable

>  <inchikey>  (1531) 
QJPNHCVIGAYBEK-UHFFFAOYSA-N

>  <fragmenstein_mode>  (1531) 
expansion

>  <HIPPO Pose ID>  (1531) 
22122

>  <Energy>  (1531) 
69.406175

>  <fragmenstein_error>  (1531) 


>  <tags>  (1531) 
{'openbind_xx01zvns2b_c1_fragmenstein', 'fragmenstein_placed'}

>  <ref_pdb>  (1531) 
175

>  <scratch_subdir>  (1531) 
/opt/xchem-fragalysis-2/maxwin/BulkDock/SCRATCH/511028/C22654-P199

>  <alias>  (1531) 
CNC[C@H]1Cc2c(cc(Cl)cc2C(=O)N[C@H]2CCN(c3ccc(C(F)F)cn3)C2)N1

>  <HIPPO Compound ID>  (1531) 
22654

>  <fragmenstein_runtime>  (1531) 
5.463323

$$$$
CNC[C@@H]1Nc2cc(F)cc(C(=O)N[C@@H]3CCN(c4ccccn4)C3)c2[C@@]12CC[C@@H](OC)NN2
     RDKit          3D

 34 38  0  0  0  0  0  0  0  0999 V2000
   -5.1105    8.3531  -21.2598 C   0  0  0  0  0  0  0  0  0  0  0  0
   -5.5388    7.5778  -20.1017 N   0  0  0  0  0  0  0  0  0  0  0  0
   -4.3955    6.7889  -19.5953 C   0  0  0  0  0  0  0  0  0  0  0  0
   -4.6926    5.6091  -18.6263 C   0  0  2  0  0  0  0  0  0  0  0  0
   -5.6828    4.7022  -19.2537 N   0  0  0  0  0  0  0  0  0  0  0  0
   -6.7685    4.6703  -18.3613 C   0  0  0  0  0  0  0  0  0  0  0  0
   -7.9714    4.0471  -18.6558 C   0  0  0  0  0  0  0  0  0  0  0  0
   -8.9137    3.9329  -17.6519 C   0  0  0  0  0  0  0  0  0  0  0  0
  -10.0960    3.3698  -17.9201 F   0  0  0  0  0  0  0  0  0  0  0  0
   -8.6539    4.3917  -16.3634 C   0  0  0  0  0  0  0  0  0  0  0  0
   -7.4274    5.0131  -16.0613 C   0  0  0  0  0  0  0  0  0  0  0  0
   -7.2484    5.5843  -14.6879 C   0  0  0  0  0  0  0  0  0  0  0  0
   -6.7699    6.6439  -14.6003 O   0  0  0  0  0  0  0  0  0  0  0  0
   -7.8452    4.6650  -13.6040 N   0  0  0  0  0  0  0  0  0  0  0  0
   -8.0652    4.8954  -12.1987 C   0  0  2  0  0  0  0  0  0  0  0  0
   -7.0311    5.8030  -11.5503 C   0  0  0  0  0  0  0  0  0  0  0  0
   -7.3387    5.6335  -10.0685 C   0  0  0  0  0  0  0  0  0  0  0  0
   -7.7750    4.2561   -9.9608 N   0  0  0  0  0  0  0  0  0  0  0  0
   -8.2650    3.6795   -8.8172 C   0  0  0  0  0  0  0  0  0  0  0  0
   -8.1953    4.3141   -7.5760 C   0  0  0  0  0  0  0  0  0  0  0  0
   -8.6974    3.6884   -6.4336 C   0  0  0  0  0  0  0  0  0  0  0  0
   -9.2441    2.4222   -6.5443 C   0  0  0  0  0  0  0  0  0  0  0  0
   -9.2671    1.8469   -7.7972 C   0  0  0  0  0  0  0  0  0  0  0  0
   -8.8165    2.4566   -8.9143 N   0  0  0  0  0  0  0  0  0  0  0  0
   -8.0654    3.6662  -11.2702 C   0  0  0  0  0  0  0  0  0  0  0  0
   -6.4910    5.1925  -17.0915 C   0  0  0  0  0  0  0  0  0  0  0  0
   -5.1323    5.8959  -17.1166 C   0  0  1  0  0  0  0  0  0  0  0  0
   -4.1643    5.2246  -16.1049 C   0  0  0  0  0  0  0  0  0  0  0  0
   -2.8584    5.9950  -15.9119 C   0  0  0  0  0  0  0  0  0  0  0  0
   -3.1398    7.4593  -15.5899 C   0  0  1  0  0  0  0  0  0  0  0  0
   -1.8844    8.1291  -15.5168 O   0  0  0  0  0  0  0  0  0  0  0  0
   -1.9248    9.2749  -14.6786 C   0  0  0  0  0  0  0  0  0  0  0  0
   -3.9415    7.9887  -16.6928 N   0  0  0  0  0  0  0  0  0  0  0  0
   -5.2471    7.3300  -16.7527 N   0  0  0  0  0  0  0  0  0  0  0  0
  1  2  1  0
  2  3  1  0
  4  3  1  6
  4  5  1  0
  5  6  1  0
  6  7  2  0
  7  8  1  0
  8  9  1  0
  8 10  2  0
 10 11  1  0
 11 12  1  0
 12 13  2  0
 12 14  1  0
 15 14  1  6
 15 16  1  0
 16 17  1  0
 17 18  1  0
 18 19  1  0
 19 20  2  0
 20 21  1  0
 21 22  2  0
 22 23  1  0
 23 24  2  0
 18 25  1  0
 11 26  2  0
 26 27  1  0
 27 28  1  1
 28 29  1  0
 29 30  1  0
 30 31  1  6
 31 32  1  0
 30 33  1  0
 33 34  1  0
 27  4  1  0
 26  6  1  0
 34 27  1  0
 25 15  1  0
 24 19  1  0
M  END
>  <smiles>  (1532) 
C22658-P199

>  <fragmenstein_outcome>  (1532) 
acceptable

>  <inchikey>  (1532) 
IHNNGXOPTNDKCV-UHFFFAOYSA-N

>  <fragmenstein_mode>  (1532) 
expansion

>  <HIPPO Pose ID>  (1532) 
22126

>  <Energy>  (1532) 
125.989127

>  <fragmenstein_error>  (1532) 


>  <tags>  (1532) 
{'openbind_xx01zvns2b_c1_fragmenstein', 'fragmenstein_placed'}

>  <ref_pdb>  (1532) 
175

>  <scratch_subdir>  (1532) 
/opt/xchem-fragalysis-2/maxwin/BulkDock/SCRATCH/511028/C22658-P199

>  <alias>  (1532) 
CNC[C@@H]1Nc2cc(F)cc(C(=O)N[C@@H]3CCN(c4ccccn4)C3)c2[C@@]12CC[C@@H](OC)NN2

>  <HIPPO Compound ID>  (1532) 
32844

>  <fragmenstein_runtime>  (1532) 
7.359008

$$$$
CNC[C@H]1Cc2c(cccc2C(=O)N[C@H]2CCN(c3ccccn3)C2)N1
     RDKit          3D

 26 29  0  0  0  0  0  0  0  0999 V2000
   -3.8126    5.0732  -21.3292 C   0  0  0  0  0  0  0  0  0  0  0  0
   -3.0046    5.1096  -20.1230 N   0  0  0  0  0  0  0  0  0  0  0  0
   -3.6669    5.8043  -19.0068 C   0  0  0  0  0  0  0  0  0  0  0  0
   -4.8471    5.0397  -18.4075 C   0  0  1  0  0  0  0  0  0  0  0  0
   -5.1998    5.5342  -16.9929 C   0  0  0  0  0  0  0  0  0  0  0  0
   -6.6034    5.0397  -16.9182 C   0  0  0  0  0  0  0  0  0  0  0  0
   -7.0544    4.7636  -18.2064 C   0  0  0  0  0  0  0  0  0  0  0  0
   -8.3420    4.3233  -18.4375 C   0  0  0  0  0  0  0  0  0  0  0  0
   -9.1806    4.1389  -17.3394 C   0  0  0  0  0  0  0  0  0  0  0  0
   -8.7265    4.4178  -16.0384 C   0  0  0  0  0  0  0  0  0  0  0  0
   -7.4265    4.8803  -15.8233 C   0  0  0  0  0  0  0  0  0  0  0  0
   -6.9631    5.3536  -14.4988 C   0  0  0  0  0  0  0  0  0  0  0  0
   -6.4491    6.3971  -14.4465 O   0  0  0  0  0  0  0  0  0  0  0  0
   -7.2827    4.3462  -13.3881 N   0  0  0  0  0  0  0  0  0  0  0  0
   -7.1243    4.4461  -11.9612 C   0  0  1  0  0  0  0  0  0  0  0  0
   -7.6171    5.7986  -11.4510 C   0  0  0  0  0  0  0  0  0  0  0  0
   -7.7498    5.5611   -9.9595 C   0  0  0  0  0  0  0  0  0  0  0  0
   -8.1993    4.1862   -9.8871 N   0  0  0  0  0  0  0  0  0  0  0  0
   -8.5572    3.6451   -8.6828 C   0  0  0  0  0  0  0  0  0  0  0  0
   -8.9658    2.3206   -8.5701 C   0  0  0  0  0  0  0  0  0  0  0  0
   -9.3888    1.8234   -7.3418 C   0  0  0  0  0  0  0  0  0  0  0  0
   -9.3897    2.6538   -6.2373 C   0  0  0  0  0  0  0  0  0  0  0  0
   -8.9562    3.9503   -6.4132 C   0  0  0  0  0  0  0  0  0  0  0  0
   -8.5564    4.4618   -7.5978 N   0  0  0  0  0  0  0  0  0  0  0  0
   -7.9048    3.4347  -11.1032 C   0  0  0  0  0  0  0  0  0  0  0  0
   -6.0967    5.1289  -19.1891 N   0  0  0  0  0  0  0  0  0  0  0  0
  1  2  1  0
  2  3  1  0
  4  3  1  6
  4  5  1  0
  5  6  1  0
  6  7  2  0
  7  8  1  0
  8  9  2  0
  9 10  1  0
 10 11  2  0
 11 12  1  0
 12 13  2  0
 12 14  1  0
 15 14  1  6
 15 16  1  0
 16 17  1  0
 17 18  1  0
 18 19  1  0
 19 20  2  0
 20 21  1  0
 21 22  2  0
 22 23  1  0
 23 24  2  0
 18 25  1  0
  7 26  1  0
 26  4  1  0
 11  6  1  0
 25 15  1  0
 24 19  1  0
M  END
>  <smiles>  (1533) 
C22615-P71

>  <fragmenstein_outcome>  (1533) 
acceptable

>  <inchikey>  (1533) 
SNQKBBNOVGSZEA-UHFFFAOYSA-N

>  <fragmenstein_mode>  (1533) 
expansion

>  <HIPPO Pose ID>  (1533) 
22127

>  <Energy>  (1533) 
70.827484

>  <fragmenstein_error>  (1533) 


>  <tags>  (1533) 
{'openbind_xx01zvns2b_c1_fragmenstein', 'fragmenstein_placed'}

>  <ref_pdb>  (1533) 
175

>  <scratch_subdir>  (1533) 
/opt/xchem-fragalysis-2/maxwin/BulkDock/SCRATCH/511028/C22615-P71

>  <alias>  (1533) 
CNC[C@H]1Cc2c(cccc2C(=O)N[C@H]2CCN(c3ccccn3)C2)N1

>  <HIPPO Compound ID>  (1533) 
36008

>  <fragmenstein_runtime>  (1533) 
4.710394

$$$$
CNC[C@@H]1C(=O)Nc2cccc(C(=O)N[C@@H]3CCN(c4ccccn4)C3)c21
     RDKit          3D

 27 30  0  0  0  0  0  0  0  0999 V2000
   -3.1728    6.8557  -15.4436 C   0  0  0  0  0  0  0  0  0  0  0  0
   -3.6091    7.2759  -16.7714 N   0  0  0  0  0  0  0  0  0  0  0  0
   -5.0093    6.8928  -17.0335 C   0  0  0  0  0  0  0  0  0  0  0  0
   -5.2524    5.3842  -17.2291 C   0  0  2  0  0  0  0  0  0  0  0  0
   -4.9137    5.0648  -18.7081 C   0  0  0  0  0  0  0  0  0  0  0  0
   -3.8253    5.1275  -19.2612 O   0  0  0  0  0  0  0  0  0  0  0  0
   -6.0882    4.6879  -19.3333 N   0  0  0  0  0  0  0  0  0  0  0  0
   -7.1221    4.5564  -18.4246 C   0  0  0  0  0  0  0  0  0  0  0  0
   -8.3888    4.0923  -18.7105 C   0  0  0  0  0  0  0  0  0  0  0  0
   -9.2809    3.9724  -17.6547 C   0  0  0  0  0  0  0  0  0  0  0  0
   -8.8816    4.3078  -16.3505 C   0  0  0  0  0  0  0  0  0  0  0  0
   -7.5831    4.7823  -16.0679 C   0  0  0  0  0  0  0  0  0  0  0  0
   -7.2900    5.2871  -14.6847 C   0  0  0  0  0  0  0  0  0  0  0  0
   -6.6517    6.2577  -14.6065 O   0  0  0  0  0  0  0  0  0  0  0  0
   -7.9898    4.4612  -13.5878 N   0  0  0  0  0  0  0  0  0  0  0  0
   -8.1303    4.7103  -12.1720 C   0  0  2  0  0  0  0  0  0  0  0  0
   -7.1055    5.6721  -11.5893 C   0  0  0  0  0  0  0  0  0  0  0  0
   -7.3672    5.5323  -10.0951 C   0  0  0  0  0  0  0  0  0  0  0  0
   -7.6744    4.1175   -9.9347 N   0  0  0  0  0  0  0  0  0  0  0  0
   -8.2300    3.7036   -8.7379 C   0  0  0  0  0  0  0  0  0  0  0  0
   -8.5549    2.3671   -8.5280 C   0  0  0  0  0  0  0  0  0  0  0  0
   -9.1032    1.9464   -7.3196 C   0  0  0  0  0  0  0  0  0  0  0  0
   -9.2921    2.8708   -6.3114 C   0  0  0  0  0  0  0  0  0  0  0  0
   -8.9289    4.1775   -6.5718 C   0  0  0  0  0  0  0  0  0  0  0  0
   -8.4179    4.6119   -7.7491 N   0  0  0  0  0  0  0  0  0  0  0  0
   -8.0486    3.5055  -11.2163 C   0  0  0  0  0  0  0  0  0  0  0  0
   -6.7022    4.9297  -17.1417 C   0  0  0  0  0  0  0  0  0  0  0  0
  1  2  1  0
  2  3  1  0
  4  3  1  6
  4  5  1  0
  5  6  2  0
  5  7  1  0
  7  8  1  0
  8  9  2  0
  9 10  1  0
 10 11  2  0
 11 12  1  0
 12 13  1  0
 13 14  2  0
 13 15  1  0
 16 15  1  6
 16 17  1  0
 17 18  1  0
 18 19  1  0
 19 20  1  0
 20 21  2  0
 21 22  1  0
 22 23  2  0
 23 24  1  0
 24 25  2  0
 19 26  1  0
 12 27  2  0
 27  4  1  0
 27  8  1  0
 26 16  1  0
 25 20  1  0
M  END
>  <smiles>  (1534) 
C22623-P199

>  <fragmenstein_outcome>  (1534) 
acceptable

>  <inchikey>  (1534) 
KMIBXHLJXCGRIC-UHFFFAOYSA-N

>  <fragmenstein_mode>  (1534) 
expansion

>  <HIPPO Pose ID>  (1534) 
22128

>  <Energy>  (1534) 
49.924569

>  <fragmenstein_error>  (1534) 


>  <tags>  (1534) 
{'openbind_xx01zvns2b_c1_fragmenstein', 'fragmenstein_placed'}

>  <ref_pdb>  (1534) 
175

>  <scratch_subdir>  (1534) 
/opt/xchem-fragalysis-2/maxwin/BulkDock/SCRATCH/511028/C22623-P199

>  <alias>  (1534) 
CNC[C@@H]1C(=O)Nc2cccc(C(=O)N[C@@H]3CCN(c4ccccn4)C3)c21

>  <HIPPO Compound ID>  (1534) 
26794

>  <fragmenstein_runtime>  (1534) 
4.982223

$$$$
CNC[C@@H]1Cc2c(cc(F)cc2C(=O)N[C@@H]2CCN(c3ccccn3)C2)N1
     RDKit          3D

 27 30  0  0  0  0  0  0  0  0999 V2000
   -1.5423    6.8152  -16.3465 C   0  0  0  0  0  0  0  0  0  0  0  0
   -2.9802    6.9324  -16.4973 N   0  0  0  0  0  0  0  0  0  0  0  0
   -3.5038    6.1035  -17.5936 C   0  0  0  0  0  0  0  0  0  0  0  0
   -5.0412    6.0892  -17.5879 C   0  0  2  0  0  0  0  0  0  0  0  0
   -5.5689    5.7059  -16.1988 C   0  0  0  0  0  0  0  0  0  0  0  0
   -6.8605    5.0857  -16.5721 C   0  0  0  0  0  0  0  0  0  0  0  0
   -6.8612    4.7868  -17.9320 C   0  0  0  0  0  0  0  0  0  0  0  0
   -7.9253    4.1150  -18.4952 C   0  0  0  0  0  0  0  0  0  0  0  0
   -8.9962    3.7898  -17.6625 C   0  0  0  0  0  0  0  0  0  0  0  0
  -10.0515    3.1512  -18.1767 F   0  0  0  0  0  0  0  0  0  0  0  0
   -9.0152    4.1186  -16.3013 C   0  0  0  0  0  0  0  0  0  0  0  0
   -7.9311    4.7824  -15.7483 C   0  0  0  0  0  0  0  0  0  0  0  0
   -7.9700    5.3758  -14.3961 C   0  0  0  0  0  0  0  0  0  0  0  0
   -7.8640    6.5310  -14.3403 O   0  0  0  0  0  0  0  0  0  0  0  0
   -8.1102    4.3405  -13.2847 N   0  0  0  0  0  0  0  0  0  0  0  0
   -8.2457    4.5082  -11.8654 C   0  0  2  0  0  0  0  0  0  0  0  0
   -7.2094    5.4830  -11.3178 C   0  0  0  0  0  0  0  0  0  0  0  0
   -7.4047    5.3233   -9.8220 C   0  0  0  0  0  0  0  0  0  0  0  0
   -7.6917    3.9022   -9.6633 N   0  0  0  0  0  0  0  0  0  0  0  0
   -8.3041    3.5177   -8.4816 C   0  0  0  0  0  0  0  0  0  0  0  0
   -8.6660    2.1917   -8.2683 C   0  0  0  0  0  0  0  0  0  0  0  0
   -9.2909    1.8106   -7.0866 C   0  0  0  0  0  0  0  0  0  0  0  0
   -9.5093    2.7578   -6.1055 C   0  0  0  0  0  0  0  0  0  0  0  0
   -9.0962    4.0490   -6.3626 C   0  0  0  0  0  0  0  0  0  0  0  0
   -8.5150    4.4477   -7.5165 N   0  0  0  0  0  0  0  0  0  0  0  0
   -8.0928    3.2949  -10.9443 C   0  0  0  0  0  0  0  0  0  0  0  0
   -5.6524    5.1721  -18.5895 N   0  0  0  0  0  0  0  0  0  0  0  0
  1  2  1  0
  2  3  1  0
  4  3  1  1
  4  5  1  0
  5  6  1  0
  6  7  2  0
  7  8  1  0
  8  9  2  0
  9 10  1  0
  9 11  1  0
 11 12  2  0
 12 13  1  0
 13 14  2  0
 13 15  1  0
 16 15  1  6
 16 17  1  0
 17 18  1  0
 18 19  1  0
 19 20  1  0
 20 21  2  0
 21 22  1  0
 22 23  2  0
 23 24  1  0
 24 25  2  0
 19 26  1  0
  7 27  1  0
 27  4  1  0
 12  6  1  0
 26 16  1  0
 25 20  1  0
M  END
>  <smiles>  (1535) 
C22661-P199

>  <fragmenstein_outcome>  (1535) 
acceptable

>  <inchikey>  (1535) 
WPPZSDQHSOCVEZ-UHFFFAOYSA-N

>  <fragmenstein_mode>  (1535) 
expansion

>  <HIPPO Pose ID>  (1535) 
22129

>  <Energy>  (1535) 
59.992397

>  <fragmenstein_error>  (1535) 


>  <tags>  (1535) 
{'openbind_xx01zvns2b_c1_fragmenstein', 'fragmenstein_placed'}

>  <ref_pdb>  (1535) 
175

>  <scratch_subdir>  (1535) 
/opt/xchem-fragalysis-2/maxwin/BulkDock/SCRATCH/511028/C22661-P199

>  <alias>  (1535) 
CNC[C@@H]1Cc2c(cc(F)cc2C(=O)N[C@@H]2CCN(c3ccccn3)C2)N1

>  <HIPPO Compound ID>  (1535) 
22661

>  <fragmenstein_runtime>  (1535) 
4.429643

$$$$
CNC[C@@]1(O)Cc2c(cccc2C(=O)N[C@@H]2CCN(c3ccccn3)C2)N1
     RDKit          3D

 27 30  0  0  0  0  0  0  0  0999 V2000
   -1.9531    7.9347  -16.8384 C   0  0  0  0  0  0  0  0  0  0  0  0
   -2.8507    6.8032  -16.8898 N   0  0  0  0  0  0  0  0  0  0  0  0
   -3.9475    6.9644  -17.8790 C   0  0  0  0  0  0  0  0  0  0  0  0
   -4.8565    5.7066  -17.8473 C   0  0  1  0  0  0  0  0  0  0  0  0
   -4.0765    4.6124  -18.3066 O   0  0  0  0  0  0  0  0  0  0  0  0
   -5.3617    5.5129  -16.3965 C   0  0  0  0  0  0  0  0  0  0  0  0
   -6.7391    4.9869  -16.6157 C   0  0  0  0  0  0  0  0  0  0  0  0
   -7.0133    5.0091  -17.9831 C   0  0  0  0  0  0  0  0  0  0  0  0
   -8.2177    4.5268  -18.4540 C   0  0  0  0  0  0  0  0  0  0  0  0
   -9.1639    4.0736  -17.5307 C   0  0  0  0  0  0  0  0  0  0  0  0
   -8.9103    4.1446  -16.1482 C   0  0  0  0  0  0  0  0  0  0  0  0
   -7.6800    4.5985  -15.6632 C   0  0  0  0  0  0  0  0  0  0  0  0
   -7.4005    4.8586  -14.2025 C   0  0  0  0  0  0  0  0  0  0  0  0
   -6.6327    5.7008  -13.9632 O   0  0  0  0  0  0  0  0  0  0  0  0
   -8.2280    3.9691  -13.2619 N   0  0  0  0  0  0  0  0  0  0  0  0
   -8.3586    3.9903  -11.8208 C   0  0  2  0  0  0  0  0  0  0  0  0
   -8.2622    5.4030  -11.2148 C   0  0  0  0  0  0  0  0  0  0  0  0
   -7.1118    5.3278  -10.2149 C   0  0  0  0  0  0  0  0  0  0  0  0
   -7.0794    3.9162   -9.8251 N   0  0  0  0  0  0  0  0  0  0  0  0
   -7.8967    3.5808   -8.7308 C   0  0  0  0  0  0  0  0  0  0  0  0
   -8.2009    2.2500   -8.4413 C   0  0  0  0  0  0  0  0  0  0  0  0
   -8.9789    1.9175   -7.3332 C   0  0  0  0  0  0  0  0  0  0  0  0
   -9.4027    2.9172   -6.4820 C   0  0  0  0  0  0  0  0  0  0  0  0
   -9.0471    4.2108   -6.8033 C   0  0  0  0  0  0  0  0  0  0  0  0
   -8.3346    4.5614   -7.9012 N   0  0  0  0  0  0  0  0  0  0  0  0
   -7.2887    3.1756  -11.0803 C   0  0  0  0  0  0  0  0  0  0  0  0
   -6.0327    5.7287  -18.7189 N   0  0  0  0  0  0  0  0  0  0  0  0
  1  2  1  0
  2  3  1  0
  3  4  1  0
  4  5  1  6
  4  6  1  0
  6  7  1  0
  7  8  2  0
  8  9  1  0
  9 10  2  0
 10 11  1  0
 11 12  2  0
 12 13  1  0
 13 14  2  0
 13 15  1  0
 16 15  1  6
 16 17  1  0
 17 18  1  0
 18 19  1  0
 19 20  1  0
 20 21  2  0
 21 22  1  0
 22 23  2  0
 23 24  1  0
 24 25  2  0
 19 26  1  0
  8 27  1  0
 27  4  1  0
 12  7  1  0
 26 16  1  0
 25 20  1  0
M  END
>  <smiles>  (1536) 
C22620-P199

>  <fragmenstein_outcome>  (1536) 
acceptable

>  <inchikey>  (1536) 
XRBOVGIESMKHLP-UHFFFAOYSA-N

>  <fragmenstein_mode>  (1536) 
expansion

>  <HIPPO Pose ID>  (1536) 
22130

>  <Energy>  (1536) 
68.010876

>  <fragmenstein_error>  (1536) 


>  <tags>  (1536) 
{'openbind_xx01zvns2b_c1_fragmenstein', 'fragmenstein_placed'}

>  <ref_pdb>  (1536) 
175

>  <scratch_subdir>  (1536) 
/opt/xchem-fragalysis-2/maxwin/BulkDock/SCRATCH/511028/C22620-P199

>  <alias>  (1536) 
CNC[C@@]1(O)Cc2c(cccc2C(=O)N[C@@H]2CCN(c3ccccn3)C2)N1

>  <HIPPO Compound ID>  (1536) 
22620

>  <fragmenstein_runtime>  (1536) 
6.418416

$$$$
O=C(N[C@H]1CCN(c2ccccn2)C1)c1cccc2c1[C@@]1(CCNC1)C(=O)N2
     RDKit          3D

 28 32  0  0  0  0  0  0  0  0999 V2000
   -6.3024    6.5015  -14.6430 O   0  0  0  0  0  0  0  0  0  0  0  0
   -6.8084    5.4537  -14.6881 C   0  0  0  0  0  0  0  0  0  0  0  0
   -7.1608    4.4673  -13.5615 N   0  0  0  0  0  0  0  0  0  0  0  0
   -7.0506    4.6027  -12.1253 C   0  0  1  0  0  0  0  0  0  0  0  0
   -7.5629    5.9585  -11.6439 C   0  0  0  0  0  0  0  0  0  0  0  0
   -7.7452    5.7322  -10.1520 C   0  0  0  0  0  0  0  0  0  0  0  0
   -8.2384    4.3698  -10.0887 N   0  0  0  0  0  0  0  0  0  0  0  0
   -8.5168    3.8129   -8.8625 C   0  0  0  0  0  0  0  0  0  0  0  0
   -8.9451    2.4943   -8.7469 C   0  0  0  0  0  0  0  0  0  0  0  0
   -9.2476    1.9503   -7.5011 C   0  0  0  0  0  0  0  0  0  0  0  0
   -9.1319    2.7451   -6.3772 C   0  0  0  0  0  0  0  0  0  0  0  0
   -8.7165    4.0491   -6.5587 C   0  0  0  0  0  0  0  0  0  0  0  0
   -8.4208    4.5968   -7.7608 N   0  0  0  0  0  0  0  0  0  0  0  0
   -7.8681    3.6012  -11.2766 C   0  0  0  0  0  0  0  0  0  0  0  0
   -7.2347    4.9473  -16.0223 C   0  0  0  0  0  0  0  0  0  0  0  0
   -8.5455    4.4433  -16.1678 C   0  0  0  0  0  0  0  0  0  0  0  0
   -9.0409    4.0584  -17.4244 C   0  0  0  0  0  0  0  0  0  0  0  0
   -8.2339    4.1525  -18.5534 C   0  0  0  0  0  0  0  0  0  0  0  0
   -6.9515    4.6407  -18.3861 C   0  0  0  0  0  0  0  0  0  0  0  0
   -6.4313    5.0634  -17.1552 C   0  0  0  0  0  0  0  0  0  0  0  0
   -5.0137    5.5702  -17.3872 C   0  0  2  0  0  0  0  0  0  0  0  0
   -3.9218    5.0758  -16.4379 C   0  0  0  0  0  0  0  0  0  0  0  0
   -3.1705    6.3255  -15.9937 C   0  0  0  0  0  0  0  0  0  0  0  0
   -4.1357    7.4193  -16.1171 N   0  0  0  0  0  0  0  0  0  0  0  0
   -4.8420    7.0956  -17.3658 C   0  0  0  0  0  0  0  0  0  0  0  0
   -4.7755    5.1528  -18.8577 C   0  0  0  0  0  0  0  0  0  0  0  0
   -3.7255    5.1974  -19.4798 O   0  0  0  0  0  0  0  0  0  0  0  0
   -5.9918    4.7499  -19.3778 N   0  0  0  0  0  0  0  0  0  0  0  0
  1  2  2  0
  2  3  1  0
  4  3  1  6
  4  5  1  0
  5  6  1  0
  6  7  1  0
  7  8  1  0
  8  9  2  0
  9 10  1  0
 10 11  2  0
 11 12  1  0
 12 13  2  0
  7 14  1  0
  2 15  1  0
 15 16  2  0
 16 17  1  0
 17 18  2  0
 18 19  1  0
 19 20  2  0
 20 21  1  0
 21 22  1  1
 22 23  1  0
 23 24  1  0
 24 25  1  0
 21 26  1  0
 26 27  2  0
 26 28  1  0
 14  4  1  0
 20 15  1  0
 25 21  1  0
 13  8  1  0
 28 19  1  0
M  END
>  <smiles>  (1537) 
C22664-P199

>  <fragmenstein_outcome>  (1537) 
acceptable

>  <inchikey>  (1537) 
KMKXTRIKUJDWGU-UHFFFAOYSA-N

>  <fragmenstein_mode>  (1537) 
expansion

>  <HIPPO Pose ID>  (1537) 
22132

>  <Energy>  (1537) 
43.073904

>  <fragmenstein_error>  (1537) 


>  <tags>  (1537) 
{'openbind_xx01zvns2b_c1_fragmenstein', 'fragmenstein_placed'}

>  <ref_pdb>  (1537) 
175

>  <scratch_subdir>  (1537) 
/opt/xchem-fragalysis-2/maxwin/BulkDock/SCRATCH/511028/C22664-P199

>  <alias>  (1537) 
O=C(N[C@H]1CCN(c2ccccn2)C1)c1cccc2c1[C@@]1(CCNC1)C(=O)N2

>  <HIPPO Compound ID>  (1537) 
31859

>  <fragmenstein_runtime>  (1537) 
5.052191

$$$$
O=C(N[C@H]1CCN(c2ccccn2)C1)c1cccc2c1[C@@H]1CCCCC[C@H]1N2
     RDKit          3D

 28 32  0  0  0  0  0  0  0  0999 V2000
   -7.1098    6.5402  -14.5469 O   0  0  0  0  0  0  0  0  0  0  0  0
   -7.2642    5.3890  -14.6238 C   0  0  0  0  0  0  0  0  0  0  0  0
   -7.3252    4.3178  -13.5265 N   0  0  0  0  0  0  0  0  0  0  0  0
   -7.1136    4.4214  -12.0983 C   0  0  1  0  0  0  0  0  0  0  0  0
   -7.4827    5.8082  -11.5700 C   0  0  0  0  0  0  0  0  0  0  0  0
   -7.6172    5.5805  -10.0757 C   0  0  0  0  0  0  0  0  0  0  0  0
   -8.2022    4.2573  -10.0003 N   0  0  0  0  0  0  0  0  0  0  0  0
   -8.5217    3.7291   -8.7750 C   0  0  0  0  0  0  0  0  0  0  0  0
   -9.0116    2.4338   -8.6463 C   0  0  0  0  0  0  0  0  0  0  0  0
   -9.3464    1.9210   -7.3961 C   0  0  0  0  0  0  0  0  0  0  0  0
   -9.2048    2.7255   -6.2821 C   0  0  0  0  0  0  0  0  0  0  0  0
   -8.7278    4.0059   -6.4760 C   0  0  0  0  0  0  0  0  0  0  0  0
   -8.3962    4.5217   -7.6817 N   0  0  0  0  0  0  0  0  0  0  0  0
   -7.9637    3.4803  -11.2160 C   0  0  0  0  0  0  0  0  0  0  0  0
   -7.5432    4.8224  -15.9627 C   0  0  0  0  0  0  0  0  0  0  0  0
   -8.8370    4.3169  -16.1794 C   0  0  0  0  0  0  0  0  0  0  0  0
   -9.2639    3.9583  -17.4647 C   0  0  0  0  0  0  0  0  0  0  0  0
   -8.4046    4.0942  -18.5479 C   0  0  0  0  0  0  0  0  0  0  0  0
   -7.1402    4.6110  -18.3251 C   0  0  0  0  0  0  0  0  0  0  0  0
   -6.6779    4.9491  -17.0425 C   0  0  0  0  0  0  0  0  0  0  0  0
   -5.2211    5.3194  -17.1797 C   0  0  2  0  0  0  0  0  0  0  0  0
   -4.5970    6.3870  -16.2931 C   0  0  0  0  0  0  0  0  0  0  0  0
   -3.0680    6.3342  -16.1973 C   0  0  0  0  0  0  0  0  0  0  0  0
   -2.2830    5.9248  -17.4392 C   0  0  0  0  0  0  0  0  0  0  0  0
   -2.7880    6.5092  -18.7524 C   0  0  0  0  0  0  0  0  0  0  0  0
   -3.8723    5.6463  -19.3929 C   0  0  0  0  0  0  0  0  0  0  0  0
   -5.2224    5.7097  -18.6876 C   0  0  1  0  0  0  0  0  0  0  0  0
   -6.1596    4.7821  -19.3374 N   0  0  0  0  0  0  0  0  0  0  0  0
  1  2  2  0
  2  3  1  0
  4  3  1  6
  4  5  1  0
  5  6  1  0
  6  7  1  0
  7  8  1  0
  8  9  2  0
  9 10  1  0
 10 11  2  0
 11 12  1  0
 12 13  2  0
  7 14  1  0
  2 15  1  0
 15 16  2  0
 16 17  1  0
 17 18  2  0
 18 19  1  0
 19 20  2  0
 20 21  1  0
 21 22  1  1
 22 23  1  0
 23 24  1  0
 24 25  1  0
 25 26  1  0
 27 26  1  6
 27 28  1  0
 14  4  1  0
 20 15  1  0
 27 21  1  0
 13  8  1  0
 28 19  1  0
M  END
>  <smiles>  (1538) 
C22669-P199

>  <fragmenstein_outcome>  (1538) 
acceptable

>  <inchikey>  (1538) 
UCJAJRYKTMXZQY-UHFFFAOYSA-N

>  <fragmenstein_mode>  (1538) 
expansion

>  <HIPPO Pose ID>  (1538) 
22134

>  <Energy>  (1538) 
60.42011

>  <fragmenstein_error>  (1538) 


>  <tags>  (1538) 
{'openbind_xx01zvns2b_c1_fragmenstein', 'fragmenstein_placed'}

>  <ref_pdb>  (1538) 
175

>  <scratch_subdir>  (1538) 
/opt/xchem-fragalysis-2/maxwin/BulkDock/SCRATCH/511028/C22669-P199

>  <alias>  (1538) 
O=C(N[C@H]1CCN(c2ccccn2)C1)c1cccc2c1[C@@H]1CCCCC[C@H]1N2

>  <HIPPO Compound ID>  (1538) 
22669

>  <fragmenstein_runtime>  (1538) 
9.363587

$$$$
O=C(N[C@@H]1CCN(c2ccccn2)C1)c1cccc2c1C1(CCOCC1)C(=O)N2
     RDKit          3D

 29 33  0  0  0  0  0  0  0  0999 V2000
   -5.7873    4.4431  -14.1649 O   0  0  0  0  0  0  0  0  0  0  0  0
   -6.8363    4.8284  -14.4828 C   0  0  0  0  0  0  0  0  0  0  0  0
   -8.0018    5.3619  -13.6329 N   0  0  0  0  0  0  0  0  0  0  0  0
   -8.1562    5.4448  -12.2005 C   0  0  2  0  0  0  0  0  0  0  0  0
   -7.1262    6.3105  -11.4976 C   0  0  0  0  0  0  0  0  0  0  0  0
   -7.3827    5.9670  -10.0298 C   0  0  0  0  0  0  0  0  0  0  0  0
   -7.7320    4.5566  -10.0594 N   0  0  0  0  0  0  0  0  0  0  0  0
   -8.2217    3.9478   -8.9252 C   0  0  0  0  0  0  0  0  0  0  0  0
   -8.5251    2.5897   -8.9134 C   0  0  0  0  0  0  0  0  0  0  0  0
   -8.9972    1.9736   -7.7555 C   0  0  0  0  0  0  0  0  0  0  0  0
   -9.1479    2.7268   -6.6069 C   0  0  0  0  0  0  0  0  0  0  0  0
   -8.8202    4.0668   -6.6808 C   0  0  0  0  0  0  0  0  0  0  0  0
   -8.3749    4.6897   -7.7999 N   0  0  0  0  0  0  0  0  0  0  0  0
   -8.0519    4.1123  -11.4185 C   0  0  0  0  0  0  0  0  0  0  0  0
   -7.2388    4.7367  -15.9277 C   0  0  0  0  0  0  0  0  0  0  0  0
   -8.5239    4.1931  -16.1921 C   0  0  0  0  0  0  0  0  0  0  0  0
   -8.9923    3.9766  -17.4952 C   0  0  0  0  0  0  0  0  0  0  0  0
   -8.1640    4.2390  -18.5725 C   0  0  0  0  0  0  0  0  0  0  0  0
   -6.9036    4.7413  -18.3025 C   0  0  0  0  0  0  0  0  0  0  0  0
   -6.4132    5.0349  -17.0135 C   0  0  0  0  0  0  0  0  0  0  0  0
   -5.0226    5.6706  -17.1796 C   0  0  0  0  0  0  0  0  0  0  0  0
   -3.8768    5.2342  -16.2628 C   0  0  0  0  0  0  0  0  0  0  0  0
   -2.6003    6.0452  -16.4457 C   0  0  0  0  0  0  0  0  0  0  0  0
   -2.8591    7.4398  -16.3051 O   0  0  0  0  0  0  0  0  0  0  0  0
   -3.7903    7.9073  -17.2716 C   0  0  0  0  0  0  0  0  0  0  0  0
   -5.1372    7.2099  -17.1081 C   0  0  0  0  0  0  0  0  0  0  0  0
   -4.7324    5.3171  -18.6758 C   0  0  0  0  0  0  0  0  0  0  0  0
   -3.6670    5.3851  -19.2696 O   0  0  0  0  0  0  0  0  0  0  0  0
   -5.9306    4.9630  -19.2608 N   0  0  0  0  0  0  0  0  0  0  0  0
  1  2  2  0
  2  3  1  0
  4  3  1  6
  4  5  1  0
  5  6  1  0
  6  7  1  0
  7  8  1  0
  8  9  2  0
  9 10  1  0
 10 11  2  0
 11 12  1  0
 12 13  2  0
  7 14  1  0
  2 15  1  0
 15 16  2  0
 16 17  1  0
 17 18  2  0
 18 19  1  0
 19 20  2  0
 20 21  1  0
 21 22  1  0
 22 23  1  0
 23 24  1  0
 24 25  1  0
 25 26  1  0
 21 27  1  0
 27 28  2  0
 27 29  1  0
 14  4  1  0
 20 15  1  0
 26 21  1  0
 13  8  1  0
 29 19  1  0
M  END
>  <smiles>  (1539) 
C22670-P199

>  <fragmenstein_outcome>  (1539) 
acceptable

>  <inchikey>  (1539) 
BJRFRTAJYNXVHJ-UHFFFAOYSA-N

>  <fragmenstein_mode>  (1539) 
expansion

>  <HIPPO Pose ID>  (1539) 
22135

>  <Energy>  (1539) 
33.928605

>  <fragmenstein_error>  (1539) 


>  <tags>  (1539) 
{'openbind_xx01zvns2b_c1_fragmenstein', 'fragmenstein_placed'}

>  <ref_pdb>  (1539) 
175

>  <scratch_subdir>  (1539) 
/opt/xchem-fragalysis-2/maxwin/BulkDock/SCRATCH/511028/C22670-P199

>  <alias>  (1539) 
O=C(N[C@@H]1CCN(c2ccccn2)C1)c1cccc2c1C1(CCOCC1)C(=O)N2

>  <HIPPO Compound ID>  (1539) 
22670

>  <fragmenstein_runtime>  (1539) 
7.448121

$$$$
C[C@@]1(OCCCO)c2c(cc(F)cc2C(=O)Nc2ccc3c(c2)CNC3)NC12CCNCC2
     RDKit          3D

 33 37  0  0  0  0  0  0  0  0999 V2000
   -5.2238    7.0852  -14.7678 C   0  0  0  0  0  0  0  0  0  0  0  0
   -5.2334    5.8156  -15.6230 C   0  0  1  0  0  0  0  0  0  0  0  0
   -4.6175    4.6587  -15.0116 O   0  0  0  0  0  0  0  0  0  0  0  0
   -3.7950    4.8064  -13.8560 C   0  0  0  0  0  0  0  0  0  0  0  0
   -4.4907    4.1412  -12.6712 C   0  0  0  0  0  0  0  0  0  0  0  0
   -4.0128    4.6614  -11.3270 C   0  0  0  0  0  0  0  0  0  0  0  0
   -4.4432    6.0052  -11.1425 O   0  0  0  0  0  0  0  0  0  0  0  0
   -6.6261    5.3416  -15.9940 C   0  0  0  0  0  0  0  0  0  0  0  0
   -6.6605    5.0161  -17.3529 C   0  0  0  0  0  0  0  0  0  0  0  0
   -7.7684    4.4343  -17.9500 C   0  0  0  0  0  0  0  0  0  0  0  0
   -8.8740    4.1720  -17.1616 C   0  0  0  0  0  0  0  0  0  0  0  0
   -9.9587    3.6065  -17.7042 F   0  0  0  0  0  0  0  0  0  0  0  0
   -8.8791    4.4887  -15.8075 C   0  0  0  0  0  0  0  0  0  0  0  0
   -7.7594    5.0905  -15.2194 C   0  0  0  0  0  0  0  0  0  0  0  0
   -7.8971    5.5281  -13.8137 C   0  0  0  0  0  0  0  0  0  0  0  0
   -7.8624    6.6729  -13.5883 O   0  0  0  0  0  0  0  0  0  0  0  0
   -8.1284    4.3278  -12.8686 N   0  0  0  0  0  0  0  0  0  0  0  0
   -8.2660    4.2804  -11.4825 C   0  0  0  0  0  0  0  0  0  0  0  0
   -8.1457    5.4423  -10.7019 C   0  0  0  0  0  0  0  0  0  0  0  0
   -8.2502    5.3838   -9.3084 C   0  0  0  0  0  0  0  0  0  0  0  0
   -8.5022    4.1572   -8.7219 C   0  0  0  0  0  0  0  0  0  0  0  0
   -8.6405    3.0103   -9.4925 C   0  0  0  0  0  0  0  0  0  0  0  0
   -8.5078    3.0477  -10.8721 C   0  0  0  0  0  0  0  0  0  0  0  0
   -8.9195    1.8451   -8.6049 C   0  0  0  0  0  0  0  0  0  0  0  0
   -9.1095    2.4028   -7.2388 N   0  0  0  0  0  0  0  0  0  0  0  0
   -8.6669    3.8118   -7.2820 C   0  0  0  0  0  0  0  0  0  0  0  0
   -5.4410    5.2171  -18.0429 N   0  0  0  0  0  0  0  0  0  0  0  0
   -4.6113    6.0354  -17.0993 C   0  0  0  0  0  0  0  0  0  0  0  0
   -4.6954    7.5033  -17.6314 C   0  0  0  0  0  0  0  0  0  0  0  0
   -3.6159    7.8354  -18.6713 C   0  0  0  0  0  0  0  0  0  0  0  0
   -3.2376    6.6792  -19.4734 N   0  0  0  0  0  0  0  0  0  0  0  0
   -2.5852    5.6689  -18.6344 C   0  0  0  0  0  0  0  0  0  0  0  0
   -3.1527    5.5549  -17.2117 C   0  0  0  0  0  0  0  0  0  0  0  0
  2  1  1  1
  2  3  1  0
  3  4  1  0
  4  5  1  0
  5  6  1  0
  6  7  1  0
  2  8  1  0
  8  9  2  0
  9 10  1  0
 10 11  2  0
 11 12  1  0
 11 13  1  0
 13 14  2  0
 14 15  1  0
 15 16  2  0
 15 17  1  0
 17 18  1  0
 18 19  2  0
 19 20  1  0
 20 21  2  0
 21 22  1  0
 22 23  2  0
 22 24  1  0
 24 25  1  0
 25 26  1  0
  9 27  1  0
 27 28  1  0
 28 29  1  0
 29 30  1  0
 30 31  1  0
 31 32  1  0
 32 33  1  0
 28  2  1  0
 14  8  1  0
 23 18  1  0
 33 28  1  0
 26 21  1  0
M  END
>  <smiles>  (1540) 
C22790-P200

>  <fragmenstein_outcome>  (1540) 
acceptable

>  <inchikey>  (1540) 
BCBFPYWQRAZQDT-UHFFFAOYSA-N

>  <fragmenstein_mode>  (1540) 
expansion

>  <HIPPO Pose ID>  (1540) 
22196

>  <Energy>  (1540) 
90.224954

>  <fragmenstein_error>  (1540) 


>  <tags>  (1540) 
{'openbind_xx01zvns2b_c1_fragmenstein', 'fragmenstein_placed'}

>  <ref_pdb>  (1540) 
175

>  <scratch_subdir>  (1540) 
/opt/xchem-fragalysis-2/maxwin/BulkDock/SCRATCH/511028/C22790-P200

>  <alias>  (1540) 
C[C@@]1(OCCCO)c2c(cc(F)cc2C(=O)Nc2ccc3c(c2)CNC3)NC12CCNCC2

>  <HIPPO Compound ID>  (1540) 
22790

>  <fragmenstein_runtime>  (1540) 
8.55164

$$$$
CNC[C@@H]1Nc2cc(F)cc(C(=O)Nc3ccc4c(c3)CNC4)c2[C@@]1(C)OCCCO
     RDKit          3D

 31 34  0  0  0  0  0  0  0  0999 V2000
   -3.8183    5.6843  -20.2504 C   0  0  0  0  0  0  0  0  0  0  0  0
   -2.9722    5.3469  -19.1093 N   0  0  0  0  0  0  0  0  0  0  0  0
   -3.4832    5.9173  -17.8335 C   0  0  0  0  0  0  0  0  0  0  0  0
   -4.7184    5.2047  -17.2575 C   0  0  2  0  0  0  0  0  0  0  0  0
   -5.8351    5.2660  -18.2181 N   0  0  0  0  0  0  0  0  0  0  0  0
   -6.9357    4.9514  -17.4010 C   0  0  0  0  0  0  0  0  0  0  0  0
   -8.1361    4.4907  -17.9079 C   0  0  0  0  0  0  0  0  0  0  0  0
   -9.1457    4.2263  -17.0121 C   0  0  0  0  0  0  0  0  0  0  0  0
  -10.3165    3.7720  -17.4695 F   0  0  0  0  0  0  0  0  0  0  0  0
   -8.9737    4.4662  -15.6517 C   0  0  0  0  0  0  0  0  0  0  0  0
   -7.7677    4.9923  -15.1616 C   0  0  0  0  0  0  0  0  0  0  0  0
   -7.7586    5.4321  -13.7515 C   0  0  0  0  0  0  0  0  0  0  0  0
   -7.5697    6.5624  -13.5284 O   0  0  0  0  0  0  0  0  0  0  0  0
   -8.1150    4.2687  -12.7983 N   0  0  0  0  0  0  0  0  0  0  0  0
   -8.2165    4.2356  -11.4109 C   0  0  0  0  0  0  0  0  0  0  0  0
   -8.0611    5.3983  -10.6396 C   0  0  0  0  0  0  0  0  0  0  0  0
   -8.1826    5.3548   -9.2468 C   0  0  0  0  0  0  0  0  0  0  0  0
   -8.4808    4.1420   -8.6532 C   0  0  0  0  0  0  0  0  0  0  0  0
   -8.6499    2.9945   -9.4164 C   0  0  0  0  0  0  0  0  0  0  0  0
   -8.5115    3.0180  -10.7945 C   0  0  0  0  0  0  0  0  0  0  0  0
   -8.9625    1.8429   -8.5234 C   0  0  0  0  0  0  0  0  0  0  0  0
   -9.1573    2.4168   -7.1651 N   0  0  0  0  0  0  0  0  0  0  0  0
   -8.6692    3.8114   -7.2126 C   0  0  0  0  0  0  0  0  0  0  0  0
   -6.7224    5.2199  -16.0439 C   0  0  0  0  0  0  0  0  0  0  0  0
   -5.2793    5.6523  -15.8407 C   0  0  2  0  0  0  0  0  0  0  0  0
   -5.1148    7.1590  -15.6247 C   0  0  0  0  0  0  0  0  0  0  0  0
   -4.6697    4.7870  -14.8667 O   0  0  0  0  0  0  0  0  0  0  0  0
   -4.3258    5.3384  -13.6018 C   0  0  0  0  0  0  0  0  0  0  0  0
   -4.1974    4.1965  -12.5993 C   0  0  0  0  0  0  0  0  0  0  0  0
   -3.7745    4.6915  -11.2252 C   0  0  0  0  0  0  0  0  0  0  0  0
   -4.6469    5.7042  -10.7481 O   0  0  0  0  0  0  0  0  0  0  0  0
  1  2  1  0
  2  3  1  0
  4  3  1  6
  4  5  1  0
  5  6  1  0
  6  7  2  0
  7  8  1  0
  8  9  1  0
  8 10  2  0
 10 11  1  0
 11 12  1  0
 12 13  2  0
 12 14  1  0
 14 15  1  0
 15 16  2  0
 16 17  1  0
 17 18  2  0
 18 19  1  0
 19 20  2  0
 19 21  1  0
 21 22  1  0
 22 23  1  0
 11 24  2  0
 24 25  1  0
 25 26  1  1
 25 27  1  0
 27 28  1  0
 28 29  1  0
 29 30  1  0
 30 31  1  0
 25  4  1  0
 24  6  1  0
 20 15  1  0
 23 18  1  0
M  END
>  <smiles>  (1541) 
C22825-P200

>  <fragmenstein_outcome>  (1541) 
acceptable

>  <inchikey>  (1541) 
AJGUXXCLSPQRQI-UHFFFAOYSA-N

>  <fragmenstein_mode>  (1541) 
expansion

>  <HIPPO Pose ID>  (1541) 
22197

>  <Energy>  (1541) 
108.320726

>  <fragmenstein_error>  (1541) 


>  <tags>  (1541) 
{'openbind_xx01zvns2b_c1_fragmenstein', 'fragmenstein_placed'}

>  <ref_pdb>  (1541) 
175

>  <scratch_subdir>  (1541) 
/opt/xchem-fragalysis-2/maxwin/BulkDock/SCRATCH/511028/C22825-P200

>  <alias>  (1541) 
CNC[C@@H]1Nc2cc(F)cc(C(=O)Nc3ccc4c(c3)CNC4)c2[C@@]1(C)OCCCO

>  <HIPPO Compound ID>  (1541) 
22825

>  <fragmenstein_runtime>  (1541) 
4.61889

$$$$
CN(C)C[C@@H]1Nc2cc(F)cc(C(=O)Nc3ccc4c(c3)CNC4)c2[C@@]1(C)OCCCO
     RDKit          3D

 32 35  0  0  0  0  0  0  0  0999 V2000
   -1.4153    5.8590  -16.1714 C   0  0  0  0  0  0  0  0  0  0  0  0
   -2.3163    6.9235  -16.5948 N   0  0  0  0  0  0  0  0  0  0  0  0
   -1.5492    8.0210  -17.1880 C   0  0  0  0  0  0  0  0  0  0  0  0
   -3.3451    6.4483  -17.5408 C   0  0  0  0  0  0  0  0  0  0  0  0
   -4.3960    5.4278  -17.0346 C   0  0  2  0  0  0  0  0  0  0  0  0
   -5.4110    5.2718  -18.1121 N   0  0  0  0  0  0  0  0  0  0  0  0
   -6.5917    4.9457  -17.4138 C   0  0  0  0  0  0  0  0  0  0  0  0
   -7.7385    4.4459  -18.0095 C   0  0  0  0  0  0  0  0  0  0  0  0
   -8.8370    4.1814  -17.2045 C   0  0  0  0  0  0  0  0  0  0  0  0
   -9.9463    3.6624  -17.7452 F   0  0  0  0  0  0  0  0  0  0  0  0
   -8.8151    4.4568  -15.8409 C   0  0  0  0  0  0  0  0  0  0  0  0
   -7.6731    5.0205  -15.2640 C   0  0  0  0  0  0  0  0  0  0  0  0
   -7.7734    5.4605  -13.8578 C   0  0  0  0  0  0  0  0  0  0  0  0
   -7.7950    6.6069  -13.6419 O   0  0  0  0  0  0  0  0  0  0  0  0
   -7.8788    4.2588  -12.8948 N   0  0  0  0  0  0  0  0  0  0  0  0
   -8.1199    4.2168  -11.5220 C   0  0  0  0  0  0  0  0  0  0  0  0
   -8.0877    5.3934  -10.7521 C   0  0  0  0  0  0  0  0  0  0  0  0
   -8.2863    5.3553   -9.3680 C   0  0  0  0  0  0  0  0  0  0  0  0
   -8.5606    4.1338   -8.7854 C   0  0  0  0  0  0  0  0  0  0  0  0
   -8.6205    2.9702   -9.5479 C   0  0  0  0  0  0  0  0  0  0  0  0
   -8.3773    2.9868  -10.9123 C   0  0  0  0  0  0  0  0  0  0  0  0
   -8.9584    1.8231   -8.6512 C   0  0  0  0  0  0  0  0  0  0  0  0
   -9.4548    2.4512   -7.3953 N   0  0  0  0  0  0  0  0  0  0  0  0
   -8.8280    3.7904   -7.3581 C   0  0  0  0  0  0  0  0  0  0  0  0
   -6.5491    5.2582  -16.0541 C   0  0  0  0  0  0  0  0  0  0  0  0
   -5.1666    5.7596  -15.6871 C   0  0  2  0  0  0  0  0  0  0  0  0
   -5.1750    7.2567  -15.3528 C   0  0  0  0  0  0  0  0  0  0  0  0
   -4.6794    4.8436  -14.6890 O   0  0  0  0  0  0  0  0  0  0  0  0
   -4.3096    5.3861  -13.4300 C   0  0  0  0  0  0  0  0  0  0  0  0
   -4.1350    4.2326  -12.4494 C   0  0  0  0  0  0  0  0  0  0  0  0
   -3.7490    4.7271  -11.0656 C   0  0  0  0  0  0  0  0  0  0  0  0
   -4.6821    5.6809  -10.5810 O   0  0  0  0  0  0  0  0  0  0  0  0
  1  2  1  0
  2  3  1  0
  2  4  1  0
  5  4  1  6
  5  6  1  0
  6  7  1  0
  7  8  2  0
  8  9  1  0
  9 10  1  0
  9 11  2  0
 11 12  1  0
 12 13  1  0
 13 14  2  0
 13 15  1  0
 15 16  1  0
 16 17  2  0
 17 18  1  0
 18 19  2  0
 19 20  1  0
 20 21  2  0
 20 22  1  0
 22 23  1  0
 23 24  1  0
 12 25  2  0
 25 26  1  0
 26 27  1  1
 26 28  1  0
 28 29  1  0
 29 30  1  0
 30 31  1  0
 31 32  1  0
 26  5  1  0
 25  7  1  0
 21 16  1  0
 24 19  1  0
M  END
>  <smiles>  (1542) 
C22843-P200

>  <fragmenstein_outcome>  (1542) 
acceptable

>  <inchikey>  (1542) 
IOAXVAKHNSXCGL-UHFFFAOYSA-N

>  <fragmenstein_mode>  (1542) 
expansion

>  <HIPPO Pose ID>  (1542) 
22198

>  <Energy>  (1542) 
108.641355

>  <fragmenstein_error>  (1542) 


>  <tags>  (1542) 
{'openbind_xx01zvns2b_c1_fragmenstein', 'fragmenstein_placed'}

>  <ref_pdb>  (1542) 
175

>  <scratch_subdir>  (1542) 
/opt/xchem-fragalysis-2/maxwin/BulkDock/SCRATCH/511028/C22843-P200

>  <alias>  (1542) 
CN(C)C[C@@H]1Nc2cc(F)cc(C(=O)Nc3ccc4c(c3)CNC4)c2[C@@]1(C)OCCCO

>  <HIPPO Compound ID>  (1542) 
22843

>  <fragmenstein_runtime>  (1542) 
7.195669

$$$$
C[C@]1(OCCCO)C(=O)n2c(=O)[nH]c3c(F)cc(C(=O)Nc4ccc5c(c4)CNC5)c1c32
     RDKit          3D

 32 36  0  0  0  0  0  0  0  0999 V2000
   -5.0030    7.2267  -15.0724 C   0  0  0  0  0  0  0  0  0  0  0  0
   -5.0984    5.7375  -15.4233 C   0  0  2  0  0  0  0  0  0  0  0  0
   -4.4978    4.7908  -14.5478 O   0  0  0  0  0  0  0  0  0  0  0  0
   -4.2335    5.2521  -13.2308 C   0  0  0  0  0  0  0  0  0  0  0  0
   -4.1020    4.0587  -12.2977 C   0  0  0  0  0  0  0  0  0  0  0  0
   -3.7864    4.5147  -10.8824 C   0  0  0  0  0  0  0  0  0  0  0  0
   -4.7230    5.4872  -10.4400 O   0  0  0  0  0  0  0  0  0  0  0  0
   -4.4014    5.6050  -16.8721 C   0  0  0  0  0  0  0  0  0  0  0  0
   -3.2378    5.8507  -17.1512 O   0  0  0  0  0  0  0  0  0  0  0  0
   -5.4302    5.1610  -17.7318 N   0  0  0  0  0  0  0  0  0  0  0  0
   -5.7653    4.8883  -19.0968 C   0  0  0  0  0  0  0  0  0  0  0  0
   -5.0445    5.0259  -20.0659 O   0  0  0  0  0  0  0  0  0  0  0  0
   -7.1416    4.4545  -19.0649 N   0  0  0  0  0  0  0  0  0  0  0  0
   -7.6133    4.5097  -17.7585 C   0  0  0  0  0  0  0  0  0  0  0  0
   -8.7832    4.2717  -17.0986 C   0  0  0  0  0  0  0  0  0  0  0  0
   -9.8680    3.8117  -17.7296 F   0  0  0  0  0  0  0  0  0  0  0  0
   -8.8182    4.5272  -15.7094 C   0  0  0  0  0  0  0  0  0  0  0  0
   -7.6836    5.0476  -15.0161 C   0  0  0  0  0  0  0  0  0  0  0  0
   -7.8191    5.4704  -13.6180 C   0  0  0  0  0  0  0  0  0  0  0  0
   -7.7703    6.6109  -13.3825 O   0  0  0  0  0  0  0  0  0  0  0  0
   -7.9805    4.2631  -12.6773 N   0  0  0  0  0  0  0  0  0  0  0  0
   -8.2031    4.2100  -11.3056 C   0  0  0  0  0  0  0  0  0  0  0  0
   -8.1284    5.3704  -10.5158 C   0  0  0  0  0  0  0  0  0  0  0  0
   -8.3177    5.3089   -9.1323 C   0  0  0  0  0  0  0  0  0  0  0  0
   -8.6182    4.0824   -8.5735 C   0  0  0  0  0  0  0  0  0  0  0  0
   -8.7061    2.9354   -9.3582 C   0  0  0  0  0  0  0  0  0  0  0  0
   -8.4805    2.9735  -10.7221 C   0  0  0  0  0  0  0  0  0  0  0  0
   -9.0450    1.7750   -8.4825 C   0  0  0  0  0  0  0  0  0  0  0  0
   -9.5397    2.3853   -7.2195 N   0  0  0  0  0  0  0  0  0  0  0  0
   -8.8952    3.7158   -7.1535 C   0  0  0  0  0  0  0  0  0  0  0  0
   -6.5045    5.2620  -15.6919 C   0  0  0  0  0  0  0  0  0  0  0  0
   -6.5661    4.9543  -17.0101 C   0  0  0  0  0  0  0  0  0  0  0  0
  2  1  1  1
  2  3  1  0
  3  4  1  0
  4  5  1  0
  5  6  1  0
  6  7  1  0
  2  8  1  0
  8  9  2  0
  8 10  1  0
 10 11  1  0
 11 12  2  0
 11 13  1  0
 13 14  1  0
 14 15  2  0
 15 16  1  0
 15 17  1  0
 17 18  2  0
 18 19  1  0
 19 20  2  0
 19 21  1  0
 21 22  1  0
 22 23  2  0
 23 24  1  0
 24 25  2  0
 25 26  1  0
 26 27  2  0
 26 28  1  0
 28 29  1  0
 29 30  1  0
 18 31  1  0
 31 32  2  0
 31  2  1  0
 32 10  1  0
 32 14  1  0
 27 22  1  0
 30 25  1  0
M  END
>  <smiles>  (1543) 
C22821-P200

>  <fragmenstein_outcome>  (1543) 
acceptable

>  <inchikey>  (1543) 
ZOTABHZTTCBGEN-UHFFFAOYSA-N

>  <fragmenstein_mode>  (1543) 
expansion

>  <HIPPO Pose ID>  (1543) 
22199

>  <Energy>  (1543) 
71.298245

>  <fragmenstein_error>  (1543) 


>  <tags>  (1543) 
{'openbind_xx01zvns2b_c1_fragmenstein', 'fragmenstein_placed'}

>  <ref_pdb>  (1543) 
175

>  <scratch_subdir>  (1543) 
/opt/xchem-fragalysis-2/maxwin/BulkDock/SCRATCH/511028/C22821-P200

>  <alias>  (1543) 
C[C@]1(OCCCO)C(=O)n2c(=O)[nH]c3c(F)cc(C(=O)Nc4ccc5c(c4)CNC5)c1c32

>  <HIPPO Compound ID>  (1543) 
22821

>  <fragmenstein_runtime>  (1543) 
4.233111

$$$$
CNCN1C(=O)[C@](C)(OCCCO)c2c(C(=O)Nc3cc(F)c4c(c3)CNC4)cc(F)cc21
     RDKit          3D

 33 36  0  0  0  0  0  0  0  0999 V2000
   -4.7338    6.9877  -21.0445 C   0  0  0  0  0  0  0  0  0  0  0  0
   -4.9238    6.7974  -19.6149 N   0  0  0  0  0  0  0  0  0  0  0  0
   -4.9875    5.3691  -19.2938 C   0  0  0  0  0  0  0  0  0  0  0  0
   -5.2976    5.2959  -17.8995 N   0  0  0  0  0  0  0  0  0  0  0  0
   -4.3697    5.6023  -16.9053 C   0  0  0  0  0  0  0  0  0  0  0  0
   -3.1746    5.8143  -17.0721 O   0  0  0  0  0  0  0  0  0  0  0  0
   -5.1538    5.7213  -15.5618 C   0  0  2  0  0  0  0  0  0  0  0  0
   -5.0702    7.2149  -15.2088 C   0  0  0  0  0  0  0  0  0  0  0  0
   -4.6596    4.7617  -14.6324 O   0  0  0  0  0  0  0  0  0  0  0  0
   -4.2251    5.2621  -13.3769 C   0  0  0  0  0  0  0  0  0  0  0  0
   -4.1415    4.1027  -12.3935 C   0  0  0  0  0  0  0  0  0  0  0  0
   -3.7450    4.5851  -11.0080 C   0  0  0  0  0  0  0  0  0  0  0  0
   -4.6275    5.5994  -10.5492 O   0  0  0  0  0  0  0  0  0  0  0  0
   -6.5348    5.2660  -15.9786 C   0  0  0  0  0  0  0  0  0  0  0  0
   -7.6701    5.0168  -15.2162 C   0  0  0  0  0  0  0  0  0  0  0  0
   -7.7694    5.4359  -13.8042 C   0  0  0  0  0  0  0  0  0  0  0  0
   -7.6591    6.5726  -13.5680 O   0  0  0  0  0  0  0  0  0  0  0  0
   -8.0782    4.2467  -12.8725 N   0  0  0  0  0  0  0  0  0  0  0  0
   -8.2180    4.1949  -11.4862 C   0  0  0  0  0  0  0  0  0  0  0  0
   -8.1292    5.3621  -10.7103 C   0  0  0  0  0  0  0  0  0  0  0  0
   -8.2906    5.2995   -9.3283 C   0  0  0  0  0  0  0  0  0  0  0  0
   -8.1984    6.4123   -8.5908 F   0  0  0  0  0  0  0  0  0  0  0  0
   -8.5711    4.0905   -8.7374 C   0  0  0  0  0  0  0  0  0  0  0  0
   -8.6670    2.9343   -9.5038 C   0  0  0  0  0  0  0  0  0  0  0  0
   -8.4709    2.9620  -10.8760 C   0  0  0  0  0  0  0  0  0  0  0  0
   -8.9913    1.7889   -8.6017 C   0  0  0  0  0  0  0  0  0  0  0  0
   -9.4511    2.4192   -7.3338 N   0  0  0  0  0  0  0  0  0  0  0  0
   -8.8204    3.7593   -7.3098 C   0  0  0  0  0  0  0  0  0  0  0  0
   -8.8016    4.4798  -15.8348 C   0  0  0  0  0  0  0  0  0  0  0  0
   -8.7957    4.2452  -17.2094 C   0  0  0  0  0  0  0  0  0  0  0  0
   -9.8929    3.7325  -17.7804 F   0  0  0  0  0  0  0  0  0  0  0  0
   -7.6847    4.5355  -17.9930 C   0  0  0  0  0  0  0  0  0  0  0  0
   -6.5563    5.0221  -17.3558 C   0  0  0  0  0  0  0  0  0  0  0  0
  1  2  1  0
  2  3  1  0
  3  4  1  0
  4  5  1  0
  5  6  2  0
  5  7  1  0
  7  8  1  1
  7  9  1  0
  9 10  1  0
 10 11  1  0
 11 12  1  0
 12 13  1  0
  7 14  1  0
 14 15  2  0
 15 16  1  0
 16 17  2  0
 16 18  1  0
 18 19  1  0
 19 20  2  0
 20 21  1  0
 21 22  1  0
 21 23  2  0
 23 24  1  0
 24 25  2  0
 24 26  1  0
 26 27  1  0
 27 28  1  0
 15 29  1  0
 29 30  2  0
 30 31  1  0
 30 32  1  0
 32 33  2  0
 33  4  1  0
 33 14  1  0
 25 19  1  0
 28 23  1  0
M  END
>  <smiles>  (1544) 
C22851-P200

>  <fragmenstein_outcome>  (1544) 
acceptable

>  <inchikey>  (1544) 
KUFSNXGMTLPSMF-UHFFFAOYSA-N

>  <fragmenstein_mode>  (1544) 
expansion

>  <HIPPO Pose ID>  (1544) 
22200

>  <Energy>  (1544) 
35.912999

>  <fragmenstein_error>  (1544) 


>  <tags>  (1544) 
{'openbind_xx01zvns2b_c1_fragmenstein', 'fragmenstein_placed'}

>  <ref_pdb>  (1544) 
175

>  <scratch_subdir>  (1544) 
/opt/xchem-fragalysis-2/maxwin/BulkDock/SCRATCH/511028/C22851-P200

>  <alias>  (1544) 
CNCN1C(=O)[C@](C)(OCCCO)c2c(C(=O)Nc3cc(F)c4c(c3)CNC4)cc(F)cc21

>  <HIPPO Compound ID>  (1544) 
21710

>  <fragmenstein_runtime>  (1544) 
5.11897

$$$$
C[C@@]1(OCCCO)c2c(C(=O)Nc3ccc4c(c3)CNC4)cc(F)cc2N2CNN[C@]21O
     RDKit          3D

 32 36  0  0  0  0  0  0  0  0999 V2000
   -5.1653    7.0471  -14.6727 C   0  0  0  0  0  0  0  0  0  0  0  0
   -5.1677    5.6148  -15.2196 C   0  0  1  0  0  0  0  0  0  0  0  0
   -5.0088    4.6704  -14.1523 O   0  0  0  0  0  0  0  0  0  0  0  0
   -3.7291    4.5665  -13.5439 C   0  0  0  0  0  0  0  0  0  0  0  0
   -3.9258    3.9632  -12.1537 C   0  0  0  0  0  0  0  0  0  0  0  0
   -4.0212    5.0147  -11.0541 C   0  0  0  0  0  0  0  0  0  0  0  0
   -4.9349    6.0487  -11.3750 O   0  0  0  0  0  0  0  0  0  0  0  0
   -6.5145    5.2386  -15.8093 C   0  0  0  0  0  0  0  0  0  0  0  0
   -7.7462    5.0925  -15.1776 C   0  0  0  0  0  0  0  0  0  0  0  0
   -7.9663    5.5178  -13.7847 C   0  0  0  0  0  0  0  0  0  0  0  0
   -8.0986    6.6576  -13.5720 O   0  0  0  0  0  0  0  0  0  0  0  0
   -8.0535    4.3067  -12.8341 N   0  0  0  0  0  0  0  0  0  0  0  0
   -8.2221    4.2510  -11.4524 C   0  0  0  0  0  0  0  0  0  0  0  0
   -8.1868    5.4183  -10.6694 C   0  0  0  0  0  0  0  0  0  0  0  0
   -8.3412    5.3581   -9.2810 C   0  0  0  0  0  0  0  0  0  0  0  0
   -8.5879    4.1259   -8.7086 C   0  0  0  0  0  0  0  0  0  0  0  0
   -8.6469    2.9709   -9.4840 C   0  0  0  0  0  0  0  0  0  0  0  0
   -8.4330    3.0078  -10.8518 C   0  0  0  0  0  0  0  0  0  0  0  0
   -8.9627    1.8102   -8.5983 C   0  0  0  0  0  0  0  0  0  0  0  0
   -9.4560    2.4198   -7.3316 N   0  0  0  0  0  0  0  0  0  0  0  0
   -8.8368    3.7629   -7.2833 C   0  0  0  0  0  0  0  0  0  0  0  0
   -8.8331    4.5877  -15.8896 C   0  0  0  0  0  0  0  0  0  0  0  0
   -8.6942    4.2939  -17.2414 C   0  0  0  0  0  0  0  0  0  0  0  0
   -9.7520    3.8145  -17.9083 F   0  0  0  0  0  0  0  0  0  0  0  0
   -7.4807    4.4721  -17.8962 C   0  0  0  0  0  0  0  0  0  0  0  0
   -6.3826    4.9012  -17.1595 C   0  0  0  0  0  0  0  0  0  0  0  0
   -5.0675    4.9093  -17.6048 N   0  0  0  0  0  0  0  0  0  0  0  0
   -4.7013    5.6495  -18.7870 C   0  0  0  0  0  0  0  0  0  0  0  0
   -3.4459    6.3887  -18.5163 N   0  0  0  0  0  0  0  0  0  0  0  0
   -3.5066    6.6395  -17.0309 N   0  0  0  0  0  0  0  0  0  0  0  0
   -4.2313    5.4411  -16.5268 C   0  0  1  0  0  0  0  0  0  0  0  0
   -3.2193    4.4834  -16.3365 O   0  0  0  0  0  0  0  0  0  0  0  0
  2  1  1  1
  2  3  1  0
  3  4  1  0
  4  5  1  0
  5  6  1  0
  6  7  1  0
  2  8  1  0
  8  9  2  0
  9 10  1  0
 10 11  2  0
 10 12  1  0
 12 13  1  0
 13 14  2  0
 14 15  1  0
 15 16  2  0
 16 17  1  0
 17 18  2  0
 17 19  1  0
 19 20  1  0
 20 21  1  0
  9 22  1  0
 22 23  2  0
 23 24  1  0
 23 25  1  0
 25 26  2  0
 26 27  1  0
 27 28  1  0
 28 29  1  0
 29 30  1  0
 30 31  1  0
 31 32  1  1
 31  2  1  0
 26  8  1  0
 31 27  1  0
 18 13  1  0
 21 16  1  0
M  END
>  <smiles>  (1545) 
C22858-P200

>  <fragmenstein_outcome>  (1545) 
acceptable

>  <inchikey>  (1545) 
OHGSZIBYWBJLOI-UHFFFAOYSA-N

>  <fragmenstein_mode>  (1545) 
expansion

>  <HIPPO Pose ID>  (1545) 
22203

>  <Energy>  (1545) 
87.851312

>  <fragmenstein_error>  (1545) 


>  <tags>  (1545) 
{'openbind_xx01zvns2b_c1_fragmenstein', 'fragmenstein_placed'}

>  <ref_pdb>  (1545) 
175

>  <scratch_subdir>  (1545) 
/opt/xchem-fragalysis-2/maxwin/BulkDock/SCRATCH/511028/C22858-P200

>  <alias>  (1545) 
C[C@@]1(OCCCO)c2c(C(=O)Nc3ccc4c(c3)CNC4)cc(F)cc2N2CNN[C@]21O

>  <HIPPO Compound ID>  (1545) 
22858

>  <fragmenstein_runtime>  (1545) 
6.255153

$$$$
CNCN1C(=O)[C@](C)(OCCCO)c2c(C(=O)Nc3cc(C)c4c(c3)CNC4)cc(F)cc21
     RDKit          3D

 33 36  0  0  0  0  0  0  0  0999 V2000
   -4.8531    7.1169  -21.1436 C   0  0  0  0  0  0  0  0  0  0  0  0
   -5.0840    6.8937  -19.7235 N   0  0  0  0  0  0  0  0  0  0  0  0
   -5.0801    5.4614  -19.4244 C   0  0  0  0  0  0  0  0  0  0  0  0
   -5.3451    5.3436  -18.0199 N   0  0  0  0  0  0  0  0  0  0  0  0
   -4.3941    5.6433  -17.0430 C   0  0  0  0  0  0  0  0  0  0  0  0
   -3.2060    5.8666  -17.2447 O   0  0  0  0  0  0  0  0  0  0  0  0
   -5.1453    5.7379  -15.6725 C   0  0  2  0  0  0  0  0  0  0  0  0
   -5.0590    7.2294  -15.3098 C   0  0  0  0  0  0  0  0  0  0  0  0
   -4.6056    4.7815  -14.7628 O   0  0  0  0  0  0  0  0  0  0  0  0
   -4.2404    5.2672  -13.4763 C   0  0  0  0  0  0  0  0  0  0  0  0
   -4.1410    4.0943  -12.5098 C   0  0  0  0  0  0  0  0  0  0  0  0
   -3.7901    4.5620  -11.1051 C   0  0  0  0  0  0  0  0  0  0  0  0
   -4.6993    5.5536  -10.6479 O   0  0  0  0  0  0  0  0  0  0  0  0
   -6.5316    5.2702  -16.0647 C   0  0  0  0  0  0  0  0  0  0  0  0
   -7.6528    5.0068  -15.2840 C   0  0  0  0  0  0  0  0  0  0  0  0
   -7.7346    5.4274  -13.8753 C   0  0  0  0  0  0  0  0  0  0  0  0
   -7.6165    6.5645  -13.6441 O   0  0  0  0  0  0  0  0  0  0  0  0
   -7.9619    4.2328  -12.9273 N   0  0  0  0  0  0  0  0  0  0  0  0
   -8.1785    4.1979  -11.5525 C   0  0  0  0  0  0  0  0  0  0  0  0
   -8.1510    5.3810  -10.7988 C   0  0  0  0  0  0  0  0  0  0  0  0
   -8.3171    5.3657   -9.4053 C   0  0  0  0  0  0  0  0  0  0  0  0
   -8.2728    6.6553   -8.6519 C   0  0  0  0  0  0  0  0  0  0  0  0
   -8.5323    4.1374   -8.7967 C   0  0  0  0  0  0  0  0  0  0  0  0
   -8.5953    2.9687   -9.5485 C   0  0  0  0  0  0  0  0  0  0  0  0
   -8.4043    2.9755  -10.9228 C   0  0  0  0  0  0  0  0  0  0  0  0
   -8.8728    1.8088   -8.6529 C   0  0  0  0  0  0  0  0  0  0  0  0
   -9.0794    2.3693   -7.2931 N   0  0  0  0  0  0  0  0  0  0  0  0
   -8.7215    3.8004   -7.3549 C   0  0  0  0  0  0  0  0  0  0  0  0
   -8.7936    4.4631  -15.8785 C   0  0  0  0  0  0  0  0  0  0  0  0
   -8.8112    4.2330  -17.2518 C   0  0  0  0  0  0  0  0  0  0  0  0
   -9.9119    3.7113  -17.8065 F   0  0  0  0  0  0  0  0  0  0  0  0
   -7.7183    4.5387  -18.0551 C   0  0  0  0  0  0  0  0  0  0  0  0
   -6.5826    5.0398  -17.4430 C   0  0  0  0  0  0  0  0  0  0  0  0
  1  2  1  0
  2  3  1  0
  3  4  1  0
  4  5  1  0
  5  6  2  0
  5  7  1  0
  7  8  1  1
  7  9  1  0
  9 10  1  0
 10 11  1  0
 11 12  1  0
 12 13  1  0
  7 14  1  0
 14 15  2  0
 15 16  1  0
 16 17  2  0
 16 18  1  0
 18 19  1  0
 19 20  2  0
 20 21  1  0
 21 22  1  0
 21 23  2  0
 23 24  1  0
 24 25  2  0
 24 26  1  0
 26 27  1  0
 27 28  1  0
 15 29  1  0
 29 30  2  0
 30 31  1  0
 30 32  1  0
 32 33  2  0
 33  4  1  0
 33 14  1  0
 25 19  1  0
 28 23  1  0
M  END
>  <smiles>  (1546) 
C22862-P200

>  <fragmenstein_outcome>  (1546) 
acceptable

>  <inchikey>  (1546) 
PTWKSXRHMWDLDX-UHFFFAOYSA-N

>  <fragmenstein_mode>  (1546) 
expansion

>  <HIPPO Pose ID>  (1546) 
22204

>  <Energy>  (1546) 
46.459491

>  <fragmenstein_error>  (1546) 


>  <tags>  (1546) 
{'openbind_xx01zvns2b_c1_fragmenstein', 'fragmenstein_placed'}

>  <ref_pdb>  (1546) 
175

>  <scratch_subdir>  (1546) 
/opt/xchem-fragalysis-2/maxwin/BulkDock/SCRATCH/511028/C22862-P200

>  <alias>  (1546) 
CNCN1C(=O)[C@](C)(OCCCO)c2c(C(=O)Nc3cc(C)c4c(c3)CNC4)cc(F)cc21

>  <HIPPO Compound ID>  (1546) 
22862

>  <fragmenstein_runtime>  (1546) 
4.529038

$$$$
C[C@@H](F)[C@H]1O[C@]2(C)c3c(cc(F)cc3C(=O)N(c3ccc4c(c3)CNC4)C(=O)[C@@H]1CO)N[C@]2(O)F
     RDKit          3D

 35 39  0  0  0  0  0  0  0  0999 V2000
   -1.4704    5.2875  -14.6162 C   0  0  0  0  0  0  0  0  0  0  0  0
   -2.3827    4.6364  -13.5874 C   0  0  1  0  0  0  0  0  0  0  0  0
   -1.8020    4.8360  -12.3754 F   0  0  0  0  0  0  0  0  0  0  0  0
   -3.8002    5.2330  -13.6227 C   0  0  1  0  0  0  0  0  0  0  0  0
   -4.4033    4.8492  -14.8675 O   0  0  0  0  0  0  0  0  0  0  0  0
   -5.0608    5.7893  -15.7335 C   0  0  2  0  0  0  0  0  0  0  0  0
   -5.0915    7.2738  -15.3598 C   0  0  0  0  0  0  0  0  0  0  0  0
   -6.4572    5.2595  -16.0033 C   0  0  0  0  0  0  0  0  0  0  0  0
   -6.5684    4.9870  -17.3794 C   0  0  0  0  0  0  0  0  0  0  0  0
   -7.7237    4.4639  -17.9417 C   0  0  0  0  0  0  0  0  0  0  0  0
   -8.7876    4.1792  -17.1063 C   0  0  0  0  0  0  0  0  0  0  0  0
   -9.9123    3.6643  -17.6185 F   0  0  0  0  0  0  0  0  0  0  0  0
   -8.7220    4.4634  -15.7461 C   0  0  0  0  0  0  0  0  0  0  0  0
   -7.5660    5.0311  -15.1787 C   0  0  0  0  0  0  0  0  0  0  0  0
   -7.7855    5.5529  -13.8038 C   0  0  0  0  0  0  0  0  0  0  0  0
   -8.6203    6.4498  -13.6983 O   0  0  0  0  0  0  0  0  0  0  0  0
   -7.1359    4.9388  -12.7568 N   0  0  0  0  0  0  0  0  0  0  0  0
   -7.8585    4.9289  -11.5049 C   0  0  0  0  0  0  0  0  0  0  0  0
   -7.9982    6.0998  -10.7164 C   0  0  0  0  0  0  0  0  0  0  0  0
   -8.2629    6.0193   -9.3525 C   0  0  0  0  0  0  0  0  0  0  0  0
   -8.4363    4.7632   -8.8082 C   0  0  0  0  0  0  0  0  0  0  0  0
   -8.4478    3.6221   -9.6053 C   0  0  0  0  0  0  0  0  0  0  0  0
   -8.1558    3.6788  -10.9575 C   0  0  0  0  0  0  0  0  0  0  0  0
   -8.7801    2.4343   -8.7678 C   0  0  0  0  0  0  0  0  0  0  0  0
   -8.7180    2.9011   -7.3592 N   0  0  0  0  0  0  0  0  0  0  0  0
   -8.6283    4.3771   -7.3835 C   0  0  0  0  0  0  0  0  0  0  0  0
   -5.9227    5.5722  -12.5790 C   0  0  0  0  0  0  0  0  0  0  0  0
   -5.7728    6.7742  -12.3241 O   0  0  0  0  0  0  0  0  0  0  0  0
   -4.7278    4.6569  -12.5422 C   0  0  2  0  0  0  0  0  0  0  0  0
   -4.2323    4.6812  -11.0953 C   0  0  0  0  0  0  0  0  0  0  0  0
   -3.7941    5.9753  -10.6939 O   0  0  0  0  0  0  0  0  0  0  0  0
   -5.4539    5.3812  -18.1626 N   0  0  0  0  0  0  0  0  0  0  0  0
   -4.4212    5.6257  -17.1877 C   0  0  1  0  0  0  0  0  0  0  0  0
   -3.7141    6.7458  -17.6541 O   0  0  0  0  0  0  0  0  0  0  0  0
   -3.5586    4.5858  -17.2584 F   0  0  0  0  0  0  0  0  0  0  0  0
  2  1  1  6
  2  3  1  0
  2  4  1  0
  4  5  1  6
  5  6  1  0
  6  7  1  1
  6  8  1  0
  8  9  2  0
  9 10  1  0
 10 11  2  0
 11 12  1  0
 11 13  1  0
 13 14  2  0
 14 15  1  0
 15 16  2  0
 15 17  1  0
 17 18  1  0
 18 19  2  0
 19 20  1  0
 20 21  2  0
 21 22  1  0
 22 23  2  0
 22 24  1  0
 24 25  1  0
 25 26  1  0
 17 27  1  0
 27 28  2  0
 27 29  1  0
 29 30  1  1
 30 31  1  0
  9 32  1  0
 32 33  1  0
 33 34  1  6
 33 35  1  0
 29  4  1  0
 33  6  1  0
 14  8  1  0
 23 18  1  0
 26 21  1  0
M  END
>  <smiles>  (1547) 
C22863-P200

>  <fragmenstein_outcome>  (1547) 
acceptable

>  <inchikey>  (1547) 
RAUCLMWMJLNPTE-UHFFFAOYSA-N

>  <fragmenstein_mode>  (1547) 
expansion

>  <HIPPO Pose ID>  (1547) 
22205

>  <Energy>  (1547) 
118.95017

>  <fragmenstein_error>  (1547) 


>  <tags>  (1547) 
{'openbind_xx01zvns2b_c1_fragmenstein', 'fragmenstein_placed'}

>  <ref_pdb>  (1547) 
175

>  <scratch_subdir>  (1547) 
/opt/xchem-fragalysis-2/maxwin/BulkDock/SCRATCH/511028/C22863-P200

>  <alias>  (1547) 
C[C@@H](F)[C@H]1O[C@]2(C)c3c(cc(F)cc3C(=O)N(c3ccc4c(c3)CNC4)C(=O)[C@@H]1CO)N[C@]2(O)F

>  <HIPPO Compound ID>  (1547) 
22863

>  <fragmenstein_runtime>  (1547) 
3.124239

$$$$
C[C@]1(OCCCO)c2cn[nH]c2-c2cc(F)cc(C(=O)Nc3ccc4c(c3)CNC4)c21
     RDKit          3D

 31 35  0  0  0  0  0  0  0  0999 V2000
   -5.0554    7.2898  -15.6337 C   0  0  0  0  0  0  0  0  0  0  0  0
   -5.1604    5.8036  -16.0137 C   0  0  2  0  0  0  0  0  0  0  0  0
   -4.4893    4.8609  -15.1638 O   0  0  0  0  0  0  0  0  0  0  0  0
   -4.1814    5.2987  -13.8384 C   0  0  0  0  0  0  0  0  0  0  0  0
   -4.1016    4.1033  -12.8925 C   0  0  0  0  0  0  0  0  0  0  0  0
   -3.7451    4.5298  -11.4726 C   0  0  0  0  0  0  0  0  0  0  0  0
   -4.6294    5.5305  -10.9897 O   0  0  0  0  0  0  0  0  0  0  0  0
   -4.6910    5.6746  -17.4655 C   0  0  0  0  0  0  0  0  0  0  0  0
   -3.5985    5.9241  -18.3058 C   0  0  0  0  0  0  0  0  0  0  0  0
   -3.8750    5.6583  -19.5995 N   0  0  0  0  0  0  0  0  0  0  0  0
   -5.1855    5.2778  -19.5861 N   0  0  0  0  0  0  0  0  0  0  0  0
   -5.6576    5.2416  -18.3239 C   0  0  0  0  0  0  0  0  0  0  0  0
   -6.8566    4.9504  -17.6356 C   0  0  0  0  0  0  0  0  0  0  0  0
   -8.0308    4.4098  -18.1081 C   0  0  0  0  0  0  0  0  0  0  0  0
   -9.0236    4.1700  -17.1781 C   0  0  0  0  0  0  0  0  0  0  0  0
  -10.1856    3.6543  -17.5921 F   0  0  0  0  0  0  0  0  0  0  0  0
   -8.8474    4.4653  -15.8240 C   0  0  0  0  0  0  0  0  0  0  0  0
   -7.6475    5.0314  -15.3590 C   0  0  0  0  0  0  0  0  0  0  0  0
   -7.6148    5.4549  -13.9422 C   0  0  0  0  0  0  0  0  0  0  0  0
   -7.4301    6.5843  -13.7123 O   0  0  0  0  0  0  0  0  0  0  0  0
   -7.9011    4.2716  -12.9884 N   0  0  0  0  0  0  0  0  0  0  0  0
   -8.1067    4.2491  -11.6084 C   0  0  0  0  0  0  0  0  0  0  0  0
   -8.0445    5.4260  -10.8426 C   0  0  0  0  0  0  0  0  0  0  0  0
   -8.2314    5.3934   -9.4555 C   0  0  0  0  0  0  0  0  0  0  0  0
   -8.5182    4.1782   -8.8638 C   0  0  0  0  0  0  0  0  0  0  0  0
   -8.6035    3.0133   -9.6205 C   0  0  0  0  0  0  0  0  0  0  0  0
   -8.3815    3.0255  -10.9888 C   0  0  0  0  0  0  0  0  0  0  0  0
   -8.9403    1.8720   -8.7149 C   0  0  0  0  0  0  0  0  0  0  0  0
   -9.4091    2.5087   -7.4535 N   0  0  0  0  0  0  0  0  0  0  0  0
   -8.7736    3.8442   -7.4317 C   0  0  0  0  0  0  0  0  0  0  0  0
   -6.6192    5.2819  -16.2656 C   0  0  0  0  0  0  0  0  0  0  0  0
  2  1  1  1
  2  3  1  0
  3  4  1  0
  4  5  1  0
  5  6  1  0
  6  7  1  0
  2  8  1  0
  8  9  1  0
  9 10  2  0
 10 11  1  0
 11 12  1  0
 12 13  1  0
 13 14  2  0
 14 15  1  0
 15 16  1  0
 15 17  2  0
 17 18  1  0
 18 19  1  0
 19 20  2  0
 19 21  1  0
 21 22  1  0
 22 23  2  0
 23 24  1  0
 24 25  2  0
 25 26  1  0
 26 27  2  0
 26 28  1  0
 28 29  1  0
 29 30  1  0
 18 31  2  0
 31  2  1  0
 12  8  2  0
 31 13  1  0
 27 22  1  0
 30 25  1  0
M  END
>  <smiles>  (1548) 
C22870-P200

>  <fragmenstein_outcome>  (1548) 
acceptable

>  <inchikey>  (1548) 
ATSPPYINPKCORO-UHFFFAOYSA-N

>  <fragmenstein_mode>  (1548) 
expansion

>  <HIPPO Pose ID>  (1548) 
22207

>  <Energy>  (1548) 
73.117511

>  <fragmenstein_error>  (1548) 


>  <tags>  (1548) 
{'openbind_xx01zvns2b_c1_fragmenstein', 'fragmenstein_placed'}

>  <ref_pdb>  (1548) 
175

>  <scratch_subdir>  (1548) 
/opt/xchem-fragalysis-2/maxwin/BulkDock/SCRATCH/511028/C22870-P200

>  <alias>  (1548) 
C[C@]1(OCCCO)c2cn[nH]c2-c2cc(F)cc(C(=O)Nc3ccc4c(c3)CNC4)c21

>  <HIPPO Compound ID>  (1548) 
32279

>  <fragmenstein_runtime>  (1548) 
4.323848

$$$$
C[C@@]1(OCCCO)c2c(C(=O)Nc3ccc4c(c3)CNC4)cc(F)cc2N2CNC[C@@]21O
     RDKit          3D

 32 36  0  0  0  0  0  0  0  0999 V2000
   -5.3240    7.2598  -14.7262 C   0  0  0  0  0  0  0  0  0  0  0  0
   -5.2799    5.9736  -15.5557 C   0  0  1  0  0  0  0  0  0  0  0  0
   -4.6550    4.8301  -14.9311 O   0  0  0  0  0  0  0  0  0  0  0  0
   -3.8146    5.0120  -13.7956 C   0  0  0  0  0  0  0  0  0  0  0  0
   -4.3826    4.1758  -12.6497 C   0  0  0  0  0  0  0  0  0  0  0  0
   -3.9504    4.6746  -11.2816 C   0  0  0  0  0  0  0  0  0  0  0  0
   -4.5004    5.9617  -11.0301 O   0  0  0  0  0  0  0  0  0  0  0  0
   -6.6551    5.4567  -15.9544 C   0  0  0  0  0  0  0  0  0  0  0  0
   -7.7373    5.0547  -15.1664 C   0  0  0  0  0  0  0  0  0  0  0  0
   -7.8936    5.4729  -13.7558 C   0  0  0  0  0  0  0  0  0  0  0  0
   -7.9040    6.6178  -13.5318 O   0  0  0  0  0  0  0  0  0  0  0  0
   -8.0923    4.2678  -12.8137 N   0  0  0  0  0  0  0  0  0  0  0  0
   -8.2459    4.2166  -11.4301 C   0  0  0  0  0  0  0  0  0  0  0  0
   -8.1505    5.3843  -10.6529 C   0  0  0  0  0  0  0  0  0  0  0  0
   -8.2725    5.3334   -9.2612 C   0  0  0  0  0  0  0  0  0  0  0  0
   -8.5236    4.1082   -8.6735 C   0  0  0  0  0  0  0  0  0  0  0  0
   -8.6422    2.9568   -9.4416 C   0  0  0  0  0  0  0  0  0  0  0  0
   -8.4856    2.9858  -10.8189 C   0  0  0  0  0  0  0  0  0  0  0  0
   -8.9284    1.7951   -8.5525 C   0  0  0  0  0  0  0  0  0  0  0  0
   -9.1509    2.3591   -7.1941 N   0  0  0  0  0  0  0  0  0  0  0  0
   -8.7060    3.7675   -7.2347 C   0  0  0  0  0  0  0  0  0  0  0  0
   -8.8245    4.4137  -15.7671 C   0  0  0  0  0  0  0  0  0  0  0  0
   -8.8332    4.2090  -17.1416 C   0  0  0  0  0  0  0  0  0  0  0  0
   -9.8869    3.6032  -17.7030 F   0  0  0  0  0  0  0  0  0  0  0  0
   -7.8006    4.6734  -17.9436 C   0  0  0  0  0  0  0  0  0  0  0  0
   -6.7226    5.3140  -17.3478 C   0  0  0  0  0  0  0  0  0  0  0  0
   -5.6776    5.9504  -18.0242 N   0  0  0  0  0  0  0  0  0  0  0  0
   -5.0136    5.2517  -19.1121 C   0  0  0  0  0  0  0  0  0  0  0  0
   -3.5542    5.2911  -18.9153 N   0  0  0  0  0  0  0  0  0  0  0  0
   -3.4688    5.3636  -17.4286 C   0  0  0  0  0  0  0  0  0  0  0  0
   -4.6679    6.2497  -16.9980 C   0  0  2  0  0  0  0  0  0  0  0  0
   -4.3278    7.6166  -17.2149 O   0  0  0  0  0  0  0  0  0  0  0  0
  2  1  1  1
  2  3  1  0
  3  4  1  0
  4  5  1  0
  5  6  1  0
  6  7  1  0
  2  8  1  0
  8  9  2  0
  9 10  1  0
 10 11  2  0
 10 12  1  0
 12 13  1  0
 13 14  2  0
 14 15  1  0
 15 16  2  0
 16 17  1  0
 17 18  2  0
 17 19  1  0
 19 20  1  0
 20 21  1  0
  9 22  1  0
 22 23  2  0
 23 24  1  0
 23 25  1  0
 25 26  2  0
 26 27  1  0
 27 28  1  0
 28 29  1  0
 29 30  1  0
 30 31  1  0
 31 32  1  1
 31  2  1  0
 26  8  1  0
 31 27  1  0
 18 13  1  0
 21 16  1  0
M  END
>  <smiles>  (1549) 
C22871-P200

>  <fragmenstein_outcome>  (1549) 
acceptable

>  <inchikey>  (1549) 
SLZAMJWIYKLHRR-UHFFFAOYSA-N

>  <fragmenstein_mode>  (1549) 
expansion

>  <HIPPO Pose ID>  (1549) 
22208

>  <Energy>  (1549) 
89.163812

>  <fragmenstein_error>  (1549) 


>  <tags>  (1549) 
{'openbind_xx01zvns2b_c1_fragmenstein', 'fragmenstein_placed'}

>  <ref_pdb>  (1549) 
175

>  <scratch_subdir>  (1549) 
/opt/xchem-fragalysis-2/maxwin/BulkDock/SCRATCH/511028/C22871-P200

>  <alias>  (1549) 
C[C@@]1(OCCCO)c2c(C(=O)Nc3ccc4c(c3)CNC4)cc(F)cc2N2CNC[C@@]21O

>  <HIPPO Compound ID>  (1549) 
34700

>  <fragmenstein_runtime>  (1549) 
5.135563

$$$$
C[C@@H]1CCNC[C@]12C(=O)[C@](C)(OCCCO)c1c(C(=O)Nc3ccc4c(c3)CNC4)cc(F)cc12
     RDKit          3D

 35 39  0  0  0  0  0  0  0  0999 V2000
   -3.1307    4.8623  -18.9785 C   0  0  0  0  0  0  0  0  0  0  0  0
   -4.6199    5.2376  -19.0197 C   0  0  2  0  0  0  0  0  0  0  0  0
   -4.8582    6.1149  -20.2558 C   0  0  0  0  0  0  0  0  0  0  0  0
   -4.2923    7.5314  -20.1390 C   0  0  0  0  0  0  0  0  0  0  0  0
   -4.4268    8.1038  -18.8071 N   0  0  0  0  0  0  0  0  0  0  0  0
   -5.4768    7.4467  -18.0399 C   0  0  0  0  0  0  0  0  0  0  0  0
   -5.1838    5.9397  -17.7567 C   0  0  2  0  0  0  0  0  0  0  0  0
   -4.3060    5.8948  -16.4792 C   0  0  0  0  0  0  0  0  0  0  0  0
   -3.0813    5.9728  -16.4467 O   0  0  0  0  0  0  0  0  0  0  0  0
   -5.2004    5.8057  -15.2053 C   0  0  2  0  0  0  0  0  0  0  0  0
   -5.1977    7.1677  -14.5097 C   0  0  0  0  0  0  0  0  0  0  0  0
   -4.9134    4.7428  -14.3126 O   0  0  0  0  0  0  0  0  0  0  0  0
   -3.6259    4.7300  -13.7098 C   0  0  0  0  0  0  0  0  0  0  0  0
   -3.7383    3.9244  -12.4145 C   0  0  0  0  0  0  0  0  0  0  0  0
   -3.8540    4.8048  -11.1723 C   0  0  0  0  0  0  0  0  0  0  0  0
   -4.8601    5.7925  -11.3019 O   0  0  0  0  0  0  0  0  0  0  0  0
   -6.5376    5.4191  -15.8089 C   0  0  0  0  0  0  0  0  0  0  0  0
   -7.7019    5.0559  -15.1273 C   0  0  0  0  0  0  0  0  0  0  0  0
   -7.8981    5.4557  -13.7213 C   0  0  0  0  0  0  0  0  0  0  0  0
   -7.9192    6.5989  -13.4899 O   0  0  0  0  0  0  0  0  0  0  0  0
   -7.9856    4.2439  -12.7756 N   0  0  0  0  0  0  0  0  0  0  0  0
   -8.2051    4.1824  -11.4017 C   0  0  0  0  0  0  0  0  0  0  0  0
   -8.1862    5.3537  -10.6212 C   0  0  0  0  0  0  0  0  0  0  0  0
   -8.3630    5.3006   -9.2361 C   0  0  0  0  0  0  0  0  0  0  0  0
   -8.6176    4.0708   -8.6647 C   0  0  0  0  0  0  0  0  0  0  0  0
   -8.6656    2.9136   -9.4386 C   0  0  0  0  0  0  0  0  0  0  0  0
   -8.4274    2.9428  -10.8028 C   0  0  0  0  0  0  0  0  0  0  0  0
   -8.9910    1.7567   -8.5521 C   0  0  0  0  0  0  0  0  0  0  0  0
   -9.5021    2.3696   -7.2947 N   0  0  0  0  0  0  0  0  0  0  0  0
   -8.8821    3.7115   -7.2412 C   0  0  0  0  0  0  0  0  0  0  0  0
   -8.7624    4.4835  -15.8248 C   0  0  0  0  0  0  0  0  0  0  0  0
   -8.6623    4.3228  -17.2040 C   0  0  0  0  0  0  0  0  0  0  0  0
   -9.6931    3.7788  -17.8639 F   0  0  0  0  0  0  0  0  0  0  0  0
   -7.5427    4.7653  -17.9122 C   0  0  0  0  0  0  0  0  0  0  0  0
   -6.4782    5.3286  -17.2128 C   0  0  0  0  0  0  0  0  0  0  0  0
  2  1  1  1
  2  3  1  0
  3  4  1  0
  4  5  1  0
  5  6  1  0
  7  6  1  6
  7  8  1  0
  8  9  2  0
  8 10  1  0
 10 11  1  1
 10 12  1  0
 12 13  1  0
 13 14  1  0
 14 15  1  0
 15 16  1  0
 10 17  1  0
 17 18  2  0
 18 19  1  0
 19 20  2  0
 19 21  1  0
 21 22  1  0
 22 23  2  0
 23 24  1  0
 24 25  2  0
 25 26  1  0
 26 27  2  0
 26 28  1  0
 28 29  1  0
 29 30  1  0
 18 31  1  0
 31 32  2  0
 32 33  1  0
 32 34  1  0
 34 35  2  0
  7  2  1  0
 35 17  1  0
 35  7  1  0
 27 22  1  0
 30 25  1  0
M  END
>  <smiles>  (1550) 
C22874-P200

>  <fragmenstein_outcome>  (1550) 
acceptable

>  <inchikey>  (1550) 
QAAOSLPDUGWJFF-UHFFFAOYSA-N

>  <fragmenstein_mode>  (1550) 
expansion

>  <HIPPO Pose ID>  (1550) 
22209

>  <Energy>  (1550) 
132.91251

>  <fragmenstein_error>  (1550) 


>  <tags>  (1550) 
{'openbind_xx01zvns2b_c1_fragmenstein', 'fragmenstein_placed'}

>  <ref_pdb>  (1550) 
175

>  <scratch_subdir>  (1550) 
/opt/xchem-fragalysis-2/maxwin/BulkDock/SCRATCH/511028/C22874-P200

>  <alias>  (1550) 
C[C@@H]1CCNC[C@]12C(=O)[C@](C)(OCCCO)c1c(C(=O)Nc3ccc4c(c3)CNC4)cc(F)cc12

>  <HIPPO Compound ID>  (1550) 
22874

>  <fragmenstein_runtime>  (1550) 
9.503258

$$$$
C[C@]1(OCCCO)C(=O)[C@@]2(CCNC2)c2cc(F)cc(C(=O)Nc3ccc4c(c3)CNC4)c21
     RDKit          3D

 33 37  0  0  0  0  0  0  0  0999 V2000
   -5.1705    7.1264  -14.8322 C   0  0  0  0  0  0  0  0  0  0  0  0
   -5.2797    5.7067  -15.3922 C   0  0  2  0  0  0  0  0  0  0  0  0
   -4.9643    4.7081  -14.4412 O   0  0  0  0  0  0  0  0  0  0  0  0
   -3.6709    4.7337  -13.8527 C   0  0  0  0  0  0  0  0  0  0  0  0
   -3.7608    3.9584  -12.5353 C   0  0  0  0  0  0  0  0  0  0  0  0
   -3.8715    4.8626  -11.3089 C   0  0  0  0  0  0  0  0  0  0  0  0
   -4.8571    5.8679  -11.4621 O   0  0  0  0  0  0  0  0  0  0  0  0
   -4.5052    5.6524  -16.7510 C   0  0  0  0  0  0  0  0  0  0  0  0
   -3.2833    5.6481  -16.8771 O   0  0  0  0  0  0  0  0  0  0  0  0
   -5.5028    5.6844  -17.9239 C   0  0  2  0  0  0  0  0  0  0  0  0
   -5.0470    4.9429  -19.1678 C   0  0  0  0  0  0  0  0  0  0  0  0
   -4.8799    6.0179  -20.2296 C   0  0  0  0  0  0  0  0  0  0  0  0
   -4.6794    7.2765  -19.4994 N   0  0  0  0  0  0  0  0  0  0  0  0
   -5.6155    7.1434  -18.3786 C   0  0  0  0  0  0  0  0  0  0  0  0
   -6.7580    5.2000  -17.2570 C   0  0  0  0  0  0  0  0  0  0  0  0
   -7.8881    4.6543  -17.8541 C   0  0  0  0  0  0  0  0  0  0  0  0
   -8.9448    4.2589  -17.0437 C   0  0  0  0  0  0  0  0  0  0  0  0
  -10.0273    3.7072  -17.6037 F   0  0  0  0  0  0  0  0  0  0  0  0
   -8.9147    4.4572  -15.6660 C   0  0  0  0  0  0  0  0  0  0  0  0
   -7.7899    5.0290  -15.0724 C   0  0  0  0  0  0  0  0  0  0  0  0
   -7.8507    5.4340  -13.6550 C   0  0  0  0  0  0  0  0  0  0  0  0
   -7.7440    6.5697  -13.4128 O   0  0  0  0  0  0  0  0  0  0  0  0
   -8.0366    4.2268  -12.7181 N   0  0  0  0  0  0  0  0  0  0  0  0
   -8.2193    4.1718  -11.3395 C   0  0  0  0  0  0  0  0  0  0  0  0
   -8.1502    5.3373  -10.5545 C   0  0  0  0  0  0  0  0  0  0  0  0
   -8.3246    5.2833   -9.1690 C   0  0  0  0  0  0  0  0  0  0  0  0
   -8.6134    4.0589   -8.6014 C   0  0  0  0  0  0  0  0  0  0  0  0
   -8.6968    2.9068   -9.3793 C   0  0  0  0  0  0  0  0  0  0  0  0
   -8.4767    2.9370  -10.7452 C   0  0  0  0  0  0  0  0  0  0  0  0
   -9.0320    1.7523   -8.4949 C   0  0  0  0  0  0  0  0  0  0  0  0
   -9.5300    2.3696   -7.2354 N   0  0  0  0  0  0  0  0  0  0  0  0
   -8.8852    3.7007   -7.1789 C   0  0  0  0  0  0  0  0  0  0  0  0
   -6.6835    5.3443  -15.8587 C   0  0  0  0  0  0  0  0  0  0  0  0
  2  1  1  1
  2  3  1  0
  3  4  1  0
  4  5  1  0
  5  6  1  0
  6  7  1  0
  2  8  1  0
  8  9  2  0
  8 10  1  0
 10 11  1  6
 11 12  1  0
 12 13  1  0
 13 14  1  0
 10 15  1  0
 15 16  2  0
 16 17  1  0
 17 18  1  0
 17 19  2  0
 19 20  1  0
 20 21  1  0
 21 22  2  0
 21 23  1  0
 23 24  1  0
 24 25  2  0
 25 26  1  0
 26 27  2  0
 27 28  1  0
 28 29  2  0
 28 30  1  0
 30 31  1  0
 31 32  1  0
 20 33  2  0
 33  2  1  0
 14 10  1  0
 33 15  1  0
 29 24  1  0
 32 27  1  0
M  END
>  <smiles>  (1551) 
C22876-P200

>  <fragmenstein_outcome>  (1551) 
acceptable

>  <inchikey>  (1551) 
VXLGRYSEKBEEAO-UHFFFAOYSA-N

>  <fragmenstein_mode>  (1551) 
expansion

>  <HIPPO Pose ID>  (1551) 
22211

>  <Energy>  (1551) 
112.901385

>  <fragmenstein_error>  (1551) 


>  <tags>  (1551) 
{'openbind_xx01zvns2b_c1_fragmenstein', 'fragmenstein_placed'}

>  <ref_pdb>  (1551) 
175

>  <scratch_subdir>  (1551) 
/opt/xchem-fragalysis-2/maxwin/BulkDock/SCRATCH/511028/C22876-P200

>  <alias>  (1551) 
C[C@]1(OCCCO)C(=O)[C@@]2(CCNC2)c2cc(F)cc(C(=O)Nc3ccc4c(c3)CNC4)c21

>  <HIPPO Compound ID>  (1551) 
22876

>  <fragmenstein_runtime>  (1551) 
6.037699

$$$$
COCCN1CC(=O)[C@@]2(O)Nc3cc(F)cc(C(=O)Nc4ccc5c(c4)CNC5)c3[C@@]12C
     RDKit          3D

 32 36  0  0  0  0  0  0  0  0999 V2000
   -4.6833    5.2019  -10.6102 C   0  0  0  0  0  0  0  0  0  0  0  0
   -3.5769    4.7512  -11.3834 O   0  0  0  0  0  0  0  0  0  0  0  0
   -3.9509    4.2535  -12.6754 C   0  0  0  0  0  0  0  0  0  0  0  0
   -4.3940    5.4036  -13.5928 C   0  0  0  0  0  0  0  0  0  0  0  0
   -4.4743    5.0800  -15.0247 N   0  0  0  0  0  0  0  0  0  0  0  0
   -3.1377    5.0557  -15.6352 C   0  0  0  0  0  0  0  0  0  0  0  0
   -3.3412    5.3668  -17.0962 C   0  0  0  0  0  0  0  0  0  0  0  0
   -2.4687    5.2427  -17.9567 O   0  0  0  0  0  0  0  0  0  0  0  0
   -4.7052    5.9753  -17.3389 C   0  0  1  0  0  0  0  0  0  0  0  0
   -4.5631    7.2200  -17.9948 O   0  0  0  0  0  0  0  0  0  0  0  0
   -5.5188    5.1337  -18.1952 N   0  0  0  0  0  0  0  0  0  0  0  0
   -6.7234    4.9927  -17.4705 C   0  0  0  0  0  0  0  0  0  0  0  0
   -7.8461    4.3796  -18.0049 C   0  0  0  0  0  0  0  0  0  0  0  0
   -8.9242    4.1497  -17.1715 C   0  0  0  0  0  0  0  0  0  0  0  0
  -10.0207    3.5593  -17.6587 F   0  0  0  0  0  0  0  0  0  0  0  0
   -8.8838    4.5121  -15.8297 C   0  0  0  0  0  0  0  0  0  0  0  0
   -7.7566    5.1583  -15.3047 C   0  0  0  0  0  0  0  0  0  0  0  0
   -7.8389    5.5949  -13.8941 C   0  0  0  0  0  0  0  0  0  0  0  0
   -7.7346    6.7328  -13.6557 O   0  0  0  0  0  0  0  0  0  0  0  0
   -8.0299    4.3857  -12.9483 N   0  0  0  0  0  0  0  0  0  0  0  0
   -8.2205    4.3370  -11.5675 C   0  0  0  0  0  0  0  0  0  0  0  0
   -8.1745    5.5024  -10.7849 C   0  0  0  0  0  0  0  0  0  0  0  0
   -8.3037    5.4375   -9.3926 C   0  0  0  0  0  0  0  0  0  0  0  0
   -8.5135    4.2009   -8.8096 C   0  0  0  0  0  0  0  0  0  0  0  0
   -8.5986    3.0512   -9.5831 C   0  0  0  0  0  0  0  0  0  0  0  0
   -8.4356    3.0957  -10.9604 C   0  0  0  0  0  0  0  0  0  0  0  0
   -8.8639    1.8768   -8.7023 C   0  0  0  0  0  0  0  0  0  0  0  0
   -9.0467    2.4189   -7.3288 N   0  0  0  0  0  0  0  0  0  0  0  0
   -8.6757    3.8478   -7.3713 C   0  0  0  0  0  0  0  0  0  0  0  0
   -6.6602    5.4112  -16.1304 C   0  0  0  0  0  0  0  0  0  0  0  0
   -5.2954    6.0154  -15.8531 C   0  0  1  0  0  0  0  0  0  0  0  0
   -5.2656    7.4707  -15.3580 C   0  0  0  0  0  0  0  0  0  0  0  0
  1  2  1  0
  2  3  1  0
  3  4  1  0
  4  5  1  0
  5  6  1  0
  6  7  1  0
  7  8  2  0
  7  9  1  0
  9 10  1  6
  9 11  1  0
 11 12  1  0
 12 13  2  0
 13 14  1  0
 14 15  1  0
 14 16  2  0
 16 17  1  0
 17 18  1  0
 18 19  2  0
 18 20  1  0
 20 21  1  0
 21 22  2  0
 22 23  1  0
 23 24  2  0
 24 25  1  0
 25 26  2  0
 25 27  1  0
 27 28  1  0
 28 29  1  0
 17 30  2  0
 30 31  1  0
 31 32  1  1
 31  5  1  0
 31  9  1  0
 30 12  1  0
 26 21  1  0
 29 24  1  0
M  END
>  <smiles>  (1552) 
C22885-P200

>  <fragmenstein_outcome>  (1552) 
acceptable

>  <inchikey>  (1552) 
BTEJGODIYPOSRY-UHFFFAOYSA-N

>  <fragmenstein_mode>  (1552) 
expansion

>  <HIPPO Pose ID>  (1552) 
22214

>  <Energy>  (1552) 
150.16752

>  <fragmenstein_error>  (1552) 


>  <tags>  (1552) 
{'openbind_xx01zvns2b_c1_fragmenstein', 'fragmenstein_placed'}

>  <ref_pdb>  (1552) 
175

>  <scratch_subdir>  (1552) 
/opt/xchem-fragalysis-2/maxwin/BulkDock/SCRATCH/511028/C22885-P200

>  <alias>  (1552) 
COCCN1CC(=O)[C@@]2(O)Nc3cc(F)cc(C(=O)Nc4ccc5c(c4)CNC5)c3[C@@]12C

>  <HIPPO Compound ID>  (1552) 
29859

>  <fragmenstein_runtime>  (1552) 
5.878955

$$$$
COCCN1CC(=O)[C@]2(O)Nc3cc(F)cc(C(=O)Nc4ccc5c(c4)CNC5)c3[C@@]12C
     RDKit          3D

 32 36  0  0  0  0  0  0  0  0999 V2000
   -4.7547    5.2594  -10.5002 C   0  0  0  0  0  0  0  0  0  0  0  0
   -3.5191    5.0046  -11.1561 O   0  0  0  0  0  0  0  0  0  0  0  0
   -3.6788    4.5281  -12.4971 C   0  0  0  0  0  0  0  0  0  0  0  0
   -4.2805    5.6072  -13.4084 C   0  0  0  0  0  0  0  0  0  0  0  0
   -4.1368    5.3068  -14.8266 N   0  0  0  0  0  0  0  0  0  0  0  0
   -2.8130    5.8048  -15.3816 C   0  0  0  0  0  0  0  0  0  0  0  0
   -3.1365    6.1387  -16.8623 C   0  0  0  0  0  0  0  0  0  0  0  0
   -2.4235    6.7583  -17.6382 O   0  0  0  0  0  0  0  0  0  0  0  0
   -4.4699    5.5526  -17.1089 C   0  0  2  0  0  0  0  0  0  0  0  0
   -4.0416    4.2077  -17.3117 O   0  0  0  0  0  0  0  0  0  0  0  0
   -5.3934    5.7590  -18.1938 N   0  0  0  0  0  0  0  0  0  0  0  0
   -6.5634    5.2279  -17.4901 C   0  0  0  0  0  0  0  0  0  0  0  0
   -7.6924    4.7509  -18.1313 C   0  0  0  0  0  0  0  0  0  0  0  0
   -8.7489    4.3247  -17.3359 C   0  0  0  0  0  0  0  0  0  0  0  0
   -9.8524    3.8257  -17.9084 F   0  0  0  0  0  0  0  0  0  0  0  0
   -8.7184    4.4614  -15.9451 C   0  0  0  0  0  0  0  0  0  0  0  0
   -7.5916    4.9898  -15.3037 C   0  0  0  0  0  0  0  0  0  0  0  0
   -7.7524    5.4471  -13.9015 C   0  0  0  0  0  0  0  0  0  0  0  0
   -7.5479    6.5771  -13.6901 O   0  0  0  0  0  0  0  0  0  0  0  0
   -8.1649    4.3079  -12.9433 N   0  0  0  0  0  0  0  0  0  0  0  0
   -8.3152    4.3002  -11.5536 C   0  0  0  0  0  0  0  0  0  0  0  0
   -8.1946    5.4880  -10.8117 C   0  0  0  0  0  0  0  0  0  0  0  0
   -8.2734    5.4789   -9.4139 C   0  0  0  0  0  0  0  0  0  0  0  0
   -8.4998    4.2730   -8.7779 C   0  0  0  0  0  0  0  0  0  0  0  0
   -8.6568    3.1013   -9.5065 C   0  0  0  0  0  0  0  0  0  0  0  0
   -8.5584    3.0947  -10.8928 C   0  0  0  0  0  0  0  0  0  0  0  0
   -8.8957    1.9663   -8.5650 C   0  0  0  0  0  0  0  0  0  0  0  0
   -9.0661    2.5769   -7.2209 N   0  0  0  0  0  0  0  0  0  0  0  0
   -8.6031    3.9721   -7.3212 C   0  0  0  0  0  0  0  0  0  0  0  0
   -6.4735    5.3143  -16.0708 C   0  0  0  0  0  0  0  0  0  0  0  0
   -5.1340    5.9209  -15.7346 C   0  0  1  0  0  0  0  0  0  0  0  0
   -5.2797    7.4571  -15.5481 C   0  0  0  0  0  0  0  0  0  0  0  0
  1  2  1  0
  2  3  1  0
  3  4  1  0
  4  5  1  0
  5  6  1  0
  6  7  1  0
  7  8  2  0
  7  9  1  0
  9 10  1  1
  9 11  1  0
 11 12  1  0
 12 13  2  0
 13 14  1  0
 14 15  1  0
 14 16  2  0
 16 17  1  0
 17 18  1  0
 18 19  2  0
 18 20  1  0
 20 21  1  0
 21 22  2  0
 22 23  1  0
 23 24  2  0
 24 25  1  0
 25 26  2  0
 25 27  1  0
 27 28  1  0
 28 29  1  0
 17 30  2  0
 30 31  1  0
 31 32  1  1
 31  5  1  0
 31  9  1  0
 30 12  1  0
 26 21  1  0
 29 24  1  0
M  END
>  <smiles>  (1553) 
C22885-P104

>  <fragmenstein_outcome>  (1553) 
acceptable

>  <inchikey>  (1553) 
HUPPILIMAHRSJO-UHFFFAOYSA-N

>  <fragmenstein_mode>  (1553) 
expansion

>  <HIPPO Pose ID>  (1553) 
22215

>  <Energy>  (1553) 
186.165939

>  <fragmenstein_error>  (1553) 


>  <tags>  (1553) 
{'openbind_xx01zvns2b_c1_fragmenstein', 'fragmenstein_placed'}

>  <ref_pdb>  (1553) 
175

>  <scratch_subdir>  (1553) 
/opt/xchem-fragalysis-2/maxwin/BulkDock/SCRATCH/511028/C22885-P104

>  <alias>  (1553) 
COCCN1CC(=O)[C@]2(O)Nc3cc(F)cc(C(=O)Nc4ccc5c(c4)CNC5)c3[C@@]12C

>  <HIPPO Compound ID>  (1553) 
21990

>  <fragmenstein_runtime>  (1553) 
5.5791

$$$$
COCCO[C@@]1(C)C(=O)N(CN)c2cc(F)cc(C(=O)Nc3ccc4c(c3)CNC4)c21
     RDKit          3D

 31 34  0  0  0  0  0  0  0  0999 V2000
   -4.6497    5.2738  -10.5690 C   0  0  0  0  0  0  0  0  0  0  0  0
   -3.5755    4.7486  -11.3404 O   0  0  0  0  0  0  0  0  0  0  0  0
   -3.9980    4.2213  -12.6011 C   0  0  0  0  0  0  0  0  0  0  0  0
   -4.1869    5.3423  -13.6208 C   0  0  0  0  0  0  0  0  0  0  0  0
   -4.5974    4.8251  -14.8807 O   0  0  0  0  0  0  0  0  0  0  0  0
   -5.1999    5.7526  -15.7832 C   0  0  1  0  0  0  0  0  0  0  0  0
   -5.1271    7.2511  -15.4391 C   0  0  0  0  0  0  0  0  0  0  0  0
   -4.5272    5.6790  -17.2041 C   0  0  0  0  0  0  0  0  0  0  0  0
   -3.3931    6.0643  -17.4711 O   0  0  0  0  0  0  0  0  0  0  0  0
   -5.4760    5.1907  -18.1103 N   0  0  0  0  0  0  0  0  0  0  0  0
   -5.4143    5.3095  -19.5499 C   0  0  0  0  0  0  0  0  0  0  0  0
   -4.0580    5.1429  -20.0416 N   0  0  0  0  0  0  0  0  0  0  0  0
   -6.6894    4.9296  -17.4503 C   0  0  0  0  0  0  0  0  0  0  0  0
   -7.8558    4.4232  -18.0008 C   0  0  0  0  0  0  0  0  0  0  0  0
   -8.9224    4.1752  -17.1499 C   0  0  0  0  0  0  0  0  0  0  0  0
  -10.0524    3.6642  -17.6511 F   0  0  0  0  0  0  0  0  0  0  0  0
   -8.8456    4.4520  -15.7875 C   0  0  0  0  0  0  0  0  0  0  0  0
   -7.6790    5.0056  -15.2516 C   0  0  0  0  0  0  0  0  0  0  0  0
   -7.7063    5.4356  -13.8370 C   0  0  0  0  0  0  0  0  0  0  0  0
   -7.5273    6.5651  -13.6072 O   0  0  0  0  0  0  0  0  0  0  0  0
   -7.9882    4.2538  -12.8859 N   0  0  0  0  0  0  0  0  0  0  0  0
   -8.1960    4.2304  -11.5076 C   0  0  0  0  0  0  0  0  0  0  0  0
   -8.1377    5.4084  -10.7435 C   0  0  0  0  0  0  0  0  0  0  0  0
   -8.2888    5.3708   -9.3527 C   0  0  0  0  0  0  0  0  0  0  0  0
   -8.5289    4.1483   -8.7533 C   0  0  0  0  0  0  0  0  0  0  0  0
   -8.6260    2.9881   -9.5102 C   0  0  0  0  0  0  0  0  0  0  0  0
   -8.4471    3.0056  -10.8854 C   0  0  0  0  0  0  0  0  0  0  0  0
   -8.9080    1.8308   -8.6129 C   0  0  0  0  0  0  0  0  0  0  0  0
   -9.1302    2.4030   -7.2577 N   0  0  0  0  0  0  0  0  0  0  0  0
   -8.7065    3.8170   -7.3114 C   0  0  0  0  0  0  0  0  0  0  0  0
   -6.5901    5.2405  -16.0889 C   0  0  0  0  0  0  0  0  0  0  0  0
  1  2  1  0
  2  3  1  0
  3  4  1  0
  4  5  1  0
  5  6  1  0
  6  7  1  1
  6  8  1  0
  8  9  2  0
  8 10  1  0
 10 11  1  0
 11 12  1  0
 10 13  1  0
 13 14  2  0
 14 15  1  0
 15 16  1  0
 15 17  2  0
 17 18  1  0
 18 19  1  0
 19 20  2  0
 19 21  1  0
 21 22  1  0
 22 23  2  0
 23 24  1  0
 24 25  2  0
 25 26  1  0
 26 27  2  0
 26 28  1  0
 28 29  1  0
 29 30  1  0
 18 31  2  0
 31  6  1  0
 31 13  1  0
 27 22  1  0
 30 25  1  0
M  END
>  <smiles>  (1554) 
C22886-P200

>  <fragmenstein_outcome>  (1554) 
acceptable

>  <inchikey>  (1554) 
JDTLVOARJWOFEZ-UHFFFAOYSA-N

>  <fragmenstein_mode>  (1554) 
expansion

>  <HIPPO Pose ID>  (1554) 
22216

>  <Energy>  (1554) 
68.315077

>  <fragmenstein_error>  (1554) 


>  <tags>  (1554) 
{'openbind_xx01zvns2b_c1_fragmenstein', 'fragmenstein_placed'}

>  <ref_pdb>  (1554) 
175

>  <scratch_subdir>  (1554) 
/opt/xchem-fragalysis-2/maxwin/BulkDock/SCRATCH/511028/C22886-P200

>  <alias>  (1554) 
COCCO[C@@]1(C)C(=O)N(CN)c2cc(F)cc(C(=O)Nc3ccc4c(c3)CNC4)c21

>  <HIPPO Compound ID>  (1554) 
33369

>  <fragmenstein_runtime>  (1554) 
5.360669

$$$$
COCCO[C@@]1(C)C(=O)N(CNN)C[C@H]1[C@H](C[C@@H](C)F)C(=O)Nc1ccc2c(c1)CNC2
     RDKit          3D

 32 34  0  0  0  0  0  0  0  0999 V2000
   -3.3730    1.7471  -12.1603 C   0  0  0  0  0  0  0  0  0  0  0  0
   -3.2949    2.7081  -13.2081 O   0  0  0  0  0  0  0  0  0  0  0  0
   -3.8275    3.9641  -12.7742 C   0  0  0  0  0  0  0  0  0  0  0  0
   -3.7374    4.9843  -13.9096 C   0  0  0  0  0  0  0  0  0  0  0  0
   -4.8522    4.8095  -14.7874 O   0  0  0  0  0  0  0  0  0  0  0  0
   -5.0719    5.8257  -15.7625 C   0  0  1  0  0  0  0  0  0  0  0  0
   -4.8988    7.2616  -15.2331 C   0  0  0  0  0  0  0  0  0  0  0  0
   -4.1544    5.7078  -17.0106 C   0  0  0  0  0  0  0  0  0  0  0  0
   -2.9370    5.8266  -17.0231 O   0  0  0  0  0  0  0  0  0  0  0  0
   -4.9435    5.4855  -18.1137 N   0  0  0  0  0  0  0  0  0  0  0  0
   -4.4882    5.2289  -19.4600 C   0  0  0  0  0  0  0  0  0  0  0  0
   -4.4748    6.5037  -20.1827 N   0  0  0  0  0  0  0  0  0  0  0  0
   -3.2098    7.1936  -19.9478 N   0  0  0  0  0  0  0  0  0  0  0  0
   -6.2639    5.1231  -17.7495 C   0  0  0  0  0  0  0  0  0  0  0  0
   -6.5238    5.6353  -16.3485 C   0  0  1  0  0  0  0  0  0  0  0  0
   -7.4774    4.7113  -15.5234 C   0  0  2  0  0  0  0  0  0  0  0  0
   -8.9042    4.4539  -16.0712 C   0  0  0  0  0  0  0  0  0  0  0  0
   -9.2711    4.5835  -17.5434 C   0  0  1  0  0  0  0  0  0  0  0  0
   -8.9366    3.5119  -18.5136 C   0  0  0  0  0  0  0  0  0  0  0  0
  -10.6309    4.6681  -17.6033 F   0  0  0  0  0  0  0  0  0  0  0  0
   -7.6697    5.3454  -14.1143 C   0  0  0  0  0  0  0  0  0  0  0  0
   -7.5855    6.5026  -13.9490 O   0  0  0  0  0  0  0  0  0  0  0  0
   -7.9792    4.1984  -13.1001 N   0  0  0  0  0  0  0  0  0  0  0  0
   -8.1469    4.2348  -11.7116 C   0  0  0  0  0  0  0  0  0  0  0  0
   -7.9878    5.4315  -10.9938 C   0  0  0  0  0  0  0  0  0  0  0  0
   -8.1051    5.4578   -9.5976 C   0  0  0  0  0  0  0  0  0  0  0  0
   -8.3942    4.2777   -8.9369 C   0  0  0  0  0  0  0  0  0  0  0  0
   -8.5741    3.0952   -9.6401 C   0  0  0  0  0  0  0  0  0  0  0  0
   -8.4457    3.0530  -11.0241 C   0  0  0  0  0  0  0  0  0  0  0  0
   -8.8808    1.9920   -8.6810 C   0  0  0  0  0  0  0  0  0  0  0  0
   -9.0002    2.6248   -7.3399 N   0  0  0  0  0  0  0  0  0  0  0  0
   -8.5481    4.0213   -7.4768 C   0  0  0  0  0  0  0  0  0  0  0  0
  1  2  1  0
  2  3  1  0
  3  4  1  0
  4  5  1  0
  5  6  1  0
  6  7  1  1
  6  8  1  0
  8  9  2  0
  8 10  1  0
 10 11  1  0
 11 12  1  0
 12 13  1  0
 10 14  1  0
 15 14  1  6
 15 16  1  0
 16 17  1  6
 17 18  1  0
 18 19  1  6
 18 20  1  0
 16 21  1  0
 21 22  2  0
 21 23  1  0
 23 24  1  0
 24 25  2  0
 25 26  1  0
 26 27  2  0
 27 28  1  0
 28 29  2  0
 28 30  1  0
 30 31  1  0
 31 32  1  0
 15  6  1  0
 29 24  1  0
 32 27  1  0
M  END
>  <smiles>  (1555) 
C22890-P109

>  <fragmenstein_outcome>  (1555) 
acceptable

>  <inchikey>  (1555) 
GDZWSUJGAMQBGV-UHFFFAOYSA-N

>  <fragmenstein_mode>  (1555) 
expansion

>  <HIPPO Pose ID>  (1555) 
22219

>  <Energy>  (1555) 
112.462622

>  <fragmenstein_error>  (1555) 


>  <tags>  (1555) 
{'openbind_xx01zvns2b_c1_fragmenstein', 'fragmenstein_placed'}

>  <ref_pdb>  (1555) 
175

>  <scratch_subdir>  (1555) 
/opt/xchem-fragalysis-2/maxwin/BulkDock/SCRATCH/511028/C22890-P109

>  <alias>  (1555) 
COCCO[C@@]1(C)C(=O)N(CNN)C[C@H]1[C@H](C[C@@H](C)F)C(=O)Nc1ccc2c(c1)CNC2

>  <HIPPO Compound ID>  (1555) 
22890

>  <fragmenstein_runtime>  (1555) 
7.190313

$$$$
COCCO[C@@]1(C)C(=O)N(OC)C2=C1[C@]1(C[C@H](F)C2)N=C1Nc1ccc2c(c1)CNC2
     RDKit          3D

 31 35  0  0  0  0  0  0  0  0999 V2000
   -4.7853    5.5332  -11.1259 C   0  0  0  0  0  0  0  0  0  0  0  0
   -3.5100    5.0444  -11.5130 O   0  0  0  0  0  0  0  0  0  0  0  0
   -3.5863    4.0168  -12.5110 C   0  0  0  0  0  0  0  0  0  0  0  0
   -3.6721    4.6117  -13.9222 C   0  0  0  0  0  0  0  0  0  0  0  0
   -5.0365    4.6355  -14.3286 O   0  0  0  0  0  0  0  0  0  0  0  0
   -5.3554    5.4773  -15.4181 C   0  0  1  0  0  0  0  0  0  0  0  0
   -5.1981    6.9642  -15.0670 C   0  0  0  0  0  0  0  0  0  0  0  0
   -4.6335    5.2456  -16.7973 C   0  0  0  0  0  0  0  0  0  0  0  0
   -3.4256    5.2666  -16.9998 O   0  0  0  0  0  0  0  0  0  0  0  0
   -5.6454    5.0647  -17.7111 N   0  0  0  0  0  0  0  0  0  0  0  0
   -5.4711    4.6723  -19.0354 O   0  0  0  0  0  0  0  0  0  0  0  0
   -5.5492    5.8258  -19.8467 C   0  0  0  0  0  0  0  0  0  0  0  0
   -6.8676    4.9275  -17.1542 C   0  0  0  0  0  0  0  0  0  0  0  0
   -6.7932    5.1466  -15.8370 C   0  0  0  0  0  0  0  0  0  0  0  0
   -7.9668    5.0877  -14.9801 C   0  0  2  0  0  0  0  0  0  0  0  0
   -9.2987    4.8387  -15.6344 C   0  0  0  0  0  0  0  0  0  0  0  0
   -9.2833    4.2595  -17.0461 C   0  0  2  0  0  0  0  0  0  0  0  0
   -9.3212    2.9018  -16.9329 F   0  0  0  0  0  0  0  0  0  0  0  0
   -8.0972    4.6191  -17.9308 C   0  0  0  0  0  0  0  0  0  0  0  0
   -7.9677    6.2175  -13.8757 N   0  0  0  0  0  0  0  0  0  0  0  0
   -7.8886    5.0124  -13.5684 C   0  0  0  0  0  0  0  0  0  0  0  0
   -7.8536    3.9815  -12.7322 N   0  0  0  0  0  0  0  0  0  0  0  0
   -8.1402    4.0519  -11.3591 C   0  0  0  0  0  0  0  0  0  0  0  0
   -8.1297    5.2661  -10.6399 C   0  0  0  0  0  0  0  0  0  0  0  0
   -8.3264    5.2976   -9.2533 C   0  0  0  0  0  0  0  0  0  0  0  0
   -8.5817    4.1060   -8.6024 C   0  0  0  0  0  0  0  0  0  0  0  0
   -8.6515    2.9141   -9.3064 C   0  0  0  0  0  0  0  0  0  0  0  0
   -8.4099    2.8648  -10.6683 C   0  0  0  0  0  0  0  0  0  0  0  0
   -8.9680    1.7962   -8.3752 C   0  0  0  0  0  0  0  0  0  0  0  0
   -9.2403    2.4260   -7.0556 N   0  0  0  0  0  0  0  0  0  0  0  0
   -8.7945    3.8326   -7.1531 C   0  0  0  0  0  0  0  0  0  0  0  0
  1  2  1  0
  2  3  1  0
  3  4  1  0
  4  5  1  0
  5  6  1  0
  6  7  1  1
  6  8  1  0
  8  9  2  0
  8 10  1  0
 10 11  1  0
 11 12  1  0
 10 13  1  0
 13 14  2  0
 14 15  1  0
 15 16  1  6
 16 17  1  0
 17 18  1  1
 17 19  1  0
 15 20  1  0
 20 21  2  0
 21 22  1  0
 22 23  1  0
 23 24  2  0
 24 25  1  0
 25 26  2  0
 26 27  1  0
 27 28  2  0
 27 29  1  0
 29 30  1  0
 30 31  1  0
 14  6  1  0
 21 15  1  0
 28 23  1  0
 19 13  1  0
 31 26  1  0
M  END
>  <smiles>  (1556) 
C22920-P200

>  <fragmenstein_outcome>  (1556) 
acceptable

>  <inchikey>  (1556) 
OBEWWTKKVDKNOL-UHFFFAOYSA-N

>  <fragmenstein_mode>  (1556) 
expansion

>  <HIPPO Pose ID>  (1556) 
22223

>  <Energy>  (1556) 
127.067114

>  <fragmenstein_error>  (1556) 


>  <tags>  (1556) 
{'openbind_xx01zvns2b_c1_fragmenstein', 'fragmenstein_placed'}

>  <ref_pdb>  (1556) 
175

>  <scratch_subdir>  (1556) 
/opt/xchem-fragalysis-2/maxwin/BulkDock/SCRATCH/511028/C22920-P200

>  <alias>  (1556) 
COCCO[C@@]1(C)C(=O)N(OC)C2=C1[C@]1(C[C@H](F)C2)N=C1Nc1ccc2c(c1)CNC2

>  <HIPPO Compound ID>  (1556) 
22920

>  <fragmenstein_runtime>  (1556) 
5.34357

$$$$
COCCO[C@]1(C)c2c(cc(F)cc2C(=O)Nc2ccc3c(c2)CNC3)N[C@]1(O)OC
     RDKit          3D

 31 34  0  0  0  0  0  0  0  0999 V2000
   -4.8795    5.4077  -11.2074 C   0  0  0  0  0  0  0  0  0  0  0  0
   -3.5713    5.0640  -11.6375 O   0  0  0  0  0  0  0  0  0  0  0  0
   -3.5729    4.1072  -12.7074 C   0  0  0  0  0  0  0  0  0  0  0  0
   -3.5792    4.8008  -14.0797 C   0  0  0  0  0  0  0  0  0  0  0  0
   -4.8988    4.7762  -14.6097 O   0  0  0  0  0  0  0  0  0  0  0  0
   -5.2736    5.8110  -15.5359 C   0  0  2  0  0  0  0  0  0  0  0  0
   -5.2631    7.1824  -14.8536 C   0  0  0  0  0  0  0  0  0  0  0  0
   -6.6416    5.3405  -15.9769 C   0  0  0  0  0  0  0  0  0  0  0  0
   -6.5994    4.9708  -17.3249 C   0  0  0  0  0  0  0  0  0  0  0  0
   -7.6997    4.4167  -17.9613 C   0  0  0  0  0  0  0  0  0  0  0  0
   -8.8440    4.1857  -17.2127 C   0  0  0  0  0  0  0  0  0  0  0  0
   -9.9126    3.6204  -17.7871 F   0  0  0  0  0  0  0  0  0  0  0  0
   -8.9007    4.5146  -15.8619 C   0  0  0  0  0  0  0  0  0  0  0  0
   -7.8026    5.1155  -15.2420 C   0  0  0  0  0  0  0  0  0  0  0  0
   -7.9545    5.5503  -13.8386 C   0  0  0  0  0  0  0  0  0  0  0  0
   -7.9855    6.6966  -13.6180 O   0  0  0  0  0  0  0  0  0  0  0  0
   -8.1335    4.3429  -12.8914 N   0  0  0  0  0  0  0  0  0  0  0  0
   -8.2881    4.2933  -11.5066 C   0  0  0  0  0  0  0  0  0  0  0  0
   -8.2229    5.4593  -10.7252 C   0  0  0  0  0  0  0  0  0  0  0  0
   -8.3278    5.3970   -9.3316 C   0  0  0  0  0  0  0  0  0  0  0  0
   -8.5378    4.1624   -8.7457 C   0  0  0  0  0  0  0  0  0  0  0  0
   -8.6371    3.0122   -9.5172 C   0  0  0  0  0  0  0  0  0  0  0  0
   -8.4936    3.0535  -10.8961 C   0  0  0  0  0  0  0  0  0  0  0  0
   -8.8907    1.8396   -8.6319 C   0  0  0  0  0  0  0  0  0  0  0  0
   -9.0834    2.3878   -7.2617 N   0  0  0  0  0  0  0  0  0  0  0  0
   -8.6877    3.8107   -7.3061 C   0  0  0  0  0  0  0  0  0  0  0  0
   -5.3287    5.0907  -17.9251 N   0  0  0  0  0  0  0  0  0  0  0  0
   -4.5490    5.8782  -16.9913 C   0  0  1  0  0  0  0  0  0  0  0  0
   -4.5559    7.2004  -17.5184 O   0  0  0  0  0  0  0  0  0  0  0  0
   -3.1936    5.4570  -16.9406 O   0  0  0  0  0  0  0  0  0  0  0  0
   -2.5938    5.2429  -18.2127 C   0  0  0  0  0  0  0  0  0  0  0  0
  1  2  1  0
  2  3  1  0
  3  4  1  0
  4  5  1  0
  5  6  1  0
  6  7  1  1
  6  8  1  0
  8  9  2  0
  9 10  1  0
 10 11  2  0
 11 12  1  0
 11 13  1  0
 13 14  2  0
 14 15  1  0
 15 16  2  0
 15 17  1  0
 17 18  1  0
 18 19  2  0
 19 20  1  0
 20 21  2  0
 21 22  1  0
 22 23  2  0
 22 24  1  0
 24 25  1  0
 25 26  1  0
  9 27  1  0
 27 28  1  0
 28 29  1  6
 28 30  1  0
 30 31  1  0
 28  6  1  0
 14  8  1  0
 23 18  1  0
 26 21  1  0
M  END
>  <smiles>  (1557) 
C22923-P200

>  <fragmenstein_outcome>  (1557) 
acceptable

>  <inchikey>  (1557) 
PEERVOFDEZBLOY-UHFFFAOYSA-N

>  <fragmenstein_mode>  (1557) 
expansion

>  <HIPPO Pose ID>  (1557) 
22225

>  <Energy>  (1557) 
58.187788

>  <fragmenstein_error>  (1557) 


>  <tags>  (1557) 
{'openbind_xx01zvns2b_c1_fragmenstein', 'fragmenstein_placed'}

>  <ref_pdb>  (1557) 
175

>  <scratch_subdir>  (1557) 
/opt/xchem-fragalysis-2/maxwin/BulkDock/SCRATCH/511028/C22923-P200

>  <alias>  (1557) 
COCCO[C@]1(C)c2c(cc(F)cc2C(=O)Nc2ccc3c(c2)CNC3)N[C@]1(O)OC

>  <HIPPO Compound ID>  (1557) 
22923

>  <fragmenstein_runtime>  (1557) 
4.060005

$$$$
COCCO[C@]1(C)c2c(C(=O)Nc3cc(C)c4c(c3)CNC4)cc(F)cc2N(C)[C@]1(O)F
     RDKit          3D

 32 35  0  0  0  0  0  0  0  0999 V2000
   -4.8828    5.5940  -10.8543 C   0  0  0  0  0  0  0  0  0  0  0  0
   -3.5942    5.1046  -11.1970 O   0  0  0  0  0  0  0  0  0  0  0  0
   -3.6387    4.1093  -12.2254 C   0  0  0  0  0  0  0  0  0  0  0  0
   -3.6582    4.7592  -13.6105 C   0  0  0  0  0  0  0  0  0  0  0  0
   -5.0074    4.8539  -14.0568 O   0  0  0  0  0  0  0  0  0  0  0  0
   -5.2523    5.7608  -15.1378 C   0  0  2  0  0  0  0  0  0  0  0  0
   -5.2699    7.2167  -14.6618 C   0  0  0  0  0  0  0  0  0  0  0  0
   -6.5656    5.3408  -15.7533 C   0  0  0  0  0  0  0  0  0  0  0  0
   -7.7657    5.0090  -15.1301 C   0  0  0  0  0  0  0  0  0  0  0  0
   -8.0311    5.4231  -13.7409 C   0  0  0  0  0  0  0  0  0  0  0  0
   -8.1439    6.5656  -13.5339 O   0  0  0  0  0  0  0  0  0  0  0  0
   -8.1381    4.2206  -12.7863 N   0  0  0  0  0  0  0  0  0  0  0  0
   -8.3065    4.1743  -11.4054 C   0  0  0  0  0  0  0  0  0  0  0  0
   -8.2433    5.3512  -10.6362 C   0  0  0  0  0  0  0  0  0  0  0  0
   -8.3602    5.3233   -9.2364 C   0  0  0  0  0  0  0  0  0  0  0  0
   -8.2234    6.5909   -8.4530 C   0  0  0  0  0  0  0  0  0  0  0  0
   -8.6241    4.0952   -8.6499 C   0  0  0  0  0  0  0  0  0  0  0  0
   -8.7095    2.9317   -9.4173 C   0  0  0  0  0  0  0  0  0  0  0  0
   -8.5197    2.9449  -10.7885 C   0  0  0  0  0  0  0  0  0  0  0  0
   -9.0094    1.7758   -8.5207 C   0  0  0  0  0  0  0  0  0  0  0  0
   -9.4884    2.3915   -7.2555 N   0  0  0  0  0  0  0  0  0  0  0  0
   -8.8597    3.7302   -7.2190 C   0  0  0  0  0  0  0  0  0  0  0  0
   -8.7997    4.4655  -15.8849 C   0  0  0  0  0  0  0  0  0  0  0  0
   -8.6325    4.3195  -17.2592 C   0  0  0  0  0  0  0  0  0  0  0  0
   -9.6409    3.8025  -17.9736 F   0  0  0  0  0  0  0  0  0  0  0  0
   -7.4668    4.7398  -17.9056 C   0  0  0  0  0  0  0  0  0  0  0  0
   -6.4245    5.2533  -17.1461 C   0  0  0  0  0  0  0  0  0  0  0  0
   -5.1840    5.7701  -17.5840 N   0  0  0  0  0  0  0  0  0  0  0  0
   -4.6966    5.3919  -18.8876 C   0  0  0  0  0  0  0  0  0  0  0  0
   -4.3381    5.5818  -16.4083 C   0  0  1  0  0  0  0  0  0  0  0  0
   -3.2289    6.4458  -16.4145 O   0  0  0  0  0  0  0  0  0  0  0  0
   -3.7896    4.3450  -16.4749 F   0  0  0  0  0  0  0  0  0  0  0  0
  1  2  1  0
  2  3  1  0
  3  4  1  0
  4  5  1  0
  5  6  1  0
  6  7  1  1
  6  8  1  0
  8  9  2  0
  9 10  1  0
 10 11  2  0
 10 12  1  0
 12 13  1  0
 13 14  2  0
 14 15  1  0
 15 16  1  0
 15 17  2  0
 17 18  1  0
 18 19  2  0
 18 20  1  0
 20 21  1  0
 21 22  1  0
  9 23  1  0
 23 24  2  0
 24 25  1  0
 24 26  1  0
 26 27  2  0
 27 28  1  0
 28 29  1  0
 28 30  1  0
 30 31  1  1
 30 32  1  0
 30  6  1  0
 27  8  1  0
 19 13  1  0
 22 17  1  0
M  END
>  <smiles>  (1558) 
C22925-P200

>  <fragmenstein_outcome>  (1558) 
acceptable

>  <inchikey>  (1558) 
ZTCRNANSRIGDFL-UHFFFAOYSA-N

>  <fragmenstein_mode>  (1558) 
expansion

>  <HIPPO Pose ID>  (1558) 
22226

>  <Energy>  (1558) 
82.80101

>  <fragmenstein_error>  (1558) 


>  <tags>  (1558) 
{'openbind_xx01zvns2b_c1_fragmenstein', 'fragmenstein_placed'}

>  <ref_pdb>  (1558) 
175

>  <scratch_subdir>  (1558) 
/opt/xchem-fragalysis-2/maxwin/BulkDock/SCRATCH/511028/C22925-P200

>  <alias>  (1558) 
COCCO[C@]1(C)c2c(C(=O)Nc3cc(C)c4c(c3)CNC4)cc(F)cc2N(C)[C@]1(O)F

>  <HIPPO Compound ID>  (1558) 
22925

>  <fragmenstein_runtime>  (1558) 
4.846936

$$$$
COCCO[C@@]1(C)C(=O)n2c(=O)[nH]c3c(F)cc(C(=O)Nc4ccc5c(c4)CNC5)c1c32
     RDKit          3D

 32 36  0  0  0  0  0  0  0  0999 V2000
   -4.9013    5.4417  -11.1502 C   0  0  0  0  0  0  0  0  0  0  0  0
   -3.5630    5.0788  -11.4583 O   0  0  0  0  0  0  0  0  0  0  0  0
   -3.4683    4.1211  -12.5207 C   0  0  0  0  0  0  0  0  0  0  0  0
   -3.5523    4.7914  -13.8981 C   0  0  0  0  0  0  0  0  0  0  0  0
   -4.9094    4.7748  -14.3240 O   0  0  0  0  0  0  0  0  0  0  0  0
   -5.2504    5.6257  -15.3970 C   0  0  1  0  0  0  0  0  0  0  0  0
   -5.1675    7.1074  -15.0259 C   0  0  0  0  0  0  0  0  0  0  0  0
   -4.5048    5.4394  -16.8365 C   0  0  0  0  0  0  0  0  0  0  0  0
   -3.3152    5.5998  -17.0641 O   0  0  0  0  0  0  0  0  0  0  0  0
   -5.5313    5.0570  -17.7437 N   0  0  0  0  0  0  0  0  0  0  0  0
   -5.8465    4.7283  -19.1141 C   0  0  0  0  0  0  0  0  0  0  0  0
   -5.1149    4.7965  -20.0828 O   0  0  0  0  0  0  0  0  0  0  0  0
   -7.2238    4.3209  -19.0936 N   0  0  0  0  0  0  0  0  0  0  0  0
   -7.7238    4.4281  -17.8028 C   0  0  0  0  0  0  0  0  0  0  0  0
   -8.9036    4.1945  -17.1590 C   0  0  0  0  0  0  0  0  0  0  0  0
   -9.9736    3.7154  -17.7985 F   0  0  0  0  0  0  0  0  0  0  0  0
   -8.9627    4.4628  -15.7737 C   0  0  0  0  0  0  0  0  0  0  0  0
   -7.8492    4.9996  -15.0670 C   0  0  0  0  0  0  0  0  0  0  0  0
   -7.9974    5.4442  -13.6737 C   0  0  0  0  0  0  0  0  0  0  0  0
   -7.8910    6.5833  -13.4490 O   0  0  0  0  0  0  0  0  0  0  0  0
   -8.2736    4.2621  -12.7279 N   0  0  0  0  0  0  0  0  0  0  0  0
   -8.3797    4.2195  -11.3412 C   0  0  0  0  0  0  0  0  0  0  0  0
   -8.2798    5.3905  -10.5690 C   0  0  0  0  0  0  0  0  0  0  0  0
   -8.3805    5.3418   -9.1761 C   0  0  0  0  0  0  0  0  0  0  0  0
   -8.6277    4.1170   -8.5883 C   0  0  0  0  0  0  0  0  0  0  0  0
   -8.7361    2.9583   -9.3531 C   0  0  0  0  0  0  0  0  0  0  0  0
   -8.5897    2.9840  -10.7278 C   0  0  0  0  0  0  0  0  0  0  0  0
   -9.0188    1.8051   -8.4487 C   0  0  0  0  0  0  0  0  0  0  0  0
   -9.4654    2.4273   -7.1729 N   0  0  0  0  0  0  0  0  0  0  0  0
   -8.8366    3.7666   -7.1534 C   0  0  0  0  0  0  0  0  0  0  0  0
   -6.6597    5.2021  -15.7281 C   0  0  0  0  0  0  0  0  0  0  0  0
   -6.6915    4.8902  -17.0462 C   0  0  0  0  0  0  0  0  0  0  0  0
  1  2  1  0
  2  3  1  0
  3  4  1  0
  4  5  1  0
  5  6  1  0
  6  7  1  1
  6  8  1  0
  8  9  2  0
  8 10  1  0
 10 11  1  0
 11 12  2  0
 11 13  1  0
 13 14  1  0
 14 15  2  0
 15 16  1  0
 15 17  1  0
 17 18  2  0
 18 19  1  0
 19 20  2  0
 19 21  1  0
 21 22  1  0
 22 23  2  0
 23 24  1  0
 24 25  2  0
 25 26  1  0
 26 27  2  0
 26 28  1  0
 28 29  1  0
 29 30  1  0
 18 31  1  0
 31 32  2  0
 31  6  1  0
 32 10  1  0
 32 14  1  0
 27 22  1  0
 30 25  1  0
M  END
>  <smiles>  (1559) 
C22974-P200

>  <fragmenstein_outcome>  (1559) 
acceptable

>  <inchikey>  (1559) 
ZLQNVHMFFHGBEJ-UHFFFAOYSA-N

>  <fragmenstein_mode>  (1559) 
expansion

>  <HIPPO Pose ID>  (1559) 
22229

>  <Energy>  (1559) 
90.315907

>  <fragmenstein_error>  (1559) 


>  <tags>  (1559) 
{'openbind_xx01zvns2b_c1_fragmenstein', 'fragmenstein_placed'}

>  <ref_pdb>  (1559) 
175

>  <scratch_subdir>  (1559) 
/opt/xchem-fragalysis-2/maxwin/BulkDock/SCRATCH/511028/C22974-P200

>  <alias>  (1559) 
COCCO[C@@]1(C)C(=O)n2c(=O)[nH]c3c(F)cc(C(=O)Nc4ccc5c(c4)CNC5)c1c32

>  <HIPPO Compound ID>  (1559) 
22974

>  <fragmenstein_runtime>  (1559) 
4.935591

$$$$
COCCO[C@@]1(C)C(=O)N(C)c2cc(F)cc(C(=O)Nc3ccc4c(c3)CNC4)c21
     RDKit          3D

 30 33  0  0  0  0  0  0  0  0999 V2000
   -4.8679    5.4884  -11.2028 C   0  0  0  0  0  0  0  0  0  0  0  0
   -3.5587    5.0548  -11.5423 O   0  0  0  0  0  0  0  0  0  0  0  0
   -3.5464    4.1099  -12.6209 C   0  0  0  0  0  0  0  0  0  0  0  0
   -3.6132    4.8051  -13.9882 C   0  0  0  0  0  0  0  0  0  0  0  0
   -4.9648    4.8079  -14.4341 O   0  0  0  0  0  0  0  0  0  0  0  0
   -5.2767    5.6706  -15.5128 C   0  0  1  0  0  0  0  0  0  0  0  0
   -5.2147    7.1456  -15.1027 C   0  0  0  0  0  0  0  0  0  0  0  0
   -4.4792    5.5438  -16.8721 C   0  0  0  0  0  0  0  0  0  0  0  0
   -3.2789    5.7306  -17.0263 O   0  0  0  0  0  0  0  0  0  0  0  0
   -5.4023    5.2209  -17.8692 N   0  0  0  0  0  0  0  0  0  0  0  0
   -5.1102    5.1693  -19.2806 C   0  0  0  0  0  0  0  0  0  0  0  0
   -6.6670    4.9768  -17.3290 C   0  0  0  0  0  0  0  0  0  0  0  0
   -7.7874    4.4896  -17.9791 C   0  0  0  0  0  0  0  0  0  0  0  0
   -8.9081    4.2131  -17.2077 C   0  0  0  0  0  0  0  0  0  0  0  0
   -9.9975    3.6958  -17.7872 F   0  0  0  0  0  0  0  0  0  0  0  0
   -8.9302    4.4653  -15.8368 C   0  0  0  0  0  0  0  0  0  0  0  0
   -7.8115    5.0149  -15.2095 C   0  0  0  0  0  0  0  0  0  0  0  0
   -7.9314    5.4556  -13.8051 C   0  0  0  0  0  0  0  0  0  0  0  0
   -7.8958    6.6027  -13.5920 O   0  0  0  0  0  0  0  0  0  0  0  0
   -8.1702    4.2676  -12.8497 N   0  0  0  0  0  0  0  0  0  0  0  0
   -8.3160    4.2352  -11.4641 C   0  0  0  0  0  0  0  0  0  0  0  0
   -8.2231    5.4076  -10.6946 C   0  0  0  0  0  0  0  0  0  0  0  0
   -8.3228    5.3613   -9.2999 C   0  0  0  0  0  0  0  0  0  0  0  0
   -8.5513    4.1362   -8.7015 C   0  0  0  0  0  0  0  0  0  0  0  0
   -8.6739    2.9805   -9.4618 C   0  0  0  0  0  0  0  0  0  0  0  0
   -8.5412    3.0060  -10.8414 C   0  0  0  0  0  0  0  0  0  0  0  0
   -8.9304    1.8191   -8.5631 C   0  0  0  0  0  0  0  0  0  0  0  0
   -9.1361    2.3878   -7.2040 N   0  0  0  0  0  0  0  0  0  0  0  0
   -8.6985    3.7983   -7.2579 C   0  0  0  0  0  0  0  0  0  0  0  0
   -6.6619    5.2435  -15.9566 C   0  0  0  0  0  0  0  0  0  0  0  0
  1  2  1  0
  2  3  1  0
  3  4  1  0
  4  5  1  0
  5  6  1  0
  6  7  1  1
  6  8  1  0
  8  9  2  0
  8 10  1  0
 10 11  1  0
 10 12  1  0
 12 13  2  0
 13 14  1  0
 14 15  1  0
 14 16  2  0
 16 17  1  0
 17 18  1  0
 18 19  2  0
 18 20  1  0
 20 21  1  0
 21 22  2  0
 22 23  1  0
 23 24  2  0
 24 25  1  0
 25 26  2  0
 25 27  1  0
 27 28  1  0
 28 29  1  0
 17 30  2  0
 30  6  1  0
 30 12  1  0
 26 21  1  0
 29 24  1  0
M  END
>  <smiles>  (1560) 
C22975-P200

>  <fragmenstein_outcome>  (1560) 
acceptable

>  <inchikey>  (1560) 
MSUVVXHYNBXDJY-UHFFFAOYSA-N

>  <fragmenstein_mode>  (1560) 
expansion

>  <HIPPO Pose ID>  (1560) 
22230

>  <Energy>  (1560) 
92.136101

>  <fragmenstein_error>  (1560) 


>  <tags>  (1560) 
{'openbind_xx01zvns2b_c1_fragmenstein', 'fragmenstein_placed'}

>  <ref_pdb>  (1560) 
175

>  <scratch_subdir>  (1560) 
/opt/xchem-fragalysis-2/maxwin/BulkDock/SCRATCH/511028/C22975-P200

>  <alias>  (1560) 
COCCO[C@@]1(C)C(=O)N(C)c2cc(F)cc(C(=O)Nc3ccc4c(c3)CNC4)c21

>  <HIPPO Compound ID>  (1560) 
22975

>  <fragmenstein_runtime>  (1560) 
3.835615

$$$$
COCCO[C@@]1(C)C(=O)Nc2cc(F)cc([C@@H](C#N)Nc3ccc4c(c3)CNC4)c21
     RDKit          3D

 30 33  0  0  0  0  0  0  0  0999 V2000
   -4.6865    5.5252  -10.9982 C   0  0  0  0  0  0  0  0  0  0  0  0
   -3.3191    5.3823  -11.3511 O   0  0  0  0  0  0  0  0  0  0  0  0
   -3.0900    4.3745  -12.3460 C   0  0  0  0  0  0  0  0  0  0  0  0
   -3.3411    4.8897  -13.7680 C   0  0  0  0  0  0  0  0  0  0  0  0
   -4.7196    4.7699  -14.0936 O   0  0  0  0  0  0  0  0  0  0  0  0
   -5.1878    5.5774  -15.1373 C   0  0  1  0  0  0  0  0  0  0  0  0
   -5.3740    7.0289  -14.6666 C   0  0  0  0  0  0  0  0  0  0  0  0
   -4.4214    5.6330  -16.5190 C   0  0  0  0  0  0  0  0  0  0  0  0
   -3.2306    5.8306  -16.7083 O   0  0  0  0  0  0  0  0  0  0  0  0
   -5.3664    5.4578  -17.5168 N   0  0  0  0  0  0  0  0  0  0  0  0
   -6.5932    5.0922  -16.9855 C   0  0  0  0  0  0  0  0  0  0  0  0
   -7.6929    4.7408  -17.7339 C   0  0  0  0  0  0  0  0  0  0  0  0
   -8.8083    4.3365  -17.0308 C   0  0  0  0  0  0  0  0  0  0  0  0
   -9.9212    3.9946  -17.6927 F   0  0  0  0  0  0  0  0  0  0  0  0
   -8.7895    4.2389  -15.6332 C   0  0  0  0  0  0  0  0  0  0  0  0
   -7.6337    4.5133  -14.8596 C   0  0  0  0  0  0  0  0  0  0  0  0
   -7.6635    4.0697  -13.3864 C   0  0  1  0  0  0  0  0  0  0  0  0
   -6.5811    3.1310  -12.9708 C   0  0  0  0  0  0  0  0  0  0  0  0
   -5.8195    2.3350  -12.5940 N   0  0  0  0  0  0  0  0  0  0  0  0
   -7.8575    5.1939  -12.4601 N   0  0  0  0  0  0  0  0  0  0  0  0
   -8.1676    4.9208  -11.1094 C   0  0  0  0  0  0  0  0  0  0  0  0
   -8.0965    5.9978  -10.1989 C   0  0  0  0  0  0  0  0  0  0  0  0
   -8.2740    5.8169   -8.8194 C   0  0  0  0  0  0  0  0  0  0  0  0
   -8.5568    4.5466   -8.3562 C   0  0  0  0  0  0  0  0  0  0  0  0
   -8.6580    3.4781   -9.2345 C   0  0  0  0  0  0  0  0  0  0  0  0
   -8.4609    3.6437  -10.5968 C   0  0  0  0  0  0  0  0  0  0  0  0
   -8.9717    2.2323   -8.4697 C   0  0  0  0  0  0  0  0  0  0  0  0
   -9.3945    2.7096   -7.1243 N   0  0  0  0  0  0  0  0  0  0  0  0
   -8.7896    4.0511   -6.9687 C   0  0  0  0  0  0  0  0  0  0  0  0
   -6.5490    5.0407  -15.5743 C   0  0  0  0  0  0  0  0  0  0  0  0
  1  2  1  0
  2  3  1  0
  3  4  1  0
  4  5  1  0
  5  6  1  0
  6  7  1  1
  6  8  1  0
  8  9  2  0
  8 10  1  0
 10 11  1  0
 11 12  2  0
 12 13  1  0
 13 14  1  0
 13 15  2  0
 15 16  1  0
 16 17  1  0
 17 18  1  1
 18 19  3  0
 17 20  1  0
 20 21  1  0
 21 22  2  0
 22 23  1  0
 23 24  2  0
 24 25  1  0
 25 26  2  0
 25 27  1  0
 27 28  1  0
 28 29  1  0
 16 30  2  0
 30  6  1  0
 30 11  1  0
 26 21  1  0
 29 24  1  0
M  END
>  <smiles>  (1561) 
C22966-P200

>  <fragmenstein_outcome>  (1561) 
acceptable

>  <inchikey>  (1561) 
AZZHNOHEEUJYAZ-UHFFFAOYSA-N

>  <fragmenstein_mode>  (1561) 
expansion

>  <HIPPO Pose ID>  (1561) 
22231

>  <Energy>  (1561) 
135.694045

>  <fragmenstein_error>  (1561) 


>  <tags>  (1561) 
{'openbind_xx01zvns2b_c1_fragmenstein', 'fragmenstein_placed'}

>  <ref_pdb>  (1561) 
175

>  <scratch_subdir>  (1561) 
/opt/xchem-fragalysis-2/maxwin/BulkDock/SCRATCH/511028/C22966-P200

>  <alias>  (1561) 
COCCO[C@@]1(C)C(=O)Nc2cc(F)cc([C@@H](C#N)Nc3ccc4c(c3)CNC4)c21

>  <HIPPO Compound ID>  (1561) 
22966

>  <fragmenstein_runtime>  (1561) 
2.221888

$$$$
CCc1cc(C(=O)Nc2ccc3c(c2)CNC3)c2c(c1)N(C)C(=O)[C@]2(C)OCCOC
     RDKit          3D

 31 34  0  0  0  0  0  0  0  0999 V2000
   -9.6632    2.8769  -17.8407 C   0  0  0  0  0  0  0  0  0  0  0  0
   -9.8029    4.3624  -17.7469 C   0  0  0  0  0  0  0  0  0  0  0  0
   -8.5310    4.8056  -17.0992 C   0  0  0  0  0  0  0  0  0  0  0  0
   -8.4665    4.9747  -15.7048 C   0  0  0  0  0  0  0  0  0  0  0  0
   -7.2673    5.3480  -15.1005 C   0  0  0  0  0  0  0  0  0  0  0  0
   -7.2937    5.6656  -13.6556 C   0  0  0  0  0  0  0  0  0  0  0  0
   -7.0223    6.7529  -13.3291 O   0  0  0  0  0  0  0  0  0  0  0  0
   -7.7530    4.4520  -12.8149 N   0  0  0  0  0  0  0  0  0  0  0  0
   -8.0550    4.3529  -11.4563 C   0  0  0  0  0  0  0  0  0  0  0  0
   -8.0249    5.4904  -10.6295 C   0  0  0  0  0  0  0  0  0  0  0  0
   -8.2711    5.3921   -9.2562 C   0  0  0  0  0  0  0  0  0  0  0  0
   -8.5774    4.1493   -8.7388 C   0  0  0  0  0  0  0  0  0  0  0  0
   -8.6414    3.0245   -9.5577 C   0  0  0  0  0  0  0  0  0  0  0  0
   -8.3743    3.1031  -10.9167 C   0  0  0  0  0  0  0  0  0  0  0  0
   -8.9952    1.8402   -8.7165 C   0  0  0  0  0  0  0  0  0  0  0  0
   -9.5074    2.4129   -7.4417 N   0  0  0  0  0  0  0  0  0  0  0  0
   -8.8702    3.7429   -7.3327 C   0  0  0  0  0  0  0  0  0  0  0  0
   -6.1420    5.5111  -15.9001 C   0  0  0  0  0  0  0  0  0  0  0  0
   -6.2236    5.2992  -17.2778 C   0  0  0  0  0  0  0  0  0  0  0  0
   -7.4004    4.9686  -17.8964 C   0  0  0  0  0  0  0  0  0  0  0  0
   -4.9750    5.4294  -17.8773 N   0  0  0  0  0  0  0  0  0  0  0  0
   -4.7497    5.3549  -19.2975 C   0  0  0  0  0  0  0  0  0  0  0  0
   -3.9917    5.6644  -16.9213 C   0  0  0  0  0  0  0  0  0  0  0  0
   -2.7919    5.7677  -17.1369 O   0  0  0  0  0  0  0  0  0  0  0  0
   -4.7165    5.8392  -15.5377 C   0  0  1  0  0  0  0  0  0  0  0  0
   -4.5283    7.3236  -15.1896 C   0  0  0  0  0  0  0  0  0  0  0  0
   -4.2959    4.8403  -14.6180 O   0  0  0  0  0  0  0  0  0  0  0  0
   -3.8171    5.3042  -13.3665 C   0  0  0  0  0  0  0  0  0  0  0  0
   -3.8659    4.1849  -12.3320 C   0  0  0  0  0  0  0  0  0  0  0  0
   -3.4967    4.6876  -11.0469 O   0  0  0  0  0  0  0  0  0  0  0  0
   -4.5895    5.2838  -10.3571 C   0  0  0  0  0  0  0  0  0  0  0  0
  1  2  1  0
  2  3  1  0
  3  4  2  0
  4  5  1  0
  5  6  1  0
  6  7  2  0
  6  8  1  0
  8  9  1  0
  9 10  2  0
 10 11  1  0
 11 12  2  0
 12 13  1  0
 13 14  2  0
 13 15  1  0
 15 16  1  0
 16 17  1  0
  5 18  2  0
 18 19  1  0
 19 20  2  0
 19 21  1  0
 21 22  1  0
 21 23  1  0
 23 24  2  0
 23 25  1  0
 25 26  1  1
 25 27  1  0
 27 28  1  0
 28 29  1  0
 29 30  1  0
 30 31  1  0
 20  3  1  0
 14  9  1  0
 25 18  1  0
 17 12  1  0
M  END
>  <smiles>  (1562) 
C22987-P200

>  <fragmenstein_outcome>  (1562) 
acceptable

>  <inchikey>  (1562) 
LUMLPEDBKRBXCO-UHFFFAOYSA-N

>  <fragmenstein_mode>  (1562) 
expansion

>  <HIPPO Pose ID>  (1562) 
22233

>  <Energy>  (1562) 
114.09489

>  <fragmenstein_error>  (1562) 


>  <tags>  (1562) 
{'openbind_xx01zvns2b_c1_fragmenstein', 'fragmenstein_placed'}

>  <ref_pdb>  (1562) 
175

>  <scratch_subdir>  (1562) 
/opt/xchem-fragalysis-2/maxwin/BulkDock/SCRATCH/511028/C22987-P200

>  <alias>  (1562) 
CCc1cc(C(=O)Nc2ccc3c(c2)CNC3)c2c(c1)N(C)C(=O)[C@]2(C)OCCOC

>  <HIPPO Compound ID>  (1562) 
22987

>  <fragmenstein_runtime>  (1562) 
5.16504

$$$$
COCCO[C@]1(C)[C@@H]2[C@@H]3[C@H](N[C@H](O)[C@@H]3[C@H]1O)[C@@H](F)C[C@@H]2C(=O)Nc1ccc2c(c1)CNC2
     RDKit          3D

 32 36  0  0  0  0  0  0  0  0999 V2000
   -4.7277    2.3200  -10.6938 C   0  0  0  0  0  0  0  0  0  0  0  0
   -4.3806    3.5936  -11.2289 O   0  0  0  0  0  0  0  0  0  0  0  0
   -4.2759    3.5557  -12.6497 C   0  0  0  0  0  0  0  0  0  0  0  0
   -4.2462    4.9779  -13.1986 C   0  0  0  0  0  0  0  0  0  0  0  0
   -4.0696    4.9570  -14.6120 O   0  0  0  0  0  0  0  0  0  0  0  0
   -4.9369    5.7948  -15.3930 C   0  0  1  0  0  0  0  0  0  0  0  0
   -4.9904    7.2417  -14.8893 C   0  0  0  0  0  0  0  0  0  0  0  0
   -4.3388    5.7555  -16.8804 C   0  0  2  0  0  0  0  0  0  0  0  0
   -3.2458    6.6539  -17.0409 O   0  0  0  0  0  0  0  0  0  0  0  0
   -5.5053    6.1638  -17.7728 C   0  0  1  0  0  0  0  0  0  0  0  0
   -5.7391    5.5875  -19.1607 C   0  0  1  0  0  0  0  0  0  0  0  0
   -4.6409    4.8995  -19.6932 O   0  0  0  0  0  0  0  0  0  0  0  0
   -6.8951    4.7012  -19.1228 N   0  0  0  0  0  0  0  0  0  0  0  0
   -7.3332    4.5400  -17.7552 C   0  0  2  0  0  0  0  0  0  0  0  0
   -8.7718    4.3875  -17.2399 C   0  0  1  0  0  0  0  0  0  0  0  0
   -9.2329    3.1287  -17.4729 F   0  0  0  0  0  0  0  0  0  0  0  0
   -8.8482    4.6543  -15.7035 C   0  0  0  0  0  0  0  0  0  0  0  0
   -7.5060    4.6655  -14.8877 C   0  0  2  0  0  0  0  0  0  0  0  0
   -7.7350    5.3649  -13.5556 C   0  0  0  0  0  0  0  0  0  0  0  0
   -7.5395    6.5040  -13.3750 O   0  0  0  0  0  0  0  0  0  0  0  0
   -8.1599    4.2404  -12.5577 N   0  0  0  0  0  0  0  0  0  0  0  0
   -8.3283    4.2749  -11.1812 C   0  0  0  0  0  0  0  0  0  0  0  0
   -8.1444    5.4402  -10.4283 C   0  0  0  0  0  0  0  0  0  0  0  0
   -8.2539    5.4005   -9.0336 C   0  0  0  0  0  0  0  0  0  0  0  0
   -8.5625    4.1927   -8.4288 C   0  0  0  0  0  0  0  0  0  0  0  0
   -8.7603    3.0440   -9.1816 C   0  0  0  0  0  0  0  0  0  0  0  0
   -8.6376    3.0623  -10.5563 C   0  0  0  0  0  0  0  0  0  0  0  0
   -9.0631    1.8962   -8.2830 C   0  0  0  0  0  0  0  0  0  0  0  0
   -9.2622    2.4847   -6.9332 N   0  0  0  0  0  0  0  0  0  0  0  0
   -8.7224    3.8611   -6.9845 C   0  0  0  0  0  0  0  0  0  0  0  0
   -6.2693    5.0987  -15.6955 C   0  0  1  0  0  0  0  0  0  0  0  0
   -6.7127    5.6888  -17.0109 C   0  0  1  0  0  0  0  0  0  0  0  0
  1  2  1  0
  2  3  1  0
  3  4  1  0
  4  5  1  0
  5  6  1  0
  6  7  1  1
  6  8  1  0
  8  9  1  1
  8 10  1  0
 10 11  1  6
 11 12  1  1
 11 13  1  0
 14 13  1  6
 14 15  1  0
 15 16  1  1
 15 17  1  0
 17 18  1  0
 18 19  1  1
 19 20  2  0
 19 21  1  0
 21 22  1  0
 22 23  2  0
 23 24  1  0
 24 25  2  0
 25 26  1  0
 26 27  2  0
 26 28  1  0
 28 29  1  0
 29 30  1  0
 31 18  1  1
 31 32  1  0
 31  6  1  0
 32 10  1  0
 32 14  1  6
 27 22  1  0
 30 25  1  0
M  END
>  <smiles>  (1563) 
C22995-P200

>  <fragmenstein_outcome>  (1563) 
acceptable

>  <inchikey>  (1563) 
PPZKZBFSOFMTOZ-UHFFFAOYSA-N

>  <fragmenstein_mode>  (1563) 
expansion

>  <HIPPO Pose ID>  (1563) 
22235

>  <Energy>  (1563) 
128.919712

>  <fragmenstein_error>  (1563) 


>  <tags>  (1563) 
{'openbind_xx01zvns2b_c1_fragmenstein', 'fragmenstein_placed'}

>  <ref_pdb>  (1563) 
175

>  <scratch_subdir>  (1563) 
/opt/xchem-fragalysis-2/maxwin/BulkDock/SCRATCH/511028/C22995-P200

>  <alias>  (1563) 
COCCO[C@]1(C)[C@@H]2[C@@H]3[C@H](N[C@H](O)[C@@H]3[C@H]1O)[C@@H](F)C[C@@H]2C(=O)Nc1ccc2c(c1)CNC2

>  <HIPPO Compound ID>  (1563) 
41642

>  <fragmenstein_runtime>  (1563) 
11.815979

$$$$
COCCO[C@@]1(C)C(=O)Nc2cc(F)cc(C(=O)Nc3cc4c(cc3SC)CNC4)c21
     RDKit          3D

 31 34  0  0  0  0  0  0  0  0999 V2000
   -4.7104    5.4457  -10.6777 C   0  0  0  0  0  0  0  0  0  0  0  0
   -3.6178    4.8130  -11.3352 O   0  0  0  0  0  0  0  0  0  0  0  0
   -4.0001    4.2349  -12.5862 C   0  0  0  0  0  0  0  0  0  0  0  0
   -3.9601    5.2753  -13.7069 C   0  0  0  0  0  0  0  0  0  0  0  0
   -4.5200    4.7247  -14.8902 O   0  0  0  0  0  0  0  0  0  0  0  0
   -5.0426    5.6325  -15.8564 C   0  0  1  0  0  0  0  0  0  0  0  0
   -4.8705    7.1452  -15.6367 C   0  0  0  0  0  0  0  0  0  0  0  0
   -4.3718    5.3781  -17.2548 C   0  0  0  0  0  0  0  0  0  0  0  0
   -3.1841    5.4785  -17.5283 O   0  0  0  0  0  0  0  0  0  0  0  0
   -5.3825    5.0549  -18.1537 N   0  0  0  0  0  0  0  0  0  0  0  0
   -6.5953    4.8921  -17.5034 C   0  0  0  0  0  0  0  0  0  0  0  0
   -7.7640    4.4159  -18.0583 C   0  0  0  0  0  0  0  0  0  0  0  0
   -8.8338    4.2103  -17.1972 C   0  0  0  0  0  0  0  0  0  0  0  0
   -9.9832    3.7236  -17.6813 F   0  0  0  0  0  0  0  0  0  0  0  0
   -8.7407    4.4884  -15.8292 C   0  0  0  0  0  0  0  0  0  0  0  0
   -7.5480    4.9896  -15.2939 C   0  0  0  0  0  0  0  0  0  0  0  0
   -7.4719    5.3803  -13.8680 C   0  0  0  0  0  0  0  0  0  0  0  0
   -6.9890    6.4170  -13.6359 O   0  0  0  0  0  0  0  0  0  0  0  0
   -8.0754    4.3200  -12.9171 N   0  0  0  0  0  0  0  0  0  0  0  0
   -8.2906    4.3558  -11.5261 C   0  0  0  0  0  0  0  0  0  0  0  0
   -8.4682    3.0939  -10.9262 C   0  0  0  0  0  0  0  0  0  0  0  0
   -8.6492    3.0121   -9.5566 C   0  0  0  0  0  0  0  0  0  0  0  0
   -8.6075    4.1464   -8.7618 C   0  0  0  0  0  0  0  0  0  0  0  0
   -8.4545    5.4020   -9.3185 C   0  0  0  0  0  0  0  0  0  0  0  0
   -8.3427    5.5291  -10.7188 C   0  0  0  0  0  0  0  0  0  0  0  0
   -8.6034    7.1777  -11.4100 S   0  0  0  0  0  0  0  0  0  0  0  0
   -7.6353    8.2174  -10.3018 C   0  0  0  0  0  0  0  0  0  0  0  0
   -8.8239    3.7532   -7.3388 C   0  0  0  0  0  0  0  0  0  0  0  0
   -9.4070    2.3975   -7.4038 N   0  0  0  0  0  0  0  0  0  0  0  0
   -8.9206    1.8249   -8.6897 C   0  0  0  0  0  0  0  0  0  0  0  0
   -6.4690    5.2029  -16.1479 C   0  0  0  0  0  0  0  0  0  0  0  0
  1  2  1  0
  2  3  1  0
  3  4  1  0
  4  5  1  0
  5  6  1  0
  6  7  1  1
  6  8  1  0
  8  9  2  0
  8 10  1  0
 10 11  1  0
 11 12  2  0
 12 13  1  0
 13 14  1  0
 13 15  2  0
 15 16  1  0
 16 17  1  0
 17 18  2  0
 17 19  1  0
 19 20  1  0
 20 21  2  0
 21 22  1  0
 22 23  2  0
 23 24  1  0
 24 25  2  0
 25 26  1  0
 26 27  1  0
 23 28  1  0
 28 29  1  0
 29 30  1  0
 16 31  2  0
 31  6  1  0
 31 11  1  0
 25 20  1  0
 30 22  1  0
M  END
>  <smiles>  (1564) 
C23011-P200

>  <fragmenstein_outcome>  (1564) 
acceptable

>  <inchikey>  (1564) 
SCCYNXWNOACXLF-UHFFFAOYSA-N

>  <fragmenstein_mode>  (1564) 
expansion

>  <HIPPO Pose ID>  (1564) 
22237

>  <Energy>  (1564) 
112.959906

>  <fragmenstein_error>  (1564) 


>  <tags>  (1564) 
{'openbind_xx01zvns2b_c1_fragmenstein', 'fragmenstein_placed'}

>  <ref_pdb>  (1564) 
175

>  <scratch_subdir>  (1564) 
/opt/xchem-fragalysis-2/maxwin/BulkDock/SCRATCH/511028/C23011-P200

>  <alias>  (1564) 
COCCO[C@@]1(C)C(=O)Nc2cc(F)cc(C(=O)Nc3cc4c(cc3SC)CNC4)c21

>  <HIPPO Compound ID>  (1564) 
23011

>  <fragmenstein_runtime>  (1564) 
5.215621

$$$$
COCCO[C@@]1(C)C(=O)Nc2cc(F)cc(C(=O)Nc3ccc4c(c3)CN[C@@H]4CC(=O)O)c21
     RDKit          3D

 33 36  0  0  0  0  0  0  0  0999 V2000
   -4.7046    5.3798  -10.5596 C   0  0  0  0  0  0  0  0  0  0  0  0
   -3.6427    4.8188  -11.3222 O   0  0  0  0  0  0  0  0  0  0  0  0
   -4.0886    4.2487  -12.5552 C   0  0  0  0  0  0  0  0  0  0  0  0
   -4.2405    5.3255  -13.6280 C   0  0  0  0  0  0  0  0  0  0  0  0
   -4.7428    4.7586  -14.8295 O   0  0  0  0  0  0  0  0  0  0  0  0
   -5.2479    5.6644  -15.8082 C   0  0  1  0  0  0  0  0  0  0  0  0
   -5.1340    7.1726  -15.5410 C   0  0  0  0  0  0  0  0  0  0  0  0
   -4.5213    5.4468  -17.1882 C   0  0  0  0  0  0  0  0  0  0  0  0
   -3.3296    5.5848  -17.4267 O   0  0  0  0  0  0  0  0  0  0  0  0
   -5.4903    5.0974  -18.1214 N   0  0  0  0  0  0  0  0  0  0  0  0
   -6.7206    4.9022  -17.5156 C   0  0  0  0  0  0  0  0  0  0  0  0
   -7.8582    4.4147  -18.1241 C   0  0  0  0  0  0  0  0  0  0  0  0
   -8.9628    4.1979  -17.3143 C   0  0  0  0  0  0  0  0  0  0  0  0
  -10.0961    3.7319  -17.8545 F   0  0  0  0  0  0  0  0  0  0  0  0
   -8.9227    4.4599  -15.9413 C   0  0  0  0  0  0  0  0  0  0  0  0
   -7.7662    4.9858  -15.3524 C   0  0  0  0  0  0  0  0  0  0  0  0
   -7.8132    5.4023  -13.9313 C   0  0  0  0  0  0  0  0  0  0  0  0
   -7.6040    6.5260  -13.6927 O   0  0  0  0  0  0  0  0  0  0  0  0
   -8.2089    4.2360  -12.9963 N   0  0  0  0  0  0  0  0  0  0  0  0
   -8.3328    4.1900  -11.6058 C   0  0  0  0  0  0  0  0  0  0  0  0
   -8.2350    5.3615  -10.8384 C   0  0  0  0  0  0  0  0  0  0  0  0
   -8.3232    5.3197   -9.4420 C   0  0  0  0  0  0  0  0  0  0  0  0
   -8.5424    4.0987   -8.8305 C   0  0  0  0  0  0  0  0  0  0  0  0
   -8.6720    2.9373   -9.5907 C   0  0  0  0  0  0  0  0  0  0  0  0
   -8.5561    2.9621  -10.9750 C   0  0  0  0  0  0  0  0  0  0  0  0
   -8.8839    1.7758   -8.6694 C   0  0  0  0  0  0  0  0  0  0  0  0
   -9.2272    2.3879   -7.3436 N   0  0  0  0  0  0  0  0  0  0  0  0
   -8.5682    3.7254   -7.3776 C   0  0  2  0  0  0  0  0  0  0  0  0
   -9.2517    4.6827   -6.4127 C   0  0  0  0  0  0  0  0  0  0  0  0
   -8.7011    4.6075   -5.0146 C   0  0  0  0  0  0  0  0  0  0  0  0
   -8.6469    5.5863   -4.2773 O   0  0  0  0  0  0  0  0  0  0  0  0
   -8.3371    3.3904   -4.5775 O   0  0  0  0  0  0  0  0  0  0  0  0
   -6.6529    5.2112  -16.1536 C   0  0  0  0  0  0  0  0  0  0  0  0
  1  2  1  0
  2  3  1  0
  3  4  1  0
  4  5  1  0
  5  6  1  0
  6  7  1  1
  6  8  1  0
  8  9  2  0
  8 10  1  0
 10 11  1  0
 11 12  2  0
 12 13  1  0
 13 14  1  0
 13 15  2  0
 15 16  1  0
 16 17  1  0
 17 18  2  0
 17 19  1  0
 19 20  1  0
 20 21  2  0
 21 22  1  0
 22 23  2  0
 23 24  1  0
 24 25  2  0
 24 26  1  0
 26 27  1  0
 27 28  1  0
 28 29  1  1
 29 30  1  0
 30 31  2  0
 30 32  1  0
 16 33  2  0
 33  6  1  0
 33 11  1  0
 25 20  1  0
 28 23  1  0
M  END
>  <smiles>  (1565) 
C23014-P200

>  <fragmenstein_outcome>  (1565) 
acceptable

>  <inchikey>  (1565) 
VYUOOQGHWMPNSJ-UHFFFAOYSA-N

>  <fragmenstein_mode>  (1565) 
expansion

>  <HIPPO Pose ID>  (1565) 
22238

>  <Energy>  (1565) 
67.826531

>  <fragmenstein_error>  (1565) 


>  <tags>  (1565) 
{'openbind_xx01zvns2b_c1_fragmenstein', 'fragmenstein_placed'}

>  <ref_pdb>  (1565) 
175

>  <scratch_subdir>  (1565) 
/opt/xchem-fragalysis-2/maxwin/BulkDock/SCRATCH/511028/C23014-P200

>  <alias>  (1565) 
COCCO[C@@]1(C)C(=O)Nc2cc(F)cc(C(=O)Nc3ccc4c(c3)CN[C@@H]4CC(=O)O)c21

>  <HIPPO Compound ID>  (1565) 
23014

>  <fragmenstein_runtime>  (1565) 
5.258916

$$$$
COCCO[C@]12C[C@@H](F)CNC(=O)N(c3ccc4c(c3)CNC4)C(=O)c3cc(F)cc(c31)C(F)(F)C2=O
     RDKit          3D

 37 41  0  0  0  0  0  0  0  0999 V2000
   -4.5594    5.2331  -10.5524 C   0  0  0  0  0  0  0  0  0  0  0  0
   -4.1252    5.5908  -11.8557 O   0  0  0  0  0  0  0  0  0  0  0  0
   -3.6795    4.4459  -12.6055 C   0  0  0  0  0  0  0  0  0  0  0  0
   -3.5913    4.8444  -14.0857 C   0  0  0  0  0  0  0  0  0  0  0  0
   -4.8944    5.2590  -14.4494 O   0  0  0  0  0  0  0  0  0  0  0  0
   -5.1785    5.7617  -15.7130 C   0  0  2  0  0  0  0  0  0  0  0  0
   -5.0481    7.3212  -15.7495 C   0  0  0  0  0  0  0  0  0  0  0  0
   -4.7874    8.1107  -14.4643 C   0  0  1  0  0  0  0  0  0  0  0  0
   -4.3638    9.3573  -14.8562 F   0  0  0  0  0  0  0  0  0  0  0  0
   -6.0066    8.3294  -13.5770 C   0  0  0  0  0  0  0  0  0  0  0  0
   -6.5580    7.0845  -13.1364 N   0  0  0  0  0  0  0  0  0  0  0  0
   -7.9009    6.8013  -13.0709 C   0  0  0  0  0  0  0  0  0  0  0  0
   -8.7813    7.6365  -13.2429 O   0  0  0  0  0  0  0  0  0  0  0  0
   -8.1473    5.4604  -12.8579 N   0  0  0  0  0  0  0  0  0  0  0  0
   -8.3003    5.0499  -11.4744 C   0  0  0  0  0  0  0  0  0  0  0  0
   -8.3011    6.0271  -10.4454 C   0  0  0  0  0  0  0  0  0  0  0  0
   -8.3870    5.6843   -9.0943 C   0  0  0  0  0  0  0  0  0  0  0  0
   -8.5269    4.3531   -8.7688 C   0  0  0  0  0  0  0  0  0  0  0  0
   -8.5782    3.3777   -9.7546 C   0  0  0  0  0  0  0  0  0  0  0  0
   -8.4564    3.7007  -11.1049 C   0  0  0  0  0  0  0  0  0  0  0  0
   -8.7793    2.0455   -9.1077 C   0  0  0  0  0  0  0  0  0  0  0  0
   -8.9692    2.3063   -7.6558 N   0  0  0  0  0  0  0  0  0  0  0  0
   -8.6679    3.7288   -7.4236 C   0  0  0  0  0  0  0  0  0  0  0  0
   -7.5256    4.6186  -13.7666 C   0  0  0  0  0  0  0  0  0  0  0  0
   -6.7692    3.7089  -13.4476 O   0  0  0  0  0  0  0  0  0  0  0  0
   -7.6669    4.8948  -15.2305 C   0  0  0  0  0  0  0  0  0  0  0  0
   -8.8596    4.4495  -15.8198 C   0  0  0  0  0  0  0  0  0  0  0  0
   -8.9661    4.3294  -17.2071 C   0  0  0  0  0  0  0  0  0  0  0  0
  -10.1059    3.8760  -17.7463 F   0  0  0  0  0  0  0  0  0  0  0  0
   -7.8896    4.6123  -18.0353 C   0  0  0  0  0  0  0  0  0  0  0  0
   -6.7100    5.0691  -17.4601 C   0  0  0  0  0  0  0  0  0  0  0  0
   -6.5946    5.2735  -16.0633 C   0  0  0  0  0  0  0  0  0  0  0  0
   -5.4030    5.2700  -18.1782 C   0  0  0  0  0  0  0  0  0  0  0  0
   -5.0862    4.2939  -19.0612 F   0  0  0  0  0  0  0  0  0  0  0  0
   -5.3713    6.4316  -18.8910 F   0  0  0  0  0  0  0  0  0  0  0  0
   -4.4104    5.3308  -17.0053 C   0  0  0  0  0  0  0  0  0  0  0  0
   -3.1926    5.1763  -17.0723 O   0  0  0  0  0  0  0  0  0  0  0  0
  1  2  1  0
  2  3  1  0
  3  4  1  0
  4  5  1  0
  6  5  1  1
  6  7  1  0
  7  8  1  0
  8  9  1  6
  8 10  1  0
 10 11  1  0
 11 12  1  0
 12 13  2  0
 12 14  1  0
 14 15  1  0
 15 16  2  0
 16 17  1  0
 17 18  2  0
 18 19  1  0
 19 20  2  0
 19 21  1  0
 21 22  1  0
 22 23  1  0
 14 24  1  0
 24 25  2  0
 24 26  1  0
 26 27  2  0
 27 28  1  0
 28 29  1  0
 28 30  2  0
 30 31  1  0
 31 32  2  0
 31 33  1  0
 33 34  1  0
 33 35  1  0
 33 36  1  0
 36 37  2  0
 32  6  1  0
 36  6  1  0
 20 15  1  0
 32 26  1  0
 23 18  1  0
M  END
>  <smiles>  (1566) 
C23017-P200

>  <fragmenstein_outcome>  (1566) 
acceptable

>  <inchikey>  (1566) 
SPWAGLCQSBEZJY-UHFFFAOYSA-N

>  <fragmenstein_mode>  (1566) 
expansion

>  <HIPPO Pose ID>  (1566) 
22239

>  <Energy>  (1566) 
133.658199

>  <fragmenstein_error>  (1566) 


>  <tags>  (1566) 
{'openbind_xx01zvns2b_c1_fragmenstein', 'fragmenstein_placed'}

>  <ref_pdb>  (1566) 
175

>  <scratch_subdir>  (1566) 
/opt/xchem-fragalysis-2/maxwin/BulkDock/SCRATCH/511028/C23017-P200

>  <alias>  (1566) 
COCCO[C@]12C[C@@H](F)CNC(=O)N(c3ccc4c(c3)CNC4)C(=O)c3cc(F)cc(c31)C(F)(F)C2=O

>  <HIPPO Compound ID>  (1566) 
23017

>  <fragmenstein_runtime>  (1566) 
9.320024

$$$$
COCCO[C@@]1(C)C(=O)N(C#N)c2cc(F)cc(C(=O)Nc3ccc4c(c3)CNC4)c21
     RDKit          3D

 31 34  0  0  0  0  0  0  0  0999 V2000
   -4.9007    5.4723  -11.0785 C   0  0  0  0  0  0  0  0  0  0  0  0
   -3.5885    5.0718  -11.4436 O   0  0  0  0  0  0  0  0  0  0  0  0
   -3.5723    4.1066  -12.5029 C   0  0  0  0  0  0  0  0  0  0  0  0
   -3.6266    4.7874  -13.8761 C   0  0  0  0  0  0  0  0  0  0  0  0
   -4.9815    4.8339  -14.3155 O   0  0  0  0  0  0  0  0  0  0  0  0
   -5.2814    5.7498  -15.3532 C   0  0  1  0  0  0  0  0  0  0  0  0
   -5.2572    7.1982  -14.8615 C   0  0  0  0  0  0  0  0  0  0  0  0
   -4.4426    5.7126  -16.6810 C   0  0  0  0  0  0  0  0  0  0  0  0
   -3.2250    5.7854  -16.7695 O   0  0  0  0  0  0  0  0  0  0  0  0
   -5.3482    5.6121  -17.7783 N   0  0  0  0  0  0  0  0  0  0  0  0
   -4.8087    5.2176  -18.9222 C   0  0  0  0  0  0  0  0  0  0  0  0
   -4.2523    4.9457  -19.9005 N   0  0  0  0  0  0  0  0  0  0  0  0
   -6.5612    5.0867  -17.2644 C   0  0  0  0  0  0  0  0  0  0  0  0
   -7.6366    4.5766  -17.9699 C   0  0  0  0  0  0  0  0  0  0  0  0
   -8.7738    4.2191  -17.2504 C   0  0  0  0  0  0  0  0  0  0  0  0
   -9.8229    3.6900  -17.8905 F   0  0  0  0  0  0  0  0  0  0  0  0
   -8.8679    4.4287  -15.8745 C   0  0  0  0  0  0  0  0  0  0  0  0
   -7.7984    5.0001  -15.1876 C   0  0  0  0  0  0  0  0  0  0  0  0
   -7.9877    5.4334  -13.7901 C   0  0  0  0  0  0  0  0  0  0  0  0
   -7.9940    6.5815  -13.5823 O   0  0  0  0  0  0  0  0  0  0  0  0
   -8.1868    4.2434  -12.8314 N   0  0  0  0  0  0  0  0  0  0  0  0
   -8.3361    4.2120  -11.4463 C   0  0  0  0  0  0  0  0  0  0  0  0
   -8.2556    5.3879  -10.6800 C   0  0  0  0  0  0  0  0  0  0  0  0
   -8.3513    5.3447   -9.2851 C   0  0  0  0  0  0  0  0  0  0  0  0
   -8.5682    4.1194   -8.6836 C   0  0  0  0  0  0  0  0  0  0  0  0
   -8.6809    2.9606   -9.4412 C   0  0  0  0  0  0  0  0  0  0  0  0
   -8.5464    2.9824  -10.8205 C   0  0  0  0  0  0  0  0  0  0  0  0
   -8.9304    1.8001   -8.5392 C   0  0  0  0  0  0  0  0  0  0  0  0
   -9.1517    2.3735   -7.1850 N   0  0  0  0  0  0  0  0  0  0  0  0
   -8.7125    3.7831   -7.2391 C   0  0  0  0  0  0  0  0  0  0  0  0
   -6.6305    5.3018  -15.8812 C   0  0  0  0  0  0  0  0  0  0  0  0
  1  2  1  0
  2  3  1  0
  3  4  1  0
  4  5  1  0
  5  6  1  0
  6  7  1  1
  6  8  1  0
  8  9  2  0
  8 10  1  0
 10 11  1  0
 11 12  3  0
 10 13  1  0
 13 14  2  0
 14 15  1  0
 15 16  1  0
 15 17  2  0
 17 18  1  0
 18 19  1  0
 19 20  2  0
 19 21  1  0
 21 22  1  0
 22 23  2  0
 23 24  1  0
 24 25  2  0
 25 26  1  0
 26 27  2  0
 26 28  1  0
 28 29  1  0
 29 30  1  0
 18 31  2  0
 31  6  1  0
 31 13  1  0
 27 22  1  0
 30 25  1  0
M  END
>  <smiles>  (1567) 
C23018-P200

>  <fragmenstein_outcome>  (1567) 
acceptable

>  <inchikey>  (1567) 
IKZVLPUBWDXFPK-UHFFFAOYSA-N

>  <fragmenstein_mode>  (1567) 
expansion

>  <HIPPO Pose ID>  (1567) 
22240

>  <Energy>  (1567) 
67.003123

>  <fragmenstein_error>  (1567) 


>  <tags>  (1567) 
{'openbind_xx01zvns2b_c1_fragmenstein', 'fragmenstein_placed'}

>  <ref_pdb>  (1567) 
175

>  <scratch_subdir>  (1567) 
/opt/xchem-fragalysis-2/maxwin/BulkDock/SCRATCH/511028/C23018-P200

>  <alias>  (1567) 
COCCO[C@@]1(C)C(=O)N(C#N)c2cc(F)cc(C(=O)Nc3ccc4c(c3)CNC4)c21

>  <HIPPO Compound ID>  (1567) 
34281

>  <fragmenstein_runtime>  (1567) 
4.479393

$$$$
COCCO[C@@]1(C)C(=O)[C@@]2(C)C(=O)Nc3c(F)cc(C(=O)Nc4ccc5c(c4)CNC5)c1c32
     RDKit          3D

 33 37  0  0  0  0  0  0  0  0999 V2000
   -4.8786    5.4498  -11.0513 C   0  0  0  0  0  0  0  0  0  0  0  0
   -3.5813    5.0320  -11.4483 O   0  0  0  0  0  0  0  0  0  0  0  0
   -3.6062    4.0303  -12.4737 C   0  0  0  0  0  0  0  0  0  0  0  0
   -3.5853    4.6724  -13.8655 C   0  0  0  0  0  0  0  0  0  0  0  0
   -4.9248    4.8372  -14.3232 O   0  0  0  0  0  0  0  0  0  0  0  0
   -5.1345    5.8379  -15.2991 C   0  0  1  0  0  0  0  0  0  0  0  0
   -4.9632    7.2434  -14.7258 C   0  0  0  0  0  0  0  0  0  0  0  0
   -4.3158    5.7087  -16.6971 C   0  0  0  0  0  0  0  0  0  0  0  0
   -3.1075    5.5358  -16.7984 O   0  0  0  0  0  0  0  0  0  0  0  0
   -5.2658    5.9200  -17.8614 C   0  0  1  0  0  0  0  0  0  0  0  0
   -5.2334    7.3728  -18.3350 C   0  0  0  0  0  0  0  0  0  0  0  0
   -5.4098    5.0240  -19.0809 C   0  0  0  0  0  0  0  0  0  0  0  0
   -4.5626    4.7949  -19.9268 O   0  0  0  0  0  0  0  0  0  0  0  0
   -6.7496    4.5795  -19.1045 N   0  0  0  0  0  0  0  0  0  0  0  0
   -7.4005    4.8305  -17.9011 C   0  0  0  0  0  0  0  0  0  0  0  0
   -8.5497    4.3517  -17.3060 C   0  0  0  0  0  0  0  0  0  0  0  0
   -9.4608    3.6476  -17.9872 F   0  0  0  0  0  0  0  0  0  0  0  0
   -8.7316    4.5725  -15.9251 C   0  0  0  0  0  0  0  0  0  0  0  0
   -7.7148    5.1891  -15.1588 C   0  0  0  0  0  0  0  0  0  0  0  0
   -7.9240    5.5547  -13.7451 C   0  0  0  0  0  0  0  0  0  0  0  0
   -7.9148    6.6951  -13.4946 O   0  0  0  0  0  0  0  0  0  0  0  0
   -8.1500    4.3326  -12.8327 N   0  0  0  0  0  0  0  0  0  0  0  0
   -8.3126    4.2520  -11.4501 C   0  0  0  0  0  0  0  0  0  0  0  0
   -8.2368    5.4082  -10.6503 C   0  0  0  0  0  0  0  0  0  0  0  0
   -8.3685    5.3361   -9.2603 C   0  0  0  0  0  0  0  0  0  0  0  0
   -8.6216    4.1013   -8.6986 C   0  0  0  0  0  0  0  0  0  0  0  0
   -8.7132    2.9565   -9.4871 C   0  0  0  0  0  0  0  0  0  0  0  0
   -8.5380    3.0067  -10.8610 C   0  0  0  0  0  0  0  0  0  0  0  0
   -9.0064    1.7884   -8.6028 C   0  0  0  0  0  0  0  0  0  0  0  0
   -9.4766    2.3881   -7.3241 N   0  0  0  0  0  0  0  0  0  0  0  0
   -8.8475    3.7258   -7.2721 C   0  0  0  0  0  0  0  0  0  0  0  0
   -6.5536    5.6122  -15.7915 C   0  0  0  0  0  0  0  0  0  0  0  0
   -6.5277    5.5689  -17.1596 C   0  0  0  0  0  0  0  0  0  0  0  0
  1  2  1  0
  2  3  1  0
  3  4  1  0
  4  5  1  0
  5  6  1  0
  6  7  1  1
  6  8  1  0
  8  9  2  0
  8 10  1  0
 10 11  1  6
 10 12  1  0
 12 13  2  0
 12 14  1  0
 14 15  1  0
 15 16  2  0
 16 17  1  0
 16 18  1  0
 18 19  2  0
 19 20  1  0
 20 21  2  0
 20 22  1  0
 22 23  1  0
 23 24  2  0
 24 25  1  0
 25 26  2  0
 26 27  1  0
 27 28  2  0
 27 29  1  0
 29 30  1  0
 30 31  1  0
 19 32  1  0
 32 33  2  0
 32  6  1  0
 33 10  1  0
 33 15  1  0
 28 23  1  0
 31 26  1  0
M  END
>  <smiles>  (1568) 
C23025-P200

>  <fragmenstein_outcome>  (1568) 
acceptable

>  <inchikey>  (1568) 
HGADZAHGRRCGMD-UHFFFAOYSA-N

>  <fragmenstein_mode>  (1568) 
expansion

>  <HIPPO Pose ID>  (1568) 
22245

>  <Energy>  (1568) 
134.94636

>  <fragmenstein_error>  (1568) 


>  <tags>  (1568) 
{'openbind_xx01zvns2b_c1_fragmenstein', 'fragmenstein_placed'}

>  <ref_pdb>  (1568) 
175

>  <scratch_subdir>  (1568) 
/opt/xchem-fragalysis-2/maxwin/BulkDock/SCRATCH/511028/C23025-P200

>  <alias>  (1568) 
COCCO[C@@]1(C)C(=O)[C@@]2(C)C(=O)Nc3c(F)cc(C(=O)Nc4ccc5c(c4)CNC5)c1c32

>  <HIPPO Compound ID>  (1568) 
23025

>  <fragmenstein_runtime>  (1568) 
5.285525

$$$$
CNCN1C(=O)[C@](C)(OCCOC)c2c(C(=O)Nc3cc(F)c4c(c3)CNC4)cc(F)cc21
     RDKit          3D

 33 36  0  0  0  0  0  0  0  0999 V2000
   -6.2669    3.9981  -19.9322 C   0  0  0  0  0  0  0  0  0  0  0  0
   -5.3606    5.1127  -19.9524 N   0  0  0  0  0  0  0  0  0  0  0  0
   -5.7133    6.1577  -19.0305 C   0  0  0  0  0  0  0  0  0  0  0  0
   -5.7605    5.7251  -17.6609 N   0  0  0  0  0  0  0  0  0  0  0  0
   -4.7099    5.8638  -16.7473 C   0  0  0  0  0  0  0  0  0  0  0  0
   -3.5349    6.1013  -16.9969 O   0  0  0  0  0  0  0  0  0  0  0  0
   -5.3487    5.7745  -15.3033 C   0  0  2  0  0  0  0  0  0  0  0  0
   -5.2800    7.2023  -14.7431 C   0  0  0  0  0  0  0  0  0  0  0  0
   -4.9173    4.8036  -14.3738 O   0  0  0  0  0  0  0  0  0  0  0  0
   -3.5621    4.8687  -13.9507 C   0  0  0  0  0  0  0  0  0  0  0  0
   -3.4354    4.1057  -12.6243 C   0  0  0  0  0  0  0  0  0  0  0  0
   -3.4871    4.9851  -11.4926 O   0  0  0  0  0  0  0  0  0  0  0  0
   -4.8105    5.3333  -11.1133 C   0  0  0  0  0  0  0  0  0  0  0  0
   -6.7617    5.3511  -15.6427 C   0  0  0  0  0  0  0  0  0  0  0  0
   -7.8260    5.0018  -14.8227 C   0  0  0  0  0  0  0  0  0  0  0  0
   -7.8774    5.3961  -13.4058 C   0  0  0  0  0  0  0  0  0  0  0  0
   -7.7580    6.5290  -13.1580 O   0  0  0  0  0  0  0  0  0  0  0  0
   -8.1889    4.2017  -12.4879 N   0  0  0  0  0  0  0  0  0  0  0  0
   -8.3212    4.1354  -11.1080 C   0  0  0  0  0  0  0  0  0  0  0  0
   -8.1689    5.2850  -10.3169 C   0  0  0  0  0  0  0  0  0  0  0  0
   -8.2996    5.2010   -8.9360 C   0  0  0  0  0  0  0  0  0  0  0  0
   -8.1322    6.2909   -8.1771 F   0  0  0  0  0  0  0  0  0  0  0  0
   -8.6106    3.9910   -8.3629 C   0  0  0  0  0  0  0  0  0  0  0  0
   -8.7735    2.8587   -9.1494 C   0  0  0  0  0  0  0  0  0  0  0  0
   -8.6188    2.9050  -10.5237 C   0  0  0  0  0  0  0  0  0  0  0  0
   -9.0647    1.6934   -8.2712 C   0  0  0  0  0  0  0  0  0  0  0  0
   -9.3403    2.2625   -6.9261 N   0  0  0  0  0  0  0  0  0  0  0  0
   -8.8071    3.6429   -6.9333 C   0  0  0  0  0  0  0  0  0  0  0  0
   -8.9884    4.4731  -15.3883 C   0  0  0  0  0  0  0  0  0  0  0  0
   -9.1186    4.4079  -16.7659 C   0  0  0  0  0  0  0  0  0  0  0  0
  -10.2458    3.9453  -17.3173 F   0  0  0  0  0  0  0  0  0  0  0  0
   -8.1259    4.9008  -17.5887 C   0  0  0  0  0  0  0  0  0  0  0  0
   -6.9319    5.3094  -17.0200 C   0  0  0  0  0  0  0  0  0  0  0  0
  1  2  1  0
  2  3  1  0
  3  4  1  0
  4  5  1  0
  5  6  2  0
  5  7  1  0
  7  8  1  1
  7  9  1  0
  9 10  1  0
 10 11  1  0
 11 12  1  0
 12 13  1  0
  7 14  1  0
 14 15  2  0
 15 16  1  0
 16 17  2  0
 16 18  1  0
 18 19  1  0
 19 20  2  0
 20 21  1  0
 21 22  1  0
 21 23  2  0
 23 24  1  0
 24 25  2  0
 24 26  1  0
 26 27  1  0
 27 28  1  0
 15 29  1  0
 29 30  2  0
 30 31  1  0
 30 32  1  0
 32 33  2  0
 33  4  1  0
 33 14  1  0
 25 19  1  0
 28 23  1  0
M  END
>  <smiles>  (1569) 
C23028-P200

>  <fragmenstein_outcome>  (1569) 
acceptable

>  <inchikey>  (1569) 
NOSQMOANMPCCJA-UHFFFAOYSA-N

>  <fragmenstein_mode>  (1569) 
expansion

>  <HIPPO Pose ID>  (1569) 
22246

>  <Energy>  (1569) 
74.539856

>  <fragmenstein_error>  (1569) 


>  <tags>  (1569) 
{'openbind_xx01zvns2b_c1_fragmenstein', 'fragmenstein_placed'}

>  <ref_pdb>  (1569) 
175

>  <scratch_subdir>  (1569) 
/opt/xchem-fragalysis-2/maxwin/BulkDock/SCRATCH/511028/C23028-P200

>  <alias>  (1569) 
CNCN1C(=O)[C@](C)(OCCOC)c2c(C(=O)Nc3cc(F)c4c(c3)CNC4)cc(F)cc21

>  <HIPPO Compound ID>  (1569) 
41924

>  <fragmenstein_runtime>  (1569) 
6.967209

$$$$
COCCO[C@@]1(C)C(=O)C2(CCNCC2)c2cc(F)cc(C(=O)Nc3ccc4c(c3)CNC4)c21
     RDKit          3D

 34 38  0  0  0  0  0  0  0  0999 V2000
   -4.7583    3.8204  -10.3540 C   0  0  0  0  0  0  0  0  0  0  0  0
   -4.5055    4.6593  -11.4757 O   0  0  0  0  0  0  0  0  0  0  0  0
   -3.7549    3.9686  -12.4806 C   0  0  0  0  0  0  0  0  0  0  0  0
   -3.6392    4.8561  -13.7210 C   0  0  0  0  0  0  0  0  0  0  0  0
   -4.8761    4.7802  -14.4219 O   0  0  0  0  0  0  0  0  0  0  0  0
   -5.1664    5.8110  -15.3467 C   0  0  1  0  0  0  0  0  0  0  0  0
   -5.1758    7.2130  -14.7407 C   0  0  0  0  0  0  0  0  0  0  0  0
   -4.2587    5.8374  -16.6056 C   0  0  0  0  0  0  0  0  0  0  0  0
   -3.0353    5.9438  -16.5876 O   0  0  0  0  0  0  0  0  0  0  0  0
   -5.0967    5.7501  -17.8943 C   0  0  0  0  0  0  0  0  0  0  0  0
   -5.2398    7.1737  -18.4635 C   0  0  0  0  0  0  0  0  0  0  0  0
   -5.2596    7.1840  -19.9890 C   0  0  0  0  0  0  0  0  0  0  0  0
   -4.0859    6.5893  -20.6254 N   0  0  0  0  0  0  0  0  0  0  0  0
   -3.4102    5.6123  -19.7772 C   0  0  0  0  0  0  0  0  0  0  0  0
   -4.3884    4.8408  -18.8950 C   0  0  0  0  0  0  0  0  0  0  0  0
   -6.4168    5.2336  -17.3431 C   0  0  0  0  0  0  0  0  0  0  0  0
   -7.4864    4.6696  -18.0308 C   0  0  0  0  0  0  0  0  0  0  0  0
   -8.6272    4.2887  -17.3195 C   0  0  0  0  0  0  0  0  0  0  0  0
   -9.6646    3.7432  -17.9671 F   0  0  0  0  0  0  0  0  0  0  0  0
   -8.7367    4.4959  -15.9477 C   0  0  0  0  0  0  0  0  0  0  0  0
   -7.6720    5.0706  -15.2574 C   0  0  0  0  0  0  0  0  0  0  0  0
   -7.8843    5.4898  -13.8565 C   0  0  0  0  0  0  0  0  0  0  0  0
   -7.9490    6.6366  -13.6460 O   0  0  0  0  0  0  0  0  0  0  0  0
   -8.0470    4.2873  -12.9039 N   0  0  0  0  0  0  0  0  0  0  0  0
   -8.2234    4.2443  -11.5217 C   0  0  0  0  0  0  0  0  0  0  0  0
   -8.1333    5.4130  -10.7469 C   0  0  0  0  0  0  0  0  0  0  0  0
   -8.2722    5.3668   -9.3555 C   0  0  0  0  0  0  0  0  0  0  0  0
   -8.5226    4.1430   -8.7632 C   0  0  0  0  0  0  0  0  0  0  0  0
   -8.6340    2.9888   -9.5271 C   0  0  0  0  0  0  0  0  0  0  0  0
   -8.4709    3.0156  -10.9049 C   0  0  0  0  0  0  0  0  0  0  0  0
   -8.9140    1.8281   -8.6348 C   0  0  0  0  0  0  0  0  0  0  0  0
   -9.1031    2.3877   -7.2686 N   0  0  0  0  0  0  0  0  0  0  0  0
   -8.6959    3.8072   -7.3229 C   0  0  0  0  0  0  0  0  0  0  0  0
   -6.4975    5.3978  -15.9446 C   0  0  0  0  0  0  0  0  0  0  0  0
  1  2  1  0
  2  3  1  0
  3  4  1  0
  4  5  1  0
  5  6  1  0
  6  7  1  1
  6  8  1  0
  8  9  2  0
  8 10  1  0
 10 11  1  0
 11 12  1  0
 12 13  1  0
 13 14  1  0
 14 15  1  0
 10 16  1  0
 16 17  2  0
 17 18  1  0
 18 19  1  0
 18 20  2  0
 20 21  1  0
 21 22  1  0
 22 23  2  0
 22 24  1  0
 24 25  1  0
 25 26  2  0
 26 27  1  0
 27 28  2  0
 28 29  1  0
 29 30  2  0
 29 31  1  0
 31 32  1  0
 32 33  1  0
 21 34  2  0
 34  6  1  0
 15 10  1  0
 34 16  1  0
 30 25  1  0
 33 28  1  0
M  END
>  <smiles>  (1570) 
C23029-P200

>  <fragmenstein_outcome>  (1570) 
acceptable

>  <inchikey>  (1570) 
AWMFJIODMGVVDL-UHFFFAOYSA-N

>  <fragmenstein_mode>  (1570) 
expansion

>  <HIPPO Pose ID>  (1570) 
22247

>  <Energy>  (1570) 
115.860985

>  <fragmenstein_error>  (1570) 


>  <tags>  (1570) 
{'openbind_xx01zvns2b_c1_fragmenstein', 'fragmenstein_placed'}

>  <ref_pdb>  (1570) 
175

>  <scratch_subdir>  (1570) 
/opt/xchem-fragalysis-2/maxwin/BulkDock/SCRATCH/511028/C23029-P200

>  <alias>  (1570) 
COCCO[C@@]1(C)C(=O)C2(CCNCC2)c2cc(F)cc(C(=O)Nc3ccc4c(c3)CNC4)c21

>  <HIPPO Compound ID>  (1570) 
26643

>  <fragmenstein_runtime>  (1570) 
8.029258

$$$$
CCN1C(=O)[C@](C)(OCCOC)c2c1cc(F)cc2[C@](O)(Nc1ccc2c(c1)CNC2)C(=O)NCC(F)F
     RDKit          3D

 38 41  0  0  0  0  0  0  0  0999 V2000
   -4.4747    5.1349  -19.9805 C   0  0  0  0  0  0  0  0  0  0  0  0
   -5.2761    6.0672  -19.1171 C   0  0  0  0  0  0  0  0  0  0  0  0
   -5.4104    5.6136  -17.7585 N   0  0  0  0  0  0  0  0  0  0  0  0
   -4.4164    5.8135  -16.8037 C   0  0  0  0  0  0  0  0  0  0  0  0
   -3.2422    6.0846  -17.0210 O   0  0  0  0  0  0  0  0  0  0  0  0
   -5.1058    5.7577  -15.4077 C   0  0  2  0  0  0  0  0  0  0  0  0
   -5.0088    7.2101  -14.9071 C   0  0  0  0  0  0  0  0  0  0  0  0
   -4.6225    4.7125  -14.5871 O   0  0  0  0  0  0  0  0  0  0  0  0
   -3.5458    4.9823  -13.7025 C   0  0  0  0  0  0  0  0  0  0  0  0
   -3.5213    3.8545  -12.6656 C   0  0  0  0  0  0  0  0  0  0  0  0
   -4.6379    4.0011  -11.7776 O   0  0  0  0  0  0  0  0  0  0  0  0
   -4.7678    2.8754  -10.9118 C   0  0  0  0  0  0  0  0  0  0  0  0
   -6.5263    5.3362  -15.7699 C   0  0  0  0  0  0  0  0  0  0  0  0
   -6.6077    5.2058  -17.1688 C   0  0  0  0  0  0  0  0  0  0  0  0
   -7.7274    4.7122  -17.8087 C   0  0  0  0  0  0  0  0  0  0  0  0
   -8.7892    4.3214  -17.0121 C   0  0  0  0  0  0  0  0  0  0  0  0
   -9.8819    3.7965  -17.5817 F   0  0  0  0  0  0  0  0  0  0  0  0
   -8.7547    4.4889  -15.6239 C   0  0  0  0  0  0  0  0  0  0  0  0
   -7.6322    5.0344  -14.9580 C   0  0  0  0  0  0  0  0  0  0  0  0
   -7.7422    5.3433  -13.4585 C   0  0  2  0  0  0  0  0  0  0  0  0
   -6.4914    5.7069  -12.9271 O   0  0  0  0  0  0  0  0  0  0  0  0
   -8.2039    4.1962  -12.6973 N   0  0  0  0  0  0  0  0  0  0  0  0
   -8.2869    4.1266  -11.3083 C   0  0  0  0  0  0  0  0  0  0  0  0
   -8.1083    5.2314  -10.4457 C   0  0  0  0  0  0  0  0  0  0  0  0
   -8.2700    5.1505   -9.0575 C   0  0  0  0  0  0  0  0  0  0  0  0
   -8.6406    3.9400   -8.5263 C   0  0  0  0  0  0  0  0  0  0  0  0
   -8.8161    2.8332   -9.3463 C   0  0  0  0  0  0  0  0  0  0  0  0
   -8.6506    2.9084  -10.7216 C   0  0  0  0  0  0  0  0  0  0  0  0
   -9.1604    1.6628   -8.4904 C   0  0  0  0  0  0  0  0  0  0  0  0
   -9.6245    2.2548   -7.2065 N   0  0  0  0  0  0  0  0  0  0  0  0
   -8.9189    3.5530   -7.1138 C   0  0  0  0  0  0  0  0  0  0  0  0
   -8.8145    6.5710  -13.3149 C   0  0  0  0  0  0  0  0  0  0  0  0
   -9.9464    6.4896  -13.6069 O   0  0  0  0  0  0  0  0  0  0  0  0
   -8.0110    7.7626  -12.7069 N   0  0  0  0  0  0  0  0  0  0  0  0
   -8.4163    9.1200  -12.4255 C   0  0  0  0  0  0  0  0  0  0  0  0
   -8.8029    9.3487  -10.9684 C   0  0  0  0  0  0  0  0  0  0  0  0
   -9.2255   10.6310  -10.8176 F   0  0  0  0  0  0  0  0  0  0  0  0
   -7.6984    9.2154  -10.1859 F   0  0  0  0  0  0  0  0  0  0  0  0
  1  2  1  0
  2  3  1  0
  3  4  1  0
  4  5  2  0
  4  6  1  0
  6  7  1  1
  6  8  1  0
  8  9  1  0
  9 10  1  0
 10 11  1  0
 11 12  1  0
  6 13  1  0
 13 14  2  0
 14 15  1  0
 15 16  2  0
 16 17  1  0
 16 18  1  0
 18 19  2  0
 19 20  1  0
 20 21  1  1
 20 22  1  0
 22 23  1  0
 23 24  2  0
 24 25  1  0
 25 26  2  0
 26 27  1  0
 27 28  2  0
 27 29  1  0
 29 30  1  0
 30 31  1  0
 20 32  1  0
 32 33  2  0
 32 34  1  0
 34 35  1  0
 35 36  1  0
 36 37  1  0
 36 38  1  0
 14  3  1  0
 28 23  1  0
 19 13  1  0
 31 26  1  0
M  END
>  <smiles>  (1571) 
C23031-P200

>  <fragmenstein_outcome>  (1571) 
acceptable

>  <inchikey>  (1571) 
HAOYGSJLNCOVRE-UHFFFAOYSA-N

>  <fragmenstein_mode>  (1571) 
expansion

>  <HIPPO Pose ID>  (1571) 
22249

>  <Energy>  (1571) 
181.500236

>  <fragmenstein_error>  (1571) 


>  <tags>  (1571) 
{'openbind_xx01zvns2b_c1_fragmenstein', 'fragmenstein_placed'}

>  <ref_pdb>  (1571) 
175

>  <scratch_subdir>  (1571) 
/opt/xchem-fragalysis-2/maxwin/BulkDock/SCRATCH/511028/C23031-P200

>  <alias>  (1571) 
CCN1C(=O)[C@](C)(OCCOC)c2c1cc(F)cc2[C@](O)(Nc1ccc2c(c1)CNC2)C(=O)NCC(F)F

>  <HIPPO Compound ID>  (1571) 
38491

>  <fragmenstein_runtime>  (1571) 
9.070326

$$$$
CNCN1C(=O)[C@](C)(OCCOC)c2c(C(=O)Nc3ccc4c(c3)CNC4)cc(F)cc21
     RDKit          3D

 32 35  0  0  0  0  0  0  0  0999 V2000
   -3.0184    5.7706  -20.2442 C   0  0  0  0  0  0  0  0  0  0  0  0
   -4.2435    5.0373  -19.9460 N   0  0  0  0  0  0  0  0  0  0  0  0
   -5.1653    5.8770  -19.1971 C   0  0  0  0  0  0  0  0  0  0  0  0
   -5.3296    5.4154  -17.8398 N   0  0  0  0  0  0  0  0  0  0  0  0
   -4.4467    5.7790  -16.8133 C   0  0  0  0  0  0  0  0  0  0  0  0
   -3.2915    6.1646  -16.9385 O   0  0  0  0  0  0  0  0  0  0  0  0
   -5.2434    5.7321  -15.4511 C   0  0  2  0  0  0  0  0  0  0  0  0
   -5.2491    7.1715  -14.9199 C   0  0  0  0  0  0  0  0  0  0  0  0
   -4.8986    4.8033  -14.4416 O   0  0  0  0  0  0  0  0  0  0  0  0
   -3.5530    4.8408  -13.9776 C   0  0  0  0  0  0  0  0  0  0  0  0
   -3.4795    4.1220  -12.6229 C   0  0  0  0  0  0  0  0  0  0  0  0
   -3.5463    5.0464  -11.5280 O   0  0  0  0  0  0  0  0  0  0  0  0
   -4.8762    5.3969  -11.1759 C   0  0  0  0  0  0  0  0  0  0  0  0
   -6.6015    5.2670  -15.9293 C   0  0  0  0  0  0  0  0  0  0  0  0
   -7.7612    4.9987  -15.2084 C   0  0  0  0  0  0  0  0  0  0  0  0
   -7.9258    5.4367  -13.8086 C   0  0  0  0  0  0  0  0  0  0  0  0
   -7.9059    6.5832  -13.5932 O   0  0  0  0  0  0  0  0  0  0  0  0
   -8.1501    4.2451  -12.8574 N   0  0  0  0  0  0  0  0  0  0  0  0
   -8.2980    4.2077  -11.4715 C   0  0  0  0  0  0  0  0  0  0  0  0
   -8.2452    5.3855  -10.7037 C   0  0  0  0  0  0  0  0  0  0  0  0
   -8.3732    5.3440   -9.3115 C   0  0  0  0  0  0  0  0  0  0  0  0
   -8.6093    4.1193   -8.7189 C   0  0  0  0  0  0  0  0  0  0  0  0
   -8.6852    2.9547   -9.4785 C   0  0  0  0  0  0  0  0  0  0  0  0
   -8.5018    2.9738  -10.8508 C   0  0  0  0  0  0  0  0  0  0  0  0
   -8.9791    1.8048   -8.5715 C   0  0  0  0  0  0  0  0  0  0  0  0
   -9.4519    2.4305   -7.3056 N   0  0  0  0  0  0  0  0  0  0  0  0
   -8.8315    3.7737   -7.2846 C   0  0  0  0  0  0  0  0  0  0  0  0
   -8.8599    4.4431  -15.8644 C   0  0  0  0  0  0  0  0  0  0  0  0
   -8.8016    4.2135  -17.2372 C   0  0  0  0  0  0  0  0  0  0  0  0
   -9.8677    3.6831  -17.8481 F   0  0  0  0  0  0  0  0  0  0  0  0
   -7.6724    4.5361  -17.9823 C   0  0  0  0  0  0  0  0  0  0  0  0
   -6.5769    5.0510  -17.3093 C   0  0  0  0  0  0  0  0  0  0  0  0
  1  2  1  0
  2  3  1  0
  3  4  1  0
  4  5  1  0
  5  6  2  0
  5  7  1  0
  7  8  1  1
  7  9  1  0
  9 10  1  0
 10 11  1  0
 11 12  1  0
 12 13  1  0
  7 14  1  0
 14 15  2  0
 15 16  1  0
 16 17  2  0
 16 18  1  0
 18 19  1  0
 19 20  2  0
 20 21  1  0
 21 22  2  0
 22 23  1  0
 23 24  2  0
 23 25  1  0
 25 26  1  0
 26 27  1  0
 15 28  1  0
 28 29  2  0
 29 30  1  0
 29 31  1  0
 31 32  2  0
 32  4  1  0
 32 14  1  0
 24 19  1  0
 27 22  1  0
M  END
>  <smiles>  (1572) 
C23024-P200

>  <fragmenstein_outcome>  (1572) 
acceptable

>  <inchikey>  (1572) 
KCAYPGJSFFDDSN-UHFFFAOYSA-N

>  <fragmenstein_mode>  (1572) 
expansion

>  <HIPPO Pose ID>  (1572) 
22250

>  <Energy>  (1572) 
74.0043

>  <fragmenstein_error>  (1572) 


>  <tags>  (1572) 
{'openbind_xx01zvns2b_c1_fragmenstein', 'fragmenstein_placed'}

>  <ref_pdb>  (1572) 
175

>  <scratch_subdir>  (1572) 
/opt/xchem-fragalysis-2/maxwin/BulkDock/SCRATCH/511028/C23024-P200

>  <alias>  (1572) 
CNCN1C(=O)[C@](C)(OCCOC)c2c(C(=O)Nc3ccc4c(c3)CNC4)cc(F)cc21

>  <HIPPO Compound ID>  (1572) 
41701

>  <fragmenstein_runtime>  (1572) 
6.996568

$$$$
CNCN1C(=O)[C@](C)(OCCOC)c2c(C(=O)Nc3cc(Br)c4c(c3)CNC4)cc(F)cc21
     RDKit          3D

 33 36  0  0  0  0  0  0  0  0999 V2000
   -4.6386    6.9960  -20.9350 C   0  0  0  0  0  0  0  0  0  0  0  0
   -4.9047    6.8145  -19.5154 N   0  0  0  0  0  0  0  0  0  0  0  0
   -4.9785    5.3928  -19.1859 C   0  0  0  0  0  0  0  0  0  0  0  0
   -5.3262    5.3182  -17.7963 N   0  0  0  0  0  0  0  0  0  0  0  0
   -4.4221    5.5899  -16.7686 C   0  0  0  0  0  0  0  0  0  0  0  0
   -3.2185    5.7743  -16.9020 O   0  0  0  0  0  0  0  0  0  0  0  0
   -5.2435    5.6809  -15.4295 C   0  0  2  0  0  0  0  0  0  0  0  0
   -5.1941    7.1467  -14.9852 C   0  0  0  0  0  0  0  0  0  0  0  0
   -4.9388    4.7908  -14.3722 O   0  0  0  0  0  0  0  0  0  0  0  0
   -3.5885    4.7794  -13.9204 C   0  0  0  0  0  0  0  0  0  0  0  0
   -3.5328    4.0932  -12.5492 C   0  0  0  0  0  0  0  0  0  0  0  0
   -3.5239    5.0499  -11.4815 O   0  0  0  0  0  0  0  0  0  0  0  0
   -4.8230    5.5031  -11.1321 C   0  0  0  0  0  0  0  0  0  0  0  0
   -6.6181    5.2576  -15.9089 C   0  0  0  0  0  0  0  0  0  0  0  0
   -7.7803    5.0112  -15.1845 C   0  0  0  0  0  0  0  0  0  0  0  0
   -7.9134    5.4384  -13.7794 C   0  0  0  0  0  0  0  0  0  0  0  0
   -7.8775    6.5835  -13.5584 O   0  0  0  0  0  0  0  0  0  0  0  0
   -8.0559    4.2391  -12.8205 N   0  0  0  0  0  0  0  0  0  0  0  0
   -8.2720    4.2011  -11.4438 C   0  0  0  0  0  0  0  0  0  0  0  0
   -8.1664    5.3705  -10.6738 C   0  0  0  0  0  0  0  0  0  0  0  0
   -8.2697    5.3171   -9.2817 C   0  0  0  0  0  0  0  0  0  0  0  0
   -7.9870    6.8869   -8.2720 Br  0  0  0  0  0  0  0  0  0  0  0  0
   -8.5425    4.1052   -8.6785 C   0  0  0  0  0  0  0  0  0  0  0  0
   -8.6834    2.9542   -9.4469 C   0  0  0  0  0  0  0  0  0  0  0  0
   -8.5301    2.9772  -10.8259 C   0  0  0  0  0  0  0  0  0  0  0  0
   -8.9527    1.7900   -8.5547 C   0  0  0  0  0  0  0  0  0  0  0  0
   -9.1778    2.3571   -7.2010 N   0  0  0  0  0  0  0  0  0  0  0  0
   -8.7029    3.7564   -7.2388 C   0  0  0  0  0  0  0  0  0  0  0  0
   -8.8881    4.4722  -15.8360 C   0  0  0  0  0  0  0  0  0  0  0  0
   -8.8395    4.2493  -17.2112 C   0  0  0  0  0  0  0  0  0  0  0  0
   -9.9140    3.7325  -17.8194 F   0  0  0  0  0  0  0  0  0  0  0  0
   -7.7088    4.5556  -17.9614 C   0  0  0  0  0  0  0  0  0  0  0  0
   -6.5987    5.0358  -17.2890 C   0  0  0  0  0  0  0  0  0  0  0  0
  1  2  1  0
  2  3  1  0
  3  4  1  0
  4  5  1  0
  5  6  2  0
  5  7  1  0
  7  8  1  1
  7  9  1  0
  9 10  1  0
 10 11  1  0
 11 12  1  0
 12 13  1  0
  7 14  1  0
 14 15  2  0
 15 16  1  0
 16 17  2  0
 16 18  1  0
 18 19  1  0
 19 20  2  0
 20 21  1  0
 21 22  1  0
 21 23  2  0
 23 24  1  0
 24 25  2  0
 24 26  1  0
 26 27  1  0
 27 28  1  0
 15 29  1  0
 29 30  2  0
 30 31  1  0
 30 32  1  0
 32 33  2  0
 33  4  1  0
 33 14  1  0
 25 19  1  0
 28 23  1  0
M  END
>  <smiles>  (1573) 
C23040-P200

>  <fragmenstein_outcome>  (1573) 
acceptable

>  <inchikey>  (1573) 
OKWNAIAAEYDKFG-UHFFFAOYSA-N

>  <fragmenstein_mode>  (1573) 
expansion

>  <HIPPO Pose ID>  (1573) 
22251

>  <Energy>  (1573) 
59.271214

>  <fragmenstein_error>  (1573) 


>  <tags>  (1573) 
{'openbind_xx01zvns2b_c1_fragmenstein', 'fragmenstein_placed'}

>  <ref_pdb>  (1573) 
175

>  <scratch_subdir>  (1573) 
/opt/xchem-fragalysis-2/maxwin/BulkDock/SCRATCH/511028/C23040-P200

>  <alias>  (1573) 
CNCN1C(=O)[C@](C)(OCCOC)c2c(C(=O)Nc3cc(Br)c4c(c3)CNC4)cc(F)cc21

>  <HIPPO Compound ID>  (1573) 
23040

>  <fragmenstein_runtime>  (1573) 
5.908856

$$$$
CNCN1C(=O)[C@@](C)(OCCOC)c2c(C(=O)Nc3cc(F)c4c(c3)CNC4=O)cc(F)cc21
     RDKit          3D

 34 37  0  0  0  0  0  0  0  0999 V2000
   -4.4319    7.8995  -19.1994 C   0  0  0  0  0  0  0  0  0  0  0  0
   -3.5684    6.7383  -19.0485 N   0  0  0  0  0  0  0  0  0  0  0  0
   -4.3331    5.5124  -18.8110 C   0  0  0  0  0  0  0  0  0  0  0  0
   -4.9227    5.5349  -17.4896 N   0  0  0  0  0  0  0  0  0  0  0  0
   -4.1789    5.7731  -16.3304 C   0  0  0  0  0  0  0  0  0  0  0  0
   -2.9843    6.0441  -16.2884 O   0  0  0  0  0  0  0  0  0  0  0  0
   -5.1387    5.6629  -15.1027 C   0  0  1  0  0  0  0  0  0  0  0  0
   -4.6642    4.5273  -14.1888 C   0  0  0  0  0  0  0  0  0  0  0  0
   -5.3657    6.8650  -14.3963 O   0  0  0  0  0  0  0  0  0  0  0  0
   -4.2186    7.4965  -13.8308 C   0  0  0  0  0  0  0  0  0  0  0  0
   -4.6050    8.0906  -12.4760 C   0  0  0  0  0  0  0  0  0  0  0  0
   -4.6222    7.0475  -11.4934 O   0  0  0  0  0  0  0  0  0  0  0  0
   -5.0241    7.5391  -10.2203 C   0  0  0  0  0  0  0  0  0  0  0  0
   -6.4394    5.2850  -15.7793 C   0  0  0  0  0  0  0  0  0  0  0  0
   -7.6949    5.0596  -15.2180 C   0  0  0  0  0  0  0  0  0  0  0  0
   -8.0161    5.5042  -13.8415 C   0  0  0  0  0  0  0  0  0  0  0  0
   -8.1593    6.6492  -13.6651 O   0  0  0  0  0  0  0  0  0  0  0  0
   -8.0594    4.3246  -12.8454 N   0  0  0  0  0  0  0  0  0  0  0  0
   -8.1894    4.3160  -11.4539 C   0  0  0  0  0  0  0  0  0  0  0  0
   -8.1432    5.5173  -10.7262 C   0  0  0  0  0  0  0  0  0  0  0  0
   -8.2417    5.5107   -9.3345 C   0  0  0  0  0  0  0  0  0  0  0  0
   -8.1848    6.6678   -8.6624 F   0  0  0  0  0  0  0  0  0  0  0  0
   -8.3984    4.3061   -8.6908 C   0  0  0  0  0  0  0  0  0  0  0  0
   -8.4460    3.1039   -9.3930 C   0  0  0  0  0  0  0  0  0  0  0  0
   -8.3340    3.0969  -10.7798 C   0  0  0  0  0  0  0  0  0  0  0  0
   -8.5907    1.9699   -8.4315 C   0  0  0  0  0  0  0  0  0  0  0  0
   -8.6947    2.6462   -7.1577 N   0  0  0  0  0  0  0  0  0  0  0  0
   -8.5391    4.0114   -7.2625 C   0  0  0  0  0  0  0  0  0  0  0  0
   -8.5216    4.8152   -6.3513 O   0  0  0  0  0  0  0  0  0  0  0  0
   -8.7213    4.6018  -16.0369 C   0  0  0  0  0  0  0  0  0  0  0  0
   -8.4993    4.4386  -17.4052 C   0  0  0  0  0  0  0  0  0  0  0  0
   -9.5124    3.9922  -18.1599 F   0  0  0  0  0  0  0  0  0  0  0  0
   -7.2714    4.7484  -17.9956 C   0  0  0  0  0  0  0  0  0  0  0  0
   -6.2435    5.1664  -17.1649 C   0  0  0  0  0  0  0  0  0  0  0  0
  1  2  1  0
  2  3  1  0
  3  4  1  0
  4  5  1  0
  5  6  2  0
  5  7  1  0
  7  8  1  1
  7  9  1  0
  9 10  1  0
 10 11  1  0
 11 12  1  0
 12 13  1  0
  7 14  1  0
 14 15  2  0
 15 16  1  0
 16 17  2  0
 16 18  1  0
 18 19  1  0
 19 20  2  0
 20 21  1  0
 21 22  1  0
 21 23  2  0
 23 24  1  0
 24 25  2  0
 24 26  1  0
 26 27  1  0
 27 28  1  0
 28 29  2  0
 15 30  1  0
 30 31  2  0
 31 32  1  0
 31 33  1  0
 33 34  2  0
 34  4  1  0
 34 14  1  0
 25 19  1  0
 28 23  1  0
M  END
>  <smiles>  (1574) 
C23054-P5

>  <fragmenstein_outcome>  (1574) 
acceptable

>  <inchikey>  (1574) 
UBKTVCBHZLRXTN-UHFFFAOYSA-N

>  <fragmenstein_mode>  (1574) 
expansion

>  <HIPPO Pose ID>  (1574) 
22253

>  <Energy>  (1574) 
47.037905

>  <fragmenstein_error>  (1574) 


>  <tags>  (1574) 
{'openbind_xx01zvns2b_c1_fragmenstein', 'fragmenstein_placed'}

>  <ref_pdb>  (1574) 
175

>  <scratch_subdir>  (1574) 
/opt/xchem-fragalysis-2/maxwin/BulkDock/SCRATCH/511028/C23054-P5

>  <alias>  (1574) 
CNCN1C(=O)[C@@](C)(OCCOC)c2c(C(=O)Nc3cc(F)c4c(c3)CNC4=O)cc(F)cc21

>  <HIPPO Compound ID>  (1574) 
23054

>  <fragmenstein_runtime>  (1574) 
9.50826

$$$$
CNCN1C(=O)[C@@](C)(OCCOC)c2c(C(=O)Nc3ccc4c(c3)CNC4)cc(F)cc21
     RDKit          3D

 32 35  0  0  0  0  0  0  0  0999 V2000
   -3.6948    5.9604  -20.6702 C   0  0  0  0  0  0  0  0  0  0  0  0
   -4.4888    5.2546  -19.6736 N   0  0  0  0  0  0  0  0  0  0  0  0
   -5.2292    6.2161  -18.8781 C   0  0  0  0  0  0  0  0  0  0  0  0
   -5.4196    5.6998  -17.5520 N   0  0  0  0  0  0  0  0  0  0  0  0
   -4.5898    6.0833  -16.4893 C   0  0  0  0  0  0  0  0  0  0  0  0
   -3.4923    6.6207  -16.5779 O   0  0  0  0  0  0  0  0  0  0  0  0
   -5.3526    5.7722  -15.1547 C   0  0  1  0  0  0  0  0  0  0  0  0
   -4.6328    4.6681  -14.3781 C   0  0  0  0  0  0  0  0  0  0  0  0
   -5.6212    6.9042  -14.3522 O   0  0  0  0  0  0  0  0  0  0  0  0
   -4.4947    7.6512  -13.8944 C   0  0  0  0  0  0  0  0  0  0  0  0
   -4.7918    8.1596  -12.4836 C   0  0  0  0  0  0  0  0  0  0  0  0
   -4.5915    7.0962  -11.5450 O   0  0  0  0  0  0  0  0  0  0  0  0
   -4.9910    7.4760  -10.2347 C   0  0  0  0  0  0  0  0  0  0  0  0
   -6.6780    5.2606  -15.6901 C   0  0  0  0  0  0  0  0  0  0  0  0
   -7.8639    4.9522  -15.0300 C   0  0  0  0  0  0  0  0  0  0  0  0
   -8.1113    5.3831  -13.6389 C   0  0  0  0  0  0  0  0  0  0  0  0
   -8.2581    6.5222  -13.4345 O   0  0  0  0  0  0  0  0  0  0  0  0
   -8.1650    4.1807  -12.6773 N   0  0  0  0  0  0  0  0  0  0  0  0
   -8.3114    4.1350  -11.2941 C   0  0  0  0  0  0  0  0  0  0  0  0
   -8.2499    5.3119  -10.5276 C   0  0  0  0  0  0  0  0  0  0  0  0
   -8.3750    5.2715   -9.1358 C   0  0  0  0  0  0  0  0  0  0  0  0
   -8.5952    4.0453   -8.5385 C   0  0  0  0  0  0  0  0  0  0  0  0
   -8.6714    2.8826   -9.2973 C   0  0  0  0  0  0  0  0  0  0  0  0
   -8.5095    2.9021  -10.6733 C   0  0  0  0  0  0  0  0  0  0  0  0
   -8.8981    1.7190   -8.3943 C   0  0  0  0  0  0  0  0  0  0  0  0
   -9.2127    2.2986   -7.0618 N   0  0  0  0  0  0  0  0  0  0  0  0
   -8.7668    3.7062   -7.0974 C   0  0  0  0  0  0  0  0  0  0  0  0
   -8.9370    4.4302  -15.7555 C   0  0  0  0  0  0  0  0  0  0  0  0
   -8.8242    4.2693  -17.1359 C   0  0  0  0  0  0  0  0  0  0  0  0
   -9.8663    3.7779  -17.8170 F   0  0  0  0  0  0  0  0  0  0  0  0
   -7.6797    4.6600  -17.8232 C   0  0  0  0  0  0  0  0  0  0  0  0
   -6.6248    5.1654  -17.0835 C   0  0  0  0  0  0  0  0  0  0  0  0
  1  2  1  0
  2  3  1  0
  3  4  1  0
  4  5  1  0
  5  6  2  0
  5  7  1  0
  7  8  1  1
  7  9  1  0
  9 10  1  0
 10 11  1  0
 11 12  1  0
 12 13  1  0
  7 14  1  0
 14 15  2  0
 15 16  1  0
 16 17  2  0
 16 18  1  0
 18 19  1  0
 19 20  2  0
 20 21  1  0
 21 22  2  0
 22 23  1  0
 23 24  2  0
 23 25  1  0
 25 26  1  0
 26 27  1  0
 15 28  1  0
 28 29  2  0
 29 30  1  0
 29 31  1  0
 31 32  2  0
 32  4  1  0
 32 14  1  0
 24 19  1  0
 27 22  1  0
M  END
>  <smiles>  (1575) 
C23024-P201

>  <fragmenstein_outcome>  (1575) 
acceptable

>  <inchikey>  (1575) 
KKPUOEAHHZGJFV-UHFFFAOYSA-N

>  <fragmenstein_mode>  (1575) 
expansion

>  <HIPPO Pose ID>  (1575) 
22255

>  <Energy>  (1575) 
74.05871

>  <fragmenstein_error>  (1575) 


>  <tags>  (1575) 
{'openbind_xx01zvns2b_c1_fragmenstein', 'fragmenstein_placed'}

>  <ref_pdb>  (1575) 
175

>  <scratch_subdir>  (1575) 
/opt/xchem-fragalysis-2/maxwin/BulkDock/SCRATCH/511028/C23024-P201

>  <alias>  (1575) 
CNCN1C(=O)[C@@](C)(OCCOC)c2c(C(=O)Nc3ccc4c(c3)CNC4)cc(F)cc21

>  <HIPPO Compound ID>  (1575) 
23024

>  <fragmenstein_runtime>  (1575) 
4.404472

$$$$
CNCN1C(=O)[C@@](C)(OCCOC)c2c(C(=O)Nc3ccc4c(c3)CN(C)C4)cc(F)cc21
     RDKit          3D

 33 36  0  0  0  0  0  0  0  0999 V2000
   -3.6345    6.2600  -20.8108 C   0  0  0  0  0  0  0  0  0  0  0  0
   -4.1687    5.4420  -19.7268 N   0  0  0  0  0  0  0  0  0  0  0  0
   -5.0815    6.2522  -18.9385 C   0  0  0  0  0  0  0  0  0  0  0  0
   -5.2686    5.6656  -17.6414 N   0  0  0  0  0  0  0  0  0  0  0  0
   -4.4824    6.0794  -16.5523 C   0  0  0  0  0  0  0  0  0  0  0  0
   -3.3949    6.6405  -16.6070 O   0  0  0  0  0  0  0  0  0  0  0  0
   -5.2788    5.7629  -15.2397 C   0  0  1  0  0  0  0  0  0  0  0  0
   -4.5818    4.6382  -14.4695 C   0  0  0  0  0  0  0  0  0  0  0  0
   -5.5621    6.8720  -14.4118 O   0  0  0  0  0  0  0  0  0  0  0  0
   -4.4464    7.6265  -13.9401 C   0  0  0  0  0  0  0  0  0  0  0  0
   -4.7678    8.1500  -12.5393 C   0  0  0  0  0  0  0  0  0  0  0  0
   -4.5824    7.0980  -11.5845 O   0  0  0  0  0  0  0  0  0  0  0  0
   -4.9523    7.5112  -10.2752 C   0  0  0  0  0  0  0  0  0  0  0  0
   -6.5910    5.2684  -15.8187 C   0  0  0  0  0  0  0  0  0  0  0  0
   -7.8070    5.0018  -15.2023 C   0  0  0  0  0  0  0  0  0  0  0  0
   -8.0747    5.4536  -13.8312 C   0  0  0  0  0  0  0  0  0  0  0  0
   -8.2625    6.5865  -13.6374 O   0  0  0  0  0  0  0  0  0  0  0  0
   -8.0744    4.2649  -12.8613 N   0  0  0  0  0  0  0  0  0  0  0  0
   -8.2062    4.2278  -11.4842 C   0  0  0  0  0  0  0  0  0  0  0  0
   -8.1233    5.4119  -10.7274 C   0  0  0  0  0  0  0  0  0  0  0  0
   -8.2869    5.3915   -9.3430 C   0  0  0  0  0  0  0  0  0  0  0  0
   -8.5815    4.1791   -8.7593 C   0  0  0  0  0  0  0  0  0  0  0  0
   -8.6702    3.0067   -9.5175 C   0  0  0  0  0  0  0  0  0  0  0  0
   -8.4469    3.0010  -10.8761 C   0  0  0  0  0  0  0  0  0  0  0  0
   -9.0714    1.8824   -8.6232 C   0  0  0  0  0  0  0  0  0  0  0  0
   -9.6608    2.5917   -7.4656 N   0  0  0  0  0  0  0  0  0  0  0  0
   -9.6109    1.7860   -6.2743 C   0  0  0  0  0  0  0  0  0  0  0  0
   -8.9042    3.8499   -7.3389 C   0  0  0  0  0  0  0  0  0  0  0  0
   -8.8697    4.4800  -15.9400 C   0  0  0  0  0  0  0  0  0  0  0  0
   -8.7157    4.2900  -17.3092 C   0  0  0  0  0  0  0  0  0  0  0  0
   -9.7446    3.7975  -18.0086 F   0  0  0  0  0  0  0  0  0  0  0  0
   -7.5406    4.6494  -17.9646 C   0  0  0  0  0  0  0  0  0  0  0  0
   -6.4966    5.1510  -17.2037 C   0  0  0  0  0  0  0  0  0  0  0  0
  1  2  1  0
  2  3  1  0
  3  4  1  0
  4  5  1  0
  5  6  2  0
  5  7  1  0
  7  8  1  1
  7  9  1  0
  9 10  1  0
 10 11  1  0
 11 12  1  0
 12 13  1  0
  7 14  1  0
 14 15  2  0
 15 16  1  0
 16 17  2  0
 16 18  1  0
 18 19  1  0
 19 20  2  0
 20 21  1  0
 21 22  2  0
 22 23  1  0
 23 24  2  0
 23 25  1  0
 25 26  1  0
 26 27  1  0
 26 28  1  0
 15 29  1  0
 29 30  2  0
 30 31  1  0
 30 32  1  0
 32 33  2  0
 33  4  1  0
 33 14  1  0
 24 19  1  0
 28 22  1  0
M  END
>  <smiles>  (1576) 
C23059-P201

>  <fragmenstein_outcome>  (1576) 
acceptable

>  <inchikey>  (1576) 
UTNVYBNZSLNUOZ-UHFFFAOYSA-N

>  <fragmenstein_mode>  (1576) 
expansion

>  <HIPPO Pose ID>  (1576) 
22256

>  <Energy>  (1576) 
87.633504

>  <fragmenstein_error>  (1576) 


>  <tags>  (1576) 
{'openbind_xx01zvns2b_c1_fragmenstein', 'fragmenstein_placed'}

>  <ref_pdb>  (1576) 
175

>  <scratch_subdir>  (1576) 
/opt/xchem-fragalysis-2/maxwin/BulkDock/SCRATCH/511028/C23059-P201

>  <alias>  (1576) 
CNCN1C(=O)[C@@](C)(OCCOC)c2c(C(=O)Nc3ccc4c(c3)CN(C)C4)cc(F)cc21

>  <HIPPO Compound ID>  (1576) 
23059

>  <fragmenstein_runtime>  (1576) 
4.205858

$$$$
CNCN1C(=O)[C@@](C)(OCCOC)c2c(C(=O)Nc3cc4c(cc3F)CNC4)cc(F)cc21
     RDKit          3D

 33 36  0  0  0  0  0  0  0  0999 V2000
   -5.3229    6.1965  -20.1424 C   0  0  0  0  0  0  0  0  0  0  0  0
   -4.1240    5.9564  -19.3571 N   0  0  0  0  0  0  0  0  0  0  0  0
   -4.3332    4.8476  -18.4472 C   0  0  0  0  0  0  0  0  0  0  0  0
   -5.0110    5.2556  -17.2549 N   0  0  0  0  0  0  0  0  0  0  0  0
   -4.2965    5.6786  -16.1339 C   0  0  0  0  0  0  0  0  0  0  0  0
   -3.0965    5.9188  -16.0872 O   0  0  0  0  0  0  0  0  0  0  0  0
   -5.2928    5.7335  -14.9301 C   0  0  1  0  0  0  0  0  0  0  0  0
   -4.8436    4.7229  -13.8690 C   0  0  0  0  0  0  0  0  0  0  0  0
   -5.5183    7.0289  -14.4130 O   0  0  0  0  0  0  0  0  0  0  0  0
   -4.3895    7.6778  -13.8273 C   0  0  0  0  0  0  0  0  0  0  0  0
   -4.7515    8.1465  -12.4185 C   0  0  0  0  0  0  0  0  0  0  0  0
   -4.5887    7.0631  -11.4959 O   0  0  0  0  0  0  0  0  0  0  0  0
   -4.9828    7.4424  -10.1834 C   0  0  0  0  0  0  0  0  0  0  0  0
   -6.5820    5.2774  -15.5852 C   0  0  0  0  0  0  0  0  0  0  0  0
   -7.8476    5.0846  -15.0370 C   0  0  0  0  0  0  0  0  0  0  0  0
   -8.1713    5.5143  -13.6635 C   0  0  0  0  0  0  0  0  0  0  0  0
   -8.3565    6.6478  -13.4618 O   0  0  0  0  0  0  0  0  0  0  0  0
   -8.1930    4.3095  -12.6986 N   0  0  0  0  0  0  0  0  0  0  0  0
   -8.3489    4.2606  -11.3087 C   0  0  0  0  0  0  0  0  0  0  0  0
   -8.5295    3.0014  -10.7226 C   0  0  0  0  0  0  0  0  0  0  0  0
   -8.6803    2.9235   -9.3449 C   0  0  0  0  0  0  0  0  0  0  0  0
   -8.6135    4.0550   -8.5408 C   0  0  0  0  0  0  0  0  0  0  0  0
   -8.4107    5.3033   -9.0928 C   0  0  0  0  0  0  0  0  0  0  0  0
   -8.2960    5.3990  -10.4808 C   0  0  0  0  0  0  0  0  0  0  0  0
   -8.0918    6.6232  -10.9828 F   0  0  0  0  0  0  0  0  0  0  0  0
   -8.7741    3.6620   -7.1130 C   0  0  0  0  0  0  0  0  0  0  0  0
   -9.2034    2.2504   -7.1313 N   0  0  0  0  0  0  0  0  0  0  0  0
   -8.8870    1.7224   -8.4839 C   0  0  0  0  0  0  0  0  0  0  0  0
   -8.8688    4.5655  -15.8316 C   0  0  0  0  0  0  0  0  0  0  0  0
   -8.6210    4.2936  -17.1759 C   0  0  0  0  0  0  0  0  0  0  0  0
   -9.6209    3.8123  -17.9259 F   0  0  0  0  0  0  0  0  0  0  0  0
   -7.3704    4.5188  -17.7511 C   0  0  0  0  0  0  0  0  0  0  0  0
   -6.3551    4.9981  -16.9371 C   0  0  0  0  0  0  0  0  0  0  0  0
  1  2  1  0
  2  3  1  0
  3  4  1  0
  4  5  1  0
  5  6  2  0
  5  7  1  0
  7  8  1  1
  7  9  1  0
  9 10  1  0
 10 11  1  0
 11 12  1  0
 12 13  1  0
  7 14  1  0
 14 15  2  0
 15 16  1  0
 16 17  2  0
 16 18  1  0
 18 19  1  0
 19 20  2  0
 20 21  1  0
 21 22  2  0
 22 23  1  0
 23 24  2  0
 24 25  1  0
 22 26  1  0
 26 27  1  0
 27 28  1  0
 15 29  1  0
 29 30  2  0
 30 31  1  0
 30 32  1  0
 32 33  2  0
 33  4  1  0
 33 14  1  0
 24 19  1  0
 28 21  1  0
M  END
>  <smiles>  (1577) 
C23061-P201

>  <fragmenstein_outcome>  (1577) 
acceptable

>  <inchikey>  (1577) 
XBZQWDWGVUOVHK-UHFFFAOYSA-N

>  <fragmenstein_mode>  (1577) 
expansion

>  <HIPPO Pose ID>  (1577) 
22257

>  <Energy>  (1577) 
88.135996

>  <fragmenstein_error>  (1577) 


>  <tags>  (1577) 
{'openbind_xx01zvns2b_c1_fragmenstein', 'fragmenstein_placed'}

>  <ref_pdb>  (1577) 
175

>  <scratch_subdir>  (1577) 
/opt/xchem-fragalysis-2/maxwin/BulkDock/SCRATCH/511028/C23061-P201

>  <alias>  (1577) 
CNCN1C(=O)[C@@](C)(OCCOC)c2c(C(=O)Nc3cc4c(cc3F)CNC4)cc(F)cc21

>  <HIPPO Compound ID>  (1577) 
23061

>  <fragmenstein_runtime>  (1577) 
5.013636

$$$$
CNCN1C(=O)[C@@](C)(OCCOC)c2c(C(=O)Nc3cc(F)c4c(c3)CNC43CCCC3)cc(F)cc21
     RDKit          3D

 37 41  0  0  0  0  0  0  0  0999 V2000
   -2.7925    5.3132  -20.0588 C   0  0  0  0  0  0  0  0  0  0  0  0
   -3.4499    4.9818  -18.8128 N   0  0  0  0  0  0  0  0  0  0  0  0
   -4.7352    5.6456  -18.6885 C   0  0  0  0  0  0  0  0  0  0  0  0
   -5.1824    5.4626  -17.3358 N   0  0  0  0  0  0  0  0  0  0  0  0
   -4.4802    6.0043  -16.2496 C   0  0  0  0  0  0  0  0  0  0  0  0
   -3.4019    6.5842  -16.2806 O   0  0  0  0  0  0  0  0  0  0  0  0
   -5.3447    5.7781  -14.9694 C   0  0  1  0  0  0  0  0  0  0  0  0
   -4.7100    4.6937  -14.0936 C   0  0  0  0  0  0  0  0  0  0  0  0
   -5.6347    6.9562  -14.2457 O   0  0  0  0  0  0  0  0  0  0  0  0
   -4.5109    7.6811  -13.7440 C   0  0  0  0  0  0  0  0  0  0  0  0
   -4.8370    8.1688  -12.3344 C   0  0  0  0  0  0  0  0  0  0  0  0
   -4.6772    7.0837  -11.4132 O   0  0  0  0  0  0  0  0  0  0  0  0
   -5.0925    7.4496  -10.1036 C   0  0  0  0  0  0  0  0  0  0  0  0
   -6.6378    5.2611  -15.5708 C   0  0  0  0  0  0  0  0  0  0  0  0
   -7.8666    4.9990  -14.9672 C   0  0  0  0  0  0  0  0  0  0  0  0
   -8.1736    5.4389  -13.5871 C   0  0  0  0  0  0  0  0  0  0  0  0
   -8.3206    6.5810  -13.3972 O   0  0  0  0  0  0  0  0  0  0  0  0
   -8.2317    4.2456  -12.6083 N   0  0  0  0  0  0  0  0  0  0  0  0
   -8.3839    4.2175  -11.2202 C   0  0  0  0  0  0  0  0  0  0  0  0
   -8.4029    5.4071  -10.4790 C   0  0  0  0  0  0  0  0  0  0  0  0
   -8.5137    5.3720   -9.0886 C   0  0  0  0  0  0  0  0  0  0  0  0
   -8.5031    6.5206   -8.3996 F   0  0  0  0  0  0  0  0  0  0  0  0
   -8.6373    4.1634   -8.4345 C   0  0  0  0  0  0  0  0  0  0  0  0
   -8.6309    2.9858   -9.1766 C   0  0  0  0  0  0  0  0  0  0  0  0
   -8.4945    2.9894  -10.5629 C   0  0  0  0  0  0  0  0  0  0  0  0
   -8.7478    1.8174   -8.2587 C   0  0  0  0  0  0  0  0  0  0  0  0
   -8.7215    2.3735   -6.8901 N   0  0  0  0  0  0  0  0  0  0  0  0
   -8.7089    3.8493   -6.9738 C   0  0  0  0  0  0  0  0  0  0  0  0
   -9.8978    4.4027   -6.1783 C   0  0  0  0  0  0  0  0  0  0  0  0
   -9.4717    4.3635   -4.7078 C   0  0  0  0  0  0  0  0  0  0  0  0
   -7.9458    4.3196   -4.7132 C   0  0  0  0  0  0  0  0  0  0  0  0
   -7.5476    4.4712   -6.1758 C   0  0  0  0  0  0  0  0  0  0  0  0
   -8.9026    4.4743  -15.7399 C   0  0  0  0  0  0  0  0  0  0  0  0
   -8.7086    4.2629  -17.1061 C   0  0  0  0  0  0  0  0  0  0  0  0
   -9.7250    3.7746  -17.8294 F   0  0  0  0  0  0  0  0  0  0  0  0
   -7.5029    4.5726  -17.7346 C   0  0  0  0  0  0  0  0  0  0  0  0
   -6.4723    5.0633  -16.9493 C   0  0  0  0  0  0  0  0  0  0  0  0
  1  2  1  0
  2  3  1  0
  3  4  1  0
  4  5  1  0
  5  6  2  0
  5  7  1  0
  7  8  1  1
  7  9  1  0
  9 10  1  0
 10 11  1  0
 11 12  1  0
 12 13  1  0
  7 14  1  0
 14 15  2  0
 15 16  1  0
 16 17  2  0
 16 18  1  0
 18 19  1  0
 19 20  2  0
 20 21  1  0
 21 22  1  0
 21 23  2  0
 23 24  1  0
 24 25  2  0
 24 26  1  0
 26 27  1  0
 27 28  1  0
 28 29  1  0
 29 30  1  0
 30 31  1  0
 31 32  1  0
 15 33  1  0
 33 34  2  0
 34 35  1  0
 34 36  1  0
 36 37  2  0
 37  4  1  0
 37 14  1  0
 25 19  1  0
 32 28  1  0
 28 23  1  0
M  END
>  <smiles>  (1578) 
C23062-P201

>  <fragmenstein_outcome>  (1578) 
acceptable

>  <inchikey>  (1578) 
IRUNNPMAGDPWCL-UHFFFAOYSA-N

>  <fragmenstein_mode>  (1578) 
expansion

>  <HIPPO Pose ID>  (1578) 
22258

>  <Energy>  (1578) 
76.064069

>  <fragmenstein_error>  (1578) 


>  <tags>  (1578) 
{'openbind_xx01zvns2b_c1_fragmenstein', 'fragmenstein_placed'}

>  <ref_pdb>  (1578) 
175

>  <scratch_subdir>  (1578) 
/opt/xchem-fragalysis-2/maxwin/BulkDock/SCRATCH/511028/C23062-P201

>  <alias>  (1578) 
CNCN1C(=O)[C@@](C)(OCCOC)c2c(C(=O)Nc3cc(F)c4c(c3)CNC43CCCC3)cc(F)cc21

>  <HIPPO Compound ID>  (1578) 
23062

>  <fragmenstein_runtime>  (1578) 
5.816202

$$$$
CNCN1C(=O)[C@@](C)(OCCOC)c2c(C(=O)Nc3cc(C#N)c4c(c3)CNC4)cc(F)cc21
     RDKit          3D

 34 37  0  0  0  0  0  0  0  0999 V2000
   -5.2055    4.8821  -20.1101 C   0  0  0  0  0  0  0  0  0  0  0  0
   -4.4092    5.8209  -19.3601 N   0  0  0  0  0  0  0  0  0  0  0  0
   -5.2560    6.6046  -18.5039 C   0  0  0  0  0  0  0  0  0  0  0  0
   -5.4423    5.9222  -17.2656 N   0  0  0  0  0  0  0  0  0  0  0  0
   -4.5795    6.1572  -16.1929 C   0  0  0  0  0  0  0  0  0  0  0  0
   -3.4605    6.6513  -16.2522 O   0  0  0  0  0  0  0  0  0  0  0  0
   -5.3425    5.7606  -14.8933 C   0  0  1  0  0  0  0  0  0  0  0  0
   -4.6258    4.6100  -14.1888 C   0  0  0  0  0  0  0  0  0  0  0  0
   -5.5892    6.8481  -14.0269 O   0  0  0  0  0  0  0  0  0  0  0  0
   -4.4526    7.6059  -13.6152 C   0  0  0  0  0  0  0  0  0  0  0  0
   -4.7451    8.1948  -12.2385 C   0  0  0  0  0  0  0  0  0  0  0  0
   -4.6106    7.1644  -11.2524 O   0  0  0  0  0  0  0  0  0  0  0  0
   -4.9572    7.6401   -9.9582 C   0  0  0  0  0  0  0  0  0  0  0  0
   -6.6749    5.3002  -15.4580 C   0  0  0  0  0  0  0  0  0  0  0  0
   -7.8620    4.9547  -14.8221 C   0  0  0  0  0  0  0  0  0  0  0  0
   -8.1017    5.3553  -13.4265 C   0  0  0  0  0  0  0  0  0  0  0  0
   -8.1927    6.4932  -13.1931 O   0  0  0  0  0  0  0  0  0  0  0  0
   -8.0899    4.1428  -12.4834 N   0  0  0  0  0  0  0  0  0  0  0  0
   -8.2753    4.0669  -11.1117 C   0  0  0  0  0  0  0  0  0  0  0  0
   -8.1437    5.2280  -10.3284 C   0  0  0  0  0  0  0  0  0  0  0  0
   -8.2747    5.1720   -8.9382 C   0  0  0  0  0  0  0  0  0  0  0  0
   -7.9994    6.3228   -8.1356 C   0  0  0  0  0  0  0  0  0  0  0  0
   -7.7209    7.2416   -7.4829 N   0  0  0  0  0  0  0  0  0  0  0  0
   -8.6232    3.9614   -8.3713 C   0  0  0  0  0  0  0  0  0  0  0  0
   -8.7481    2.8135   -9.1547 C   0  0  0  0  0  0  0  0  0  0  0  0
   -8.5442    2.8365  -10.5219 C   0  0  0  0  0  0  0  0  0  0  0  0
   -9.0434    1.6564   -8.2633 C   0  0  0  0  0  0  0  0  0  0  0  0
   -9.5255    2.2709   -7.0014 N   0  0  0  0  0  0  0  0  0  0  0  0
   -8.8812    3.6007   -6.9455 C   0  0  0  0  0  0  0  0  0  0  0  0
   -8.9352    4.4655  -15.5683 C   0  0  0  0  0  0  0  0  0  0  0  0
   -8.8294    4.4009  -16.9548 C   0  0  0  0  0  0  0  0  0  0  0  0
   -9.8624    3.9357  -17.6691 F   0  0  0  0  0  0  0  0  0  0  0  0
   -7.7057    4.8873  -17.6150 C   0  0  0  0  0  0  0  0  0  0  0  0
   -6.6408    5.3350  -16.8488 C   0  0  0  0  0  0  0  0  0  0  0  0
  1  2  1  0
  2  3  1  0
  3  4  1  0
  4  5  1  0
  5  6  2  0
  5  7  1  0
  7  8  1  1
  7  9  1  0
  9 10  1  0
 10 11  1  0
 11 12  1  0
 12 13  1  0
  7 14  1  0
 14 15  2  0
 15 16  1  0
 16 17  2  0
 16 18  1  0
 18 19  1  0
 19 20  2  0
 20 21  1  0
 21 22  1  0
 22 23  3  0
 21 24  2  0
 24 25  1  0
 25 26  2  0
 25 27  1  0
 27 28  1  0
 28 29  1  0
 15 30  1  0
 30 31  2  0
 31 32  1  0
 31 33  1  0
 33 34  2  0
 34  4  1  0
 34 14  1  0
 26 19  1  0
 29 24  1  0
M  END
>  <smiles>  (1579) 
C23063-P201

>  <fragmenstein_outcome>  (1579) 
acceptable

>  <inchikey>  (1579) 
XZZQUZUXRPCSND-UHFFFAOYSA-N

>  <fragmenstein_mode>  (1579) 
expansion

>  <HIPPO Pose ID>  (1579) 
22259

>  <Energy>  (1579) 
81.170536

>  <fragmenstein_error>  (1579) 


>  <tags>  (1579) 
{'openbind_xx01zvns2b_c1_fragmenstein', 'fragmenstein_placed'}

>  <ref_pdb>  (1579) 
175

>  <scratch_subdir>  (1579) 
/opt/xchem-fragalysis-2/maxwin/BulkDock/SCRATCH/511028/C23063-P201

>  <alias>  (1579) 
CNCN1C(=O)[C@@](C)(OCCOC)c2c(C(=O)Nc3cc(C#N)c4c(c3)CNC4)cc(F)cc21

>  <HIPPO Compound ID>  (1579) 
23063

>  <fragmenstein_runtime>  (1579) 
4.645264

$$$$
COCCO[C@@]1(C)c2c(C(=O)Nc3ccc4c(c3)CNC4)cc(F)cc2[C@@]23CNN[C@@H]2CN=C[C@@H]31
     RDKit          3D

 35 40  0  0  0  0  0  0  0  0999 V2000
   -4.9968    7.4577   -9.9206 C   0  0  0  0  0  0  0  0  0  0  0  0
   -4.5787    7.1415  -11.2411 O   0  0  0  0  0  0  0  0  0  0  0  0
   -4.9077    8.1902  -12.1574 C   0  0  0  0  0  0  0  0  0  0  0  0
   -4.5398    7.7433  -13.5683 C   0  0  0  0  0  0  0  0  0  0  0  0
   -5.5806    6.9067  -14.0659 O   0  0  0  0  0  0  0  0  0  0  0  0
   -5.2659    6.0372  -15.1388 C   0  0  1  0  0  0  0  0  0  0  0  0
   -4.3509    4.9105  -14.6517 C   0  0  0  0  0  0  0  0  0  0  0  0
   -6.5582    5.4458  -15.7110 C   0  0  0  0  0  0  0  0  0  0  0  0
   -7.7318    5.0624  -15.0581 C   0  0  0  0  0  0  0  0  0  0  0  0
   -8.0300    5.4668  -13.6672 C   0  0  0  0  0  0  0  0  0  0  0  0
   -8.2570    6.5926  -13.4578 O   0  0  0  0  0  0  0  0  0  0  0  0
   -8.0360    4.2519  -12.7168 N   0  0  0  0  0  0  0  0  0  0  0  0
   -8.2229    4.1825  -11.3391 C   0  0  0  0  0  0  0  0  0  0  0  0
   -8.2173    5.3545  -10.5617 C   0  0  0  0  0  0  0  0  0  0  0  0
   -8.3945    5.3020   -9.1766 C   0  0  0  0  0  0  0  0  0  0  0  0
   -8.6219    4.0683   -8.6010 C   0  0  0  0  0  0  0  0  0  0  0  0
   -8.6418    2.9067   -9.3702 C   0  0  0  0  0  0  0  0  0  0  0  0
   -8.4152    2.9383  -10.7364 C   0  0  0  0  0  0  0  0  0  0  0  0
   -8.9132    1.7427   -8.4752 C   0  0  0  0  0  0  0  0  0  0  0  0
   -9.4368    2.3430   -7.2169 N   0  0  0  0  0  0  0  0  0  0  0  0
   -8.8711    3.7089   -7.1750 C   0  0  0  0  0  0  0  0  0  0  0  0
   -8.7695    4.4794  -15.7907 C   0  0  0  0  0  0  0  0  0  0  0  0
   -8.6385    4.3202  -17.1689 C   0  0  0  0  0  0  0  0  0  0  0  0
   -9.6532    3.7740  -17.8521 F   0  0  0  0  0  0  0  0  0  0  0  0
   -7.5072    4.7668  -17.8516 C   0  0  0  0  0  0  0  0  0  0  0  0
   -6.4758    5.3475  -17.1235 C   0  0  0  0  0  0  0  0  0  0  0  0
   -5.1868    5.9753  -17.6239 C   0  0  1  0  0  0  0  0  0  0  0  0
   -4.1444    4.9433  -18.0220 C   0  0  0  0  0  0  0  0  0  0  0  0
   -4.4019    4.7397  -19.4430 N   0  0  0  0  0  0  0  0  0  0  0  0
   -4.6562    6.0510  -19.9721 N   0  0  0  0  0  0  0  0  0  0  0  0
   -5.2007    6.8678  -18.8697 C   0  0  2  0  0  0  0  0  0  0  0  0
   -4.3112    8.1362  -18.6714 C   0  0  0  0  0  0  0  0  0  0  0  0
   -3.1935    7.9912  -17.6926 N   0  0  0  0  0  0  0  0  0  0  0  0
   -3.4825    7.3587  -16.6039 C   0  0  0  0  0  0  0  0  0  0  0  0
   -4.8594    6.8208  -16.3909 C   0  0  2  0  0  0  0  0  0  0  0  0
  1  2  1  0
  2  3  1  0
  3  4  1  0
  4  5  1  0
  5  6  1  0
  6  7  1  1
  6  8  1  0
  8  9  2  0
  9 10  1  0
 10 11  2  0
 10 12  1  0
 12 13  1  0
 13 14  2  0
 14 15  1  0
 15 16  2  0
 16 17  1  0
 17 18  2  0
 17 19  1  0
 19 20  1  0
 20 21  1  0
  9 22  1  0
 22 23  2  0
 23 24  1  0
 23 25  1  0
 25 26  2  0
 26 27  1  0
 27 28  1  6
 28 29  1  0
 29 30  1  0
 30 31  1  0
 31 32  1  1
 32 33  1  0
 33 34  2  0
 35 34  1  1
 35  6  1  0
 26  8  1  0
 31 27  1  0
 18 13  1  0
 35 27  1  0
 21 16  1  0
M  END
>  <smiles>  (1580) 
C23068-P201

>  <fragmenstein_outcome>  (1580) 
acceptable

>  <inchikey>  (1580) 
DAATVJSWFDZXMD-UHFFFAOYSA-N

>  <fragmenstein_mode>  (1580) 
expansion

>  <HIPPO Pose ID>  (1580) 
22260

>  <Energy>  (1580) 
184.870214

>  <fragmenstein_error>  (1580) 


>  <tags>  (1580) 
{'openbind_xx01zvns2b_c1_fragmenstein', 'fragmenstein_placed'}

>  <ref_pdb>  (1580) 
175

>  <scratch_subdir>  (1580) 
/opt/xchem-fragalysis-2/maxwin/BulkDock/SCRATCH/511028/C23068-P201

>  <alias>  (1580) 
COCCO[C@@]1(C)c2c(C(=O)Nc3ccc4c(c3)CNC4)cc(F)cc2[C@@]23CNN[C@@H]2CN=C[C@@H]31

>  <HIPPO Compound ID>  (1580) 
27384

>  <fragmenstein_runtime>  (1580) 
4.603642

$$$$
CCNN1C(=O)[C@@](C)(OCCOC)c2c(C(=O)Nc3ccc4c(c3)CNC4)cc(F)cc21
     RDKit          3D

 32 35  0  0  0  0  0  0  0  0999 V2000
   -5.4908    5.9958  -20.1777 C   0  0  0  0  0  0  0  0  0  0  0  0
   -4.2175    5.7690  -19.4069 C   0  0  0  0  0  0  0  0  0  0  0  0
   -4.4240    4.7625  -18.3758 N   0  0  0  0  0  0  0  0  0  0  0  0
   -5.0615    5.2674  -17.2429 N   0  0  0  0  0  0  0  0  0  0  0  0
   -4.3068    5.6799  -16.1334 C   0  0  0  0  0  0  0  0  0  0  0  0
   -3.1019    5.9059  -16.1325 O   0  0  0  0  0  0  0  0  0  0  0  0
   -5.2825    5.7511  -14.9200 C   0  0  1  0  0  0  0  0  0  0  0  0
   -4.8286    4.7508  -13.8521 C   0  0  0  0  0  0  0  0  0  0  0  0
   -5.4756    7.0690  -14.4436 O   0  0  0  0  0  0  0  0  0  0  0  0
   -4.3500    7.6947  -13.8272 C   0  0  0  0  0  0  0  0  0  0  0  0
   -4.7275    8.1459  -12.4164 C   0  0  0  0  0  0  0  0  0  0  0  0
   -4.6023    7.0454  -11.5106 O   0  0  0  0  0  0  0  0  0  0  0  0
   -5.0301    7.4005  -10.2019 C   0  0  0  0  0  0  0  0  0  0  0  0
   -6.5892    5.2962  -15.5465 C   0  0  0  0  0  0  0  0  0  0  0  0
   -7.8415    5.1055  -14.9714 C   0  0  0  0  0  0  0  0  0  0  0  0
   -8.1165    5.5328  -13.5852 C   0  0  0  0  0  0  0  0  0  0  0  0
   -8.1154    6.6729  -13.3394 O   0  0  0  0  0  0  0  0  0  0  0  0
   -8.2938    4.3105  -12.6608 N   0  0  0  0  0  0  0  0  0  0  0  0
   -8.4082    4.2334  -11.2748 C   0  0  0  0  0  0  0  0  0  0  0  0
   -8.3197    5.3878  -10.4789 C   0  0  0  0  0  0  0  0  0  0  0  0
   -8.4028    5.3083   -9.0856 C   0  0  0  0  0  0  0  0  0  0  0  0
   -8.6085    4.0665   -8.5156 C   0  0  0  0  0  0  0  0  0  0  0  0
   -8.7069    2.9241   -9.3021 C   0  0  0  0  0  0  0  0  0  0  0  0
   -8.5894    2.9827  -10.6815 C   0  0  0  0  0  0  0  0  0  0  0  0
   -8.9067    1.7370   -8.4227 C   0  0  0  0  0  0  0  0  0  0  0  0
   -9.1962    2.2841   -7.0712 N   0  0  0  0  0  0  0  0  0  0  0  0
   -8.7492    3.6916   -7.0800 C   0  0  0  0  0  0  0  0  0  0  0  0
   -8.8729    4.5653  -15.7406 C   0  0  0  0  0  0  0  0  0  0  0  0
   -8.6470    4.2651  -17.0852 C   0  0  0  0  0  0  0  0  0  0  0  0
   -9.6568    3.7645  -17.8091 F   0  0  0  0  0  0  0  0  0  0  0  0
   -7.4078    4.4802  -17.6838 C   0  0  0  0  0  0  0  0  0  0  0  0
   -6.3888    4.9894  -16.8956 C   0  0  0  0  0  0  0  0  0  0  0  0
  1  2  1  0
  2  3  1  0
  3  4  1  0
  4  5  1  0
  5  6  2  0
  5  7  1  0
  7  8  1  1
  7  9  1  0
  9 10  1  0
 10 11  1  0
 11 12  1  0
 12 13  1  0
  7 14  1  0
 14 15  2  0
 15 16  1  0
 16 17  2  0
 16 18  1  0
 18 19  1  0
 19 20  2  0
 20 21  1  0
 21 22  2  0
 22 23  1  0
 23 24  2  0
 23 25  1  0
 25 26  1  0
 26 27  1  0
 15 28  1  0
 28 29  2  0
 29 30  1  0
 29 31  1  0
 31 32  2  0
 32  4  1  0
 32 14  1  0
 24 19  1  0
 27 22  1  0
M  END
>  <smiles>  (1581) 
C23071-P201

>  <fragmenstein_outcome>  (1581) 
acceptable

>  <inchikey>  (1581) 
DNZCCZIPFHSVFG-UHFFFAOYSA-N

>  <fragmenstein_mode>  (1581) 
expansion

>  <HIPPO Pose ID>  (1581) 
22262

>  <Energy>  (1581) 
132.788169

>  <fragmenstein_error>  (1581) 


>  <tags>  (1581) 
{'openbind_xx01zvns2b_c1_fragmenstein', 'fragmenstein_placed'}

>  <ref_pdb>  (1581) 
175

>  <scratch_subdir>  (1581) 
/opt/xchem-fragalysis-2/maxwin/BulkDock/SCRATCH/511028/C23071-P201

>  <alias>  (1581) 
CCNN1C(=O)[C@@](C)(OCCOC)c2c(C(=O)Nc3ccc4c(c3)CNC4)cc(F)cc21

>  <HIPPO Compound ID>  (1581) 
38463

>  <fragmenstein_runtime>  (1581) 
7.125476

$$$$
COCCO[C@]1(C)C(=O)[C@]2(CCCNC2)c2cc(F)cc(C(=O)Nc3ccc4c(c3)CNC4)c21
     RDKit          3D

 34 38  0  0  0  0  0  0  0  0999 V2000
   -5.0413    7.4297  -10.2219 C   0  0  0  0  0  0  0  0  0  0  0  0
   -4.6096    7.0292  -11.5161 O   0  0  0  0  0  0  0  0  0  0  0  0
   -4.6872    8.1115  -12.4499 C   0  0  0  0  0  0  0  0  0  0  0  0
   -4.2925    7.6143  -13.8402 C   0  0  0  0  0  0  0  0  0  0  0  0
   -5.4204    6.9906  -14.4545 O   0  0  0  0  0  0  0  0  0  0  0  0
   -5.2119    5.7008  -15.0025 C   0  0  2  0  0  0  0  0  0  0  0  0
   -4.7478    4.6648  -13.9799 C   0  0  0  0  0  0  0  0  0  0  0  0
   -4.2508    5.7483  -16.2225 C   0  0  0  0  0  0  0  0  0  0  0  0
   -3.0271    5.8235  -16.1556 O   0  0  0  0  0  0  0  0  0  0  0  0
   -5.0478    5.7939  -17.5300 C   0  0  1  0  0  0  0  0  0  0  0  0
   -5.1910    7.2958  -17.8513 C   0  0  0  0  0  0  0  0  0  0  0  0
   -5.7060    7.5281  -19.2575 C   0  0  0  0  0  0  0  0  0  0  0  0
   -4.8786    6.7879  -20.2927 C   0  0  0  0  0  0  0  0  0  0  0  0
   -4.8566    5.3721  -19.9701 N   0  0  0  0  0  0  0  0  0  0  0  0
   -4.2776    5.1012  -18.6622 C   0  0  0  0  0  0  0  0  0  0  0  0
   -6.3769    5.2068  -17.0761 C   0  0  0  0  0  0  0  0  0  0  0  0
   -7.4201    4.7046  -17.8473 C   0  0  0  0  0  0  0  0  0  0  0  0
   -8.6073    4.3291  -17.2132 C   0  0  0  0  0  0  0  0  0  0  0  0
   -9.6286    3.8509  -17.9364 F   0  0  0  0  0  0  0  0  0  0  0  0
   -8.7875    4.4921  -15.8399 C   0  0  0  0  0  0  0  0  0  0  0  0
   -7.7420    4.9956  -15.0674 C   0  0  0  0  0  0  0  0  0  0  0  0
   -8.0250    5.4178  -13.6777 C   0  0  0  0  0  0  0  0  0  0  0  0
   -8.0835    6.5615  -13.4552 O   0  0  0  0  0  0  0  0  0  0  0  0
   -8.1766    4.2069  -12.7351 N   0  0  0  0  0  0  0  0  0  0  0  0
   -8.3322    4.1509  -11.3516 C   0  0  0  0  0  0  0  0  0  0  0  0
   -8.2397    5.3198  -10.5754 C   0  0  0  0  0  0  0  0  0  0  0  0
   -8.3559    5.2728   -9.1831 C   0  0  0  0  0  0  0  0  0  0  0  0
   -8.5883    4.0464   -8.5917 C   0  0  0  0  0  0  0  0  0  0  0  0
   -8.6913    2.8900   -9.3571 C   0  0  0  0  0  0  0  0  0  0  0  0
   -8.5521    2.9180  -10.7366 C   0  0  0  0  0  0  0  0  0  0  0  0
   -8.9137    1.7237   -8.4552 C   0  0  0  0  0  0  0  0  0  0  0  0
   -9.2018    2.2982   -7.1156 N   0  0  0  0  0  0  0  0  0  0  0  0
   -8.7494    3.7035   -7.1503 C   0  0  0  0  0  0  0  0  0  0  0  0
   -6.5143    5.2848  -15.6707 C   0  0  0  0  0  0  0  0  0  0  0  0
  1  2  1  0
  2  3  1  0
  3  4  1  0
  4  5  1  0
  5  6  1  0
  6  7  1  1
  6  8  1  0
  8  9  2  0
  8 10  1  0
 10 11  1  6
 11 12  1  0
 12 13  1  0
 13 14  1  0
 14 15  1  0
 10 16  1  0
 16 17  2  0
 17 18  1  0
 18 19  1  0
 18 20  2  0
 20 21  1  0
 21 22  1  0
 22 23  2  0
 22 24  1  0
 24 25  1  0
 25 26  2  0
 26 27  1  0
 27 28  2  0
 28 29  1  0
 29 30  2  0
 29 31  1  0
 31 32  1  0
 32 33  1  0
 21 34  2  0
 34  6  1  0
 15 10  1  0
 34 16  1  0
 30 25  1  0
 33 28  1  0
M  END
>  <smiles>  (1582) 
C23076-P201

>  <fragmenstein_outcome>  (1582) 
acceptable

>  <inchikey>  (1582) 
KCYKFEBSHQOQQC-UHFFFAOYSA-N

>  <fragmenstein_mode>  (1582) 
expansion

>  <HIPPO Pose ID>  (1582) 
22264

>  <Energy>  (1582) 
137.250183

>  <fragmenstein_error>  (1582) 


>  <tags>  (1582) 
{'openbind_xx01zvns2b_c1_fragmenstein', 'fragmenstein_placed'}

>  <ref_pdb>  (1582) 
175

>  <scratch_subdir>  (1582) 
/opt/xchem-fragalysis-2/maxwin/BulkDock/SCRATCH/511028/C23076-P201

>  <alias>  (1582) 
COCCO[C@]1(C)C(=O)[C@]2(CCCNC2)c2cc(F)cc(C(=O)Nc3ccc4c(c3)CNC4)c21

>  <HIPPO Compound ID>  (1582) 
23076

>  <fragmenstein_runtime>  (1582) 
7.262092

$$$$
COCCO[C@]1(C)C(=O)N(N)c2cc(F)cc(C(=O)Nc3ccc4c(c3)CNC4)c21
     RDKit          3D

 30 33  0  0  0  0  0  0  0  0999 V2000
   -4.9433    7.3806  -10.5568 C   0  0  0  0  0  0  0  0  0  0  0  0
   -4.5948    7.0007  -11.8850 O   0  0  0  0  0  0  0  0  0  0  0  0
   -4.7942    8.0783  -12.8064 C   0  0  0  0  0  0  0  0  0  0  0  0
   -4.4234    7.6422  -14.2307 C   0  0  0  0  0  0  0  0  0  0  0  0
   -5.5362    6.9960  -14.8540 O   0  0  0  0  0  0  0  0  0  0  0  0
   -5.3122    5.7146  -15.4216 C   0  0  2  0  0  0  0  0  0  0  0  0
   -4.6846    4.7304  -14.4306 C   0  0  0  0  0  0  0  0  0  0  0  0
   -4.4980    5.7378  -16.7752 C   0  0  0  0  0  0  0  0  0  0  0  0
   -3.3470    6.1301  -16.9295 O   0  0  0  0  0  0  0  0  0  0  0  0
   -5.3617    5.2480  -17.7825 N   0  0  0  0  0  0  0  0  0  0  0  0
   -5.0080    5.1110  -19.1287 N   0  0  0  0  0  0  0  0  0  0  0  0
   -6.6158    4.9167  -17.2744 C   0  0  0  0  0  0  0  0  0  0  0  0
   -7.7049    4.4075  -17.9600 C   0  0  0  0  0  0  0  0  0  0  0  0
   -8.8627    4.1625  -17.2330 C   0  0  0  0  0  0  0  0  0  0  0  0
   -9.9387    3.6681  -17.8550 F   0  0  0  0  0  0  0  0  0  0  0  0
   -8.9433    4.4384  -15.8678 C   0  0  0  0  0  0  0  0  0  0  0  0
   -7.8406    4.9784  -15.2036 C   0  0  0  0  0  0  0  0  0  0  0  0
   -8.0073    5.4305  -13.8099 C   0  0  0  0  0  0  0  0  0  0  0  0
   -8.0965    6.5742  -13.6002 O   0  0  0  0  0  0  0  0  0  0  0  0
   -7.9977    4.2338  -12.8381 N   0  0  0  0  0  0  0  0  0  0  0  0
   -8.1841    4.1872  -11.4597 C   0  0  0  0  0  0  0  0  0  0  0  0
   -8.1612    5.3690  -10.6990 C   0  0  0  0  0  0  0  0  0  0  0  0
   -8.3284    5.3347   -9.3127 C   0  0  0  0  0  0  0  0  0  0  0  0
   -8.5556    4.1090   -8.7190 C   0  0  0  0  0  0  0  0  0  0  0  0
   -8.5890    2.9373   -9.4715 C   0  0  0  0  0  0  0  0  0  0  0  0
   -8.3791    2.9516  -10.8402 C   0  0  0  0  0  0  0  0  0  0  0  0
   -8.8649    1.7865   -8.5587 C   0  0  0  0  0  0  0  0  0  0  0  0
   -9.3681    2.4074   -7.3022 N   0  0  0  0  0  0  0  0  0  0  0  0
   -8.7965    3.7711   -7.2857 C   0  0  0  0  0  0  0  0  0  0  0  0
   -6.6593    5.1941  -15.9035 C   0  0  0  0  0  0  0  0  0  0  0  0
  1  2  1  0
  2  3  1  0
  3  4  1  0
  4  5  1  0
  5  6  1  0
  6  7  1  1
  6  8  1  0
  8  9  2  0
  8 10  1  0
 10 11  1  0
 10 12  1  0
 12 13  2  0
 13 14  1  0
 14 15  1  0
 14 16  2  0
 16 17  1  0
 17 18  1  0
 18 19  2  0
 18 20  1  0
 20 21  1  0
 21 22  2  0
 22 23  1  0
 23 24  2  0
 24 25  1  0
 25 26  2  0
 25 27  1  0
 27 28  1  0
 28 29  1  0
 17 30  2  0
 30  6  1  0
 30 12  1  0
 26 21  1  0
 29 24  1  0
M  END
>  <smiles>  (1583) 
C22892-P201

>  <fragmenstein_outcome>  (1583) 
acceptable

>  <inchikey>  (1583) 
QOPDGXBUTLNJBC-UHFFFAOYSA-N

>  <fragmenstein_mode>  (1583) 
expansion

>  <HIPPO Pose ID>  (1583) 
22267

>  <Energy>  (1583) 
141.368546

>  <fragmenstein_error>  (1583) 


>  <tags>  (1583) 
{'openbind_xx01zvns2b_c1_fragmenstein', 'fragmenstein_placed'}

>  <ref_pdb>  (1583) 
175

>  <scratch_subdir>  (1583) 
/opt/xchem-fragalysis-2/maxwin/BulkDock/SCRATCH/511028/C22892-P201

>  <alias>  (1583) 
COCCO[C@]1(C)C(=O)N(N)c2cc(F)cc(C(=O)Nc3ccc4c(c3)CNC4)c21

>  <HIPPO Compound ID>  (1583) 
22892

>  <fragmenstein_runtime>  (1583) 
3.6503

$$$$
COCCO[C@]1(C)C(=O)[C@@]2(CCNC2)c2cc(F)cc(C(=O)Nc3ccc4c(c3)CNC4)c21
     RDKit          3D

 33 37  0  0  0  0  0  0  0  0999 V2000
   -4.9954    7.3557  -10.3353 C   0  0  0  0  0  0  0  0  0  0  0  0
   -4.5779    7.0129  -11.6518 O   0  0  0  0  0  0  0  0  0  0  0  0
   -4.7262    8.1181  -12.5483 C   0  0  0  0  0  0  0  0  0  0  0  0
   -4.3285    7.7001  -13.9659 C   0  0  0  0  0  0  0  0  0  0  0  0
   -5.4424    7.0975  -14.6269 O   0  0  0  0  0  0  0  0  0  0  0  0
   -5.2591    5.7863  -15.1321 C   0  0  2  0  0  0  0  0  0  0  0  0
   -4.7171    4.7705  -14.1256 C   0  0  0  0  0  0  0  0  0  0  0  0
   -4.3791    5.8245  -16.4111 C   0  0  0  0  0  0  0  0  0  0  0  0
   -3.1607    5.9822  -16.4249 O   0  0  0  0  0  0  0  0  0  0  0  0
   -5.2469    5.7128  -17.6725 C   0  0  2  0  0  0  0  0  0  0  0  0
   -4.5887    4.8719  -18.7567 C   0  0  0  0  0  0  0  0  0  0  0  0
   -4.0031    5.8883  -19.7174 C   0  0  0  0  0  0  0  0  0  0  0  0
   -4.9850    6.9682  -19.6985 N   0  0  0  0  0  0  0  0  0  0  0  0
   -5.3646    7.1170  -18.2882 C   0  0  0  0  0  0  0  0  0  0  0  0
   -6.5476    5.1975  -17.1038 C   0  0  0  0  0  0  0  0  0  0  0  0
   -7.6373    4.6813  -17.7964 C   0  0  0  0  0  0  0  0  0  0  0  0
   -8.7743    4.3116  -17.0808 C   0  0  0  0  0  0  0  0  0  0  0  0
   -9.8265    3.8026  -17.7343 F   0  0  0  0  0  0  0  0  0  0  0  0
   -8.8632    4.5032  -15.7028 C   0  0  0  0  0  0  0  0  0  0  0  0
   -7.7776    5.0434  -15.0120 C   0  0  0  0  0  0  0  0  0  0  0  0
   -7.9632    5.4587  -13.6030 C   0  0  0  0  0  0  0  0  0  0  0  0
   -7.9085    6.5973  -13.3557 O   0  0  0  0  0  0  0  0  0  0  0  0
   -8.1099    4.2391  -12.6707 N   0  0  0  0  0  0  0  0  0  0  0  0
   -8.3085    4.1716  -11.2938 C   0  0  0  0  0  0  0  0  0  0  0  0
   -8.2591    5.3355  -10.5067 C   0  0  0  0  0  0  0  0  0  0  0  0
   -8.3974    5.2729   -9.1171 C   0  0  0  0  0  0  0  0  0  0  0  0
   -8.6176    4.0370   -8.5413 C   0  0  0  0  0  0  0  0  0  0  0  0
   -8.6876    2.8868   -9.3196 C   0  0  0  0  0  0  0  0  0  0  0  0
   -8.5183    2.9292  -10.6949 C   0  0  0  0  0  0  0  0  0  0  0  0
   -8.9074    1.7079   -8.4339 C   0  0  0  0  0  0  0  0  0  0  0  0
   -9.2283    2.2648   -7.0935 N   0  0  0  0  0  0  0  0  0  0  0  0
   -8.7919    3.6753   -7.1060 C   0  0  0  0  0  0  0  0  0  0  0  0
   -6.5960    5.3337  -15.7012 C   0  0  0  0  0  0  0  0  0  0  0  0
  1  2  1  0
  2  3  1  0
  3  4  1  0
  4  5  1  0
  5  6  1  0
  6  7  1  1
  6  8  1  0
  8  9  2  0
  8 10  1  0
 10 11  1  6
 11 12  1  0
 12 13  1  0
 13 14  1  0
 10 15  1  0
 15 16  2  0
 16 17  1  0
 17 18  1  0
 17 19  2  0
 19 20  1  0
 20 21  1  0
 21 22  2  0
 21 23  1  0
 23 24  1  0
 24 25  2  0
 25 26  1  0
 26 27  2  0
 27 28  1  0
 28 29  2  0
 28 30  1  0
 30 31  1  0
 31 32  1  0
 20 33  2  0
 33  6  1  0
 14 10  1  0
 33 15  1  0
 29 24  1  0
 32 27  1  0
M  END
>  <smiles>  (1584) 
C23086-P201

>  <fragmenstein_outcome>  (1584) 
acceptable

>  <inchikey>  (1584) 
AQSSZTNNJQAZPK-UHFFFAOYSA-N

>  <fragmenstein_mode>  (1584) 
expansion

>  <HIPPO Pose ID>  (1584) 
22269

>  <Energy>  (1584) 
131.150379

>  <fragmenstein_error>  (1584) 


>  <tags>  (1584) 
{'openbind_xx01zvns2b_c1_fragmenstein', 'fragmenstein_placed'}

>  <ref_pdb>  (1584) 
175

>  <scratch_subdir>  (1584) 
/opt/xchem-fragalysis-2/maxwin/BulkDock/SCRATCH/511028/C23086-P201

>  <alias>  (1584) 
COCCO[C@]1(C)C(=O)[C@@]2(CCNC2)c2cc(F)cc(C(=O)Nc3ccc4c(c3)CNC4)c21

>  <HIPPO Compound ID>  (1584) 
23086

>  <fragmenstein_runtime>  (1584) 
3.998275

$$$$
C[C@H](F)Cc1c(F)cc(C(=O)Nc2cnc3c(c2)CNC3)c2cn[nH]c12
     RDKit          3D

 26 29  0  0  0  0  0  0  0  0999 V2000
   -4.4756    5.0371  -19.5227 C   0  0  0  0  0  0  0  0  0  0  0  0
   -5.8010    5.7486  -19.3522 C   0  0  2  0  0  0  0  0  0  0  0  0
   -5.5919    6.8769  -18.6106 F   0  0  0  0  0  0  0  0  0  0  0  0
   -6.9381    4.9131  -18.7392 C   0  0  0  0  0  0  0  0  0  0  0  0
   -7.0609    4.8106  -17.2410 C   0  0  0  0  0  0  0  0  0  0  0  0
   -8.3087    4.3955  -16.7071 C   0  0  0  0  0  0  0  0  0  0  0  0
   -9.2786    3.9788  -17.5403 F   0  0  0  0  0  0  0  0  0  0  0  0
   -8.6240    4.4995  -15.3603 C   0  0  0  0  0  0  0  0  0  0  0  0
   -7.6665    5.0059  -14.4876 C   0  0  0  0  0  0  0  0  0  0  0  0
   -8.0086    5.3916  -13.1163 C   0  0  0  0  0  0  0  0  0  0  0  0
   -7.9800    6.5220  -12.8398 O   0  0  0  0  0  0  0  0  0  0  0  0
   -8.2618    4.1597  -12.2397 N   0  0  0  0  0  0  0  0  0  0  0  0
   -8.4339    4.0499  -10.8692 C   0  0  0  0  0  0  0  0  0  0  0  0
   -8.3258    5.1682  -10.0261 C   0  0  0  0  0  0  0  0  0  0  0  0
   -8.4595    5.1340   -8.6770 N   0  0  0  0  0  0  0  0  0  0  0  0
   -8.7255    3.9148   -8.1872 C   0  0  0  0  0  0  0  0  0  0  0  0
   -8.8548    2.7614   -8.9452 C   0  0  0  0  0  0  0  0  0  0  0  0
   -8.6926    2.8059  -10.3117 C   0  0  0  0  0  0  0  0  0  0  0  0
   -9.1372    1.6191   -8.0411 C   0  0  0  0  0  0  0  0  0  0  0  0
   -9.6356    2.2311   -6.7842 N   0  0  0  0  0  0  0  0  0  0  0  0
   -8.9937    3.5719   -6.7470 C   0  0  0  0  0  0  0  0  0  0  0  0
   -6.3753    5.3110  -14.9422 C   0  0  0  0  0  0  0  0  0  0  0  0
   -5.1836    5.7939  -14.3590 C   0  0  0  0  0  0  0  0  0  0  0  0
   -4.2203    5.9897  -15.2577 N   0  0  0  0  0  0  0  0  0  0  0  0
   -4.8326    5.7229  -16.4183 N   0  0  0  0  0  0  0  0  0  0  0  0
   -6.1027    5.2208  -16.3002 C   0  0  0  0  0  0  0  0  0  0  0  0
  2  1  1  1
  2  3  1  0
  2  4  1  0
  4  5  1  0
  5  6  2  0
  6  7  1  0
  6  8  1  0
  8  9  2  0
  9 10  1  0
 10 11  2  0
 10 12  1  0
 12 13  1  0
 13 14  2  0
 14 15  1  0
 15 16  2  0
 16 17  1  0
 17 18  2  0
 17 19  1  0
 19 20  1  0
 20 21  1  0
  9 22  1  0
 22 23  1  0
 23 24  2  0
 24 25  1  0
 25 26  1  0
 26  5  1  0
 18 13  1  0
 26 22  2  0
 21 16  1  0
M  END
>  <smiles>  (1585) 
C23196-P201

>  <fragmenstein_outcome>  (1585) 
acceptable

>  <inchikey>  (1585) 
MTGXWOMWDJZIRG-UHFFFAOYSA-N

>  <fragmenstein_mode>  (1585) 
expansion

>  <HIPPO Pose ID>  (1585) 
22279

>  <Energy>  (1585) 
96.601632

>  <fragmenstein_error>  (1585) 


>  <tags>  (1585) 
{'openbind_xx01zvns2b_c1_fragmenstein', 'fragmenstein_placed'}

>  <ref_pdb>  (1585) 
175

>  <scratch_subdir>  (1585) 
/opt/xchem-fragalysis-2/maxwin/BulkDock/SCRATCH/511028/C23196-P201

>  <alias>  (1585) 
C[C@H](F)Cc1c(F)cc(C(=O)Nc2cnc3c(c2)CNC3)c2cn[nH]c12

>  <HIPPO Compound ID>  (1585) 
32628

>  <fragmenstein_runtime>  (1585) 
7.126285

$$$$
N#Cc1nc2c(cc1NC(=O)c1cc(F)cc3[nH]ncc13)CNC2
     RDKit          3D

 24 27  0  0  0  0  0  0  0  0999 V2000
   -8.2867    7.7469  -11.0392 N   0  0  0  0  0  0  0  0  0  0  0  0
   -8.2358    6.6128  -10.7807 C   0  0  0  0  0  0  0  0  0  0  0  0
   -8.2692    5.2364  -10.3832 C   0  0  0  0  0  0  0  0  0  0  0  0
   -8.4053    5.1353   -9.0244 N   0  0  0  0  0  0  0  0  0  0  0  0
   -8.6435    3.9066   -8.5587 C   0  0  0  0  0  0  0  0  0  0  0  0
   -8.7696    2.7840   -9.3478 C   0  0  0  0  0  0  0  0  0  0  0  0
   -8.6150    2.8842  -10.7180 C   0  0  0  0  0  0  0  0  0  0  0  0
   -8.3412    4.1417  -11.2754 C   0  0  0  0  0  0  0  0  0  0  0  0
   -8.1555    4.1585  -12.6730 N   0  0  0  0  0  0  0  0  0  0  0  0
   -7.5994    5.2658  -13.5994 C   0  0  0  0  0  0  0  0  0  0  0  0
   -7.1377    6.3056  -13.3418 O   0  0  0  0  0  0  0  0  0  0  0  0
   -7.6913    4.9131  -15.0397 C   0  0  0  0  0  0  0  0  0  0  0  0
   -8.8788    4.4365  -15.6115 C   0  0  0  0  0  0  0  0  0  0  0  0
   -8.9574    4.2289  -16.9867 C   0  0  0  0  0  0  0  0  0  0  0  0
  -10.1089    3.7959  -17.5142 F   0  0  0  0  0  0  0  0  0  0  0  0
   -7.8869    4.4770  -17.8411 C   0  0  0  0  0  0  0  0  0  0  0  0
   -6.7159    4.9541  -17.2521 C   0  0  0  0  0  0  0  0  0  0  0  0
   -5.5044    5.2899  -17.7961 N   0  0  0  0  0  0  0  0  0  0  0  0
   -4.6102    5.7422  -16.8944 N   0  0  0  0  0  0  0  0  0  0  0  0
   -5.2761    5.6793  -15.7368 C   0  0  0  0  0  0  0  0  0  0  0  0
   -6.5927    5.1836  -15.8848 C   0  0  0  0  0  0  0  0  0  0  0  0
   -9.0255    1.6086   -8.4710 C   0  0  0  0  0  0  0  0  0  0  0  0
   -9.4833    2.1767   -7.1758 N   0  0  0  0  0  0  0  0  0  0  0  0
   -8.8835    3.5318   -7.1225 C   0  0  0  0  0  0  0  0  0  0  0  0
  1  2  3  0
  2  3  1  0
  3  4  2  0
  4  5  1  0
  5  6  2  0
  6  7  1  0
  7  8  2  0
  8  9  1  0
  9 10  1  0
 10 11  2  0
 10 12  1  0
 12 13  2  0
 13 14  1  0
 14 15  1  0
 14 16  2  0
 16 17  1  0
 17 18  1  0
 18 19  1  0
 19 20  2  0
 20 21  1  0
  6 22  1  0
 22 23  1  0
 23 24  1  0
  8  3  1  0
 21 12  1  0
 24  5  1  0
 21 17  2  0
M  END
>  <smiles>  (1586) 
C23202-P201

>  <fragmenstein_outcome>  (1586) 
acceptable

>  <inchikey>  (1586) 
BWDQQMJYWHQDFM-UHFFFAOYSA-N

>  <fragmenstein_mode>  (1586) 
expansion

>  <HIPPO Pose ID>  (1586) 
22280

>  <Energy>  (1586) 
121.61074

>  <fragmenstein_error>  (1586) 


>  <tags>  (1586) 
{'openbind_xx01zvns2b_c1_fragmenstein', 'fragmenstein_placed'}

>  <ref_pdb>  (1586) 
175

>  <scratch_subdir>  (1586) 
/opt/xchem-fragalysis-2/maxwin/BulkDock/SCRATCH/511028/C23202-P201

>  <alias>  (1586) 
N#Cc1nc2c(cc1NC(=O)c1cc(F)cc3[nH]ncc13)CNC2

>  <HIPPO Compound ID>  (1586) 
23202

>  <fragmenstein_runtime>  (1586) 
3.440657

$$$$
Cn1c2cc(F)cc(C(=O)Nc3cnc4c(c3)CNC4)c2c(OCCCO)[n+]1[O-]
     RDKit          3D

 29 32  0  0  0  0  0  0  0  0999 V2000
   -5.1459    5.3847  -19.0620 C   0  0  0  0  0  0  0  0  0  0  0  0
   -5.6008    5.3915  -17.6958 N   0  0  0  0  0  0  0  0  0  0  0  0
   -6.8427    4.9989  -17.2486 C   0  0  0  0  0  0  0  0  0  0  0  0
   -7.9554    4.4677  -17.9061 C   0  0  0  0  0  0  0  0  0  0  0  0
   -9.0757    4.1792  -17.1343 C   0  0  0  0  0  0  0  0  0  0  0  0
  -10.1608    3.6817  -17.7367 F   0  0  0  0  0  0  0  0  0  0  0  0
   -9.1159    4.4148  -15.7692 C   0  0  0  0  0  0  0  0  0  0  0  0
   -8.0098    4.9770  -15.1307 C   0  0  0  0  0  0  0  0  0  0  0  0
   -8.1209    5.4014  -13.7200 C   0  0  0  0  0  0  0  0  0  0  0  0
   -8.0886    6.5433  -13.4829 O   0  0  0  0  0  0  0  0  0  0  0  0
   -8.2048    4.1859  -12.7744 N   0  0  0  0  0  0  0  0  0  0  0  0
   -8.3568    4.1244  -11.3909 C   0  0  0  0  0  0  0  0  0  0  0  0
   -8.2797    5.2729  -10.5888 C   0  0  0  0  0  0  0  0  0  0  0  0
   -8.3905    5.2834   -9.2348 N   0  0  0  0  0  0  0  0  0  0  0  0
   -8.6057    4.0736   -8.6903 C   0  0  0  0  0  0  0  0  0  0  0  0
   -8.7116    2.8880   -9.3988 C   0  0  0  0  0  0  0  0  0  0  0  0
   -8.5685    2.8943  -10.7728 C   0  0  0  0  0  0  0  0  0  0  0  0
   -8.9572    1.7671   -8.4487 C   0  0  0  0  0  0  0  0  0  0  0  0
   -9.3988    2.4143   -7.1837 N   0  0  0  0  0  0  0  0  0  0  0  0
   -8.8103    3.7779   -7.2291 C   0  0  0  0  0  0  0  0  0  0  0  0
   -6.8274    5.2631  -15.8541 C   0  0  0  0  0  0  0  0  0  0  0  0
   -5.5347    5.8185  -15.4596 C   0  0  0  0  0  0  0  0  0  0  0  0
   -5.2134    6.1281  -14.1811 O   0  0  0  0  0  0  0  0  0  0  0  0
   -4.3619    7.2586  -14.0253 C   0  0  0  0  0  0  0  0  0  0  0  0
   -4.6862    7.9131  -12.6823 C   0  0  0  0  0  0  0  0  0  0  0  0
   -4.5117    6.9640  -11.5036 C   0  0  0  0  0  0  0  0  0  0  0  0
   -4.7795    7.6599  -10.2911 O   0  0  0  0  0  0  0  0  0  0  0  0
   -4.7799    5.8776  -16.5830 N   0  0  0  0  0  0  0  0  0  0  0  0
   -3.5914    6.2372  -16.7827 O   0  0  0  0  0  0  0  0  0  0  0  0
  1  2  1  0
  2  3  1  0
  3  4  2  0
  4  5  1  0
  5  6  1  0
  5  7  2  0
  7  8  1  0
  8  9  1  0
  9 10  2  0
  9 11  1  0
 11 12  1  0
 12 13  2  0
 13 14  1  0
 14 15  2  0
 15 16  1  0
 16 17  2  0
 16 18  1  0
 18 19  1  0
 19 20  1  0
  8 21  2  0
 21 22  1  0
 22 23  1  0
 23 24  1  0
 24 25  1  0
 25 26  1  0
 26 27  1  0
 22 28  2  0
 28 29  1  0
 28  2  1  0
 21  3  1  0
 17 12  1  0
 20 15  1  0
M  CHG  2  28   1  29  -1
M  END
>  <smiles>  (1587) 
C23220-P201

>  <fragmenstein_outcome>  (1587) 
acceptable

>  <inchikey>  (1587) 
NAJAIOLHEKEAJJ-UHFFFAOYSA-N

>  <fragmenstein_mode>  (1587) 
expansion

>  <HIPPO Pose ID>  (1587) 
22281

>  <Energy>  (1587) 
95.570527

>  <fragmenstein_error>  (1587) 


>  <tags>  (1587) 
{'openbind_xx01zvns2b_c1_fragmenstein', 'fragmenstein_placed'}

>  <ref_pdb>  (1587) 
175

>  <scratch_subdir>  (1587) 
/opt/xchem-fragalysis-2/maxwin/BulkDock/SCRATCH/511028/C23220-P201

>  <alias>  (1587) 
Cn1c2cc(F)cc(C(=O)Nc3cnc4c(c3)CNC4)c2c(OCCCO)[n+]1[O-]

>  <HIPPO Compound ID>  (1587) 
23220

>  <fragmenstein_runtime>  (1587) 
3.551215

$$$$
Cc1c2c(C(=O)Nc3cnc4c(c3)CNC4)cc(F)cc2n(OC(C)C)[n+]1[O-]
     RDKit          3D

 28 31  0  0  0  0  0  0  0  0999 V2000
   -5.2233    5.3829  -13.0323 C   0  0  0  0  0  0  0  0  0  0  0  0
   -5.4368    5.3846  -14.4814 C   0  0  0  0  0  0  0  0  0  0  0  0
   -6.6018    5.0974  -15.3036 C   0  0  0  0  0  0  0  0  0  0  0  0
   -7.9596    4.8576  -14.9802 C   0  0  0  0  0  0  0  0  0  0  0  0
   -8.4109    5.2316  -13.6283 C   0  0  0  0  0  0  0  0  0  0  0  0
   -8.6786    6.3494  -13.4352 O   0  0  0  0  0  0  0  0  0  0  0  0
   -8.3476    4.0401  -12.6595 N   0  0  0  0  0  0  0  0  0  0  0  0
   -8.5023    3.9893  -11.2774 C   0  0  0  0  0  0  0  0  0  0  0  0
   -8.4931    5.1511  -10.4905 C   0  0  0  0  0  0  0  0  0  0  0  0
   -8.5620    5.1692   -9.1328 N   0  0  0  0  0  0  0  0  0  0  0  0
   -8.6990    3.9566   -8.5710 C   0  0  0  0  0  0  0  0  0  0  0  0
   -8.7451    2.7627   -9.2657 C   0  0  0  0  0  0  0  0  0  0  0  0
   -8.6118    2.7589  -10.6408 C   0  0  0  0  0  0  0  0  0  0  0  0
   -8.9053    1.6340   -8.3124 C   0  0  0  0  0  0  0  0  0  0  0  0
   -9.2192    2.2454   -6.9946 N   0  0  0  0  0  0  0  0  0  0  0  0
   -8.8258    3.6712   -7.1007 C   0  0  0  0  0  0  0  0  0  0  0  0
   -8.8751    4.4739  -15.9538 C   0  0  0  0  0  0  0  0  0  0  0  0
   -8.4578    4.3710  -17.2735 C   0  0  0  0  0  0  0  0  0  0  0  0
   -9.3653    3.9925  -18.1848 F   0  0  0  0  0  0  0  0  0  0  0  0
   -7.1524    4.6891  -17.6788 C   0  0  0  0  0  0  0  0  0  0  0  0
   -6.2387    5.0627  -16.6798 C   0  0  0  0  0  0  0  0  0  0  0  0
   -4.9040    5.4443  -16.6948 N   0  0  0  0  0  0  0  0  0  0  0  0
   -4.0616    5.3698  -17.8161 O   0  0  0  0  0  0  0  0  0  0  0  0
   -3.6063    6.6534  -18.2644 C   0  0  0  0  0  0  0  0  0  0  0  0
   -2.2469    7.0193  -17.6695 C   0  0  0  0  0  0  0  0  0  0  0  0
   -4.6076    7.8012  -18.1693 C   0  0  0  0  0  0  0  0  0  0  0  0
   -4.4276    5.6698  -15.3121 N   0  0  0  0  0  0  0  0  0  0  0  0
   -3.2824    6.1106  -15.0472 O   0  0  0  0  0  0  0  0  0  0  0  0
  1  2  1  0
  2  3  1  0
  3  4  2  0
  4  5  1  0
  5  6  2  0
  5  7  1  0
  7  8  1  0
  8  9  2  0
  9 10  1  0
 10 11  2  0
 11 12  1  0
 12 13  2  0
 12 14  1  0
 14 15  1  0
 15 16  1  0
  4 17  1  0
 17 18  2  0
 18 19  1  0
 18 20  1  0
 20 21  2  0
 21 22  1  0
 22 23  1  0
 23 24  1  0
 24 25  1  0
 24 26  1  0
 22 27  1  0
 27 28  1  0
 27  2  2  0
 21  3  1  0
 13  8  1  0
 16 11  1  0
M  CHG  2  27   1  28  -1
M  END
>  <smiles>  (1588) 
C23228-P201

>  <fragmenstein_outcome>  (1588) 
acceptable

>  <inchikey>  (1588) 
CUUGVNVKUPEFBP-UHFFFAOYSA-N

>  <fragmenstein_mode>  (1588) 
expansion

>  <HIPPO Pose ID>  (1588) 
22282

>  <Energy>  (1588) 
117.124331

>  <fragmenstein_error>  (1588) 


>  <tags>  (1588) 
{'openbind_xx01zvns2b_c1_fragmenstein', 'fragmenstein_placed'}

>  <ref_pdb>  (1588) 
175

>  <scratch_subdir>  (1588) 
/opt/xchem-fragalysis-2/maxwin/BulkDock/SCRATCH/511028/C23228-P201

>  <alias>  (1588) 
Cc1c2c(C(=O)Nc3cnc4c(c3)CNC4)cc(F)cc2n(OC(C)C)[n+]1[O-]

>  <HIPPO Compound ID>  (1588) 
23228

>  <fragmenstein_runtime>  (1588) 
6.455806

$$$$
N#Cc1csc2cc(C(=O)Nc3cnc4c(c3)CNC4)c3cn[nH]c3c12
     RDKit          3D

 26 30  0  0  0  0  0  0  0  0999 V2000
   -4.9252    5.0703  -19.7702 N   0  0  0  0  0  0  0  0  0  0  0  0
   -5.9453    4.8232  -19.2733 C   0  0  0  0  0  0  0  0  0  0  0  0
   -7.0783    4.5882  -18.4381 C   0  0  0  0  0  0  0  0  0  0  0  0
   -8.2657    4.0373  -18.8654 C   0  0  0  0  0  0  0  0  0  0  0  0
   -9.4676    3.9676  -17.6516 S   0  0  0  0  0  0  0  0  0  0  0  0
   -8.3944    4.5741  -16.4749 C   0  0  0  0  0  0  0  0  0  0  0  0
   -8.5873    4.8227  -15.1107 C   0  0  0  0  0  0  0  0  0  0  0  0
   -7.5133    5.3862  -14.3732 C   0  0  0  0  0  0  0  0  0  0  0  0
   -7.6922    5.7129  -12.9528 C   0  0  0  0  0  0  0  0  0  0  0  0
   -7.4587    6.7925  -12.5837 O   0  0  0  0  0  0  0  0  0  0  0  0
   -8.1665    4.4738  -12.1750 N   0  0  0  0  0  0  0  0  0  0  0  0
   -8.3557    4.2824  -10.8170 C   0  0  0  0  0  0  0  0  0  0  0  0
   -8.2579    5.3406   -9.9031 C   0  0  0  0  0  0  0  0  0  0  0  0
   -8.4325    5.2156   -8.5649 N   0  0  0  0  0  0  0  0  0  0  0  0
   -8.7099    3.9658   -8.1624 C   0  0  0  0  0  0  0  0  0  0  0  0
   -8.8281    2.8648   -8.9956 C   0  0  0  0  0  0  0  0  0  0  0  0
   -8.6449    3.0042  -10.3523 C   0  0  0  0  0  0  0  0  0  0  0  0
   -9.1172    1.6618   -8.1743 C   0  0  0  0  0  0  0  0  0  0  0  0
   -9.6276    2.1893   -6.8834 N   0  0  0  0  0  0  0  0  0  0  0  0
   -8.9953    3.5282   -6.7518 C   0  0  0  0  0  0  0  0  0  0  0  0
   -6.2755    5.6671  -14.9734 C   0  0  0  0  0  0  0  0  0  0  0  0
   -5.0096    6.1792  -14.6307 C   0  0  0  0  0  0  0  0  0  0  0  0
   -4.1638    6.1981  -15.6706 N   0  0  0  0  0  0  0  0  0  0  0  0
   -4.8964    5.7034  -16.6890 N   0  0  0  0  0  0  0  0  0  0  0  0
   -6.1477    5.3870  -16.3101 C   0  0  0  0  0  0  0  0  0  0  0  0
   -7.1703    4.8655  -17.0549 C   0  0  0  0  0  0  0  0  0  0  0  0
  1  2  3  0
  2  3  1  0
  3  4  2  0
  4  5  1  0
  5  6  1  0
  6  7  2  0
  7  8  1  0
  8  9  1  0
  9 10  2  0
  9 11  1  0
 11 12  1  0
 12 13  2  0
 13 14  1  0
 14 15  2  0
 15 16  1  0
 16 17  2  0
 16 18  1  0
 18 19  1  0
 19 20  1  0
  8 21  2  0
 21 22  1  0
 22 23  2  0
 23 24  1  0
 24 25  1  0
 25 26  2  0
 26  3  1  0
 26  6  1  0
 17 12  1  0
 25 21  1  0
 20 15  1  0
M  END
>  <smiles>  (1589) 
C23234-P201

>  <fragmenstein_outcome>  (1589) 
acceptable

>  <inchikey>  (1589) 
RWWWEXSKSCQEDK-UHFFFAOYSA-N

>  <fragmenstein_mode>  (1589) 
expansion

>  <HIPPO Pose ID>  (1589) 
22284

>  <Energy>  (1589) 
106.514596

>  <fragmenstein_error>  (1589) 


>  <tags>  (1589) 
{'openbind_xx01zvns2b_c1_fragmenstein', 'fragmenstein_placed'}

>  <ref_pdb>  (1589) 
175

>  <scratch_subdir>  (1589) 
/opt/xchem-fragalysis-2/maxwin/BulkDock/SCRATCH/511028/C23234-P201

>  <alias>  (1589) 
N#Cc1csc2cc(C(=O)Nc3cnc4c(c3)CNC4)c3cn[nH]c3c12

>  <HIPPO Compound ID>  (1589) 
23234

>  <fragmenstein_runtime>  (1589) 
3.605461

$$$$
CNCn1ncc2c(C(=O)Nc3cc(F)c4c(c3)CN3CCC(=O)[C@@H]43)cc(F)cc21
     RDKit          3D

 30 34  0  0  0  0  0  0  0  0999 V2000
   -1.8211    5.7963  -16.9066 C   0  0  0  0  0  0  0  0  0  0  0  0
   -2.9938    6.5588  -17.3161 N   0  0  0  0  0  0  0  0  0  0  0  0
   -4.1090    5.6743  -17.7144 C   0  0  0  0  0  0  0  0  0  0  0  0
   -5.0005    5.4746  -16.5629 N   0  0  0  0  0  0  0  0  0  0  0  0
   -4.5764    5.8522  -15.3246 N   0  0  0  0  0  0  0  0  0  0  0  0
   -5.6337    5.6510  -14.5459 C   0  0  0  0  0  0  0  0  0  0  0  0
   -6.7359    5.1337  -15.2520 C   0  0  0  0  0  0  0  0  0  0  0  0
   -8.0672    4.8103  -14.9297 C   0  0  0  0  0  0  0  0  0  0  0  0
   -8.5746    5.2483  -13.6233 C   0  0  0  0  0  0  0  0  0  0  0  0
   -9.1236    6.2795  -13.5995 O   0  0  0  0  0  0  0  0  0  0  0  0
   -8.1936    4.2886  -12.4721 N   0  0  0  0  0  0  0  0  0  0  0  0
   -8.3191    4.4361  -11.0921 C   0  0  0  0  0  0  0  0  0  0  0  0
   -8.3902    5.7453  -10.5904 C   0  0  0  0  0  0  0  0  0  0  0  0
   -8.5479    5.9750   -9.2350 C   0  0  0  0  0  0  0  0  0  0  0  0
   -8.6754    7.2282   -8.7869 F   0  0  0  0  0  0  0  0  0  0  0  0
   -8.6777    4.9051   -8.3843 C   0  0  0  0  0  0  0  0  0  0  0  0
   -8.6001    3.5959   -8.8660 C   0  0  0  0  0  0  0  0  0  0  0  0
   -8.3820    3.3389  -10.2219 C   0  0  0  0  0  0  0  0  0  0  0  0
   -8.9155    2.6531   -7.7397 C   0  0  0  0  0  0  0  0  0  0  0  0
   -9.0285    3.4962   -6.4992 N   0  0  0  0  0  0  0  0  0  0  0  0
   -7.7878    3.4852   -5.7081 C   0  0  0  0  0  0  0  0  0  0  0  0
   -7.8019    4.7442   -4.8690 C   0  0  0  0  0  0  0  0  0  0  0  0
   -8.1935    5.6662   -5.9735 C   0  0  0  0  0  0  0  0  0  0  0  0
   -7.8443    6.8375   -6.0156 O   0  0  0  0  0  0  0  0  0  0  0  0
   -9.0854    4.9244   -6.9569 C   0  0  1  0  0  0  0  0  0  0  0  0
   -8.9340    4.3603  -15.9206 C   0  0  0  0  0  0  0  0  0  0  0  0
   -8.4730    4.2421  -17.2246 C   0  0  0  0  0  0  0  0  0  0  0  0
   -9.3264    3.7993  -18.1578 F   0  0  0  0  0  0  0  0  0  0  0  0
   -7.1669    4.5910  -17.5958 C   0  0  0  0  0  0  0  0  0  0  0  0
   -6.3067    5.0335  -16.5771 C   0  0  0  0  0  0  0  0  0  0  0  0
  1  2  1  0
  2  3  1  0
  3  4  1  0
  4  5  1  0
  5  6  2  0
  6  7  1  0
  7  8  2  0
  8  9  1  0
  9 10  2  0
  9 11  1  0
 11 12  1  0
 12 13  2  0
 13 14  1  0
 14 15  1  0
 14 16  2  0
 16 17  1  0
 17 18  2  0
 17 19  1  0
 19 20  1  0
 20 21  1  0
 21 22  1  0
 22 23  1  0
 23 24  2  0
 25 23  1  1
  8 26  1  0
 26 27  2  0
 27 28  1  0
 27 29  1  0
 29 30  2  0
 30  4  1  0
 30  7  1  0
 18 12  1  0
 25 20  1  0
 25 16  1  0
M  END
>  <smiles>  (1590) 
C23256-P201

>  <fragmenstein_outcome>  (1590) 
acceptable

>  <inchikey>  (1590) 
AXSJQTMYDVABOV-UHFFFAOYSA-N

>  <fragmenstein_mode>  (1590) 
expansion

>  <HIPPO Pose ID>  (1590) 
22286

>  <Energy>  (1590) 
120.091814

>  <fragmenstein_error>  (1590) 


>  <tags>  (1590) 
{'openbind_xx01zvns2b_c1_fragmenstein', 'fragmenstein_placed'}

>  <ref_pdb>  (1590) 
175

>  <scratch_subdir>  (1590) 
/opt/xchem-fragalysis-2/maxwin/BulkDock/SCRATCH/511028/C23256-P201

>  <alias>  (1590) 
CNCn1ncc2c(C(=O)Nc3cc(F)c4c(c3)CN3CCC(=O)[C@@H]43)cc(F)cc21

>  <HIPPO Compound ID>  (1590) 
23256

>  <fragmenstein_runtime>  (1590) 
5.593473

$$$$
CNCn1ncc2c(C(=O)Nc3cnc4c(c3)CNC4)cc(F)cc21
     RDKit          3D

 25 28  0  0  0  0  0  0  0  0999 V2000
   -4.8676    7.4123  -19.8398 C   0  0  0  0  0  0  0  0  0  0  0  0
   -5.4088    6.1329  -20.2545 N   0  0  0  0  0  0  0  0  0  0  0  0
   -5.0806    5.0279  -19.3631 C   0  0  0  0  0  0  0  0  0  0  0  0
   -5.5542    5.2700  -18.0053 N   0  0  0  0  0  0  0  0  0  0  0  0
   -4.7204    5.8463  -17.1044 N   0  0  0  0  0  0  0  0  0  0  0  0
   -5.4171    5.8141  -15.9680 C   0  0  0  0  0  0  0  0  0  0  0  0
   -6.6862    5.2161  -16.1226 C   0  0  0  0  0  0  0  0  0  0  0  0
   -7.7723    4.9102  -15.2828 C   0  0  0  0  0  0  0  0  0  0  0  0
   -7.7350    5.3334  -13.8666 C   0  0  0  0  0  0  0  0  0  0  0  0
   -7.4401    6.4379  -13.6330 O   0  0  0  0  0  0  0  0  0  0  0  0
   -8.0923    4.1704  -12.9160 N   0  0  0  0  0  0  0  0  0  0  0  0
   -8.2485    4.1485  -11.5324 C   0  0  0  0  0  0  0  0  0  0  0  0
   -8.0213    5.2800  -10.7355 C   0  0  0  0  0  0  0  0  0  0  0  0
   -8.1287    5.3053   -9.3811 N   0  0  0  0  0  0  0  0  0  0  0  0
   -8.4793    4.1300   -8.8294 C   0  0  0  0  0  0  0  0  0  0  0  0
   -8.7216    2.9643   -9.5317 C   0  0  0  0  0  0  0  0  0  0  0  0
   -8.6116    2.9575  -10.9091 C   0  0  0  0  0  0  0  0  0  0  0  0
   -9.0309    1.8588   -8.5868 C   0  0  0  0  0  0  0  0  0  0  0  0
   -9.1636    2.4761   -7.2451 N   0  0  0  0  0  0  0  0  0  0  0  0
   -8.6491    3.8623   -7.3611 C   0  0  0  0  0  0  0  0  0  0  0  0
   -8.8967    4.2796  -15.8213 C   0  0  0  0  0  0  0  0  0  0  0  0
   -8.9489    3.9895  -17.1767 C   0  0  0  0  0  0  0  0  0  0  0  0
  -10.0496    3.4107  -17.6706 F   0  0  0  0  0  0  0  0  0  0  0  0
   -7.8963    4.2858  -18.0379 C   0  0  0  0  0  0  0  0  0  0  0  0
   -6.7629    4.8881  -17.4751 C   0  0  0  0  0  0  0  0  0  0  0  0
  1  2  1  0
  2  3  1  0
  3  4  1  0
  4  5  1  0
  5  6  2  0
  6  7  1  0
  7  8  2  0
  8  9  1  0
  9 10  2  0
  9 11  1  0
 11 12  1  0
 12 13  2  0
 13 14  1  0
 14 15  2  0
 15 16  1  0
 16 17  2  0
 16 18  1  0
 18 19  1  0
 19 20  1  0
  8 21  1  0
 21 22  2  0
 22 23  1  0
 22 24  1  0
 24 25  2  0
 25  4  1  0
 25  7  1  0
 17 12  1  0
 20 15  1  0
M  END
>  <smiles>  (1591) 
C23235-P202

>  <fragmenstein_outcome>  (1591) 
acceptable

>  <inchikey>  (1591) 
KRFHITCBRGRMAK-UHFFFAOYSA-N

>  <fragmenstein_mode>  (1591) 
expansion

>  <HIPPO Pose ID>  (1591) 
22288

>  <Energy>  (1591) 
110.377652

>  <fragmenstein_error>  (1591) 


>  <tags>  (1591) 
{'openbind_xx01zvns2b_c1_fragmenstein', 'fragmenstein_placed'}

>  <ref_pdb>  (1591) 
175

>  <scratch_subdir>  (1591) 
/opt/xchem-fragalysis-2/maxwin/BulkDock/SCRATCH/511028/C23235-P202

>  <alias>  (1591) 
CNCn1ncc2c(C(=O)Nc3cnc4c(c3)CNC4)cc(F)cc21

>  <HIPPO Compound ID>  (1591) 
20604

>  <fragmenstein_runtime>  (1591) 
2.893547

$$$$
CNCn1ncc2c(C(=O)Nc3cc(F)c4c(c3)CNC43CCCC3)cc(F)cc21
     RDKit          3D

 30 34  0  0  0  0  0  0  0  0999 V2000
   -2.4954    4.8243  -19.4518 C   0  0  0  0  0  0  0  0  0  0  0  0
   -3.4164    5.9145  -19.1805 N   0  0  0  0  0  0  0  0  0  0  0  0
   -4.8229    5.4612  -19.1443 C   0  0  0  0  0  0  0  0  0  0  0  0
   -5.3113    5.4509  -17.7591 N   0  0  0  0  0  0  0  0  0  0  0  0
   -4.5521    6.0131  -16.7803 N   0  0  0  0  0  0  0  0  0  0  0  0
   -5.3180    5.9196  -15.6950 C   0  0  0  0  0  0  0  0  0  0  0  0
   -6.5571    5.2936  -15.9482 C   0  0  0  0  0  0  0  0  0  0  0  0
   -7.6954    4.9669  -15.1829 C   0  0  0  0  0  0  0  0  0  0  0  0
   -7.7811    5.4457  -13.7821 C   0  0  0  0  0  0  0  0  0  0  0  0
   -7.4779    6.5549  -13.5775 O   0  0  0  0  0  0  0  0  0  0  0  0
   -8.2717    4.3450  -12.8119 N   0  0  0  0  0  0  0  0  0  0  0  0
   -8.3964    4.3519  -11.4208 C   0  0  0  0  0  0  0  0  0  0  0  0
   -8.2142    5.5377  -10.6926 C   0  0  0  0  0  0  0  0  0  0  0  0
   -8.2893    5.5315   -9.2997 C   0  0  0  0  0  0  0  0  0  0  0  0
   -8.1045    6.6742   -8.6260 F   0  0  0  0  0  0  0  0  0  0  0  0
   -8.5345    4.3510   -8.6305 C   0  0  0  0  0  0  0  0  0  0  0  0
   -8.7350    3.1797   -9.3594 C   0  0  0  0  0  0  0  0  0  0  0  0
   -8.6800    3.1595  -10.7499 C   0  0  0  0  0  0  0  0  0  0  0  0
   -8.9855    2.0513   -8.4185 C   0  0  0  0  0  0  0  0  0  0  0  0
   -8.6304    2.5654   -7.0751 N   0  0  0  0  0  0  0  0  0  0  0  0
   -8.5622    4.0516   -7.1655 C   0  0  0  0  0  0  0  0  0  0  0  0
   -7.3705    4.6421   -6.3880 C   0  0  0  0  0  0  0  0  0  0  0  0
   -7.7423    4.4655   -4.9211 C   0  0  0  0  0  0  0  0  0  0  0  0
   -9.2629    4.5969   -4.8831 C   0  0  0  0  0  0  0  0  0  0  0  0
   -9.7265    4.6267   -6.3448 C   0  0  0  0  0  0  0  0  0  0  0  0
   -8.7663    4.3153  -15.7985 C   0  0  0  0  0  0  0  0  0  0  0  0
   -8.7192    4.0376  -17.1587 C   0  0  0  0  0  0  0  0  0  0  0  0
   -9.7788    3.4417  -17.7220 F   0  0  0  0  0  0  0  0  0  0  0  0
   -7.6195    4.3762  -17.9524 C   0  0  0  0  0  0  0  0  0  0  0  0
   -6.5336    4.9942  -17.3116 C   0  0  0  0  0  0  0  0  0  0  0  0
  1  2  1  0
  2  3  1  0
  3  4  1  0
  4  5  1  0
  5  6  2  0
  6  7  1  0
  7  8  2  0
  8  9  1  0
  9 10  2  0
  9 11  1  0
 11 12  1  0
 12 13  2  0
 13 14  1  0
 14 15  1  0
 14 16  2  0
 16 17  1  0
 17 18  2  0
 17 19  1  0
 19 20  1  0
 20 21  1  0
 21 22  1  0
 22 23  1  0
 23 24  1  0
 24 25  1  0
  8 26  1  0
 26 27  2  0
 27 28  1  0
 27 29  1  0
 29 30  2  0
 30  4  1  0
 30  7  1  0
 18 12  1  0
 25 21  1  0
 21 16  1  0
M  END
>  <smiles>  (1592) 
C23264-P202

>  <fragmenstein_outcome>  (1592) 
acceptable

>  <inchikey>  (1592) 
YBWLGQQEPPLEDZ-UHFFFAOYSA-N

>  <fragmenstein_mode>  (1592) 
expansion

>  <HIPPO Pose ID>  (1592) 
22290

>  <Energy>  (1592) 
82.73247

>  <fragmenstein_error>  (1592) 


>  <tags>  (1592) 
{'openbind_xx01zvns2b_c1_fragmenstein', 'fragmenstein_placed'}

>  <ref_pdb>  (1592) 
175

>  <scratch_subdir>  (1592) 
/opt/xchem-fragalysis-2/maxwin/BulkDock/SCRATCH/511028/C23264-P202

>  <alias>  (1592) 
CNCn1ncc2c(C(=O)Nc3cc(F)c4c(c3)CNC43CCCC3)cc(F)cc21

>  <HIPPO Compound ID>  (1592) 
23264

>  <fragmenstein_runtime>  (1592) 
4.523911

$$$$
CNCn1ncc2c(C(=O)Nc3cnc4c(c3)CN(CC(F)F)C4)cc(F)cc21
     RDKit          3D

 29 32  0  0  0  0  0  0  0  0999 V2000
   -3.0735    4.9672  -19.6996 C   0  0  0  0  0  0  0  0  0  0  0  0
   -4.5050    4.9355  -19.9819 N   0  0  0  0  0  0  0  0  0  0  0  0
   -5.1904    6.0896  -19.4189 C   0  0  0  0  0  0  0  0  0  0  0  0
   -5.4865    5.8353  -18.0141 N   0  0  0  0  0  0  0  0  0  0  0  0
   -4.6977    6.4111  -17.0754 N   0  0  0  0  0  0  0  0  0  0  0  0
   -5.3405    6.1671  -15.9349 C   0  0  0  0  0  0  0  0  0  0  0  0
   -6.5461    5.4589  -16.1275 C   0  0  0  0  0  0  0  0  0  0  0  0
   -7.6033    5.0242  -15.3076 C   0  0  0  0  0  0  0  0  0  0  0  0
   -7.6108    5.4378  -13.8880 C   0  0  0  0  0  0  0  0  0  0  0  0
   -7.2886    6.5288  -13.6333 O   0  0  0  0  0  0  0  0  0  0  0  0
   -8.0896    4.2985  -12.9700 N   0  0  0  0  0  0  0  0  0  0  0  0
   -8.1796    4.2327  -11.5867 C   0  0  0  0  0  0  0  0  0  0  0  0
   -7.9207    5.3503  -10.7757 C   0  0  0  0  0  0  0  0  0  0  0  0
   -8.0296    5.3661   -9.4247 N   0  0  0  0  0  0  0  0  0  0  0  0
   -8.4389    4.2008   -8.8990 C   0  0  0  0  0  0  0  0  0  0  0  0
   -8.7056    3.0417   -9.6223 C   0  0  0  0  0  0  0  0  0  0  0  0
   -8.5635    3.0365  -10.9915 C   0  0  0  0  0  0  0  0  0  0  0  0
   -9.1720    1.9757   -8.6890 C   0  0  0  0  0  0  0  0  0  0  0  0
   -9.6283    2.7438   -7.5209 N   0  0  0  0  0  0  0  0  0  0  0  0
   -9.6827    1.9655   -6.2863 C   0  0  0  0  0  0  0  0  0  0  0  0
  -10.2236    2.7310   -5.0711 C   0  0  0  0  0  0  0  0  0  0  0  0
  -11.2954    3.5021   -5.3959 F   0  0  0  0  0  0  0  0  0  0  0  0
   -9.2806    3.5885   -4.5882 F   0  0  0  0  0  0  0  0  0  0  0  0
   -8.7760    3.9470   -7.4511 C   0  0  0  0  0  0  0  0  0  0  0  0
   -8.6770    4.3280  -15.8743 C   0  0  0  0  0  0  0  0  0  0  0  0
   -8.6924    4.0762  -17.2377 C   0  0  0  0  0  0  0  0  0  0  0  0
   -9.7427    3.4246  -17.7548 F   0  0  0  0  0  0  0  0  0  0  0  0
   -7.6678    4.5085  -18.0813 C   0  0  0  0  0  0  0  0  0  0  0  0
   -6.6036    5.2147  -17.4971 C   0  0  0  0  0  0  0  0  0  0  0  0
  1  2  1  0
  2  3  1  0
  3  4  1  0
  4  5  1  0
  5  6  2  0
  6  7  1  0
  7  8  2  0
  8  9  1  0
  9 10  2  0
  9 11  1  0
 11 12  1  0
 12 13  2  0
 13 14  1  0
 14 15  2  0
 15 16  1  0
 16 17  2  0
 16 18  1  0
 18 19  1  0
 19 20  1  0
 20 21  1  0
 21 22  1  0
 21 23  1  0
 19 24  1  0
  8 25  1  0
 25 26  2  0
 26 27  1  0
 26 28  1  0
 28 29  2  0
 29  4  1  0
 29  7  1  0
 17 12  1  0
 24 15  1  0
M  END
>  <smiles>  (1593) 
C23267-P202

>  <fragmenstein_outcome>  (1593) 
acceptable

>  <inchikey>  (1593) 
YPFNSVFYWXRRMO-UHFFFAOYSA-N

>  <fragmenstein_mode>  (1593) 
expansion

>  <HIPPO Pose ID>  (1593) 
22292

>  <Energy>  (1593) 
158.711996

>  <fragmenstein_error>  (1593) 


>  <tags>  (1593) 
{'openbind_xx01zvns2b_c1_fragmenstein', 'fragmenstein_placed'}

>  <ref_pdb>  (1593) 
175

>  <scratch_subdir>  (1593) 
/opt/xchem-fragalysis-2/maxwin/BulkDock/SCRATCH/511028/C23267-P202

>  <alias>  (1593) 
CNCn1ncc2c(C(=O)Nc3cnc4c(c3)CN(CC(F)F)C4)cc(F)cc21

>  <HIPPO Compound ID>  (1593) 
23267

>  <fragmenstein_runtime>  (1593) 
4.574446

$$$$
O=C(Nc1cnc2c(c1)CNC2)c1cc(F)cc2c1CC1(CCNCC1)N2
     RDKit          3D

 27 31  0  0  0  0  0  0  0  0999 V2000
   -7.0155    6.3487  -13.7653 O   0  0  0  0  0  0  0  0  0  0  0  0
   -7.4729    5.2970  -13.9876 C   0  0  0  0  0  0  0  0  0  0  0  0
   -8.0575    4.2327  -13.0254 N   0  0  0  0  0  0  0  0  0  0  0  0
   -8.1113    4.2037  -11.6334 C   0  0  0  0  0  0  0  0  0  0  0  0
   -7.7816    5.3163  -10.8475 C   0  0  0  0  0  0  0  0  0  0  0  0
   -7.8687    5.3571   -9.4913 N   0  0  0  0  0  0  0  0  0  0  0  0
   -8.3014    4.2162   -8.9260 C   0  0  0  0  0  0  0  0  0  0  0  0
   -8.6422    3.0677   -9.6154 C   0  0  0  0  0  0  0  0  0  0  0  0
   -8.5575    3.0473  -10.9949 C   0  0  0  0  0  0  0  0  0  0  0  0
   -9.0976    2.0219   -8.6605 C   0  0  0  0  0  0  0  0  0  0  0  0
   -8.8269    2.5457   -7.2972 N   0  0  0  0  0  0  0  0  0  0  0  0
   -8.5301    3.9918   -7.4588 C   0  0  0  0  0  0  0  0  0  0  0  0
   -7.6377    4.8941  -15.4185 C   0  0  0  0  0  0  0  0  0  0  0  0
   -8.8048    4.2343  -15.8282 C   0  0  0  0  0  0  0  0  0  0  0  0
   -9.0517    4.0006  -17.1805 C   0  0  0  0  0  0  0  0  0  0  0  0
  -10.1888    3.3983  -17.5437 F   0  0  0  0  0  0  0  0  0  0  0  0
   -8.1778    4.4372  -18.1562 C   0  0  0  0  0  0  0  0  0  0  0  0
   -7.0371    5.1004  -17.7506 C   0  0  0  0  0  0  0  0  0  0  0  0
   -6.7524    5.3199  -16.4047 C   0  0  0  0  0  0  0  0  0  0  0  0
   -5.4760    6.0996  -16.3051 C   0  0  0  0  0  0  0  0  0  0  0  0
   -5.0163    6.2109  -17.8026 C   0  0  0  0  0  0  0  0  0  0  0  0
   -4.6782    7.6693  -18.1832 C   0  0  0  0  0  0  0  0  0  0  0  0
   -3.6692    7.7649  -19.3357 C   0  0  0  0  0  0  0  0  0  0  0  0
   -3.7597    6.6372  -20.2610 N   0  0  0  0  0  0  0  0  0  0  0  0
   -3.3948    5.3869  -19.5869 C   0  0  0  0  0  0  0  0  0  0  0  0
   -3.8044    5.3251  -18.1108 C   0  0  0  0  0  0  0  0  0  0  0  0
   -6.1759    5.7872  -18.6131 N   0  0  0  0  0  0  0  0  0  0  0  0
  1  2  2  0
  2  3  1  0
  3  4  1  0
  4  5  2  0
  5  6  1  0
  6  7  2  0
  7  8  1  0
  8  9  2  0
  8 10  1  0
 10 11  1  0
 11 12  1  0
  2 13  1  0
 13 14  2  0
 14 15  1  0
 15 16  1  0
 15 17  2  0
 17 18  1  0
 18 19  2  0
 19 20  1  0
 20 21  1  0
 21 22  1  0
 22 23  1  0
 23 24  1  0
 24 25  1  0
 25 26  1  0
 21 27  1  0
  9  4  1  0
 19 13  1  0
 26 21  1  0
 12  7  1  0
 27 18  1  0
M  END
>  <smiles>  (1594) 
C23205-P202

>  <fragmenstein_outcome>  (1594) 
acceptable

>  <inchikey>  (1594) 
PVJRXFRJZUUTKQ-UHFFFAOYSA-N

>  <fragmenstein_mode>  (1594) 
expansion

>  <HIPPO Pose ID>  (1594) 
22293

>  <Energy>  (1594) 
82.964377

>  <fragmenstein_error>  (1594) 


>  <tags>  (1594) 
{'openbind_xx01zvns2b_c1_fragmenstein', 'fragmenstein_placed'}

>  <ref_pdb>  (1594) 
175

>  <scratch_subdir>  (1594) 
/opt/xchem-fragalysis-2/maxwin/BulkDock/SCRATCH/511028/C23205-P202

>  <alias>  (1594) 
O=C(Nc1cnc2c(c1)CNC2)c1cc(F)cc2c1CC1(CCNCC1)N2

>  <HIPPO Compound ID>  (1594) 
23205

>  <fragmenstein_runtime>  (1594) 
4.185216

$$$$
NCn1cc2c(C(=O)Nc3cnc4c(c3)CNC4)cc(F)cc2n1
     RDKit          3D

 24 27  0  0  0  0  0  0  0  0999 V2000
   -3.5824    5.9258  -19.4950 N   0  0  0  0  0  0  0  0  0  0  0  0
   -3.6021    5.6871  -18.0425 C   0  0  0  0  0  0  0  0  0  0  0  0
   -4.9664    5.3914  -17.6106 N   0  0  0  0  0  0  0  0  0  0  0  0
   -5.4583    5.4479  -16.3355 C   0  0  0  0  0  0  0  0  0  0  0  0
   -6.7456    4.9843  -16.4340 C   0  0  0  0  0  0  0  0  0  0  0  0
   -7.6751    4.7834  -15.4104 C   0  0  0  0  0  0  0  0  0  0  0  0
   -7.5176    5.1949  -14.0009 C   0  0  0  0  0  0  0  0  0  0  0  0
   -7.0425    6.2378  -13.7768 O   0  0  0  0  0  0  0  0  0  0  0  0
   -8.1350    4.1467  -13.0430 N   0  0  0  0  0  0  0  0  0  0  0  0
   -8.2074    4.1242  -11.6506 C   0  0  0  0  0  0  0  0  0  0  0  0
   -7.9379    5.2540  -10.8653 C   0  0  0  0  0  0  0  0  0  0  0  0
   -8.0589    5.3011   -9.5109 N   0  0  0  0  0  0  0  0  0  0  0  0
   -8.4529    4.1453   -8.9463 C   0  0  0  0  0  0  0  0  0  0  0  0
   -8.7207    2.9753   -9.6351 C   0  0  0  0  0  0  0  0  0  0  0  0
   -8.6056    2.9504  -11.0117 C   0  0  0  0  0  0  0  0  0  0  0  0
   -9.0809    1.9014   -8.6678 C   0  0  0  0  0  0  0  0  0  0  0  0
   -9.3937    2.5963   -7.3944 N   0  0  0  0  0  0  0  0  0  0  0  0
   -8.6955    3.9051   -7.4801 C   0  0  0  0  0  0  0  0  0  0  0  0
   -8.8859    4.2556  -15.9064 C   0  0  0  0  0  0  0  0  0  0  0  0
   -9.1215    3.9830  -17.2804 C   0  0  0  0  0  0  0  0  0  0  0  0
  -10.3242    3.5023  -17.6213 F   0  0  0  0  0  0  0  0  0  0  0  0
   -8.1891    4.1954  -18.2985 C   0  0  0  0  0  0  0  0  0  0  0  0
   -6.9704    4.6995  -17.8345 C   0  0  0  0  0  0  0  0  0  0  0  0
   -5.8674    4.9950  -18.5290 N   0  0  0  0  0  0  0  0  0  0  0  0
  1  2  1  0
  2  3  1  0
  3  4  1  0
  4  5  2  0
  5  6  1  0
  6  7  1  0
  7  8  2  0
  7  9  1  0
  9 10  1  0
 10 11  2  0
 11 12  1  0
 12 13  2  0
 13 14  1  0
 14 15  2  0
 14 16  1  0
 16 17  1  0
 17 18  1  0
  6 19  2  0
 19 20  1  0
 20 21  1  0
 20 22  2  0
 22 23  1  0
 23 24  2  0
 24  3  1  0
 23  5  1  0
 15 10  1  0
 18 13  1  0
M  END
>  <smiles>  (1595) 
C23101-P202

>  <fragmenstein_outcome>  (1595) 
acceptable

>  <inchikey>  (1595) 
TYDNSYHYVMCUOX-UHFFFAOYSA-N

>  <fragmenstein_mode>  (1595) 
expansion

>  <HIPPO Pose ID>  (1595) 
22299

>  <Energy>  (1595) 
93.364706

>  <fragmenstein_error>  (1595) 


>  <tags>  (1595) 
{'openbind_xx01zvns2b_c1_fragmenstein', 'fragmenstein_placed'}

>  <ref_pdb>  (1595) 
175

>  <scratch_subdir>  (1595) 
/opt/xchem-fragalysis-2/maxwin/BulkDock/SCRATCH/511028/C23101-P202

>  <alias>  (1595) 
NCn1cc2c(C(=O)Nc3cnc4c(c3)CNC4)cc(F)cc2n1

>  <HIPPO Compound ID>  (1595) 
18052

>  <fragmenstein_runtime>  (1595) 
3.036204

$$$$
O=C(Nc1cnc2c(c1)CNC2)[C@H]1C[C@@H](F)C[C@H]2[C@H]3COC[C@@H]3C[C@@H]21
     RDKit          3D

 25 29  0  0  0  0  0  0  0  0999 V2000
   -7.3090    6.4236  -13.7067 O   0  0  0  0  0  0  0  0  0  0  0  0
   -7.5383    5.2923  -13.8995 C   0  0  0  0  0  0  0  0  0  0  0  0
   -8.0083    4.1725  -12.9152 N   0  0  0  0  0  0  0  0  0  0  0  0
   -8.1900    4.2006  -11.5356 C   0  0  0  0  0  0  0  0  0  0  0  0
   -8.0281    5.3541  -10.7595 C   0  0  0  0  0  0  0  0  0  0  0  0
   -8.1967    5.4029   -9.4097 N   0  0  0  0  0  0  0  0  0  0  0  0
   -8.5326    4.2273   -8.8446 C   0  0  0  0  0  0  0  0  0  0  0  0
   -8.7126    3.0388   -9.5285 C   0  0  0  0  0  0  0  0  0  0  0  0
   -8.5415    3.0097  -10.8972 C   0  0  0  0  0  0  0  0  0  0  0  0
   -9.0426    1.9503   -8.5667 C   0  0  0  0  0  0  0  0  0  0  0  0
   -9.4149    2.6346   -7.3025 N   0  0  0  0  0  0  0  0  0  0  0  0
   -8.7776    3.9746   -7.3807 C   0  0  0  0  0  0  0  0  0  0  0  0
   -7.4801    4.6297  -15.2801 C   0  0  1  0  0  0  0  0  0  0  0  0
   -8.9195    4.4972  -15.8289 C   0  0  0  0  0  0  0  0  0  0  0  0
   -9.0048    3.9159  -17.2450 C   0  0  1  0  0  0  0  0  0  0  0  0
  -10.2807    4.0138  -17.6918 F   0  0  0  0  0  0  0  0  0  0  0  0
   -8.0609    4.5744  -18.2574 C   0  0  0  0  0  0  0  0  0  0  0  0
   -6.6884    4.6199  -17.6431 C   0  0  1  0  0  0  0  0  0  0  0  0
   -5.4448    5.0432  -18.3812 C   0  0  1  0  0  0  0  0  0  0  0  0
   -5.2165    5.6421  -19.7298 C   0  0  0  0  0  0  0  0  0  0  0  0
   -3.8214    6.0893  -19.6275 O   0  0  0  0  0  0  0  0  0  0  0  0
   -3.4624    6.1537  -18.2042 C   0  0  0  0  0  0  0  0  0  0  0  0
   -4.7986    6.0986  -17.5117 C   0  0  2  0  0  0  0  0  0  0  0  0
   -5.1368    5.6427  -16.0997 C   0  0  0  0  0  0  0  0  0  0  0  0
   -6.6521    5.3985  -16.3095 C   0  0  2  0  0  0  0  0  0  0  0  0
  1  2  2  0
  2  3  1  0
  3  4  1  0
  4  5  2  0
  5  6  1  0
  6  7  2  0
  7  8  1  0
  8  9  2  0
  8 10  1  0
 10 11  1  0
 11 12  1  0
 13  2  1  1
 13 14  1  0
 14 15  1  0
 15 16  1  6
 15 17  1  0
 18 17  1  6
 18 19  1  0
 19 20  1  6
 20 21  1  0
 21 22  1  0
 23 22  1  1
 23 24  1  0
 25 24  1  1
  9  4  1  0
 25 13  1  0
 12  7  1  0
 25 18  1  0
 23 19  1  0
M  END
>  <smiles>  (1596) 
C23279-P202

>  <fragmenstein_outcome>  (1596) 
acceptable

>  <inchikey>  (1596) 
JSBVXJYOWWBFDJ-UHFFFAOYSA-N

>  <fragmenstein_mode>  (1596) 
expansion

>  <HIPPO Pose ID>  (1596) 
22301

>  <Energy>  (1596) 
112.184304

>  <fragmenstein_error>  (1596) 


>  <tags>  (1596) 
{'openbind_xx01zvns2b_c1_fragmenstein', 'fragmenstein_placed'}

>  <ref_pdb>  (1596) 
175

>  <scratch_subdir>  (1596) 
/opt/xchem-fragalysis-2/maxwin/BulkDock/SCRATCH/511028/C23279-P202

>  <alias>  (1596) 
O=C(Nc1cnc2c(c1)CNC2)[C@H]1C[C@@H](F)C[C@H]2[C@H]3COC[C@@H]3C[C@@H]21

>  <HIPPO Compound ID>  (1596) 
41380

>  <fragmenstein_runtime>  (1596) 
3.640793

$$$$
O=C(Nc1cnc2c(c1)CNC2)[C@H]1C[C@@H](F)C[C@H]2[C@H]3COC[C@H]3C[C@@H]21
     RDKit          3D

 25 29  0  0  0  0  0  0  0  0999 V2000
   -7.0696    6.5260  -13.8269 O   0  0  0  0  0  0  0  0  0  0  0  0
   -7.4137    5.4222  -14.0121 C   0  0  0  0  0  0  0  0  0  0  0  0
   -7.8639    4.3171  -12.9987 N   0  0  0  0  0  0  0  0  0  0  0  0
   -8.0626    4.3805  -11.6183 C   0  0  0  0  0  0  0  0  0  0  0  0
   -7.8546    5.5358  -10.8575 C   0  0  0  0  0  0  0  0  0  0  0  0
   -8.0051    5.6073   -9.5046 N   0  0  0  0  0  0  0  0  0  0  0  0
   -8.3610    4.4493   -8.9155 C   0  0  0  0  0  0  0  0  0  0  0  0
   -8.5880    3.2596   -9.5797 C   0  0  0  0  0  0  0  0  0  0  0  0
   -8.4501    3.2150  -10.9537 C   0  0  0  0  0  0  0  0  0  0  0  0
   -8.9060    2.1872   -8.5940 C   0  0  0  0  0  0  0  0  0  0  0  0
   -9.2166    2.8910   -7.3217 N   0  0  0  0  0  0  0  0  0  0  0  0
   -8.5552    4.2166   -7.4406 C   0  0  0  0  0  0  0  0  0  0  0  0
   -7.4663    4.7687  -15.4030 C   0  0  1  0  0  0  0  0  0  0  0  0
   -8.9310    4.7393  -15.8814 C   0  0  0  0  0  0  0  0  0  0  0  0
   -9.1282    4.2281  -17.3119 C   0  0  1  0  0  0  0  0  0  0  0  0
  -10.3969    4.4734  -17.7176 F   0  0  0  0  0  0  0  0  0  0  0  0
   -8.1485    4.7896  -18.3409 C   0  0  0  0  0  0  0  0  0  0  0  0
   -6.7555    4.6986  -17.7745 C   0  0  1  0  0  0  0  0  0  0  0  0
   -5.5504    5.0409  -18.6096 C   0  0  1  0  0  0  0  0  0  0  0  0
   -5.4536    6.3984  -19.2525 C   0  0  0  0  0  0  0  0  0  0  0  0
   -4.0503    6.6938  -19.2811 O   0  0  0  0  0  0  0  0  0  0  0  0
   -3.4081    5.9895  -18.2053 C   0  0  0  0  0  0  0  0  0  0  0  0
   -4.4317    5.0652  -17.5805 C   0  0  1  0  0  0  0  0  0  0  0  0
   -5.0809    5.5120  -16.2471 C   0  0  0  0  0  0  0  0  0  0  0  0
   -6.6047    5.4766  -16.4675 C   0  0  2  0  0  0  0  0  0  0  0  0
  1  2  2  0
  2  3  1  0
  3  4  1  0
  4  5  2  0
  5  6  1  0
  6  7  2  0
  7  8  1  0
  8  9  2  0
  8 10  1  0
 10 11  1  0
 11 12  1  0
 13  2  1  1
 13 14  1  0
 14 15  1  0
 15 16  1  6
 15 17  1  0
 18 17  1  6
 18 19  1  0
 19 20  1  1
 20 21  1  0
 21 22  1  0
 23 22  1  6
 23 24  1  0
 25 24  1  1
  9  4  1  0
 25 13  1  0
 12  7  1  0
 25 18  1  0
 23 19  1  0
M  END
>  <smiles>  (1597) 
C23279-P55

>  <fragmenstein_outcome>  (1597) 
acceptable

>  <inchikey>  (1597) 
LIEURDJWIPACRH-UHFFFAOYSA-N

>  <fragmenstein_mode>  (1597) 
expansion

>  <HIPPO Pose ID>  (1597) 
22302

>  <Energy>  (1597) 
94.078009

>  <fragmenstein_error>  (1597) 


>  <tags>  (1597) 
{'openbind_xx01zvns2b_c1_fragmenstein', 'fragmenstein_placed'}

>  <ref_pdb>  (1597) 
175

>  <scratch_subdir>  (1597) 
/opt/xchem-fragalysis-2/maxwin/BulkDock/SCRATCH/511028/C23279-P55

>  <alias>  (1597) 
O=C(Nc1cnc2c(c1)CNC2)[C@H]1C[C@@H](F)C[C@H]2[C@H]3COC[C@H]3C[C@@H]21

>  <HIPPO Compound ID>  (1597) 
23279

>  <fragmenstein_runtime>  (1597) 
3.58769

$$$$
O=C(Nc1cnc2c(c1)CNC2)[C@@H]1C[C@H](F)C[C@H]2[C@@H]1CN1NCCN21
     RDKit          3D

 25 29  0  0  0  0  0  0  0  0999 V2000
   -6.2378    3.9152  -13.8053 O   0  0  0  0  0  0  0  0  0  0  0  0
   -7.1509    4.6403  -13.8643 C   0  0  0  0  0  0  0  0  0  0  0  0
   -8.0895    5.1739  -12.7412 N   0  0  0  0  0  0  0  0  0  0  0  0
   -8.1476    4.8586  -11.3884 C   0  0  0  0  0  0  0  0  0  0  0  0
   -8.4261    5.8481  -10.4407 C   0  0  0  0  0  0  0  0  0  0  0  0
   -8.6081    5.6208   -9.1169 N   0  0  0  0  0  0  0  0  0  0  0  0
   -8.5950    4.3202   -8.7720 C   0  0  0  0  0  0  0  0  0  0  0  0
   -8.3908    3.2659   -9.6467 C   0  0  0  0  0  0  0  0  0  0  0  0
   -8.0913    3.5270  -10.9728 C   0  0  0  0  0  0  0  0  0  0  0  0
   -8.6116    1.9780   -8.9245 C   0  0  0  0  0  0  0  0  0  0  0  0
   -9.2394    2.3453   -7.6259 N   0  0  0  0  0  0  0  0  0  0  0  0
   -8.8758    3.7632   -7.4031 C   0  0  0  0  0  0  0  0  0  0  0  0
   -7.7066    5.1689  -15.2040 C   0  0  2  0  0  0  0  0  0  0  0  0
   -8.6576    4.0777  -15.7139 C   0  0  0  0  0  0  0  0  0  0  0  0
   -9.0853    4.2097  -17.1604 C   0  0  2  0  0  0  0  0  0  0  0  0
   -9.8096    3.1057  -17.4897 F   0  0  0  0  0  0  0  0  0  0  0  0
   -7.8801    4.2737  -18.0628 C   0  0  0  0  0  0  0  0  0  0  0  0
   -6.9917    5.4550  -17.7313 C   0  0  1  0  0  0  0  0  0  0  0  0
   -6.6712    5.6649  -16.2229 C   0  0  2  0  0  0  0  0  0  0  0  0
   -5.1645    5.3673  -16.1077 C   0  0  0  0  0  0  0  0  0  0  0  0
   -4.8028    5.9167  -17.4153 N   0  0  0  0  0  0  0  0  0  0  0  0
   -3.5252    5.6677  -17.9519 N   0  0  0  0  0  0  0  0  0  0  0  0
   -3.7908    5.9152  -19.4030 C   0  0  0  0  0  0  0  0  0  0  0  0
   -5.3192    5.8269  -19.5728 C   0  0  0  0  0  0  0  0  0  0  0  0
   -5.6703    5.2585  -18.2911 N   0  0  0  0  0  0  0  0  0  0  0  0
  1  2  2  0
  2  3  1  0
  3  4  1  0
  4  5  2  0
  5  6  1  0
  6  7  2  0
  7  8  1  0
  8  9  2  0
  8 10  1  0
 10 11  1  0
 11 12  1  0
 13  2  1  1
 13 14  1  0
 14 15  1  0
 15 16  1  6
 15 17  1  0
 18 17  1  1
 18 19  1  0
 19 20  1  1
 20 21  1  0
 21 22  1  0
 22 23  1  0
 23 24  1  0
 24 25  1  0
  9  4  1  0
 19 13  1  0
 25 21  1  0
 12  7  1  0
 25 18  1  0
M  END
>  <smiles>  (1598) 
C23280-P202

>  <fragmenstein_outcome>  (1598) 
acceptable

>  <inchikey>  (1598) 
LKQVYIIVFWYVAN-UHFFFAOYSA-N

>  <fragmenstein_mode>  (1598) 
expansion

>  <HIPPO Pose ID>  (1598) 
22303

>  <Energy>  (1598) 
100.625493

>  <fragmenstein_error>  (1598) 


>  <tags>  (1598) 
{'openbind_xx01zvns2b_c1_fragmenstein', 'fragmenstein_placed'}

>  <ref_pdb>  (1598) 
175

>  <scratch_subdir>  (1598) 
/opt/xchem-fragalysis-2/maxwin/BulkDock/SCRATCH/511028/C23280-P202

>  <alias>  (1598) 
O=C(Nc1cnc2c(c1)CNC2)[C@@H]1C[C@H](F)C[C@H]2[C@@H]1CN1NCCN21

>  <HIPPO Compound ID>  (1598) 
32040

>  <fragmenstein_runtime>  (1598) 
2.512563

$$$$
CNCn1ncc2c(C(=O)Nc3cnc4c(c3)[C@H](NC)NC4)cc(F)cc21
     RDKit          3D

 27 30  0  0  0  0  0  0  0  0999 V2000
   -2.7845    5.4274  -19.6094 C   0  0  0  0  0  0  0  0  0  0  0  0
   -3.9448    5.1657  -20.4306 N   0  0  0  0  0  0  0  0  0  0  0  0
   -5.2714    5.4881  -19.8825 C   0  0  0  0  0  0  0  0  0  0  0  0
   -5.4587    5.3928  -18.4222 N   0  0  0  0  0  0  0  0  0  0  0  0
   -4.6588    6.1059  -17.5849 N   0  0  0  0  0  0  0  0  0  0  0  0
   -5.2593    6.0236  -16.4006 C   0  0  0  0  0  0  0  0  0  0  0  0
   -6.4836    5.3312  -16.4551 C   0  0  0  0  0  0  0  0  0  0  0  0
   -7.5235    5.0492  -15.5464 C   0  0  0  0  0  0  0  0  0  0  0  0
   -7.4848    5.6578  -14.1955 C   0  0  0  0  0  0  0  0  0  0  0  0
   -7.1581    6.7738  -14.1090 O   0  0  0  0  0  0  0  0  0  0  0  0
   -7.9700    4.6726  -13.1150 N   0  0  0  0  0  0  0  0  0  0  0  0
   -8.0621    4.8186  -11.7361 C   0  0  0  0  0  0  0  0  0  0  0  0
   -7.8769    6.0568  -11.1036 C   0  0  0  0  0  0  0  0  0  0  0  0
   -7.9576    6.2654   -9.7627 N   0  0  0  0  0  0  0  0  0  0  0  0
   -8.2381    5.1675   -9.0485 C   0  0  0  0  0  0  0  0  0  0  0  0
   -8.4313    3.9133   -9.5857 C   0  0  0  0  0  0  0  0  0  0  0  0
   -8.3477    3.7108  -10.9522 C   0  0  0  0  0  0  0  0  0  0  0  0
   -8.6708    2.9498   -8.4844 C   0  0  2  0  0  0  0  0  0  0  0  0
   -9.9354    2.2801   -8.6467 N   0  0  0  0  0  0  0  0  0  0  0  0
   -9.7666    0.9464   -8.1124 C   0  0  0  0  0  0  0  0  0  0  0  0
   -8.8318    3.7199   -7.2500 N   0  0  0  0  0  0  0  0  0  0  0  0
   -8.3729    5.0876   -7.5552 C   0  0  0  0  0  0  0  0  0  0  0  0
   -8.6504    4.3449  -15.9836 C   0  0  0  0  0  0  0  0  0  0  0  0
   -8.7445    3.9592  -17.3112 C   0  0  0  0  0  0  0  0  0  0  0  0
   -9.8543    3.3289  -17.7159 F   0  0  0  0  0  0  0  0  0  0  0  0
   -7.7387    4.2356  -18.2394 C   0  0  0  0  0  0  0  0  0  0  0  0
   -6.6001    4.9220  -17.7845 C   0  0  0  0  0  0  0  0  0  0  0  0
  1  2  1  0
  2  3  1  0
  3  4  1  0
  4  5  1  0
  5  6  2  0
  6  7  1  0
  7  8  2  0
  8  9  1  0
  9 10  2  0
  9 11  1  0
 11 12  1  0
 12 13  2  0
 13 14  1  0
 14 15  2  0
 15 16  1  0
 16 17  2  0
 16 18  1  0
 18 19  1  6
 19 20  1  0
 18 21  1  0
 21 22  1  0
  8 23  1  0
 23 24  2  0
 24 25  1  0
 24 26  1  0
 26 27  2  0
 27  4  1  0
 27  7  1  0
 17 12  1  0
 22 15  1  0
M  END
>  <smiles>  (1599) 
C23290-P202

>  <fragmenstein_outcome>  (1599) 
acceptable

>  <inchikey>  (1599) 
QWXAHPFCABZTKD-UHFFFAOYSA-N

>  <fragmenstein_mode>  (1599) 
expansion

>  <HIPPO Pose ID>  (1599) 
22305

>  <Energy>  (1599) 
59.450553

>  <fragmenstein_error>  (1599) 


>  <tags>  (1599) 
{'openbind_xx01zvns2b_c1_fragmenstein', 'fragmenstein_placed'}

>  <ref_pdb>  (1599) 
175

>  <scratch_subdir>  (1599) 
/opt/xchem-fragalysis-2/maxwin/BulkDock/SCRATCH/511028/C23290-P202

>  <alias>  (1599) 
CNCn1ncc2c(C(=O)Nc3cnc4c(c3)[C@H](NC)NC4)cc(F)cc21

>  <HIPPO Compound ID>  (1599) 
27716

>  <fragmenstein_runtime>  (1599) 
5.190947

$$$$
Nn1ncc2c([C@@](O)(F)Nc3cnc4c(c3)CNC4)cc(F)cc21
     RDKit          3D

 24 27  0  0  0  0  0  0  0  0999 V2000
   -5.4856    5.1922  -19.6712 N   0  0  0  0  0  0  0  0  0  0  0  0
   -5.7090    5.3200  -18.3003 N   0  0  0  0  0  0  0  0  0  0  0  0
   -4.8196    5.9290  -17.5050 N   0  0  0  0  0  0  0  0  0  0  0  0
   -5.3460    5.8006  -16.2853 C   0  0  0  0  0  0  0  0  0  0  0  0
   -6.6238    5.1925  -16.2907 C   0  0  0  0  0  0  0  0  0  0  0  0
   -7.6010    4.8633  -15.3140 C   0  0  0  0  0  0  0  0  0  0  0  0
   -7.4581    5.1490  -13.8257 C   0  0  1  0  0  0  0  0  0  0  0  0
   -6.1037    5.1098  -13.4531 O   0  0  0  0  0  0  0  0  0  0  0  0
   -7.8990    6.3950  -13.5223 F   0  0  0  0  0  0  0  0  0  0  0  0
   -8.1749    4.1763  -13.0353 N   0  0  0  0  0  0  0  0  0  0  0  0
   -8.2776    4.2006  -11.6464 C   0  0  0  0  0  0  0  0  0  0  0  0
   -8.2187    5.3567  -10.8456 C   0  0  0  0  0  0  0  0  0  0  0  0
   -8.3333    5.3931   -9.4898 N   0  0  0  0  0  0  0  0  0  0  0  0
   -8.5829    4.2026   -8.9195 C   0  0  0  0  0  0  0  0  0  0  0  0
   -8.7223    3.0141   -9.6063 C   0  0  0  0  0  0  0  0  0  0  0  0
   -8.5727    3.0020  -10.9800 C   0  0  0  0  0  0  0  0  0  0  0  0
   -9.0133    1.9115   -8.6474 C   0  0  0  0  0  0  0  0  0  0  0  0
   -9.3895    2.5782   -7.3740 N   0  0  0  0  0  0  0  0  0  0  0  0
   -8.7952    3.9365   -7.4535 C   0  0  0  0  0  0  0  0  0  0  0  0
   -8.7989    4.2968  -15.8149 C   0  0  0  0  0  0  0  0  0  0  0  0
   -8.9927    4.0304  -17.1647 C   0  0  0  0  0  0  0  0  0  0  0  0
  -10.1473    3.4840  -17.5626 F   0  0  0  0  0  0  0  0  0  0  0  0
   -8.0227    4.3175  -18.1085 C   0  0  0  0  0  0  0  0  0  0  0  0
   -6.8445    4.9099  -17.6404 C   0  0  0  0  0  0  0  0  0  0  0  0
  1  2  1  0
  2  3  1  0
  3  4  2  0
  4  5  1  0
  5  6  2  0
  6  7  1  0
  7  8  1  1
  7  9  1  0
  7 10  1  0
 10 11  1  0
 11 12  2  0
 12 13  1  0
 13 14  2  0
 14 15  1  0
 15 16  2  0
 15 17  1  0
 17 18  1  0
 18 19  1  0
  6 20  1  0
 20 21  2  0
 21 22  1  0
 21 23  1  0
 23 24  2  0
 24  2  1  0
 24  5  1  0
 16 11  1  0
 19 14  1  0
M  END
>  <smiles>  (1600) 
C23089-P202

>  <fragmenstein_outcome>  (1600) 
acceptable

>  <inchikey>  (1600) 
YHSDJOTVTCXVIK-UHFFFAOYSA-N

>  <fragmenstein_mode>  (1600) 
expansion

>  <HIPPO Pose ID>  (1600) 
22306

>  <Energy>  (1600) 
-49.419033

>  <fragmenstein_error>  (1600) 


>  <tags>  (1600) 
{'openbind_xx01zvns2b_c1_fragmenstein', 'fragmenstein_placed'}

>  <ref_pdb>  (1600) 
175

>  <scratch_subdir>  (1600) 
/opt/xchem-fragalysis-2/maxwin/BulkDock/SCRATCH/511028/C23089-P202

>  <alias>  (1600) 
Nn1ncc2c([C@@](O)(F)Nc3cnc4c(c3)CNC4)cc(F)cc21

>  <HIPPO Compound ID>  (1600) 
23089

>  <fragmenstein_runtime>  (1600) 
1.807452

$$$$
CC(C)Nn1ncc2c(C(=O)Nc3cnc4c(c3)CNC4)cc(F)cc21
     RDKit          3D

 26 29  0  0  0  0  0  0  0  0999 V2000
   -2.8798    5.2570  -19.7808 C   0  0  0  0  0  0  0  0  0  0  0  0
   -4.1234    6.1487  -19.8001 C   0  0  0  0  0  0  0  0  0  0  0  0
   -4.3679    6.6811  -21.2139 C   0  0  0  0  0  0  0  0  0  0  0  0
   -5.3206    5.4178  -19.3824 N   0  0  0  0  0  0  0  0  0  0  0  0
   -5.5368    5.3997  -17.9874 N   0  0  0  0  0  0  0  0  0  0  0  0
   -4.6735    5.8743  -17.0710 N   0  0  0  0  0  0  0  0  0  0  0  0
   -5.3272    5.7672  -15.9156 C   0  0  0  0  0  0  0  0  0  0  0  0
   -6.6044    5.1937  -16.0643 C   0  0  0  0  0  0  0  0  0  0  0  0
   -7.6788    4.8664  -15.2174 C   0  0  0  0  0  0  0  0  0  0  0  0
   -7.6337    5.2700  -13.7932 C   0  0  0  0  0  0  0  0  0  0  0  0
   -7.2815    6.3541  -13.5438 O   0  0  0  0  0  0  0  0  0  0  0  0
   -8.0759    4.1224  -12.8609 N   0  0  0  0  0  0  0  0  0  0  0  0
   -8.2617    4.0986  -11.4810 C   0  0  0  0  0  0  0  0  0  0  0  0
   -8.1193    5.2451  -10.6846 C   0  0  0  0  0  0  0  0  0  0  0  0
   -8.2932    5.2788   -9.3362 N   0  0  0  0  0  0  0  0  0  0  0  0
   -8.6124    4.0922   -8.7906 C   0  0  0  0  0  0  0  0  0  0  0  0
   -8.7722    2.9101   -9.4934 C   0  0  0  0  0  0  0  0  0  0  0  0
   -8.5949    2.8960  -10.8629 C   0  0  0  0  0  0  0  0  0  0  0  0
   -9.0856    1.8083   -8.5423 C   0  0  0  0  0  0  0  0  0  0  0  0
   -9.4911    2.4747   -7.2781 N   0  0  0  0  0  0  0  0  0  0  0  0
   -8.8613    3.8188   -7.3317 C   0  0  0  0  0  0  0  0  0  0  0  0
   -8.8189    4.2673  -15.7630 C   0  0  0  0  0  0  0  0  0  0  0  0
   -8.8947    4.0250  -17.1277 C   0  0  0  0  0  0  0  0  0  0  0  0
  -10.0075    3.4701  -17.6234 F   0  0  0  0  0  0  0  0  0  0  0  0
   -7.8602    4.3625  -17.9955 C   0  0  0  0  0  0  0  0  0  0  0  0
   -6.7136    4.9424  -17.4296 C   0  0  0  0  0  0  0  0  0  0  0  0
  1  2  1  0
  2  3  1  0
  2  4  1  0
  4  5  1  0
  5  6  1  0
  6  7  2  0
  7  8  1  0
  8  9  2  0
  9 10  1  0
 10 11  2  0
 10 12  1  0
 12 13  1  0
 13 14  2  0
 14 15  1  0
 15 16  2  0
 16 17  1  0
 17 18  2  0
 17 19  1  0
 19 20  1  0
 20 21  1  0
  9 22  1  0
 22 23  2  0
 23 24  1  0
 23 25  1  0
 25 26  2  0
 26  5  1  0
 26  8  1  0
 18 13  1  0
 21 16  1  0
M  END
>  <smiles>  (1601) 
C23093-P202

>  <fragmenstein_outcome>  (1601) 
acceptable

>  <inchikey>  (1601) 
WHGASIASLUMMOS-UHFFFAOYSA-N

>  <fragmenstein_mode>  (1601) 
expansion

>  <HIPPO Pose ID>  (1601) 
22308

>  <Energy>  (1601) 
28.500755

>  <fragmenstein_error>  (1601) 


>  <tags>  (1601) 
{'openbind_xx01zvns2b_c1_fragmenstein', 'fragmenstein_placed'}

>  <ref_pdb>  (1601) 
175

>  <scratch_subdir>  (1601) 
/opt/xchem-fragalysis-2/maxwin/BulkDock/SCRATCH/511028/C23093-P202

>  <alias>  (1601) 
CC(C)Nn1ncc2c(C(=O)Nc3cnc4c(c3)CNC4)cc(F)cc21

>  <HIPPO Compound ID>  (1601) 
19759

>  <fragmenstein_runtime>  (1601) 
5.543954

$$$$
NCn1ncc2c(C(=O)Nc3cnc4c(c3)CNC4)cc(F)cc21
     RDKit          3D

 24 27  0  0  0  0  0  0  0  0999 V2000
   -3.8352    5.5495  -19.9353 N   0  0  0  0  0  0  0  0  0  0  0  0
   -5.2866    5.4419  -19.7116 C   0  0  0  0  0  0  0  0  0  0  0  0
   -5.5712    5.4101  -18.2712 N   0  0  0  0  0  0  0  0  0  0  0  0
   -4.7018    5.9828  -17.3979 N   0  0  0  0  0  0  0  0  0  0  0  0
   -5.3131    5.8579  -16.2177 C   0  0  0  0  0  0  0  0  0  0  0  0
   -6.5739    5.2267  -16.3115 C   0  0  0  0  0  0  0  0  0  0  0  0
   -7.6125    4.8842  -15.4176 C   0  0  0  0  0  0  0  0  0  0  0  0
   -7.5341    5.3063  -13.9945 C   0  0  0  0  0  0  0  0  0  0  0  0
   -7.1113    6.3708  -13.7674 O   0  0  0  0  0  0  0  0  0  0  0  0
   -8.1105    4.2321  -13.0418 N   0  0  0  0  0  0  0  0  0  0  0  0
   -8.1958    4.2079  -11.6505 C   0  0  0  0  0  0  0  0  0  0  0  0
   -7.8972    5.3299  -10.8646 C   0  0  0  0  0  0  0  0  0  0  0  0
   -7.9772    5.3673   -9.5083 N   0  0  0  0  0  0  0  0  0  0  0  0
   -8.3675    4.2125   -8.9411 C   0  0  0  0  0  0  0  0  0  0  0  0
   -8.6781    3.0552   -9.6298 C   0  0  0  0  0  0  0  0  0  0  0  0
   -8.6033    3.0386  -11.0106 C   0  0  0  0  0  0  0  0  0  0  0  0
   -9.0829    1.9911   -8.6724 C   0  0  0  0  0  0  0  0  0  0  0  0
   -8.8317    2.5257   -7.3098 N   0  0  0  0  0  0  0  0  0  0  0  0
   -8.5659    3.9773   -7.4714 C   0  0  0  0  0  0  0  0  0  0  0  0
   -8.7629    4.2628  -15.9186 C   0  0  0  0  0  0  0  0  0  0  0  0
   -8.8744    3.9914  -17.2734 C   0  0  0  0  0  0  0  0  0  0  0  0
   -9.9950    3.4136  -17.7225 F   0  0  0  0  0  0  0  0  0  0  0  0
   -7.8686    4.3188  -18.1795 C   0  0  0  0  0  0  0  0  0  0  0  0
   -6.7187    4.9389  -17.6704 C   0  0  0  0  0  0  0  0  0  0  0  0
  1  2  1  0
  2  3  1  0
  3  4  1  0
  4  5  2  0
  5  6  1  0
  6  7  2  0
  7  8  1  0
  8  9  2  0
  8 10  1  0
 10 11  1  0
 11 12  2  0
 12 13  1  0
 13 14  2  0
 14 15  1  0
 15 16  2  0
 15 17  1  0
 17 18  1  0
 18 19  1  0
  7 20  1  0
 20 21  2  0
 21 22  1  0
 21 23  1  0
 23 24  2  0
 24  3  1  0
 24  6  1  0
 16 11  1  0
 19 14  1  0
M  END
>  <smiles>  (1602) 
C23096-P202

>  <fragmenstein_outcome>  (1602) 
acceptable

>  <inchikey>  (1602) 
XDTNOSCZQQUHGZ-UHFFFAOYSA-N

>  <fragmenstein_mode>  (1602) 
expansion

>  <HIPPO Pose ID>  (1602) 
22310

>  <Energy>  (1602) 
103.421558

>  <fragmenstein_error>  (1602) 


>  <tags>  (1602) 
{'openbind_xx01zvns2b_c1_fragmenstein', 'fragmenstein_placed'}

>  <ref_pdb>  (1602) 
175

>  <scratch_subdir>  (1602) 
/opt/xchem-fragalysis-2/maxwin/BulkDock/SCRATCH/511028/C23096-P202

>  <alias>  (1602) 
NCn1ncc2c(C(=O)Nc3cnc4c(c3)CNC4)cc(F)cc21

>  <HIPPO Compound ID>  (1602) 
23096

>  <fragmenstein_runtime>  (1602) 
3.815273

$$$$
Nn1ncc2c(C(=O)Nc3cnc4c(c3)CNC4)cc(F)cc21
     RDKit          3D

 23 26  0  0  0  0  0  0  0  0999 V2000
   -5.1006    5.1598  -19.3651 N   0  0  0  0  0  0  0  0  0  0  0  0
   -5.5027    5.3711  -18.0565 N   0  0  0  0  0  0  0  0  0  0  0  0
   -4.7297    6.0501  -17.2015 N   0  0  0  0  0  0  0  0  0  0  0  0
   -5.3883    5.9690  -16.0448 C   0  0  0  0  0  0  0  0  0  0  0  0
   -6.6247    5.2999  -16.1678 C   0  0  0  0  0  0  0  0  0  0  0  0
   -7.6903    4.9570  -15.3138 C   0  0  0  0  0  0  0  0  0  0  0  0
   -7.6501    5.3810  -13.8946 C   0  0  0  0  0  0  0  0  0  0  0  0
   -7.2854    6.4634  -13.6552 O   0  0  0  0  0  0  0  0  0  0  0  0
   -8.0749    4.2355  -12.9493 N   0  0  0  0  0  0  0  0  0  0  0  0
   -8.2248    4.2138  -11.5656 C   0  0  0  0  0  0  0  0  0  0  0  0
   -8.0011    5.3472  -10.7710 C   0  0  0  0  0  0  0  0  0  0  0  0
   -8.1072    5.3744   -9.4166 N   0  0  0  0  0  0  0  0  0  0  0  0
   -8.4477    4.1978   -8.8622 C   0  0  0  0  0  0  0  0  0  0  0  0
   -8.6913    3.0309   -9.5618 C   0  0  0  0  0  0  0  0  0  0  0  0
   -8.5873    3.0232  -10.9398 C   0  0  0  0  0  0  0  0  0  0  0  0
   -9.0547    1.9409   -8.6181 C   0  0  0  0  0  0  0  0  0  0  0  0
   -8.8491    2.4776   -7.2486 N   0  0  0  0  0  0  0  0  0  0  0  0
   -8.6435    3.9404   -7.3962 C   0  0  0  0  0  0  0  0  0  0  0  0
   -8.8014    4.2920  -15.8431 C   0  0  0  0  0  0  0  0  0  0  0  0
   -8.8487    3.9800  -17.1950 C   0  0  0  0  0  0  0  0  0  0  0  0
   -9.9387    3.3675  -17.6735 F   0  0  0  0  0  0  0  0  0  0  0  0
   -7.8040    4.2886  -18.0624 C   0  0  0  0  0  0  0  0  0  0  0  0
   -6.6924    4.9473  -17.5140 C   0  0  0  0  0  0  0  0  0  0  0  0
  1  2  1  0
  2  3  1  0
  3  4  2  0
  4  5  1  0
  5  6  2  0
  6  7  1  0
  7  8  2  0
  7  9  1  0
  9 10  1  0
 10 11  2  0
 11 12  1  0
 12 13  2  0
 13 14  1  0
 14 15  2  0
 14 16  1  0
 16 17  1  0
 17 18  1  0
  6 19  1  0
 19 20  2  0
 20 21  1  0
 20 22  1  0
 22 23  2  0
 23  2  1  0
 23  5  1  0
 15 10  1  0
 18 13  1  0
M  END
>  <smiles>  (1603) 
C23098-P202

>  <fragmenstein_outcome>  (1603) 
acceptable

>  <inchikey>  (1603) 
WHSDZHDCMZBWQW-UHFFFAOYSA-N

>  <fragmenstein_mode>  (1603) 
expansion

>  <HIPPO Pose ID>  (1603) 
22311

>  <Energy>  (1603) 
18.913832

>  <fragmenstein_error>  (1603) 


>  <tags>  (1603) 
{'openbind_xx01zvns2b_c1_fragmenstein', 'fragmenstein_placed'}

>  <ref_pdb>  (1603) 
175

>  <scratch_subdir>  (1603) 
/opt/xchem-fragalysis-2/maxwin/BulkDock/SCRATCH/511028/C23098-P202

>  <alias>  (1603) 
Nn1ncc2c(C(=O)Nc3cnc4c(c3)CNC4)cc(F)cc21

>  <HIPPO Compound ID>  (1603) 
19986

>  <fragmenstein_runtime>  (1603) 
2.457535

$$$$
O=C(Nc1cnc2c(c1)CNC2)c1cc(F)cc2c1[C@H](O)[C@@]1(CSCN1)N2
     RDKit          3D

 27 31  0  0  0  0  0  0  0  0999 V2000
   -7.0559    6.2937  -13.6425 O   0  0  0  0  0  0  0  0  0  0  0  0
   -7.4861    5.2384  -13.8981 C   0  0  0  0  0  0  0  0  0  0  0  0
   -8.1000    4.1573  -12.9794 N   0  0  0  0  0  0  0  0  0  0  0  0
   -8.2221    4.1114  -11.5911 C   0  0  0  0  0  0  0  0  0  0  0  0
   -7.9959    5.2387  -10.7866 C   0  0  0  0  0  0  0  0  0  0  0  0
   -8.1412    5.2685   -9.4353 N   0  0  0  0  0  0  0  0  0  0  0  0
   -8.5175    4.0976   -8.8922 C   0  0  0  0  0  0  0  0  0  0  0  0
   -8.7502    2.9312   -9.6005 C   0  0  0  0  0  0  0  0  0  0  0  0
   -8.6081    2.9228  -10.9753 C   0  0  0  0  0  0  0  0  0  0  0  0
   -9.1025    1.8396   -8.6504 C   0  0  0  0  0  0  0  0  0  0  0  0
   -9.4514    2.5135   -7.3750 N   0  0  0  0  0  0  0  0  0  0  0  0
   -8.7721    3.8332   -7.4324 C   0  0  0  0  0  0  0  0  0  0  0  0
   -7.5605    4.8633  -15.3380 C   0  0  0  0  0  0  0  0  0  0  0  0
   -8.7319    4.2866  -15.8420 C   0  0  0  0  0  0  0  0  0  0  0  0
   -8.8552    4.0265  -17.2056 C   0  0  0  0  0  0  0  0  0  0  0  0
   -9.9864    3.4712  -17.6575 F   0  0  0  0  0  0  0  0  0  0  0  0
   -7.8342    4.3330  -18.0927 C   0  0  0  0  0  0  0  0  0  0  0  0
   -6.6855    4.9248  -17.5943 C   0  0  0  0  0  0  0  0  0  0  0  0
   -6.5394    5.1895  -16.2324 C   0  0  0  0  0  0  0  0  0  0  0  0
   -5.1957    5.8189  -15.9981 C   0  0  2  0  0  0  0  0  0  0  0  0
   -5.3385    7.1102  -15.3973 O   0  0  0  0  0  0  0  0  0  0  0  0
   -4.6129    5.9520  -17.4974 C   0  0  2  0  0  0  0  0  0  0  0  0
   -3.2328    5.2655  -17.6180 C   0  0  0  0  0  0  0  0  0  0  0  0
   -2.0069    6.4912  -17.1228 S   0  0  0  0  0  0  0  0  0  0  0  0
   -3.1627    7.8485  -17.2976 C   0  0  0  0  0  0  0  0  0  0  0  0
   -4.4121    7.3691  -17.8874 N   0  0  0  0  0  0  0  0  0  0  0  0
   -5.5431    5.2008  -18.3545 N   0  0  0  0  0  0  0  0  0  0  0  0
  1  2  2  0
  2  3  1  0
  3  4  1  0
  4  5  2  0
  5  6  1  0
  6  7  2  0
  7  8  1  0
  8  9  2  0
  8 10  1  0
 10 11  1  0
 11 12  1  0
  2 13  1  0
 13 14  2  0
 14 15  1  0
 15 16  1  0
 15 17  2  0
 17 18  1  0
 18 19  2  0
 19 20  1  0
 20 21  1  6
 20 22  1  0
 22 23  1  1
 23 24  1  0
 24 25  1  0
 25 26  1  0
 22 27  1  0
  9  4  1  0
 19 13  1  0
 26 22  1  0
 12  7  1  0
 27 18  1  0
M  END
>  <smiles>  (1604) 
C23108-P202

>  <fragmenstein_outcome>  (1604) 
acceptable

>  <inchikey>  (1604) 
RDOBDGZSSKGTHU-UHFFFAOYSA-N

>  <fragmenstein_mode>  (1604) 
expansion

>  <HIPPO Pose ID>  (1604) 
22312

>  <Energy>  (1604) 
74.479727

>  <fragmenstein_error>  (1604) 


>  <tags>  (1604) 
{'openbind_xx01zvns2b_c1_fragmenstein', 'fragmenstein_placed'}

>  <ref_pdb>  (1604) 
175

>  <scratch_subdir>  (1604) 
/opt/xchem-fragalysis-2/maxwin/BulkDock/SCRATCH/511028/C23108-P202

>  <alias>  (1604) 
O=C(Nc1cnc2c(c1)CNC2)c1cc(F)cc2c1[C@H](O)[C@@]1(CSCN1)N2

>  <HIPPO Compound ID>  (1604) 
36163

>  <fragmenstein_runtime>  (1604) 
4.043453

$$$$
CCOc1n[nH]c2cc(F)cc(C(=O)Nc3cnc4c(c3)CNC4)c12
     RDKit          3D

 25 28  0  0  0  0  0  0  0  0999 V2000
   -3.5246    7.8884  -16.0034 C   0  0  0  0  0  0  0  0  0  0  0  0
   -3.2746    6.3936  -15.8794 C   0  0  0  0  0  0  0  0  0  0  0  0
   -4.4792    5.6893  -15.5900 O   0  0  0  0  0  0  0  0  0  0  0  0
   -5.2897    5.4439  -16.6403 C   0  0  0  0  0  0  0  0  0  0  0  0
   -4.8211    5.5423  -17.8871 N   0  0  0  0  0  0  0  0  0  0  0  0
   -5.8476    5.0998  -18.6378 N   0  0  0  0  0  0  0  0  0  0  0  0
   -6.9496    4.7404  -17.9064 C   0  0  0  0  0  0  0  0  0  0  0  0
   -8.1804    4.2281  -18.3195 C   0  0  0  0  0  0  0  0  0  0  0  0
   -9.1175    3.9741  -17.3310 C   0  0  0  0  0  0  0  0  0  0  0  0
  -10.3181    3.4988  -17.6793 F   0  0  0  0  0  0  0  0  0  0  0  0
   -8.8574    4.2293  -15.9941 C   0  0  0  0  0  0  0  0  0  0  0  0
   -7.6139    4.7438  -15.5889 C   0  0  0  0  0  0  0  0  0  0  0  0
   -7.4642    5.1986  -14.1809 C   0  0  0  0  0  0  0  0  0  0  0  0
   -7.0570    6.2779  -13.9938 O   0  0  0  0  0  0  0  0  0  0  0  0
   -7.9949    4.1367  -13.1810 N   0  0  0  0  0  0  0  0  0  0  0  0
   -8.0429    4.1495  -11.7864 C   0  0  0  0  0  0  0  0  0  0  0  0
   -7.6712    5.2671  -11.0271 C   0  0  0  0  0  0  0  0  0  0  0  0
   -7.7602    5.3462   -9.6708 N   0  0  0  0  0  0  0  0  0  0  0  0
   -8.2325    4.2366   -9.0750 C   0  0  0  0  0  0  0  0  0  0  0  0
   -8.6130    3.0838   -9.7345 C   0  0  0  0  0  0  0  0  0  0  0  0
   -8.5313    3.0279  -11.1144 C   0  0  0  0  0  0  0  0  0  0  0  0
   -9.0995    2.0774   -8.7519 C   0  0  0  0  0  0  0  0  0  0  0  0
   -8.8047    2.6244   -7.4021 N   0  0  0  0  0  0  0  0  0  0  0  0
   -8.4625    4.0560   -7.6015 C   0  0  0  0  0  0  0  0  0  0  0  0
   -6.6293    4.9912  -16.5713 C   0  0  0  0  0  0  0  0  0  0  0  0
  1  2  1  0
  2  3  1  0
  3  4  1  0
  4  5  2  0
  5  6  1  0
  6  7  1  0
  7  8  2  0
  8  9  1  0
  9 10  1  0
  9 11  2  0
 11 12  1  0
 12 13  1  0
 13 14  2  0
 13 15  1  0
 15 16  1  0
 16 17  2  0
 17 18  1  0
 18 19  2  0
 19 20  1  0
 20 21  2  0
 20 22  1  0
 22 23  1  0
 23 24  1  0
 12 25  2  0
 25  4  1  0
 25  7  1  0
 21 16  1  0
 24 19  1  0
M  END
>  <smiles>  (1605) 
C23116-P202

>  <fragmenstein_outcome>  (1605) 
acceptable

>  <inchikey>  (1605) 
JCANJUUGNYPHQV-UHFFFAOYSA-N

>  <fragmenstein_mode>  (1605) 
expansion

>  <HIPPO Pose ID>  (1605) 
22314

>  <Energy>  (1605) 
66.23439

>  <fragmenstein_error>  (1605) 


>  <tags>  (1605) 
{'openbind_xx01zvns2b_c1_fragmenstein', 'fragmenstein_placed'}

>  <ref_pdb>  (1605) 
175

>  <scratch_subdir>  (1605) 
/opt/xchem-fragalysis-2/maxwin/BulkDock/SCRATCH/511028/C23116-P202

>  <alias>  (1605) 
CCOc1n[nH]c2cc(F)cc(C(=O)Nc3cnc4c(c3)CNC4)c12

>  <HIPPO Compound ID>  (1605) 
23730

>  <fragmenstein_runtime>  (1605) 
3.445175

$$$$
CS(=O)(=O)[C@H]1NCC[C@@]12NCc1c(C(=O)Nc3cnc4c(c3)CNC4)cc(F)cc12
     RDKit          3D

 30 34  0  0  0  0  0  0  0  0999 V2000
   -4.4339    7.8324  -21.5145 C   0  0  0  0  0  0  0  0  0  0  0  0
   -4.6251    7.9335  -19.7504 S   0  0  0  0  0  0  0  0  0  0  0  0
   -3.2954    8.1159  -19.1913 O   0  0  0  0  0  0  0  0  0  0  0  0
   -5.6560    8.9344  -19.5069 O   0  0  0  0  0  0  0  0  0  0  0  0
   -5.2686    6.2938  -19.3193 C   0  0  1  0  0  0  0  0  0  0  0  0
   -4.5456    5.1566  -19.9675 N   0  0  0  0  0  0  0  0  0  0  0  0
   -3.3934    4.9321  -19.0956 C   0  0  0  0  0  0  0  0  0  0  0  0
   -3.8708    5.2068  -17.6792 C   0  0  0  0  0  0  0  0  0  0  0  0
   -5.1893    6.0009  -17.8050 C   0  0  1  0  0  0  0  0  0  0  0  0
   -5.1171    7.1221  -16.8432 N   0  0  0  0  0  0  0  0  0  0  0  0
   -5.5627    6.5935  -15.5410 C   0  0  0  0  0  0  0  0  0  0  0  0
   -6.6010    5.5927  -15.9273 C   0  0  0  0  0  0  0  0  0  0  0  0
   -7.6589    5.0908  -15.1738 C   0  0  0  0  0  0  0  0  0  0  0  0
   -7.8470    5.5013  -13.7572 C   0  0  0  0  0  0  0  0  0  0  0  0
   -7.7631    6.6350  -13.4963 O   0  0  0  0  0  0  0  0  0  0  0  0
   -8.1521    4.2862  -12.8538 N   0  0  0  0  0  0  0  0  0  0  0  0
   -8.3179    4.2043  -11.4729 C   0  0  0  0  0  0  0  0  0  0  0  0
   -8.2098    5.3289  -10.6406 C   0  0  0  0  0  0  0  0  0  0  0  0
   -8.3565    5.3101   -9.2892 N   0  0  0  0  0  0  0  0  0  0  0  0
   -8.6330    4.0976   -8.7794 C   0  0  0  0  0  0  0  0  0  0  0  0
   -8.7649    2.9345   -9.5190 C   0  0  0  0  0  0  0  0  0  0  0  0
   -8.5955    2.9692  -10.8901 C   0  0  0  0  0  0  0  0  0  0  0  0
   -9.0626    1.7991   -8.6020 C   0  0  0  0  0  0  0  0  0  0  0  0
   -9.4746    2.4181   -7.3167 N   0  0  0  0  0  0  0  0  0  0  0  0
   -8.8735    3.7755   -7.3292 C   0  0  0  0  0  0  0  0  0  0  0  0
   -8.6054    4.2930  -15.8145 C   0  0  0  0  0  0  0  0  0  0  0  0
   -8.4587    3.9979  -17.1701 C   0  0  0  0  0  0  0  0  0  0  0  0
   -9.4215    3.2842  -17.7704 F   0  0  0  0  0  0  0  0  0  0  0  0
   -7.3599    4.4473  -17.9105 C   0  0  0  0  0  0  0  0  0  0  0  0
   -6.4128    5.2442  -17.2766 C   0  0  0  0  0  0  0  0  0  0  0  0
  1  2  1  0
  2  3  2  0
  2  4  2  0
  5  2  1  1
  5  6  1  0
  6  7  1  0
  7  8  1  0
  9  8  1  6
  9 10  1  0
 10 11  1  0
 11 12  1  0
 12 13  2  0
 13 14  1  0
 14 15  2  0
 14 16  1  0
 16 17  1  0
 17 18  2  0
 18 19  1  0
 19 20  2  0
 20 21  1  0
 21 22  2  0
 21 23  1  0
 23 24  1  0
 24 25  1  0
 13 26  1  0
 26 27  2  0
 27 28  1  0
 27 29  1  0
 29 30  2  0
  9  5  1  0
 30 12  1  0
 30  9  1  0
 22 17  1  0
 25 20  1  0
M  END
>  <smiles>  (1606) 
C23117-P202

>  <fragmenstein_outcome>  (1606) 
acceptable

>  <inchikey>  (1606) 
HGFBUWODPQNGMU-UHFFFAOYSA-N

>  <fragmenstein_mode>  (1606) 
expansion

>  <HIPPO Pose ID>  (1606) 
22315

>  <Energy>  (1606) 
180.268919

>  <fragmenstein_error>  (1606) 


>  <tags>  (1606) 
{'openbind_xx01zvns2b_c1_fragmenstein', 'fragmenstein_placed'}

>  <ref_pdb>  (1606) 
175

>  <scratch_subdir>  (1606) 
/opt/xchem-fragalysis-2/maxwin/BulkDock/SCRATCH/511028/C23117-P202

>  <alias>  (1606) 
CS(=O)(=O)[C@H]1NCC[C@@]12NCc1c(C(=O)Nc3cnc4c(c3)CNC4)cc(F)cc12

>  <HIPPO Compound ID>  (1606) 
35566

>  <fragmenstein_runtime>  (1606) 
4.811175

$$$$
O=C(Nc1cnc2c(c1)CNC2)c1cc(F)cc2c1cnn2CCc1ccc(CNc2nc3ccccc3[nH]2)c(O)c1
     RDKit          3D

 42 48  0  0  0  0  0  0  0  0999 V2000
   -7.4920    6.3717  -13.6983 O   0  0  0  0  0  0  0  0  0  0  0  0
   -7.7520    5.2570  -13.9271 C   0  0  0  0  0  0  0  0  0  0  0  0
   -8.1976    4.1187  -12.9829 N   0  0  0  0  0  0  0  0  0  0  0  0
   -8.3207    4.0898  -11.5946 C   0  0  0  0  0  0  0  0  0  0  0  0
   -8.1160    5.2304  -10.8028 C   0  0  0  0  0  0  0  0  0  0  0  0
   -8.2405    5.2674   -9.4492 N   0  0  0  0  0  0  0  0  0  0  0  0
   -8.5757    4.0914   -8.8911 C   0  0  0  0  0  0  0  0  0  0  0  0
   -8.7871    2.9131   -9.5863 C   0  0  0  0  0  0  0  0  0  0  0  0
   -8.6609    2.8958  -10.9625 C   0  0  0  0  0  0  0  0  0  0  0  0
   -9.1005    1.8220   -8.6221 C   0  0  0  0  0  0  0  0  0  0  0  0
   -9.4518    2.4998   -7.3493 N   0  0  0  0  0  0  0  0  0  0  0  0
   -8.7992    3.8319   -7.4254 C   0  0  0  0  0  0  0  0  0  0  0  0
   -7.7286    4.8285  -15.3443 C   0  0  0  0  0  0  0  0  0  0  0  0
   -8.8456    4.2338  -15.9333 C   0  0  0  0  0  0  0  0  0  0  0  0
   -8.8620    3.9939  -17.2991 C   0  0  0  0  0  0  0  0  0  0  0  0
   -9.9573    3.4401  -17.8341 F   0  0  0  0  0  0  0  0  0  0  0  0
   -7.7899    4.3293  -18.1279 C   0  0  0  0  0  0  0  0  0  0  0  0
   -6.6641    4.9054  -17.5216 C   0  0  0  0  0  0  0  0  0  0  0  0
   -6.6157    5.1483  -16.1457 C   0  0  0  0  0  0  0  0  0  0  0  0
   -5.3421    5.7088  -15.9243 C   0  0  0  0  0  0  0  0  0  0  0  0
   -4.6284    5.8151  -17.0429 N   0  0  0  0  0  0  0  0  0  0  0  0
   -5.4629    5.3664  -18.0085 N   0  0  0  0  0  0  0  0  0  0  0  0
   -5.0318    5.5147  -19.3955 C   0  0  0  0  0  0  0  0  0  0  0  0
   -4.7796    7.0023  -19.7008 C   0  0  0  0  0  0  0  0  0  0  0  0
   -4.2180    7.3461  -21.0595 C   0  0  0  0  0  0  0  0  0  0  0  0
   -4.7026    8.4567  -21.7624 C   0  0  0  0  0  0  0  0  0  0  0  0
   -4.1513    8.8312  -22.9916 C   0  0  0  0  0  0  0  0  0  0  0  0
   -3.0768    8.1205  -23.5457 C   0  0  0  0  0  0  0  0  0  0  0  0
   -2.5112    8.5612  -24.8733 C   0  0  0  0  0  0  0  0  0  0  0  0
   -3.1456    7.8400  -25.9667 N   0  0  0  0  0  0  0  0  0  0  0  0
   -2.6154    6.6694  -26.3679 C   0  0  0  0  0  0  0  0  0  0  0  0
   -1.4625    6.1420  -26.0245 N   0  0  0  0  0  0  0  0  0  0  0  0
   -1.4156    4.9237  -26.6637 C   0  0  0  0  0  0  0  0  0  0  0  0
   -0.4209    3.9356  -26.6380 C   0  0  0  0  0  0  0  0  0  0  0  0
   -0.6288    2.7569  -27.3660 C   0  0  0  0  0  0  0  0  0  0  0  0
   -1.8005    2.5677  -28.1041 C   0  0  0  0  0  0  0  0  0  0  0  0
   -2.8020    3.5448  -28.1451 C   0  0  0  0  0  0  0  0  0  0  0  0
   -2.5692    4.7076  -27.4088 C   0  0  0  0  0  0  0  0  0  0  0  0
   -3.3123    5.8422  -27.2079 N   0  0  0  0  0  0  0  0  0  0  0  0
   -2.5854    7.0261  -22.8286 C   0  0  0  0  0  0  0  0  0  0  0  0
   -1.5822    6.2132  -23.2835 O   0  0  0  0  0  0  0  0  0  0  0  0
   -3.1311    6.6534  -21.5956 C   0  0  0  0  0  0  0  0  0  0  0  0
  1  2  2  0
  2  3  1  0
  3  4  1  0
  4  5  2  0
  5  6  1  0
  6  7  2  0
  7  8  1  0
  8  9  2  0
  8 10  1  0
 10 11  1  0
 11 12  1  0
  2 13  1  0
 13 14  2  0
 14 15  1  0
 15 16  1  0
 15 17  2  0
 17 18  1  0
 18 19  2  0
 19 20  1  0
 20 21  2  0
 21 22  1  0
 22 23  1  0
 23 24  1  0
 24 25  1  0
 25 26  2  0
 26 27  1  0
 27 28  2  0
 28 29  1  0
 29 30  1  0
 30 31  1  0
 31 32  2  0
 32 33  1  0
 33 34  2  0
 34 35  1  0
 35 36  2  0
 36 37  1  0
 37 38  2  0
 38 39  1  0
 28 40  1  0
 40 41  1  0
 40 42  2  0
  9  4  1  0
 19 13  1  0
 42 25  1  0
 12  7  1  0
 22 18  1  0
 39 31  1  0
 38 33  1  0
M  END
>  <smiles>  (1607) 
C23119-P202

>  <fragmenstein_outcome>  (1607) 
acceptable

>  <inchikey>  (1607) 
NRDATPPBHBZGMZ-UHFFFAOYSA-N

>  <fragmenstein_mode>  (1607) 
expansion

>  <HIPPO Pose ID>  (1607) 
22316

>  <Energy>  (1607) 
66.165704

>  <fragmenstein_error>  (1607) 


>  <tags>  (1607) 
{'openbind_xx01zvns2b_c1_fragmenstein', 'fragmenstein_placed'}

>  <ref_pdb>  (1607) 
175

>  <scratch_subdir>  (1607) 
/opt/xchem-fragalysis-2/maxwin/BulkDock/SCRATCH/511028/C23119-P202

>  <alias>  (1607) 
O=C(Nc1cnc2c(c1)CNC2)c1cc(F)cc2c1cnn2CCc1ccc(CNc2nc3ccccc3[nH]2)c(O)c1

>  <HIPPO Compound ID>  (1607) 
23119

>  <fragmenstein_runtime>  (1607) 
14.534933

$$$$
O=C(Nc1cnc2c(c1)CNC2)c1cc(F)c(O)c2c1cnn2C(=O)c1ccncc1F
     RDKit          3D

 32 36  0  0  0  0  0  0  0  0999 V2000
   -7.3754    6.3467  -13.8810 O   0  0  0  0  0  0  0  0  0  0  0  0
   -7.6567    5.2359  -14.1034 C   0  0  0  0  0  0  0  0  0  0  0  0
   -7.9784    4.0733  -13.1406 N   0  0  0  0  0  0  0  0  0  0  0  0
   -8.1098    4.0568  -11.7535 C   0  0  0  0  0  0  0  0  0  0  0  0
   -7.9725    5.2182  -10.9830 C   0  0  0  0  0  0  0  0  0  0  0  0
   -8.0947    5.2699   -9.6311 N   0  0  0  0  0  0  0  0  0  0  0  0
   -8.3686    4.0912   -9.0486 C   0  0  0  0  0  0  0  0  0  0  0  0
   -8.5100    2.8937   -9.7204 C   0  0  0  0  0  0  0  0  0  0  0  0
   -8.3742    2.8569  -11.0972 C   0  0  0  0  0  0  0  0  0  0  0  0
   -8.8361    1.8093   -8.7563 C   0  0  0  0  0  0  0  0  0  0  0  0
   -8.8040    2.4121   -7.3983 N   0  0  0  0  0  0  0  0  0  0  0  0
   -8.5935    3.8689   -7.5820 C   0  0  0  0  0  0  0  0  0  0  0  0
   -7.6351    4.7942  -15.5164 C   0  0  0  0  0  0  0  0  0  0  0  0
   -8.7244    4.1459  -16.0947 C   0  0  0  0  0  0  0  0  0  0  0  0
   -8.6875    3.8203  -17.4423 C   0  0  0  0  0  0  0  0  0  0  0  0
   -9.7575    3.1972  -17.9542 F   0  0  0  0  0  0  0  0  0  0  0  0
   -7.5877    4.1381  -18.2569 C   0  0  0  0  0  0  0  0  0  0  0  0
   -7.5943    3.7030  -19.5565 O   0  0  0  0  0  0  0  0  0  0  0  0
   -6.5086    4.8307  -17.6779 C   0  0  0  0  0  0  0  0  0  0  0  0
   -6.5209    5.1356  -16.3109 C   0  0  0  0  0  0  0  0  0  0  0  0
   -5.2845    5.7593  -16.0628 C   0  0  0  0  0  0  0  0  0  0  0  0
   -4.5529    5.9031  -17.1609 N   0  0  0  0  0  0  0  0  0  0  0  0
   -5.3203    5.3736  -18.1597 N   0  0  0  0  0  0  0  0  0  0  0  0
   -4.8411    5.5354  -19.4775 C   0  0  0  0  0  0  0  0  0  0  0  0
   -5.4051    4.9475  -20.3894 O   0  0  0  0  0  0  0  0  0  0  0  0
   -3.7353    6.4629  -19.8224 C   0  0  0  0  0  0  0  0  0  0  0  0
   -3.7352    7.7734  -19.3290 C   0  0  0  0  0  0  0  0  0  0  0  0
   -2.7069    8.6199  -19.7084 C   0  0  0  0  0  0  0  0  0  0  0  0
   -1.7139    8.2564  -20.5467 N   0  0  0  0  0  0  0  0  0  0  0  0
   -1.7469    6.9887  -21.0164 C   0  0  0  0  0  0  0  0  0  0  0  0
   -2.7247    6.0673  -20.6861 C   0  0  0  0  0  0  0  0  0  0  0  0
   -2.6498    4.8305  -21.1909 F   0  0  0  0  0  0  0  0  0  0  0  0
  1  2  2  0
  2  3  1  0
  3  4  1  0
  4  5  2  0
  5  6  1  0
  6  7  2  0
  7  8  1  0
  8  9  2  0
  8 10  1  0
 10 11  1  0
 11 12  1  0
  2 13  1  0
 13 14  2  0
 14 15  1  0
 15 16  1  0
 15 17  2  0
 17 18  1  0
 17 19  1  0
 19 20  2  0
 20 21  1  0
 21 22  2  0
 22 23  1  0
 23 24  1  0
 24 25  2  0
 24 26  1  0
 26 27  2  0
 27 28  1  0
 28 29  2  0
 29 30  1  0
 30 31  2  0
 31 32  1  0
  9  4  1  0
 20 13  1  0
 31 26  1  0
 12  7  1  0
 23 19  1  0
M  END
>  <smiles>  (1608) 
C23120-P202

>  <fragmenstein_outcome>  (1608) 
acceptable

>  <inchikey>  (1608) 
LSGUELPRTKGABD-UHFFFAOYSA-N

>  <fragmenstein_mode>  (1608) 
expansion

>  <HIPPO Pose ID>  (1608) 
22317

>  <Energy>  (1608) 
140.761856

>  <fragmenstein_error>  (1608) 


>  <tags>  (1608) 
{'openbind_xx01zvns2b_c1_fragmenstein', 'fragmenstein_placed'}

>  <ref_pdb>  (1608) 
175

>  <scratch_subdir>  (1608) 
/opt/xchem-fragalysis-2/maxwin/BulkDock/SCRATCH/511028/C23120-P202

>  <alias>  (1608) 
O=C(Nc1cnc2c(c1)CNC2)c1cc(F)c(O)c2c1cnn2C(=O)c1ccncc1F

>  <HIPPO Compound ID>  (1608) 
29575

>  <fragmenstein_runtime>  (1608) 
6.881332

$$$$
CN1N[C@]2(CCOC2)c2c(C(=O)Nc3cnc4c(c3)CNC4)cc(F)c(Cl)c21
     RDKit          3D

 28 32  0  0  0  0  0  0  0  0999 V2000
   -5.2664    5.5978  -19.4560 C   0  0  0  0  0  0  0  0  0  0  0  0
   -5.3206    5.3826  -18.0124 N   0  0  0  0  0  0  0  0  0  0  0  0
   -4.5728    6.2563  -17.1708 N   0  0  0  0  0  0  0  0  0  0  0  0
   -5.1120    6.0382  -15.7844 C   0  0  1  0  0  0  0  0  0  0  0  0
   -4.1160    5.1414  -15.0663 C   0  0  0  0  0  0  0  0  0  0  0  0
   -2.9818    6.0911  -14.7274 C   0  0  0  0  0  0  0  0  0  0  0  0
   -3.5373    7.4143  -14.6357 O   0  0  0  0  0  0  0  0  0  0  0  0
   -4.9413    7.3222  -14.9647 C   0  0  0  0  0  0  0  0  0  0  0  0
   -6.4634    5.4127  -16.0123 C   0  0  0  0  0  0  0  0  0  0  0  0
   -7.5388    5.1401  -15.1667 C   0  0  0  0  0  0  0  0  0  0  0  0
   -7.6313    5.5724  -13.7559 C   0  0  0  0  0  0  0  0  0  0  0  0
   -7.5475    6.7092  -13.5137 O   0  0  0  0  0  0  0  0  0  0  0  0
   -7.9343    4.3724  -12.8333 N   0  0  0  0  0  0  0  0  0  0  0  0
   -8.0979    4.3126  -11.4535 C   0  0  0  0  0  0  0  0  0  0  0  0
   -7.9564    5.4345  -10.6267 C   0  0  0  0  0  0  0  0  0  0  0  0
   -8.1105    5.4193   -9.2771 N   0  0  0  0  0  0  0  0  0  0  0  0
   -8.4321    4.2176   -8.7653 C   0  0  0  0  0  0  0  0  0  0  0  0
   -8.6059    3.0613   -9.5019 C   0  0  0  0  0  0  0  0  0  0  0  0
   -8.4355    3.0914  -10.8720 C   0  0  0  0  0  0  0  0  0  0  0  0
   -8.9914    1.9399   -8.6048 C   0  0  0  0  0  0  0  0  0  0  0  0
   -8.8597    2.4460   -7.2151 N   0  0  0  0  0  0  0  0  0  0  0  0
   -8.6851    3.9168   -7.3161 C   0  0  0  0  0  0  0  0  0  0  0  0
   -8.6633    4.4806  -15.6751 C   0  0  0  0  0  0  0  0  0  0  0  0
   -8.6881    4.0569  -16.9943 C   0  0  0  0  0  0  0  0  0  0  0  0
   -9.7757    3.3989  -17.4238 F   0  0  0  0  0  0  0  0  0  0  0  0
   -7.6058    4.2828  -17.8407 C   0  0  0  0  0  0  0  0  0  0  0  0
   -7.6449    3.5290  -19.3720 Cl  0  0  0  0  0  0  0  0  0  0  0  0
   -6.5075    5.0022  -17.3662 C   0  0  0  0  0  0  0  0  0  0  0  0
  1  2  1  0
  2  3  1  0
  3  4  1  0
  4  5  1  1
  5  6  1  0
  6  7  1  0
  7  8  1  0
  4  9  1  0
  9 10  2  0
 10 11  1  0
 11 12  2  0
 11 13  1  0
 13 14  1  0
 14 15  2  0
 15 16  1  0
 16 17  2  0
 17 18  1  0
 18 19  2  0
 18 20  1  0
 20 21  1  0
 21 22  1  0
 10 23  1  0
 23 24  2  0
 24 25  1  0
 24 26  1  0
 26 27  1  0
 26 28  2  0
 28  2  1  0
  8  4  1  0
 28  9  1  0
 19 14  1  0
 22 17  1  0
M  END
>  <smiles>  (1609) 
C23121-P202

>  <fragmenstein_outcome>  (1609) 
acceptable

>  <inchikey>  (1609) 
VUYVWVNJRZBDRV-UHFFFAOYSA-N

>  <fragmenstein_mode>  (1609) 
expansion

>  <HIPPO Pose ID>  (1609) 
22318

>  <Energy>  (1609) 
154.510197

>  <fragmenstein_error>  (1609) 


>  <tags>  (1609) 
{'openbind_xx01zvns2b_c1_fragmenstein', 'fragmenstein_placed'}

>  <ref_pdb>  (1609) 
175

>  <scratch_subdir>  (1609) 
/opt/xchem-fragalysis-2/maxwin/BulkDock/SCRATCH/511028/C23121-P202

>  <alias>  (1609) 
CN1N[C@]2(CCOC2)c2c(C(=O)Nc3cnc4c(c3)CNC4)cc(F)c(Cl)c21

>  <HIPPO Compound ID>  (1609) 
23121

>  <fragmenstein_runtime>  (1609) 
5.287252

$$$$
COCn1cc2c(C(=O)Nc3cnc4c(c3)CNC4)cc(F)cc2n1
     RDKit          3D

 25 28  0  0  0  0  0  0  0  0999 V2000
   -1.2665    6.6914  -18.0453 C   0  0  0  0  0  0  0  0  0  0  0  0
   -2.4544    6.3092  -17.3623 O   0  0  0  0  0  0  0  0  0  0  0  0
   -3.2914    5.5267  -18.2135 C   0  0  0  0  0  0  0  0  0  0  0  0
   -4.6503    5.4028  -17.6763 N   0  0  0  0  0  0  0  0  0  0  0  0
   -5.1007    5.4716  -16.3808 C   0  0  0  0  0  0  0  0  0  0  0  0
   -6.4140    5.0635  -16.4305 C   0  0  0  0  0  0  0  0  0  0  0  0
   -7.3236    4.8706  -15.3809 C   0  0  0  0  0  0  0  0  0  0  0  0
   -7.1274    5.2370  -13.9624 C   0  0  0  0  0  0  0  0  0  0  0  0
   -6.6494    6.2712  -13.7065 O   0  0  0  0  0  0  0  0  0  0  0  0
   -7.7202    4.1469  -13.0332 N   0  0  0  0  0  0  0  0  0  0  0  0
   -7.9258    4.1467  -11.6537 C   0  0  0  0  0  0  0  0  0  0  0  0
   -7.7222    5.2782  -10.8530 C   0  0  0  0  0  0  0  0  0  0  0  0
   -7.9537    5.3283   -9.5119 N   0  0  0  0  0  0  0  0  0  0  0  0
   -8.3911    4.1737   -8.9760 C   0  0  0  0  0  0  0  0  0  0  0  0
   -8.6132    3.0053   -9.6819 C   0  0  0  0  0  0  0  0  0  0  0  0
   -8.3887    2.9786  -11.0453 C   0  0  0  0  0  0  0  0  0  0  0  0
   -9.0396    1.9291   -8.7440 C   0  0  0  0  0  0  0  0  0  0  0  0
   -9.4082    2.6153   -7.4804 N   0  0  0  0  0  0  0  0  0  0  0  0
   -8.7107    3.9264   -7.5259 C   0  0  0  0  0  0  0  0  0  0  0  0
   -8.5683    4.3727  -15.8386 C   0  0  0  0  0  0  0  0  0  0  0  0
   -8.8484    4.0964  -17.2013 C   0  0  0  0  0  0  0  0  0  0  0  0
  -10.0628    3.6136  -17.5013 F   0  0  0  0  0  0  0  0  0  0  0  0
   -7.9416    4.3025  -18.2452 C   0  0  0  0  0  0  0  0  0  0  0  0
   -6.6967    4.7919  -17.8240 C   0  0  0  0  0  0  0  0  0  0  0  0
   -5.6157    5.0746  -18.5585 N   0  0  0  0  0  0  0  0  0  0  0  0
  1  2  1  0
  2  3  1  0
  3  4  1  0
  4  5  1  0
  5  6  2  0
  6  7  1  0
  7  8  1  0
  8  9  2  0
  8 10  1  0
 10 11  1  0
 11 12  2  0
 12 13  1  0
 13 14  2  0
 14 15  1  0
 15 16  2  0
 15 17  1  0
 17 18  1  0
 18 19  1  0
  7 20  2  0
 20 21  1  0
 21 22  1  0
 21 23  2  0
 23 24  1  0
 24 25  2  0
 25  4  1  0
 24  6  1  0
 16 11  1  0
 19 14  1  0
M  END
>  <smiles>  (1610) 
C23133-P202

>  <fragmenstein_outcome>  (1610) 
acceptable

>  <inchikey>  (1610) 
WBMJPMNUVYTTPT-UHFFFAOYSA-N

>  <fragmenstein_mode>  (1610) 
expansion

>  <HIPPO Pose ID>  (1610) 
22323

>  <Energy>  (1610) 
101.244785

>  <fragmenstein_error>  (1610) 


>  <tags>  (1610) 
{'openbind_xx01zvns2b_c1_fragmenstein', 'fragmenstein_placed'}

>  <ref_pdb>  (1610) 
175

>  <scratch_subdir>  (1610) 
/opt/xchem-fragalysis-2/maxwin/BulkDock/SCRATCH/511028/C23133-P202

>  <alias>  (1610) 
COCn1cc2c(C(=O)Nc3cnc4c(c3)CNC4)cc(F)cc2n1

>  <HIPPO Compound ID>  (1610) 
21741

>  <fragmenstein_runtime>  (1610) 
7.96435

$$$$
OC(O)(Nc1cnc2c(c1)CNC2)c1cc(F)cc2[nH]ncc12
     RDKit          3D

 23 26  0  0  0  0  0  0  0  0999 V2000
   -6.8382    5.8540  -13.4059 O   0  0  0  0  0  0  0  0  0  0  0  0
   -7.3553    4.6012  -13.7592 C   0  0  0  0  0  0  0  0  0  0  0  0
   -6.3884    3.6566  -13.3920 O   0  0  0  0  0  0  0  0  0  0  0  0
   -8.5693    4.2959  -13.0286 N   0  0  0  0  0  0  0  0  0  0  0  0
   -8.5232    4.2596  -11.6189 C   0  0  0  0  0  0  0  0  0  0  0  0
   -8.3630    5.4093  -10.8242 C   0  0  0  0  0  0  0  0  0  0  0  0
   -8.3638    5.4372   -9.4642 N   0  0  0  0  0  0  0  0  0  0  0  0
   -8.5682    4.2394   -8.8875 C   0  0  0  0  0  0  0  0  0  0  0  0
   -8.7447    3.0493   -9.5678 C   0  0  0  0  0  0  0  0  0  0  0  0
   -8.7055    3.0425  -10.9477 C   0  0  0  0  0  0  0  0  0  0  0  0
   -8.9667    1.9432   -8.5947 C   0  0  0  0  0  0  0  0  0  0  0  0
   -9.3064    2.6117   -7.3105 N   0  0  0  0  0  0  0  0  0  0  0  0
   -8.7092    3.9685   -7.4136 C   0  0  0  0  0  0  0  0  0  0  0  0
   -7.5869    4.5972  -15.2720 C   0  0  0  0  0  0  0  0  0  0  0  0
   -8.8159    4.1730  -15.8381 C   0  0  0  0  0  0  0  0  0  0  0  0
   -9.0213    4.0641  -17.2092 C   0  0  0  0  0  0  0  0  0  0  0  0
  -10.2007    3.6148  -17.6554 F   0  0  0  0  0  0  0  0  0  0  0  0
   -8.0333    4.3902  -18.1195 C   0  0  0  0  0  0  0  0  0  0  0  0
   -6.8334    4.8548  -17.5854 C   0  0  0  0  0  0  0  0  0  0  0  0
   -5.6810    5.2570  -18.2087 N   0  0  0  0  0  0  0  0  0  0  0  0
   -4.7202    5.6699  -17.3584 N   0  0  0  0  0  0  0  0  0  0  0  0
   -5.2695    5.4780  -16.1551 C   0  0  0  0  0  0  0  0  0  0  0  0
   -6.5919    4.9716  -16.2174 C   0  0  0  0  0  0  0  0  0  0  0  0
  1  2  1  0
  2  3  1  0
  2  4  1  0
  4  5  1  0
  5  6  2  0
  6  7  1  0
  7  8  2  0
  8  9  1  0
  9 10  2  0
  9 11  1  0
 11 12  1  0
 12 13  1  0
  2 14  1  0
 14 15  2  0
 15 16  1  0
 16 17  1  0
 16 18  2  0
 18 19  1  0
 19 20  1  0
 20 21  1  0
 21 22  2  0
 22 23  1  0
 10  5  1  0
 23 14  1  0
 13  8  1  0
 23 19  2  0
M  END
>  <smiles>  (1611) 
C23140-P202

>  <fragmenstein_outcome>  (1611) 
acceptable

>  <inchikey>  (1611) 
KWGDXPUEAXZJNS-UHFFFAOYSA-N

>  <fragmenstein_mode>  (1611) 
expansion

>  <HIPPO Pose ID>  (1611) 
22325

>  <Energy>  (1611) 
-40.918473

>  <fragmenstein_error>  (1611) 


>  <tags>  (1611) 
{'openbind_xx01zvns2b_c1_fragmenstein', 'fragmenstein_placed'}

>  <ref_pdb>  (1611) 
175

>  <scratch_subdir>  (1611) 
/opt/xchem-fragalysis-2/maxwin/BulkDock/SCRATCH/511028/C23140-P202

>  <alias>  (1611) 
OC(O)(Nc1cnc2c(c1)CNC2)c1cc(F)cc2[nH]ncc12

>  <HIPPO Compound ID>  (1611) 
43490

>  <fragmenstein_runtime>  (1611) 
2.162852

$$$$
Cc1nn(CO)c2cc(F)cc(C(=O)C(=O)c3cnc4c(c3)CNC4)c12
     RDKit          3D

 26 29  0  0  0  0  0  0  0  0999 V2000
   -4.6896    6.7591  -15.1226 C   0  0  0  0  0  0  0  0  0  0  0  0
   -5.2941    6.0163  -16.2550 C   0  0  0  0  0  0  0  0  0  0  0  0
   -4.6959    6.0962  -17.4484 N   0  0  0  0  0  0  0  0  0  0  0  0
   -5.5193    5.4322  -18.2797 N   0  0  0  0  0  0  0  0  0  0  0  0
   -5.1228    5.2492  -19.6680 C   0  0  0  0  0  0  0  0  0  0  0  0
   -5.4980    6.3885  -20.4336 O   0  0  0  0  0  0  0  0  0  0  0  0
   -6.6567    4.9645  -17.6671 C   0  0  0  0  0  0  0  0  0  0  0  0
   -7.7935    4.3244  -18.1797 C   0  0  0  0  0  0  0  0  0  0  0  0
   -8.7729    3.9432  -17.2760 C   0  0  0  0  0  0  0  0  0  0  0  0
   -9.8846    3.3470  -17.7233 F   0  0  0  0  0  0  0  0  0  0  0  0
   -8.6206    4.1412  -15.9157 C   0  0  0  0  0  0  0  0  0  0  0  0
   -7.4830    4.7826  -15.3954 C   0  0  0  0  0  0  0  0  0  0  0  0
   -7.3303    4.9438  -13.9253 C   0  0  0  0  0  0  0  0  0  0  0  0
   -6.2405    5.0825  -13.3875 O   0  0  0  0  0  0  0  0  0  0  0  0
   -8.5621    4.9786  -13.0468 C   0  0  0  0  0  0  0  0  0  0  0  0
   -9.6233    5.3790  -13.5139 O   0  0  0  0  0  0  0  0  0  0  0  0
   -8.4523    4.6265  -11.6259 C   0  0  0  0  0  0  0  0  0  0  0  0
   -8.2444    5.6575  -10.7060 C   0  0  0  0  0  0  0  0  0  0  0  0
   -8.2658    5.4935   -9.3595 N   0  0  0  0  0  0  0  0  0  0  0  0
   -8.5260    4.2355   -8.9541 C   0  0  0  0  0  0  0  0  0  0  0  0
   -8.7344    3.1511   -9.7947 C   0  0  0  0  0  0  0  0  0  0  0  0
   -8.6882    3.3288  -11.1671 C   0  0  0  0  0  0  0  0  0  0  0  0
   -9.0199    1.9415   -8.9681 C   0  0  0  0  0  0  0  0  0  0  0  0
   -9.3559    2.4504   -7.6157 N   0  0  0  0  0  0  0  0  0  0  0  0
   -8.7219    3.7888   -7.5293 C   0  0  0  0  0  0  0  0  0  0  0  0
   -6.4924    5.2402  -16.3023 C   0  0  0  0  0  0  0  0  0  0  0  0
  1  2  1  0
  2  3  2  0
  3  4  1  0
  4  5  1  0
  5  6  1  0
  4  7  1  0
  7  8  2  0
  8  9  1  0
  9 10  1  0
  9 11  2  0
 11 12  1  0
 12 13  1  0
 13 14  2  0
 13 15  1  0
 15 16  2  0
 15 17  1  0
 17 18  2  0
 18 19  1  0
 19 20  2  0
 20 21  1  0
 21 22  2  0
 21 23  1  0
 23 24  1  0
 24 25  1  0
 12 26  2  0
 26  2  1  0
 26  7  1  0
 22 17  1  0
 25 20  1  0
M  END
>  <smiles>  (1612) 
C23155-P202

>  <fragmenstein_outcome>  (1612) 
acceptable

>  <inchikey>  (1612) 
NUOIFJRKLORDGK-UHFFFAOYSA-N

>  <fragmenstein_mode>  (1612) 
expansion

>  <HIPPO Pose ID>  (1612) 
22327

>  <Energy>  (1612) 
147.048896

>  <fragmenstein_error>  (1612) 


>  <tags>  (1612) 
{'openbind_xx01zvns2b_c1_fragmenstein', 'fragmenstein_placed'}

>  <ref_pdb>  (1612) 
175

>  <scratch_subdir>  (1612) 
/opt/xchem-fragalysis-2/maxwin/BulkDock/SCRATCH/511028/C23155-P202

>  <alias>  (1612) 
Cc1nn(CO)c2cc(F)cc(C(=O)C(=O)c3cnc4c(c3)CNC4)c12

>  <HIPPO Compound ID>  (1612) 
23155

>  <fragmenstein_runtime>  (1612) 
1.801391

$$$$
Cc1nn(CO)c2cc(F)cc(C(=O)C(=O)c3cnc4c(c3N)CNC4)c12
     RDKit          3D

 27 30  0  0  0  0  0  0  0  0999 V2000
   -4.5785    6.6314  -15.2100 C   0  0  0  0  0  0  0  0  0  0  0  0
   -5.2822    5.9436  -16.3167 C   0  0  0  0  0  0  0  0  0  0  0  0
   -4.7684    6.0548  -17.5479 N   0  0  0  0  0  0  0  0  0  0  0  0
   -5.6290    5.3694  -18.3277 N   0  0  0  0  0  0  0  0  0  0  0  0
   -5.3128    5.2549  -19.7464 C   0  0  0  0  0  0  0  0  0  0  0  0
   -5.8625    4.0734  -20.3076 O   0  0  0  0  0  0  0  0  0  0  0  0
   -6.7440    4.9342  -17.6549 C   0  0  0  0  0  0  0  0  0  0  0  0
   -7.9208    4.3249  -18.1102 C   0  0  0  0  0  0  0  0  0  0  0  0
   -8.8610    3.9617  -17.1623 C   0  0  0  0  0  0  0  0  0  0  0  0
  -10.0058    3.3943  -17.5603 F   0  0  0  0  0  0  0  0  0  0  0  0
   -8.6418    4.1625  -15.8107 C   0  0  0  0  0  0  0  0  0  0  0  0
   -7.4660    4.7776  -15.3456 C   0  0  0  0  0  0  0  0  0  0  0  0
   -7.2725    4.9825  -13.8842 C   0  0  0  0  0  0  0  0  0  0  0  0
   -6.1718    5.1448  -13.3759 O   0  0  0  0  0  0  0  0  0  0  0  0
   -8.4863    5.1114  -12.9893 C   0  0  0  0  0  0  0  0  0  0  0  0
   -9.5084    5.6263  -13.4363 O   0  0  0  0  0  0  0  0  0  0  0  0
   -8.4017    4.7392  -11.5738 C   0  0  0  0  0  0  0  0  0  0  0  0
   -8.4211    5.7799  -10.6416 C   0  0  0  0  0  0  0  0  0  0  0  0
   -8.4393    5.6048   -9.2983 N   0  0  0  0  0  0  0  0  0  0  0  0
   -8.4919    4.3180   -8.9091 C   0  0  0  0  0  0  0  0  0  0  0  0
   -8.4807    3.2228   -9.7592 C   0  0  0  0  0  0  0  0  0  0  0  0
   -8.3882    3.4122  -11.1318 C   0  0  0  0  0  0  0  0  0  0  0  0
   -8.3247    2.3256  -12.0105 N   0  0  0  0  0  0  0  0  0  0  0  0
   -8.6075    1.9756   -8.9495 C   0  0  0  0  0  0  0  0  0  0  0  0
   -8.8672    2.3940   -7.5504 N   0  0  0  0  0  0  0  0  0  0  0  0
   -8.5997    3.8466   -7.4869 C   0  0  0  0  0  0  0  0  0  0  0  0
   -6.5043    5.2034  -16.3002 C   0  0  0  0  0  0  0  0  0  0  0  0
  1  2  1  0
  2  3  2  0
  3  4  1  0
  4  5  1  0
  5  6  1  0
  4  7  1  0
  7  8  2  0
  8  9  1  0
  9 10  1  0
  9 11  2  0
 11 12  1  0
 12 13  1  0
 13 14  2  0
 13 15  1  0
 15 16  2  0
 15 17  1  0
 17 18  2  0
 18 19  1  0
 19 20  2  0
 20 21  1  0
 21 22  2  0
 22 23  1  0
 21 24  1  0
 24 25  1  0
 25 26  1  0
 12 27  2  0
 27  2  1  0
 27  7  1  0
 22 17  1  0
 26 20  1  0
M  END
>  <smiles>  (1613) 
C23160-P202

>  <fragmenstein_outcome>  (1613) 
acceptable

>  <inchikey>  (1613) 
NEKMOSKYAYISFC-UHFFFAOYSA-N

>  <fragmenstein_mode>  (1613) 
expansion

>  <HIPPO Pose ID>  (1613) 
22328

>  <Energy>  (1613) 
154.19698

>  <fragmenstein_error>  (1613) 


>  <tags>  (1613) 
{'openbind_xx01zvns2b_c1_fragmenstein', 'fragmenstein_placed'}

>  <ref_pdb>  (1613) 
175

>  <scratch_subdir>  (1613) 
/opt/xchem-fragalysis-2/maxwin/BulkDock/SCRATCH/511028/C23160-P202

>  <alias>  (1613) 
Cc1nn(CO)c2cc(F)cc(C(=O)C(=O)c3cnc4c(c3N)CNC4)c12

>  <HIPPO Compound ID>  (1613) 
32553

>  <fragmenstein_runtime>  (1613) 
2.858368

$$$$
O=C(Nc1cnc2c(c1)CNC2)c1cc(F)cc2[nH][n+]([O-])cc12
     RDKit          3D

 23 26  0  0  0  0  0  0  0  0999 V2000
   -7.2123    6.3133  -13.7930 O   0  0  0  0  0  0  0  0  0  0  0  0
   -7.5565    5.2199  -14.0159 C   0  0  0  0  0  0  0  0  0  0  0  0
   -7.9834    4.0867  -13.0525 N   0  0  0  0  0  0  0  0  0  0  0  0
   -8.1604    4.0927  -11.6683 C   0  0  0  0  0  0  0  0  0  0  0  0
   -7.9518    5.2378  -10.8857 C   0  0  0  0  0  0  0  0  0  0  0  0
   -8.1194    5.2957   -9.5363 N   0  0  0  0  0  0  0  0  0  0  0  0
   -8.4986    4.1351   -8.9724 C   0  0  0  0  0  0  0  0  0  0  0  0
   -8.7193    2.9537   -9.6582 C   0  0  0  0  0  0  0  0  0  0  0  0
   -8.5558    2.9177  -11.0301 C   0  0  0  0  0  0  0  0  0  0  0  0
   -9.0750    1.8780   -8.6907 C   0  0  0  0  0  0  0  0  0  0  0  0
   -9.4242    2.5726   -7.4262 N   0  0  0  0  0  0  0  0  0  0  0  0
   -8.7521    3.8949   -7.5081 C   0  0  0  0  0  0  0  0  0  0  0  0
   -7.6717    4.8029  -15.4353 C   0  0  0  0  0  0  0  0  0  0  0  0
   -8.8817    4.2791  -15.9072 C   0  0  0  0  0  0  0  0  0  0  0  0
   -9.0525    4.0042  -17.2567 C   0  0  0  0  0  0  0  0  0  0  0  0
  -10.2279    3.5171  -17.6713 F   0  0  0  0  0  0  0  0  0  0  0  0
   -8.0464    4.2248  -18.1891 C   0  0  0  0  0  0  0  0  0  0  0  0
   -6.8358    4.7139  -17.7024 C   0  0  0  0  0  0  0  0  0  0  0  0
   -5.6473    4.9865  -18.3335 N   0  0  0  0  0  0  0  0  0  0  0  0
   -4.6574    5.4193  -17.3875 N   0  0  0  0  0  0  0  0  0  0  0  0
   -3.4818    5.6286  -17.7640 O   0  0  0  0  0  0  0  0  0  0  0  0
   -5.2271    5.4833  -16.1732 C   0  0  0  0  0  0  0  0  0  0  0  0
   -6.6009    5.0194  -16.3354 C   0  0  0  0  0  0  0  0  0  0  0  0
  1  2  2  0
  2  3  1  0
  3  4  1  0
  4  5  2  0
  5  6  1  0
  6  7  2  0
  7  8  1  0
  8  9  2  0
  8 10  1  0
 10 11  1  0
 11 12  1  0
  2 13  1  0
 13 14  2  0
 14 15  1  0
 15 16  1  0
 15 17  2  0
 17 18  1  0
 18 19  1  0
 19 20  1  0
 20 21  1  0
 20 22  2  0
 22 23  1  0
  9  4  1  0
 23 13  1  0
 12  7  1  0
 23 18  2  0
M  CHG  2  20   1  21  -1
M  END
>  <smiles>  (1614) 
C23184-P202

>  <fragmenstein_outcome>  (1614) 
acceptable

>  <inchikey>  (1614) 
ANUCEDNUPUZDQF-UHFFFAOYSA-N

>  <fragmenstein_mode>  (1614) 
expansion

>  <HIPPO Pose ID>  (1614) 
22331

>  <Energy>  (1614) 
57.904361

>  <fragmenstein_error>  (1614) 


>  <tags>  (1614) 
{'openbind_xx01zvns2b_c1_fragmenstein', 'fragmenstein_placed'}

>  <ref_pdb>  (1614) 
175

>  <scratch_subdir>  (1614) 
/opt/xchem-fragalysis-2/maxwin/BulkDock/SCRATCH/511028/C23184-P202

>  <alias>  (1614) 
O=C(Nc1cnc2c(c1)CNC2)c1cc(F)cc2[nH][n+]([O-])cc12

>  <HIPPO Compound ID>  (1614) 
23184

>  <fragmenstein_runtime>  (1614) 
3.379599

$$$$
CC(C)[C@@H]1NN[C@@]2(Cc3c(cc(F)cc3C(=O)Nc3cnc4c(c3)CNC4)N2)S1
     RDKit          3D

 29 33  0  0  0  0  0  0  0  0999 V2000
   -4.4506    7.2804  -21.7143 C   0  0  0  0  0  0  0  0  0  0  0  0
   -3.5980    8.0929  -20.7308 C   0  0  0  0  0  0  0  0  0  0  0  0
   -2.1775    8.2298  -21.2946 C   0  0  0  0  0  0  0  0  0  0  0  0
   -3.5598    7.5388  -19.2851 C   0  0  2  0  0  0  0  0  0  0  0  0
   -3.0633    6.1579  -19.1927 N   0  0  0  0  0  0  0  0  0  0  0  0
   -3.5119    5.6587  -17.8792 N   0  0  0  0  0  0  0  0  0  0  0  0
   -4.9607    5.8898  -17.7892 C   0  0  2  0  0  0  0  0  0  0  0  0
   -5.4178    5.7656  -16.3012 C   0  0  0  0  0  0  0  0  0  0  0  0
   -6.7649    5.1358  -16.4453 C   0  0  0  0  0  0  0  0  0  0  0  0
   -6.9484    4.7795  -17.7808 C   0  0  0  0  0  0  0  0  0  0  0  0
   -8.1107    4.1756  -18.2140 C   0  0  0  0  0  0  0  0  0  0  0  0
   -9.0987    3.9323  -17.2766 C   0  0  0  0  0  0  0  0  0  0  0  0
  -10.2509    3.3784  -17.6680 F   0  0  0  0  0  0  0  0  0  0  0  0
   -8.9240    4.2560  -15.9307 C   0  0  0  0  0  0  0  0  0  0  0  0
   -7.7426    4.8636  -15.4972 C   0  0  0  0  0  0  0  0  0  0  0  0
   -7.6038    5.2985  -14.0792 C   0  0  0  0  0  0  0  0  0  0  0  0
   -7.1791    6.3662  -13.8708 O   0  0  0  0  0  0  0  0  0  0  0  0
   -8.1527    4.2288  -13.1034 N   0  0  0  0  0  0  0  0  0  0  0  0
   -8.2029    4.2148  -11.7096 C   0  0  0  0  0  0  0  0  0  0  0  0
   -7.8891    5.3397  -10.9349 C   0  0  0  0  0  0  0  0  0  0  0  0
   -7.9524    5.3854   -9.5769 N   0  0  0  0  0  0  0  0  0  0  0  0
   -8.3426    4.2364   -8.9969 C   0  0  0  0  0  0  0  0  0  0  0  0
   -8.6656    3.0759   -9.6737 C   0  0  0  0  0  0  0  0  0  0  0  0
   -8.6052    3.0507  -11.0552 C   0  0  0  0  0  0  0  0  0  0  0  0
   -9.0705    2.0214   -8.7054 C   0  0  0  0  0  0  0  0  0  0  0  0
   -8.8084    2.5655   -7.3483 N   0  0  0  0  0  0  0  0  0  0  0  0
   -8.5313    4.0136   -7.5239 C   0  0  0  0  0  0  0  0  0  0  0  0
   -5.8267    5.0317  -18.5987 N   0  0  0  0  0  0  0  0  0  0  0  0
   -5.1852    7.5839  -18.4693 S   0  0  0  0  0  0  0  0  0  0  0  0
  1  2  1  0
  2  3  1  0
  4  2  1  6
  4  5  1  0
  5  6  1  0
  6  7  1  0
  7  8  1  1
  8  9  1  0
  9 10  2  0
 10 11  1  0
 11 12  2  0
 12 13  1  0
 12 14  1  0
 14 15  2  0
 15 16  1  0
 16 17  2  0
 16 18  1  0
 18 19  1  0
 19 20  2  0
 20 21  1  0
 21 22  2  0
 22 23  1  0
 23 24  2  0
 23 25  1  0
 25 26  1  0
 26 27  1  0
 10 28  1  0
  7 29  1  0
 29  4  1  0
 28  7  1  0
 15  9  1  0
 24 19  1  0
 27 22  1  0
M  END
>  <smiles>  (1615) 
C23213-P202

>  <fragmenstein_outcome>  (1615) 
acceptable

>  <inchikey>  (1615) 
DCVZHTMBITXVBT-UHFFFAOYSA-N

>  <fragmenstein_mode>  (1615) 
expansion

>  <HIPPO Pose ID>  (1615) 
22333

>  <Energy>  (1615) 
61.920261

>  <fragmenstein_error>  (1615) 


>  <tags>  (1615) 
{'openbind_xx01zvns2b_c1_fragmenstein', 'fragmenstein_placed'}

>  <ref_pdb>  (1615) 
175

>  <scratch_subdir>  (1615) 
/opt/xchem-fragalysis-2/maxwin/BulkDock/SCRATCH/511028/C23213-P202

>  <alias>  (1615) 
CC(C)[C@@H]1NN[C@@]2(Cc3c(cc(F)cc3C(=O)Nc3cnc4c(c3)CNC4)N2)S1

>  <HIPPO Compound ID>  (1615) 
23213

>  <fragmenstein_runtime>  (1615) 
3.877869

$$$$
O=C(NCC(F)F)[C@](O)(Nc1cnc2c(c1)CNC2)c1cc(F)cc2[nH]ncc12
     RDKit          3D

 29 32  0  0  0  0  0  0  0  0999 V2000
   -6.3409    2.9581  -12.7262 O   0  0  0  0  0  0  0  0  0  0  0  0
   -6.2060    4.0816  -13.0028 C   0  0  0  0  0  0  0  0  0  0  0  0
   -4.9471    4.9777  -12.9661 N   0  0  0  0  0  0  0  0  0  0  0  0
   -3.6155    4.7006  -12.4916 C   0  0  0  0  0  0  0  0  0  0  0  0
   -2.8852    3.7342  -13.4206 C   0  0  0  0  0  0  0  0  0  0  0  0
   -3.3210    2.4639  -13.2745 F   0  0  0  0  0  0  0  0  0  0  0  0
   -1.5669    3.7143  -13.1035 F   0  0  0  0  0  0  0  0  0  0  0  0
   -7.3845    4.9609  -13.6251 C   0  0  2  0  0  0  0  0  0  0  0  0
   -7.1537    6.3479  -13.4679 O   0  0  0  0  0  0  0  0  0  0  0  0
   -8.6444    4.6501  -12.9065 N   0  0  0  0  0  0  0  0  0  0  0  0
   -8.5532    4.5481  -11.4864 C   0  0  0  0  0  0  0  0  0  0  0  0
   -8.2264    5.6188  -10.6368 C   0  0  0  0  0  0  0  0  0  0  0  0
   -8.1644    5.5569   -9.2807 N   0  0  0  0  0  0  0  0  0  0  0  0
   -8.4543    4.3489   -8.7630 C   0  0  0  0  0  0  0  0  0  0  0  0
   -8.7884    3.2319   -9.4974 C   0  0  0  0  0  0  0  0  0  0  0  0
   -8.8486    3.3196  -10.8732 C   0  0  0  0  0  0  0  0  0  0  0  0
   -9.0697    2.0839   -8.5962 C   0  0  0  0  0  0  0  0  0  0  0  0
   -8.7836    2.5506   -7.2144 N   0  0  0  0  0  0  0  0  0  0  0  0
   -8.5315    4.0104   -7.3026 C   0  0  0  0  0  0  0  0  0  0  0  0
   -7.5393    4.7511  -15.1517 C   0  0  0  0  0  0  0  0  0  0  0  0
   -8.7410    4.2236  -15.7016 C   0  0  0  0  0  0  0  0  0  0  0  0
   -8.9391    4.0196  -17.0654 C   0  0  0  0  0  0  0  0  0  0  0  0
  -10.1041    3.5128  -17.4865 F   0  0  0  0  0  0  0  0  0  0  0  0
   -7.9687    4.3332  -17.9949 C   0  0  0  0  0  0  0  0  0  0  0  0
   -6.7964    4.8859  -17.4884 C   0  0  0  0  0  0  0  0  0  0  0  0
   -5.6729    5.3059  -18.1522 N   0  0  0  0  0  0  0  0  0  0  0  0
   -4.7526    5.8701  -17.3485 N   0  0  0  0  0  0  0  0  0  0  0  0
   -5.2912    5.7414  -16.1335 C   0  0  0  0  0  0  0  0  0  0  0  0
   -6.5629    5.1135  -16.1294 C   0  0  0  0  0  0  0  0  0  0  0  0
  1  2  2  0
  2  3  1  0
  3  4  1  0
  4  5  1  0
  5  6  1  0
  5  7  1  0
  2  8  1  0
  8  9  1  6
  8 10  1  0
 10 11  1  0
 11 12  2  0
 12 13  1  0
 13 14  2  0
 14 15  1  0
 15 16  2  0
 15 17  1  0
 17 18  1  0
 18 19  1  0
  8 20  1  0
 20 21  2  0
 21 22  1  0
 22 23  1  0
 22 24  2  0
 24 25  1  0
 25 26  1  0
 26 27  1  0
 27 28  2  0
 28 29  1  0
 16 11  1  0
 29 20  1  0
 19 14  1  0
 29 25  2  0
M  END
>  <smiles>  (1616) 
C23176-P202

>  <fragmenstein_outcome>  (1616) 
acceptable

>  <inchikey>  (1616) 
RUNGXHZLUZTPED-UHFFFAOYSA-N

>  <fragmenstein_mode>  (1616) 
expansion

>  <HIPPO Pose ID>  (1616) 
22334

>  <Energy>  (1616) 
161.041076

>  <fragmenstein_error>  (1616) 


>  <tags>  (1616) 
{'openbind_xx01zvns2b_c1_fragmenstein', 'fragmenstein_placed'}

>  <ref_pdb>  (1616) 
175

>  <scratch_subdir>  (1616) 
/opt/xchem-fragalysis-2/maxwin/BulkDock/SCRATCH/511028/C23176-P202

>  <alias>  (1616) 
O=C(NCC(F)F)[C@](O)(Nc1cnc2c(c1)CNC2)c1cc(F)cc2[nH]ncc12

>  <HIPPO Compound ID>  (1616) 
23176

>  <fragmenstein_runtime>  (1616) 
5.712029

$$$$
Cc1c2cc(F)cc([C@](O)(Nc3cnc4c(c3)CNC4)C(=O)NCC(F)F)c2cn1O
     RDKit          3D

 31 34  0  0  0  0  0  0  0  0999 V2000
   -5.2146    5.2965  -19.6459 C   0  0  0  0  0  0  0  0  0  0  0  0
   -5.5287    5.2740  -18.1978 C   0  0  0  0  0  0  0  0  0  0  0  0
   -6.6644    4.9139  -17.5041 C   0  0  0  0  0  0  0  0  0  0  0  0
   -7.8478    4.4484  -18.0616 C   0  0  0  0  0  0  0  0  0  0  0  0
   -8.7686    4.1340  -17.0523 C   0  0  0  0  0  0  0  0  0  0  0  0
   -9.9579    3.6340  -17.4210 F   0  0  0  0  0  0  0  0  0  0  0  0
   -8.5245    4.2993  -15.6495 C   0  0  0  0  0  0  0  0  0  0  0  0
   -7.3185    4.8059  -15.0660 C   0  0  0  0  0  0  0  0  0  0  0  0
   -7.1010    4.9318  -13.5632 C   0  0  2  0  0  0  0  0  0  0  0  0
   -6.2849    3.8489  -13.1422 O   0  0  0  0  0  0  0  0  0  0  0  0
   -8.4110    4.8790  -12.8843 N   0  0  0  0  0  0  0  0  0  0  0  0
   -8.4186    4.6203  -11.4995 C   0  0  0  0  0  0  0  0  0  0  0  0
   -8.2716    5.6383  -10.5366 C   0  0  0  0  0  0  0  0  0  0  0  0
   -8.3443    5.4660   -9.1931 N   0  0  0  0  0  0  0  0  0  0  0  0
   -8.5733    4.1992   -8.8105 C   0  0  0  0  0  0  0  0  0  0  0  0
   -8.7039    3.1200   -9.6669 C   0  0  0  0  0  0  0  0  0  0  0  0
   -8.5970    3.3144  -11.0325 C   0  0  0  0  0  0  0  0  0  0  0  0
   -8.9826    1.8921   -8.8692 C   0  0  0  0  0  0  0  0  0  0  0  0
   -9.3932    2.3723   -7.5238 N   0  0  0  0  0  0  0  0  0  0  0  0
   -8.8008    3.7279   -7.3998 C   0  0  0  0  0  0  0  0  0  0  0  0
   -6.4242    6.3582  -13.2318 C   0  0  0  0  0  0  0  0  0  0  0  0
   -6.8559    7.3804  -13.6056 O   0  0  0  0  0  0  0  0  0  0  0  0
   -5.1652    6.0503  -12.3699 N   0  0  0  0  0  0  0  0  0  0  0  0
   -4.2353    6.9430  -11.7134 C   0  0  0  0  0  0  0  0  0  0  0  0
   -4.6971    7.4237  -10.3403 C   0  0  0  0  0  0  0  0  0  0  0  0
   -4.8137    6.3705   -9.4959 F   0  0  0  0  0  0  0  0  0  0  0  0
   -5.9111    8.0189  -10.4235 F   0  0  0  0  0  0  0  0  0  0  0  0
   -6.4102    5.0753  -16.1012 C   0  0  0  0  0  0  0  0  0  0  0  0
   -5.1122    5.5059  -15.9770 C   0  0  0  0  0  0  0  0  0  0  0  0
   -4.6135    5.6307  -17.2431 N   0  0  0  0  0  0  0  0  0  0  0  0
   -3.3374    6.0972  -17.5132 O   0  0  0  0  0  0  0  0  0  0  0  0
  1  2  1  0
  2  3  2  0
  3  4  1  0
  4  5  2  0
  5  6  1  0
  5  7  1  0
  7  8  2  0
  8  9  1  0
  9 10  1  1
  9 11  1  0
 11 12  1  0
 12 13  2  0
 13 14  1  0
 14 15  2  0
 15 16  1  0
 16 17  2  0
 16 18  1  0
 18 19  1  0
 19 20  1  0
  9 21  1  0
 21 22  2  0
 21 23  1  0
 23 24  1  0
 24 25  1  0
 25 26  1  0
 25 27  1  0
  8 28  1  0
 28 29  2  0
 29 30  1  0
 30 31  1  0
 30  2  1  0
 28  3  1  0
 17 12  1  0
 20 15  1  0
M  END
>  <smiles>  (1617) 
C23215-P202

>  <fragmenstein_outcome>  (1617) 
acceptable

>  <inchikey>  (1617) 
VVQGFYQEOHEXAK-UHFFFAOYSA-N

>  <fragmenstein_mode>  (1617) 
expansion

>  <HIPPO Pose ID>  (1617) 
22335

>  <Energy>  (1617) 
124.594954

>  <fragmenstein_error>  (1617) 


>  <tags>  (1617) 
{'openbind_xx01zvns2b_c1_fragmenstein', 'fragmenstein_placed'}

>  <ref_pdb>  (1617) 
175

>  <scratch_subdir>  (1617) 
/opt/xchem-fragalysis-2/maxwin/BulkDock/SCRATCH/511028/C23215-P202

>  <alias>  (1617) 
Cc1c2cc(F)cc([C@](O)(Nc3cnc4c(c3)CNC4)C(=O)NCC(F)F)c2cn1O

>  <HIPPO Compound ID>  (1617) 
34834

>  <fragmenstein_runtime>  (1617) 
3.848722

$$$$
N[C@H]1NCc2ncc(NC(=O)c3cc(F)cc4c3C=N[N@@H+]4[O-])cc21
     RDKit          3D

 24 27  0  0  0  0  0  0  0  0999 V2000
   -8.0055    1.1756   -8.8017 N   0  0  0  0  0  0  0  0  0  0  0  0
   -8.9984    2.1953   -8.7196 C   0  0  1  0  0  0  0  0  0  0  0  0
   -8.7847    2.7475   -7.3855 N   0  0  0  0  0  0  0  0  0  0  0  0
   -8.5546    4.2044   -7.5596 C   0  0  0  0  0  0  0  0  0  0  0  0
   -8.4184    4.4423   -9.0357 C   0  0  0  0  0  0  0  0  0  0  0  0
   -8.0562    5.5927   -9.6289 N   0  0  0  0  0  0  0  0  0  0  0  0
   -7.9658    5.5208  -10.9839 C   0  0  0  0  0  0  0  0  0  0  0  0
   -8.2459    4.3740  -11.7408 C   0  0  0  0  0  0  0  0  0  0  0  0
   -8.1399    4.3410  -13.1262 N   0  0  0  0  0  0  0  0  0  0  0  0
   -7.5109    5.3505  -14.1066 C   0  0  0  0  0  0  0  0  0  0  0  0
   -7.0510    6.4044  -13.9145 O   0  0  0  0  0  0  0  0  0  0  0  0
   -7.6155    4.8905  -15.5080 C   0  0  0  0  0  0  0  0  0  0  0  0
   -8.7900    4.3138  -15.9995 C   0  0  0  0  0  0  0  0  0  0  0  0
   -8.9201    4.0445  -17.3664 C   0  0  0  0  0  0  0  0  0  0  0  0
  -10.0572    3.4904  -17.8023 F   0  0  0  0  0  0  0  0  0  0  0  0
   -7.9111    4.3557  -18.2728 C   0  0  0  0  0  0  0  0  0  0  0  0
   -6.7543    4.9256  -17.7704 C   0  0  0  0  0  0  0  0  0  0  0  0
   -6.6091    5.1546  -16.4145 C   0  0  0  0  0  0  0  0  0  0  0  0
   -5.2478    5.6195  -16.2507 C   0  0  0  0  0  0  0  0  0  0  0  0
   -4.5707    5.6811  -17.3583 N   0  0  0  0  0  0  0  0  0  0  0  0
   -5.5581    5.3769  -18.4890 N   0  0  2  0  0  0  0  0  0  0  0  0
   -5.8049    6.5641  -19.0738 O   0  0  0  0  0  0  0  0  0  0  0  0
   -8.6446    3.2202  -11.0791 C   0  0  0  0  0  0  0  0  0  0  0  0
   -8.7092    3.2680   -9.7001 C   0  0  0  0  0  0  0  0  0  0  0  0
  2  1  1  6
  2  3  1  0
  3  4  1  0
  4  5  1  0
  5  6  2  0
  6  7  1  0
  7  8  2  0
  8  9  1  0
  9 10  1  0
 10 11  2  0
 10 12  1  0
 12 13  2  0
 13 14  1  0
 14 15  1  0
 14 16  2  0
 16 17  1  0
 17 18  2  0
 18 19  1  0
 19 20  2  0
 20 21  1  0
 21 22  1  1
  8 23  1  0
 23 24  2  0
 24  2  1  0
 24  5  1  0
 18 12  1  0
 21 17  1  0
M  CHG  2  21   1  22  -1
M  END
>  <smiles>  (1618) 
C23216-P202

>  <fragmenstein_outcome>  (1618) 
acceptable

>  <inchikey>  (1618) 
GBIKHWLGUOIPIK-UHFFFAOYSA-N

>  <fragmenstein_mode>  (1618) 
expansion

>  <HIPPO Pose ID>  (1618) 
22336

>  <Energy>  (1618) 
-10.344456

>  <fragmenstein_error>  (1618) 


>  <tags>  (1618) 
{'openbind_xx01zvns2b_c1_fragmenstein', 'fragmenstein_placed'}

>  <ref_pdb>  (1618) 
175

>  <scratch_subdir>  (1618) 
/opt/xchem-fragalysis-2/maxwin/BulkDock/SCRATCH/511028/C23216-P202

>  <alias>  (1618) 
N[C@H]1NCc2ncc(NC(=O)c3cc(F)cc4c3C=N[N@@H+]4[O-])cc21

>  <HIPPO Compound ID>  (1618) 
33288

>  <fragmenstein_runtime>  (1618) 
3.63253

$$$$
COCCOn1c2cc(F)cc(C(=O)Nc3cnc4c(c3)CNC4)c2c(C)[n+]1[O-]
     RDKit          3D

 29 32  0  0  0  0  0  0  0  0999 V2000
   -5.0547    7.7386  -22.4924 C   0  0  0  0  0  0  0  0  0  0  0  0
   -4.8307    7.3609  -21.1386 O   0  0  0  0  0  0  0  0  0  0  0  0
   -3.8592    6.3127  -21.0560 C   0  0  0  0  0  0  0  0  0  0  0  0
   -3.7597    5.8287  -19.6202 C   0  0  0  0  0  0  0  0  0  0  0  0
   -4.8546    4.9544  -19.3272 O   0  0  0  0  0  0  0  0  0  0  0  0
   -5.2600    5.0854  -17.9802 N   0  0  0  0  0  0  0  0  0  0  0  0
   -6.5382    4.7890  -17.5444 C   0  0  0  0  0  0  0  0  0  0  0  0
   -7.6682    4.2933  -18.2082 C   0  0  0  0  0  0  0  0  0  0  0  0
   -8.8040    4.0422  -17.4407 C   0  0  0  0  0  0  0  0  0  0  0  0
   -9.8965    3.5265  -18.0172 F   0  0  0  0  0  0  0  0  0  0  0  0
   -8.8510    4.3200  -16.0852 C   0  0  0  0  0  0  0  0  0  0  0  0
   -7.7380    4.8677  -15.4446 C   0  0  0  0  0  0  0  0  0  0  0  0
   -7.8596    5.3353  -14.0487 C   0  0  0  0  0  0  0  0  0  0  0  0
   -7.6835    6.4687  -13.8380 O   0  0  0  0  0  0  0  0  0  0  0  0
   -8.2207    4.1847  -13.0884 N   0  0  0  0  0  0  0  0  0  0  0  0
   -8.3438    4.1690  -11.7017 C   0  0  0  0  0  0  0  0  0  0  0  0
   -8.1654    5.3242  -10.9246 C   0  0  0  0  0  0  0  0  0  0  0  0
   -8.2649    5.3685   -9.5696 N   0  0  0  0  0  0  0  0  0  0  0  0
   -8.5601    4.1883   -8.9970 C   0  0  0  0  0  0  0  0  0  0  0  0
   -8.7525    2.9992   -9.6798 C   0  0  0  0  0  0  0  0  0  0  0  0
   -8.6397    2.9714  -11.0562 C   0  0  0  0  0  0  0  0  0  0  0  0
   -9.0415    1.9092   -8.7067 C   0  0  0  0  0  0  0  0  0  0  0  0
   -9.3781    2.5887   -7.4305 N   0  0  0  0  0  0  0  0  0  0  0  0
   -8.7532    3.9325   -7.5260 C   0  0  0  0  0  0  0  0  0  0  0  0
   -6.5254    5.0682  -16.1491 C   0  0  0  0  0  0  0  0  0  0  0  0
   -5.1854    5.4763  -15.7278 C   0  0  0  0  0  0  0  0  0  0  0  0
   -4.6311    5.8191  -14.4075 C   0  0  0  0  0  0  0  0  0  0  0  0
   -4.3988    5.4267  -16.8184 N   0  0  0  0  0  0  0  0  0  0  0  0
   -3.1540    5.5747  -16.9298 O   0  0  0  0  0  0  0  0  0  0  0  0
  1  2  1  0
  2  3  1  0
  3  4  1  0
  4  5  1  0
  5  6  1  0
  6  7  1  0
  7  8  2  0
  8  9  1  0
  9 10  1  0
  9 11  2  0
 11 12  1  0
 12 13  1  0
 13 14  2  0
 13 15  1  0
 15 16  1  0
 16 17  2  0
 17 18  1  0
 18 19  2  0
 19 20  1  0
 20 21  2  0
 20 22  1  0
 22 23  1  0
 23 24  1  0
 12 25  2  0
 25 26  1  0
 26 27  1  0
 26 28  2  0
 28 29  1  0
 28  6  1  0
 25  7  1  0
 21 16  1  0
 24 19  1  0
M  CHG  2  28   1  29  -1
M  END
>  <smiles>  (1619) 
C23221-P202

>  <fragmenstein_outcome>  (1619) 
acceptable

>  <inchikey>  (1619) 
SWGPBLMCHCFQBW-UHFFFAOYSA-N

>  <fragmenstein_mode>  (1619) 
expansion

>  <HIPPO Pose ID>  (1619) 
22338

>  <Energy>  (1619) 
125.862843

>  <fragmenstein_error>  (1619) 


>  <tags>  (1619) 
{'openbind_xx01zvns2b_c1_fragmenstein', 'fragmenstein_placed'}

>  <ref_pdb>  (1619) 
175

>  <scratch_subdir>  (1619) 
/opt/xchem-fragalysis-2/maxwin/BulkDock/SCRATCH/511028/C23221-P202

>  <alias>  (1619) 
COCCOn1c2cc(F)cc(C(=O)Nc3cnc4c(c3)CNC4)c2c(C)[n+]1[O-]

>  <HIPPO Compound ID>  (1619) 
23221

>  <fragmenstein_runtime>  (1619) 
4.038498

$$$$
CN1C[C@@H](NC(=O)c2cc(F)cc3[nH][n+]([O-])cc23)C[C@H]2[C@H](N)NC[C@@H]21
     RDKit          3D

 25 28  0  0  0  0  0  0  0  0999 V2000
   -8.3975    6.4490   -9.1795 C   0  0  0  0  0  0  0  0  0  0  0  0
   -7.3951    5.4270   -9.4390 N   0  0  0  0  0  0  0  0  0  0  0  0
   -7.1753    5.2607  -10.8962 C   0  0  0  0  0  0  0  0  0  0  0  0
   -8.2643    4.4414  -11.6425 C   0  0  1  0  0  0  0  0  0  0  0  0
   -8.0218    4.3577  -13.0651 N   0  0  0  0  0  0  0  0  0  0  0  0
   -7.6581    5.4500  -14.0811 C   0  0  0  0  0  0  0  0  0  0  0  0
   -7.4201    6.5788  -13.9231 O   0  0  0  0  0  0  0  0  0  0  0  0
   -7.6752    4.9335  -15.4679 C   0  0  0  0  0  0  0  0  0  0  0  0
   -8.8041    4.2554  -15.9427 C   0  0  0  0  0  0  0  0  0  0  0  0
   -8.9074    3.9302  -17.2868 C   0  0  0  0  0  0  0  0  0  0  0  0
  -10.0190    3.3204  -17.7158 F   0  0  0  0  0  0  0  0  0  0  0  0
   -7.9076    4.2410  -18.2045 C   0  0  0  0  0  0  0  0  0  0  0  0
   -6.7801    4.8979  -17.7117 C   0  0  0  0  0  0  0  0  0  0  0  0
   -5.6426    5.3581  -18.3297 N   0  0  0  0  0  0  0  0  0  0  0  0
   -4.7754    6.0077  -17.3810 N   0  0  0  0  0  0  0  0  0  0  0  0
   -3.7185    6.5589  -17.7627 O   0  0  0  0  0  0  0  0  0  0  0  0
   -5.3518    5.9544  -16.1726 C   0  0  0  0  0  0  0  0  0  0  0  0
   -6.6212    5.2627  -16.3500 C   0  0  0  0  0  0  0  0  0  0  0  0
   -8.4403    3.0597  -11.0031 C   0  0  0  0  0  0  0  0  0  0  0  0
   -8.7314    3.2723   -9.5280 C   0  0  1  0  0  0  0  0  0  0  0  0
   -8.7099    2.0563   -8.6214 C   0  0  2  0  0  0  0  0  0  0  0  0
   -9.8963    1.2602   -8.6425 N   0  0  0  0  0  0  0  0  0  0  0  0
   -8.6792    2.6045   -7.2678 N   0  0  0  0  0  0  0  0  0  0  0  0
   -8.1426    3.9837   -7.3844 C   0  0  0  0  0  0  0  0  0  0  0  0
   -7.6647    4.1145   -8.8383 C   0  0  2  0  0  0  0  0  0  0  0  0
  1  2  1  0
  2  3  1  0
  3  4  1  0
  4  5  1  6
  5  6  1  0
  6  7  2  0
  6  8  1  0
  8  9  2  0
  9 10  1  0
 10 11  1  0
 10 12  2  0
 12 13  1  0
 13 14  1  0
 14 15  1  0
 15 16  1  0
 15 17  2  0
 17 18  1  0
  4 19  1  0
 20 19  1  6
 20 21  1  0
 21 22  1  1
 21 23  1  0
 23 24  1  0
 25 24  1  1
 25  2  1  0
 18  8  1  0
 25 20  1  0
 18 13  2  0
M  CHG  2  15   1  16  -1
M  END
>  <smiles>  (1620) 
C23222-P202

>  <fragmenstein_outcome>  (1620) 
acceptable

>  <inchikey>  (1620) 
MOTZUJQPFJDZOR-UHFFFAOYSA-N

>  <fragmenstein_mode>  (1620) 
expansion

>  <HIPPO Pose ID>  (1620) 
22339

>  <Energy>  (1620) 
-2.805934

>  <fragmenstein_error>  (1620) 


>  <tags>  (1620) 
{'openbind_xx01zvns2b_c1_fragmenstein', 'fragmenstein_placed'}

>  <ref_pdb>  (1620) 
175

>  <scratch_subdir>  (1620) 
/opt/xchem-fragalysis-2/maxwin/BulkDock/SCRATCH/511028/C23222-P202

>  <alias>  (1620) 
CN1C[C@@H](NC(=O)c2cc(F)cc3[nH][n+]([O-])cc23)C[C@H]2[C@H](N)NC[C@@H]21

>  <HIPPO Compound ID>  (1620) 
23222

>  <fragmenstein_runtime>  (1620) 
4.052383

$$$$
Cc1c2cc(F)cc(C(=O)Nc3cnc4c(c3)CNC4)c2cn1C
     RDKit          3D

 24 27  0  0  0  0  0  0  0  0999 V2000
   -5.1396    5.2397  -19.6374 C   0  0  0  0  0  0  0  0  0  0  0  0
   -5.5644    5.3210  -18.2137 C   0  0  0  0  0  0  0  0  0  0  0  0
   -6.7295    4.9261  -17.5902 C   0  0  0  0  0  0  0  0  0  0  0  0
   -7.8294    4.3176  -18.1886 C   0  0  0  0  0  0  0  0  0  0  0  0
   -8.8294    4.0402  -17.2374 C   0  0  0  0  0  0  0  0  0  0  0  0
   -9.9568    3.4496  -17.6623 F   0  0  0  0  0  0  0  0  0  0  0  0
   -8.7415    4.3496  -15.8459 C   0  0  0  0  0  0  0  0  0  0  0  0
   -7.6247    4.9857  -15.2580 C   0  0  0  0  0  0  0  0  0  0  0  0
   -7.5846    5.4110  -13.8469 C   0  0  0  0  0  0  0  0  0  0  0  0
   -7.2147    6.4895  -13.5981 O   0  0  0  0  0  0  0  0  0  0  0  0
   -8.1225    4.2978  -12.9197 N   0  0  0  0  0  0  0  0  0  0  0  0
   -8.2247    4.2476  -11.5322 C   0  0  0  0  0  0  0  0  0  0  0  0
   -7.9632    5.3638  -10.7250 C   0  0  0  0  0  0  0  0  0  0  0  0
   -8.0525    5.3742   -9.3691 N   0  0  0  0  0  0  0  0  0  0  0  0
   -8.4162    4.1986   -8.8278 C   0  0  0  0  0  0  0  0  0  0  0  0
   -8.6920    3.0465   -9.5404 C   0  0  0  0  0  0  0  0  0  0  0  0
   -8.6045    3.0557  -10.9194 C   0  0  0  0  0  0  0  0  0  0  0  0
   -9.0776    1.9548   -8.6076 C   0  0  0  0  0  0  0  0  0  0  0  0
   -8.8480    2.4690   -7.2333 N   0  0  0  0  0  0  0  0  0  0  0  0
   -8.6204    3.9302   -7.3650 C   0  0  0  0  0  0  0  0  0  0  0  0
   -6.6303    5.2479  -16.2030 C   0  0  0  0  0  0  0  0  0  0  0  0
   -5.4020    5.8231  -16.0019 C   0  0  0  0  0  0  0  0  0  0  0  0
   -4.7566    5.8510  -17.2188 N   0  0  0  0  0  0  0  0  0  0  0  0
   -3.4129    6.3558  -17.4075 C   0  0  0  0  0  0  0  0  0  0  0  0
  1  2  1  0
  2  3  2  0
  3  4  1  0
  4  5  2  0
  5  6  1  0
  5  7  1  0
  7  8  2  0
  8  9  1  0
  9 10  2  0
  9 11  1  0
 11 12  1  0
 12 13  2  0
 13 14  1  0
 14 15  2  0
 15 16  1  0
 16 17  2  0
 16 18  1  0
 18 19  1  0
 19 20  1  0
  8 21  1  0
 21 22  2  0
 22 23  1  0
 23 24  1  0
 23  2  1  0
 21  3  1  0
 17 12  1  0
 20 15  1  0
M  END
>  <smiles>  (1621) 
C23224-P202

>  <fragmenstein_outcome>  (1621) 
acceptable

>  <inchikey>  (1621) 
NNRBXIDCABGTSH-UHFFFAOYSA-N

>  <fragmenstein_mode>  (1621) 
expansion

>  <HIPPO Pose ID>  (1621) 
22340

>  <Energy>  (1621) 
82.53689

>  <fragmenstein_error>  (1621) 


>  <tags>  (1621) 
{'openbind_xx01zvns2b_c1_fragmenstein', 'fragmenstein_placed'}

>  <ref_pdb>  (1621) 
175

>  <scratch_subdir>  (1621) 
/opt/xchem-fragalysis-2/maxwin/BulkDock/SCRATCH/511028/C23224-P202

>  <alias>  (1621) 
Cc1c2cc(F)cc(C(=O)Nc3cnc4c(c3)CNC4)c2cn1C

>  <HIPPO Compound ID>  (1621) 
23224

>  <fragmenstein_runtime>  (1621) 
2.416648

$$$$
COn1c2cc(F)cc(C(=O)Nc3cnc4c(c3)CNC4)c2c(C)[n+]1[O-]
     RDKit          3D

 26 29  0  0  0  0  0  0  0  0999 V2000
   -4.9799    6.0786  -20.2448 C   0  0  0  0  0  0  0  0  0  0  0  0
   -5.1187    4.8505  -19.5435 O   0  0  0  0  0  0  0  0  0  0  0  0
   -5.4537    5.1210  -18.2062 N   0  0  0  0  0  0  0  0  0  0  0  0
   -6.6632    4.8027  -17.6268 C   0  0  0  0  0  0  0  0  0  0  0  0
   -7.8363    4.2596  -18.1622 C   0  0  0  0  0  0  0  0  0  0  0  0
   -8.8866    4.0177  -17.2850 C   0  0  0  0  0  0  0  0  0  0  0  0
  -10.0233    3.4857  -17.7500 F   0  0  0  0  0  0  0  0  0  0  0  0
   -8.7994    4.3226  -15.9370 C   0  0  0  0  0  0  0  0  0  0  0  0
   -7.6324    4.8930  -15.4110 C   0  0  0  0  0  0  0  0  0  0  0  0
   -7.6329    5.3454  -13.9976 C   0  0  0  0  0  0  0  0  0  0  0  0
   -7.2968    6.4403  -13.7728 O   0  0  0  0  0  0  0  0  0  0  0  0
   -8.1347    4.2360  -13.0454 N   0  0  0  0  0  0  0  0  0  0  0  0
   -8.2339    4.2127  -11.6551 C   0  0  0  0  0  0  0  0  0  0  0  0
   -7.9865    5.3471  -10.8693 C   0  0  0  0  0  0  0  0  0  0  0  0
   -8.0646    5.3803   -9.5128 N   0  0  0  0  0  0  0  0  0  0  0  0
   -8.4087    4.2106   -8.9457 C   0  0  0  0  0  0  0  0  0  0  0  0
   -8.6735    3.0423   -9.6348 C   0  0  0  0  0  0  0  0  0  0  0  0
   -8.5922    3.0275  -11.0152 C   0  0  0  0  0  0  0  0  0  0  0  0
   -9.0406    1.9631   -8.6789 C   0  0  0  0  0  0  0  0  0  0  0  0
   -8.8260    2.5100   -7.3150 N   0  0  0  0  0  0  0  0  0  0  0  0
   -8.5950    3.9672   -7.4758 C   0  0  0  0  0  0  0  0  0  0  0  0
   -6.5083    5.1278  -16.2486 C   0  0  0  0  0  0  0  0  0  0  0  0
   -5.1477    5.6308  -16.0110 C   0  0  0  0  0  0  0  0  0  0  0  0
   -4.4557    6.0747  -14.7905 C   0  0  0  0  0  0  0  0  0  0  0  0
   -4.5098    5.6167  -17.1987 N   0  0  0  0  0  0  0  0  0  0  0  0
   -3.3433    5.9665  -17.5187 O   0  0  0  0  0  0  0  0  0  0  0  0
  1  2  1  0
  2  3  1  0
  3  4  1  0
  4  5  2  0
  5  6  1  0
  6  7  1  0
  6  8  2  0
  8  9  1  0
  9 10  1  0
 10 11  2  0
 10 12  1  0
 12 13  1  0
 13 14  2  0
 14 15  1  0
 15 16  2  0
 16 17  1  0
 17 18  2  0
 17 19  1  0
 19 20  1  0
 20 21  1  0
  9 22  2  0
 22 23  1  0
 23 24  1  0
 23 25  2  0
 25 26  1  0
 25  3  1  0
 22  4  1  0
 18 13  1  0
 21 16  1  0
M  CHG  2  25   1  26  -1
M  END
>  <smiles>  (1622) 
C23226-P202

>  <fragmenstein_outcome>  (1622) 
acceptable

>  <inchikey>  (1622) 
XNCDVYDSBMXLNI-UHFFFAOYSA-N

>  <fragmenstein_mode>  (1622) 
expansion

>  <HIPPO Pose ID>  (1622) 
22341

>  <Energy>  (1622) 
102.871564

>  <fragmenstein_error>  (1622) 


>  <tags>  (1622) 
{'openbind_xx01zvns2b_c1_fragmenstein', 'fragmenstein_placed'}

>  <ref_pdb>  (1622) 
175

>  <scratch_subdir>  (1622) 
/opt/xchem-fragalysis-2/maxwin/BulkDock/SCRATCH/511028/C23226-P202

>  <alias>  (1622) 
COn1c2cc(F)cc(C(=O)Nc3cnc4c(c3)CNC4)c2c(C)[n+]1[O-]

>  <HIPPO Compound ID>  (1622) 
37238

>  <fragmenstein_runtime>  (1622) 
2.827667

$$$$
O=C1NCc2cc(NC(=O)c3cc(F)cc4[nH][n+]([O-])cc34)cnc21
     RDKit          3D

 24 27  0  0  0  0  0  0  0  0999 V2000
   -8.0169    4.7193   -6.6355 O   0  0  0  0  0  0  0  0  0  0  0  0
   -8.3910    3.9967   -7.5414 C   0  0  0  0  0  0  0  0  0  0  0  0
   -8.9894    2.7552   -7.3995 N   0  0  0  0  0  0  0  0  0  0  0  0
   -9.0361    2.0390   -8.6558 C   0  0  0  0  0  0  0  0  0  0  0  0
   -8.6342    3.0720   -9.6489 C   0  0  0  0  0  0  0  0  0  0  0  0
   -8.5583    3.0306  -11.0309 C   0  0  0  0  0  0  0  0  0  0  0  0
   -8.0817    4.1639  -11.6953 C   0  0  0  0  0  0  0  0  0  0  0  0
   -7.9617    4.1505  -13.0885 N   0  0  0  0  0  0  0  0  0  0  0  0
   -7.4772    5.2507  -14.0680 C   0  0  0  0  0  0  0  0  0  0  0  0
   -7.0312    6.3101  -13.8564 O   0  0  0  0  0  0  0  0  0  0  0  0
   -7.6509    4.8605  -15.4947 C   0  0  0  0  0  0  0  0  0  0  0  0
   -8.8791    4.3564  -15.9429 C   0  0  0  0  0  0  0  0  0  0  0  0
   -9.1028    4.1330  -17.2962 C   0  0  0  0  0  0  0  0  0  0  0  0
  -10.2990    3.6823  -17.6915 F   0  0  0  0  0  0  0  0  0  0  0  0
   -8.1359    4.3865  -18.2600 C   0  0  0  0  0  0  0  0  0  0  0  0
   -6.9149    4.8742  -17.8045 C   0  0  0  0  0  0  0  0  0  0  0  0
   -5.7745    5.2209  -18.4839 N   0  0  0  0  0  0  0  0  0  0  0  0
   -4.7609    5.6752  -17.5773 N   0  0  0  0  0  0  0  0  0  0  0  0
   -3.6448    6.0293  -18.0210 O   0  0  0  0  0  0  0  0  0  0  0  0
   -5.2575    5.6380  -16.3294 C   0  0  0  0  0  0  0  0  0  0  0  0
   -6.6230    5.1274  -16.4377 C   0  0  0  0  0  0  0  0  0  0  0  0
   -7.7169    5.2829  -10.9259 C   0  0  0  0  0  0  0  0  0  0  0  0
   -7.7875    5.3533   -9.5698 N   0  0  0  0  0  0  0  0  0  0  0  0
   -8.2502    4.2294   -8.9942 C   0  0  0  0  0  0  0  0  0  0  0  0
  1  2  2  0
  2  3  1  0
  3  4  1  0
  4  5  1  0
  5  6  2  0
  6  7  1  0
  7  8  1  0
  8  9  1  0
  9 10  2  0
  9 11  1  0
 11 12  2  0
 12 13  1  0
 13 14  1  0
 13 15  2  0
 15 16  1  0
 16 17  1  0
 17 18  1  0
 18 19  1  0
 18 20  2  0
 20 21  1  0
  7 22  2  0
 22 23  1  0
 23 24  2  0
 24  2  1  0
 24  5  1  0
 21 11  1  0
 21 16  2  0
M  CHG  2  18   1  19  -1
M  END
>  <smiles>  (1623) 
C23233-P274

>  <fragmenstein_outcome>  (1623) 
acceptable

>  <inchikey>  (1623) 
PQQIJFAKOKJRBT-UHFFFAOYSA-N

>  <fragmenstein_mode>  (1623) 
expansion

>  <HIPPO Pose ID>  (1623) 
22342

>  <Energy>  (1623) 
59.399514

>  <fragmenstein_error>  (1623) 


>  <tags>  (1623) 
{'openbind_xx01zvns2b_c1_fragmenstein', 'fragmenstein_placed'}

>  <ref_pdb>  (1623) 
175

>  <scratch_subdir>  (1623) 
/opt/xchem-fragalysis-2/maxwin/BulkDock/SCRATCH/511028/C23233-P274

>  <alias>  (1623) 
O=C1NCc2cc(NC(=O)c3cc(F)cc4[nH][n+]([O-])cc34)cnc21

>  <HIPPO Compound ID>  (1623) 
23233

>  <fragmenstein_runtime>  (1623) 
4.290311

$$$$
CC[C@H]1NCc2cc(NC(=O)c3cc(F)cc4[nH]ncc34)cnc21
     RDKit          3D

 24 27  0  0  0  0  0  0  0  0999 V2000
   -7.5668    4.6874   -5.2669 C   0  0  0  0  0  0  0  0  0  0  0  0
   -8.0479    5.1024   -6.6524 C   0  0  0  0  0  0  0  0  0  0  0  0
   -7.9337    3.9537   -7.6434 C   0  0  1  0  0  0  0  0  0  0  0  0
   -8.9138    2.8542   -7.4194 N   0  0  0  0  0  0  0  0  0  0  0  0
   -8.9609    2.1601   -8.7393 C   0  0  0  0  0  0  0  0  0  0  0  0
   -8.6385    3.2170   -9.7457 C   0  0  0  0  0  0  0  0  0  0  0  0
   -8.7083    3.2116  -11.1254 C   0  0  0  0  0  0  0  0  0  0  0  0
   -8.2258    4.3311  -11.8029 C   0  0  0  0  0  0  0  0  0  0  0  0
   -8.2002    4.3401  -13.1968 N   0  0  0  0  0  0  0  0  0  0  0  0
   -7.6402    5.3933  -14.1865 C   0  0  0  0  0  0  0  0  0  0  0  0
   -7.1834    6.4509  -13.9887 O   0  0  0  0  0  0  0  0  0  0  0  0
   -7.7734    4.9718  -15.6031 C   0  0  0  0  0  0  0  0  0  0  0  0
   -8.9658    4.4190  -16.0822 C   0  0  0  0  0  0  0  0  0  0  0  0
   -9.1290    4.1662  -17.4375 C   0  0  0  0  0  0  0  0  0  0  0  0
  -10.2892    3.6578  -17.8664 F   0  0  0  0  0  0  0  0  0  0  0  0
   -8.1316    4.4341  -18.3663 C   0  0  0  0  0  0  0  0  0  0  0  0
   -6.9449    4.9736  -17.8710 C   0  0  0  0  0  0  0  0  0  0  0  0
   -5.7971    5.3545  -18.5124 N   0  0  0  0  0  0  0  0  0  0  0  0
   -4.8519    5.8487  -17.6858 N   0  0  0  0  0  0  0  0  0  0  0  0
   -5.4324    5.7911  -16.4814 C   0  0  0  0  0  0  0  0  0  0  0  0
   -6.7386    5.2497  -16.5224 C   0  0  0  0  0  0  0  0  0  0  0  0
   -7.7366    5.4086  -11.0497 C   0  0  0  0  0  0  0  0  0  0  0  0
   -7.6566    5.4356   -9.6948 N   0  0  0  0  0  0  0  0  0  0  0  0
   -8.1025    4.3189   -9.0962 C   0  0  0  0  0  0  0  0  0  0  0  0
  1  2  1  0
  3  2  1  1
  3  4  1  0
  4  5  1  0
  5  6  1  0
  6  7  2  0
  7  8  1  0
  8  9  1  0
  9 10  1  0
 10 11  2  0
 10 12  1  0
 12 13  2  0
 13 14  1  0
 14 15  1  0
 14 16  2  0
 16 17  1  0
 17 18  1  0
 18 19  1  0
 19 20  2  0
 20 21  1  0
  8 22  2  0
 22 23  1  0
 23 24  2  0
 24  3  1  0
 24  6  1  0
 21 12  1  0
 21 17  2  0
M  END
>  <smiles>  (1624) 
C23237-P284

>  <fragmenstein_outcome>  (1624) 
acceptable

>  <inchikey>  (1624) 
JNFFSLSVQDDFME-UHFFFAOYSA-N

>  <fragmenstein_mode>  (1624) 
expansion

>  <HIPPO Pose ID>  (1624) 
22343

>  <Energy>  (1624) 
77.425563

>  <fragmenstein_error>  (1624) 


>  <tags>  (1624) 
{'openbind_xx01zvns2b_c1_fragmenstein', 'fragmenstein_placed'}

>  <ref_pdb>  (1624) 
175

>  <scratch_subdir>  (1624) 
/opt/xchem-fragalysis-2/maxwin/BulkDock/SCRATCH/511028/C23237-P284

>  <alias>  (1624) 
CC[C@H]1NCc2cc(NC(=O)c3cc(F)cc4[nH]ncc34)cnc21

>  <HIPPO Compound ID>  (1624) 
23237

>  <fragmenstein_runtime>  (1624) 
3.358771

$$$$
O=C(Nc1cnc2c(c1)CNC2)c1cc(F)cc2c1C=N[N@H+]2[O-]
     RDKit          3D

 23 26  0  0  0  0  0  0  0  0999 V2000
   -7.3438    6.4011  -13.9534 O   0  0  0  0  0  0  0  0  0  0  0  0
   -7.6016    5.2794  -14.1526 C   0  0  0  0  0  0  0  0  0  0  0  0
   -7.9413    4.1359  -13.1629 N   0  0  0  0  0  0  0  0  0  0  0  0
   -8.1209    4.1584  -11.7769 C   0  0  0  0  0  0  0  0  0  0  0  0
   -7.9525    5.3139  -11.0022 C   0  0  0  0  0  0  0  0  0  0  0  0
   -8.1225    5.3733   -9.6523 N   0  0  0  0  0  0  0  0  0  0  0  0
   -8.4704    4.2063   -9.0788 C   0  0  0  0  0  0  0  0  0  0  0  0
   -8.6587    3.0154   -9.7564 C   0  0  0  0  0  0  0  0  0  0  0  0
   -8.4832    2.9761  -11.1274 C   0  0  0  0  0  0  0  0  0  0  0  0
   -9.0031    1.9381   -8.7848 C   0  0  0  0  0  0  0  0  0  0  0  0
   -9.3612    2.6334   -7.5228 N   0  0  0  0  0  0  0  0  0  0  0  0
   -8.7148    3.9674   -7.6123 C   0  0  0  0  0  0  0  0  0  0  0  0
   -7.6822    4.8285  -15.5646 C   0  0  0  0  0  0  0  0  0  0  0  0
   -8.7902    4.1029  -16.0098 C   0  0  0  0  0  0  0  0  0  0  0  0
   -8.9350    3.7943  -17.3675 C   0  0  0  0  0  0  0  0  0  0  0  0
  -10.0386    3.1534  -17.7634 F   0  0  0  0  0  0  0  0  0  0  0  0
   -7.9939    4.1786  -18.3134 C   0  0  0  0  0  0  0  0  0  0  0  0
   -6.9160    4.9184  -17.8680 C   0  0  0  0  0  0  0  0  0  0  0  0
   -6.7822    5.2506  -16.5281 C   0  0  0  0  0  0  0  0  0  0  0  0
   -5.6932    6.2053  -16.4936 C   0  0  0  0  0  0  0  0  0  0  0  0
   -5.2193    6.5197  -17.6645 N   0  0  0  0  0  0  0  0  0  0  0  0
   -5.8918    5.5852  -18.6771 N   0  0  1  0  0  0  0  0  0  0  0  0
   -4.9359    4.7208  -19.0490 O   0  0  0  0  0  0  0  0  0  0  0  0
  1  2  2  0
  2  3  1  0
  3  4  1  0
  4  5  2  0
  5  6  1  0
  6  7  2  0
  7  8  1  0
  8  9  2  0
  8 10  1  0
 10 11  1  0
 11 12  1  0
  2 13  1  0
 13 14  2  0
 14 15  1  0
 15 16  1  0
 15 17  2  0
 17 18  1  0
 18 19  2  0
 19 20  1  0
 20 21  2  0
 21 22  1  0
 22 23  1  1
  9  4  1  0
 19 13  1  0
 12  7  1  0
 22 18  1  0
M  CHG  2  22   1  23  -1
M  END
>  <smiles>  (1625) 
C23178-P202

>  <fragmenstein_outcome>  (1625) 
acceptable

>  <inchikey>  (1625) 
MEQSJUPDIHKNHG-UHFFFAOYSA-N

>  <fragmenstein_mode>  (1625) 
expansion

>  <HIPPO Pose ID>  (1625) 
22344

>  <Energy>  (1625) 
63.131104

>  <fragmenstein_error>  (1625) 


>  <tags>  (1625) 
{'openbind_xx01zvns2b_c1_fragmenstein', 'fragmenstein_placed'}

>  <ref_pdb>  (1625) 
175

>  <scratch_subdir>  (1625) 
/opt/xchem-fragalysis-2/maxwin/BulkDock/SCRATCH/511028/C23178-P202

>  <alias>  (1625) 
O=C(Nc1cnc2c(c1)CNC2)c1cc(F)cc2c1C=N[N@H+]2[O-]

>  <HIPPO Compound ID>  (1625) 
23178

>  <fragmenstein_runtime>  (1625) 
1.893013

$$$$
CNCn1cc2c(C(=O)Nc3cnc4c(c3)CNC4)cc(F)cc2n1
     RDKit          3D

 25 28  0  0  0  0  0  0  0  0999 V2000
   -1.1771    6.5414  -17.3129 C   0  0  0  0  0  0  0  0  0  0  0  0
   -2.5074    6.2803  -16.7806 N   0  0  0  0  0  0  0  0  0  0  0  0
   -3.5124    6.4230  -17.8400 C   0  0  0  0  0  0  0  0  0  0  0  0
   -4.8041    5.8732  -17.4047 N   0  0  0  0  0  0  0  0  0  0  0  0
   -5.3533    5.8480  -16.1495 C   0  0  0  0  0  0  0  0  0  0  0  0
   -6.5801    5.2549  -16.3039 C   0  0  0  0  0  0  0  0  0  0  0  0
   -7.5247    4.9626  -15.3158 C   0  0  0  0  0  0  0  0  0  0  0  0
   -7.4246    5.3731  -13.9032 C   0  0  0  0  0  0  0  0  0  0  0  0
   -7.0966    6.4678  -13.6642 O   0  0  0  0  0  0  0  0  0  0  0  0
   -7.8500    4.2251  -12.9577 N   0  0  0  0  0  0  0  0  0  0  0  0
   -8.0444    4.2140  -11.5782 C   0  0  0  0  0  0  0  0  0  0  0  0
   -7.7964    5.3371  -10.7769 C   0  0  0  0  0  0  0  0  0  0  0  0
   -7.9531    5.3731   -9.4269 N   0  0  0  0  0  0  0  0  0  0  0  0
   -8.3662    4.2146   -8.8839 C   0  0  0  0  0  0  0  0  0  0  0  0
   -8.6389    3.0584   -9.5907 C   0  0  0  0  0  0  0  0  0  0  0  0
   -8.4895    3.0442  -10.9647 C   0  0  0  0  0  0  0  0  0  0  0  0
   -9.0796    1.9878   -8.6571 C   0  0  0  0  0  0  0  0  0  0  0  0
   -8.8639    2.5088   -7.2826 N   0  0  0  0  0  0  0  0  0  0  0  0
   -8.6156    3.9661   -7.4242 C   0  0  0  0  0  0  0  0  0  0  0  0
   -8.6703    4.3329  -15.8460 C   0  0  0  0  0  0  0  0  0  0  0  0
   -8.8246    4.0369  -17.2268 C   0  0  0  0  0  0  0  0  0  0  0  0
   -9.9686    3.4484  -17.6062 F   0  0  0  0  0  0  0  0  0  0  0  0
   -7.8721    4.3364  -18.2118 C   0  0  0  0  0  0  0  0  0  0  0  0
   -6.7226    4.9661  -17.7107 C   0  0  0  0  0  0  0  0  0  0  0  0
   -5.6399    5.4134  -18.3613 N   0  0  0  0  0  0  0  0  0  0  0  0
  1  2  1  0
  2  3  1  0
  3  4  1  0
  4  5  1  0
  5  6  2  0
  6  7  1  0
  7  8  1  0
  8  9  2  0
  8 10  1  0
 10 11  1  0
 11 12  2  0
 12 13  1  0
 13 14  2  0
 14 15  1  0
 15 16  2  0
 15 17  1  0
 17 18  1  0
 18 19  1  0
  7 20  2  0
 20 21  1  0
 21 22  1  0
 21 23  2  0
 23 24  1  0
 24 25  2  0
 25  4  1  0
 24  6  1  0
 16 11  1  0
 19 14  1  0
M  END
>  <smiles>  (1626) 
C23239-P202

>  <fragmenstein_outcome>  (1626) 
acceptable

>  <inchikey>  (1626) 
OZNDMISWYCRCHP-UHFFFAOYSA-N

>  <fragmenstein_mode>  (1626) 
expansion

>  <HIPPO Pose ID>  (1626) 
22345

>  <Energy>  (1626) 
98.64808

>  <fragmenstein_error>  (1626) 


>  <tags>  (1626) 
{'openbind_xx01zvns2b_c1_fragmenstein', 'fragmenstein_placed'}

>  <ref_pdb>  (1626) 
175

>  <scratch_subdir>  (1626) 
/opt/xchem-fragalysis-2/maxwin/BulkDock/SCRATCH/511028/C23239-P202

>  <alias>  (1626) 
CNCn1cc2c(C(=O)Nc3cnc4c(c3)CNC4)cc(F)cc2n1

>  <HIPPO Compound ID>  (1626) 
23239

>  <fragmenstein_runtime>  (1626) 
4.991964

$$$$
CCCNCn1cc2c(C(=O)Nc3cnc4c(c3)CNC4)cc(F)c(NC=O)c2n1
     RDKit          3D

 30 33  0  0  0  0  0  0  0  0999 V2000
   -0.1362    6.3324  -15.8280 C   0  0  0  0  0  0  0  0  0  0  0  0
   -0.0964    6.0881  -17.3267 C   0  0  0  0  0  0  0  0  0  0  0  0
   -1.4276    6.2446  -18.0681 C   0  0  0  0  0  0  0  0  0  0  0  0
   -2.5594    5.5662  -17.4447 N   0  0  0  0  0  0  0  0  0  0  0  0
   -3.2295    6.4201  -16.4514 C   0  0  0  0  0  0  0  0  0  0  0  0
   -4.6268    5.9996  -16.3480 N   0  0  0  0  0  0  0  0  0  0  0  0
   -5.4165    5.9803  -15.2373 C   0  0  0  0  0  0  0  0  0  0  0  0
   -6.5933    5.4170  -15.6627 C   0  0  0  0  0  0  0  0  0  0  0  0
   -7.7114    5.1047  -14.8944 C   0  0  0  0  0  0  0  0  0  0  0  0
   -7.8666    5.5084  -13.4934 C   0  0  0  0  0  0  0  0  0  0  0  0
   -7.6693    6.6202  -13.2053 O   0  0  0  0  0  0  0  0  0  0  0  0
   -8.2679    4.3072  -12.6189 N   0  0  0  0  0  0  0  0  0  0  0  0
   -8.4136    4.2025  -11.2417 C   0  0  0  0  0  0  0  0  0  0  0  0
   -8.2934    5.3155  -10.3955 C   0  0  0  0  0  0  0  0  0  0  0  0
   -8.4247    5.2752   -9.0450 N   0  0  0  0  0  0  0  0  0  0  0  0
   -8.6944    4.0534   -8.5552 C   0  0  0  0  0  0  0  0  0  0  0  0
   -8.8334    2.9025   -9.3135 C   0  0  0  0  0  0  0  0  0  0  0  0
   -8.6810    2.9571  -10.6828 C   0  0  0  0  0  0  0  0  0  0  0  0
   -9.1146    1.7513   -8.4150 C   0  0  0  0  0  0  0  0  0  0  0  0
   -9.5324    2.3479   -7.1221 N   0  0  0  0  0  0  0  0  0  0  0  0
   -8.9323    3.7062   -7.1108 C   0  0  0  0  0  0  0  0  0  0  0  0
   -8.7029    4.4280  -15.6332 C   0  0  0  0  0  0  0  0  0  0  0  0
   -8.5578    4.1086  -17.0124 C   0  0  0  0  0  0  0  0  0  0  0  0
   -9.5764    3.4567  -17.6005 F   0  0  0  0  0  0  0  0  0  0  0  0
   -7.4139    4.4262  -17.7751 C   0  0  0  0  0  0  0  0  0  0  0  0
   -7.2588    4.0258  -19.0896 N   0  0  0  0  0  0  0  0  0  0  0  0
   -6.0835    4.2529  -20.0815 C   0  0  0  0  0  0  0  0  0  0  0  0
   -5.0378    4.7449  -19.9160 O   0  0  0  0  0  0  0  0  0  0  0  0
   -6.4328    5.1264  -17.0584 C   0  0  0  0  0  0  0  0  0  0  0  0
   -5.2749    5.6550  -17.4644 N   0  0  0  0  0  0  0  0  0  0  0  0
  1  2  1  0
  2  3  1  0
  3  4  1  0
  4  5  1  0
  5  6  1  0
  6  7  1  0
  7  8  2  0
  8  9  1  0
  9 10  1  0
 10 11  2  0
 10 12  1  0
 12 13  1  0
 13 14  2  0
 14 15  1  0
 15 16  2  0
 16 17  1  0
 17 18  2  0
 17 19  1  0
 19 20  1  0
 20 21  1  0
  9 22  2  0
 22 23  1  0
 23 24  1  0
 23 25  2  0
 25 26  1  0
 26 27  1  0
 27 28  2  0
 25 29  1  0
 29 30  2  0
 30  6  1  0
 29  8  1  0
 18 13  1  0
 21 16  1  0
M  END
>  <smiles>  (1627) 
C23249-P202

>  <fragmenstein_outcome>  (1627) 
acceptable

>  <inchikey>  (1627) 
YRIQSDWZWLSWIT-UHFFFAOYSA-N

>  <fragmenstein_mode>  (1627) 
expansion

>  <HIPPO Pose ID>  (1627) 
22347

>  <Energy>  (1627) 
132.86357

>  <fragmenstein_error>  (1627) 


>  <tags>  (1627) 
{'openbind_xx01zvns2b_c1_fragmenstein', 'fragmenstein_placed'}

>  <ref_pdb>  (1627) 
175

>  <scratch_subdir>  (1627) 
/opt/xchem-fragalysis-2/maxwin/BulkDock/SCRATCH/511028/C23249-P202

>  <alias>  (1627) 
CCCNCn1cc2c(C(=O)Nc3cnc4c(c3)CNC4)cc(F)c(NC=O)c2n1

>  <HIPPO Compound ID>  (1627) 
33421

>  <fragmenstein_runtime>  (1627) 
5.841291

$$$$
CC(C)NC(=O)[C@](O)(Nc1cnc2c(c1)CNC2)c1cc(F)cc2nn(F)cc12
     RDKit          3D

 29 32  0  0  0  0  0  0  0  0999 V2000
   -3.8515    4.5970  -10.9352 C   0  0  0  0  0  0  0  0  0  0  0  0
   -4.0038    3.9814  -12.3222 C   0  0  0  0  0  0  0  0  0  0  0  0
   -2.9717    4.5509  -13.2868 C   0  0  0  0  0  0  0  0  0  0  0  0
   -5.3535    4.1613  -12.8056 N   0  0  0  0  0  0  0  0  0  0  0  0
   -6.1279    5.4613  -13.1881 C   0  0  0  0  0  0  0  0  0  0  0  0
   -5.8139    6.5879  -13.0957 O   0  0  0  0  0  0  0  0  0  0  0  0
   -7.5754    5.0317  -13.7248 C   0  0  2  0  0  0  0  0  0  0  0  0
   -8.5140    6.0931  -13.5999 O   0  0  0  0  0  0  0  0  0  0  0  0
   -8.0582    3.8820  -12.9384 N   0  0  0  0  0  0  0  0  0  0  0  0
   -8.3227    3.9581  -11.5613 C   0  0  0  0  0  0  0  0  0  0  0  0
   -8.1445    5.0928  -10.7426 C   0  0  0  0  0  0  0  0  0  0  0  0
   -8.3014    5.1468   -9.3899 N   0  0  0  0  0  0  0  0  0  0  0  0
   -8.6395    3.9795   -8.8257 C   0  0  0  0  0  0  0  0  0  0  0  0
   -8.8293    2.8006   -9.5170 C   0  0  0  0  0  0  0  0  0  0  0  0
   -8.6683    2.7767  -10.8922 C   0  0  0  0  0  0  0  0  0  0  0  0
   -9.1276    1.7082   -8.5513 C   0  0  0  0  0  0  0  0  0  0  0  0
   -9.4749    2.3780   -7.2729 N   0  0  0  0  0  0  0  0  0  0  0  0
   -8.8578    3.7251   -7.3588 C   0  0  0  0  0  0  0  0  0  0  0  0
   -7.5720    4.7174  -15.2208 C   0  0  0  0  0  0  0  0  0  0  0  0
   -8.7695    4.2399  -15.8450 C   0  0  0  0  0  0  0  0  0  0  0  0
   -8.9538    3.9906  -17.2339 C   0  0  0  0  0  0  0  0  0  0  0  0
  -10.1516    3.5433  -17.6344 F   0  0  0  0  0  0  0  0  0  0  0  0
   -7.9713    4.1955  -18.1985 C   0  0  0  0  0  0  0  0  0  0  0  0
   -6.7707    4.6715  -17.6639 C   0  0  0  0  0  0  0  0  0  0  0  0
   -5.6410    4.9800  -18.3175 N   0  0  0  0  0  0  0  0  0  0  0  0
   -4.7997    5.3533  -17.3655 N   0  0  0  0  0  0  0  0  0  0  0  0
   -3.4956    5.6905  -17.6460 F   0  0  0  0  0  0  0  0  0  0  0  0
   -5.3255    5.4048  -16.1104 C   0  0  0  0  0  0  0  0  0  0  0  0
   -6.6029    4.9179  -16.2296 C   0  0  0  0  0  0  0  0  0  0  0  0
  1  2  1  0
  2  3  1  0
  2  4  1  0
  4  5  1  0
  5  6  2  0
  5  7  1  0
  7  8  1  6
  7  9  1  0
  9 10  1  0
 10 11  2  0
 11 12  1  0
 12 13  2  0
 13 14  1  0
 14 15  2  0
 14 16  1  0
 16 17  1  0
 17 18  1  0
  7 19  1  0
 19 20  2  0
 20 21  1  0
 21 22  1  0
 21 23  2  0
 23 24  1  0
 24 25  2  0
 25 26  1  0
 26 27  1  0
 26 28  1  0
 28 29  2  0
 15 10  1  0
 29 19  1  0
 18 13  1  0
 29 24  1  0
M  END
>  <smiles>  (1628) 
C23251-P202

>  <fragmenstein_outcome>  (1628) 
acceptable

>  <inchikey>  (1628) 
QLFYOCSGOGSUQQ-UHFFFAOYSA-N

>  <fragmenstein_mode>  (1628) 
expansion

>  <HIPPO Pose ID>  (1628) 
22348

>  <Energy>  (1628) 
102.705686

>  <fragmenstein_error>  (1628) 


>  <tags>  (1628) 
{'openbind_xx01zvns2b_c1_fragmenstein', 'fragmenstein_placed'}

>  <ref_pdb>  (1628) 
175

>  <scratch_subdir>  (1628) 
/opt/xchem-fragalysis-2/maxwin/BulkDock/SCRATCH/511028/C23251-P202

>  <alias>  (1628) 
CC(C)NC(=O)[C@](O)(Nc1cnc2c(c1)CNC2)c1cc(F)cc2nn(F)cc12

>  <HIPPO Compound ID>  (1628) 
23251

>  <fragmenstein_runtime>  (1628) 
5.216349

$$$$
CN(C)Cn1cc2c(C(=O)Nc3cnc4c(c3)CNC4)cc(F)cc2n1
     RDKit          3D

 26 29  0  0  0  0  0  0  0  0999 V2000
   -1.6958    5.8448  -19.3487 C   0  0  0  0  0  0  0  0  0  0  0  0
   -2.9835    6.2826  -18.7897 N   0  0  0  0  0  0  0  0  0  0  0  0
   -3.8601    6.6600  -19.9075 C   0  0  0  0  0  0  0  0  0  0  0  0
   -3.5150    5.1524  -18.0060 C   0  0  0  0  0  0  0  0  0  0  0  0
   -4.9141    5.3126  -17.6059 N   0  0  0  0  0  0  0  0  0  0  0  0
   -5.3991    5.4473  -16.3299 C   0  0  0  0  0  0  0  0  0  0  0  0
   -6.7087    5.0422  -16.4069 C   0  0  0  0  0  0  0  0  0  0  0  0
   -7.6226    4.8610  -15.3663 C   0  0  0  0  0  0  0  0  0  0  0  0
   -7.4119    5.2329  -13.9541 C   0  0  0  0  0  0  0  0  0  0  0  0
   -6.9307    6.2688  -13.7130 O   0  0  0  0  0  0  0  0  0  0  0  0
   -7.9612    4.1377  -13.0083 N   0  0  0  0  0  0  0  0  0  0  0  0
   -8.1135    4.1312  -11.6231 C   0  0  0  0  0  0  0  0  0  0  0  0
   -7.8819    5.2643  -10.8312 C   0  0  0  0  0  0  0  0  0  0  0  0
   -8.0528    5.3122   -9.4821 N   0  0  0  0  0  0  0  0  0  0  0  0
   -8.4577    4.1541   -8.9298 C   0  0  0  0  0  0  0  0  0  0  0  0
   -8.6974    2.9830   -9.6263 C   0  0  0  0  0  0  0  0  0  0  0  0
   -8.5328    2.9573  -10.9976 C   0  0  0  0  0  0  0  0  0  0  0  0
   -9.0782    1.9054   -8.6710 C   0  0  0  0  0  0  0  0  0  0  0  0
   -9.4218    2.5948   -7.4026 N   0  0  0  0  0  0  0  0  0  0  0  0
   -8.7301    3.9080   -7.4699 C   0  0  0  0  0  0  0  0  0  0  0  0
   -8.8481    4.3401  -15.8344 C   0  0  0  0  0  0  0  0  0  0  0  0
   -9.1130    4.0610  -17.2028 C   0  0  0  0  0  0  0  0  0  0  0  0
  -10.3199    3.5742  -17.5189 F   0  0  0  0  0  0  0  0  0  0  0  0
   -8.1984    4.2588  -18.2392 C   0  0  0  0  0  0  0  0  0  0  0  0
   -6.9632    4.7413  -17.7971 C   0  0  0  0  0  0  0  0  0  0  0  0
   -5.8567    4.9687  -18.5060 N   0  0  0  0  0  0  0  0  0  0  0  0
  1  2  1  0
  2  3  1  0
  2  4  1  0
  4  5  1  0
  5  6  1  0
  6  7  2  0
  7  8  1  0
  8  9  1  0
  9 10  2  0
  9 11  1  0
 11 12  1  0
 12 13  2  0
 13 14  1  0
 14 15  2  0
 15 16  1  0
 16 17  2  0
 16 18  1  0
 18 19  1  0
 19 20  1  0
  8 21  2  0
 21 22  1  0
 22 23  1  0
 22 24  2  0
 24 25  1  0
 25 26  2  0
 26  5  1  0
 25  7  1  0
 17 12  1  0
 20 15  1  0
M  END
>  <smiles>  (1629) 
C23253-P203

>  <fragmenstein_outcome>  (1629) 
acceptable

>  <inchikey>  (1629) 
YLSYXRHBTCIBOP-UHFFFAOYSA-N

>  <fragmenstein_mode>  (1629) 
expansion

>  <HIPPO Pose ID>  (1629) 
22352

>  <Energy>  (1629) 
110.207456

>  <fragmenstein_error>  (1629) 


>  <tags>  (1629) 
{'openbind_xx01zvns2b_c1_fragmenstein', 'fragmenstein_placed'}

>  <ref_pdb>  (1629) 
175

>  <scratch_subdir>  (1629) 
/opt/xchem-fragalysis-2/maxwin/BulkDock/SCRATCH/511028/C23253-P203

>  <alias>  (1629) 
CN(C)Cn1cc2c(C(=O)Nc3cnc4c(c3)CNC4)cc(F)cc2n1

>  <HIPPO Compound ID>  (1629) 
23253

>  <fragmenstein_runtime>  (1629) 
2.869234

$$$$
CCNn1ncc2c(C(=O)Nc3cnc4c(c3)CNC4)cc(F)cc21
     RDKit          3D

 25 28  0  0  0  0  0  0  0  0999 V2000
   -2.5342    4.7506  -18.7278 C   0  0  0  0  0  0  0  0  0  0  0  0
   -3.5463    5.6818  -19.3773 C   0  0  0  0  0  0  0  0  0  0  0  0
   -4.9465    5.3197  -19.1811 N   0  0  0  0  0  0  0  0  0  0  0  0
   -5.4029    5.4815  -17.8505 N   0  0  0  0  0  0  0  0  0  0  0  0
   -4.7147    6.1352  -16.8952 N   0  0  0  0  0  0  0  0  0  0  0  0
   -5.4589    6.0088  -15.8006 C   0  0  0  0  0  0  0  0  0  0  0  0
   -6.6583    5.3131  -16.0367 C   0  0  0  0  0  0  0  0  0  0  0  0
   -7.7737    4.9288  -15.2691 C   0  0  0  0  0  0  0  0  0  0  0  0
   -7.8571    5.3538  -13.8534 C   0  0  0  0  0  0  0  0  0  0  0  0
   -7.6494    6.4763  -13.6118 O   0  0  0  0  0  0  0  0  0  0  0  0
   -8.2471    4.1851  -12.9224 N   0  0  0  0  0  0  0  0  0  0  0  0
   -8.3664    4.1343  -11.5350 C   0  0  0  0  0  0  0  0  0  0  0  0
   -8.1847    5.2681  -10.7279 C   0  0  0  0  0  0  0  0  0  0  0  0
   -8.3012    5.2822   -9.3735 N   0  0  0  0  0  0  0  0  0  0  0  0
   -8.6103    4.0917   -8.8318 C   0  0  0  0  0  0  0  0  0  0  0  0
   -8.8007    2.9195   -9.5437 C   0  0  0  0  0  0  0  0  0  0  0  0
   -8.6752    2.9232  -10.9198 C   0  0  0  0  0  0  0  0  0  0  0  0
   -9.0996    1.8110   -8.5952 C   0  0  0  0  0  0  0  0  0  0  0  0
   -9.4674    2.4671   -7.3156 N   0  0  0  0  0  0  0  0  0  0  0  0
   -8.8305    3.8076   -7.3703 C   0  0  0  0  0  0  0  0  0  0  0  0
   -8.8259    4.2507  -15.8880 C   0  0  0  0  0  0  0  0  0  0  0  0
   -8.7736    3.9802  -17.2482 C   0  0  0  0  0  0  0  0  0  0  0  0
   -9.8157    3.3564  -17.8117 F   0  0  0  0  0  0  0  0  0  0  0  0
   -7.6818    4.3437  -18.0366 C   0  0  0  0  0  0  0  0  0  0  0  0
   -6.6197    5.0040  -17.3958 C   0  0  0  0  0  0  0  0  0  0  0  0
  1  2  1  0
  2  3  1  0
  3  4  1  0
  4  5  1  0
  5  6  2  0
  6  7  1  0
  7  8  2  0
  8  9  1  0
  9 10  2  0
  9 11  1  0
 11 12  1  0
 12 13  2  0
 13 14  1  0
 14 15  2  0
 15 16  1  0
 16 17  2  0
 16 18  1  0
 18 19  1  0
 19 20  1  0
  8 21  1  0
 21 22  2  0
 22 23  1  0
 22 24  1  0
 24 25  2  0
 25  4  1  0
 25  7  1  0
 17 12  1  0
 20 15  1  0
M  END
>  <smiles>  (1630) 
C23273-P203

>  <fragmenstein_outcome>  (1630) 
acceptable

>  <inchikey>  (1630) 
ZDQMWPLXUXOBBW-UHFFFAOYSA-N

>  <fragmenstein_mode>  (1630) 
expansion

>  <HIPPO Pose ID>  (1630) 
22355

>  <Energy>  (1630) 
29.530106

>  <fragmenstein_error>  (1630) 


>  <tags>  (1630) 
{'openbind_xx01zvns2b_c1_fragmenstein', 'fragmenstein_placed'}

>  <ref_pdb>  (1630) 
175

>  <scratch_subdir>  (1630) 
/opt/xchem-fragalysis-2/maxwin/BulkDock/SCRATCH/511028/C23273-P203

>  <alias>  (1630) 
CCNn1ncc2c(C(=O)Nc3cnc4c(c3)CNC4)cc(F)cc21

>  <HIPPO Compound ID>  (1630) 
28927

>  <fragmenstein_runtime>  (1630) 
3.971315

$$$$
O=C(Nc1cnc2c(c1)CNC2)c1cc(F)cc2c1cn1cn[nH]c21
     RDKit          3D

 25 29  0  0  0  0  0  0  0  0999 V2000
   -5.8217    3.8223  -13.6715 O   0  0  0  0  0  0  0  0  0  0  0  0
   -6.8208    4.3928  -13.8582 C   0  0  0  0  0  0  0  0  0  0  0  0
   -7.8924    4.8883  -12.8611 N   0  0  0  0  0  0  0  0  0  0  0  0
   -7.9991    4.7076  -11.4891 C   0  0  0  0  0  0  0  0  0  0  0  0
   -8.3484    5.7469  -10.6267 C   0  0  0  0  0  0  0  0  0  0  0  0
   -8.5649    5.5967   -9.2949 N   0  0  0  0  0  0  0  0  0  0  0  0
   -8.5250    4.3210   -8.8604 C   0  0  0  0  0  0  0  0  0  0  0  0
   -8.2633    3.2224   -9.6544 C   0  0  0  0  0  0  0  0  0  0  0  0
   -7.9321    3.4085  -10.9825 C   0  0  0  0  0  0  0  0  0  0  0  0
   -8.4703    1.9695   -8.8792 C   0  0  0  0  0  0  0  0  0  0  0  0
   -8.7724    2.3770   -7.4832 N   0  0  0  0  0  0  0  0  0  0  0  0
   -8.7817    3.8582   -7.4544 C   0  0  0  0  0  0  0  0  0  0  0  0
   -7.2556    4.6387  -15.2526 C   0  0  0  0  0  0  0  0  0  0  0  0
   -8.5701    4.2712  -15.6645 C   0  0  0  0  0  0  0  0  0  0  0  0
   -9.0122    4.2200  -17.0258 C   0  0  0  0  0  0  0  0  0  0  0  0
  -10.2538    3.7765  -17.2621 F   0  0  0  0  0  0  0  0  0  0  0  0
   -8.2294    4.5525  -18.1357 C   0  0  0  0  0  0  0  0  0  0  0  0
   -6.9560    4.8949  -17.7223 C   0  0  0  0  0  0  0  0  0  0  0  0
   -6.4560    4.9311  -16.3635 C   0  0  0  0  0  0  0  0  0  0  0  0
   -5.0974    5.2165  -16.4179 C   0  0  0  0  0  0  0  0  0  0  0  0
   -4.7976    5.3082  -17.7537 N   0  0  0  0  0  0  0  0  0  0  0  0
   -3.7134    5.5045  -18.5897 C   0  0  0  0  0  0  0  0  0  0  0  0
   -4.1105    5.5213  -19.8387 N   0  0  0  0  0  0  0  0  0  0  0  0
   -5.4872    5.2957  -19.7861 N   0  0  0  0  0  0  0  0  0  0  0  0
   -5.9002    5.1612  -18.5214 C   0  0  0  0  0  0  0  0  0  0  0  0
  1  2  2  0
  2  3  1  0
  3  4  1  0
  4  5  2  0
  5  6  1  0
  6  7  2  0
  7  8  1  0
  8  9  2  0
  8 10  1  0
 10 11  1  0
 11 12  1  0
  2 13  1  0
 13 14  2  0
 14 15  1  0
 15 16  1  0
 15 17  2  0
 17 18  1  0
 18 19  1  0
 19 20  2  0
 20 21  1  0
 21 22  1  0
 22 23  2  0
 23 24  1  0
 24 25  1  0
  9  4  1  0
 19 13  1  0
 25 21  1  0
 12  7  1  0
 25 18  2  0
M  END
>  <smiles>  (1631) 
C23282-P203

>  <fragmenstein_outcome>  (1631) 
acceptable

>  <inchikey>  (1631) 
IOAOLSURDMSEJM-UHFFFAOYSA-N

>  <fragmenstein_mode>  (1631) 
expansion

>  <HIPPO Pose ID>  (1631) 
22359

>  <Energy>  (1631) 
151.228287

>  <fragmenstein_error>  (1631) 


>  <tags>  (1631) 
{'openbind_xx01zvns2b_c1_fragmenstein', 'fragmenstein_placed'}

>  <ref_pdb>  (1631) 
175

>  <scratch_subdir>  (1631) 
/opt/xchem-fragalysis-2/maxwin/BulkDock/SCRATCH/511028/C23282-P203

>  <alias>  (1631) 
O=C(Nc1cnc2c(c1)CNC2)c1cc(F)cc2c1cn1cn[nH]c21

>  <HIPPO Compound ID>  (1631) 
23282

>  <fragmenstein_runtime>  (1631) 
5.149678

$$$$
O=C(Nc1cnc2c(c1)CNC2)c1cc(F)cc2c1cnn2NC1CNC1
     RDKit          3D

 27 31  0  0  0  0  0  0  0  0999 V2000
   -7.3896    6.3977  -13.5687 O   0  0  0  0  0  0  0  0  0  0  0  0
   -7.6788    5.2941  -13.8158 C   0  0  0  0  0  0  0  0  0  0  0  0
   -8.1575    4.1535  -12.8908 N   0  0  0  0  0  0  0  0  0  0  0  0
   -8.2851    4.1062  -11.5047 C   0  0  0  0  0  0  0  0  0  0  0  0
   -8.0739    5.2339  -10.6964 C   0  0  0  0  0  0  0  0  0  0  0  0
   -8.2142    5.2553   -9.3444 N   0  0  0  0  0  0  0  0  0  0  0  0
   -8.5721    4.0769   -8.8062 C   0  0  0  0  0  0  0  0  0  0  0  0
   -8.7894    2.9105   -9.5198 C   0  0  0  0  0  0  0  0  0  0  0  0
   -8.6484    2.9086  -10.8941 C   0  0  0  0  0  0  0  0  0  0  0  0
   -9.1246    1.8104   -8.5746 C   0  0  0  0  0  0  0  0  0  0  0  0
   -9.4863    2.4745   -7.2980 N   0  0  0  0  0  0  0  0  0  0  0  0
   -8.8209    3.8015   -7.3476 C   0  0  0  0  0  0  0  0  0  0  0  0
   -7.6886    4.9004  -15.2447 C   0  0  0  0  0  0  0  0  0  0  0  0
   -8.7960    4.2603  -15.8128 C   0  0  0  0  0  0  0  0  0  0  0  0
   -8.8552    4.0489  -17.1831 C   0  0  0  0  0  0  0  0  0  0  0  0
   -9.9358    3.4464  -17.6941 F   0  0  0  0  0  0  0  0  0  0  0  0
   -7.8457    4.4783  -18.0394 C   0  0  0  0  0  0  0  0  0  0  0  0
   -6.7428    5.1220  -17.4573 C   0  0  0  0  0  0  0  0  0  0  0  0
   -6.6341    5.3143  -16.0822 C   0  0  0  0  0  0  0  0  0  0  0  0
   -5.3829    5.9439  -15.9177 C   0  0  0  0  0  0  0  0  0  0  0  0
   -4.7469    6.1378  -17.0738 N   0  0  0  0  0  0  0  0  0  0  0  0
   -5.6271    5.7218  -18.0004 N   0  0  0  0  0  0  0  0  0  0  0  0
   -5.4266    5.8718  -19.3824 N   0  0  0  0  0  0  0  0  0  0  0  0
   -4.9399    7.2054  -19.7345 C   0  0  0  0  0  0  0  0  0  0  0  0
   -3.3984    7.2980  -19.6332 C   0  0  0  0  0  0  0  0  0  0  0  0
   -3.4105    7.9691  -20.9598 N   0  0  0  0  0  0  0  0  0  0  0  0
   -4.6819    7.2637  -21.2615 C   0  0  0  0  0  0  0  0  0  0  0  0
  1  2  2  0
  2  3  1  0
  3  4  1  0
  4  5  2  0
  5  6  1  0
  6  7  2  0
  7  8  1  0
  8  9  2  0
  8 10  1  0
 10 11  1  0
 11 12  1  0
  2 13  1  0
 13 14  2  0
 14 15  1  0
 15 16  1  0
 15 17  2  0
 17 18  1  0
 18 19  2  0
 19 20  1  0
 20 21  2  0
 21 22  1  0
 22 23  1  0
 23 24  1  0
 24 25  1  0
 25 26  1  0
 26 27  1  0
  9  4  1  0
 19 13  1  0
 27 24  1  0
 12  7  1  0
 22 18  1  0
M  END
>  <smiles>  (1632) 
C23287-P203

>  <fragmenstein_outcome>  (1632) 
acceptable

>  <inchikey>  (1632) 
JCPWHODBQLGMSS-UHFFFAOYSA-N

>  <fragmenstein_mode>  (1632) 
expansion

>  <HIPPO Pose ID>  (1632) 
22360

>  <Energy>  (1632) 
68.803638

>  <fragmenstein_error>  (1632) 


>  <tags>  (1632) 
{'openbind_xx01zvns2b_c1_fragmenstein', 'fragmenstein_placed'}

>  <ref_pdb>  (1632) 
175

>  <scratch_subdir>  (1632) 
/opt/xchem-fragalysis-2/maxwin/BulkDock/SCRATCH/511028/C23287-P203

>  <alias>  (1632) 
O=C(Nc1cnc2c(c1)CNC2)c1cc(F)cc2c1cnn2NC1CNC1

>  <HIPPO Compound ID>  (1632) 
37305

>  <fragmenstein_runtime>  (1632) 
4.46135

$$$$
Cc1cc(CN)cc(NC(=O)c2cc(Cl)cc3c2CC(=O)N3NC(C)(C)CO)c1
     RDKit          3D

 29 31  0  0  0  0  0  0  0  0999 V2000
   -7.8906    6.8042   -8.6505 C   0  0  0  0  0  0  0  0  0  0  0  0
   -8.1197    5.5339   -9.4125 C   0  0  0  0  0  0  0  0  0  0  0  0
   -8.4800    4.3665   -8.7469 C   0  0  0  0  0  0  0  0  0  0  0  0
   -8.6769    3.1668   -9.4460 C   0  0  0  0  0  0  0  0  0  0  0  0
   -9.0833    1.9007   -8.7317 C   0  0  0  0  0  0  0  0  0  0  0  0
   -8.9699    1.9869   -7.2787 N   0  0  0  0  0  0  0  0  0  0  0  0
   -8.5233    3.1588  -10.8457 C   0  0  0  0  0  0  0  0  0  0  0  0
   -8.1439    4.3182  -11.5237 C   0  0  0  0  0  0  0  0  0  0  0  0
   -7.9981    4.2954  -12.9136 N   0  0  0  0  0  0  0  0  0  0  0  0
   -7.4060    5.3501  -13.8796 C   0  0  0  0  0  0  0  0  0  0  0  0
   -7.0187    6.4330  -13.6734 O   0  0  0  0  0  0  0  0  0  0  0  0
   -7.4314    4.9066  -15.3031 C   0  0  0  0  0  0  0  0  0  0  0  0
   -8.5943    4.3581  -15.8502 C   0  0  0  0  0  0  0  0  0  0  0  0
   -8.7002    4.1938  -17.2381 C   0  0  0  0  0  0  0  0  0  0  0  0
  -10.1725    3.6484  -17.9185 Cl  0  0  0  0  0  0  0  0  0  0  0  0
   -7.6694    4.5554  -18.1012 C   0  0  0  0  0  0  0  0  0  0  0  0
   -6.5296    5.1078  -17.5535 C   0  0  0  0  0  0  0  0  0  0  0  0
   -6.3997    5.2585  -16.1718 C   0  0  0  0  0  0  0  0  0  0  0  0
   -5.0893    5.9095  -15.8731 C   0  0  0  0  0  0  0  0  0  0  0  0
   -4.5421    6.2512  -17.2565 C   0  0  0  0  0  0  0  0  0  0  0  0
   -3.5317    6.9207  -17.4245 O   0  0  0  0  0  0  0  0  0  0  0  0
   -5.4186    5.6805  -18.2180 N   0  0  0  0  0  0  0  0  0  0  0  0
   -5.5914    6.2155  -19.5179 N   0  0  0  0  0  0  0  0  0  0  0  0
   -4.4356    6.3724  -20.4306 C   0  0  0  0  0  0  0  0  0  0  0  0
   -4.9812    6.2365  -21.8728 C   0  0  0  0  0  0  0  0  0  0  0  0
   -3.3196    5.3357  -20.2380 C   0  0  0  0  0  0  0  0  0  0  0  0
   -3.8520    7.8061  -20.3431 C   0  0  0  0  0  0  0  0  0  0  0  0
   -4.8332    8.8043  -20.6614 O   0  0  0  0  0  0  0  0  0  0  0  0
   -7.9332    5.4958  -10.8020 C   0  0  0  0  0  0  0  0  0  0  0  0
  1  2  1  0
  2  3  2  0
  3  4  1  0
  4  5  1  0
  5  6  1  0
  4  7  2  0
  7  8  1  0
  8  9  1  0
  9 10  1  0
 10 11  2  0
 10 12  1  0
 12 13  2  0
 13 14  1  0
 14 15  1  0
 14 16  2  0
 16 17  1  0
 17 18  2  0
 18 19  1  0
 19 20  1  0
 20 21  2  0
 20 22  1  0
 22 23  1  0
 23 24  1  0
 24 25  1  0
 24 26  1  0
 24 27  1  0
 27 28  1  0
  8 29  2  0
 29  2  1  0
 18 12  1  0
 22 17  1  0
M  END
>  <smiles>  (1633) 
C23303-P203

>  <fragmenstein_outcome>  (1633) 
acceptable

>  <inchikey>  (1633) 
CMVILRNMIUHCEH-UHFFFAOYSA-N

>  <fragmenstein_mode>  (1633) 
expansion

>  <HIPPO Pose ID>  (1633) 
22363

>  <Energy>  (1633) 
110.593795

>  <fragmenstein_error>  (1633) 


>  <tags>  (1633) 
{'openbind_xx01zvns2b_c1_fragmenstein', 'fragmenstein_placed'}

>  <ref_pdb>  (1633) 
175

>  <scratch_subdir>  (1633) 
/opt/xchem-fragalysis-2/maxwin/BulkDock/SCRATCH/511028/C23303-P203

>  <alias>  (1633) 
Cc1cc(CN)cc(NC(=O)c2cc(Cl)cc3c2CC(=O)N3NC(C)(C)CO)c1

>  <HIPPO Compound ID>  (1633) 
23303

>  <fragmenstein_runtime>  (1633) 
9.176196

$$$$
Cc1cc(CN)cc(NC(=O)c2cccc3c2CC(=O)N3CN)c1
     RDKit          3D

 24 26  0  0  0  0  0  0  0  0999 V2000
   -7.7812    7.0644   -9.0176 C   0  0  0  0  0  0  0  0  0  0  0  0
   -8.0420    5.7547   -9.6963 C   0  0  0  0  0  0  0  0  0  0  0  0
   -8.2876    4.6095   -8.9348 C   0  0  0  0  0  0  0  0  0  0  0  0
   -8.5334    3.3725   -9.5446 C   0  0  0  0  0  0  0  0  0  0  0  0
   -8.8682    2.1357   -8.7382 C   0  0  0  0  0  0  0  0  0  0  0  0
   -8.9569    2.3570   -7.2900 N   0  0  0  0  0  0  0  0  0  0  0  0
   -8.4883    3.2939  -10.9531 C   0  0  0  0  0  0  0  0  0  0  0  0
   -8.2425    4.4306  -11.7272 C   0  0  0  0  0  0  0  0  0  0  0  0
   -8.2278    4.3511  -13.1232 N   0  0  0  0  0  0  0  0  0  0  0  0
   -8.0620    5.4568  -14.1898 C   0  0  0  0  0  0  0  0  0  0  0  0
   -7.9889    6.6169  -14.0728 O   0  0  0  0  0  0  0  0  0  0  0  0
   -7.9205    4.9225  -15.5662 C   0  0  0  0  0  0  0  0  0  0  0  0
   -8.9254    4.1921  -16.1999 C   0  0  0  0  0  0  0  0  0  0  0  0
   -8.8287    3.8967  -17.5739 C   0  0  0  0  0  0  0  0  0  0  0  0
   -7.7255    4.3193  -18.3280 C   0  0  0  0  0  0  0  0  0  0  0  0
   -6.7326    5.0317  -17.6818 C   0  0  0  0  0  0  0  0  0  0  0  0
   -6.8291    5.3270  -16.3225 C   0  0  0  0  0  0  0  0  0  0  0  0
   -5.6448    6.1324  -15.8903 C   0  0  0  0  0  0  0  0  0  0  0  0
   -4.8602    6.2929  -17.1821 C   0  0  0  0  0  0  0  0  0  0  0  0
   -3.8240    6.9324  -17.2889 O   0  0  0  0  0  0  0  0  0  0  0  0
   -5.5529    5.6021  -18.1854 N   0  0  0  0  0  0  0  0  0  0  0  0
   -5.0840    5.5001  -19.5353 C   0  0  0  0  0  0  0  0  0  0  0  0
   -5.5843    6.6445  -20.2674 N   0  0  0  0  0  0  0  0  0  0  0  0
   -8.0116    5.6533  -11.0918 C   0  0  0  0  0  0  0  0  0  0  0  0
  1  2  1  0
  2  3  2  0
  3  4  1  0
  4  5  1  0
  5  6  1  0
  4  7  2  0
  7  8  1  0
  8  9  1  0
  9 10  1  0
 10 11  2  0
 10 12  1  0
 12 13  2  0
 13 14  1  0
 14 15  2  0
 15 16  1  0
 16 17  2  0
 17 18  1  0
 18 19  1  0
 19 20  2  0
 19 21  1  0
 21 22  1  0
 22 23  1  0
  8 24  2  0
 24  2  1  0
 17 12  1  0
 21 16  1  0
M  END
>  <smiles>  (1634) 
C23305-P75

>  <fragmenstein_outcome>  (1634) 
acceptable

>  <inchikey>  (1634) 
UTBHXLKXTWLWKQ-UHFFFAOYSA-N

>  <fragmenstein_mode>  (1634) 
expansion

>  <HIPPO Pose ID>  (1634) 
22365

>  <Energy>  (1634) 
10.056492

>  <fragmenstein_error>  (1634) 


>  <tags>  (1634) 
{'openbind_xx01zvns2b_c1_fragmenstein', 'fragmenstein_placed'}

>  <ref_pdb>  (1634) 
175

>  <scratch_subdir>  (1634) 
/opt/xchem-fragalysis-2/maxwin/BulkDock/SCRATCH/511028/C23305-P75

>  <alias>  (1634) 
Cc1cc(CN)cc(NC(=O)c2cccc3c2CC(=O)N3CN)c1

>  <HIPPO Compound ID>  (1634) 
23305

>  <fragmenstein_runtime>  (1634) 
3.872062

$$$$
Cc1cc(CN)cc(NC(=O)c2cc(C#N)cc3c2CC(=O)N3)c1
     RDKit          3D

 24 26  0  0  0  0  0  0  0  0999 V2000
   -7.3283    6.5064   -8.4768 C   0  0  0  0  0  0  0  0  0  0  0  0
   -7.7460    5.3468   -9.3317 C   0  0  0  0  0  0  0  0  0  0  0  0
   -8.2125    4.1698   -8.7453 C   0  0  0  0  0  0  0  0  0  0  0  0
   -8.5973    3.0783   -9.5341 C   0  0  0  0  0  0  0  0  0  0  0  0
   -9.0693    1.7771   -8.9264 C   0  0  0  0  0  0  0  0  0  0  0  0
   -9.6688    1.8999   -7.6034 N   0  0  0  0  0  0  0  0  0  0  0  0
   -8.4597    3.1741  -10.9340 C   0  0  0  0  0  0  0  0  0  0  0  0
   -7.9509    4.3308  -11.5339 C   0  0  0  0  0  0  0  0  0  0  0  0
   -7.8185    4.3682  -12.9259 N   0  0  0  0  0  0  0  0  0  0  0  0
   -7.2159    5.4613  -13.8540 C   0  0  0  0  0  0  0  0  0  0  0  0
   -6.8088    6.5290  -13.6026 O   0  0  0  0  0  0  0  0  0  0  0  0
   -7.2802    5.0698  -15.2958 C   0  0  0  0  0  0  0  0  0  0  0  0
   -8.4709    4.5271  -15.8091 C   0  0  0  0  0  0  0  0  0  0  0  0
   -8.6253    4.3156  -17.1933 C   0  0  0  0  0  0  0  0  0  0  0  0
   -9.8975    3.9688  -17.7316 C   0  0  0  0  0  0  0  0  0  0  0  0
  -10.9318    3.7256  -18.1884 N   0  0  0  0  0  0  0  0  0  0  0  0
   -7.5891    4.5765  -18.0822 C   0  0  0  0  0  0  0  0  0  0  0  0
   -6.4551    5.1448  -17.5640 C   0  0  0  0  0  0  0  0  0  0  0  0
   -6.2837    5.4148  -16.2051 C   0  0  0  0  0  0  0  0  0  0  0  0
   -4.9785    6.1439  -16.0367 C   0  0  0  0  0  0  0  0  0  0  0  0
   -4.5050    6.3205  -17.4969 C   0  0  0  0  0  0  0  0  0  0  0  0
   -3.5552    6.9721  -17.8992 O   0  0  0  0  0  0  0  0  0  0  0  0
   -5.3952    5.6340  -18.3025 N   0  0  0  0  0  0  0  0  0  0  0  0
   -7.6023    5.4137  -10.7289 C   0  0  0  0  0  0  0  0  0  0  0  0
  1  2  1  0
  2  3  2  0
  3  4  1  0
  4  5  1  0
  5  6  1  0
  4  7  2  0
  7  8  1  0
  8  9  1  0
  9 10  1  0
 10 11  2  0
 10 12  1  0
 12 13  2  0
 13 14  1  0
 14 15  1  0
 15 16  3  0
 14 17  2  0
 17 18  1  0
 18 19  2  0
 19 20  1  0
 20 21  1  0
 21 22  2  0
 21 23  1  0
  8 24  2  0
 24  2  1  0
 19 12  1  0
 23 18  1  0
M  END
>  <smiles>  (1635) 
C23312-P203

>  <fragmenstein_outcome>  (1635) 
acceptable

>  <inchikey>  (1635) 
PIPFZPQOQPKKBK-UHFFFAOYSA-N

>  <fragmenstein_mode>  (1635) 
expansion

>  <HIPPO Pose ID>  (1635) 
22367

>  <Energy>  (1635) 
36.878873

>  <fragmenstein_error>  (1635) 


>  <tags>  (1635) 
{'openbind_xx01zvns2b_c1_fragmenstein', 'fragmenstein_placed'}

>  <ref_pdb>  (1635) 
175

>  <scratch_subdir>  (1635) 
/opt/xchem-fragalysis-2/maxwin/BulkDock/SCRATCH/511028/C23312-P203

>  <alias>  (1635) 
Cc1cc(CN)cc(NC(=O)c2cc(C#N)cc3c2CC(=O)N3)c1

>  <HIPPO Compound ID>  (1635) 
23312

>  <fragmenstein_runtime>  (1635) 
3.502412

$$$$
Cc1cc(CN)cc(NC(=O)c2cc(Br)cc3c2CC(=O)N3)c1
     RDKit          3D

 23 25  0  0  0  0  0  0  0  0999 V2000
   -7.7534    6.7836   -8.7793 C   0  0  0  0  0  0  0  0  0  0  0  0
   -8.0286    5.5235   -9.5440 C   0  0  0  0  0  0  0  0  0  0  0  0
   -8.4052    4.3610   -8.8749 C   0  0  0  0  0  0  0  0  0  0  0  0
   -8.6428    3.1721   -9.5766 C   0  0  0  0  0  0  0  0  0  0  0  0
   -9.0270    1.8937   -8.8710 C   0  0  0  0  0  0  0  0  0  0  0  0
   -8.9898    1.9738   -7.4110 N   0  0  0  0  0  0  0  0  0  0  0  0
   -8.5182    3.1745  -10.9810 C   0  0  0  0  0  0  0  0  0  0  0  0
   -8.1171    4.3260  -11.6635 C   0  0  0  0  0  0  0  0  0  0  0  0
   -8.0010    4.2969  -13.0579 N   0  0  0  0  0  0  0  0  0  0  0  0
   -7.3417    5.3058  -14.0355 C   0  0  0  0  0  0  0  0  0  0  0  0
   -6.8622    6.3533  -13.8340 O   0  0  0  0  0  0  0  0  0  0  0  0
   -7.4482    4.8655  -15.4551 C   0  0  0  0  0  0  0  0  0  0  0  0
   -8.6745    4.4292  -15.9673 C   0  0  0  0  0  0  0  0  0  0  0  0
   -8.8224    4.2089  -17.3478 C   0  0  0  0  0  0  0  0  0  0  0  0
  -10.5131    3.8535  -18.0652 Br  0  0  0  0  0  0  0  0  0  0  0  0
   -7.7698    4.3555  -18.2388 C   0  0  0  0  0  0  0  0  0  0  0  0
   -6.5844    4.7869  -17.7104 C   0  0  0  0  0  0  0  0  0  0  0  0
   -6.4059    5.0533  -16.3521 C   0  0  0  0  0  0  0  0  0  0  0  0
   -5.0044    5.5432  -16.1403 C   0  0  0  0  0  0  0  0  0  0  0  0
   -4.4237    5.4832  -17.5618 C   0  0  0  0  0  0  0  0  0  0  0  0
   -3.2892    5.7631  -17.9076 O   0  0  0  0  0  0  0  0  0  0  0  0
   -5.4261    5.0528  -18.4121 N   0  0  0  0  0  0  0  0  0  0  0  0
   -7.8616    5.4908  -10.9387 C   0  0  0  0  0  0  0  0  0  0  0  0
  1  2  1  0
  2  3  2  0
  3  4  1  0
  4  5  1  0
  5  6  1  0
  4  7  2  0
  7  8  1  0
  8  9  1  0
  9 10  1  0
 10 11  2  0
 10 12  1  0
 12 13  2  0
 13 14  1  0
 14 15  1  0
 14 16  2  0
 16 17  1  0
 17 18  2  0
 18 19  1  0
 19 20  1  0
 20 21  2  0
 20 22  1  0
  8 23  2  0
 23  2  1  0
 18 12  1  0
 22 17  1  0
M  END
>  <smiles>  (1636) 
C23314-P203

>  <fragmenstein_outcome>  (1636) 
acceptable

>  <inchikey>  (1636) 
YEZAPXHAAFVSNG-UHFFFAOYSA-N

>  <fragmenstein_mode>  (1636) 
expansion

>  <HIPPO Pose ID>  (1636) 
22368

>  <Energy>  (1636) 
23.587308

>  <fragmenstein_error>  (1636) 


>  <tags>  (1636) 
{'openbind_xx01zvns2b_c1_fragmenstein', 'fragmenstein_placed'}

>  <ref_pdb>  (1636) 
175

>  <scratch_subdir>  (1636) 
/opt/xchem-fragalysis-2/maxwin/BulkDock/SCRATCH/511028/C23314-P203

>  <alias>  (1636) 
Cc1cc(CN)cc(NC(=O)c2cc(Br)cc3c2CC(=O)N3)c1

>  <HIPPO Compound ID>  (1636) 
23314

>  <fragmenstein_runtime>  (1636) 
3.590951

$$$$
Cc1cc(CN)cc(NC(=O)c2cccc3c2CC(=NN)N3)c1
     RDKit          3D

 23 25  0  0  0  0  0  0  0  0999 V2000
   -7.7765    6.5255   -8.4861 C   0  0  0  0  0  0  0  0  0  0  0  0
   -8.1415    5.3041   -9.2752 C   0  0  0  0  0  0  0  0  0  0  0  0
   -8.4409    4.1064   -8.6297 C   0  0  0  0  0  0  0  0  0  0  0  0
   -8.7839    2.9625   -9.3635 C   0  0  0  0  0  0  0  0  0  0  0  0
   -9.1090    1.6544   -8.6859 C   0  0  0  0  0  0  0  0  0  0  0  0
   -9.7287    1.7940   -7.3732 N   0  0  0  0  0  0  0  0  0  0  0  0
   -8.7521    3.0180  -10.7702 C   0  0  0  0  0  0  0  0  0  0  0  0
   -8.4181    4.1995  -11.4298 C   0  0  0  0  0  0  0  0  0  0  0  0
   -8.3636    4.2169  -12.8259 N   0  0  0  0  0  0  0  0  0  0  0  0
   -7.8879    5.3206  -13.7986 C   0  0  0  0  0  0  0  0  0  0  0  0
   -7.5395    6.4160  -13.5891 O   0  0  0  0  0  0  0  0  0  0  0  0
   -7.8657    4.8548  -15.2089 C   0  0  0  0  0  0  0  0  0  0  0  0
   -8.9700    4.2707  -15.8276 C   0  0  0  0  0  0  0  0  0  0  0  0
   -8.9707    4.0166  -17.2129 C   0  0  0  0  0  0  0  0  0  0  0  0
   -7.8508    4.3107  -17.9953 C   0  0  0  0  0  0  0  0  0  0  0  0
   -6.7332    4.8082  -17.3618 C   0  0  0  0  0  0  0  0  0  0  0  0
   -6.7520    5.0994  -15.9883 C   0  0  0  0  0  0  0  0  0  0  0  0
   -5.4077    5.6210  -15.5793 C   0  0  0  0  0  0  0  0  0  0  0  0
   -4.6252    5.4518  -16.8947 C   0  0  0  0  0  0  0  0  0  0  0  0
   -3.3329    5.5067  -17.0054 N   0  0  0  0  0  0  0  0  0  0  0  0
   -2.6541    5.7590  -15.8620 N   0  0  0  0  0  0  0  0  0  0  0  0
   -5.5067    5.1724  -17.9239 N   0  0  0  0  0  0  0  0  0  0  0  0
   -8.1219    5.3389  -10.6788 C   0  0  0  0  0  0  0  0  0  0  0  0
  1  2  1  0
  2  3  2  0
  3  4  1  0
  4  5  1  0
  5  6  1  0
  4  7  2  0
  7  8  1  0
  8  9  1  0
  9 10  1  0
 10 11  2  0
 10 12  1  0
 12 13  2  0
 13 14  1  0
 14 15  2  0
 15 16  1  0
 16 17  2  0
 17 18  1  0
 18 19  1  0
 19 20  2  3
 20 21  1  0
 19 22  1  0
  8 23  2  0
 23  2  1  0
 17 12  1  0
 22 16  1  0
M  END
>  <smiles>  (1637) 
C23326-P203

>  <fragmenstein_outcome>  (1637) 
acceptable

>  <inchikey>  (1637) 
BAHQJJCEWVBIHL-UHFFFAOYSA-N

>  <fragmenstein_mode>  (1637) 
expansion

>  <HIPPO Pose ID>  (1637) 
22373

>  <Energy>  (1637) 
76.449146

>  <fragmenstein_error>  (1637) 


>  <tags>  (1637) 
{'openbind_xx01zvns2b_c1_fragmenstein', 'fragmenstein_placed'}

>  <ref_pdb>  (1637) 
175

>  <scratch_subdir>  (1637) 
/opt/xchem-fragalysis-2/maxwin/BulkDock/SCRATCH/511028/C23326-P203

>  <alias>  (1637) 
Cc1cc(CN)cc(NC(=O)c2cccc3c2CC(=NN)N3)c1

>  <HIPPO Compound ID>  (1637) 
25710

>  <fragmenstein_runtime>  (1637) 
4.237798

$$$$
Cc1cc(CN(C)C)cc(NC(=O)c2cc(Cl)cc3c2CC(=O)N3NC(C)(C)CO)c1
     RDKit          3D

 31 33  0  0  0  0  0  0  0  0999 V2000
   -8.2332    7.2974   -8.7030 C   0  0  0  0  0  0  0  0  0  0  0  0
   -8.3180    5.9423   -9.3363 C   0  0  0  0  0  0  0  0  0  0  0  0
   -8.6436    4.8209   -8.5797 C   0  0  0  0  0  0  0  0  0  0  0  0
   -8.7859    3.5445   -9.1573 C   0  0  0  0  0  0  0  0  0  0  0  0
   -9.2135    2.3439   -8.3171 C   0  0  0  0  0  0  0  0  0  0  0  0
   -9.5631    2.6966   -6.9207 N   0  0  0  0  0  0  0  0  0  0  0  0
  -10.5420    1.7743   -6.3542 C   0  0  0  0  0  0  0  0  0  0  0  0
   -8.3827    2.6898   -6.0661 C   0  0  0  0  0  0  0  0  0  0  0  0
   -8.5838    3.4077  -10.5457 C   0  0  0  0  0  0  0  0  0  0  0  0
   -8.2940    4.5343  -11.3181 C   0  0  0  0  0  0  0  0  0  0  0  0
   -8.0952    4.4547  -12.6940 N   0  0  0  0  0  0  0  0  0  0  0  0
   -7.8824    5.5653  -13.7402 C   0  0  0  0  0  0  0  0  0  0  0  0
   -7.7630    6.7190  -13.6059 O   0  0  0  0  0  0  0  0  0  0  0  0
   -7.7066    5.0689  -15.1158 C   0  0  0  0  0  0  0  0  0  0  0  0
   -8.7546    4.5071  -15.8396 C   0  0  0  0  0  0  0  0  0  0  0  0
   -8.6469    4.4191  -17.2391 C   0  0  0  0  0  0  0  0  0  0  0  0
   -9.9950    3.8641  -18.1448 Cl  0  0  0  0  0  0  0  0  0  0  0  0
   -7.5244    4.8961  -17.9262 C   0  0  0  0  0  0  0  0  0  0  0  0
   -6.5076    5.4558  -17.1794 C   0  0  0  0  0  0  0  0  0  0  0  0
   -6.5695    5.4961  -15.7916 C   0  0  0  0  0  0  0  0  0  0  0  0
   -5.3603    6.1993  -15.2515 C   0  0  0  0  0  0  0  0  0  0  0  0
   -4.7285    6.7763  -16.5025 C   0  0  0  0  0  0  0  0  0  0  0  0
   -3.8574    7.6352  -16.5170 O   0  0  0  0  0  0  0  0  0  0  0  0
   -5.3862    6.1891  -17.6025 N   0  0  0  0  0  0  0  0  0  0  0  0
   -5.3385    6.7716  -18.8704 N   0  0  0  0  0  0  0  0  0  0  0  0
   -4.1216    6.4560  -19.6507 C   0  0  0  0  0  0  0  0  0  0  0  0
   -3.8595    4.9467  -19.5981 C   0  0  0  0  0  0  0  0  0  0  0  0
   -4.4662    6.9373  -21.0741 C   0  0  0  0  0  0  0  0  0  0  0  0
   -2.8275    7.1903  -19.2032 C   0  0  0  0  0  0  0  0  0  0  0  0
   -1.7849    7.0172  -20.1692 O   0  0  0  0  0  0  0  0  0  0  0  0
   -8.1661    5.7888  -10.7091 C   0  0  0  0  0  0  0  0  0  0  0  0
  1  2  1  0
  2  3  2  0
  3  4  1  0
  4  5  1  0
  5  6  1  0
  6  7  1  0
  6  8  1  0
  4  9  2  0
  9 10  1  0
 10 11  1  0
 11 12  1  0
 12 13  2  0
 12 14  1  0
 14 15  2  0
 15 16  1  0
 16 17  1  0
 16 18  2  0
 18 19  1  0
 19 20  2  0
 20 21  1  0
 21 22  1  0
 22 23  2  0
 22 24  1  0
 24 25  1  0
 25 26  1  0
 26 27  1  0
 26 28  1  0
 26 29  1  0
 29 30  1  0
 10 31  2  0
 31  2  1  0
 20 14  1  0
 24 19  1  0
M  END
>  <smiles>  (1638) 
C23349-P125

>  <fragmenstein_outcome>  (1638) 
acceptable

>  <inchikey>  (1638) 
OWPLLGXHCORGMB-UHFFFAOYSA-N

>  <fragmenstein_mode>  (1638) 
expansion

>  <HIPPO Pose ID>  (1638) 
22382

>  <Energy>  (1638) 
120.860288

>  <fragmenstein_error>  (1638) 


>  <tags>  (1638) 
{'openbind_xx01zvns2b_c1_fragmenstein', 'fragmenstein_placed'}

>  <ref_pdb>  (1638) 
175

>  <scratch_subdir>  (1638) 
/opt/xchem-fragalysis-2/maxwin/BulkDock/SCRATCH/511028/C23349-P125

>  <alias>  (1638) 
Cc1cc(CN(C)C)cc(NC(=O)c2cc(Cl)cc3c2CC(=O)N3NC(C)(C)CO)c1

>  <HIPPO Compound ID>  (1638) 
30146

>  <fragmenstein_runtime>  (1638) 
11.980744

$$$$
Cc1cc(NC(=O)c2cc(Cl)cc3c2C[C@@H](C(=O)OCc2ccccc2)N3)cc2c1CN(N)C2
     RDKit          3D

 34 38  0  0  0  0  0  0  0  0999 V2000
   -7.8968    6.6631   -8.5435 C   0  0  0  0  0  0  0  0  0  0  0  0
   -8.1199    5.4459   -9.3839 C   0  0  0  0  0  0  0  0  0  0  0  0
   -8.0075    5.5038  -10.7820 C   0  0  0  0  0  0  0  0  0  0  0  0
   -8.2476    4.3731  -11.5845 C   0  0  0  0  0  0  0  0  0  0  0  0
   -8.1421    4.4406  -12.9701 N   0  0  0  0  0  0  0  0  0  0  0  0
   -7.6920    5.5988  -13.8864 C   0  0  0  0  0  0  0  0  0  0  0  0
   -7.4127    6.7023  -13.6290 O   0  0  0  0  0  0  0  0  0  0  0  0
   -7.6281    5.1705  -15.3064 C   0  0  0  0  0  0  0  0  0  0  0  0
   -8.6582    4.4322  -15.8869 C   0  0  0  0  0  0  0  0  0  0  0  0
   -8.6180    4.1382  -17.2563 C   0  0  0  0  0  0  0  0  0  0  0  0
   -9.9744    3.3929  -17.9746 Cl  0  0  0  0  0  0  0  0  0  0  0  0
   -7.5431    4.5083  -18.0599 C   0  0  0  0  0  0  0  0  0  0  0  0
   -6.5580    5.2769  -17.4849 C   0  0  0  0  0  0  0  0  0  0  0  0
   -6.6011    5.6099  -16.1266 C   0  0  0  0  0  0  0  0  0  0  0  0
   -5.4361    6.4900  -15.8174 C   0  0  0  0  0  0  0  0  0  0  0  0
   -5.0973    6.9417  -17.2499 C   0  0  1  0  0  0  0  0  0  0  0  0
   -3.7150    7.5348  -17.4505 C   0  0  0  0  0  0  0  0  0  0  0  0
   -3.4434    8.2648  -18.4003 O   0  0  0  0  0  0  0  0  0  0  0  0
   -2.8333    7.2805  -16.4547 O   0  0  0  0  0  0  0  0  0  0  0  0
   -2.3085    5.9506  -16.4738 C   0  0  0  0  0  0  0  0  0  0  0  0
   -0.9804    5.9945  -17.1616 C   0  0  0  0  0  0  0  0  0  0  0  0
   -0.9106    5.7880  -18.5413 C   0  0  0  0  0  0  0  0  0  0  0  0
    0.3181    5.8824  -19.1961 C   0  0  0  0  0  0  0  0  0  0  0  0
    1.4811    6.1650  -18.4817 C   0  0  0  0  0  0  0  0  0  0  0  0
    1.4172    6.3724  -17.1065 C   0  0  0  0  0  0  0  0  0  0  0  0
    0.1896    6.2965  -16.4489 C   0  0  0  0  0  0  0  0  0  0  0  0
   -5.4023    5.7903  -18.1375 N   0  0  0  0  0  0  0  0  0  0  0  0
   -8.6110    3.1587  -11.0064 C   0  0  0  0  0  0  0  0  0  0  0  0
   -8.7554    3.1160   -9.6322 C   0  0  0  0  0  0  0  0  0  0  0  0
   -8.5175    4.2378   -8.8316 C   0  0  0  0  0  0  0  0  0  0  0  0
   -8.7731    3.8695   -7.3997 C   0  0  0  0  0  0  0  0  0  0  0  0
   -9.5454    2.6085   -7.4814 N   0  0  0  0  0  0  0  0  0  0  0  0
   -9.2977    1.7239   -6.3879 N   0  0  0  0  0  0  0  0  0  0  0  0
   -9.1700    1.9680   -8.7665 C   0  0  0  0  0  0  0  0  0  0  0  0
  1  2  1  0
  2  3  2  0
  3  4  1  0
  4  5  1  0
  5  6  1  0
  6  7  2  0
  6  8  1  0
  8  9  2  0
  9 10  1  0
 10 11  1  0
 10 12  2  0
 12 13  1  0
 13 14  2  0
 14 15  1  0
 15 16  1  0
 16 17  1  1
 17 18  2  0
 17 19  1  0
 19 20  1  0
 20 21  1  0
 21 22  2  0
 22 23  1  0
 23 24  2  0
 24 25  1  0
 25 26  2  0
 16 27  1  0
  4 28  2  0
 28 29  1  0
 29 30  2  0
 30 31  1  0
 31 32  1  0
 32 33  1  0
 32 34  1  0
 30  2  1  0
 14  8  1  0
 26 21  1  0
 34 29  1  0
 27 13  1  0
M  END
>  <smiles>  (1639) 
C23389-P203

>  <fragmenstein_outcome>  (1639) 
acceptable

>  <inchikey>  (1639) 
NTYNKDIEXJTVIQ-UHFFFAOYSA-N

>  <fragmenstein_mode>  (1639) 
expansion

>  <HIPPO Pose ID>  (1639) 
22393

>  <Energy>  (1639) 
181.723642

>  <fragmenstein_error>  (1639) 


>  <tags>  (1639) 
{'openbind_xx01zvns2b_c1_fragmenstein', 'fragmenstein_placed'}

>  <ref_pdb>  (1639) 
175

>  <scratch_subdir>  (1639) 
/opt/xchem-fragalysis-2/maxwin/BulkDock/SCRATCH/511028/C23389-P203

>  <alias>  (1639) 
Cc1cc(NC(=O)c2cc(Cl)cc3c2C[C@@H](C(=O)OCc2ccccc2)N3)cc2c1CN(N)C2

>  <HIPPO Compound ID>  (1639) 
23389

>  <fragmenstein_runtime>  (1639) 
9.484761

$$$$
CCc1cc2c(c(C(=O)N[C@@H]3C[C@@H](C)C[C@@]4(CCNC4)C3)c1)CC(=O)N2
     RDKit          3D

 26 29  0  0  0  0  0  0  0  0999 V2000
  -10.6922    4.5067  -18.5846 C   0  0  0  0  0  0  0  0  0  0  0  0
   -9.9202    3.6169  -17.6472 C   0  0  0  0  0  0  0  0  0  0  0  0
   -8.6229    4.2114  -17.2051 C   0  0  0  0  0  0  0  0  0  0  0  0
   -7.5683    4.3677  -18.1068 C   0  0  0  0  0  0  0  0  0  0  0  0
   -6.4009    4.9079  -17.6227 C   0  0  0  0  0  0  0  0  0  0  0  0
   -6.2444    5.3167  -16.3020 C   0  0  0  0  0  0  0  0  0  0  0  0
   -7.2926    5.1962  -15.4139 C   0  0  0  0  0  0  0  0  0  0  0  0
   -7.2113    5.7364  -14.0417 C   0  0  0  0  0  0  0  0  0  0  0  0
   -6.8544    6.8355  -13.8949 O   0  0  0  0  0  0  0  0  0  0  0  0
   -7.6780    4.6935  -13.0121 N   0  0  0  0  0  0  0  0  0  0  0  0
   -7.7150    4.7508  -11.5631 C   0  0  2  0  0  0  0  0  0  0  0  0
   -6.3649    5.2491  -11.0507 C   0  0  0  0  0  0  0  0  0  0  0  0
   -6.2367    5.2435   -9.5329 C   0  0  1  0  0  0  0  0  0  0  0  0
   -6.9305    6.4497   -8.9001 C   0  0  0  0  0  0  0  0  0  0  0  0
   -6.6392    3.8813   -8.9547 C   0  0  0  0  0  0  0  0  0  0  0  0
   -7.9881    3.3128   -9.4500 C   0  0  2  0  0  0  0  0  0  0  0  0
   -9.1568    3.9771   -8.7489 C   0  0  0  0  0  0  0  0  0  0  0  0
   -9.1906    3.3445   -7.3705 C   0  0  0  0  0  0  0  0  0  0  0  0
   -8.7410    1.9765   -7.5848 N   0  0  0  0  0  0  0  0  0  0  0  0
   -8.2383    1.8746   -8.9633 C   0  0  0  0  0  0  0  0  0  0  0  0
   -8.0689    3.3772  -10.9848 C   0  0  0  0  0  0  0  0  0  0  0  0
   -8.4827    4.6246  -15.8640 C   0  0  0  0  0  0  0  0  0  0  0  0
   -4.8450    5.8016  -16.0971 C   0  0  0  0  0  0  0  0  0  0  0  0
   -4.2153    5.5410  -17.4709 C   0  0  0  0  0  0  0  0  0  0  0  0
   -3.0411    5.6862  -17.7685 O   0  0  0  0  0  0  0  0  0  0  0  0
   -5.2180    5.0901  -18.3161 N   0  0  0  0  0  0  0  0  0  0  0  0
  1  2  1  0
  2  3  1  0
  3  4  2  0
  4  5  1  0
  5  6  2  0
  6  7  1  0
  7  8  1  0
  8  9  2  0
  8 10  1  0
 11 10  1  6
 11 12  1  0
 12 13  1  0
 13 14  1  1
 13 15  1  0
 16 15  1  1
 16 17  1  0
 17 18  1  0
 18 19  1  0
 19 20  1  0
 16 21  1  0
  7 22  2  0
  6 23  1  0
 23 24  1  0
 24 25  2  0
 24 26  1  0
 22  3  1  0
 26  5  1  0
 21 11  1  0
 20 16  1  0
M  END
>  <smiles>  (1640) 
C23417-P203

>  <fragmenstein_outcome>  (1640) 
acceptable

>  <inchikey>  (1640) 
SYFGBZDIJACYAT-UHFFFAOYSA-N

>  <fragmenstein_mode>  (1640) 
expansion

>  <HIPPO Pose ID>  (1640) 
22398

>  <Energy>  (1640) 
47.871308

>  <fragmenstein_error>  (1640) 


>  <tags>  (1640) 
{'openbind_xx01zvns2b_c1_fragmenstein', 'fragmenstein_placed'}

>  <ref_pdb>  (1640) 
175

>  <scratch_subdir>  (1640) 
/opt/xchem-fragalysis-2/maxwin/BulkDock/SCRATCH/511028/C23417-P203

>  <alias>  (1640) 
CCc1cc2c(c(C(=O)N[C@@H]3C[C@@H](C)C[C@@]4(CCNC4)C3)c1)CC(=O)N2

>  <HIPPO Compound ID>  (1640) 
23417

>  <fragmenstein_runtime>  (1640) 
4.154601

$$$$
CO[C@H]1C[C@@]2(CCN1)C[C@H](NC(=O)c1cc(F)cc3c1CC(=O)N3)C[C@H]1[C@@H](N)NC[C@@H]12
     RDKit          3D

 31 35  0  0  0  0  0  0  0  0999 V2000
   -3.3828    7.4197   -9.7025 C   0  0  0  0  0  0  0  0  0  0  0  0
   -4.5672    7.9286   -9.1031 O   0  0  0  0  0  0  0  0  0  0  0  0
   -5.7523    7.4855   -9.7618 C   0  0  1  0  0  0  0  0  0  0  0  0
   -6.1254    6.0752   -9.2662 C   0  0  0  0  0  0  0  0  0  0  0  0
   -7.6217    5.6982   -9.4833 C   0  0  1  0  0  0  0  0  0  0  0  0
   -8.4861    6.8375   -8.8584 C   0  0  0  0  0  0  0  0  0  0  0  0
   -7.6945    8.0891   -8.4598 C   0  0  0  0  0  0  0  0  0  0  0  0
   -6.7781    8.4872   -9.5132 N   0  0  0  0  0  0  0  0  0  0  0  0
   -7.9325    5.6277  -11.0208 C   0  0  0  0  0  0  0  0  0  0  0  0
   -7.4917    4.3065  -11.6717 C   0  0  2  0  0  0  0  0  0  0  0  0
   -7.6242    4.3434  -13.1132 N   0  0  0  0  0  0  0  0  0  0  0  0
   -7.0622    5.3368  -14.1425 C   0  0  0  0  0  0  0  0  0  0  0  0
   -6.4678    6.3265  -13.9899 O   0  0  0  0  0  0  0  0  0  0  0  0
   -7.3907    4.9247  -15.5363 C   0  0  0  0  0  0  0  0  0  0  0  0
   -8.6305    4.3645  -15.8728 C   0  0  0  0  0  0  0  0  0  0  0  0
   -8.9278    4.0583  -17.2077 C   0  0  0  0  0  0  0  0  0  0  0  0
  -10.1193    3.5247  -17.5009 F   0  0  0  0  0  0  0  0  0  0  0  0
   -8.0276    4.3059  -18.2341 C   0  0  0  0  0  0  0  0  0  0  0  0
   -6.8198    4.8598  -17.8783 C   0  0  0  0  0  0  0  0  0  0  0  0
   -6.4884    5.1669  -16.5606 C   0  0  0  0  0  0  0  0  0  0  0  0
   -5.1036    5.7432  -16.5251 C   0  0  0  0  0  0  0  0  0  0  0  0
   -4.7022    5.7229  -18.0045 C   0  0  0  0  0  0  0  0  0  0  0  0
   -3.6406    6.1079  -18.4677 O   0  0  0  0  0  0  0  0  0  0  0  0
   -5.7730    5.2017  -18.7188 N   0  0  0  0  0  0  0  0  0  0  0  0
   -8.2638    3.1116  -11.1001 C   0  0  0  0  0  0  0  0  0  0  0  0
   -8.7561    3.3796   -9.6814 C   0  0  1  0  0  0  0  0  0  0  0  0
   -8.9745    2.1789   -8.7678 C   0  0  1  0  0  0  0  0  0  0  0  0
   -7.9333    1.2022   -8.8564 N   0  0  0  0  0  0  0  0  0  0  0  0
   -8.8051    2.6730   -7.4092 N   0  0  0  0  0  0  0  0  0  0  0  0
   -8.4498    4.1017   -7.4889 C   0  0  0  0  0  0  0  0  0  0  0  0
   -7.8299    4.2733   -8.8709 C   0  0  2  0  0  0  0  0  0  0  0  0
  1  2  1  0
  3  2  1  1
  3  4  1  0
  5  4  1  6
  5  6  1  0
  6  7  1  0
  7  8  1  0
  5  9  1  0
  9 10  1  0
 10 11  1  6
 11 12  1  0
 12 13  2  0
 12 14  1  0
 14 15  2  0
 15 16  1  0
 16 17  1  0
 16 18  2  0
 18 19  1  0
 19 20  2  0
 20 21  1  0
 21 22  1  0
 22 23  2  0
 22 24  1  0
 10 25  1  0
 26 25  1  6
 26 27  1  0
 27 28  1  6
 27 29  1  0
 29 30  1  0
 31 30  1  1
  8  3  1  0
 20 14  1  0
 31 26  1  0
 31  5  1  0
 24 19  1  0
M  END
>  <smiles>  (1641) 
C23425-P203

>  <fragmenstein_outcome>  (1641) 
acceptable

>  <inchikey>  (1641) 
JSWSICJGTWMAJP-UHFFFAOYSA-N

>  <fragmenstein_mode>  (1641) 
expansion

>  <HIPPO Pose ID>  (1641) 
22399

>  <Energy>  (1641) 
-43.478827

>  <fragmenstein_error>  (1641) 


>  <tags>  (1641) 
{'openbind_xx01zvns2b_c1_fragmenstein', 'fragmenstein_placed'}

>  <ref_pdb>  (1641) 
175

>  <scratch_subdir>  (1641) 
/opt/xchem-fragalysis-2/maxwin/BulkDock/SCRATCH/511028/C23425-P203

>  <alias>  (1641) 
CO[C@H]1C[C@@]2(CCN1)C[C@H](NC(=O)c1cc(F)cc3c1CC(=O)N3)C[C@H]1[C@@H](N)NC[C@@H]12

>  <HIPPO Compound ID>  (1641) 
23425

>  <fragmenstein_runtime>  (1641) 
4.197516

$$$$
C[C@H]1[C@H](C#N)[C@H](NC(=O)c2cc(F)cc3c2CC(=O)N3)C[C@H]2CNC[C@H]21
     RDKit          3D

 26 29  0  0  0  0  0  0  0  0999 V2000
   -5.9025    4.3445   -8.9491 C   0  0  0  0  0  0  0  0  0  0  0  0
   -7.2097    5.0216   -9.3901 C   0  0  1  0  0  0  0  0  0  0  0  0
   -7.2240    5.1561  -10.9297 C   0  0  2  0  0  0  0  0  0  0  0  0
   -8.2194    6.1558  -11.3731 C   0  0  0  0  0  0  0  0  0  0  0  0
   -8.9692    6.9628  -11.7410 N   0  0  0  0  0  0  0  0  0  0  0  0
   -7.4164    3.7864  -11.6155 C   0  0  2  0  0  0  0  0  0  0  0  0
   -7.4547    3.8741  -13.0726 N   0  0  0  0  0  0  0  0  0  0  0  0
   -6.8235    4.9029  -14.0304 C   0  0  0  0  0  0  0  0  0  0  0  0
   -6.1098    5.7986  -13.8133 O   0  0  0  0  0  0  0  0  0  0  0  0
   -7.2662    4.6996  -15.4432 C   0  0  0  0  0  0  0  0  0  0  0  0
   -8.5565    4.2708  -15.7838 C   0  0  0  0  0  0  0  0  0  0  0  0
   -8.9123    4.0904  -17.1291 C   0  0  0  0  0  0  0  0  0  0  0  0
  -10.1397    3.6446  -17.4212 F   0  0  0  0  0  0  0  0  0  0  0  0
   -8.0286    4.3579  -18.1648 C   0  0  0  0  0  0  0  0  0  0  0  0
   -6.7805    4.8109  -17.8082 C   0  0  0  0  0  0  0  0  0  0  0  0
   -6.3922    4.9879  -16.4810 C   0  0  0  0  0  0  0  0  0  0  0  0
   -4.9722    5.4702  -16.4470 C   0  0  0  0  0  0  0  0  0  0  0  0
   -4.5957    5.4815  -17.9303 C   0  0  0  0  0  0  0  0  0  0  0  0
   -3.4978    5.7545  -18.3877 O   0  0  0  0  0  0  0  0  0  0  0  0
   -5.7280    5.1270  -18.6523 N   0  0  0  0  0  0  0  0  0  0  0  0
   -8.6562    3.0368  -11.1302 C   0  0  0  0  0  0  0  0  0  0  0  0
   -8.9797    3.1246   -9.6462 C   0  0  1  0  0  0  0  0  0  0  0  0
   -8.5204    1.9677   -8.7859 C   0  0  0  0  0  0  0  0  0  0  0  0
   -8.8125    2.4681   -7.4421 N   0  0  0  0  0  0  0  0  0  0  0  0
   -8.5032    3.8959   -7.4196 C   0  0  0  0  0  0  0  0  0  0  0  0
   -8.5108    4.3622   -8.8807 C   0  0  1  0  0  0  0  0  0  0  0  0
  2  1  1  6
  2  3  1  0
  3  4  1  1
  4  5  3  0
  3  6  1  0
  6  7  1  6
  7  8  1  0
  8  9  2  0
  8 10  1  0
 10 11  2  0
 11 12  1  0
 12 13  1  0
 12 14  2  0
 14 15  1  0
 15 16  2  0
 16 17  1  0
 17 18  1  0
 18 19  2  0
 18 20  1  0
  6 21  1  0
 22 21  1  6
 22 23  1  0
 23 24  1  0
 24 25  1  0
 26 25  1  1
 26  2  1  0
 16 10  1  0
 26 22  1  0
 20 15  1  0
M  END
>  <smiles>  (1642) 
C23426-P203

>  <fragmenstein_outcome>  (1642) 
acceptable

>  <inchikey>  (1642) 
ODPMOIWSZSGSFO-UHFFFAOYSA-N

>  <fragmenstein_mode>  (1642) 
expansion

>  <HIPPO Pose ID>  (1642) 
22400

>  <Energy>  (1642) 
36.342194

>  <fragmenstein_error>  (1642) 


>  <tags>  (1642) 
{'openbind_xx01zvns2b_c1_fragmenstein', 'fragmenstein_placed'}

>  <ref_pdb>  (1642) 
175

>  <scratch_subdir>  (1642) 
/opt/xchem-fragalysis-2/maxwin/BulkDock/SCRATCH/511028/C23426-P203

>  <alias>  (1642) 
C[C@H]1[C@H](C#N)[C@H](NC(=O)c2cc(F)cc3c2CC(=O)N3)C[C@H]2CNC[C@H]21

>  <HIPPO Compound ID>  (1642) 
18598

>  <fragmenstein_runtime>  (1642) 
2.583413

$$$$
C[C@@H]1C[C@@H](NC(=O)c2cccc3c2Cc2cccn2-3)C[C@H]2CNC[C@@H]21
     RDKit          3D

 25 29  0  0  0  0  0  0  0  0999 V2000
   -8.3384    6.4255   -9.0873 C   0  0  0  0  0  0  0  0  0  0  0  0
   -7.3574    5.2830   -9.3375 C   0  0  2  0  0  0  0  0  0  0  0  0
   -7.0788    5.1294  -10.8508 C   0  0  0  0  0  0  0  0  0  0  0  0
   -8.2164    4.4210  -11.6120 C   0  0  1  0  0  0  0  0  0  0  0  0
   -7.9619    4.3619  -13.0314 N   0  0  0  0  0  0  0  0  0  0  0  0
   -7.5844    5.4705  -14.0242 C   0  0  0  0  0  0  0  0  0  0  0  0
   -7.3429    6.5954  -13.8439 O   0  0  0  0  0  0  0  0  0  0  0  0
   -7.5825    4.9729  -15.4178 C   0  0  0  0  0  0  0  0  0  0  0  0
   -8.6993    4.3101  -15.9521 C   0  0  0  0  0  0  0  0  0  0  0  0
   -8.7658    3.9906  -17.3239 C   0  0  0  0  0  0  0  0  0  0  0  0
   -7.7177    4.3185  -18.1860 C   0  0  0  0  0  0  0  0  0  0  0  0
   -6.6315    4.9545  -17.6259 C   0  0  0  0  0  0  0  0  0  0  0  0
   -6.5379    5.2876  -16.2625 C   0  0  0  0  0  0  0  0  0  0  0  0
   -5.2261    5.9872  -15.9769 C   0  0  0  0  0  0  0  0  0  0  0  0
   -4.6202    6.0042  -17.3418 C   0  0  0  0  0  0  0  0  0  0  0  0
   -3.4986    6.4179  -18.0109 C   0  0  0  0  0  0  0  0  0  0  0  0
   -3.7059    6.0521  -19.3759 C   0  0  0  0  0  0  0  0  0  0  0  0
   -4.9443    5.4359  -19.4801 C   0  0  0  0  0  0  0  0  0  0  0  0
   -5.4706    5.4076  -18.2333 N   0  0  0  0  0  0  0  0  0  0  0  0
   -8.5103    3.0388  -11.0131 C   0  0  0  0  0  0  0  0  0  0  0  0
   -8.8732    3.2342   -9.5529 C   0  0  1  0  0  0  0  0  0  0  0  0
   -9.1054    2.0058   -8.7005 C   0  0  0  0  0  0  0  0  0  0  0  0
   -9.0466    2.5327   -7.3198 N   0  0  0  0  0  0  0  0  0  0  0  0
   -8.3300    3.8237   -7.3588 C   0  0  0  0  0  0  0  0  0  0  0  0
   -7.7706    3.9217   -8.7697 C   0  0  2  0  0  0  0  0  0  0  0  0
  2  1  1  6
  2  3  1  0
  3  4  1  0
  4  5  1  6
  5  6  1  0
  6  7  2  0
  6  8  1  0
  8  9  2  0
  9 10  1  0
 10 11  2  0
 11 12  1  0
 12 13  2  0
 13 14  1  0
 14 15  1  0
 15 16  2  0
 16 17  1  0
 17 18  2  0
 18 19  1  0
  4 20  1  0
 21 20  1  6
 21 22  1  0
 22 23  1  0
 23 24  1  0
 25 24  1  1
 25  2  1  0
 13  8  1  0
 19 15  1  0
 25 21  1  0
 19 12  1  0
M  END
>  <smiles>  (1643) 
C23445-P203

>  <fragmenstein_outcome>  (1643) 
acceptable

>  <inchikey>  (1643) 
PZUHEIPNXCMYKD-UHFFFAOYSA-N

>  <fragmenstein_mode>  (1643) 
expansion

>  <HIPPO Pose ID>  (1643) 
22405

>  <Energy>  (1643) 
78.026674

>  <fragmenstein_error>  (1643) 


>  <tags>  (1643) 
{'openbind_xx01zvns2b_c1_fragmenstein', 'fragmenstein_placed'}

>  <ref_pdb>  (1643) 
175

>  <scratch_subdir>  (1643) 
/opt/xchem-fragalysis-2/maxwin/BulkDock/SCRATCH/511028/C23445-P203

>  <alias>  (1643) 
C[C@@H]1C[C@@H](NC(=O)c2cccc3c2Cc2cccn2-3)C[C@H]2CNC[C@@H]21

>  <HIPPO Compound ID>  (1643) 
23445

>  <fragmenstein_runtime>  (1643) 
3.555928

$$$$
Cc1cc(NC(=O)c2cccc3c2CC(=O)N3)cc2c1C(=O)N[C@H]2N
     RDKit          3D

 25 28  0  0  0  0  0  0  0  0999 V2000
   -7.7983    6.7976   -8.5948 C   0  0  0  0  0  0  0  0  0  0  0  0
   -7.9797    5.5274   -9.3500 C   0  0  0  0  0  0  0  0  0  0  0  0
   -7.9344    5.4829  -10.7522 C   0  0  0  0  0  0  0  0  0  0  0  0
   -8.1510    4.2820  -11.4546 C   0  0  0  0  0  0  0  0  0  0  0  0
   -8.1553    4.2721  -12.8526 N   0  0  0  0  0  0  0  0  0  0  0  0
   -7.6937    5.3474  -13.8675 C   0  0  0  0  0  0  0  0  0  0  0  0
   -7.3102    6.4378  -13.6939 O   0  0  0  0  0  0  0  0  0  0  0  0
   -7.8496    4.8969  -15.2745 C   0  0  0  0  0  0  0  0  0  0  0  0
   -9.0730    4.3844  -15.7304 C   0  0  0  0  0  0  0  0  0  0  0  0
   -9.2830    4.1457  -17.1027 C   0  0  0  0  0  0  0  0  0  0  0  0
   -8.2760    4.4036  -18.0358 C   0  0  0  0  0  0  0  0  0  0  0  0
   -7.0760    4.8827  -17.5564 C   0  0  0  0  0  0  0  0  0  0  0  0
   -6.8484    5.1341  -16.2052 C   0  0  0  0  0  0  0  0  0  0  0  0
   -5.4572    5.6703  -16.0343 C   0  0  0  0  0  0  0  0  0  0  0  0
   -4.9278    5.6691  -17.4750 C   0  0  0  0  0  0  0  0  0  0  0  0
   -3.8160    6.0136  -17.8420 O   0  0  0  0  0  0  0  0  0  0  0  0
   -5.9504    5.2101  -18.2942 N   0  0  0  0  0  0  0  0  0  0  0  0
   -8.4001    3.0947  -10.7547 C   0  0  0  0  0  0  0  0  0  0  0  0
   -8.4211    3.1330   -9.3639 C   0  0  0  0  0  0  0  0  0  0  0  0
   -8.2173    4.3353   -8.6903 C   0  0  0  0  0  0  0  0  0  0  0  0
   -8.3035    4.0596   -7.2464 C   0  0  0  0  0  0  0  0  0  0  0  0
   -8.0897    4.8456   -6.3442 O   0  0  0  0  0  0  0  0  0  0  0  0
   -8.6510    2.7417   -7.1190 N   0  0  0  0  0  0  0  0  0  0  0  0
   -8.6093    2.0424   -8.3579 C   0  0  1  0  0  0  0  0  0  0  0  0
   -9.8941    1.4365   -8.3752 N   0  0  0  0  0  0  0  0  0  0  0  0
  1  2  1  0
  2  3  2  0
  3  4  1  0
  4  5  1  0
  5  6  1  0
  6  7  2  0
  6  8  1  0
  8  9  2  0
  9 10  1  0
 10 11  2  0
 11 12  1  0
 12 13  2  0
 13 14  1  0
 14 15  1  0
 15 16  2  0
 15 17  1  0
  4 18  2  0
 18 19  1  0
 19 20  2  0
 20 21  1  0
 21 22  2  0
 21 23  1  0
 23 24  1  0
 24 25  1  6
 20  2  1  0
 13  8  1  0
 24 19  1  0
 17 12  1  0
M  END
>  <smiles>  (1644) 
C23452-P253

>  <fragmenstein_outcome>  (1644) 
acceptable

>  <inchikey>  (1644) 
RLTWSJXDFWIPIJ-UHFFFAOYSA-N

>  <fragmenstein_mode>  (1644) 
expansion

>  <HIPPO Pose ID>  (1644) 
22408

>  <Energy>  (1644) 
-36.218531

>  <fragmenstein_error>  (1644) 


>  <tags>  (1644) 
{'openbind_xx01zvns2b_c1_fragmenstein', 'fragmenstein_placed'}

>  <ref_pdb>  (1644) 
175

>  <scratch_subdir>  (1644) 
/opt/xchem-fragalysis-2/maxwin/BulkDock/SCRATCH/511028/C23452-P253

>  <alias>  (1644) 
Cc1cc(NC(=O)c2cccc3c2CC(=O)N3)cc2c1C(=O)N[C@H]2N

>  <HIPPO Compound ID>  (1644) 
23452

>  <fragmenstein_runtime>  (1644) 
3.430235

$$$$
C[C@H]1C[C@H](NC(=O)c2cccc3c2CC(=O)N3)C[C@]2(CCNC2)C1
     RDKit          3D

 24 27  0  0  0  0  0  0  0  0999 V2000
   -5.0847    5.6670   -9.4105 C   0  0  0  0  0  0  0  0  0  0  0  0
   -6.5594    5.2530   -9.4333 C   0  0  1  0  0  0  0  0  0  0  0  0
   -7.1632    5.4236  -10.8378 C   0  0  0  0  0  0  0  0  0  0  0  0
   -7.1789    4.0864  -11.5743 C   0  0  2  0  0  0  0  0  0  0  0  0
   -7.4769    4.2046  -12.9807 N   0  0  0  0  0  0  0  0  0  0  0  0
   -7.0541    5.2688  -14.0045 C   0  0  0  0  0  0  0  0  0  0  0  0
   -6.4618    6.2613  -13.8611 O   0  0  0  0  0  0  0  0  0  0  0  0
   -7.4277    4.8726  -15.3832 C   0  0  0  0  0  0  0  0  0  0  0  0
   -8.6876    4.3464  -15.6983 C   0  0  0  0  0  0  0  0  0  0  0  0
   -9.0216    4.0496  -17.0323 C   0  0  0  0  0  0  0  0  0  0  0  0
   -8.1046    4.2667  -18.0617 C   0  0  0  0  0  0  0  0  0  0  0  0
   -6.8708    4.7760  -17.7193 C   0  0  0  0  0  0  0  0  0  0  0  0
   -6.5202    5.0724  -16.4091 C   0  0  0  0  0  0  0  0  0  0  0  0
   -5.1027    5.5590  -16.3697 C   0  0  0  0  0  0  0  0  0  0  0  0
   -4.6820    5.4393  -17.8363 C   0  0  0  0  0  0  0  0  0  0  0  0
   -3.5661    5.6443  -18.2881 O   0  0  0  0  0  0  0  0  0  0  0  0
   -5.8034    5.0453  -18.5607 N   0  0  0  0  0  0  0  0  0  0  0  0
   -8.1283    3.1021  -10.8762 C   0  0  0  0  0  0  0  0  0  0  0  0
   -8.0354    3.1613   -9.3320 C   0  0  1  0  0  0  0  0  0  0  0  0
   -9.1821    3.9077   -8.6729 C   0  0  0  0  0  0  0  0  0  0  0  0
   -9.1875    3.4087   -7.2386 C   0  0  0  0  0  0  0  0  0  0  0  0
   -8.7763    2.0162   -7.3380 N   0  0  0  0  0  0  0  0  0  0  0  0
   -8.3244    1.7847   -8.7204 C   0  0  0  0  0  0  0  0  0  0  0  0
   -6.6988    3.8071   -8.9052 C   0  0  0  0  0  0  0  0  0  0  0  0
  2  1  1  6
  2  3  1  0
  3  4  1  0
  4  5  1  6
  5  6  1  0
  6  7  2  0
  6  8  1  0
  8  9  2  0
  9 10  1  0
 10 11  2  0
 11 12  1  0
 12 13  2  0
 13 14  1  0
 14 15  1  0
 15 16  2  0
 15 17  1  0
  4 18  1  0
 19 18  1  6
 19 20  1  0
 20 21  1  0
 21 22  1  0
 22 23  1  0
 19 24  1  0
 24  2  1  0
 13  8  1  0
 23 19  1  0
 17 12  1  0
M  END
>  <smiles>  (1645) 
C23397-P258

>  <fragmenstein_outcome>  (1645) 
acceptable

>  <inchikey>  (1645) 
RNWCODSXUKFRIG-UHFFFAOYSA-N

>  <fragmenstein_mode>  (1645) 
expansion

>  <HIPPO Pose ID>  (1645) 
22410

>  <Energy>  (1645) 
50.295569

>  <fragmenstein_error>  (1645) 


>  <tags>  (1645) 
{'openbind_xx01zvns2b_c1_fragmenstein', 'fragmenstein_placed'}

>  <ref_pdb>  (1645) 
175

>  <scratch_subdir>  (1645) 
/opt/xchem-fragalysis-2/maxwin/BulkDock/SCRATCH/511028/C23397-P258

>  <alias>  (1645) 
C[C@H]1C[C@H](NC(=O)c2cccc3c2CC(=O)N3)C[C@]2(CCNC2)C1

>  <HIPPO Compound ID>  (1645) 
21001

>  <fragmenstein_runtime>  (1645) 
6.545654

$$$$
CNC[C@]1(O)Cc2c(cc(Cl)cc2C(=O)N[C@@H]2C[C@@H](C)C[C@@]3(CCNC3)C2)N1
     RDKit          3D

 28 31  0  0  0  0  0  0  0  0999 V2000
   -0.9082    6.5903  -18.1343 C   0  0  0  0  0  0  0  0  0  0  0  0
   -2.2294    6.7668  -17.5614 N   0  0  0  0  0  0  0  0  0  0  0  0
   -3.2484    6.0474  -18.3431 C   0  0  0  0  0  0  0  0  0  0  0  0
   -4.6725    6.3012  -17.7904 C   0  0  2  0  0  0  0  0  0  0  0  0
   -4.9422    7.7019  -17.8569 O   0  0  0  0  0  0  0  0  0  0  0  0
   -4.8983    5.7852  -16.3474 C   0  0  0  0  0  0  0  0  0  0  0  0
   -6.2870    5.2373  -16.4509 C   0  0  0  0  0  0  0  0  0  0  0  0
   -6.6462    5.1913  -17.7921 C   0  0  0  0  0  0  0  0  0  0  0  0
   -7.8432    4.6499  -18.1905 C   0  0  0  0  0  0  0  0  0  0  0  0
   -8.7204    4.2018  -17.2179 C   0  0  0  0  0  0  0  0  0  0  0  0
  -10.2429    3.6430  -17.7548 Cl  0  0  0  0  0  0  0  0  0  0  0  0
   -8.3830    4.2358  -15.8585 C   0  0  0  0  0  0  0  0  0  0  0  0
   -7.1397    4.7514  -15.4626 C   0  0  0  0  0  0  0  0  0  0  0  0
   -6.6812    4.7119  -14.0411 C   0  0  0  0  0  0  0  0  0  0  0  0
   -5.5565    4.4752  -13.8450 O   0  0  0  0  0  0  0  0  0  0  0  0
   -7.8239    5.0313  -13.0525 N   0  0  0  0  0  0  0  0  0  0  0  0
   -7.8419    5.0327  -11.5954 C   0  0  2  0  0  0  0  0  0  0  0  0
   -6.5794    5.7056  -11.0553 C   0  0  0  0  0  0  0  0  0  0  0  0
   -6.4134    5.6184   -9.5396 C   0  0  1  0  0  0  0  0  0  0  0  0
   -7.2865    6.6494   -8.8248 C   0  0  0  0  0  0  0  0  0  0  0  0
   -6.5693    4.1642   -9.0555 C   0  0  0  0  0  0  0  0  0  0  0  0
   -7.8585    3.4642   -9.5346 C   0  0  2  0  0  0  0  0  0  0  0  0
   -9.0481    4.0175   -8.7397 C   0  0  0  0  0  0  0  0  0  0  0  0
   -9.7243    2.8246   -8.0895 C   0  0  0  0  0  0  0  0  0  0  0  0
   -8.6194    1.9206   -7.9083 N   0  0  0  0  0  0  0  0  0  0  0  0
   -7.9012    1.9681   -9.1760 C   0  0  0  0  0  0  0  0  0  0  0  0
   -8.0004    3.6032  -11.0677 C   0  0  0  0  0  0  0  0  0  0  0  0
   -5.6945    5.7444  -18.6751 N   0  0  0  0  0  0  0  0  0  0  0  0
  1  2  1  0
  2  3  1  0
  3  4  1  0
  4  5  1  1
  4  6  1  0
  6  7  1  0
  7  8  2  0
  8  9  1  0
  9 10  2  0
 10 11  1  0
 10 12  1  0
 12 13  2  0
 13 14  1  0
 14 15  2  0
 14 16  1  0
 17 16  1  6
 17 18  1  0
 18 19  1  0
 19 20  1  1
 19 21  1  0
 22 21  1  1
 22 23  1  0
 23 24  1  0
 24 25  1  0
 25 26  1  0
 22 27  1  0
  8 28  1  0
 28  4  1  0
 13  7  1  0
 27 17  1  0
 26 22  1  0
M  END
>  <smiles>  (1646) 
C23465-P203

>  <fragmenstein_outcome>  (1646) 
acceptable

>  <inchikey>  (1646) 
ZRBVUPHOSUPZHX-UHFFFAOYSA-N

>  <fragmenstein_mode>  (1646) 
expansion

>  <HIPPO Pose ID>  (1646) 
22412

>  <Energy>  (1646) 
67.236697

>  <fragmenstein_error>  (1646) 


>  <tags>  (1646) 
{'openbind_xx01zvns2b_c1_fragmenstein', 'fragmenstein_placed'}

>  <ref_pdb>  (1646) 
175

>  <scratch_subdir>  (1646) 
/opt/xchem-fragalysis-2/maxwin/BulkDock/SCRATCH/511028/C23465-P203

>  <alias>  (1646) 
CNC[C@]1(O)Cc2c(cc(Cl)cc2C(=O)N[C@@H]2C[C@@H](C)C[C@@]3(CCNC3)C2)N1

>  <HIPPO Compound ID>  (1646) 
23465

>  <fragmenstein_runtime>  (1646) 
4.505642

$$$$
C[C@@H]1C[C@H](N[C@@](O)(CC(=O)O)c2cccc3c2CC(=O)N3)C[C@H]2[C@@H]1CN[C@H]2N
     RDKit          3D

 28 31  0  0  0  0  0  0  0  0999 V2000
   -7.9379    6.8867   -8.5325 C   0  0  0  0  0  0  0  0  0  0  0  0
   -7.4655    5.6566   -9.3087 C   0  0  2  0  0  0  0  0  0  0  0  0
   -8.0361    5.7059  -10.7307 C   0  0  0  0  0  0  0  0  0  0  0  0
   -7.6359    4.4479  -11.4936 C   0  0  2  0  0  0  0  0  0  0  0  0
   -7.9603    4.4784  -12.9262 N   0  0  0  0  0  0  0  0  0  0  0  0
   -7.0910    5.2778  -13.8103 C   0  0  1  0  0  0  0  0  0  0  0  0
   -7.6144    6.6023  -13.7260 O   0  0  0  0  0  0  0  0  0  0  0  0
   -5.6139    5.4061  -13.3795 C   0  0  0  0  0  0  0  0  0  0  0  0
   -4.7845    4.1609  -13.4721 C   0  0  0  0  0  0  0  0  0  0  0  0
   -3.6715    4.0944  -13.9732 O   0  0  0  0  0  0  0  0  0  0  0  0
   -5.3284    3.1012  -12.8577 O   0  0  0  0  0  0  0  0  0  0  0  0
   -7.3535    4.9229  -15.2934 C   0  0  0  0  0  0  0  0  0  0  0  0
   -8.6006    4.3403  -15.6574 C   0  0  0  0  0  0  0  0  0  0  0  0
   -8.9731    4.0587  -16.9864 C   0  0  0  0  0  0  0  0  0  0  0  0
   -8.1181    4.3621  -18.0305 C   0  0  0  0  0  0  0  0  0  0  0  0
   -6.9211    4.9513  -17.6969 C   0  0  0  0  0  0  0  0  0  0  0  0
   -6.5238    5.2342  -16.3759 C   0  0  0  0  0  0  0  0  0  0  0  0
   -5.1926    5.9313  -16.4590 C   0  0  0  0  0  0  0  0  0  0  0  0
   -4.9230    6.0227  -17.9608 C   0  0  0  0  0  0  0  0  0  0  0  0
   -3.9643    6.5660  -18.4869 O   0  0  0  0  0  0  0  0  0  0  0  0
   -5.9763    5.4040  -18.6042 N   0  0  0  0  0  0  0  0  0  0  0  0
   -8.3388    3.2590  -10.8388 C   0  0  0  0  0  0  0  0  0  0  0  0
   -7.7885    3.0428   -9.4238 C   0  0  2  0  0  0  0  0  0  0  0  0
   -8.6069    2.0659   -8.5585 C   0  0  2  0  0  0  0  0  0  0  0  0
   -9.8300    1.5774   -9.1319 N   0  0  0  0  0  0  0  0  0  0  0  0
   -9.0199    2.8046   -7.3853 N   0  0  0  0  0  0  0  0  0  0  0  0
   -8.9028    4.2185   -7.6860 C   0  0  0  0  0  0  0  0  0  0  0  0
   -7.6766    4.3170   -8.5660 C   0  0  2  0  0  0  0  0  0  0  0  0
  2  1  1  1
  2  3  1  0
  3  4  1  0
  4  5  1  6
  5  6  1  0
  6  7  1  6
  6  8  1  0
  8  9  1  0
  9 10  2  0
  9 11  1  0
  6 12  1  0
 12 13  2  0
 13 14  1  0
 14 15  2  0
 15 16  1  0
 16 17  2  0
 17 18  1  0
 18 19  1  0
 19 20  2  0
 19 21  1  0
  4 22  1  0
 23 22  1  6
 23 24  1  0
 24 25  1  6
 24 26  1  0
 26 27  1  0
 28 27  1  6
 28  2  1  0
 17 12  1  0
 28 23  1  0
 21 16  1  0
M  END
>  <smiles>  (1647) 
C23469-P203

>  <fragmenstein_outcome>  (1647) 
acceptable

>  <inchikey>  (1647) 
DXNQORKZQWLLTQ-UHFFFAOYSA-N

>  <fragmenstein_mode>  (1647) 
expansion

>  <HIPPO Pose ID>  (1647) 
22419

>  <Energy>  (1647) 
-83.885255

>  <fragmenstein_error>  (1647) 


>  <tags>  (1647) 
{'openbind_xx01zvns2b_c1_fragmenstein', 'fragmenstein_placed'}

>  <ref_pdb>  (1647) 
175

>  <scratch_subdir>  (1647) 
/opt/xchem-fragalysis-2/maxwin/BulkDock/SCRATCH/511028/C23469-P203

>  <alias>  (1647) 
C[C@@H]1C[C@H](N[C@@](O)(CC(=O)O)c2cccc3c2CC(=O)N3)C[C@H]2[C@@H]1CN[C@H]2N

>  <HIPPO Compound ID>  (1647) 
23469

>  <fragmenstein_runtime>  (1647) 
3.726704

$$$$
CNCN1C(=O)Cc2c(C(=O)Nc3cc(C)c4ccccc4c3)cc(Cl)cc21
     RDKit          3D

 28 31  0  0  0  0  0  0  0  0999 V2000
   -2.5860    5.0249  -19.4976 C   0  0  0  0  0  0  0  0  0  0  0  0
   -3.9877    4.8362  -19.8360 N   0  0  0  0  0  0  0  0  0  0  0  0
   -4.8525    5.9126  -19.3973 C   0  0  0  0  0  0  0  0  0  0  0  0
   -5.1402    5.7856  -17.9941 N   0  0  0  0  0  0  0  0  0  0  0  0
   -4.3774    6.4248  -17.0180 C   0  0  0  0  0  0  0  0  0  0  0  0
   -3.3862    7.1208  -17.1882 O   0  0  0  0  0  0  0  0  0  0  0  0
   -5.0291    6.1505  -15.6685 C   0  0  0  0  0  0  0  0  0  0  0  0
   -6.2735    5.4083  -16.0384 C   0  0  0  0  0  0  0  0  0  0  0  0
   -7.3336    5.0096  -15.2267 C   0  0  0  0  0  0  0  0  0  0  0  0
   -7.4081    5.4522  -13.8055 C   0  0  0  0  0  0  0  0  0  0  0  0
   -7.0890    6.5549  -13.5835 O   0  0  0  0  0  0  0  0  0  0  0  0
   -7.9717    4.3596  -12.8606 N   0  0  0  0  0  0  0  0  0  0  0  0
   -8.1633    4.3677  -11.4743 C   0  0  0  0  0  0  0  0  0  0  0  0
   -7.9867    5.5414  -10.7456 C   0  0  0  0  0  0  0  0  0  0  0  0
   -8.1735    5.5757   -9.3524 C   0  0  0  0  0  0  0  0  0  0  0  0
   -7.9660    6.8847   -8.6366 C   0  0  0  0  0  0  0  0  0  0  0  0
   -8.5543    4.3990   -8.6630 C   0  0  0  0  0  0  0  0  0  0  0  0
   -8.7652    4.3614   -7.2641 C   0  0  0  0  0  0  0  0  0  0  0  0
   -9.1670    3.1961   -6.6162 C   0  0  0  0  0  0  0  0  0  0  0  0
   -9.3582    2.0394   -7.3528 C   0  0  0  0  0  0  0  0  0  0  0  0
   -9.1419    2.0426   -8.7310 C   0  0  0  0  0  0  0  0  0  0  0  0
   -8.7447    3.2077   -9.4065 C   0  0  0  0  0  0  0  0  0  0  0  0
   -8.5439    3.2053  -10.8046 C   0  0  0  0  0  0  0  0  0  0  0  0
   -8.4201    4.3829  -15.8354 C   0  0  0  0  0  0  0  0  0  0  0  0
   -8.4187    4.1780  -17.2245 C   0  0  0  0  0  0  0  0  0  0  0  0
   -9.8254    3.5220  -17.9530 Cl  0  0  0  0  0  0  0  0  0  0  0  0
   -7.3472    4.5664  -18.0331 C   0  0  0  0  0  0  0  0  0  0  0  0
   -6.2830    5.1955  -17.4227 C   0  0  0  0  0  0  0  0  0  0  0  0
  1  2  1  0
  2  3  1  0
  3  4  1  0
  4  5  1  0
  5  6  2  0
  5  7  1  0
  7  8  1  0
  8  9  2  0
  9 10  1  0
 10 11  2  0
 10 12  1  0
 12 13  1  0
 13 14  2  0
 14 15  1  0
 15 16  1  0
 15 17  2  0
 17 18  1  0
 18 19  2  0
 19 20  1  0
 20 21  2  0
 21 22  1  0
 22 23  2  0
  9 24  1  0
 24 25  2  0
 25 26  1  0
 25 27  1  0
 27 28  2  0
 28  4  1  0
 28  8  1  0
 23 13  1  0
 22 17  1  0
M  END
>  <smiles>  (1648) 
C23488-P203

>  <fragmenstein_outcome>  (1648) 
acceptable

>  <inchikey>  (1648) 
YJPVYCBZVCGGIG-UHFFFAOYSA-N

>  <fragmenstein_mode>  (1648) 
expansion

>  <HIPPO Pose ID>  (1648) 
22429

>  <Energy>  (1648) 
23.204796

>  <fragmenstein_error>  (1648) 


>  <tags>  (1648) 
{'openbind_xx01zvns2b_c1_fragmenstein', 'fragmenstein_placed'}

>  <ref_pdb>  (1648) 
175

>  <scratch_subdir>  (1648) 
/opt/xchem-fragalysis-2/maxwin/BulkDock/SCRATCH/511028/C23488-P203

>  <alias>  (1648) 
CNCN1C(=O)Cc2c(C(=O)Nc3cc(C)c4ccccc4c3)cc(Cl)cc21

>  <HIPPO Compound ID>  (1648) 
23488

>  <fragmenstein_runtime>  (1648) 
4.967875

$$$$
CNCN1C(=O)Cc2c(C(=O)Nc3cc(C)c4cn(C)c(N)c4c3)cc(Cl)cc21
     RDKit          3D

 29 32  0  0  0  0  0  0  0  0999 V2000
   -6.4207    3.8602  -19.9800 C   0  0  0  0  0  0  0  0  0  0  0  0
   -5.9821    5.2255  -19.8019 N   0  0  0  0  0  0  0  0  0  0  0  0
   -4.8618    5.4066  -18.9552 C   0  0  0  0  0  0  0  0  0  0  0  0
   -5.2631    5.6086  -17.5952 N   0  0  0  0  0  0  0  0  0  0  0  0
   -4.2909    5.9114  -16.6452 C   0  0  0  0  0  0  0  0  0  0  0  0
   -3.1132    6.1481  -16.8722 O   0  0  0  0  0  0  0  0  0  0  0  0
   -4.9620    5.8811  -15.2759 C   0  0  0  0  0  0  0  0  0  0  0  0
   -6.3448    5.4087  -15.6053 C   0  0  0  0  0  0  0  0  0  0  0  0
   -7.4087    5.1052  -14.7678 C   0  0  0  0  0  0  0  0  0  0  0  0
   -7.3233    5.4835  -13.3444 C   0  0  0  0  0  0  0  0  0  0  0  0
   -6.8918    6.5348  -13.0826 O   0  0  0  0  0  0  0  0  0  0  0  0
   -7.8819    4.3788  -12.4312 N   0  0  0  0  0  0  0  0  0  0  0  0
   -8.1083    4.3694  -11.0602 C   0  0  0  0  0  0  0  0  0  0  0  0
   -7.9011    5.5761  -10.2974 C   0  0  0  0  0  0  0  0  0  0  0  0
   -8.1230    5.7092   -8.8998 C   0  0  0  0  0  0  0  0  0  0  0  0
   -7.9308    7.0043   -8.1901 C   0  0  0  0  0  0  0  0  0  0  0  0
   -8.5805    4.4957   -8.3927 C   0  0  0  0  0  0  0  0  0  0  0  0
   -8.9541    4.2348   -7.0993 C   0  0  0  0  0  0  0  0  0  0  0  0
   -9.3896    2.9209   -7.0589 N   0  0  0  0  0  0  0  0  0  0  0  0
   -9.9833    2.3316   -5.8813 C   0  0  0  0  0  0  0  0  0  0  0  0
   -9.2234    2.3274   -8.2922 C   0  0  0  0  0  0  0  0  0  0  0  0
   -9.4565    1.0143   -8.5119 N   0  0  0  0  0  0  0  0  0  0  0  0
   -8.7812    3.3057   -9.1464 C   0  0  0  0  0  0  0  0  0  0  0  0
   -8.5598    3.1570  -10.5081 C   0  0  0  0  0  0  0  0  0  0  0  0
   -8.5905    4.5760  -15.3108 C   0  0  0  0  0  0  0  0  0  0  0  0
   -8.7119    4.4762  -16.6924 C   0  0  0  0  0  0  0  0  0  0  0  0
  -10.0988    3.8482  -17.4728 Cl  0  0  0  0  0  0  0  0  0  0  0  0
   -7.6981    4.9304  -17.5141 C   0  0  0  0  0  0  0  0  0  0  0  0
   -6.4832    5.2960  -16.9760 C   0  0  0  0  0  0  0  0  0  0  0  0
  1  2  1  0
  2  3  1  0
  3  4  1  0
  4  5  1  0
  5  6  2  0
  5  7  1  0
  7  8  1  0
  8  9  2  0
  9 10  1  0
 10 11  2  0
 10 12  1  0
 12 13  1  0
 13 14  1  0
 14 15  2  0
 15 16  1  0
 15 17  1  0
 17 18  2  0
 18 19  1  0
 19 20  1  0
 19 21  1  0
 21 22  1  0
 21 23  2  0
 23 24  1  0
  9 25  1  0
 25 26  2  0
 26 27  1  0
 26 28  1  0
 28 29  2  0
 29  4  1  0
 29  8  1  0
 24 13  2  0
 23 17  1  0
M  END
>  <smiles>  (1649) 
C23489-P203

>  <fragmenstein_outcome>  (1649) 
acceptable

>  <inchikey>  (1649) 
MWYDXDZGTUTDOD-UHFFFAOYSA-N

>  <fragmenstein_mode>  (1649) 
expansion

>  <HIPPO Pose ID>  (1649) 
22430

>  <Energy>  (1649) 
39.029875

>  <fragmenstein_error>  (1649) 


>  <tags>  (1649) 
{'openbind_xx01zvns2b_c1_fragmenstein', 'fragmenstein_placed'}

>  <ref_pdb>  (1649) 
175

>  <scratch_subdir>  (1649) 
/opt/xchem-fragalysis-2/maxwin/BulkDock/SCRATCH/511028/C23489-P203

>  <alias>  (1649) 
CNCN1C(=O)Cc2c(C(=O)Nc3cc(C)c4cn(C)c(N)c4c3)cc(Cl)cc21

>  <HIPPO Compound ID>  (1649) 
23489

>  <fragmenstein_runtime>  (1649) 
3.924974

$$$$
CNCN1C(=O)Cc2c(C(=O)N[C@H]3C[C@@H](CN)C4(CCCCC4)[C@H](C)C3)cc(Cl)cc21
     RDKit          3D

 31 34  0  0  0  0  0  0  0  0999 V2000
   -6.3489    3.7487  -20.2549 C   0  0  0  0  0  0  0  0  0  0  0  0
   -5.6956    5.0364  -20.3574 N   0  0  0  0  0  0  0  0  0  0  0  0
   -4.7699    5.3426  -19.3128 C   0  0  0  0  0  0  0  0  0  0  0  0
   -5.3185    5.7057  -18.0365 N   0  0  0  0  0  0  0  0  0  0  0  0
   -4.3900    6.1163  -17.0593 C   0  0  0  0  0  0  0  0  0  0  0  0
   -3.2144    6.4016  -17.2394 O   0  0  0  0  0  0  0  0  0  0  0  0
   -5.0985    6.1240  -15.7165 C   0  0  0  0  0  0  0  0  0  0  0  0
   -6.4266    5.5353  -16.0597 C   0  0  0  0  0  0  0  0  0  0  0  0
   -7.4875    5.2349  -15.2225 C   0  0  0  0  0  0  0  0  0  0  0  0
   -7.4999    5.8178  -13.8806 C   0  0  0  0  0  0  0  0  0  0  0  0
   -7.2686    6.9525  -13.7857 O   0  0  0  0  0  0  0  0  0  0  0  0
   -7.9265    4.8034  -12.8248 N   0  0  0  0  0  0  0  0  0  0  0  0
   -8.2534    4.9810  -11.4408 C   0  0  2  0  0  0  0  0  0  0  0  0
   -7.3521    6.0333  -10.8048 C   0  0  0  0  0  0  0  0  0  0  0  0
   -7.7061    6.2973   -9.3378 C   0  0  1  0  0  0  0  0  0  0  0  0
   -8.9296    7.2229   -9.3067 C   0  0  0  0  0  0  0  0  0  0  0  0
   -7.7612    4.9589   -8.4942 C   0  0  0  0  0  0  0  0  0  0  0  0
   -8.3101    5.2768   -7.0685 C   0  0  0  0  0  0  0  0  0  0  0  0
   -7.4689    4.7260   -5.9238 C   0  0  0  0  0  0  0  0  0  0  0  0
   -6.0698    5.3201   -5.9912 C   0  0  0  0  0  0  0  0  0  0  0  0
   -5.4147    5.1601   -7.3599 C   0  0  0  0  0  0  0  0  0  0  0  0
   -6.2852    4.4630   -8.4071 C   0  0  0  0  0  0  0  0  0  0  0  0
   -8.6666    3.8686   -9.2249 C   0  0  2  0  0  0  0  0  0  0  0  0
   -8.8166    2.4577   -8.5891 C   0  0  0  0  0  0  0  0  0  0  0  0
   -9.4935    2.4614   -7.3019 N   0  0  0  0  0  0  0  0  0  0  0  0
   -8.2369    3.6637  -10.6886 C   0  0  0  0  0  0  0  0  0  0  0  0
   -8.6351    4.6170  -15.7256 C   0  0  0  0  0  0  0  0  0  0  0  0
   -8.7479    4.4551  -17.0973 C   0  0  0  0  0  0  0  0  0  0  0  0
  -10.1770    3.8267  -17.8060 Cl  0  0  0  0  0  0  0  0  0  0  0  0
   -7.7332    4.8986  -17.9390 C   0  0  0  0  0  0  0  0  0  0  0  0
   -6.5305    5.3379  -17.4227 C   0  0  0  0  0  0  0  0  0  0  0  0
  1  2  1  0
  2  3  1  0
  3  4  1  0
  4  5  1  0
  5  6  2  0
  5  7  1  0
  7  8  1  0
  8  9  2  0
  9 10  1  0
 10 11  2  0
 10 12  1  0
 13 12  1  6
 13 14  1  0
 14 15  1  0
 15 16  1  6
 15 17  1  0
 17 18  1  0
 18 19  1  0
 19 20  1  0
 20 21  1  0
 21 22  1  0
 17 23  1  0
 23 24  1  1
 24 25  1  0
 23 26  1  0
  9 27  1  0
 27 28  2  0
 28 29  1  0
 28 30  1  0
 30 31  2  0
 31  4  1  0
 31  8  1  0
 26 13  1  0
 22 17  1  0
M  END
>  <smiles>  (1650) 
C23493-P203

>  <fragmenstein_outcome>  (1650) 
acceptable

>  <inchikey>  (1650) 
XDEDQHONKBYHOU-UHFFFAOYSA-N

>  <fragmenstein_mode>  (1650) 
expansion

>  <HIPPO Pose ID>  (1650) 
22431

>  <Energy>  (1650) 
57.080756

>  <fragmenstein_error>  (1650) 


>  <tags>  (1650) 
{'openbind_xx01zvns2b_c1_fragmenstein', 'fragmenstein_placed'}

>  <ref_pdb>  (1650) 
175

>  <scratch_subdir>  (1650) 
/opt/xchem-fragalysis-2/maxwin/BulkDock/SCRATCH/511028/C23493-P203

>  <alias>  (1650) 
CNCN1C(=O)Cc2c(C(=O)N[C@H]3C[C@@H](CN)C4(CCCCC4)[C@H](C)C3)cc(Cl)cc21

>  <HIPPO Compound ID>  (1650) 
23295

>  <fragmenstein_runtime>  (1650) 
11.900039

$$$$
CNCN1C(=O)Cc2c(C(=O)Nc3cc(C)c4cn(CC(F)F)c(N)c4c3)cc(Cl)cc21
     RDKit          3D

 32 35  0  0  0  0  0  0  0  0999 V2000
   -4.3466    6.5999  -21.2828 C   0  0  0  0  0  0  0  0  0  0  0  0
   -5.1756    6.4451  -20.0997 N   0  0  0  0  0  0  0  0  0  0  0  0
   -4.8607    5.1921  -19.4275 C   0  0  0  0  0  0  0  0  0  0  0  0
   -5.2227    5.3285  -18.0480 N   0  0  0  0  0  0  0  0  0  0  0  0
   -4.3297    5.7931  -17.0780 C   0  0  0  0  0  0  0  0  0  0  0  0
   -3.1599    6.1120  -17.2307 O   0  0  0  0  0  0  0  0  0  0  0  0
   -5.0777    5.8219  -15.7469 C   0  0  0  0  0  0  0  0  0  0  0  0
   -6.4166    5.2598  -16.1116 C   0  0  0  0  0  0  0  0  0  0  0  0
   -7.5166    5.0112  -15.3051 C   0  0  0  0  0  0  0  0  0  0  0  0
   -7.5385    5.4867  -13.9038 C   0  0  0  0  0  0  0  0  0  0  0  0
   -7.2617    6.6055  -13.7133 O   0  0  0  0  0  0  0  0  0  0  0  0
   -8.0246    4.3934  -12.9237 N   0  0  0  0  0  0  0  0  0  0  0  0
   -8.1759    4.4217  -11.5333 C   0  0  0  0  0  0  0  0  0  0  0  0
   -7.9585    5.6544  -10.8168 C   0  0  0  0  0  0  0  0  0  0  0  0
   -8.0914    5.8255   -9.4083 C   0  0  0  0  0  0  0  0  0  0  0  0
   -7.8839    7.1499   -8.7569 C   0  0  0  0  0  0  0  0  0  0  0  0
   -8.4670    4.6165   -8.8270 C   0  0  0  0  0  0  0  0  0  0  0  0
   -8.7048    4.3844   -7.4967 C   0  0  0  0  0  0  0  0  0  0  0  0
   -9.0862    3.0581   -7.3709 N   0  0  0  0  0  0  0  0  0  0  0  0
   -9.4755    2.4610   -6.1026 C   0  0  0  0  0  0  0  0  0  0  0  0
  -10.6979    3.1250   -5.5057 C   0  0  0  0  0  0  0  0  0  0  0  0
  -11.2342    2.3470   -4.5304 F   0  0  0  0  0  0  0  0  0  0  0  0
  -10.3441    4.2899   -4.8884 F   0  0  0  0  0  0  0  0  0  0  0  0
   -8.9982    2.4300   -8.5981 C   0  0  0  0  0  0  0  0  0  0  0  0
   -9.1669    1.0995   -8.7501 N   0  0  0  0  0  0  0  0  0  0  0  0
   -8.6798    3.3954   -9.5240 C   0  0  0  0  0  0  0  0  0  0  0  0
   -8.5504    3.2164  -10.9005 C   0  0  0  0  0  0  0  0  0  0  0  0
   -8.6618    4.4697  -15.8889 C   0  0  0  0  0  0  0  0  0  0  0  0
   -8.6897    4.2283  -17.2689 C   0  0  0  0  0  0  0  0  0  0  0  0
  -10.1434    3.6862  -17.9910 Cl  0  0  0  0  0  0  0  0  0  0  0  0
   -7.5850    4.4808  -18.0811 C   0  0  0  0  0  0  0  0  0  0  0  0
   -6.4546    4.9918  -17.4797 C   0  0  0  0  0  0  0  0  0  0  0  0
  1  2  1  0
  2  3  1  0
  3  4  1  0
  4  5  1  0
  5  6  2  0
  5  7  1  0
  7  8  1  0
  8  9  2  0
  9 10  1  0
 10 11  2  0
 10 12  1  0
 12 13  1  0
 13 14  1  0
 14 15  2  0
 15 16  1  0
 15 17  1  0
 17 18  2  0
 18 19  1  0
 19 20  1  0
 20 21  1  0
 21 22  1  0
 21 23  1  0
 19 24  1  0
 24 25  1  0
 24 26  2  0
 26 27  1  0
  9 28  1  0
 28 29  2  0
 29 30  1  0
 29 31  1  0
 31 32  2  0
 32  4  1  0
 32  8  1  0
 27 13  2  0
 26 17  1  0
M  END
>  <smiles>  (1651) 
C23496-P203

>  <fragmenstein_outcome>  (1651) 
acceptable

>  <inchikey>  (1651) 
NMJDSBNASTUUBL-UHFFFAOYSA-N

>  <fragmenstein_mode>  (1651) 
expansion

>  <HIPPO Pose ID>  (1651) 
22433

>  <Energy>  (1651) 
23.511159

>  <fragmenstein_error>  (1651) 


>  <tags>  (1651) 
{'openbind_xx01zvns2b_c1_fragmenstein', 'fragmenstein_placed'}

>  <ref_pdb>  (1651) 
175

>  <scratch_subdir>  (1651) 
/opt/xchem-fragalysis-2/maxwin/BulkDock/SCRATCH/511028/C23496-P203

>  <alias>  (1651) 
CNCN1C(=O)Cc2c(C(=O)Nc3cc(C)c4cn(CC(F)F)c(N)c4c3)cc(Cl)cc21

>  <HIPPO Compound ID>  (1651) 
23496

>  <fragmenstein_runtime>  (1651) 
5.188086

$$$$
C[C@H]1C[C@@H](NC(=O)c2cccc3c2CC2(CCCCC2)N3)C[C@@]2(CCNC2)C1
     RDKit          3D

 28 32  0  0  0  0  0  0  0  0999 V2000
   -7.1204    7.3759   -9.8866 C   0  0  0  0  0  0  0  0  0  0  0  0
   -8.3677    6.6093  -10.2885 C   0  0  1  0  0  0  0  0  0  0  0  0
   -8.2752    6.1483  -11.7349 C   0  0  0  0  0  0  0  0  0  0  0  0
   -8.1975    4.6227  -11.9078 C   0  0  1  0  0  0  0  0  0  0  0  0
   -8.0055    4.3518  -13.3167 N   0  0  0  0  0  0  0  0  0  0  0  0
   -7.1922    5.1167  -14.3833 C   0  0  0  0  0  0  0  0  0  0  0  0
   -6.4872    6.0406  -14.2778 O   0  0  0  0  0  0  0  0  0  0  0  0
   -7.4516    4.6257  -15.7792 C   0  0  0  0  0  0  0  0  0  0  0  0
   -8.7101    4.1203  -16.1535 C   0  0  0  0  0  0  0  0  0  0  0  0
   -9.0097    3.8557  -17.4992 C   0  0  0  0  0  0  0  0  0  0  0  0
   -8.0712    4.1223  -18.4946 C   0  0  0  0  0  0  0  0  0  0  0  0
   -6.8461    4.6533  -18.1352 C   0  0  0  0  0  0  0  0  0  0  0  0
   -6.5418    4.9020  -16.7998 C   0  0  0  0  0  0  0  0  0  0  0  0
   -5.1603    5.4667  -16.7164 C   0  0  0  0  0  0  0  0  0  0  0  0
   -4.7923    5.7200  -18.2117 C   0  0  0  0  0  0  0  0  0  0  0  0
   -4.7643    7.2422  -18.4836 C   0  0  0  0  0  0  0  0  0  0  0  0
   -4.4359    7.5981  -19.9351 C   0  0  0  0  0  0  0  0  0  0  0  0
   -3.4858    6.6109  -20.6056 C   0  0  0  0  0  0  0  0  0  0  0  0
   -2.6155    5.8764  -19.5986 C   0  0  0  0  0  0  0  0  0  0  0  0
   -3.4336    5.0835  -18.5713 C   0  0  0  0  0  0  0  0  0  0  0  0
   -5.8822    5.1453  -19.0237 N   0  0  0  0  0  0  0  0  0  0  0  0
   -7.2110    4.0227  -10.8899 C   0  0  0  0  0  0  0  0  0  0  0  0
   -7.7637    4.2096   -9.4385 C   0  0  2  0  0  0  0  0  0  0  0  0
   -6.7495    4.3009   -8.2993 C   0  0  0  0  0  0  0  0  0  0  0  0
   -7.6043    3.9929   -7.0598 C   0  0  0  0  0  0  0  0  0  0  0  0
   -8.6647    3.0765   -7.5032 N   0  0  0  0  0  0  0  0  0  0  0  0
   -8.5238    2.9453   -8.9660 C   0  0  0  0  0  0  0  0  0  0  0  0
   -8.6760    5.4485   -9.3597 C   0  0  0  0  0  0  0  0  0  0  0  0
  2  1  1  1
  2  3  1  0
  3  4  1  0
  4  5  1  6
  5  6  1  0
  6  7  2  0
  6  8  1  0
  8  9  2  0
  9 10  1  0
 10 11  2  0
 11 12  1  0
 12 13  2  0
 13 14  1  0
 14 15  1  0
 15 16  1  0
 16 17  1  0
 17 18  1  0
 18 19  1  0
 19 20  1  0
 15 21  1  0
  4 22  1  0
 23 22  1  6
 23 24  1  0
 24 25  1  0
 25 26  1  0
 26 27  1  0
 23 28  1  0
 28  2  1  0
 13  8  1  0
 20 15  1  0
 27 23  1  0
 21 12  1  0
M  END
>  <smiles>  (1652) 
C23512-P204

>  <fragmenstein_outcome>  (1652) 
acceptable

>  <inchikey>  (1652) 
QCIFXYSGFLOLOW-UHFFFAOYSA-N

>  <fragmenstein_mode>  (1652) 
expansion

>  <HIPPO Pose ID>  (1652) 
22439

>  <Energy>  (1652) 
93.719348

>  <fragmenstein_error>  (1652) 


>  <tags>  (1652) 
{'openbind_xx01zvns2b_c1_fragmenstein', 'fragmenstein_placed'}

>  <ref_pdb>  (1652) 
175

>  <scratch_subdir>  (1652) 
/opt/xchem-fragalysis-2/maxwin/BulkDock/SCRATCH/511028/C23512-P204

>  <alias>  (1652) 
C[C@H]1C[C@@H](NC(=O)c2cccc3c2CC2(CCCCC2)N3)C[C@@]2(CCNC2)C1

>  <HIPPO Compound ID>  (1652) 
23512

>  <fragmenstein_runtime>  (1652) 
6.977592

$$$$
CSc1cc2c(cc1NC(=O)c1cc(F)c(Cl)c3c1c([C@H]1CCOC1)nn3C)CNC2
     RDKit          3D

 31 35  0  0  0  0  0  0  0  0999 V2000
   -8.8388    8.5656  -10.5488 C   0  0  0  0  0  0  0  0  0  0  0  0
   -7.8908    7.6024  -11.7582 S   0  0  0  0  0  0  0  0  0  0  0  0
   -7.9807    5.9234  -11.1205 C   0  0  0  0  0  0  0  0  0  0  0  0
   -7.9511    5.7979   -9.7145 C   0  0  0  0  0  0  0  0  0  0  0  0
   -8.2094    4.5769   -9.1236 C   0  0  0  0  0  0  0  0  0  0  0  0
   -8.4656    3.4565   -9.8874 C   0  0  0  0  0  0  0  0  0  0  0  0
   -8.4107    3.5184  -11.2647 C   0  0  0  0  0  0  0  0  0  0  0  0
   -8.1411    4.7481  -11.9100 C   0  0  0  0  0  0  0  0  0  0  0  0
   -8.0737    4.6038  -13.3126 N   0  0  0  0  0  0  0  0  0  0  0  0
   -7.5271    5.5622  -14.3955 C   0  0  0  0  0  0  0  0  0  0  0  0
   -7.1189    6.6496  -14.3052 O   0  0  0  0  0  0  0  0  0  0  0  0
   -7.5712    4.9595  -15.7437 C   0  0  0  0  0  0  0  0  0  0  0  0
   -8.7796    4.3853  -16.1486 C   0  0  0  0  0  0  0  0  0  0  0  0
   -8.9483    3.9464  -17.4422 C   0  0  0  0  0  0  0  0  0  0  0  0
  -10.1412    3.4578  -17.8071 F   0  0  0  0  0  0  0  0  0  0  0  0
   -7.9165    4.0261  -18.3649 C   0  0  0  0  0  0  0  0  0  0  0  0
   -8.1258    3.2366  -19.8538 Cl  0  0  0  0  0  0  0  0  0  0  0  0
   -6.7181    4.6514  -17.9856 C   0  0  0  0  0  0  0  0  0  0  0  0
   -6.5031    5.0969  -16.6690 C   0  0  0  0  0  0  0  0  0  0  0  0
   -5.1434    5.5525  -16.6675 C   0  0  0  0  0  0  0  0  0  0  0  0
   -4.2309    6.0365  -15.5791 C   0  0  1  0  0  0  0  0  0  0  0  0
   -4.4037    7.4918  -15.2001 C   0  0  0  0  0  0  0  0  0  0  0  0
   -4.0448    7.5163  -13.7314 C   0  0  0  0  0  0  0  0  0  0  0  0
   -4.3245    6.2210  -13.1965 O   0  0  0  0  0  0  0  0  0  0  0  0
   -4.2691    5.2717  -14.2656 C   0  0  0  0  0  0  0  0  0  0  0  0
   -4.6120    5.4964  -17.8956 N   0  0  0  0  0  0  0  0  0  0  0  0
   -5.5745    4.9761  -18.6703 N   0  0  0  0  0  0  0  0  0  0  0  0
   -5.3199    4.9300  -20.0914 C   0  0  0  0  0  0  0  0  0  0  0  0
   -8.7454    2.3003   -8.9860 C   0  0  0  0  0  0  0  0  0  0  0  0
   -8.9693    2.9025   -7.6498 N   0  0  0  0  0  0  0  0  0  0  0  0
   -8.2732    4.2045   -7.6842 C   0  0  0  0  0  0  0  0  0  0  0  0
  1  2  1  0
  2  3  1  0
  3  4  2  0
  4  5  1  0
  5  6  2  0
  6  7  1  0
  7  8  2  0
  8  9  1  0
  9 10  1  0
 10 11  2  0
 10 12  1  0
 12 13  2  0
 13 14  1  0
 14 15  1  0
 14 16  2  0
 16 17  1  0
 16 18  1  0
 18 19  2  0
 19 20  1  0
 21 20  1  6
 21 22  1  0
 22 23  1  0
 23 24  1  0
 24 25  1  0
 20 26  2  0
 26 27  1  0
 27 28  1  0
  6 29  1  0
 29 30  1  0
 30 31  1  0
  8  3  1  0
 19 12  1  0
 25 21  1  0
 31  5  1  0
 27 18  1  0
M  END
>  <smiles>  (1653) 
C23552-P70

>  <fragmenstein_outcome>  (1653) 
acceptable

>  <inchikey>  (1653) 
QEDFXGRZMSUXRD-UHFFFAOYSA-N

>  <fragmenstein_mode>  (1653) 
expansion

>  <HIPPO Pose ID>  (1653) 
22442

>  <Energy>  (1653) 
102.414328

>  <fragmenstein_error>  (1653) 


>  <tags>  (1653) 
{'openbind_xx01zvns2b_c1_fragmenstein', 'fragmenstein_placed'}

>  <ref_pdb>  (1653) 
175

>  <scratch_subdir>  (1653) 
/opt/xchem-fragalysis-2/maxwin/BulkDock/SCRATCH/511028/C23552-P70

>  <alias>  (1653) 
CSc1cc2c(cc1NC(=O)c1cc(F)c(Cl)c3c1c([C@H]1CCOC1)nn3C)CNC2

>  <HIPPO Compound ID>  (1653) 
23552

>  <fragmenstein_runtime>  (1653) 
5.707218

$$$$
CSc1cc2c(cc1NC(=O)c1cc(F)cc3[nH]ncc13)CNC2
     RDKit          3D

 24 27  0  0  0  0  0  0  0  0999 V2000
   -6.2412    7.6153  -11.8189 C   0  0  0  0  0  0  0  0  0  0  0  0
   -7.9877    7.2006  -12.0641 S   0  0  0  0  0  0  0  0  0  0  0  0
   -7.9785    5.5530  -11.3490 C   0  0  0  0  0  0  0  0  0  0  0  0
   -7.9444    5.5149   -9.9390 C   0  0  0  0  0  0  0  0  0  0  0  0
   -8.1453    4.3113   -9.2880 C   0  0  0  0  0  0  0  0  0  0  0  0
   -8.4205    3.1574  -10.0009 C   0  0  0  0  0  0  0  0  0  0  0  0
   -8.4477    3.1631  -11.3838 C   0  0  0  0  0  0  0  0  0  0  0  0
   -8.1851    4.3551  -12.0797 C   0  0  0  0  0  0  0  0  0  0  0  0
   -8.1545    4.2147  -13.4764 N   0  0  0  0  0  0  0  0  0  0  0  0
   -7.4258    5.0552  -14.5581 C   0  0  0  0  0  0  0  0  0  0  0  0
   -6.6771    5.9471  -14.4479 O   0  0  0  0  0  0  0  0  0  0  0  0
   -7.7944    4.6514  -15.9423 C   0  0  0  0  0  0  0  0  0  0  0  0
   -9.1033    4.2674  -16.2748 C   0  0  0  0  0  0  0  0  0  0  0  0
   -9.4632    4.0540  -17.6002 C   0  0  0  0  0  0  0  0  0  0  0  0
  -10.7221    3.7141  -17.8980 F   0  0  0  0  0  0  0  0  0  0  0  0
   -8.5610    4.2087  -18.6400 C   0  0  0  0  0  0  0  0  0  0  0  0
   -7.2674    4.6002  -18.2977 C   0  0  0  0  0  0  0  0  0  0  0  0
   -6.1833    4.8879  -19.0831 N   0  0  0  0  0  0  0  0  0  0  0  0
   -5.0853    5.2482  -18.3864 N   0  0  0  0  0  0  0  0  0  0  0  0
   -5.5036    5.2093  -17.1160 C   0  0  0  0  0  0  0  0  0  0  0  0
   -6.8584    4.8187  -16.9878 C   0  0  0  0  0  0  0  0  0  0  0  0
   -8.6092    2.0165   -9.0587 C   0  0  0  0  0  0  0  0  0  0  0  0
   -8.6478    2.6212   -7.7096 N   0  0  0  0  0  0  0  0  0  0  0  0
   -8.1076    3.9905   -7.8331 C   0  0  0  0  0  0  0  0  0  0  0  0
  1  2  1  0
  2  3  1  0
  3  4  2  0
  4  5  1  0
  5  6  2  0
  6  7  1  0
  7  8  2  0
  8  9  1  0
  9 10  1  0
 10 11  2  0
 10 12  1  0
 12 13  2  0
 13 14  1  0
 14 15  1  0
 14 16  2  0
 16 17  1  0
 17 18  1  0
 18 19  1  0
 19 20  2  0
 20 21  1  0
  6 22  1  0
 22 23  1  0
 23 24  1  0
  8  3  1  0
 21 12  1  0
 24  5  1  0
 21 17  2  0
M  END
>  <smiles>  (1654) 
C184-P76

>  <fragmenstein_outcome>  (1654) 
acceptable

>  <inchikey>  (1654) 
DBGJOQQGBAEKHO-UHFFFAOYSA-N

>  <fragmenstein_mode>  (1654) 
expansion

>  <HIPPO Pose ID>  (1654) 
22445

>  <Energy>  (1654) 
70.303003

>  <fragmenstein_error>  (1654) 


>  <tags>  (1654) 
{'openbind_xx01zvns2b_c1_fragmenstein', 'fragmenstein_placed'}

>  <ref_pdb>  (1654) 
175

>  <scratch_subdir>  (1654) 
/opt/xchem-fragalysis-2/maxwin/BulkDock/SCRATCH/511028/C184-P76

>  <alias>  (1654) 
CSc1cc2c(cc1NC(=O)c1cc(F)cc3[nH]ncc13)CNC2

>  <HIPPO Compound ID>  (1654) 
184

>  <fragmenstein_runtime>  (1654) 
3.661641

$$$$
CCc1cc(C(=O)Nc2cc3c(cc2SC)CNC3)c2cn[nH]c2c1
     RDKit          3D

 25 28  0  0  0  0  0  0  0  0999 V2000
  -10.8126    4.2734  -17.8358 C   0  0  0  0  0  0  0  0  0  0  0  0
   -9.5324    3.7444  -18.4219 C   0  0  0  0  0  0  0  0  0  0  0  0
   -8.3057    4.2534  -17.7365 C   0  0  0  0  0  0  0  0  0  0  0  0
   -8.2421    4.5302  -16.3618 C   0  0  0  0  0  0  0  0  0  0  0  0
   -7.0779    5.0716  -15.7966 C   0  0  0  0  0  0  0  0  0  0  0  0
   -7.0476    5.5712  -14.3983 C   0  0  0  0  0  0  0  0  0  0  0  0
   -6.5653    6.6226  -14.2292 O   0  0  0  0  0  0  0  0  0  0  0  0
   -7.7708    4.6240  -13.4029 N   0  0  0  0  0  0  0  0  0  0  0  0
   -7.9607    4.7316  -12.0065 C   0  0  0  0  0  0  0  0  0  0  0  0
   -8.3458    3.5174  -11.3963 C   0  0  0  0  0  0  0  0  0  0  0  0
   -8.5009    3.4499  -10.0197 C   0  0  0  0  0  0  0  0  0  0  0  0
   -8.2926    4.5596   -9.2236 C   0  0  0  0  0  0  0  0  0  0  0  0
   -7.9481    5.7708   -9.7851 C   0  0  0  0  0  0  0  0  0  0  0  0
   -7.8024    5.8797  -11.1862 C   0  0  0  0  0  0  0  0  0  0  0  0
   -7.4895    7.5619  -11.6947 S   0  0  0  0  0  0  0  0  0  0  0  0
   -9.0718    7.9705  -12.4544 C   0  0  0  0  0  0  0  0  0  0  0  0
   -8.4851    4.1901   -7.7928 C   0  0  0  0  0  0  0  0  0  0  0  0
   -9.1142    2.8548   -7.8086 N   0  0  0  0  0  0  0  0  0  0  0  0
   -8.8474    2.2872   -9.1495 C   0  0  0  0  0  0  0  0  0  0  0  0
   -5.9689    5.2966  -16.6352 C   0  0  0  0  0  0  0  0  0  0  0  0
   -4.6584    5.8059  -16.5015 C   0  0  0  0  0  0  0  0  0  0  0  0
   -3.9700    5.7890  -17.6487 N   0  0  0  0  0  0  0  0  0  0  0  0
   -4.8581    5.3141  -18.5363 N   0  0  0  0  0  0  0  0  0  0  0  0
   -6.0610    4.9836  -17.9832 C   0  0  0  0  0  0  0  0  0  0  0  0
   -7.1976    4.4520  -18.5624 C   0  0  0  0  0  0  0  0  0  0  0  0
  1  2  1  0
  2  3  1  0
  3  4  2  0
  4  5  1  0
  5  6  1  0
  6  7  2  0
  6  8  1  0
  8  9  1  0
  9 10  2  0
 10 11  1  0
 11 12  2  0
 12 13  1  0
 13 14  2  0
 14 15  1  0
 15 16  1  0
 12 17  1  0
 17 18  1  0
 18 19  1  0
  5 20  2  0
 20 21  1  0
 21 22  2  0
 22 23  1  0
 23 24  1  0
 24 25  2  0
 25  3  1  0
 14  9  1  0
 24 20  1  0
 19 11  1  0
M  END
>  <smiles>  (1655) 
C23563-P86

>  <fragmenstein_outcome>  (1655) 
acceptable

>  <inchikey>  (1655) 
DZRWNZORUHGILZ-UHFFFAOYSA-N

>  <fragmenstein_mode>  (1655) 
expansion

>  <HIPPO Pose ID>  (1655) 
22448

>  <Energy>  (1655) 
89.979861

>  <fragmenstein_error>  (1655) 


>  <tags>  (1655) 
{'openbind_xx01zvns2b_c1_fragmenstein', 'fragmenstein_placed'}

>  <ref_pdb>  (1655) 
175

>  <scratch_subdir>  (1655) 
/opt/xchem-fragalysis-2/maxwin/BulkDock/SCRATCH/511028/C23563-P86

>  <alias>  (1655) 
CCc1cc(C(=O)Nc2cc3c(cc2SC)CNC3)c2cn[nH]c2c1

>  <HIPPO Compound ID>  (1655) 
23563

>  <fragmenstein_runtime>  (1655) 
7.532417

$$$$
CSc1cc2c(cc1NC(=O)c1cc(NS)ccc1CNN)CNC2
     RDKit          3D

 25 27  0  0  0  0  0  0  0  0999 V2000
   -6.7971    7.8059   -9.9698 C   0  0  0  0  0  0  0  0  0  0  0  0
   -8.0499    7.0622  -11.0353 S   0  0  0  0  0  0  0  0  0  0  0  0
   -8.0422    5.3867  -10.4175 C   0  0  0  0  0  0  0  0  0  0  0  0
   -8.2734    5.2588   -9.0311 C   0  0  0  0  0  0  0  0  0  0  0  0
   -8.5803    4.0242   -8.5049 C   0  0  0  0  0  0  0  0  0  0  0  0
   -8.6789    2.9147   -9.3237 C   0  0  0  0  0  0  0  0  0  0  0  0
   -8.4244    3.0024  -10.6824 C   0  0  0  0  0  0  0  0  0  0  0  0
   -8.0694    4.2404  -11.2486 C   0  0  0  0  0  0  0  0  0  0  0  0
   -7.8657    4.2000  -12.6411 N   0  0  0  0  0  0  0  0  0  0  0  0
   -7.0655    5.1588  -13.5759 C   0  0  0  0  0  0  0  0  0  0  0  0
   -6.3926    6.0812  -13.3190 O   0  0  0  0  0  0  0  0  0  0  0  0
   -7.3371    4.8283  -15.0174 C   0  0  0  0  0  0  0  0  0  0  0  0
   -8.6646    4.5327  -15.3549 C   0  0  0  0  0  0  0  0  0  0  0  0
   -9.0360    4.2419  -16.6659 C   0  0  0  0  0  0  0  0  0  0  0  0
  -10.3934    4.0406  -16.9558 N   0  0  0  0  0  0  0  0  0  0  0  0
  -10.9432    4.5237  -18.4335 S   0  0  0  0  0  0  0  0  0  0  0  0
   -8.0440    4.1203  -17.6298 C   0  0  0  0  0  0  0  0  0  0  0  0
   -6.7360    4.4404  -17.3172 C   0  0  0  0  0  0  0  0  0  0  0  0
   -6.3652    4.8783  -16.0324 C   0  0  0  0  0  0  0  0  0  0  0  0
   -4.9624    5.3805  -15.7714 C   0  0  0  0  0  0  0  0  0  0  0  0
   -4.0533    5.3458  -16.9445 N   0  0  0  0  0  0  0  0  0  0  0  0
   -4.4105    6.3638  -17.9304 N   0  0  0  0  0  0  0  0  0  0  0  0
   -9.0677    1.7414   -8.4876 C   0  0  0  0  0  0  0  0  0  0  0  0
   -9.5704    2.3233   -7.2130 N   0  0  0  0  0  0  0  0  0  0  0  0
   -8.9011    3.6367   -7.1019 C   0  0  0  0  0  0  0  0  0  0  0  0
  1  2  1  0
  2  3  1  0
  3  4  2  0
  4  5  1  0
  5  6  2  0
  6  7  1  0
  7  8  2  0
  8  9  1  0
  9 10  1  0
 10 11  2  0
 10 12  1  0
 12 13  2  0
 13 14  1  0
 14 15  1  0
 15 16  1  0
 14 17  2  0
 17 18  1  0
 18 19  2  0
 19 20  1  0
 20 21  1  0
 21 22  1  0
  6 23  1  0
 23 24  1  0
 24 25  1  0
  8  3  1  0
 19 12  1  0
 25  5  1  0
M  END
>  <smiles>  (1656) 
C23622-P204

>  <fragmenstein_outcome>  (1656) 
acceptable

>  <inchikey>  (1656) 
CXZOQQXDZPDDMX-UHFFFAOYSA-N

>  <fragmenstein_mode>  (1656) 
expansion

>  <HIPPO Pose ID>  (1656) 
22464

>  <Energy>  (1656) 
136.451786

>  <fragmenstein_error>  (1656) 


>  <tags>  (1656) 
{'openbind_xx01zvns2b_c1_fragmenstein', 'fragmenstein_placed'}

>  <ref_pdb>  (1656) 
175

>  <scratch_subdir>  (1656) 
/opt/xchem-fragalysis-2/maxwin/BulkDock/SCRATCH/511028/C23622-P204

>  <alias>  (1656) 
CSc1cc2c(cc1NC(=O)c1cc(NS)ccc1CNN)CNC2

>  <HIPPO Compound ID>  (1656) 
19254

>  <fragmenstein_runtime>  (1656) 
5.899975

$$$$
CSc1cc2c(cc1NC(=O)c1cc(F)cc3c1C=N[N@@H+]3[O-])CNC2
     RDKit          3D

 25 28  0  0  0  0  0  0  0  0999 V2000
   -6.4112    7.7752  -11.2775 C   0  0  0  0  0  0  0  0  0  0  0  0
   -8.1041    7.2828  -11.6925 S   0  0  0  0  0  0  0  0  0  0  0  0
   -8.1115    5.6465  -10.9438 C   0  0  0  0  0  0  0  0  0  0  0  0
   -8.1655    5.6279   -9.5360 C   0  0  0  0  0  0  0  0  0  0  0  0
   -8.4035    4.4321   -8.8849 C   0  0  0  0  0  0  0  0  0  0  0  0
   -8.6308    3.2681   -9.5997 C   0  0  0  0  0  0  0  0  0  0  0  0
   -8.5865    3.2559  -10.9886 C   0  0  0  0  0  0  0  0  0  0  0  0
   -8.2810    4.4421  -11.6782 C   0  0  0  0  0  0  0  0  0  0  0  0
   -8.1988    4.3523  -13.0807 N   0  0  0  0  0  0  0  0  0  0  0  0
   -7.2949    5.1141  -14.0892 C   0  0  0  0  0  0  0  0  0  0  0  0
   -6.5354    5.9870  -13.9169 O   0  0  0  0  0  0  0  0  0  0  0  0
   -7.5142    4.7251  -15.5091 C   0  0  0  0  0  0  0  0  0  0  0  0
   -8.7619    4.3390  -16.0120 C   0  0  0  0  0  0  0  0  0  0  0  0
   -8.9331    4.1374  -17.3930 C   0  0  0  0  0  0  0  0  0  0  0  0
  -10.1372    3.7639  -17.8463 F   0  0  0  0  0  0  0  0  0  0  0  0
   -7.8995    4.3508  -18.3046 C   0  0  0  0  0  0  0  0  0  0  0  0
   -6.6762    4.7485  -17.7997 C   0  0  0  0  0  0  0  0  0  0  0  0
   -6.4926    4.8938  -16.4357 C   0  0  0  0  0  0  0  0  0  0  0  0
   -5.0638    5.1055  -16.2861 C   0  0  0  0  0  0  0  0  0  0  0  0
   -4.3944    5.0489  -17.4002 N   0  0  0  0  0  0  0  0  0  0  0  0
   -5.4109    4.9696  -18.5121 N   0  0  2  0  0  0  0  0  0  0  0  0
   -5.3757    6.1842  -19.0841 O   0  0  0  0  0  0  0  0  0  0  0  0
   -8.9302    2.1556   -8.6506 C   0  0  0  0  0  0  0  0  0  0  0  0
   -8.7505    2.7128   -7.2815 N   0  0  0  0  0  0  0  0  0  0  0  0
   -8.5316    4.1667   -7.4257 C   0  0  0  0  0  0  0  0  0  0  0  0
  1  2  1  0
  2  3  1  0
  3  4  2  0
  4  5  1  0
  5  6  2  0
  6  7  1  0
  7  8  2  0
  8  9  1  0
  9 10  1  0
 10 11  2  0
 10 12  1  0
 12 13  2  0
 13 14  1  0
 14 15  1  0
 14 16  2  0
 16 17  1  0
 17 18  2  0
 18 19  1  0
 19 20  2  0
 20 21  1  0
 21 22  1  1
  6 23  1  0
 23 24  1  0
 24 25  1  0
  8  3  1  0
 18 12  1  0
 25  5  1  0
 21 17  1  0
M  CHG  2  21   1  22  -1
M  END
>  <smiles>  (1657) 
C23609-P204

>  <fragmenstein_outcome>  (1657) 
acceptable

>  <inchikey>  (1657) 
YHILCQFOCSNVNF-UHFFFAOYSA-N

>  <fragmenstein_mode>  (1657) 
expansion

>  <HIPPO Pose ID>  (1657) 
22476

>  <Energy>  (1657) 
57.924204

>  <fragmenstein_error>  (1657) 


>  <tags>  (1657) 
{'openbind_xx01zvns2b_c1_fragmenstein', 'fragmenstein_placed'}

>  <ref_pdb>  (1657) 
175

>  <scratch_subdir>  (1657) 
/opt/xchem-fragalysis-2/maxwin/BulkDock/SCRATCH/511028/C23609-P204

>  <alias>  (1657) 
CSc1cc2c(cc1NC(=O)c1cc(F)cc3c1C=N[N@@H+]3[O-])CNC2

>  <HIPPO Compound ID>  (1657) 
26340

>  <fragmenstein_runtime>  (1657) 
2.859116

$$$$
CNCn1ncc2c(C(=O)Nc3cc4c(c5c#csc35)CNC4)cc(F)cc21
     RDKit          3D

 28 32  0  0  0  0  0  0  0  0999 V2000
   -3.1207    6.4330  -19.9501 C   0  0  0  0  0  0  0  0  0  0  0  0
   -3.6154    5.1244  -19.5360 N   0  0  0  0  0  0  0  0  0  0  0  0
   -5.0971    5.1248  -19.4886 C   0  0  0  0  0  0  0  0  0  0  0  0
   -5.5567    5.2528  -18.1103 N   0  0  0  0  0  0  0  0  0  0  0  0
   -4.7340    5.7813  -17.1699 N   0  0  0  0  0  0  0  0  0  0  0  0
   -5.4581    5.7085  -16.0571 C   0  0  0  0  0  0  0  0  0  0  0  0
   -6.7271    5.1234  -16.2672 C   0  0  0  0  0  0  0  0  0  0  0  0
   -7.8488    4.8503  -15.4631 C   0  0  0  0  0  0  0  0  0  0  0  0
   -7.8354    5.3846  -14.0848 C   0  0  0  0  0  0  0  0  0  0  0  0
   -7.4025    6.4573  -13.9420 O   0  0  0  0  0  0  0  0  0  0  0  0
   -8.3595    4.3735  -13.0486 N   0  0  0  0  0  0  0  0  0  0  0  0
   -8.3735    4.4292  -11.6489 C   0  0  0  0  0  0  0  0  0  0  0  0
   -8.6220    3.2066  -10.9974 C   0  0  0  0  0  0  0  0  0  0  0  0
   -8.6278    3.1388   -9.6033 C   0  0  0  0  0  0  0  0  0  0  0  0
   -8.3931    4.2491   -8.8110 C   0  0  0  0  0  0  0  0  0  0  0  0
   -8.1594    5.4493   -9.4256 C   0  0  0  0  0  0  0  0  0  0  0  0
   -7.9557    6.7235   -8.8381 C   0  0  0  0  0  0  0  0  0  0  0  0
   -7.8620    7.6367   -9.5995 C   0  0  0  0  0  0  0  0  0  0  0  0
   -7.9605    7.3416  -11.2584 S   0  0  0  0  0  0  0  0  0  0  0  0
   -8.1574    5.5610  -10.8498 C   0  0  0  0  0  0  0  0  0  0  0  0
   -8.4880    3.8794   -7.3759 C   0  0  0  0  0  0  0  0  0  0  0  0
   -8.8023    2.4393   -7.3339 N   0  0  0  0  0  0  0  0  0  0  0  0
   -8.8611    1.9530   -8.7296 C   0  0  0  0  0  0  0  0  0  0  0  0
   -8.9589    4.2196  -16.0306 C   0  0  0  0  0  0  0  0  0  0  0  0
   -8.9588    3.9167  -17.3887 C   0  0  0  0  0  0  0  0  0  0  0  0
  -10.0399    3.3351  -17.9198 F   0  0  0  0  0  0  0  0  0  0  0  0
   -7.8830    4.2210  -18.2233 C   0  0  0  0  0  0  0  0  0  0  0  0
   -6.7680    4.8229  -17.6232 C   0  0  0  0  0  0  0  0  0  0  0  0
  1  2  1  0
  2  3  1  0
  3  4  1  0
  4  5  1  0
  5  6  2  0
  6  7  1  0
  7  8  2  0
  8  9  1  0
  9 10  2  0
  9 11  1  0
 11 12  1  0
 12 13  2  0
 13 14  1  0
 14 15  2  0
 15 16  1  0
 16 17  1  0
 17 18  3  0
 18 19  1  0
 19 20  1  0
 15 21  1  0
 21 22  1  0
 22 23  1  0
  8 24  1  0
 24 25  2  0
 25 26  1  0
 25 27  1  0
 27 28  2  0
 28  4  1  0
 28  7  1  0
 20 12  1  0
 23 14  1  0
 20 16  2  0
M  END
>  <smiles>  (1658) 
C23692-P204

>  <fragmenstein_outcome>  (1658) 
acceptable

>  <inchikey>  (1658) 
MILSFOYHUIXZFJ-UHFFFAOYSA-N

>  <fragmenstein_mode>  (1658) 
expansion

>  <HIPPO Pose ID>  (1658) 
22483

>  <Energy>  (1658) 
174.04846

>  <fragmenstein_error>  (1658) 


>  <tags>  (1658) 
{'openbind_xx01zvns2b_c1_fragmenstein', 'fragmenstein_placed'}

>  <ref_pdb>  (1658) 
175

>  <scratch_subdir>  (1658) 
/opt/xchem-fragalysis-2/maxwin/BulkDock/SCRATCH/511028/C23692-P204

>  <alias>  (1658) 
CNCn1ncc2c(C(=O)Nc3cc4c(c5c#csc35)CNC4)cc(F)cc21

>  <HIPPO Compound ID>  (1658) 
22775

>  <fragmenstein_runtime>  (1658) 
6.084767

$$$$
CSc1cc2c(cc1NC(=O)c1cc(F)c(CN)c3n[nH]cc13)CNC2
     RDKit          3D

 26 29  0  0  0  0  0  0  0  0999 V2000
   -9.0811    8.2521   -9.7914 C   0  0  0  0  0  0  0  0  0  0  0  0
   -8.3634    7.1972  -11.0681 S   0  0  0  0  0  0  0  0  0  0  0  0
   -8.3247    5.5448  -10.3340 C   0  0  0  0  0  0  0  0  0  0  0  0
   -8.4545    5.3843   -8.9453 C   0  0  0  0  0  0  0  0  0  0  0  0
   -8.6834    4.1180   -8.4285 C   0  0  0  0  0  0  0  0  0  0  0  0
   -8.7486    2.9996   -9.2471 C   0  0  0  0  0  0  0  0  0  0  0  0
   -8.5597    3.1070  -10.6058 C   0  0  0  0  0  0  0  0  0  0  0  0
   -8.3171    4.3782  -11.1511 C   0  0  0  0  0  0  0  0  0  0  0  0
   -8.1314    4.3856  -12.5324 N   0  0  0  0  0  0  0  0  0  0  0  0
   -7.2428    5.2845  -13.4206 C   0  0  0  0  0  0  0  0  0  0  0  0
   -6.5862    6.2090  -13.1443 O   0  0  0  0  0  0  0  0  0  0  0  0
   -7.3684    4.9143  -14.8327 C   0  0  0  0  0  0  0  0  0  0  0  0
   -8.5785    4.4978  -15.4245 C   0  0  0  0  0  0  0  0  0  0  0  0
   -8.6906    4.2028  -16.8008 C   0  0  0  0  0  0  0  0  0  0  0  0
   -9.8963    3.8190  -17.2546 F   0  0  0  0  0  0  0  0  0  0  0  0
   -7.6296    4.3063  -17.7271 C   0  0  0  0  0  0  0  0  0  0  0  0
   -7.8540    3.8618  -19.1238 C   0  0  0  0  0  0  0  0  0  0  0  0
   -6.6499    3.8640  -19.9427 N   0  0  0  0  0  0  0  0  0  0  0  0
   -6.4307    4.7872  -17.1624 C   0  0  0  0  0  0  0  0  0  0  0  0
   -5.2398    5.0579  -17.7393 N   0  0  0  0  0  0  0  0  0  0  0  0
   -4.4401    5.4306  -16.7289 N   0  0  0  0  0  0  0  0  0  0  0  0
   -5.0488    5.4454  -15.5164 C   0  0  0  0  0  0  0  0  0  0  0  0
   -6.3381    5.0560  -15.7592 C   0  0  0  0  0  0  0  0  0  0  0  0
   -9.0197    1.7934   -8.4145 C   0  0  0  0  0  0  0  0  0  0  0  0
   -9.5195    2.3361   -7.1255 N   0  0  0  0  0  0  0  0  0  0  0  0
   -8.9351    3.6938   -7.0198 C   0  0  0  0  0  0  0  0  0  0  0  0
  1  2  1  0
  2  3  1  0
  3  4  2  0
  4  5  1  0
  5  6  2  0
  6  7  1  0
  7  8  2  0
  8  9  1  0
  9 10  1  0
 10 11  2  0
 10 12  1  0
 12 13  2  0
 13 14  1  0
 14 15  1  0
 14 16  2  0
 16 17  1  0
 17 18  1  0
 16 19  1  0
 19 20  2  0
 20 21  1  0
 21 22  1  0
 22 23  2  0
  6 24  1  0
 24 25  1  0
 25 26  1  0
  8  3  1  0
 23 12  1  0
 26  5  1  0
 23 19  1  0
M  END
>  <smiles>  (1659) 
C23707-P205

>  <fragmenstein_outcome>  (1659) 
acceptable

>  <inchikey>  (1659) 
SWPIMUUABFPLSY-UHFFFAOYSA-N

>  <fragmenstein_mode>  (1659) 
expansion

>  <HIPPO Pose ID>  (1659) 
22486

>  <Energy>  (1659) 
66.56623

>  <fragmenstein_error>  (1659) 


>  <tags>  (1659) 
{'openbind_xx01zvns2b_c1_fragmenstein', 'fragmenstein_placed'}

>  <ref_pdb>  (1659) 
175

>  <scratch_subdir>  (1659) 
/opt/xchem-fragalysis-2/maxwin/BulkDock/SCRATCH/511028/C23707-P205

>  <alias>  (1659) 
CSc1cc2c(cc1NC(=O)c1cc(F)c(CN)c3n[nH]cc13)CNC2

>  <HIPPO Compound ID>  (1659) 
23707

>  <fragmenstein_runtime>  (1659) 
3.541303

$$$$
CSc1cc2c(cc1NC(=O)c1cc(F)cc3c1cn1cn[nH]c31)CNC2
     RDKit          3D

 27 31  0  0  0  0  0  0  0  0999 V2000
   -8.9545    8.2042  -10.1908 C   0  0  0  0  0  0  0  0  0  0  0  0
   -8.3621    7.0930  -11.4907 S   0  0  0  0  0  0  0  0  0  0  0  0
   -8.3097    5.4632  -10.7091 C   0  0  0  0  0  0  0  0  0  0  0  0
   -8.3848    5.3641   -9.3071 C   0  0  0  0  0  0  0  0  0  0  0  0
   -8.5800    4.1262   -8.7151 C   0  0  0  0  0  0  0  0  0  0  0  0
   -8.6864    2.9773   -9.4755 C   0  0  0  0  0  0  0  0  0  0  0  0
   -8.5718    3.0262  -10.8516 C   0  0  0  0  0  0  0  0  0  0  0  0
   -8.3425    4.2639  -11.4791 C   0  0  0  0  0  0  0  0  0  0  0  0
   -8.1618    4.1826  -12.8673 N   0  0  0  0  0  0  0  0  0  0  0  0
   -7.3453    5.0795  -13.8293 C   0  0  0  0  0  0  0  0  0  0  0  0
   -6.6345    5.9796  -13.6055 O   0  0  0  0  0  0  0  0  0  0  0  0
   -7.5496    4.7099  -15.2464 C   0  0  0  0  0  0  0  0  0  0  0  0
   -8.7779    4.2924  -15.8139 C   0  0  0  0  0  0  0  0  0  0  0  0
   -8.9790    4.0850  -17.2223 C   0  0  0  0  0  0  0  0  0  0  0  0
  -10.2109    3.7316  -17.6194 F   0  0  0  0  0  0  0  0  0  0  0  0
   -8.0030    4.2706  -18.2203 C   0  0  0  0  0  0  0  0  0  0  0  0
   -6.8131    4.6927  -17.6490 C   0  0  0  0  0  0  0  0  0  0  0  0
   -6.5807    4.8950  -16.2374 C   0  0  0  0  0  0  0  0  0  0  0  0
   -5.2683    5.3003  -16.0625 C   0  0  0  0  0  0  0  0  0  0  0  0
   -4.7550    5.3840  -17.3166 N   0  0  0  0  0  0  0  0  0  0  0  0
   -3.5666    5.7288  -17.9134 C   0  0  0  0  0  0  0  0  0  0  0  0
   -3.6833    5.6330  -19.2096 N   0  0  0  0  0  0  0  0  0  0  0  0
   -5.0129    5.2235  -19.4312 N   0  0  0  0  0  0  0  0  0  0  0  0
   -5.6595    5.0528  -18.2684 C   0  0  0  0  0  0  0  0  0  0  0  0
   -8.8910    1.8013   -8.5851 C   0  0  0  0  0  0  0  0  0  0  0  0
   -9.0482    2.3442   -7.2102 N   0  0  0  0  0  0  0  0  0  0  0  0
   -8.7377    3.7892   -7.2735 C   0  0  0  0  0  0  0  0  0  0  0  0
  1  2  1  0
  2  3  1  0
  3  4  2  0
  4  5  1  0
  5  6  2  0
  6  7  1  0
  7  8  2  0
  8  9  1  0
  9 10  1  0
 10 11  2  0
 10 12  1  0
 12 13  2  0
 13 14  1  0
 14 15  1  0
 14 16  2  0
 16 17  1  0
 17 18  1  0
 18 19  2  0
 19 20  1  0
 20 21  1  0
 21 22  2  0
 22 23  1  0
 23 24  1  0
  6 25  1  0
 25 26  1  0
 26 27  1  0
  8  3  1  0
 18 12  1  0
 24 20  1  0
 27  5  1  0
 24 17  2  0
M  END
>  <smiles>  (1660) 
C23708-P205

>  <fragmenstein_outcome>  (1660) 
acceptable

>  <inchikey>  (1660) 
YUWZYMNEHVKHIK-UHFFFAOYSA-N

>  <fragmenstein_mode>  (1660) 
expansion

>  <HIPPO Pose ID>  (1660) 
22487

>  <Energy>  (1660) 
132.785377

>  <fragmenstein_error>  (1660) 


>  <tags>  (1660) 
{'openbind_xx01zvns2b_c1_fragmenstein', 'fragmenstein_placed'}

>  <ref_pdb>  (1660) 
175

>  <scratch_subdir>  (1660) 
/opt/xchem-fragalysis-2/maxwin/BulkDock/SCRATCH/511028/C23708-P205

>  <alias>  (1660) 
CSc1cc2c(cc1NC(=O)c1cc(F)cc3c1cn1cn[nH]c31)CNC2

>  <HIPPO Compound ID>  (1660) 
23708

>  <fragmenstein_runtime>  (1660) 
4.841257

$$$$
CSc1cc2c(cc1NC(=O)[C@@H]1C[C@@H](F)C[C@@H]3[C@@H]1CN1SCNCN31)CNC2
     RDKit          3D

 28 32  0  0  0  0  0  0  0  0999 V2000
   -9.1597    8.4559   -9.8791 C   0  0  0  0  0  0  0  0  0  0  0  0
   -8.4072    7.4784  -11.1999 S   0  0  0  0  0  0  0  0  0  0  0  0
   -8.3537    5.8081  -10.4986 C   0  0  0  0  0  0  0  0  0  0  0  0
   -8.5327    5.5378   -9.1406 C   0  0  0  0  0  0  0  0  0  0  0  0
   -8.5571    4.2142   -8.7283 C   0  0  0  0  0  0  0  0  0  0  0  0
   -8.3461    3.1694   -9.6203 C   0  0  0  0  0  0  0  0  0  0  0  0
   -8.0417    3.4080  -10.9511 C   0  0  0  0  0  0  0  0  0  0  0  0
   -8.0766    4.7334  -11.3861 C   0  0  0  0  0  0  0  0  0  0  0  0
   -7.9769    5.0472  -12.7337 N   0  0  0  0  0  0  0  0  0  0  0  0
   -7.0211    4.4961  -13.8311 C   0  0  0  0  0  0  0  0  0  0  0  0
   -6.2292    3.6430  -13.7828 O   0  0  0  0  0  0  0  0  0  0  0  0
   -7.4163    5.2707  -15.0958 C   0  0  2  0  0  0  0  0  0  0  0  0
   -8.8059    4.7879  -15.5832 C   0  0  0  0  0  0  0  0  0  0  0  0
   -8.8774    4.0577  -16.9258 C   0  0  1  0  0  0  0  0  0  0  0  0
  -10.1181    4.2287  -17.4597 F   0  0  0  0  0  0  0  0  0  0  0  0
   -7.8447    4.4514  -17.9725 C   0  0  0  0  0  0  0  0  0  0  0  0
   -6.4654    4.4585  -17.3396 C   0  0  2  0  0  0  0  0  0  0  0  0
   -6.3905    5.4403  -16.2088 C   0  0  2  0  0  0  0  0  0  0  0  0
   -4.9102    5.4526  -15.8995 C   0  0  0  0  0  0  0  0  0  0  0  0
   -4.3301    5.5315  -17.2607 N   0  0  0  0  0  0  0  0  0  0  0  0
   -3.8678    7.0159  -17.8613 S   0  0  0  0  0  0  0  0  0  0  0  0
   -3.5426    6.6314  -19.6048 C   0  0  0  0  0  0  0  0  0  0  0  0
   -4.1717    5.4260  -20.1109 N   0  0  0  0  0  0  0  0  0  0  0  0
   -5.4637    5.2222  -19.4726 C   0  0  0  0  0  0  0  0  0  0  0  0
   -5.2558    4.7535  -18.1169 N   0  0  0  0  0  0  0  0  0  0  0  0
   -8.5745    1.8716   -8.9212 C   0  0  0  0  0  0  0  0  0  0  0  0
   -8.8368    2.1990   -7.4941 N   0  0  0  0  0  0  0  0  0  0  0  0
   -8.8402    3.6695   -7.3709 C   0  0  0  0  0  0  0  0  0  0  0  0
  1  2  1  0
  2  3  1  0
  3  4  2  0
  4  5  1  0
  5  6  2  0
  6  7  1  0
  7  8  2  0
  8  9  1  0
  9 10  1  0
 10 11  2  0
 12 10  1  1
 12 13  1  0
 13 14  1  0
 14 15  1  6
 14 16  1  0
 17 16  1  6
 17 18  1  0
 18 19  1  1
 19 20  1  0
 20 21  1  0
 21 22  1  0
 22 23  1  0
 23 24  1  0
 24 25  1  0
  6 26  1  0
 26 27  1  0
 27 28  1  0
  8  3  1  0
 18 12  1  0
 25 20  1  0
 28  5  1  0
 25 17  1  0
M  END
>  <smiles>  (1661) 
C23709-P205

>  <fragmenstein_outcome>  (1661) 
acceptable

>  <inchikey>  (1661) 
KQLUEERTZMTBIE-UHFFFAOYSA-N

>  <fragmenstein_mode>  (1661) 
expansion

>  <HIPPO Pose ID>  (1661) 
22488

>  <Energy>  (1661) 
39.572587

>  <fragmenstein_error>  (1661) 


>  <tags>  (1661) 
{'openbind_xx01zvns2b_c1_fragmenstein', 'fragmenstein_placed'}

>  <ref_pdb>  (1661) 
175

>  <scratch_subdir>  (1661) 
/opt/xchem-fragalysis-2/maxwin/BulkDock/SCRATCH/511028/C23709-P205

>  <alias>  (1661) 
CSc1cc2c(cc1NC(=O)[C@@H]1C[C@@H](F)C[C@@H]3[C@@H]1CN1SCNCN31)CNC2

>  <HIPPO Compound ID>  (1661) 
23709

>  <fragmenstein_runtime>  (1661) 
4.561714

$$$$
CSc1cc2c(cc1NC(=O)c1cc(F)cc3c1cnn3NC1CNC1)CNC2
     RDKit          3D

 29 33  0  0  0  0  0  0  0  0999 V2000
   -8.9277    8.1314  -10.0841 C   0  0  0  0  0  0  0  0  0  0  0  0
   -8.3524    6.9965  -11.3699 S   0  0  0  0  0  0  0  0  0  0  0  0
   -8.3496    5.3682  -10.5746 C   0  0  0  0  0  0  0  0  0  0  0  0
   -8.4291    5.2754   -9.1751 C   0  0  0  0  0  0  0  0  0  0  0  0
   -8.6718    4.0428   -8.5932 C   0  0  0  0  0  0  0  0  0  0  0  0
   -8.7932    2.8910   -9.3581 C   0  0  0  0  0  0  0  0  0  0  0  0
   -8.6685    2.9311  -10.7306 C   0  0  0  0  0  0  0  0  0  0  0  0
   -8.4219    4.1665  -11.3457 C   0  0  0  0  0  0  0  0  0  0  0  0
   -8.2820    4.1255  -12.7360 N   0  0  0  0  0  0  0  0  0  0  0  0
   -7.3527    4.9234  -13.6735 C   0  0  0  0  0  0  0  0  0  0  0  0
   -6.6118    5.7955  -13.4421 O   0  0  0  0  0  0  0  0  0  0  0  0
   -7.5170    4.5722  -15.1083 C   0  0  0  0  0  0  0  0  0  0  0  0
   -8.7449    4.2118  -15.6822 C   0  0  0  0  0  0  0  0  0  0  0  0
   -8.8805    4.1548  -17.0666 C   0  0  0  0  0  0  0  0  0  0  0  0
  -10.0715    3.8318  -17.5894 F   0  0  0  0  0  0  0  0  0  0  0  0
   -7.8470    4.5247  -17.9261 C   0  0  0  0  0  0  0  0  0  0  0  0
   -6.6341    4.9007  -17.3354 C   0  0  0  0  0  0  0  0  0  0  0  0
   -6.4314    4.8509  -15.9607 C   0  0  0  0  0  0  0  0  0  0  0  0
   -5.0704    5.1859  -15.7911 C   0  0  0  0  0  0  0  0  0  0  0  0
   -4.4797    5.5030  -16.9402 N   0  0  0  0  0  0  0  0  0  0  0  0
   -5.4939    5.5068  -17.8154 N   0  0  0  0  0  0  0  0  0  0  0  0
   -5.4773    6.4247  -18.8800 N   0  0  0  0  0  0  0  0  0  0  0  0
   -4.9928    5.7730  -20.0939 C   0  0  0  0  0  0  0  0  0  0  0  0
   -3.4438    5.7126  -20.1036 C   0  0  0  0  0  0  0  0  0  0  0  0
   -3.4317    7.0934  -20.6528 N   0  0  0  0  0  0  0  0  0  0  0  0
   -4.7978    6.8569  -21.1825 C   0  0  0  0  0  0  0  0  0  0  0  0
   -9.0342    1.7306   -8.4535 C   0  0  0  0  0  0  0  0  0  0  0  0
   -9.4847    2.3406   -7.1759 N   0  0  0  0  0  0  0  0  0  0  0  0
   -8.8797    3.6929   -7.1573 C   0  0  0  0  0  0  0  0  0  0  0  0
  1  2  1  0
  2  3  1  0
  3  4  2  0
  4  5  1  0
  5  6  2  0
  6  7  1  0
  7  8  2  0
  8  9  1  0
  9 10  1  0
 10 11  2  0
 10 12  1  0
 12 13  2  0
 13 14  1  0
 14 15  1  0
 14 16  2  0
 16 17  1  0
 17 18  2  0
 18 19  1  0
 19 20  2  0
 20 21  1  0
 21 22  1  0
 22 23  1  0
 23 24  1  0
 24 25  1  0
 25 26  1  0
  6 27  1  0
 27 28  1  0
 28 29  1  0
  8  3  1  0
 18 12  1  0
 26 23  1  0
 29  5  1  0
 21 17  1  0
M  END
>  <smiles>  (1662) 
C23713-P205

>  <fragmenstein_outcome>  (1662) 
acceptable

>  <inchikey>  (1662) 
CWACVHOGTGPGNS-UHFFFAOYSA-N

>  <fragmenstein_mode>  (1662) 
expansion

>  <HIPPO Pose ID>  (1662) 
22490

>  <Energy>  (1662) 
71.152663

>  <fragmenstein_error>  (1662) 


>  <tags>  (1662) 
{'openbind_xx01zvns2b_c1_fragmenstein', 'fragmenstein_placed'}

>  <ref_pdb>  (1662) 
175

>  <scratch_subdir>  (1662) 
/opt/xchem-fragalysis-2/maxwin/BulkDock/SCRATCH/511028/C23713-P205

>  <alias>  (1662) 
CSc1cc2c(cc1NC(=O)c1cc(F)cc3c1cnn3NC1CNC1)CNC2

>  <HIPPO Compound ID>  (1662) 
23713

>  <fragmenstein_runtime>  (1662) 
5.973523

$$$$
CSc1cc2c(cc1NC(=O)c1cc(F)cc3c1CN[C@@]31CCNC1)CNC2
     RDKit          3D

 28 32  0  0  0  0  0  0  0  0999 V2000
   -8.9423    8.2009  -10.1826 C   0  0  0  0  0  0  0  0  0  0  0  0
   -8.3482    7.0984  -11.4894 S   0  0  0  0  0  0  0  0  0  0  0  0
   -8.2999    5.4614  -10.7198 C   0  0  0  0  0  0  0  0  0  0  0  0
   -8.3832    5.3539   -9.3188 C   0  0  0  0  0  0  0  0  0  0  0  0
   -8.6081    4.1152   -8.7435 C   0  0  0  0  0  0  0  0  0  0  0  0
   -8.7072    2.9689   -9.5166 C   0  0  0  0  0  0  0  0  0  0  0  0
   -8.5675    3.0238  -10.8894 C   0  0  0  0  0  0  0  0  0  0  0  0
   -8.3388    4.2680  -11.5034 C   0  0  0  0  0  0  0  0  0  0  0  0
   -8.2096    4.2226  -12.9004 N   0  0  0  0  0  0  0  0  0  0  0  0
   -7.3440    5.0768  -13.8584 C   0  0  0  0  0  0  0  0  0  0  0  0
   -6.6625    6.0013  -13.6424 O   0  0  0  0  0  0  0  0  0  0  0  0
   -7.5062    4.6892  -15.2902 C   0  0  0  0  0  0  0  0  0  0  0  0
   -8.7251    4.2478  -15.8139 C   0  0  0  0  0  0  0  0  0  0  0  0
   -8.8735    4.0852  -17.1956 C   0  0  0  0  0  0  0  0  0  0  0  0
  -10.0645    3.7064  -17.6777 F   0  0  0  0  0  0  0  0  0  0  0  0
   -7.8445    4.3863  -18.0855 C   0  0  0  0  0  0  0  0  0  0  0  0
   -6.6498    4.8580  -17.5692 C   0  0  0  0  0  0  0  0  0  0  0  0
   -6.4738    4.9627  -16.1855 C   0  0  0  0  0  0  0  0  0  0  0  0
   -5.0996    5.4817  -15.8989 C   0  0  0  0  0  0  0  0  0  0  0  0
   -4.3723    5.3981  -17.1928 N   0  0  0  0  0  0  0  0  0  0  0  0
   -5.4455    5.4485  -18.2408 C   0  0  1  0  0  0  0  0  0  0  0  0
   -4.9344    4.8683  -19.5512 C   0  0  0  0  0  0  0  0  0  0  0  0
   -4.5662    6.0594  -20.4396 C   0  0  0  0  0  0  0  0  0  0  0  0
   -4.6035    7.2504  -19.5808 N   0  0  0  0  0  0  0  0  0  0  0  0
   -5.6970    6.9109  -18.6514 C   0  0  0  0  0  0  0  0  0  0  0  0
   -8.9551    1.8004   -8.6221 C   0  0  0  0  0  0  0  0  0  0  0  0
   -9.4124    2.3980   -7.3399 N   0  0  0  0  0  0  0  0  0  0  0  0
   -8.8203    3.7551   -7.3107 C   0  0  0  0  0  0  0  0  0  0  0  0
  1  2  1  0
  2  3  1  0
  3  4  2  0
  4  5  1  0
  5  6  2  0
  6  7  1  0
  7  8  2  0
  8  9  1  0
  9 10  1  0
 10 11  2  0
 10 12  1  0
 12 13  2  0
 13 14  1  0
 14 15  1  0
 14 16  2  0
 16 17  1  0
 17 18  2  0
 18 19  1  0
 19 20  1  0
 20 21  1  0
 21 22  1  6
 22 23  1  0
 23 24  1  0
 24 25  1  0
  6 26  1  0
 26 27  1  0
 27 28  1  0
  8  3  1  0
 18 12  1  0
 25 21  1  0
 28  5  1  0
 21 17  1  0
M  END
>  <smiles>  (1663) 
C23714-P205

>  <fragmenstein_outcome>  (1663) 
acceptable

>  <inchikey>  (1663) 
AGVICOOGNULVLC-UHFFFAOYSA-N

>  <fragmenstein_mode>  (1663) 
expansion

>  <HIPPO Pose ID>  (1663) 
22491

>  <Energy>  (1663) 
106.879706

>  <fragmenstein_error>  (1663) 


>  <tags>  (1663) 
{'openbind_xx01zvns2b_c1_fragmenstein', 'fragmenstein_placed'}

>  <ref_pdb>  (1663) 
175

>  <scratch_subdir>  (1663) 
/opt/xchem-fragalysis-2/maxwin/BulkDock/SCRATCH/511028/C23714-P205

>  <alias>  (1663) 
CSc1cc2c(cc1NC(=O)c1cc(F)cc3c1CN[C@@]31CCNC1)CNC2

>  <HIPPO Compound ID>  (1663) 
22105

>  <fragmenstein_runtime>  (1663) 
5.979944

$$$$
Cc1cc(C(=O)C(=O)c2ccc3c(c2)CNC3)c2[nH]c(C)c(C)c2c1
     RDKit          3D

 25 28  0  0  0  0  0  0  0  0999 V2000
  -10.2013    3.9462  -17.7303 C   0  0  0  0  0  0  0  0  0  0  0  0
   -8.9001    4.2738  -17.0850 C   0  0  0  0  0  0  0  0  0  0  0  0
   -8.7454    4.3486  -15.6971 C   0  0  0  0  0  0  0  0  0  0  0  0
   -7.5157    4.7124  -15.1345 C   0  0  0  0  0  0  0  0  0  0  0  0
   -7.2836    4.8262  -13.6743 C   0  0  0  0  0  0  0  0  0  0  0  0
   -6.5022    5.6636  -13.2371 O   0  0  0  0  0  0  0  0  0  0  0  0
   -7.9119    3.8196  -12.7481 C   0  0  0  0  0  0  0  0  0  0  0  0
   -8.1379    2.7117  -13.2156 O   0  0  0  0  0  0  0  0  0  0  0  0
   -8.1796    4.0408  -11.3164 C   0  0  0  0  0  0  0  0  0  0  0  0
   -8.0923    5.2911  -10.6827 C   0  0  0  0  0  0  0  0  0  0  0  0
   -8.3129    5.3957   -9.3019 C   0  0  0  0  0  0  0  0  0  0  0  0
   -8.6344    4.2486   -8.5922 C   0  0  0  0  0  0  0  0  0  0  0  0
   -8.7383    3.0166   -9.2231 C   0  0  0  0  0  0  0  0  0  0  0  0
   -8.5120    2.8940  -10.5745 C   0  0  0  0  0  0  0  0  0  0  0  0
   -9.0712    1.9606   -8.2262 C   0  0  0  0  0  0  0  0  0  0  0  0
   -9.5173    2.7096   -7.0239 N   0  0  0  0  0  0  0  0  0  0  0  0
   -8.8943    4.0505   -7.1355 C   0  0  0  0  0  0  0  0  0  0  0  0
   -6.4594    4.9776  -16.0168 C   0  0  0  0  0  0  0  0  0  0  0  0
   -5.1592    5.3250  -15.7564 N   0  0  0  0  0  0  0  0  0  0  0  0
   -4.4552    5.4654  -16.9223 C   0  0  0  0  0  0  0  0  0  0  0  0
   -3.0273    5.8274  -16.8797 C   0  0  0  0  0  0  0  0  0  0  0  0
   -5.3213    5.2283  -17.9754 C   0  0  0  0  0  0  0  0  0  0  0  0
   -5.0426    5.3086  -19.4338 C   0  0  0  0  0  0  0  0  0  0  0  0
   -6.5785    4.8853  -17.3975 C   0  0  0  0  0  0  0  0  0  0  0  0
   -7.8146    4.5131  -17.9355 C   0  0  0  0  0  0  0  0  0  0  0  0
  1  2  1  0
  2  3  2  0
  3  4  1  0
  4  5  1  0
  5  6  2  0
  5  7  1  0
  7  8  2  0
  7  9  1  0
  9 10  2  0
 10 11  1  0
 11 12  2  0
 12 13  1  0
 13 14  2  0
 13 15  1  0
 15 16  1  0
 16 17  1  0
  4 18  2  0
 18 19  1  0
 19 20  1  0
 20 21  1  0
 20 22  2  0
 22 23  1  0
 22 24  1  0
 24 25  2  0
 25  2  1  0
 14  9  1  0
 24 18  1  0
 17 12  1  0
M  END
>  <smiles>  (1664) 
C23777-P205

>  <fragmenstein_outcome>  (1664) 
acceptable

>  <inchikey>  (1664) 
ACUMOOLRTKENJJ-UHFFFAOYSA-N

>  <fragmenstein_mode>  (1664) 
expansion

>  <HIPPO Pose ID>  (1664) 
22511

>  <Energy>  (1664) 
107.664354

>  <fragmenstein_error>  (1664) 


>  <tags>  (1664) 
{'openbind_xx01zvns2b_c1_fragmenstein', 'fragmenstein_placed'}

>  <ref_pdb>  (1664) 
175

>  <scratch_subdir>  (1664) 
/opt/xchem-fragalysis-2/maxwin/BulkDock/SCRATCH/511028/C23777-P205

>  <alias>  (1664) 
Cc1cc(C(=O)C(=O)c2ccc3c(c2)CNC3)c2[nH]c(C)c(C)c2c1

>  <HIPPO Compound ID>  (1664) 
29611

>  <fragmenstein_runtime>  (1664) 
3.198478

$$$$
Cc1[nH]c2c(C(=O)C(=O)c3ccc4c(c3)CNC4)cccc2c1CO
     RDKit          3D

 25 28  0  0  0  0  0  0  0  0999 V2000
   -3.2619    5.9896  -17.1928 C   0  0  0  0  0  0  0  0  0  0  0  0
   -4.6782    5.5411  -17.1881 C   0  0  0  0  0  0  0  0  0  0  0  0
   -5.3484    5.3912  -16.0008 N   0  0  0  0  0  0  0  0  0  0  0  0
   -6.6337    4.9496  -16.2102 C   0  0  0  0  0  0  0  0  0  0  0  0
   -7.6460    4.6417  -15.2844 C   0  0  0  0  0  0  0  0  0  0  0  0
   -7.3793    4.8037  -13.8327 C   0  0  0  0  0  0  0  0  0  0  0  0
   -6.6205    5.6870  -13.4448 O   0  0  0  0  0  0  0  0  0  0  0  0
   -7.9279    3.8034  -12.8470 C   0  0  0  0  0  0  0  0  0  0  0  0
   -8.1329    2.6723  -13.2607 O   0  0  0  0  0  0  0  0  0  0  0  0
   -8.1674    4.0715  -11.4147 C   0  0  0  0  0  0  0  0  0  0  0  0
   -8.0455    5.3354  -10.8155 C   0  0  0  0  0  0  0  0  0  0  0  0
   -8.2205    5.4791   -9.4313 C   0  0  0  0  0  0  0  0  0  0  0  0
   -8.5189    4.3544   -8.6766 C   0  0  0  0  0  0  0  0  0  0  0  0
   -8.6768    3.1145   -9.2727 C   0  0  0  0  0  0  0  0  0  0  0  0
   -8.5082    2.9550  -10.6308 C   0  0  0  0  0  0  0  0  0  0  0  0
   -9.0380    2.0926   -8.2551 C   0  0  0  0  0  0  0  0  0  0  0  0
   -8.9028    2.7679   -6.9387 N   0  0  0  0  0  0  0  0  0  0  0  0
   -8.7349    4.2155   -7.2088 C   0  0  0  0  0  0  0  0  0  0  0  0
   -8.8672    4.1847  -15.7946 C   0  0  0  0  0  0  0  0  0  0  0  0
   -9.0608    4.0338  -17.1671 C   0  0  0  0  0  0  0  0  0  0  0  0
   -8.0315    4.3307  -18.0666 C   0  0  0  0  0  0  0  0  0  0  0  0
   -6.7904    4.8011  -17.5850 C   0  0  0  0  0  0  0  0  0  0  0  0
   -5.5512    5.1852  -18.2101 C   0  0  0  0  0  0  0  0  0  0  0  0
   -5.3231    5.1798  -19.6898 C   0  0  0  0  0  0  0  0  0  0  0  0
   -3.9472    5.0803  -20.0596 O   0  0  0  0  0  0  0  0  0  0  0  0
  1  2  1  0
  2  3  1  0
  3  4  1  0
  4  5  2  0
  5  6  1  0
  6  7  2  0
  6  8  1  0
  8  9  2  0
  8 10  1  0
 10 11  2  0
 11 12  1  0
 12 13  2  0
 13 14  1  0
 14 15  2  0
 14 16  1  0
 16 17  1  0
 17 18  1  0
  5 19  1  0
 19 20  2  0
 20 21  1  0
 21 22  2  0
 22 23  1  0
 23 24  1  0
 24 25  1  0
 23  2  2  0
 22  4  1  0
 15 10  1  0
 18 13  1  0
M  END
>  <smiles>  (1665) 
C23783-P205

>  <fragmenstein_outcome>  (1665) 
acceptable

>  <inchikey>  (1665) 
XHJPNHIQEDNSNH-UHFFFAOYSA-N

>  <fragmenstein_mode>  (1665) 
expansion

>  <HIPPO Pose ID>  (1665) 
22516

>  <Energy>  (1665) 
105.34046

>  <fragmenstein_error>  (1665) 


>  <tags>  (1665) 
{'openbind_xx01zvns2b_c1_fragmenstein', 'fragmenstein_placed'}

>  <ref_pdb>  (1665) 
175

>  <scratch_subdir>  (1665) 
/opt/xchem-fragalysis-2/maxwin/BulkDock/SCRATCH/511028/C23783-P205

>  <alias>  (1665) 
Cc1[nH]c2c(C(=O)C(=O)c3ccc4c(c3)CNC4)cccc2c1CO

>  <HIPPO Compound ID>  (1665) 
23783

>  <fragmenstein_runtime>  (1665) 
2.612198

$$$$
COCCO[C@]1(C)c2c(C(=O)Nc3ccc4c(c3)CNC4)cccc2[C@H](C)[C@H]1C
     RDKit          3D

 29 32  0  0  0  0  0  0  0  0999 V2000
   -4.1136    2.3696  -12.3234 C   0  0  0  0  0  0  0  0  0  0  0  0
   -3.1084    2.8921  -13.1848 O   0  0  0  0  0  0  0  0  0  0  0  0
   -2.9983    4.3188  -13.1348 C   0  0  0  0  0  0  0  0  0  0  0  0
   -4.1650    5.0687  -13.7925 C   0  0  0  0  0  0  0  0  0  0  0  0
   -4.1373    4.8708  -15.2028 O   0  0  0  0  0  0  0  0  0  0  0  0
   -4.9921    5.6704  -16.0234 C   0  0  2  0  0  0  0  0  0  0  0  0
   -4.9085    7.1727  -15.7090 C   0  0  0  0  0  0  0  0  0  0  0  0
   -6.4140    5.1396  -16.2133 C   0  0  0  0  0  0  0  0  0  0  0  0
   -7.4366    4.8651  -15.3007 C   0  0  0  0  0  0  0  0  0  0  0  0
   -7.4182    5.3130  -13.8847 C   0  0  0  0  0  0  0  0  0  0  0  0
   -7.1769    6.4319  -13.6568 O   0  0  0  0  0  0  0  0  0  0  0  0
   -7.7937    4.1555  -12.9324 N   0  0  0  0  0  0  0  0  0  0  0  0
   -8.0348    4.1545  -11.5607 C   0  0  0  0  0  0  0  0  0  0  0  0
   -7.9990    5.3461  -10.8187 C   0  0  0  0  0  0  0  0  0  0  0  0
   -8.2310    5.3388   -9.4398 C   0  0  0  0  0  0  0  0  0  0  0  0
   -8.4964    4.1282   -8.8264 C   0  0  0  0  0  0  0  0  0  0  0  0
   -8.5458    2.9506   -9.5594 C   0  0  0  0  0  0  0  0  0  0  0  0
   -8.3208    2.9429  -10.9277 C   0  0  0  0  0  0  0  0  0  0  0  0
   -8.8585    1.8106   -8.6531 C   0  0  0  0  0  0  0  0  0  0  0  0
   -8.9487    2.3728   -7.2788 N   0  0  0  0  0  0  0  0  0  0  0  0
   -8.7701    3.8380   -7.3923 C   0  0  0  0  0  0  0  0  0  0  0  0
   -8.6578    4.3307  -15.7600 C   0  0  0  0  0  0  0  0  0  0  0  0
   -8.8746    4.0977  -17.1186 C   0  0  0  0  0  0  0  0  0  0  0  0
   -7.8938    4.4407  -18.0413 C   0  0  0  0  0  0  0  0  0  0  0  0
   -6.6885    4.9715  -17.5893 C   0  0  0  0  0  0  0  0  0  0  0  0
   -5.5797    5.5535  -18.4250 C   0  0  2  0  0  0  0  0  0  0  0  0
   -5.3223    4.9443  -19.7874 C   0  0  0  0  0  0  0  0  0  0  0  0
   -4.4068    5.3797  -17.4552 C   0  0  1  0  0  0  0  0  0  0  0  0
   -3.1739    6.2042  -17.8368 C   0  0  0  0  0  0  0  0  0  0  0  0
  1  2  1  0
  2  3  1  0
  3  4  1  0
  4  5  1  0
  5  6  1  0
  6  7  1  1
  6  8  1  0
  8  9  2  0
  9 10  1  0
 10 11  2  0
 10 12  1  0
 12 13  1  0
 13 14  2  0
 14 15  1  0
 15 16  2  0
 16 17  1  0
 17 18  2  0
 17 19  1  0
 19 20  1  0
 20 21  1  0
  9 22  1  0
 22 23  2  0
 23 24  1  0
 24 25  2  0
 25 26  1  0
 26 27  1  6
 26 28  1  0
 28 29  1  6
 28  6  1  0
 25  8  1  0
 18 13  1  0
 21 16  1  0
M  END
>  <smiles>  (1666) 
C23849-P205

>  <fragmenstein_outcome>  (1666) 
acceptable

>  <inchikey>  (1666) 
XSROUEBLBDOXEA-UHFFFAOYSA-N

>  <fragmenstein_mode>  (1666) 
expansion

>  <HIPPO Pose ID>  (1666) 
22528

>  <Energy>  (1666) 
116.064648

>  <fragmenstein_error>  (1666) 


>  <tags>  (1666) 
{'openbind_xx01zvns2b_c1_fragmenstein', 'fragmenstein_placed'}

>  <ref_pdb>  (1666) 
175

>  <scratch_subdir>  (1666) 
/opt/xchem-fragalysis-2/maxwin/BulkDock/SCRATCH/511028/C23849-P205

>  <alias>  (1666) 
COCCO[C@]1(C)c2c(C(=O)Nc3ccc4c(c3)CNC4)cccc2[C@H](C)[C@H]1C

>  <HIPPO Compound ID>  (1666) 
23849

>  <fragmenstein_runtime>  (1666) 
11.534599

$$$$
Cc1[nH]c2c([C@@](O)(Nc3ccc4c(c3)CNC4)C(=O)NCCCF)cc(Cl)cc2c1C
     RDKit          3D

 31 34  0  0  0  0  0  0  0  0999 V2000
   -2.8542    6.4176  -16.5529 C   0  0  0  0  0  0  0  0  0  0  0  0
   -4.2295    5.8639  -16.6241 C   0  0  0  0  0  0  0  0  0  0  0  0
   -4.9797    5.6682  -15.4916 N   0  0  0  0  0  0  0  0  0  0  0  0
   -6.2096    5.1129  -15.7930 C   0  0  0  0  0  0  0  0  0  0  0  0
   -7.2885    4.7333  -14.9443 C   0  0  0  0  0  0  0  0  0  0  0  0
   -7.3217    4.9532  -13.4292 C   0  0  1  0  0  0  0  0  0  0  0  0
   -7.8824    6.2379  -13.3514 O   0  0  0  0  0  0  0  0  0  0  0  0
   -8.2943    4.1041  -12.7259 N   0  0  0  0  0  0  0  0  0  0  0  0
   -8.3387    4.0939  -11.3180 C   0  0  0  0  0  0  0  0  0  0  0  0
   -8.0675    5.2357  -10.5261 C   0  0  0  0  0  0  0  0  0  0  0  0
   -8.1850    5.2217   -9.1324 C   0  0  0  0  0  0  0  0  0  0  0  0
   -8.5623    4.0450   -8.5248 C   0  0  0  0  0  0  0  0  0  0  0  0
   -8.8058    2.9052   -9.2756 C   0  0  0  0  0  0  0  0  0  0  0  0
   -8.7256    2.9176  -10.6617 C   0  0  0  0  0  0  0  0  0  0  0  0
   -9.0845    1.7662   -8.3567 C   0  0  0  0  0  0  0  0  0  0  0  0
   -9.2697    2.3600   -7.0063 N   0  0  0  0  0  0  0  0  0  0  0  0
   -8.7631    3.7488   -7.0799 C   0  0  0  0  0  0  0  0  0  0  0  0
   -5.8393    4.7552  -12.7827 C   0  0  0  0  0  0  0  0  0  0  0  0
   -5.1444    5.6625  -12.5172 O   0  0  0  0  0  0  0  0  0  0  0  0
   -5.5972    3.2190  -12.6366 N   0  0  0  0  0  0  0  0  0  0  0  0
   -4.5002    2.4994  -12.0515 C   0  0  0  0  0  0  0  0  0  0  0  0
   -3.1564    2.8835  -12.6456 C   0  0  0  0  0  0  0  0  0  0  0  0
   -2.0787    1.9190  -12.1920 C   0  0  0  0  0  0  0  0  0  0  0  0
   -0.8952    2.2827  -12.7556 F   0  0  0  0  0  0  0  0  0  0  0  0
   -8.4586    4.3286  -15.6278 C   0  0  0  0  0  0  0  0  0  0  0  0
   -8.5194    4.2591  -17.0149 C   0  0  0  0  0  0  0  0  0  0  0  0
  -10.0072    3.8921  -17.7721 Cl  0  0  0  0  0  0  0  0  0  0  0  0
   -7.4245    4.5732  -17.8074 C   0  0  0  0  0  0  0  0  0  0  0  0
   -6.2503    5.0256  -17.1875 C   0  0  0  0  0  0  0  0  0  0  0  0
   -4.9966    5.4782  -17.7067 C   0  0  0  0  0  0  0  0  0  0  0  0
   -4.6164    5.5386  -19.1445 C   0  0  0  0  0  0  0  0  0  0  0  0
  1  2  1  0
  2  3  1  0
  3  4  1  0
  4  5  2  0
  5  6  1  0
  6  7  1  6
  6  8  1  0
  8  9  1  0
  9 10  2  0
 10 11  1  0
 11 12  2  0
 12 13  1  0
 13 14  2  0
 13 15  1  0
 15 16  1  0
 16 17  1  0
  6 18  1  0
 18 19  2  0
 18 20  1  0
 20 21  1  0
 21 22  1  0
 22 23  1  0
 23 24  1  0
  5 25  1  0
 25 26  2  0
 26 27  1  0
 26 28  1  0
 28 29  2  0
 29 30  1  0
 30 31  1  0
 30  2  2  0
 29  4  1  0
 14  9  1  0
 17 12  1  0
M  END
>  <smiles>  (1667) 
C23872-P205

>  <fragmenstein_outcome>  (1667) 
acceptable

>  <inchikey>  (1667) 
HQYIPYGLPYHLPF-UHFFFAOYSA-N

>  <fragmenstein_mode>  (1667) 
expansion

>  <HIPPO Pose ID>  (1667) 
22532

>  <Energy>  (1667) 
88.592732

>  <fragmenstein_error>  (1667) 


>  <tags>  (1667) 
{'openbind_xx01zvns2b_c1_fragmenstein', 'fragmenstein_placed'}

>  <ref_pdb>  (1667) 
175

>  <scratch_subdir>  (1667) 
/opt/xchem-fragalysis-2/maxwin/BulkDock/SCRATCH/511028/C23872-P205

>  <alias>  (1667) 
Cc1[nH]c2c([C@@](O)(Nc3ccc4c(c3)CNC4)C(=O)NCCCF)cc(Cl)cc2c1C

>  <HIPPO Compound ID>  (1667) 
23872

>  <fragmenstein_runtime>  (1667) 
5.825708

$$$$
C[C@H](Cl)C[C@@H]([C@@H]1C[C@@H](CNN)C[C@H](C)O1)[C@H](Nc1ccc2c(c1)CNC2)C(=O)NCC(F)F
     RDKit          3D

 33 35  0  0  0  0  0  0  0  0999 V2000
   -8.1305    3.6616  -18.1275 C   0  0  0  0  0  0  0  0  0  0  0  0
   -9.0608    3.7097  -16.9462 C   0  0  2  0  0  0  0  0  0  0  0  0
  -10.6544    4.1720  -17.5959 Cl  0  0  0  0  0  0  0  0  0  0  0  0
   -8.7730    4.6005  -15.7340 C   0  0  0  0  0  0  0  0  0  0  0  0
   -7.3677    4.6762  -15.1107 C   0  0  1  0  0  0  0  0  0  0  0  0
   -6.3536    5.7191  -15.7025 C   0  0  2  0  0  0  0  0  0  0  0  0
   -6.3522    6.0561  -17.1961 C   0  0  0  0  0  0  0  0  0  0  0  0
   -5.2012    5.4340  -17.9809 C   0  0  1  0  0  0  0  0  0  0  0  0
   -5.3652    5.7452  -19.4799 C   0  0  0  0  0  0  0  0  0  0  0  0
   -4.2152    5.3568  -20.3043 N   0  0  0  0  0  0  0  0  0  0  0  0
   -3.4527    6.5474  -20.6419 N   0  0  0  0  0  0  0  0  0  0  0  0
   -3.8810    5.8988  -17.3592 C   0  0  0  0  0  0  0  0  0  0  0  0
   -3.9865    6.1089  -15.8440 C   0  0  2  0  0  0  0  0  0  0  0  0
   -2.6893    5.7450  -15.1362 C   0  0  0  0  0  0  0  0  0  0  0  0
   -5.0361    5.3173  -15.2811 O   0  0  0  0  0  0  0  0  0  0  0  0
   -7.4768    4.9940  -13.5644 C   0  0  2  0  0  0  0  0  0  0  0  0
   -7.9915    3.8371  -12.7938 N   0  0  0  0  0  0  0  0  0  0  0  0
   -8.0560    3.8970  -11.3889 C   0  0  0  0  0  0  0  0  0  0  0  0
   -7.4638    4.9126  -10.6109 C   0  0  0  0  0  0  0  0  0  0  0  0
   -7.5952    4.9681   -9.2185 C   0  0  0  0  0  0  0  0  0  0  0  0
   -8.2484    3.9357   -8.5892 C   0  0  0  0  0  0  0  0  0  0  0  0
   -8.7390    2.8650   -9.3181 C   0  0  0  0  0  0  0  0  0  0  0  0
   -8.6610    2.8341  -10.7047 C   0  0  0  0  0  0  0  0  0  0  0  0
   -9.3507    1.8819   -8.3834 C   0  0  0  0  0  0  0  0  0  0  0  0
   -9.0300    2.3523   -7.0091 N   0  0  0  0  0  0  0  0  0  0  0  0
   -8.5646    3.7488   -7.1480 C   0  0  0  0  0  0  0  0  0  0  0  0
   -8.3860    6.2738  -13.3231 C   0  0  0  0  0  0  0  0  0  0  0  0
   -9.5475    6.2535  -13.4701 O   0  0  0  0  0  0  0  0  0  0  0  0
   -7.4493    7.4233  -12.8427 N   0  0  0  0  0  0  0  0  0  0  0  0
   -7.7416    8.8088  -12.5371 C   0  0  0  0  0  0  0  0  0  0  0  0
   -6.6919    9.7814  -13.0589 C   0  0  0  0  0  0  0  0  0  0  0  0
   -5.4645    9.4249  -12.5982 F   0  0  0  0  0  0  0  0  0  0  0  0
   -6.6253    9.7223  -14.4143 F   0  0  0  0  0  0  0  0  0  0  0  0
  2  1  1  6
  2  3  1  0
  2  4  1  0
  5  4  1  6
  5  6  1  0
  6  7  1  6
  7  8  1  0
  8  9  1  6
  9 10  1  0
 10 11  1  0
  8 12  1  0
 12 13  1  0
 13 14  1  1
 13 15  1  0
  5 16  1  0
 16 17  1  1
 17 18  1  0
 18 19  2  0
 19 20  1  0
 20 21  2  0
 21 22  1  0
 22 23  2  0
 22 24  1  0
 24 25  1  0
 25 26  1  0
 16 27  1  0
 27 28  2  0
 27 29  1  0
 29 30  1  0
 30 31  1  0
 31 32  1  0
 31 33  1  0
 15  6  1  0
 23 18  1  0
 26 21  1  0
M  END
>  <smiles>  (1668) 
C23935-P206

>  <fragmenstein_outcome>  (1668) 
acceptable

>  <inchikey>  (1668) 
DAPNGQSPWZKGJH-UHFFFAOYSA-N

>  <fragmenstein_mode>  (1668) 
expansion

>  <HIPPO Pose ID>  (1668) 
22554

>  <Energy>  (1668) 
180.989091

>  <fragmenstein_error>  (1668) 


>  <tags>  (1668) 
{'openbind_xx01zvns2b_c1_fragmenstein', 'fragmenstein_placed'}

>  <ref_pdb>  (1668) 
175

>  <scratch_subdir>  (1668) 
/opt/xchem-fragalysis-2/maxwin/BulkDock/SCRATCH/511028/C23935-P206

>  <alias>  (1668) 
C[C@H](Cl)C[C@@H]([C@@H]1C[C@@H](CNN)C[C@H](C)O1)[C@H](Nc1ccc2c(c1)CNC2)C(=O)NCC(F)F

>  <HIPPO Compound ID>  (1668) 
21938

>  <fragmenstein_runtime>  (1668) 
7.13608

$$$$
C[C@H](Cl)C[C@H]([C@H](Nc1ccc2c(c1)CNC2)C(=O)NCC(F)F)[C@H]1C[C@@H](CNN)C[C@H](C)O1
     RDKit          3D

 33 35  0  0  0  0  0  0  0  0999 V2000
   -8.3586    4.2673  -18.4804 C   0  0  0  0  0  0  0  0  0  0  0  0
   -9.2164    4.0782  -17.2492 C   0  0  2  0  0  0  0  0  0  0  0  0
  -10.8526    4.5472  -17.7764 Cl  0  0  0  0  0  0  0  0  0  0  0  0
   -8.8739    4.8142  -15.9356 C   0  0  0  0  0  0  0  0  0  0  0  0
   -7.5571    4.4693  -15.1913 C   0  0  1  0  0  0  0  0  0  0  0  0
   -6.2659    4.7719  -15.9901 C   0  0  1  0  0  0  0  0  0  0  0  0
   -6.2106    5.9736  -16.9303 C   0  0  0  0  0  0  0  0  0  0  0  0
   -5.1517    5.5969  -17.9870 C   0  0  1  0  0  0  0  0  0  0  0  0
   -4.9926    6.6707  -19.0558 C   0  0  0  0  0  0  0  0  0  0  0  0
   -4.1796    6.1710  -20.1808 N   0  0  0  0  0  0  0  0  0  0  0  0
   -3.9018    7.2990  -21.0388 N   0  0  0  0  0  0  0  0  0  0  0  0
   -3.8393    5.1928  -17.2887 C   0  0  0  0  0  0  0  0  0  0  0  0
   -3.9112    5.3196  -15.7611 C   0  0  2  0  0  0  0  0  0  0  0  0
   -2.7126    4.6672  -15.0867 C   0  0  0  0  0  0  0  0  0  0  0  0
   -5.0942    4.7561  -15.1608 O   0  0  0  0  0  0  0  0  0  0  0  0
   -7.5195    4.9931  -13.7208 C   0  0  2  0  0  0  0  0  0  0  0  0
   -8.5876    4.3362  -12.9105 N   0  0  0  0  0  0  0  0  0  0  0  0
   -8.4593    4.3138  -11.5088 C   0  0  0  0  0  0  0  0  0  0  0  0
   -8.1924    5.4720  -10.7541 C   0  0  0  0  0  0  0  0  0  0  0  0
   -8.1496    5.4535   -9.3536 C   0  0  0  0  0  0  0  0  0  0  0  0
   -8.3678    4.2565   -8.7039 C   0  0  0  0  0  0  0  0  0  0  0  0
   -8.6164    3.0991   -9.4207 C   0  0  0  0  0  0  0  0  0  0  0  0
   -8.6792    3.1157  -10.8102 C   0  0  0  0  0  0  0  0  0  0  0  0
   -8.8081    1.9633   -8.4735 C   0  0  0  0  0  0  0  0  0  0  0  0
   -8.6094    2.5128   -7.1048 N   0  0  0  0  0  0  0  0  0  0  0  0
   -8.4437    3.9742   -7.2451 C   0  0  0  0  0  0  0  0  0  0  0  0
   -7.6541    6.5512  -13.6870 C   0  0  0  0  0  0  0  0  0  0  0  0
   -8.6914    7.0887  -13.7083 O   0  0  0  0  0  0  0  0  0  0  0  0
   -6.2197    7.1364  -13.5636 N   0  0  0  0  0  0  0  0  0  0  0  0
   -5.7753    8.4971  -13.3452 C   0  0  0  0  0  0  0  0  0  0  0  0
   -4.4683    8.8640  -14.0334 C   0  0  0  0  0  0  0  0  0  0  0  0
   -3.4894    7.9955  -13.6710 F   0  0  0  0  0  0  0  0  0  0  0  0
   -4.5951    8.7726  -15.3813 F   0  0  0  0  0  0  0  0  0  0  0  0
  2  1  1  6
  2  3  1  0
  2  4  1  0
  5  4  1  6
  5  6  1  0
  6  7  1  1
  7  8  1  0
  8  9  1  6
  9 10  1  0
 10 11  1  0
  8 12  1  0
 12 13  1  0
 13 14  1  1
 13 15  1  0
  5 16  1  0
 16 17  1  1
 17 18  1  0
 18 19  2  0
 19 20  1  0
 20 21  2  0
 21 22  1  0
 22 23  2  0
 22 24  1  0
 24 25  1  0
 25 26  1  0
 16 27  1  0
 27 28  2  0
 27 29  1  0
 29 30  1  0
 30 31  1  0
 31 32  1  0
 31 33  1  0
 15  6  1  0
 23 18  1  0
 26 21  1  0
M  END
>  <smiles>  (1669) 
C23935-P13

>  <fragmenstein_outcome>  (1669) 
acceptable

>  <inchikey>  (1669) 
BVESVRZQEIUIHS-UHFFFAOYSA-N

>  <fragmenstein_mode>  (1669) 
expansion

>  <HIPPO Pose ID>  (1669) 
22555

>  <Energy>  (1669) 
176.586126

>  <fragmenstein_error>  (1669) 


>  <tags>  (1669) 
{'openbind_xx01zvns2b_c1_fragmenstein', 'fragmenstein_placed'}

>  <ref_pdb>  (1669) 
175

>  <scratch_subdir>  (1669) 
/opt/xchem-fragalysis-2/maxwin/BulkDock/SCRATCH/511028/C23935-P13

>  <alias>  (1669) 
C[C@H](Cl)C[C@H]([C@H](Nc1ccc2c(c1)CNC2)C(=O)NCC(F)F)[C@H]1C[C@@H](CNN)C[C@H](C)O1

>  <HIPPO Compound ID>  (1669) 
23935

>  <fragmenstein_runtime>  (1669) 
8.1802

$$$$
CC1(C)Oc2c([C@@H](Nc3ccc4c(c3)CNC4)C(=O)NCC(F)F)cc(Cl)c3ccnc1c23
     RDKit          3D

 33 37  0  0  0  0  0  0  0  0999 V2000
   -3.9507    7.4203  -16.8380 C   0  0  0  0  0  0  0  0  0  0  0  0
   -4.1984    5.9483  -16.5548 C   0  0  0  0  0  0  0  0  0  0  0  0
   -2.8668    5.2321  -16.3735 C   0  0  0  0  0  0  0  0  0  0  0  0
   -4.9660    5.8204  -15.3018 O   0  0  0  0  0  0  0  0  0  0  0  0
   -6.1664    5.2492  -15.6559 C   0  0  0  0  0  0  0  0  0  0  0  0
   -7.2267    4.9324  -14.8218 C   0  0  0  0  0  0  0  0  0  0  0  0
   -7.2043    5.1470  -13.3160 C   0  0  1  0  0  0  0  0  0  0  0  0
   -8.0746    4.1358  -12.6698 N   0  0  0  0  0  0  0  0  0  0  0  0
   -8.2205    4.1013  -11.2815 C   0  0  0  0  0  0  0  0  0  0  0  0
   -8.0961    5.2486  -10.4705 C   0  0  0  0  0  0  0  0  0  0  0  0
   -8.2663    5.1928   -9.0825 C   0  0  0  0  0  0  0  0  0  0  0  0
   -8.6028    3.9810   -8.5178 C   0  0  0  0  0  0  0  0  0  0  0  0
   -8.7494    2.8443   -9.3030 C   0  0  0  0  0  0  0  0  0  0  0  0
   -8.5686    2.8868  -10.6742 C   0  0  0  0  0  0  0  0  0  0  0  0
   -9.1097    1.6930   -8.4256 C   0  0  0  0  0  0  0  0  0  0  0  0
   -9.5765    2.3150   -7.1596 N   0  0  0  0  0  0  0  0  0  0  0  0
   -8.8935    3.6274   -7.0978 C   0  0  0  0  0  0  0  0  0  0  0  0
   -5.7661    5.1685  -12.6608 C   0  0  0  0  0  0  0  0  0  0  0  0
   -5.2586    6.1735  -12.3382 O   0  0  0  0  0  0  0  0  0  0  0  0
   -5.2985    3.6955  -12.4693 N   0  0  0  0  0  0  0  0  0  0  0  0
   -4.0691    3.1649  -11.9279 C   0  0  0  0  0  0  0  0  0  0  0  0
   -4.1787    2.7609  -10.4592 C   0  0  0  0  0  0  0  0  0  0  0  0
   -2.9270    2.6177   -9.9398 F   0  0  0  0  0  0  0  0  0  0  0  0
   -4.7572    1.5346  -10.3592 F   0  0  0  0  0  0  0  0  0  0  0  0
   -8.4110    4.4701  -15.4597 C   0  0  0  0  0  0  0  0  0  0  0  0
   -8.4738    4.2529  -16.8490 C   0  0  0  0  0  0  0  0  0  0  0  0
   -9.9700    3.8253  -17.5483 Cl  0  0  0  0  0  0  0  0  0  0  0  0
   -7.3482    4.4817  -17.6562 C   0  0  0  0  0  0  0  0  0  0  0  0
   -7.1556    4.2965  -19.0331 C   0  0  0  0  0  0  0  0  0  0  0  0
   -5.9534    4.7193  -19.6142 C   0  0  0  0  0  0  0  0  0  0  0  0
   -4.9117    5.2586  -18.9259 N   0  0  0  0  0  0  0  0  0  0  0  0
   -5.1077    5.3589  -17.6002 C   0  0  0  0  0  0  0  0  0  0  0  0
   -6.2585    5.0018  -16.9898 C   0  0  0  0  0  0  0  0  0  0  0  0
  1  2  1  0
  2  3  1  0
  2  4  1  0
  4  5  1  0
  5  6  2  0
  6  7  1  0
  7  8  1  1
  8  9  1  0
  9 10  2  0
 10 11  1  0
 11 12  2  0
 12 13  1  0
 13 14  2  0
 13 15  1  0
 15 16  1  0
 16 17  1  0
  7 18  1  0
 18 19  2  0
 18 20  1  0
 20 21  1  0
 21 22  1  0
 22 23  1  0
 22 24  1  0
  6 25  1  0
 25 26  2  0
 26 27  1  0
 26 28  1  0
 28 29  2  0
 29 30  1  0
 30 31  2  0
 31 32  1  0
 32 33  2  0
 32  2  1  0
 33  5  1  0
 14  9  1  0
 33 28  1  0
 17 12  1  0
M  END
>  <smiles>  (1670) 
C23947-P206

>  <fragmenstein_outcome>  (1670) 
acceptable

>  <inchikey>  (1670) 
HTVMSHYRFMFYJC-UHFFFAOYSA-N

>  <fragmenstein_mode>  (1670) 
expansion

>  <HIPPO Pose ID>  (1670) 
22558

>  <Energy>  (1670) 
167.384622

>  <fragmenstein_error>  (1670) 


>  <tags>  (1670) 
{'openbind_xx01zvns2b_c1_fragmenstein', 'fragmenstein_placed'}

>  <ref_pdb>  (1670) 
175

>  <scratch_subdir>  (1670) 
/opt/xchem-fragalysis-2/maxwin/BulkDock/SCRATCH/511028/C23947-P206

>  <alias>  (1670) 
CC1(C)Oc2c([C@@H](Nc3ccc4c(c3)CNC4)C(=O)NCC(F)F)cc(Cl)c3ccnc1c23

>  <HIPPO Compound ID>  (1670) 
23947

>  <fragmenstein_runtime>  (1670) 
8.814405

$$$$
CC1(C)Oc2c([C@H](Nc3ccc4c(c3)CNC4)C(=O)NCC(F)F)cc(Cl)c3cccc1c23
     RDKit          3D

 33 37  0  0  0  0  0  0  0  0999 V2000
   -2.9252    5.5606  -16.4222 C   0  0  0  0  0  0  0  0  0  0  0  0
   -4.3350    6.1275  -16.5029 C   0  0  0  0  0  0  0  0  0  0  0  0
   -4.2848    7.6527  -16.6286 C   0  0  0  0  0  0  0  0  0  0  0  0
   -5.0526    5.7875  -15.2646 O   0  0  0  0  0  0  0  0  0  0  0  0
   -6.2470    5.2391  -15.6804 C   0  0  0  0  0  0  0  0  0  0  0  0
   -7.3077    4.8682  -14.8636 C   0  0  0  0  0  0  0  0  0  0  0  0
   -7.1727    4.9746  -13.3515 C   0  0  2  0  0  0  0  0  0  0  0  0
   -8.3643    4.3883  -12.6796 N   0  0  0  0  0  0  0  0  0  0  0  0
   -8.3518    4.2634  -11.2785 C   0  0  0  0  0  0  0  0  0  0  0  0
   -8.2489    5.3833  -10.4324 C   0  0  0  0  0  0  0  0  0  0  0  0
   -8.3091    5.2665   -9.0402 C   0  0  0  0  0  0  0  0  0  0  0  0
   -8.5260    4.0161   -8.4994 C   0  0  0  0  0  0  0  0  0  0  0  0
   -8.6535    2.9018   -9.3135 C   0  0  0  0  0  0  0  0  0  0  0  0
   -8.5578    3.0033  -10.6942 C   0  0  0  0  0  0  0  0  0  0  0  0
   -8.9291    1.7018   -8.4737 C   0  0  0  0  0  0  0  0  0  0  0  0
   -9.1029    2.1968   -7.0832 N   0  0  0  0  0  0  0  0  0  0  0  0
   -8.7239    3.6246   -7.0771 C   0  0  0  0  0  0  0  0  0  0  0  0
   -6.9021    6.4799  -12.9607 C   0  0  0  0  0  0  0  0  0  0  0  0
   -7.5601    7.3652  -13.3550 O   0  0  0  0  0  0  0  0  0  0  0  0
   -5.6415    6.4895  -12.0389 N   0  0  0  0  0  0  0  0  0  0  0  0
   -4.9971    7.5796  -11.3426 C   0  0  0  0  0  0  0  0  0  0  0  0
   -3.5792    7.8609  -11.8285 C   0  0  0  0  0  0  0  0  0  0  0  0
   -3.5663    8.1693  -13.1487 F   0  0  0  0  0  0  0  0  0  0  0  0
   -2.8087    6.7515  -11.6773 F   0  0  0  0  0  0  0  0  0  0  0  0
   -8.4742    4.4097  -15.5116 C   0  0  0  0  0  0  0  0  0  0  0  0
   -8.5114    4.2299  -16.9047 C   0  0  0  0  0  0  0  0  0  0  0  0
   -9.9961    3.7967  -17.6196 Cl  0  0  0  0  0  0  0  0  0  0  0  0
   -7.3799    4.4938  -17.6984 C   0  0  0  0  0  0  0  0  0  0  0  0
   -7.1612    4.2899  -19.0709 C   0  0  0  0  0  0  0  0  0  0  0  0
   -5.9637    4.7233  -19.6831 C   0  0  0  0  0  0  0  0  0  0  0  0
   -4.9637    5.3626  -18.9450 C   0  0  0  0  0  0  0  0  0  0  0  0
   -5.1600    5.5102  -17.5857 C   0  0  0  0  0  0  0  0  0  0  0  0
   -6.3127    5.0582  -17.0241 C   0  0  0  0  0  0  0  0  0  0  0  0
  1  2  1  0
  2  3  1  0
  2  4  1  0
  4  5  1  0
  5  6  2  0
  6  7  1  0
  7  8  1  1
  8  9  1  0
  9 10  2  0
 10 11  1  0
 11 12  2  0
 12 13  1  0
 13 14  2  0
 13 15  1  0
 15 16  1  0
 16 17  1  0
  7 18  1  0
 18 19  2  0
 18 20  1  0
 20 21  1  0
 21 22  1  0
 22 23  1  0
 22 24  1  0
  6 25  1  0
 25 26  2  0
 26 27  1  0
 26 28  1  0
 28 29  2  0
 29 30  1  0
 30 31  2  0
 31 32  1  0
 32 33  2  0
 32  2  1  0
 33  5  1  0
 14  9  1  0
 33 28  1  0
 17 12  1  0
M  END
>  <smiles>  (1671) 
C23985-P206

>  <fragmenstein_outcome>  (1671) 
acceptable

>  <inchikey>  (1671) 
XXVZHYDHLIAPID-UHFFFAOYSA-N

>  <fragmenstein_mode>  (1671) 
expansion

>  <HIPPO Pose ID>  (1671) 
22587

>  <Energy>  (1671) 
171.99552

>  <fragmenstein_error>  (1671) 


>  <tags>  (1671) 
{'openbind_xx01zvns2b_c1_fragmenstein', 'fragmenstein_placed'}

>  <ref_pdb>  (1671) 
175

>  <scratch_subdir>  (1671) 
/opt/xchem-fragalysis-2/maxwin/BulkDock/SCRATCH/511028/C23985-P206

>  <alias>  (1671) 
CC1(C)Oc2c([C@H](Nc3ccc4c(c3)CNC4)C(=O)NCC(F)F)cc(Cl)c3cccc1c23

>  <HIPPO Compound ID>  (1671) 
23985

>  <fragmenstein_runtime>  (1671) 
4.968017

$$$$
Cc1nc2c([C@@H](Nc3ccc4c(c3)CNC4)C(=O)NCC(F)F)cc(Cl)cc2c(CO)c1C
     RDKit          3D

 33 36  0  0  0  0  0  0  0  0999 V2000
   -2.7187    6.1784  -15.8997 C   0  0  0  0  0  0  0  0  0  0  0  0
   -4.0010    5.7592  -16.5447 C   0  0  0  0  0  0  0  0  0  0  0  0
   -5.0125    5.4974  -15.6828 N   0  0  0  0  0  0  0  0  0  0  0  0
   -6.2108    5.1124  -16.1203 C   0  0  0  0  0  0  0  0  0  0  0  0
   -7.2535    4.8841  -15.2010 C   0  0  0  0  0  0  0  0  0  0  0  0
   -7.1594    5.1650  -13.6900 C   0  0  1  0  0  0  0  0  0  0  0  0
   -7.7832    4.0398  -12.9454 N   0  0  0  0  0  0  0  0  0  0  0  0
   -8.0038    4.0707  -11.5673 C   0  0  0  0  0  0  0  0  0  0  0  0
   -7.9684    5.2537  -10.8007 C   0  0  0  0  0  0  0  0  0  0  0  0
   -8.1982    5.2498   -9.4175 C   0  0  0  0  0  0  0  0  0  0  0  0
   -8.5200    4.0538   -8.8117 C   0  0  0  0  0  0  0  0  0  0  0  0
   -8.6167    2.8855   -9.5550 C   0  0  0  0  0  0  0  0  0  0  0  0
   -8.3670    2.8783  -10.9194 C   0  0  0  0  0  0  0  0  0  0  0  0
   -8.9948    1.7632   -8.6447 C   0  0  0  0  0  0  0  0  0  0  0  0
   -9.4790    2.4223   -7.4015 N   0  0  0  0  0  0  0  0  0  0  0  0
   -8.8127    3.7446   -7.3825 C   0  0  0  0  0  0  0  0  0  0  0  0
   -5.7521    5.5677  -13.1165 C   0  0  0  0  0  0  0  0  0  0  0  0
   -5.4306    6.6905  -13.0210 O   0  0  0  0  0  0  0  0  0  0  0  0
   -4.9940    4.2649  -12.7265 N   0  0  0  0  0  0  0  0  0  0  0  0
   -3.6526    4.0746  -12.2297 C   0  0  0  0  0  0  0  0  0  0  0  0
   -3.5686    3.7621  -10.7388 C   0  0  0  0  0  0  0  0  0  0  0  0
   -4.1928    4.7046   -9.9957 F   0  0  0  0  0  0  0  0  0  0  0  0
   -4.1601    2.5705  -10.4717 F   0  0  0  0  0  0  0  0  0  0  0  0
   -8.5087    4.4675  -15.6848 C   0  0  0  0  0  0  0  0  0  0  0  0
   -8.7118    4.2959  -17.0404 C   0  0  0  0  0  0  0  0  0  0  0  0
  -10.2590    3.9316  -17.6329 Cl  0  0  0  0  0  0  0  0  0  0  0  0
   -7.6915    4.5209  -17.9462 C   0  0  0  0  0  0  0  0  0  0  0  0
   -6.4231    4.9325  -17.5121 C   0  0  0  0  0  0  0  0  0  0  0  0
   -5.3480    5.1870  -18.4169 C   0  0  0  0  0  0  0  0  0  0  0  0
   -5.5003    5.0032  -19.9032 C   0  0  0  0  0  0  0  0  0  0  0  0
   -5.9321    6.2303  -20.4602 O   0  0  0  0  0  0  0  0  0  0  0  0
   -4.1192    5.6509  -17.9237 C   0  0  0  0  0  0  0  0  0  0  0  0
   -2.9612    5.9605  -18.8370 C   0  0  0  0  0  0  0  0  0  0  0  0
  1  2  1  0
  2  3  2  0
  3  4  1  0
  4  5  2  0
  5  6  1  0
  6  7  1  1
  7  8  1  0
  8  9  2  0
  9 10  1  0
 10 11  2  0
 11 12  1  0
 12 13  2  0
 12 14  1  0
 14 15  1  0
 15 16  1  0
  6 17  1  0
 17 18  2  0
 17 19  1  0
 19 20  1  0
 20 21  1  0
 21 22  1  0
 21 23  1  0
  5 24  1  0
 24 25  2  0
 25 26  1  0
 25 27  1  0
 27 28  2  0
 28 29  1  0
 29 30  1  0
 30 31  1  0
 29 32  2  0
 32 33  1  0
 32  2  1  0
 28  4  1  0
 13  8  1  0
 16 11  1  0
M  END
>  <smiles>  (1672) 
C23993-P206

>  <fragmenstein_outcome>  (1672) 
acceptable

>  <inchikey>  (1672) 
GANFMBVJGKBIOO-UHFFFAOYSA-N

>  <fragmenstein_mode>  (1672) 
expansion

>  <HIPPO Pose ID>  (1672) 
22593

>  <Energy>  (1672) 
140.732482

>  <fragmenstein_error>  (1672) 


>  <tags>  (1672) 
{'openbind_xx01zvns2b_c1_fragmenstein', 'fragmenstein_placed'}

>  <ref_pdb>  (1672) 
175

>  <scratch_subdir>  (1672) 
/opt/xchem-fragalysis-2/maxwin/BulkDock/SCRATCH/511028/C23993-P206

>  <alias>  (1672) 
Cc1nc2c([C@@H](Nc3ccc4c(c3)CNC4)C(=O)NCC(F)F)cc(Cl)cc2c(CO)c1C

>  <HIPPO Compound ID>  (1672) 
23993

>  <fragmenstein_runtime>  (1672) 
8.584331

$$$$
Cc1cc2c(cc1N[C@@H](C(=O)NCC(F)F)c1cc(Cl)cc3c1O[C@H](C)C=C3NC(C)(C)CO)CNC2
     RDKit          3D

 37 40  0  0  0  0  0  0  0  0999 V2000
   -8.1697    6.8488  -11.2667 C   0  0  0  0  0  0  0  0  0  0  0  0
   -8.2157    5.4426  -10.7330 C   0  0  0  0  0  0  0  0  0  0  0  0
   -8.3158    5.3248   -9.3272 C   0  0  0  0  0  0  0  0  0  0  0  0
   -8.5428    4.0869   -8.7633 C   0  0  0  0  0  0  0  0  0  0  0  0
   -8.6360    2.9562   -9.5549 C   0  0  0  0  0  0  0  0  0  0  0  0
   -8.4683    3.0328  -10.9276 C   0  0  0  0  0  0  0  0  0  0  0  0
   -8.2273    4.2804  -11.5502 C   0  0  0  0  0  0  0  0  0  0  0  0
   -8.0921    4.2676  -12.9483 N   0  0  0  0  0  0  0  0  0  0  0  0
   -7.1291    5.1442  -13.6776 C   0  0  1  0  0  0  0  0  0  0  0  0
   -5.6977    5.1467  -13.0021 C   0  0  0  0  0  0  0  0  0  0  0  0
   -5.1049    6.1453  -12.8510 O   0  0  0  0  0  0  0  0  0  0  0  0
   -5.3291    3.6876  -12.6108 N   0  0  0  0  0  0  0  0  0  0  0  0
   -4.1998    3.1710  -11.8690 C   0  0  0  0  0  0  0  0  0  0  0  0
   -4.1512    1.6615  -11.6746 C   0  0  0  0  0  0  0  0  0  0  0  0
   -5.1355    1.2587  -10.8347 F   0  0  0  0  0  0  0  0  0  0  0  0
   -2.9729    1.3316  -11.0806 F   0  0  0  0  0  0  0  0  0  0  0  0
   -7.1871    4.8551  -15.1934 C   0  0  0  0  0  0  0  0  0  0  0  0
   -8.3890    4.4137  -15.7557 C   0  0  0  0  0  0  0  0  0  0  0  0
   -8.5217    4.2647  -17.1327 C   0  0  0  0  0  0  0  0  0  0  0  0
  -10.0719    3.9026  -17.7300 Cl  0  0  0  0  0  0  0  0  0  0  0  0
   -7.4727    4.5247  -18.0101 C   0  0  0  0  0  0  0  0  0  0  0  0
   -6.2641    5.0123  -17.5125 C   0  0  0  0  0  0  0  0  0  0  0  0
   -6.1533    5.1731  -16.1019 C   0  0  0  0  0  0  0  0  0  0  0  0
   -5.0472    5.7546  -15.5555 O   0  0  0  0  0  0  0  0  0  0  0  0
   -3.8219    5.5496  -16.2478 C   0  0  2  0  0  0  0  0  0  0  0  0
   -2.8789    6.6462  -15.7698 C   0  0  0  0  0  0  0  0  0  0  0  0
   -3.9658    5.5912  -17.7333 C   0  0  0  0  0  0  0  0  0  0  0  0
   -5.1180    5.3986  -18.3907 C   0  0  0  0  0  0  0  0  0  0  0  0
   -5.2670    5.5022  -19.7708 N   0  0  0  0  0  0  0  0  0  0  0  0
   -4.4129    6.2282  -20.7443 C   0  0  0  0  0  0  0  0  0  0  0  0
   -3.0909    5.4738  -20.9734 C   0  0  0  0  0  0  0  0  0  0  0  0
   -4.1478    7.6730  -20.2841 C   0  0  0  0  0  0  0  0  0  0  0  0
   -5.1681    6.3367  -22.1053 C   0  0  0  0  0  0  0  0  0  0  0  0
   -5.6202    5.0880  -22.6068 O   0  0  0  0  0  0  0  0  0  0  0  0
   -8.9420    1.7810   -8.6851 C   0  0  0  0  0  0  0  0  0  0  0  0
   -9.4091    2.3701   -7.4004 N   0  0  0  0  0  0  0  0  0  0  0  0
   -8.7783    3.7077   -7.3404 C   0  0  0  0  0  0  0  0  0  0  0  0
  1  2  1  0
  2  3  2  0
  3  4  1  0
  4  5  2  0
  5  6  1  0
  6  7  2  0
  7  8  1  0
  9  8  1  1
  9 10  1  0
 10 11  2  0
 10 12  1  0
 12 13  1  0
 13 14  1  0
 14 15  1  0
 14 16  1  0
  9 17  1  0
 17 18  2  0
 18 19  1  0
 19 20  1  0
 19 21  2  0
 21 22  1  0
 22 23  2  0
 23 24  1  0
 24 25  1  0
 25 26  1  1
 25 27  1  0
 27 28  2  0
 28 29  1  0
 29 30  1  0
 30 31  1  0
 30 32  1  0
 30 33  1  0
 33 34  1  0
  5 35  1  0
 35 36  1  0
 36 37  1  0
  7  2  1  0
 23 17  1  0
 37  4  1  0
 28 22  1  0
M  END
>  <smiles>  (1673) 
C24002-P206

>  <fragmenstein_outcome>  (1673) 
acceptable

>  <inchikey>  (1673) 
DJMWSOQZFOTBAU-UHFFFAOYSA-N

>  <fragmenstein_mode>  (1673) 
expansion

>  <HIPPO Pose ID>  (1673) 
22599

>  <Energy>  (1673) 
175.041932

>  <fragmenstein_error>  (1673) 


>  <tags>  (1673) 
{'openbind_xx01zvns2b_c1_fragmenstein', 'fragmenstein_placed'}

>  <ref_pdb>  (1673) 
175

>  <scratch_subdir>  (1673) 
/opt/xchem-fragalysis-2/maxwin/BulkDock/SCRATCH/511028/C24002-P206

>  <alias>  (1673) 
Cc1cc2c(cc1N[C@@H](C(=O)NCC(F)F)c1cc(Cl)cc3c1O[C@H](C)C=C3NC(C)(C)CO)CNC2

>  <HIPPO Compound ID>  (1673) 
24002

>  <fragmenstein_runtime>  (1673) 
10.15192

$$$$
CCc1n[nH]c2cc(Cl)cc([C@@H](Nc3ccc4c(c3)CNC4)C(=O)N[C@H]3CCOCC3(F)F)c12
     RDKit          3D

 34 38  0  0  0  0  0  0  0  0999 V2000
   -2.3547    5.9360  -16.2828 C   0  0  0  0  0  0  0  0  0  0  0  0
   -3.7556    5.8704  -15.6821 C   0  0  0  0  0  0  0  0  0  0  0  0
   -4.8552    5.5314  -16.6329 C   0  0  0  0  0  0  0  0  0  0  0  0
   -4.5579    5.6200  -17.9355 N   0  0  0  0  0  0  0  0  0  0  0  0
   -5.6501    5.1993  -18.5516 N   0  0  0  0  0  0  0  0  0  0  0  0
   -6.6696    4.8738  -17.7203 C   0  0  0  0  0  0  0  0  0  0  0  0
   -7.9292    4.4276  -18.0875 C   0  0  0  0  0  0  0  0  0  0  0  0
   -8.8410    4.2754  -17.0740 C   0  0  0  0  0  0  0  0  0  0  0  0
  -10.4637    4.0096  -17.5083 Cl  0  0  0  0  0  0  0  0  0  0  0  0
   -8.4799    4.4827  -15.7512 C   0  0  0  0  0  0  0  0  0  0  0  0
   -7.1627    4.8890  -15.3428 C   0  0  0  0  0  0  0  0  0  0  0  0
   -7.0592    5.1599  -13.8207 C   0  0  1  0  0  0  0  0  0  0  0  0
   -7.7299    4.0660  -13.0697 N   0  0  0  0  0  0  0  0  0  0  0  0
   -7.9999    4.1230  -11.7022 C   0  0  0  0  0  0  0  0  0  0  0  0
   -7.9940    5.3223  -10.9595 C   0  0  0  0  0  0  0  0  0  0  0  0
   -8.2212    5.3389   -9.5758 C   0  0  0  0  0  0  0  0  0  0  0  0
   -8.5085    4.1456   -8.9466 C   0  0  0  0  0  0  0  0  0  0  0  0
   -8.5900    2.9634   -9.6696 C   0  0  0  0  0  0  0  0  0  0  0  0
   -8.3439    2.9367  -11.0342 C   0  0  0  0  0  0  0  0  0  0  0  0
   -8.9334    1.8454   -8.7399 C   0  0  0  0  0  0  0  0  0  0  0  0
   -9.3912    2.5112   -7.4903 N   0  0  0  0  0  0  0  0  0  0  0  0
   -8.7650    3.8509   -7.5077 C   0  0  0  0  0  0  0  0  0  0  0  0
   -5.6689    5.5303  -13.2205 C   0  0  0  0  0  0  0  0  0  0  0  0
   -5.2723    6.6312  -13.2630 O   0  0  0  0  0  0  0  0  0  0  0  0
   -5.0564    4.2633  -12.5561 N   0  0  0  0  0  0  0  0  0  0  0  0
   -3.8692    4.1114  -11.7203 C   0  0  1  0  0  0  0  0  0  0  0  0
   -4.2805    4.0806  -10.2434 C   0  0  0  0  0  0  0  0  0  0  0  0
   -4.6491    2.6753   -9.7600 C   0  0  0  0  0  0  0  0  0  0  0  0
   -4.8854    1.7822  -10.8461 O   0  0  0  0  0  0  0  0  0  0  0  0
   -3.7137    1.5777  -11.6487 C   0  0  0  0  0  0  0  0  0  0  0  0
   -3.0066    2.8807  -12.0170 C   0  0  0  0  0  0  0  0  0  0  0  0
   -2.6179    2.8693  -13.3157 F   0  0  0  0  0  0  0  0  0  0  0  0
   -1.8534    2.9759  -11.2904 F   0  0  0  0  0  0  0  0  0  0  0  0
   -6.2254    5.1101  -16.4130 C   0  0  0  0  0  0  0  0  0  0  0  0
  1  2  1  0
  2  3  1  0
  3  4  2  0
  4  5  1  0
  5  6  1  0
  6  7  2  0
  7  8  1  0
  8  9  1  0
  8 10  2  0
 10 11  1  0
 11 12  1  0
 12 13  1  1
 13 14  1  0
 14 15  2  0
 15 16  1  0
 16 17  2  0
 17 18  1  0
 18 19  2  0
 18 20  1  0
 20 21  1  0
 21 22  1  0
 12 23  1  0
 23 24  2  0
 23 25  1  0
 26 25  1  6
 26 27  1  0
 27 28  1  0
 28 29  1  0
 29 30  1  0
 30 31  1  0
 31 32  1  0
 31 33  1  0
 11 34  2  0
 34  3  1  0
 34  6  1  0
 19 14  1  0
 31 26  1  0
 22 17  1  0
M  END
>  <smiles>  (1674) 
C24032-P206

>  <fragmenstein_outcome>  (1674) 
acceptable

>  <inchikey>  (1674) 
VZRMOKCIAPRTEX-UHFFFAOYSA-N

>  <fragmenstein_mode>  (1674) 
expansion

>  <HIPPO Pose ID>  (1674) 
22615

>  <Energy>  (1674) 
180.440299

>  <fragmenstein_error>  (1674) 


>  <tags>  (1674) 
{'openbind_xx01zvns2b_c1_fragmenstein', 'fragmenstein_placed'}

>  <ref_pdb>  (1674) 
175

>  <scratch_subdir>  (1674) 
/opt/xchem-fragalysis-2/maxwin/BulkDock/SCRATCH/511028/C24032-P206

>  <alias>  (1674) 
CCc1n[nH]c2cc(Cl)cc([C@@H](Nc3ccc4c(c3)CNC4)C(=O)N[C@H]3CCOCC3(F)F)c12

>  <HIPPO Compound ID>  (1674) 
24032

>  <fragmenstein_runtime>  (1674) 
6.569367

$$$$
CC(C)c1nc2cc(Cl)cc([C@H](Nc3ccc4c(c3)CNC4)C(=O)NCC(F)F)c2[nH]1
     RDKit          3D

 31 34  0  0  0  0  0  0  0  0999 V2000
   -3.1887    7.1809  -18.6679 C   0  0  0  0  0  0  0  0  0  0  0  0
   -3.2519    6.4361  -17.3338 C   0  0  0  0  0  0  0  0  0  0  0  0
   -2.1432    5.3981  -17.2487 C   0  0  0  0  0  0  0  0  0  0  0  0
   -4.5898    5.8010  -17.1314 C   0  0  0  0  0  0  0  0  0  0  0  0
   -5.4061    5.3508  -18.0583 N   0  0  0  0  0  0  0  0  0  0  0  0
   -6.5407    4.9573  -17.3930 C   0  0  0  0  0  0  0  0  0  0  0  0
   -7.7473    4.4978  -17.9170 C   0  0  0  0  0  0  0  0  0  0  0  0
   -8.7861    4.2871  -17.0180 C   0  0  0  0  0  0  0  0  0  0  0  0
  -10.3536    4.0007  -17.6215 Cl  0  0  0  0  0  0  0  0  0  0  0  0
   -8.6266    4.4409  -15.6392 C   0  0  0  0  0  0  0  0  0  0  0  0
   -7.4065    4.8499  -15.0684 C   0  0  0  0  0  0  0  0  0  0  0  0
   -7.2322    5.0894  -13.5695 C   0  0  2  0  0  0  0  0  0  0  0  0
   -8.2907    4.3839  -12.8009 N   0  0  0  0  0  0  0  0  0  0  0  0
   -8.1502    4.1934  -11.4075 C   0  0  0  0  0  0  0  0  0  0  0  0
   -7.7134    5.2024  -10.5264 C   0  0  0  0  0  0  0  0  0  0  0  0
   -7.8597    5.0970   -9.1368 C   0  0  0  0  0  0  0  0  0  0  0  0
   -8.4092    3.9440   -8.6261 C   0  0  0  0  0  0  0  0  0  0  0  0
   -8.7464    2.8923   -9.4647 C   0  0  0  0  0  0  0  0  0  0  0  0
   -8.6519    3.0086  -10.8433 C   0  0  0  0  0  0  0  0  0  0  0  0
   -9.2060    1.7465   -8.6284 C   0  0  0  0  0  0  0  0  0  0  0  0
   -9.5770    2.3516   -7.3239 N   0  0  0  0  0  0  0  0  0  0  0  0
   -8.7621    3.5855   -7.2218 C   0  0  0  0  0  0  0  0  0  0  0  0
   -7.1971    6.6487  -13.3376 C   0  0  0  0  0  0  0  0  0  0  0  0
   -6.2511    7.2920  -13.5845 O   0  0  0  0  0  0  0  0  0  0  0  0
   -8.6016    7.0777  -12.8361 N   0  0  0  0  0  0  0  0  0  0  0  0
   -9.1028    8.3774  -12.4438 C   0  0  0  0  0  0  0  0  0  0  0  0
   -8.4655    8.9109  -11.1664 C   0  0  0  0  0  0  0  0  0  0  0  0
   -8.8470    8.1544  -10.1078 F   0  0  0  0  0  0  0  0  0  0  0  0
   -8.9096   10.1723  -10.9312 F   0  0  0  0  0  0  0  0  0  0  0  0
   -6.4025    5.1268  -16.0180 C   0  0  0  0  0  0  0  0  0  0  0  0
   -5.1391    5.6507  -15.8832 N   0  0  0  0  0  0  0  0  0  0  0  0
  1  2  1  0
  2  3  1  0
  2  4  1  0
  4  5  2  0
  5  6  1  0
  6  7  2  0
  7  8  1  0
  8  9  1  0
  8 10  2  0
 10 11  1  0
 11 12  1  0
 12 13  1  1
 13 14  1  0
 14 15  2  0
 15 16  1  0
 16 17  2  0
 17 18  1  0
 18 19  2  0
 18 20  1  0
 20 21  1  0
 21 22  1  0
 12 23  1  0
 23 24  2  0
 23 25  1  0
 25 26  1  0
 26 27  1  0
 27 28  1  0
 27 29  1  0
 11 30  2  0
 30 31  1  0
 31  4  1  0
 30  6  1  0
 19 14  1  0
 22 17  1  0
M  END
>  <smiles>  (1675) 
C24063-P206

>  <fragmenstein_outcome>  (1675) 
acceptable

>  <inchikey>  (1675) 
DDKLVBXQKWMZBH-UHFFFAOYSA-N

>  <fragmenstein_mode>  (1675) 
expansion

>  <HIPPO Pose ID>  (1675) 
22624

>  <Energy>  (1675) 
108.102181

>  <fragmenstein_error>  (1675) 


>  <tags>  (1675) 
{'openbind_xx01zvns2b_c1_fragmenstein', 'fragmenstein_placed'}

>  <ref_pdb>  (1675) 
175

>  <scratch_subdir>  (1675) 
/opt/xchem-fragalysis-2/maxwin/BulkDock/SCRATCH/511028/C24063-P206

>  <alias>  (1675) 
CC(C)c1nc2cc(Cl)cc([C@H](Nc3ccc4c(c3)CNC4)C(=O)NCC(F)F)c2[nH]1

>  <HIPPO Compound ID>  (1675) 
18937

>  <fragmenstein_runtime>  (1675) 
4.72579

$$$$
COCCc1cc2c([C@H](C(=O)NCC(F)F)C(=O)c3ccc4c(c3)CNC4)cc(Cl)cc2n1C
     RDKit          3D

 34 37  0  0  0  0  0  0  0  0999 V2000
   -2.4509    7.3313  -20.5034 C   0  0  0  0  0  0  0  0  0  0  0  0
   -3.4432    7.6701  -19.5412 O   0  0  0  0  0  0  0  0  0  0  0  0
   -2.9885    7.5024  -18.1930 C   0  0  0  0  0  0  0  0  0  0  0  0
   -3.0828    6.0521  -17.7049 C   0  0  0  0  0  0  0  0  0  0  0  0
   -4.4754    5.6656  -17.2977 C   0  0  0  0  0  0  0  0  0  0  0  0
   -5.0105    5.6199  -16.0224 C   0  0  0  0  0  0  0  0  0  0  0  0
   -6.3553    5.1567  -16.0836 C   0  0  0  0  0  0  0  0  0  0  0  0
   -7.3791    4.9055  -15.1209 C   0  0  0  0  0  0  0  0  0  0  0  0
   -7.3182    5.1183  -13.5881 C   0  0  2  0  0  0  0  0  0  0  0  0
   -5.9797    5.6088  -13.0184 C   0  0  0  0  0  0  0  0  0  0  0  0
   -5.8274    6.7457  -12.7850 O   0  0  0  0  0  0  0  0  0  0  0  0
   -5.0477    4.3924  -12.7533 N   0  0  0  0  0  0  0  0  0  0  0  0
   -3.7769    4.3139  -12.0595 C   0  0  0  0  0  0  0  0  0  0  0  0
   -2.5763    3.8618  -12.8792 C   0  0  0  0  0  0  0  0  0  0  0  0
   -2.6841    2.5497  -13.1994 F   0  0  0  0  0  0  0  0  0  0  0  0
   -2.4807    4.5547  -14.0390 F   0  0  0  0  0  0  0  0  0  0  0  0
   -7.8841    3.9563  -12.7679 C   0  0  0  0  0  0  0  0  0  0  0  0
   -8.1002    2.8562  -13.2684 O   0  0  0  0  0  0  0  0  0  0  0  0
   -8.1385    4.0712  -11.3013 C   0  0  0  0  0  0  0  0  0  0  0  0
   -8.0451    5.2773  -10.5838 C   0  0  0  0  0  0  0  0  0  0  0  0
   -8.2496    5.2965   -9.1968 C   0  0  0  0  0  0  0  0  0  0  0  0
   -8.5757    4.1119   -8.5585 C   0  0  0  0  0  0  0  0  0  0  0  0
   -8.6895    2.9227   -9.2659 C   0  0  0  0  0  0  0  0  0  0  0  0
   -8.4651    2.8811  -10.6258 C   0  0  0  0  0  0  0  0  0  0  0  0
   -9.0563    1.8176   -8.3333 C   0  0  0  0  0  0  0  0  0  0  0  0
   -9.5197    2.5076   -7.1011 N   0  0  0  0  0  0  0  0  0  0  0  0
   -8.8606    3.8335   -7.1196 C   0  0  0  0  0  0  0  0  0  0  0  0
   -8.6337    4.4978  -15.6464 C   0  0  0  0  0  0  0  0  0  0  0  0
   -8.8519    4.3194  -17.0046 C   0  0  0  0  0  0  0  0  0  0  0  0
  -10.4293    4.0203  -17.5744 Cl  0  0  0  0  0  0  0  0  0  0  0  0
   -7.8452    4.5124  -17.9296 C   0  0  0  0  0  0  0  0  0  0  0  0
   -6.6086    4.9480  -17.4491 C   0  0  0  0  0  0  0  0  0  0  0  0
   -5.4644    5.2620  -18.1609 N   0  0  0  0  0  0  0  0  0  0  0  0
   -5.3767    5.1847  -19.6065 C   0  0  0  0  0  0  0  0  0  0  0  0
  1  2  1  0
  2  3  1  0
  3  4  1  0
  4  5  1  0
  5  6  2  0
  6  7  1  0
  7  8  2  0
  8  9  1  0
  9 10  1  1
 10 11  2  0
 10 12  1  0
 12 13  1  0
 13 14  1  0
 14 15  1  0
 14 16  1  0
  9 17  1  0
 17 18  2  0
 17 19  1  0
 19 20  2  0
 20 21  1  0
 21 22  2  0
 22 23  1  0
 23 24  2  0
 23 25  1  0
 25 26  1  0
 26 27  1  0
  8 28  1  0
 28 29  2  0
 29 30  1  0
 29 31  1  0
 31 32  2  0
 32 33  1  0
 33 34  1  0
 33  5  1  0
 32  7  1  0
 24 19  1  0
 27 22  1  0
M  END
>  <smiles>  (1676) 
C24071-P206

>  <fragmenstein_outcome>  (1676) 
acceptable

>  <inchikey>  (1676) 
QYRFSYKLYNLHGM-UHFFFAOYSA-N

>  <fragmenstein_mode>  (1676) 
expansion

>  <HIPPO Pose ID>  (1676) 
22626

>  <Energy>  (1676) 
137.996268

>  <fragmenstein_error>  (1676) 


>  <tags>  (1676) 
{'openbind_xx01zvns2b_c1_fragmenstein', 'fragmenstein_placed'}

>  <ref_pdb>  (1676) 
175

>  <scratch_subdir>  (1676) 
/opt/xchem-fragalysis-2/maxwin/BulkDock/SCRATCH/511028/C24071-P206

>  <alias>  (1676) 
COCCc1cc2c([C@H](C(=O)NCC(F)F)C(=O)c3ccc4c(c3)CNC4)cc(Cl)cc2n1C

>  <HIPPO Compound ID>  (1676) 
24071

>  <fragmenstein_runtime>  (1676) 
7.275419

$$$$
C[C@H](Cl)C[C@H]([C@H]1C[C@H](CNN)[C@@H](C)O1)[C@@](O)(Nc1ccc2c(c1)CNC2)C(=O)NCC(F)F
     RDKit          3D

 33 35  0  0  0  0  0  0  0  0999 V2000
   -8.3251    3.7381  -18.4652 C   0  0  0  0  0  0  0  0  0  0  0  0
   -9.2207    3.5608  -17.2786 C   0  0  2  0  0  0  0  0  0  0  0  0
  -10.7116    4.4131  -17.6667 Cl  0  0  0  0  0  0  0  0  0  0  0  0
   -8.7499    3.8798  -15.8504 C   0  0  0  0  0  0  0  0  0  0  0  0
   -7.7854    5.0496  -15.4809 C   0  0  2  0  0  0  0  0  0  0  0  0
   -6.4228    4.9263  -16.2253 C   0  0  1  0  0  0  0  0  0  0  0  0
   -6.3157    5.6750  -17.5650 C   0  0  0  0  0  0  0  0  0  0  0  0
   -4.9812    6.3773  -17.5811 C   0  0  2  0  0  0  0  0  0  0  0  0
   -4.3033    6.3248  -18.9563 C   0  0  0  0  0  0  0  0  0  0  0  0
   -4.9939    7.2034  -19.9120 N   0  0  0  0  0  0  0  0  0  0  0  0
   -5.4959    6.4615  -21.0374 N   0  0  0  0  0  0  0  0  0  0  0  0
   -4.2392    5.6058  -16.5145 C   0  0  1  0  0  0  0  0  0  0  0  0
   -3.0929    6.3672  -15.8936 C   0  0  0  0  0  0  0  0  0  0  0  0
   -5.2396    5.3066  -15.5273 O   0  0  0  0  0  0  0  0  0  0  0  0
   -7.8360    5.3285  -13.9162 C   0  0  1  0  0  0  0  0  0  0  0  0
   -9.0943    5.9937  -13.7153 O   0  0  0  0  0  0  0  0  0  0  0  0
   -7.8892    4.1028  -13.0695 N   0  0  0  0  0  0  0  0  0  0  0  0
   -8.1538    4.1536  -11.6746 C   0  0  0  0  0  0  0  0  0  0  0  0
   -8.0888    5.3207  -10.8860 C   0  0  0  0  0  0  0  0  0  0  0  0
   -8.2360    5.2921   -9.4914 C   0  0  0  0  0  0  0  0  0  0  0  0
   -8.4629    4.0787   -8.8776 C   0  0  0  0  0  0  0  0  0  0  0  0
   -8.5475    2.9168   -9.6247 C   0  0  0  0  0  0  0  0  0  0  0  0
   -8.3761    2.9342  -11.0057 C   0  0  0  0  0  0  0  0  0  0  0  0
   -8.8370    1.7666   -8.7198 C   0  0  0  0  0  0  0  0  0  0  0  0
   -8.9397    2.3239   -7.3451 N   0  0  0  0  0  0  0  0  0  0  0  0
   -8.6592    3.7710   -7.4349 C   0  0  0  0  0  0  0  0  0  0  0  0
   -6.6420    6.2921  -13.4759 C   0  0  0  0  0  0  0  0  0  0  0  0
   -6.6926    7.4529  -13.6246 O   0  0  0  0  0  0  0  0  0  0  0  0
   -5.5433    5.4070  -12.8220 N   0  0  0  0  0  0  0  0  0  0  0  0
   -4.3304    5.7756  -12.1346 C   0  0  0  0  0  0  0  0  0  0  0  0
   -4.5094    5.9631  -10.6320 C   0  0  0  0  0  0  0  0  0  0  0  0
   -3.2849    6.0352  -10.0419 F   0  0  0  0  0  0  0  0  0  0  0  0
   -5.1285    7.1417  -10.3691 F   0  0  0  0  0  0  0  0  0  0  0  0
  2  1  1  6
  2  3  1  0
  2  4  1  0
  5  4  1  1
  5  6  1  0
  6  7  1  6
  7  8  1  0
  8  9  1  6
  9 10  1  0
 10 11  1  0
  8 12  1  0
 12 13  1  1
 12 14  1  0
  5 15  1  0
 15 16  1  6
 15 17  1  0
 17 18  1  0
 18 19  2  0
 19 20  1  0
 20 21  2  0
 21 22  1  0
 22 23  2  0
 22 24  1  0
 24 25  1  0
 25 26  1  0
 15 27  1  0
 27 28  2  0
 27 29  1  0
 29 30  1  0
 30 31  1  0
 31 32  1  0
 31 33  1  0
 14  6  1  0
 23 18  1  0
 26 21  1  0
M  END
>  <smiles>  (1677) 
C24163-P206

>  <fragmenstein_outcome>  (1677) 
acceptable

>  <inchikey>  (1677) 
KOAKCAZSOYQHAA-UHFFFAOYSA-N

>  <fragmenstein_mode>  (1677) 
expansion

>  <HIPPO Pose ID>  (1677) 
22654

>  <Energy>  (1677) 
182.465225

>  <fragmenstein_error>  (1677) 


>  <tags>  (1677) 
{'openbind_xx01zvns2b_c1_fragmenstein', 'fragmenstein_placed'}

>  <ref_pdb>  (1677) 
175

>  <scratch_subdir>  (1677) 
/opt/xchem-fragalysis-2/maxwin/BulkDock/SCRATCH/511028/C24163-P206

>  <alias>  (1677) 
C[C@H](Cl)C[C@H]([C@H]1C[C@H](CNN)[C@@H](C)O1)[C@@](O)(Nc1ccc2c(c1)CNC2)C(=O)NCC(F)F

>  <HIPPO Compound ID>  (1677) 
19794

>  <fragmenstein_runtime>  (1677) 
12.329622

$$$$
CNCc1nc2c([C@H](C(=O)NCC(F)F)C(=O)c3ccc4c(c3)CNC4)cc(Cl)cc2n1C1CNC1
     RDKit          3D

 36 40  0  0  0  0  0  0  0  0999 V2000
   -0.9597    5.8964  -18.0964 C   0  0  0  0  0  0  0  0  0  0  0  0
   -2.3091    5.4128  -17.8411 N   0  0  0  0  0  0  0  0  0  0  0  0
   -3.0455    6.3303  -16.9836 C   0  0  0  0  0  0  0  0  0  0  0  0
   -4.4631    5.9036  -16.8365 C   0  0  0  0  0  0  0  0  0  0  0  0
   -5.0237    5.7067  -15.6555 N   0  0  0  0  0  0  0  0  0  0  0  0
   -6.2638    5.1963  -15.8978 C   0  0  0  0  0  0  0  0  0  0  0  0
   -7.2716    4.8884  -14.9646 C   0  0  0  0  0  0  0  0  0  0  0  0
   -7.1601    5.3894  -13.5239 C   0  0  2  0  0  0  0  0  0  0  0  0
   -5.8528    5.1686  -12.7455 C   0  0  0  0  0  0  0  0  0  0  0  0
   -5.3315    6.0712  -12.2176 O   0  0  0  0  0  0  0  0  0  0  0  0
   -5.5041    3.6631  -12.7320 N   0  0  0  0  0  0  0  0  0  0  0  0
   -4.4950    2.9377  -11.9877 C   0  0  0  0  0  0  0  0  0  0  0  0
   -3.0995    3.5507  -12.0554 C   0  0  0  0  0  0  0  0  0  0  0  0
   -2.2941    2.9276  -11.1507 F   0  0  0  0  0  0  0  0  0  0  0  0
   -2.5423    3.3140  -13.2727 F   0  0  0  0  0  0  0  0  0  0  0  0
   -8.4110    5.2349  -12.6895 C   0  0  0  0  0  0  0  0  0  0  0  0
   -9.5113    5.5827  -13.1231 O   0  0  0  0  0  0  0  0  0  0  0  0
   -8.3224    4.7926  -11.2835 C   0  0  0  0  0  0  0  0  0  0  0  0
   -8.1032    5.7962  -10.3244 C   0  0  0  0  0  0  0  0  0  0  0  0
   -8.1474    5.4908   -8.9667 C   0  0  0  0  0  0  0  0  0  0  0  0
   -8.4236    4.1855   -8.6000 C   0  0  0  0  0  0  0  0  0  0  0  0
   -8.6147    3.1846   -9.5489 C   0  0  0  0  0  0  0  0  0  0  0  0
   -8.5683    3.4656  -10.9091 C   0  0  0  0  0  0  0  0  0  0  0  0
   -8.9060    1.8986   -8.8470 C   0  0  0  0  0  0  0  0  0  0  0  0
   -8.9819    2.2129   -7.3980 N   0  0  0  0  0  0  0  0  0  0  0  0
   -8.6300    3.6354   -7.2310 C   0  0  0  0  0  0  0  0  0  0  0  0
   -8.4688    4.3668  -15.5193 C   0  0  0  0  0  0  0  0  0  0  0  0
   -8.6581    4.2497  -16.8987 C   0  0  0  0  0  0  0  0  0  0  0  0
  -10.2151    3.9181  -17.5230 Cl  0  0  0  0  0  0  0  0  0  0  0  0
   -7.6614    4.5706  -17.8061 C   0  0  0  0  0  0  0  0  0  0  0  0
   -6.4797    5.0694  -17.2631 C   0  0  0  0  0  0  0  0  0  0  0  0
   -5.3706    5.6481  -17.8446 N   0  0  0  0  0  0  0  0  0  0  0  0
   -5.4341    6.0842  -19.2547 C   0  0  0  0  0  0  0  0  0  0  0  0
   -4.6006    5.2975  -20.2672 C   0  0  0  0  0  0  0  0  0  0  0  0
   -4.4246    6.5777  -21.0191 N   0  0  0  0  0  0  0  0  0  0  0  0
   -4.6341    7.2953  -19.7301 C   0  0  0  0  0  0  0  0  0  0  0  0
  1  2  1  0
  2  3  1  0
  3  4  1  0
  4  5  2  0
  5  6  1  0
  6  7  2  0
  7  8  1  0
  8  9  1  1
  9 10  2  0
  9 11  1  0
 11 12  1  0
 12 13  1  0
 13 14  1  0
 13 15  1  0
  8 16  1  0
 16 17  2  0
 16 18  1  0
 18 19  2  0
 19 20  1  0
 20 21  2  0
 21 22  1  0
 22 23  2  0
 22 24  1  0
 24 25  1  0
 25 26  1  0
  7 27  1  0
 27 28  2  0
 28 29  1  0
 28 30  1  0
 30 31  2  0
 31 32  1  0
 32 33  1  0
 33 34  1  0
 34 35  1  0
 35 36  1  0
 32  4  1  0
 36 33  1  0
 31  6  1  0
 23 18  1  0
 26 21  1  0
M  END
>  <smiles>  (1678) 
C24165-P206

>  <fragmenstein_outcome>  (1678) 
acceptable

>  <inchikey>  (1678) 
YGMYKGKOIHWXPK-UHFFFAOYSA-N

>  <fragmenstein_mode>  (1678) 
expansion

>  <HIPPO Pose ID>  (1678) 
22656

>  <Energy>  (1678) 
139.301058

>  <fragmenstein_error>  (1678) 


>  <tags>  (1678) 
{'openbind_xx01zvns2b_c1_fragmenstein', 'fragmenstein_placed'}

>  <ref_pdb>  (1678) 
175

>  <scratch_subdir>  (1678) 
/opt/xchem-fragalysis-2/maxwin/BulkDock/SCRATCH/511028/C24165-P206

>  <alias>  (1678) 
CNCc1nc2c([C@H](C(=O)NCC(F)F)C(=O)c3ccc4c(c3)CNC4)cc(Cl)cc2n1C1CNC1

>  <HIPPO Compound ID>  (1678) 
24165

>  <fragmenstein_runtime>  (1678) 
6.461885

$$$$
Cc1cc(NC(=O)c2cc(F)cc3c2[C@@H](C)[C@@]2(O)OCCN32)cc2c1CNC2
     RDKit          3D

 28 32  0  0  0  0  0  0  0  0999 V2000
   -8.0696    6.9190   -8.3466 C   0  0  0  0  0  0  0  0  0  0  0  0
   -8.1892    5.6720   -9.1653 C   0  0  0  0  0  0  0  0  0  0  0  0
   -8.0052    5.7067  -10.5582 C   0  0  0  0  0  0  0  0  0  0  0  0
   -8.0655    4.5301  -11.3248 C   0  0  0  0  0  0  0  0  0  0  0  0
   -7.8690    4.6086  -12.6987 N   0  0  0  0  0  0  0  0  0  0  0  0
   -7.7315    3.4937  -13.7570 C   0  0  0  0  0  0  0  0  0  0  0  0
   -7.6846    2.3350  -13.6328 O   0  0  0  0  0  0  0  0  0  0  0  0
   -7.7002    4.0836  -15.1094 C   0  0  0  0  0  0  0  0  0  0  0  0
   -8.8313    3.9545  -15.9186 C   0  0  0  0  0  0  0  0  0  0  0  0
   -8.7982    4.3862  -17.2385 C   0  0  0  0  0  0  0  0  0  0  0  0
   -9.8742    4.1942  -18.0164 F   0  0  0  0  0  0  0  0  0  0  0  0
   -7.6725    5.0236  -17.7490 C   0  0  0  0  0  0  0  0  0  0  0  0
   -6.5727    5.2109  -16.9151 C   0  0  0  0  0  0  0  0  0  0  0  0
   -6.5717    4.7173  -15.6076 C   0  0  0  0  0  0  0  0  0  0  0  0
   -5.2529    5.0030  -14.9525 C   0  0  1  0  0  0  0  0  0  0  0  0
   -4.5415    3.8215  -14.3050 C   0  0  0  0  0  0  0  0  0  0  0  0
   -4.4589    5.6014  -16.1440 C   0  0  1  0  0  0  0  0  0  0  0  0
   -3.9175    6.8447  -15.7584 O   0  0  0  0  0  0  0  0  0  0  0  0
   -3.4222    4.7672  -16.6599 O   0  0  0  0  0  0  0  0  0  0  0  0
   -3.3385    5.0784  -18.0549 C   0  0  0  0  0  0  0  0  0  0  0  0
   -4.7754    5.3336  -18.4769 C   0  0  0  0  0  0  0  0  0  0  0  0
   -5.3747    5.8898  -17.2624 N   0  0  0  0  0  0  0  0  0  0  0  0
   -8.3388    3.3063  -10.7198 C   0  0  0  0  0  0  0  0  0  0  0  0
   -8.5468    3.2832   -9.3538 C   0  0  0  0  0  0  0  0  0  0  0  0
   -8.4456    4.4352   -8.5826 C   0  0  0  0  0  0  0  0  0  0  0  0
   -8.6893    4.0784   -7.1546 C   0  0  0  0  0  0  0  0  0  0  0  0
   -8.8656    2.6122   -7.0963 N   0  0  0  0  0  0  0  0  0  0  0  0
   -8.9296    2.1241   -8.5007 C   0  0  0  0  0  0  0  0  0  0  0  0
  1  2  1  0
  2  3  2  0
  3  4  1  0
  4  5  1  0
  5  6  1  0
  6  7  2  0
  6  8  1  0
  8  9  2  0
  9 10  1  0
 10 11  1  0
 10 12  2  0
 12 13  1  0
 13 14  2  0
 14 15  1  0
 15 16  1  6
 15 17  1  0
 17 18  1  1
 17 19  1  0
 19 20  1  0
 20 21  1  0
 21 22  1  0
  4 23  2  0
 23 24  1  0
 24 25  2  0
 25 26  1  0
 26 27  1  0
 27 28  1  0
 25  2  1  0
 14  8  1  0
 22 17  1  0
 28 24  1  0
 22 13  1  0
M  END
>  <smiles>  (1679) 
C24213-P207

>  <fragmenstein_outcome>  (1679) 
acceptable

>  <inchikey>  (1679) 
POUYFPAIAVBIOV-UHFFFAOYSA-N

>  <fragmenstein_mode>  (1679) 
expansion

>  <HIPPO Pose ID>  (1679) 
22681

>  <Energy>  (1679) 
8.439913

>  <fragmenstein_error>  (1679) 


>  <tags>  (1679) 
{'openbind_xx01zvns2b_c1_fragmenstein', 'fragmenstein_placed'}

>  <ref_pdb>  (1679) 
175

>  <scratch_subdir>  (1679) 
/opt/xchem-fragalysis-2/maxwin/BulkDock/SCRATCH/511028/C24213-P207

>  <alias>  (1679) 
Cc1cc(NC(=O)c2cc(F)cc3c2[C@@H](C)[C@@]2(O)OCCN32)cc2c1CNC2

>  <HIPPO Compound ID>  (1679) 
24213

>  <fragmenstein_runtime>  (1679) 
6.928795

$$$$
CO[C@@]1(C)c2c(cc(F)cc2C(=O)Nc2ccc3c(c2)CN(N)C3)N[C@H]1N=COCc1ccccc1
     RDKit          3D

 36 40  0  0  0  0  0  0  0  0999 V2000
   -4.2179    7.9901  -15.6409 C   0  0  0  0  0  0  0  0  0  0  0  0
   -5.2631    7.2110  -16.1947 O   0  0  0  0  0  0  0  0  0  0  0  0
   -5.1330    5.7860  -16.0577 C   0  0  1  0  0  0  0  0  0  0  0  0
   -4.4393    5.2869  -14.7852 C   0  0  0  0  0  0  0  0  0  0  0  0
   -6.5264    5.2294  -16.2618 C   0  0  0  0  0  0  0  0  0  0  0  0
   -6.6643    4.8695  -17.6119 C   0  0  0  0  0  0  0  0  0  0  0  0
   -7.8673    4.4293  -18.1293 C   0  0  0  0  0  0  0  0  0  0  0  0
   -8.9156    4.2208  -17.2437 C   0  0  0  0  0  0  0  0  0  0  0  0
  -10.0706    3.7187  -17.7006 F   0  0  0  0  0  0  0  0  0  0  0  0
   -8.7941    4.5221  -15.8844 C   0  0  0  0  0  0  0  0  0  0  0  0
   -7.6014    5.0654  -15.3884 C   0  0  0  0  0  0  0  0  0  0  0  0
   -7.5601    5.5605  -13.9873 C   0  0  0  0  0  0  0  0  0  0  0  0
   -7.1989    6.6939  -13.8467 O   0  0  0  0  0  0  0  0  0  0  0  0
   -7.9358    4.5659  -13.0177 N   0  0  0  0  0  0  0  0  0  0  0  0
   -8.0808    4.6473  -11.6294 C   0  0  0  0  0  0  0  0  0  0  0  0
   -7.8817    5.8627  -10.9502 C   0  0  0  0  0  0  0  0  0  0  0  0
   -8.0154    5.9449   -9.5604 C   0  0  0  0  0  0  0  0  0  0  0  0
   -8.3425    4.7960   -8.8649 C   0  0  0  0  0  0  0  0  0  0  0  0
   -8.5475    3.5881   -9.5289 C   0  0  0  0  0  0  0  0  0  0  0  0
   -8.4247    3.4955  -10.9108 C   0  0  0  0  0  0  0  0  0  0  0  0
   -8.9419    2.5339   -8.5358 C   0  0  0  0  0  0  0  0  0  0  0  0
   -8.7369    3.1641   -7.1999 N   0  0  0  0  0  0  0  0  0  0  0  0
   -9.7657    2.8526   -6.2264 N   0  0  0  0  0  0  0  0  0  0  0  0
   -8.5708    4.6177   -7.3969 C   0  0  0  0  0  0  0  0  0  0  0  0
   -5.4919    5.1005  -18.3984 N   0  0  0  0  0  0  0  0  0  0  0  0
   -4.4661    5.1375  -17.3404 C   0  0  1  0  0  0  0  0  0  0  0  0
   -3.2082    5.7883  -17.7458 N   0  0  0  0  0  0  0  0  0  0  0  0
   -2.6896    5.1327  -18.7208 C   0  0  0  0  0  0  0  0  0  0  0  0
   -1.5072    5.4296  -19.2985 O   0  0  0  0  0  0  0  0  0  0  0  0
   -0.7670    6.5206  -18.7417 C   0  0  0  0  0  0  0  0  0  0  0  0
    0.6084    6.4467  -19.3531 C   0  0  0  0  0  0  0  0  0  0  0  0
    0.8428    6.9639  -20.6354 C   0  0  0  0  0  0  0  0  0  0  0  0
    2.1017    6.8473  -21.2260 C   0  0  0  0  0  0  0  0  0  0  0  0
    3.1349    6.2067  -20.5447 C   0  0  0  0  0  0  0  0  0  0  0  0
    2.9115    5.6826  -19.2727 C   0  0  0  0  0  0  0  0  0  0  0  0
    1.6537    5.7993  -18.6796 C   0  0  0  0  0  0  0  0  0  0  0  0
  1  2  1  0
  2  3  1  0
  3  4  1  1
  3  5  1  0
  5  6  2  0
  6  7  1  0
  7  8  2  0
  8  9  1  0
  8 10  1  0
 10 11  2  0
 11 12  1  0
 12 13  2  0
 12 14  1  0
 14 15  1  0
 15 16  2  0
 16 17  1  0
 17 18  2  0
 18 19  1  0
 19 20  2  0
 19 21  1  0
 21 22  1  0
 22 23  1  0
 22 24  1  0
  6 25  1  0
 26 25  1  6
 26 27  1  0
 27 28  2  3
 28 29  1  0
 29 30  1  0
 30 31  1  0
 31 32  2  0
 32 33  1  0
 33 34  2  0
 34 35  1  0
 35 36  2  0
 26  3  1  0
 36 31  1  0
 11  5  1  0
 20 15  1  0
 24 18  1  0
M  END
>  <smiles>  (1680) 
C24250-P207

>  <fragmenstein_outcome>  (1680) 
acceptable

>  <inchikey>  (1680) 
ISQMSPSMOMHCMW-UHFFFAOYSA-N

>  <fragmenstein_mode>  (1680) 
expansion

>  <HIPPO Pose ID>  (1680) 
22705

>  <Energy>  (1680) 
135.826969

>  <fragmenstein_error>  (1680) 


>  <tags>  (1680) 
{'openbind_xx01zvns2b_c1_fragmenstein', 'fragmenstein_placed'}

>  <ref_pdb>  (1680) 
175

>  <scratch_subdir>  (1680) 
/opt/xchem-fragalysis-2/maxwin/BulkDock/SCRATCH/511028/C24250-P207

>  <alias>  (1680) 
CO[C@@]1(C)c2c(cc(F)cc2C(=O)Nc2ccc3c(c2)CN(N)C3)N[C@H]1N=COCc1ccccc1

>  <HIPPO Compound ID>  (1680) 
33399

>  <fragmenstein_runtime>  (1680) 
16.830681

$$$$
CO[C@@]1(C)C(=O)N(N)c2cc(F)cc(C(=O)Nc3ccc4c(c3)CNC4)c21
     RDKit          3D

 27 30  0  0  0  0  0  0  0  0999 V2000
   -3.8825    3.6049  -14.6347 C   0  0  0  0  0  0  0  0  0  0  0  0
   -4.8942    4.4364  -14.0947 O   0  0  0  0  0  0  0  0  0  0  0  0
   -5.4247    5.3980  -14.9811 C   0  0  1  0  0  0  0  0  0  0  0  0
   -5.6640    6.6672  -14.1492 C   0  0  0  0  0  0  0  0  0  0  0  0
   -4.6198    5.8759  -16.2420 C   0  0  0  0  0  0  0  0  0  0  0  0
   -3.4735    6.3055  -16.2435 O   0  0  0  0  0  0  0  0  0  0  0  0
   -5.4892    5.7248  -17.3408 N   0  0  0  0  0  0  0  0  0  0  0  0
   -5.1757    6.0851  -18.6390 N   0  0  0  0  0  0  0  0  0  0  0  0
   -6.7173    5.1740  -16.9771 C   0  0  0  0  0  0  0  0  0  0  0  0
   -7.7918    4.8737  -17.8022 C   0  0  0  0  0  0  0  0  0  0  0  0
   -8.9175    4.3176  -17.2129 C   0  0  0  0  0  0  0  0  0  0  0  0
   -9.9863    4.0170  -17.9652 F   0  0  0  0  0  0  0  0  0  0  0  0
   -8.9408    4.0335  -15.8506 C   0  0  0  0  0  0  0  0  0  0  0  0
   -7.8183    4.2754  -15.0517 C   0  0  0  0  0  0  0  0  0  0  0  0
   -7.7994    3.6728  -13.7051 C   0  0  0  0  0  0  0  0  0  0  0  0
   -7.5973    2.5286  -13.6048 O   0  0  0  0  0  0  0  0  0  0  0  0
   -8.1639    4.7206  -12.6356 N   0  0  0  0  0  0  0  0  0  0  0  0
   -8.2603    4.6047  -11.2561 C   0  0  0  0  0  0  0  0  0  0  0  0
   -8.1916    5.7582  -10.4584 C   0  0  0  0  0  0  0  0  0  0  0  0
   -8.2848    5.6603   -9.0665 C   0  0  0  0  0  0  0  0  0  0  0  0
   -8.4958    4.4097   -8.5100 C   0  0  0  0  0  0  0  0  0  0  0  0
   -8.6009    3.2789   -9.3075 C   0  0  0  0  0  0  0  0  0  0  0  0
   -8.4555    3.3509  -10.6793 C   0  0  0  0  0  0  0  0  0  0  0  0
   -8.9237    2.0904   -8.4722 C   0  0  0  0  0  0  0  0  0  0  0  0
   -8.8852    2.5589   -7.0585 N   0  0  0  0  0  0  0  0  0  0  0  0
   -8.6924    4.0243   -7.0859 C   0  0  0  0  0  0  0  0  0  0  0  0
   -6.7210    4.9144  -15.6022 C   0  0  0  0  0  0  0  0  0  0  0  0
  1  2  1  0
  2  3  1  0
  3  4  1  1
  3  5  1  0
  5  6  2  0
  5  7  1  0
  7  8  1  0
  7  9  1  0
  9 10  2  0
 10 11  1  0
 11 12  1  0
 11 13  2  0
 13 14  1  0
 14 15  1  0
 15 16  2  0
 15 17  1  0
 17 18  1  0
 18 19  2  0
 19 20  1  0
 20 21  2  0
 21 22  1  0
 22 23  2  0
 22 24  1  0
 24 25  1  0
 25 26  1  0
 14 27  2  0
 27  3  1  0
 27  9  1  0
 23 18  1  0
 26 21  1  0
M  END
>  <smiles>  (1681) 
C24186-P207

>  <fragmenstein_outcome>  (1681) 
acceptable

>  <inchikey>  (1681) 
VFYLUNHDXYGDCP-UHFFFAOYSA-N

>  <fragmenstein_mode>  (1681) 
expansion

>  <HIPPO Pose ID>  (1681) 
22707

>  <Energy>  (1681) 
123.109953

>  <fragmenstein_error>  (1681) 


>  <tags>  (1681) 
{'openbind_xx01zvns2b_c1_fragmenstein', 'fragmenstein_placed'}

>  <ref_pdb>  (1681) 
175

>  <scratch_subdir>  (1681) 
/opt/xchem-fragalysis-2/maxwin/BulkDock/SCRATCH/511028/C24186-P207

>  <alias>  (1681) 
CO[C@@]1(C)C(=O)N(N)c2cc(F)cc(C(=O)Nc3ccc4c(c3)CNC4)c21

>  <HIPPO Compound ID>  (1681) 
24186

>  <fragmenstein_runtime>  (1681) 
5.8549

$$$$
CO[C@]1(C)C(=O)Nc2cc(F)cc([C@@](O)(Nc3ccc4c(c3)CNC4)C(=O)NCC3CCOCC3)c21
     RDKit          3D

 36 40  0  0  0  0  0  0  0  0999 V2000
   -3.6827    7.1187  -14.7672 C   0  0  0  0  0  0  0  0  0  0  0  0
   -4.9226    6.4232  -14.8339 O   0  0  0  0  0  0  0  0  0  0  0  0
   -4.9043    5.2182  -15.6004 C   0  0  2  0  0  0  0  0  0  0  0  0
   -4.0943    4.1155  -14.9329 C   0  0  0  0  0  0  0  0  0  0  0  0
   -4.3758    5.3600  -17.0556 C   0  0  0  0  0  0  0  0  0  0  0  0
   -3.2144    5.5584  -17.3781 O   0  0  0  0  0  0  0  0  0  0  0  0
   -5.4532    5.2187  -17.9094 N   0  0  0  0  0  0  0  0  0  0  0  0
   -6.6110    4.9065  -17.2138 C   0  0  0  0  0  0  0  0  0  0  0  0
   -7.8337    4.6305  -17.7817 C   0  0  0  0  0  0  0  0  0  0  0  0
   -8.8538    4.2858  -16.9122 C   0  0  0  0  0  0  0  0  0  0  0  0
  -10.0533    3.9651  -17.4180 F   0  0  0  0  0  0  0  0  0  0  0  0
   -8.6488    4.2491  -15.5215 C   0  0  0  0  0  0  0  0  0  0  0  0
   -7.3944    4.5469  -14.9282 C   0  0  0  0  0  0  0  0  0  0  0  0
   -7.2037    4.4309  -13.3918 C   0  0  1  0  0  0  0  0  0  0  0  0
   -6.3134    5.4331  -12.9010 O   0  0  0  0  0  0  0  0  0  0  0  0
   -8.4815    4.7497  -12.7316 N   0  0  0  0  0  0  0  0  0  0  0  0
   -8.5061    4.5841  -11.3292 C   0  0  0  0  0  0  0  0  0  0  0  0
   -8.2300    5.6783  -10.4784 C   0  0  0  0  0  0  0  0  0  0  0  0
   -8.2436    5.5410   -9.0873 C   0  0  0  0  0  0  0  0  0  0  0  0
   -8.5394    4.2980   -8.5633 C   0  0  0  0  0  0  0  0  0  0  0  0
   -8.7701    3.2042   -9.3919 C   0  0  0  0  0  0  0  0  0  0  0  0
   -8.7511    3.3258  -10.7702 C   0  0  0  0  0  0  0  0  0  0  0  0
   -9.0210    1.9978   -8.5502 C   0  0  0  0  0  0  0  0  0  0  0  0
   -9.3358    2.5377   -7.1986 N   0  0  0  0  0  0  0  0  0  0  0  0
   -8.6882    3.8665   -7.1435 C   0  0  0  0  0  0  0  0  0  0  0  0
   -6.6582    2.9292  -13.0400 C   0  0  0  0  0  0  0  0  0  0  0  0
   -6.9390    1.9658  -13.6453 O   0  0  0  0  0  0  0  0  0  0  0  0
   -5.6816    3.1179  -11.8346 N   0  0  0  0  0  0  0  0  0  0  0  0
   -4.7882    2.1814  -11.1984 C   0  0  0  0  0  0  0  0  0  0  0  0
   -3.3985    2.2033  -11.8534 C   0  0  0  0  0  0  0  0  0  0  0  0
   -2.6605    3.5247  -11.5776 C   0  0  0  0  0  0  0  0  0  0  0  0
   -1.2591    3.4837  -12.1735 C   0  0  0  0  0  0  0  0  0  0  0  0
   -0.5118    2.3901  -11.6462 O   0  0  0  0  0  0  0  0  0  0  0  0
   -1.1231    1.1307  -11.9280 C   0  0  0  0  0  0  0  0  0  0  0  0
   -2.5250    1.0550  -11.3408 C   0  0  0  0  0  0  0  0  0  0  0  0
   -6.3656    4.8638  -15.8283 C   0  0  0  0  0  0  0  0  0  0  0  0
  1  2  1  0
  2  3  1  0
  3  4  1  1
  3  5  1  0
  5  6  2  0
  5  7  1  0
  7  8  1  0
  8  9  2  0
  9 10  1  0
 10 11  1  0
 10 12  2  0
 12 13  1  0
 13 14  1  0
 14 15  1  1
 14 16  1  0
 16 17  1  0
 17 18  2  0
 18 19  1  0
 19 20  2  0
 20 21  1  0
 21 22  2  0
 21 23  1  0
 23 24  1  0
 24 25  1  0
 14 26  1  0
 26 27  2  0
 26 28  1  0
 28 29  1  0
 29 30  1  0
 30 31  1  0
 31 32  1  0
 32 33  1  0
 33 34  1  0
 34 35  1  0
 13 36  2  0
 36  3  1  0
 36  8  1  0
 22 17  1  0
 35 30  1  0
 25 20  1  0
M  END
>  <smiles>  (1682) 
C24275-P207

>  <fragmenstein_outcome>  (1682) 
acceptable

>  <inchikey>  (1682) 
NUFMCAIYFUFGSW-UHFFFAOYSA-N

>  <fragmenstein_mode>  (1682) 
expansion

>  <HIPPO Pose ID>  (1682) 
22715

>  <Energy>  (1682) 
124.327818

>  <fragmenstein_error>  (1682) 


>  <tags>  (1682) 
{'openbind_xx01zvns2b_c1_fragmenstein', 'fragmenstein_placed'}

>  <ref_pdb>  (1682) 
175

>  <scratch_subdir>  (1682) 
/opt/xchem-fragalysis-2/maxwin/BulkDock/SCRATCH/511028/C24275-P207

>  <alias>  (1682) 
CO[C@]1(C)C(=O)Nc2cc(F)cc([C@@](O)(Nc3ccc4c(c3)CNC4)C(=O)NCC3CCOCC3)c21

>  <HIPPO Compound ID>  (1682) 
24275

>  <fragmenstein_runtime>  (1682) 
10.156856

$$$$
CN(c1ccccn1)[C@]1(C)C(=O)Nc2cc(F)cc([C@@](O)(Nc3ccc4c(c3)CNC4)C(=O)NCC(F)F)c21
     RDKit          3D

 39 43  0  0  0  0  0  0  0  0999 V2000
   -5.2238    7.7926  -17.2899 C   0  0  0  0  0  0  0  0  0  0  0  0
   -4.9906    6.8876  -16.1629 N   0  0  0  0  0  0  0  0  0  0  0  0
   -3.9025    7.3796  -15.4342 C   0  0  0  0  0  0  0  0  0  0  0  0
   -2.5808    7.2099  -15.8544 C   0  0  0  0  0  0  0  0  0  0  0  0
   -1.5387    7.7521  -15.1047 C   0  0  0  0  0  0  0  0  0  0  0  0
   -1.8347    8.4694  -13.9568 C   0  0  0  0  0  0  0  0  0  0  0  0
   -3.1660    8.6203  -13.6180 C   0  0  0  0  0  0  0  0  0  0  0  0
   -4.1911    8.1078  -14.3335 N   0  0  0  0  0  0  0  0  0  0  0  0
   -5.0991    5.4112  -16.3995 C   0  0  2  0  0  0  0  0  0  0  0  0
   -4.2088    4.5586  -15.5090 C   0  0  0  0  0  0  0  0  0  0  0  0
   -4.7229    5.1100  -17.9059 C   0  0  0  0  0  0  0  0  0  0  0  0
   -3.6138    5.1366  -18.4217 O   0  0  0  0  0  0  0  0  0  0  0  0
   -5.9105    4.9098  -18.5867 N   0  0  0  0  0  0  0  0  0  0  0  0
   -6.9810    4.8033  -17.7122 C   0  0  0  0  0  0  0  0  0  0  0  0
   -8.2553    4.4617  -18.1045 C   0  0  0  0  0  0  0  0  0  0  0  0
   -9.1673    4.2224  -17.0988 C   0  0  0  0  0  0  0  0  0  0  0  0
  -10.4076    3.8404  -17.4280 F   0  0  0  0  0  0  0  0  0  0  0  0
   -8.8029    4.3215  -15.7500 C   0  0  0  0  0  0  0  0  0  0  0  0
   -7.4977    4.7033  -15.3344 C   0  0  0  0  0  0  0  0  0  0  0  0
   -7.1758    4.6358  -13.8265 C   0  0  1  0  0  0  0  0  0  0  0  0
   -6.1893    5.5980  -13.5359 O   0  0  0  0  0  0  0  0  0  0  0  0
   -8.3471    5.0847  -13.0406 N   0  0  0  0  0  0  0  0  0  0  0  0
   -8.3815    4.8754  -11.6513 C   0  0  0  0  0  0  0  0  0  0  0  0
   -8.1669    5.9584  -10.7697 C   0  0  0  0  0  0  0  0  0  0  0  0
   -8.1826    5.7893   -9.3788 C   0  0  0  0  0  0  0  0  0  0  0  0
   -8.4316    4.5267   -8.8771 C   0  0  0  0  0  0  0  0  0  0  0  0
   -8.6327    3.4477   -9.7285 C   0  0  0  0  0  0  0  0  0  0  0  0
   -8.6052    3.6029  -11.1074 C   0  0  0  0  0  0  0  0  0  0  0  0
   -8.8781    2.2192   -8.9125 C   0  0  0  0  0  0  0  0  0  0  0  0
   -9.1664    2.7184   -7.5400 N   0  0  0  0  0  0  0  0  0  0  0  0
   -8.5575    4.0622   -7.4648 C   0  0  0  0  0  0  0  0  0  0  0  0
   -6.7262    3.1125  -13.4541 C   0  0  0  0  0  0  0  0  0  0  0  0
   -7.3492    2.1614  -13.7276 O   0  0  0  0  0  0  0  0  0  0  0  0
   -5.3573    3.2452  -12.7267 N   0  0  0  0  0  0  0  0  0  0  0  0
   -4.5250    2.2421  -12.1055 C   0  0  0  0  0  0  0  0  0  0  0  0
   -3.3609    1.8279  -12.9989 C   0  0  0  0  0  0  0  0  0  0  0  0
   -2.5170    2.8835  -13.1741 F   0  0  0  0  0  0  0  0  0  0  0  0
   -3.7844    1.4799  -14.2418 F   0  0  0  0  0  0  0  0  0  0  0  0
   -6.5808    4.9860  -16.3696 C   0  0  0  0  0  0  0  0  0  0  0  0
  1  2  1  0
  2  3  1  0
  3  4  2  0
  4  5  1  0
  5  6  2  0
  6  7  1  0
  7  8  2  0
  2  9  1  0
  9 10  1  1
  9 11  1  0
 11 12  2  0
 11 13  1  0
 13 14  1  0
 14 15  2  0
 15 16  1  0
 16 17  1  0
 16 18  2  0
 18 19  1  0
 19 20  1  0
 20 21  1  6
 20 22  1  0
 22 23  1  0
 23 24  2  0
 24 25  1  0
 25 26  2  0
 26 27  1  0
 27 28  2  0
 27 29  1  0
 29 30  1  0
 30 31  1  0
 20 32  1  0
 32 33  2  0
 32 34  1  0
 34 35  1  0
 35 36  1  0
 36 37  1  0
 36 38  1  0
 19 39  2  0
  8  3  1  0
 39  9  1  0
 39 14  1  0
 28 23  1  0
 31 26  1  0
M  END
>  <smiles>  (1683) 
C24305-P207

>  <fragmenstein_outcome>  (1683) 
acceptable

>  <inchikey>  (1683) 
LXTJSXICTCZJSI-UHFFFAOYSA-N

>  <fragmenstein_mode>  (1683) 
expansion

>  <HIPPO Pose ID>  (1683) 
22730

>  <Energy>  (1683) 
150.876751

>  <fragmenstein_error>  (1683) 


>  <tags>  (1683) 
{'openbind_xx01zvns2b_c1_fragmenstein', 'fragmenstein_placed'}

>  <ref_pdb>  (1683) 
175

>  <scratch_subdir>  (1683) 
/opt/xchem-fragalysis-2/maxwin/BulkDock/SCRATCH/511028/C24305-P207

>  <alias>  (1683) 
CN(c1ccccn1)[C@]1(C)C(=O)Nc2cc(F)cc([C@@](O)(Nc3ccc4c(c3)CNC4)C(=O)NCC(F)F)c21

>  <HIPPO Compound ID>  (1683) 
28655

>  <fragmenstein_runtime>  (1683) 
12.07444

$$$$
CO[C@]1(C)C(=O)C(=O)c2cc(F)cc(C(=O)Nc3ccc4c(c3)CNC4)c21
     RDKit          3D

 27 30  0  0  0  0  0  0  0  0999 V2000
   -4.8569    6.5643  -12.7685 C   0  0  0  0  0  0  0  0  0  0  0  0
   -5.7915    6.2203  -13.7854 O   0  0  0  0  0  0  0  0  0  0  0  0
   -5.3132    5.3122  -14.7788 C   0  0  2  0  0  0  0  0  0  0  0  0
   -4.5206    4.1130  -14.2538 C   0  0  0  0  0  0  0  0  0  0  0  0
   -4.4813    6.0485  -15.8398 C   0  0  0  0  0  0  0  0  0  0  0  0
   -3.4054    6.5960  -15.6851 O   0  0  0  0  0  0  0  0  0  0  0  0
   -5.2527    6.0195  -17.1542 C   0  0  0  0  0  0  0  0  0  0  0  0
   -4.9154    6.5356  -18.1937 O   0  0  0  0  0  0  0  0  0  0  0  0
   -6.4974    5.2934  -16.9027 C   0  0  0  0  0  0  0  0  0  0  0  0
   -7.5124    5.0275  -17.8088 C   0  0  0  0  0  0  0  0  0  0  0  0
   -8.6398    4.3753  -17.3247 C   0  0  0  0  0  0  0  0  0  0  0  0
   -9.6680    4.1104  -18.1433 F   0  0  0  0  0  0  0  0  0  0  0  0
   -8.7264    3.9828  -15.9884 C   0  0  0  0  0  0  0  0  0  0  0  0
   -7.6581    4.1988  -15.1110 C   0  0  0  0  0  0  0  0  0  0  0  0
   -7.7260    3.5812  -13.7659 C   0  0  0  0  0  0  0  0  0  0  0  0
   -7.6613    2.4205  -13.6789 O   0  0  0  0  0  0  0  0  0  0  0  0
   -7.8934    4.6567  -12.6758 N   0  0  0  0  0  0  0  0  0  0  0  0
   -8.1041    4.5305  -11.3072 C   0  0  0  0  0  0  0  0  0  0  0  0
   -8.0403    5.6870  -10.5105 C   0  0  0  0  0  0  0  0  0  0  0  0
   -8.2256    5.6100   -9.1266 C   0  0  0  0  0  0  0  0  0  0  0  0
   -8.5142    4.3745   -8.5748 C   0  0  0  0  0  0  0  0  0  0  0  0
   -8.6037    3.2353   -9.3679 C   0  0  0  0  0  0  0  0  0  0  0  0
   -8.3823    3.2894  -10.7327 C   0  0  0  0  0  0  0  0  0  0  0  0
   -8.9434    2.0593   -8.5124 C   0  0  0  0  0  0  0  0  0  0  0  0
   -9.3556    2.6377   -7.2030 N   0  0  0  0  0  0  0  0  0  0  0  0
   -8.7679    3.9922   -7.1556 C   0  0  0  0  0  0  0  0  0  0  0  0
   -6.5408    4.8934  -15.5592 C   0  0  0  0  0  0  0  0  0  0  0  0
  1  2  1  0
  2  3  1  0
  3  4  1  1
  3  5  1  0
  5  6  2  0
  5  7  1  0
  7  8  2  0
  7  9  1  0
  9 10  2  0
 10 11  1  0
 11 12  1  0
 11 13  2  0
 13 14  1  0
 14 15  1  0
 15 16  2  0
 15 17  1  0
 17 18  1  0
 18 19  2  0
 19 20  1  0
 20 21  2  0
 21 22  1  0
 22 23  2  0
 22 24  1  0
 24 25  1  0
 25 26  1  0
 14 27  2  0
 27  3  1  0
 27  9  1  0
 23 18  1  0
 26 21  1  0
M  END
>  <smiles>  (1684) 
C24260-P207

>  <fragmenstein_outcome>  (1684) 
acceptable

>  <inchikey>  (1684) 
SXXMQNHIBCGDQG-UHFFFAOYSA-N

>  <fragmenstein_mode>  (1684) 
expansion

>  <HIPPO Pose ID>  (1684) 
22731

>  <Energy>  (1684) 
93.571601

>  <fragmenstein_error>  (1684) 


>  <tags>  (1684) 
{'openbind_xx01zvns2b_c1_fragmenstein', 'fragmenstein_placed'}

>  <ref_pdb>  (1684) 
175

>  <scratch_subdir>  (1684) 
/opt/xchem-fragalysis-2/maxwin/BulkDock/SCRATCH/511028/C24260-P207

>  <alias>  (1684) 
CO[C@]1(C)C(=O)C(=O)c2cc(F)cc(C(=O)Nc3ccc4c(c3)CNC4)c21

>  <HIPPO Compound ID>  (1684) 
24260

>  <fragmenstein_runtime>  (1684) 
3.87941

$$$$
CNCN1C(=O)[C@@](C)(OC)c2c(C(=O)Nc3cc4c(cc3F)CNC4)cc(F)cc21
     RDKit          3D

 30 33  0  0  0  0  0  0  0  0999 V2000
   -4.0948    6.0506  -21.1078 C   0  0  0  0  0  0  0  0  0  0  0  0
   -4.5532    6.2362  -19.7415 N   0  0  0  0  0  0  0  0  0  0  0  0
   -5.1569    5.0167  -19.2298 C   0  0  0  0  0  0  0  0  0  0  0  0
   -5.5055    5.2342  -17.8569 N   0  0  0  0  0  0  0  0  0  0  0  0
   -4.5398    5.4846  -16.8800 C   0  0  0  0  0  0  0  0  0  0  0  0
   -3.3413    5.6422  -17.0802 O   0  0  0  0  0  0  0  0  0  0  0  0
   -5.2743    5.5629  -15.4989 C   0  0  1  0  0  0  0  0  0  0  0  0
   -4.6512    4.5035  -14.5846 C   0  0  0  0  0  0  0  0  0  0  0  0
   -5.2567    6.7881  -14.7946 O   0  0  0  0  0  0  0  0  0  0  0  0
   -4.8351    7.9249  -15.5255 C   0  0  0  0  0  0  0  0  0  0  0  0
   -6.6891    5.1732  -15.8892 C   0  0  0  0  0  0  0  0  0  0  0  0
   -7.8166    4.9549  -15.0989 C   0  0  0  0  0  0  0  0  0  0  0  0
   -7.8916    5.4115  -13.6881 C   0  0  0  0  0  0  0  0  0  0  0  0
   -7.6805    6.5392  -13.4768 O   0  0  0  0  0  0  0  0  0  0  0  0
   -8.2641    4.2627  -12.7212 N   0  0  0  0  0  0  0  0  0  0  0  0
   -8.3584    4.2443  -11.3192 C   0  0  0  0  0  0  0  0  0  0  0  0
   -8.6427    3.0209  -10.7029 C   0  0  0  0  0  0  0  0  0  0  0  0
   -8.7501    2.9733   -9.3173 C   0  0  0  0  0  0  0  0  0  0  0  0
   -8.5660    4.1036   -8.5330 C   0  0  0  0  0  0  0  0  0  0  0  0
   -8.2726    5.3181   -9.1119 C   0  0  0  0  0  0  0  0  0  0  0  0
   -8.1808    5.3780  -10.5038 C   0  0  0  0  0  0  0  0  0  0  0  0
   -7.9094    6.5767  -11.0225 F   0  0  0  0  0  0  0  0  0  0  0  0
   -8.7322    3.7540   -7.0958 C   0  0  0  0  0  0  0  0  0  0  0  0
   -9.2382    2.3684   -7.0703 N   0  0  0  0  0  0  0  0  0  0  0  0
   -9.0267    1.8065   -8.4304 C   0  0  0  0  0  0  0  0  0  0  0  0
   -8.9644    4.4356  -15.7008 C   0  0  0  0  0  0  0  0  0  0  0  0
   -9.0004    4.2251  -17.0804 C   0  0  0  0  0  0  0  0  0  0  0  0
  -10.1182    3.7405  -17.6381 F   0  0  0  0  0  0  0  0  0  0  0  0
   -7.9078    4.5157  -17.8908 C   0  0  0  0  0  0  0  0  0  0  0  0
   -6.7510    4.9620  -17.2753 C   0  0  0  0  0  0  0  0  0  0  0  0
  1  2  1  0
  2  3  1  0
  3  4  1  0
  4  5  1  0
  5  6  2  0
  5  7  1  0
  7  8  1  1
  7  9  1  0
  9 10  1  0
  7 11  1  0
 11 12  2  0
 12 13  1  0
 13 14  2  0
 13 15  1  0
 15 16  1  0
 16 17  2  0
 17 18  1  0
 18 19  2  0
 19 20  1  0
 20 21  2  0
 21 22  1  0
 19 23  1  0
 23 24  1  0
 24 25  1  0
 12 26  1  0
 26 27  2  0
 27 28  1  0
 27 29  1  0
 29 30  2  0
 30  4  1  0
 30 11  1  0
 21 16  1  0
 25 18  1  0
M  END
>  <smiles>  (1685) 
C24341-P207

>  <fragmenstein_outcome>  (1685) 
acceptable

>  <inchikey>  (1685) 
HEOVOASWWMCSFK-UHFFFAOYSA-N

>  <fragmenstein_mode>  (1685) 
expansion

>  <HIPPO Pose ID>  (1685) 
22746

>  <Energy>  (1685) 
66.217911

>  <fragmenstein_error>  (1685) 


>  <tags>  (1685) 
{'openbind_xx01zvns2b_c1_fragmenstein', 'fragmenstein_placed'}

>  <ref_pdb>  (1685) 
175

>  <scratch_subdir>  (1685) 
/opt/xchem-fragalysis-2/maxwin/BulkDock/SCRATCH/511028/C24341-P207

>  <alias>  (1685) 
CNCN1C(=O)[C@@](C)(OC)c2c(C(=O)Nc3cc4c(cc3F)CNC4)cc(F)cc21

>  <HIPPO Compound ID>  (1685) 
24341

>  <fragmenstein_runtime>  (1685) 
5.058803

$$$$
CO[C@@]1(C)c2c(C(=O)Nc3ccc4c(c3)CNC4)cc(F)cc2N2CNN[C@]21O
     RDKit          3D

 29 33  0  0  0  0  0  0  0  0999 V2000
   -4.6187    7.0111  -14.1660 C   0  0  0  0  0  0  0  0  0  0  0  0
   -5.6465    6.4996  -15.0078 O   0  0  0  0  0  0  0  0  0  0  0  0
   -5.3439    5.2302  -15.6480 C   0  0  1  0  0  0  0  0  0  0  0  0
   -4.6205    4.2368  -14.7299 C   0  0  0  0  0  0  0  0  0  0  0  0
   -6.6965    4.7505  -16.1167 C   0  0  0  0  0  0  0  0  0  0  0  0
   -7.8001    4.3205  -15.3867 C   0  0  0  0  0  0  0  0  0  0  0  0
   -7.6856    3.7975  -14.0083 C   0  0  0  0  0  0  0  0  0  0  0  0
   -7.4756    2.6570  -13.8838 O   0  0  0  0  0  0  0  0  0  0  0  0
   -7.9493    4.8855  -12.9508 N   0  0  0  0  0  0  0  0  0  0  0  0
   -8.0996    4.7871  -11.5691 C   0  0  0  0  0  0  0  0  0  0  0  0
   -8.0538    5.9407  -10.7727 C   0  0  0  0  0  0  0  0  0  0  0  0
   -8.1780    5.8457   -9.3794 C   0  0  0  0  0  0  0  0  0  0  0  0
   -8.3882    4.5969   -8.8151 C   0  0  0  0  0  0  0  0  0  0  0  0
   -8.4837    3.4641   -9.6084 C   0  0  0  0  0  0  0  0  0  0  0  0
   -8.3177    3.5361  -10.9812 C   0  0  0  0  0  0  0  0  0  0  0  0
   -8.8074    2.2768   -8.7675 C   0  0  0  0  0  0  0  0  0  0  0  0
   -8.7928    2.7541   -7.3562 N   0  0  0  0  0  0  0  0  0  0  0  0
   -8.5718    4.2147   -7.3871 C   0  0  0  0  0  0  0  0  0  0  0  0
   -9.0124    4.0912  -16.0457 C   0  0  0  0  0  0  0  0  0  0  0  0
   -9.0873    4.2125  -17.4285 C   0  0  0  0  0  0  0  0  0  0  0  0
  -10.2360    3.9263  -18.0574 F   0  0  0  0  0  0  0  0  0  0  0  0
   -7.9645    4.5449  -18.1740 C   0  0  0  0  0  0  0  0  0  0  0  0
   -6.7713    4.8087  -17.5139 C   0  0  0  0  0  0  0  0  0  0  0  0
   -5.5361    5.0225  -18.1351 N   0  0  0  0  0  0  0  0  0  0  0  0
   -5.4527    6.0721  -19.1346 C   0  0  0  0  0  0  0  0  0  0  0  0
   -4.2967    6.9562  -18.8604 N   0  0  0  0  0  0  0  0  0  0  0  0
   -4.0966    6.7904  -17.3490 N   0  0  0  0  0  0  0  0  0  0  0  0
   -4.6085    5.4259  -17.0748 C   0  0  1  0  0  0  0  0  0  0  0  0
   -3.5373    4.5196  -17.2173 O   0  0  0  0  0  0  0  0  0  0  0  0
  1  2  1  0
  2  3  1  0
  3  4  1  1
  3  5  1  0
  5  6  2  0
  6  7  1  0
  7  8  2  0
  7  9  1  0
  9 10  1  0
 10 11  2  0
 11 12  1  0
 12 13  2  0
 13 14  1  0
 14 15  2  0
 14 16  1  0
 16 17  1  0
 17 18  1  0
  6 19  1  0
 19 20  2  0
 20 21  1  0
 20 22  1  0
 22 23  2  0
 23 24  1  0
 24 25  1  0
 25 26  1  0
 26 27  1  0
 27 28  1  0
 28 29  1  1
 28  3  1  0
 23  5  1  0
 28 24  1  0
 15 10  1  0
 18 13  1  0
M  END
>  <smiles>  (1686) 
C24347-P207

>  <fragmenstein_outcome>  (1686) 
acceptable

>  <inchikey>  (1686) 
NSAADNNFRVZRMX-UHFFFAOYSA-N

>  <fragmenstein_mode>  (1686) 
expansion

>  <HIPPO Pose ID>  (1686) 
22753

>  <Energy>  (1686) 
82.861206

>  <fragmenstein_error>  (1686) 


>  <tags>  (1686) 
{'openbind_xx01zvns2b_c1_fragmenstein', 'fragmenstein_placed'}

>  <ref_pdb>  (1686) 
175

>  <scratch_subdir>  (1686) 
/opt/xchem-fragalysis-2/maxwin/BulkDock/SCRATCH/511028/C24347-P207

>  <alias>  (1686) 
CO[C@@]1(C)c2c(C(=O)Nc3ccc4c(c3)CNC4)cc(F)cc2N2CNN[C@]21O

>  <HIPPO Compound ID>  (1686) 
24347

>  <fragmenstein_runtime>  (1686) 
6.255437

$$$$
CNC[C@H]1Nc2cc(F)cc(C(=O)Nc3ccc4c(c3)CNC4)c2[C@@]1(C)OC
     RDKit          3D

 28 31  0  0  0  0  0  0  0  0999 V2000
   -2.7150    7.8835  -17.6620 C   0  0  0  0  0  0  0  0  0  0  0  0
   -2.5461    6.4787  -17.3339 N   0  0  0  0  0  0  0  0  0  0  0  0
   -3.2522    6.0838  -16.0947 C   0  0  0  0  0  0  0  0  0  0  0  0
   -4.7943    6.1138  -16.1989 C   0  0  1  0  0  0  0  0  0  0  0  0
   -5.2795    5.3405  -17.3821 N   0  0  0  0  0  0  0  0  0  0  0  0
   -6.5960    4.9890  -16.9799 C   0  0  0  0  0  0  0  0  0  0  0  0
   -7.5907    4.5139  -17.8229 C   0  0  0  0  0  0  0  0  0  0  0  0
   -8.8246    4.1861  -17.2655 C   0  0  0  0  0  0  0  0  0  0  0  0
   -9.8118    3.7234  -18.0481 F   0  0  0  0  0  0  0  0  0  0  0  0
   -9.0707    4.3587  -15.9042 C   0  0  0  0  0  0  0  0  0  0  0  0
   -8.0727    4.8717  -15.0800 C   0  0  0  0  0  0  0  0  0  0  0  0
   -8.3907    5.3312  -13.7191 C   0  0  0  0  0  0  0  0  0  0  0  0
   -8.4779    6.4806  -13.5440 O   0  0  0  0  0  0  0  0  0  0  0  0
   -8.4550    4.1636  -12.7222 N   0  0  0  0  0  0  0  0  0  0  0  0
   -8.5422    4.1642  -11.3342 C   0  0  0  0  0  0  0  0  0  0  0  0
   -8.3725    5.3546  -10.6050 C   0  0  0  0  0  0  0  0  0  0  0  0
   -8.3997    5.3500   -9.2076 C   0  0  0  0  0  0  0  0  0  0  0  0
   -8.6388    4.1494   -8.5680 C   0  0  0  0  0  0  0  0  0  0  0  0
   -8.8044    2.9713   -9.2898 C   0  0  0  0  0  0  0  0  0  0  0  0
   -8.7340    2.9551  -10.6711 C   0  0  0  0  0  0  0  0  0  0  0  0
   -9.0412    1.8463   -8.3391 C   0  0  0  0  0  0  0  0  0  0  0  0
   -9.3889    2.5021   -7.0497 N   0  0  0  0  0  0  0  0  0  0  0  0
   -8.7807    3.8486   -7.1142 C   0  0  0  0  0  0  0  0  0  0  0  0
   -6.8063    5.1172  -15.6004 C   0  0  0  0  0  0  0  0  0  0  0  0
   -5.5223    5.5361  -14.9228 C   0  0  2  0  0  0  0  0  0  0  0  0
   -5.5598    6.6367  -13.8583 C   0  0  0  0  0  0  0  0  0  0  0  0
   -4.7673    4.3999  -14.4612 O   0  0  0  0  0  0  0  0  0  0  0  0
   -5.2934    3.6379  -13.3908 C   0  0  0  0  0  0  0  0  0  0  0  0
  1  2  1  0
  2  3  1  0
  4  3  1  1
  4  5  1  0
  5  6  1  0
  6  7  2  0
  7  8  1  0
  8  9  1  0
  8 10  2  0
 10 11  1  0
 11 12  1  0
 12 13  2  0
 12 14  1  0
 14 15  1  0
 15 16  2  0
 16 17  1  0
 17 18  2  0
 18 19  1  0
 19 20  2  0
 19 21  1  0
 21 22  1  0
 22 23  1  0
 11 24  2  0
 24 25  1  0
 25 26  1  1
 25 27  1  0
 27 28  1  0
 25  4  1  0
 24  6  1  0
 20 15  1  0
 23 18  1  0
M  END
>  <smiles>  (1687) 
C24315-P207

>  <fragmenstein_outcome>  (1687) 
acceptable

>  <inchikey>  (1687) 
MGZYHYUBOBABSI-UHFFFAOYSA-N

>  <fragmenstein_mode>  (1687) 
expansion

>  <HIPPO Pose ID>  (1687) 
22755

>  <Energy>  (1687) 
106.225002

>  <fragmenstein_error>  (1687) 


>  <tags>  (1687) 
{'openbind_xx01zvns2b_c1_fragmenstein', 'fragmenstein_placed'}

>  <ref_pdb>  (1687) 
175

>  <scratch_subdir>  (1687) 
/opt/xchem-fragalysis-2/maxwin/BulkDock/SCRATCH/511028/C24315-P207

>  <alias>  (1687) 
CNC[C@H]1Nc2cc(F)cc(C(=O)Nc3ccc4c(c3)CNC4)c2[C@@]1(C)OC

>  <HIPPO Compound ID>  (1687) 
24315

>  <fragmenstein_runtime>  (1687) 
8.401743

$$$$
CC(=O)N[C@](O)(Nc1ccc2c(c1)CN[C@@H]2CC(=O)O)c1cc(Cl)cc2[nH]ncc12
     RDKit          3D

 30 33  0  0  0  0  0  0  0  0999 V2000
   -4.7415    1.9162  -12.2977 C   0  0  0  0  0  0  0  0  0  0  0  0
   -5.1582    2.8871  -13.3779 C   0  0  0  0  0  0  0  0  0  0  0  0
   -4.4873    3.1632  -14.2888 O   0  0  0  0  0  0  0  0  0  0  0  0
   -6.5323    3.4373  -12.9451 N   0  0  0  0  0  0  0  0  0  0  0  0
   -7.3127    4.4935  -13.4816 C   0  0  2  0  0  0  0  0  0  0  0  0
   -6.7197    5.7018  -13.0763 O   0  0  0  0  0  0  0  0  0  0  0  0
   -8.6135    4.3923  -12.8126 N   0  0  0  0  0  0  0  0  0  0  0  0
   -8.6460    4.4018  -11.3915 C   0  0  0  0  0  0  0  0  0  0  0  0
   -8.3399    5.5608  -10.6516 C   0  0  0  0  0  0  0  0  0  0  0  0
   -8.2315    5.5385   -9.2554 C   0  0  0  0  0  0  0  0  0  0  0  0
   -8.4512    4.3443   -8.5976 C   0  0  0  0  0  0  0  0  0  0  0  0
   -8.8104    3.2019   -9.3061 C   0  0  0  0  0  0  0  0  0  0  0  0
   -8.9087    3.2113  -10.6904 C   0  0  0  0  0  0  0  0  0  0  0  0
   -8.9752    2.0541   -8.3662 C   0  0  0  0  0  0  0  0  0  0  0  0
   -8.8815    2.6442   -6.9932 N   0  0  0  0  0  0  0  0  0  0  0  0
   -8.2226    3.9723   -7.1688 C   0  0  2  0  0  0  0  0  0  0  0  0
   -8.5904    4.9592   -6.0725 C   0  0  0  0  0  0  0  0  0  0  0  0
  -10.0560    5.1617   -5.8252 C   0  0  0  0  0  0  0  0  0  0  0  0
  -10.5391    6.2608   -5.5822 O   0  0  0  0  0  0  0  0  0  0  0  0
  -10.7905    4.0323   -5.7921 O   0  0  0  0  0  0  0  0  0  0  0  0
   -7.4450    4.5585  -15.0029 C   0  0  0  0  0  0  0  0  0  0  0  0
   -8.6397    4.2128  -15.6946 C   0  0  0  0  0  0  0  0  0  0  0  0
   -8.7614    4.3014  -17.0875 C   0  0  0  0  0  0  0  0  0  0  0  0
  -10.2538    3.9362  -17.8613 Cl  0  0  0  0  0  0  0  0  0  0  0  0
   -7.7068    4.7221  -17.8858 C   0  0  0  0  0  0  0  0  0  0  0  0
   -6.5542    5.1179  -17.2184 C   0  0  0  0  0  0  0  0  0  0  0  0
   -5.3748    5.6131  -17.7041 N   0  0  0  0  0  0  0  0  0  0  0  0
   -4.5121    6.0058  -16.7545 N   0  0  0  0  0  0  0  0  0  0  0  0
   -5.1197    5.6313  -15.6250 C   0  0  0  0  0  0  0  0  0  0  0  0
   -6.4068    5.0682  -15.8361 C   0  0  0  0  0  0  0  0  0  0  0  0
  1  2  1  0
  2  3  2  0
  2  4  1  0
  4  5  1  0
  5  6  1  1
  5  7  1  0
  7  8  1  0
  8  9  2  0
  9 10  1  0
 10 11  2  0
 11 12  1  0
 12 13  2  0
 12 14  1  0
 14 15  1  0
 15 16  1  0
 16 17  1  1
 17 18  1  0
 18 19  2  0
 18 20  1  0
  5 21  1  0
 21 22  2  0
 22 23  1  0
 23 24  1  0
 23 25  2  0
 25 26  1  0
 26 27  1  0
 27 28  1  0
 28 29  2  0
 29 30  1  0
 13  8  1  0
 30 21  1  0
 16 11  1  0
 30 26  2  0
M  END
>  <smiles>  (1688) 
C24392-P207

>  <fragmenstein_outcome>  (1688) 
acceptable

>  <inchikey>  (1688) 
YYFBGEIHKHYNHO-UHFFFAOYSA-N

>  <fragmenstein_mode>  (1688) 
expansion

>  <HIPPO Pose ID>  (1688) 
22763

>  <Energy>  (1688) 
-108.942454

>  <fragmenstein_error>  (1688) 


>  <tags>  (1688) 
{'openbind_xx01zvns2b_c1_fragmenstein', 'fragmenstein_placed'}

>  <ref_pdb>  (1688) 
175

>  <scratch_subdir>  (1688) 
/opt/xchem-fragalysis-2/maxwin/BulkDock/SCRATCH/511028/C24392-P207

>  <alias>  (1688) 
CC(=O)N[C@](O)(Nc1ccc2c(c1)CN[C@@H]2CC(=O)O)c1cc(Cl)cc2[nH]ncc12

>  <HIPPO Compound ID>  (1688) 
24392

>  <fragmenstein_runtime>  (1688) 
5.410275

$$$$
O=C(O)C[C@H]1NCc2cc(N[C@](O)(C(=O)NCC(F)F)c3cc(Cl)cc4[nH]ncc34)ccc21
     RDKit          3D

 33 36  0  0  0  0  0  0  0  0999 V2000
   -8.1586    7.0395   -6.0767 O   0  0  0  0  0  0  0  0  0  0  0  0
   -8.0836    5.8513   -5.8136 C   0  0  0  0  0  0  0  0  0  0  0  0
   -7.0514    5.4028   -5.0684 O   0  0  0  0  0  0  0  0  0  0  0  0
   -9.0662    4.7880   -6.2017 C   0  0  0  0  0  0  0  0  0  0  0  0
   -8.4339    3.7795   -7.1485 C   0  0  1  0  0  0  0  0  0  0  0  0
   -9.2321    2.5248   -7.1766 N   0  0  0  0  0  0  0  0  0  0  0  0
   -9.0124    1.9261   -8.5157 C   0  0  0  0  0  0  0  0  0  0  0  0
   -8.6098    3.0673   -9.3896 C   0  0  0  0  0  0  0  0  0  0  0  0
   -8.4670    3.0965  -10.7743 C   0  0  0  0  0  0  0  0  0  0  0  0
   -7.9947    4.2568  -11.4078 C   0  0  0  0  0  0  0  0  0  0  0  0
   -7.7521    4.2024  -12.7880 N   0  0  0  0  0  0  0  0  0  0  0  0
   -7.3233    5.3326  -13.6155 C   0  0  2  0  0  0  0  0  0  0  0  0
   -5.9641    5.5537  -13.2699 O   0  0  0  0  0  0  0  0  0  0  0  0
   -8.2431    6.6399  -13.3588 C   0  0  0  0  0  0  0  0  0  0  0  0
   -9.4126    6.6447  -13.4231 O   0  0  0  0  0  0  0  0  0  0  0  0
   -7.2461    7.7855  -12.9990 N   0  0  0  0  0  0  0  0  0  0  0  0
   -7.4824    9.1879  -12.7397 C   0  0  0  0  0  0  0  0  0  0  0  0
   -7.9167    9.4746  -11.3055 C   0  0  0  0  0  0  0  0  0  0  0  0
   -6.8809    9.2120  -10.4636 F   0  0  0  0  0  0  0  0  0  0  0  0
   -8.1838   10.8010  -11.1812 F   0  0  0  0  0  0  0  0  0  0  0  0
   -7.3681    5.0040  -15.1129 C   0  0  0  0  0  0  0  0  0  0  0  0
   -8.6060    4.6413  -15.6997 C   0  0  0  0  0  0  0  0  0  0  0  0
   -8.7478    4.4519  -17.0719 C   0  0  0  0  0  0  0  0  0  0  0  0
  -10.2998    4.1540  -17.7207 Cl  0  0  0  0  0  0  0  0  0  0  0  0
   -7.6767    4.5843  -17.9431 C   0  0  0  0  0  0  0  0  0  0  0  0
   -6.4540    4.9251  -17.3757 C   0  0  0  0  0  0  0  0  0  0  0  0
   -5.2349    5.1280  -17.9652 N   0  0  0  0  0  0  0  0  0  0  0  0
   -4.2655    5.4767  -17.1014 N   0  0  0  0  0  0  0  0  0  0  0  0
   -4.8916    5.4634  -15.9209 C   0  0  0  0  0  0  0  0  0  0  0  0
   -6.2698    5.1325  -16.0116 C   0  0  0  0  0  0  0  0  0  0  0  0
   -7.6451    5.3405  -10.5767 C   0  0  0  0  0  0  0  0  0  0  0  0
   -7.8148    5.3161   -9.1818 C   0  0  0  0  0  0  0  0  0  0  0  0
   -8.2936    4.1649   -8.5947 C   0  0  0  0  0  0  0  0  0  0  0  0
  1  2  2  0
  2  3  1  0
  2  4  1  0
  5  4  1  1
  5  6  1  0
  6  7  1  0
  7  8  1  0
  8  9  2  0
  9 10  1  0
 10 11  1  0
 11 12  1  0
 12 13  1  1
 12 14  1  0
 14 15  2  0
 14 16  1  0
 16 17  1  0
 17 18  1  0
 18 19  1  0
 18 20  1  0
 12 21  1  0
 21 22  2  0
 22 23  1  0
 23 24  1  0
 23 25  2  0
 25 26  1  0
 26 27  1  0
 27 28  1  0
 28 29  2  0
 29 30  1  0
 10 31  2  0
 31 32  1  0
 32 33  2  0
 33  5  1  0
 33  8  1  0
 30 21  1  0
 30 26  2  0
M  END
>  <smiles>  (1689) 
C24457-P208

>  <fragmenstein_outcome>  (1689) 
acceptable

>  <inchikey>  (1689) 
HTKCIUCVAVIKNN-UHFFFAOYSA-N

>  <fragmenstein_mode>  (1689) 
expansion

>  <HIPPO Pose ID>  (1689) 
22786

>  <Energy>  (1689) 
94.193564

>  <fragmenstein_error>  (1689) 


>  <tags>  (1689) 
{'openbind_xx01zvns2b_c1_fragmenstein', 'fragmenstein_placed'}

>  <ref_pdb>  (1689) 
175

>  <scratch_subdir>  (1689) 
/opt/xchem-fragalysis-2/maxwin/BulkDock/SCRATCH/511028/C24457-P208

>  <alias>  (1689) 
O=C(O)C[C@H]1NCc2cc(N[C@](O)(C(=O)NCC(F)F)c3cc(Cl)cc4[nH]ncc34)ccc21

>  <HIPPO Compound ID>  (1689) 
24457

>  <fragmenstein_runtime>  (1689) 
5.82945

$$$$
Cc1ccc(S(=O)(=O)CNC(=O)[C@@](O)(Nc2ccc3c(c2)CN[C@H]3CC(=O)O)c2cc(Cl)cc3n[nH]cc23)cc1
     RDKit          3D

 40 44  0  0  0  0  0  0  0  0999 V2000
   -7.7788    9.1338   -6.0712 C   0  0  0  0  0  0  0  0  0  0  0  0
   -7.4258    9.3655   -7.5107 C   0  0  0  0  0  0  0  0  0  0  0  0
   -8.2756   10.1333   -8.3172 C   0  0  0  0  0  0  0  0  0  0  0  0
   -7.9597   10.3651   -9.6547 C   0  0  0  0  0  0  0  0  0  0  0  0
   -6.8014    9.7997  -10.1938 C   0  0  0  0  0  0  0  0  0  0  0  0
   -6.3884   10.1357  -11.8850 S   0  0  0  0  0  0  0  0  0  0  0  0
   -6.6721   11.5396  -12.1238 O   0  0  0  0  0  0  0  0  0  0  0  0
   -5.0596    9.6027  -12.1388 O   0  0  0  0  0  0  0  0  0  0  0  0
   -7.5597    9.1500  -12.8163 C   0  0  0  0  0  0  0  0  0  0  0  0
   -7.3355    7.7241  -12.8899 N   0  0  0  0  0  0  0  0  0  0  0  0
   -8.3274    6.5583  -13.1790 C   0  0  0  0  0  0  0  0  0  0  0  0
   -9.4885    6.5697  -13.3247 O   0  0  0  0  0  0  0  0  0  0  0  0
   -7.4063    5.2399  -13.3322 C   0  0  1  0  0  0  0  0  0  0  0  0
   -6.0965    5.4581  -12.8370 O   0  0  0  0  0  0  0  0  0  0  0  0
   -7.9028    4.1139  -12.5475 N   0  0  0  0  0  0  0  0  0  0  0  0
   -8.1381    4.1356  -11.1650 C   0  0  0  0  0  0  0  0  0  0  0  0
   -7.8990    5.2423  -10.3234 C   0  0  0  0  0  0  0  0  0  0  0  0
   -8.1425    5.2062   -8.9370 C   0  0  0  0  0  0  0  0  0  0  0  0
   -8.5796    4.0276   -8.3662 C   0  0  0  0  0  0  0  0  0  0  0  0
   -8.7459    2.9054   -9.1683 C   0  0  0  0  0  0  0  0  0  0  0  0
   -8.5251    2.9390  -10.5437 C   0  0  0  0  0  0  0  0  0  0  0  0
   -9.2021    1.7723   -8.3174 C   0  0  0  0  0  0  0  0  0  0  0  0
   -9.7908    2.4156   -7.1107 N   0  0  0  0  0  0  0  0  0  0  0  0
   -9.1073    3.7470   -6.9848 C   0  0  1  0  0  0  0  0  0  0  0  0
   -8.1847    3.6755   -5.7714 C   0  0  0  0  0  0  0  0  0  0  0  0
   -7.2456    4.8286   -5.6400 C   0  0  0  0  0  0  0  0  0  0  0  0
   -7.5049    6.0072   -5.8174 O   0  0  0  0  0  0  0  0  0  0  0  0
   -6.0129    4.4881   -5.1854 O   0  0  0  0  0  0  0  0  0  0  0  0
   -7.3311    4.9402  -14.8282 C   0  0  0  0  0  0  0  0  0  0  0  0
   -8.4976    4.5812  -15.5756 C   0  0  0  0  0  0  0  0  0  0  0  0
   -8.5596    4.4507  -17.0007 C   0  0  0  0  0  0  0  0  0  0  0  0
  -10.0890    4.1250  -17.7250 Cl  0  0  0  0  0  0  0  0  0  0  0  0
   -7.4684    4.6466  -17.8560 C   0  0  0  0  0  0  0  0  0  0  0  0
   -6.2976    4.9946  -17.1776 C   0  0  0  0  0  0  0  0  0  0  0  0
   -5.0883    5.2858  -17.6867 N   0  0  0  0  0  0  0  0  0  0  0  0
   -4.3227    5.5520  -16.6242 N   0  0  0  0  0  0  0  0  0  0  0  0
   -4.9795    5.5032  -15.4316 C   0  0  0  0  0  0  0  0  0  0  0  0
   -6.2631    5.1260  -15.7295 C   0  0  0  0  0  0  0  0  0  0  0  0
   -5.9538    9.0164   -9.4088 C   0  0  0  0  0  0  0  0  0  0  0  0
   -6.2732    8.7967   -8.0685 C   0  0  0  0  0  0  0  0  0  0  0  0
  1  2  1  0
  2  3  2  0
  3  4  1  0
  4  5  2  0
  5  6  1  0
  6  7  2  0
  6  8  2  0
  6  9  1  0
  9 10  1  0
 10 11  1  0
 11 12  2  0
 11 13  1  0
 13 14  1  1
 13 15  1  0
 15 16  1  0
 16 17  2  0
 17 18  1  0
 18 19  2  0
 19 20  1  0
 20 21  2  0
 20 22  1  0
 22 23  1  0
 23 24  1  0
 24 25  1  1
 25 26  1  0
 26 27  2  0
 26 28  1  0
 13 29  1  0
 29 30  2  0
 30 31  1  0
 31 32  1  0
 31 33  2  0
 33 34  1  0
 34 35  2  0
 35 36  1  0
 36 37  1  0
 37 38  2  0
  5 39  1  0
 39 40  2  0
 40  2  1  0
 21 16  1  0
 38 29  1  0
 24 19  1  0
 38 34  1  0
M  END
>  <smiles>  (1690) 
C24474-P208

>  <fragmenstein_outcome>  (1690) 
acceptable

>  <inchikey>  (1690) 
NLFOLQQWBJLQEK-UHFFFAOYSA-N

>  <fragmenstein_mode>  (1690) 
expansion

>  <HIPPO Pose ID>  (1690) 
22790

>  <Energy>  (1690) 
144.949781

>  <fragmenstein_error>  (1690) 


>  <tags>  (1690) 
{'openbind_xx01zvns2b_c1_fragmenstein', 'fragmenstein_placed'}

>  <ref_pdb>  (1690) 
175

>  <scratch_subdir>  (1690) 
/opt/xchem-fragalysis-2/maxwin/BulkDock/SCRATCH/511028/C24474-P208

>  <alias>  (1690) 
Cc1ccc(S(=O)(=O)CNC(=O)[C@@](O)(Nc2ccc3c(c2)CN[C@H]3CC(=O)O)c2cc(Cl)cc3n[nH]cc23)cc1

>  <HIPPO Compound ID>  (1690) 
24474

>  <fragmenstein_runtime>  (1690) 
6.850538

$$$$
O=C(O)C[C@@H]1NCc2cc(N[C@](O)(C(=O)NCC3CCOCC3)c3cc(Cl)cc4[nH]ncc34)ccc21
     RDKit          3D

 36 40  0  0  0  0  0  0  0  0999 V2000
   -5.8575    4.3012   -5.2454 O   0  0  0  0  0  0  0  0  0  0  0  0
   -6.5430    4.7387   -6.1635 C   0  0  0  0  0  0  0  0  0  0  0  0
   -5.9481    5.1737   -7.2886 O   0  0  0  0  0  0  0  0  0  0  0  0
   -8.0273    4.9450   -6.1322 C   0  0  0  0  0  0  0  0  0  0  0  0
   -8.8398    4.1490   -7.1501 C   0  0  2  0  0  0  0  0  0  0  0  0
   -8.7561    2.6917   -6.9939 N   0  0  0  0  0  0  0  0  0  0  0  0
   -8.8621    2.0789   -8.3374 C   0  0  0  0  0  0  0  0  0  0  0  0
   -8.5991    3.1955   -9.2968 C   0  0  0  0  0  0  0  0  0  0  0  0
   -8.4659    3.1546  -10.6810 C   0  0  0  0  0  0  0  0  0  0  0  0
   -8.2922    4.3527  -11.3971 C   0  0  0  0  0  0  0  0  0  0  0  0
   -8.1836    4.3157  -12.7957 N   0  0  0  0  0  0  0  0  0  0  0  0
   -7.0348    4.9010  -13.5047 C   0  0  2  0  0  0  0  0  0  0  0  0
   -5.9018    4.1342  -13.1166 O   0  0  0  0  0  0  0  0  0  0  0  0
   -6.8356    6.4780  -13.2184 C   0  0  0  0  0  0  0  0  0  0  0  0
   -7.6220    7.2991  -13.5019 O   0  0  0  0  0  0  0  0  0  0  0  0
   -5.4253    6.6127  -12.5596 N   0  0  0  0  0  0  0  0  0  0  0  0
   -4.6672    7.7834  -12.2082 C   0  0  0  0  0  0  0  0  0  0  0  0
   -4.0960    7.7060  -10.7882 C   0  0  0  0  0  0  0  0  0  0  0  0
   -5.2217    7.6270   -9.7438 C   0  0  0  0  0  0  0  0  0  0  0  0
   -4.7511    8.1483   -8.3950 C   0  0  0  0  0  0  0  0  0  0  0  0
   -4.3232    9.5103   -8.4340 O   0  0  0  0  0  0  0  0  0  0  0  0
   -3.8812    9.9757   -9.7076 C   0  0  0  0  0  0  0  0  0  0  0  0
   -3.1621    8.8937  -10.4996 C   0  0  0  0  0  0  0  0  0  0  0  0
   -7.1748    4.7625  -15.0259 C   0  0  0  0  0  0  0  0  0  0  0  0
   -8.4300    4.5165  -15.6391 C   0  0  0  0  0  0  0  0  0  0  0  0
   -8.5737    4.4472  -17.0250 C   0  0  0  0  0  0  0  0  0  0  0  0
  -10.1162    4.1496  -17.7095 Cl  0  0  0  0  0  0  0  0  0  0  0  0
   -7.5011    4.6540  -17.8832 C   0  0  0  0  0  0  0  0  0  0  0  0
   -6.2739    4.9245  -17.2884 C   0  0  0  0  0  0  0  0  0  0  0  0
   -5.0531    5.1772  -17.8499 N   0  0  0  0  0  0  0  0  0  0  0  0
   -4.0717    5.3934  -16.9568 N   0  0  0  0  0  0  0  0  0  0  0  0
   -4.6982    5.2571  -15.7834 C   0  0  0  0  0  0  0  0  0  0  0  0
   -6.0822    4.9734  -15.9128 C   0  0  0  0  0  0  0  0  0  0  0  0
   -8.2724    5.5581  -10.6727 C   0  0  0  0  0  0  0  0  0  0  0  0
   -8.3993    5.5914   -9.2790 C   0  0  0  0  0  0  0  0  0  0  0  0
   -8.5635    4.4000   -8.6018 C   0  0  0  0  0  0  0  0  0  0  0  0
  1  2  2  0
  2  3  1  0
  2  4  1  0
  5  4  1  1
  5  6  1  0
  6  7  1  0
  7  8  1  0
  8  9  2  0
  9 10  1  0
 10 11  1  0
 11 12  1  0
 12 13  1  1
 12 14  1  0
 14 15  2  0
 14 16  1  0
 16 17  1  0
 17 18  1  0
 18 19  1  0
 19 20  1  0
 20 21  1  0
 21 22  1  0
 22 23  1  0
 12 24  1  0
 24 25  2  0
 25 26  1  0
 26 27  1  0
 26 28  2  0
 28 29  1  0
 29 30  1  0
 30 31  1  0
 31 32  2  0
 32 33  1  0
 10 34  2  0
 34 35  1  0
 35 36  2  0
 36  5  1  0
 36  8  1  0
 23 18  1  0
 33 24  1  0
 33 29  2  0
M  END
>  <smiles>  (1691) 
C24477-P208

>  <fragmenstein_outcome>  (1691) 
acceptable

>  <inchikey>  (1691) 
SXRGLDMVXSNGGT-UHFFFAOYSA-N

>  <fragmenstein_mode>  (1691) 
expansion

>  <HIPPO Pose ID>  (1691) 
22792

>  <Energy>  (1691) 
86.959503

>  <fragmenstein_error>  (1691) 


>  <tags>  (1691) 
{'openbind_xx01zvns2b_c1_fragmenstein', 'fragmenstein_placed'}

>  <ref_pdb>  (1691) 
175

>  <scratch_subdir>  (1691) 
/opt/xchem-fragalysis-2/maxwin/BulkDock/SCRATCH/511028/C24477-P208

>  <alias>  (1691) 
O=C(O)C[C@@H]1NCc2cc(N[C@](O)(C(=O)NCC3CCOCC3)c3cc(Cl)cc4[nH]ncc34)ccc21

>  <HIPPO Compound ID>  (1691) 
24477

>  <fragmenstein_runtime>  (1691) 
6.807519

$$$$
CNCn1ncc2c(C(=O)Nc3cc4c(c5c3OC(C)(C)C5)[C@@H](CC(=O)O)NC4)cc(Cl)cc21
     RDKit          3D

 34 38  0  0  0  0  0  0  0  0999 V2000
   -4.2875    8.0253  -19.0721 C   0  0  0  0  0  0  0  0  0  0  0  0
   -5.0201    6.7879  -19.2934 N   0  0  0  0  0  0  0  0  0  0  0  0
   -4.4656    5.6827  -18.5021 C   0  0  0  0  0  0  0  0  0  0  0  0
   -5.0122    5.7505  -17.1498 N   0  0  0  0  0  0  0  0  0  0  0  0
   -4.2528    6.2146  -16.1256 N   0  0  0  0  0  0  0  0  0  0  0  0
   -5.0675    6.1238  -15.0724 C   0  0  0  0  0  0  0  0  0  0  0  0
   -6.3285    5.5782  -15.3960 C   0  0  0  0  0  0  0  0  0  0  0  0
   -7.5179    5.2849  -14.7045 C   0  0  0  0  0  0  0  0  0  0  0  0
   -7.6339    5.7020  -13.2934 C   0  0  0  0  0  0  0  0  0  0  0  0
   -7.4548    6.8283  -13.0420 O   0  0  0  0  0  0  0  0  0  0  0  0
   -7.9190    4.4997  -12.3625 N   0  0  0  0  0  0  0  0  0  0  0  0
   -8.1308    4.4504  -10.9769 C   0  0  0  0  0  0  0  0  0  0  0  0
   -8.4980    3.2130  -10.4352 C   0  0  0  0  0  0  0  0  0  0  0  0
   -8.6757    3.0956   -9.0563 C   0  0  0  0  0  0  0  0  0  0  0  0
   -8.4898    4.1668   -8.1778 C   0  0  0  0  0  0  0  0  0  0  0  0
   -8.1435    5.3880   -8.7081 C   0  0  0  0  0  0  0  0  0  0  0  0
   -7.9650    5.5187  -10.0902 C   0  0  0  0  0  0  0  0  0  0  0  0
   -7.5626    6.7817  -10.4409 O   0  0  0  0  0  0  0  0  0  0  0  0
   -7.7072    7.6008   -9.2576 C   0  0  0  0  0  0  0  0  0  0  0  0
   -6.4626    8.4839   -9.1532 C   0  0  0  0  0  0  0  0  0  0  0  0
   -8.9512    8.4787   -9.4393 C   0  0  0  0  0  0  0  0  0  0  0  0
   -7.8322    6.6704   -8.0379 C   0  0  0  0  0  0  0  0  0  0  0  0
   -8.6419    3.6617   -6.7690 C   0  0  1  0  0  0  0  0  0  0  0  0
   -9.4246    4.5294   -5.7897 C   0  0  0  0  0  0  0  0  0  0  0  0
   -8.5152    5.4617   -5.0403 C   0  0  0  0  0  0  0  0  0  0  0  0
   -7.3099    5.3696   -4.8736 O   0  0  0  0  0  0  0  0  0  0  0  0
   -9.1976    6.4810   -4.4771 O   0  0  0  0  0  0  0  0  0  0  0  0
   -9.3438    2.3567   -6.9246 N   0  0  0  0  0  0  0  0  0  0  0  0
   -9.0188    1.8673   -8.2811 C   0  0  0  0  0  0  0  0  0  0  0  0
   -8.6035    4.7343  -15.3943 C   0  0  0  0  0  0  0  0  0  0  0  0
   -8.5076    4.5240  -16.7686 C   0  0  0  0  0  0  0  0  0  0  0  0
   -9.8819    3.9861  -17.6425 Cl  0  0  0  0  0  0  0  0  0  0  0  0
   -7.3457    4.8181  -17.4857 C   0  0  0  0  0  0  0  0  0  0  0  0
   -6.2658    5.3378  -16.7636 C   0  0  0  0  0  0  0  0  0  0  0  0
  1  2  1  0
  2  3  1  0
  3  4  1  0
  4  5  1  0
  5  6  2  0
  6  7  1  0
  7  8  2  0
  8  9  1  0
  9 10  2  0
  9 11  1  0
 11 12  1  0
 12 13  2  0
 13 14  1  0
 14 15  2  0
 15 16  1  0
 16 17  2  0
 17 18  1  0
 18 19  1  0
 19 20  1  0
 19 21  1  0
 19 22  1  0
 15 23  1  0
 23 24  1  1
 24 25  1  0
 25 26  2  0
 25 27  1  0
 23 28  1  0
 28 29  1  0
  8 30  1  0
 30 31  2  0
 31 32  1  0
 31 33  1  0
 33 34  2  0
 34  4  1  0
 34  7  1  0
 17 12  1  0
 29 14  1  0
 22 16  1  0
M  END
>  <smiles>  (1692) 
C24539-P208

>  <fragmenstein_outcome>  (1692) 
acceptable

>  <inchikey>  (1692) 
NPZLTSWKWVSIAX-UHFFFAOYSA-N

>  <fragmenstein_mode>  (1692) 
expansion

>  <HIPPO Pose ID>  (1692) 
22799

>  <Energy>  (1692) 
91.853183

>  <fragmenstein_error>  (1692) 


>  <tags>  (1692) 
{'openbind_xx01zvns2b_c1_fragmenstein', 'fragmenstein_placed'}

>  <ref_pdb>  (1692) 
175

>  <scratch_subdir>  (1692) 
/opt/xchem-fragalysis-2/maxwin/BulkDock/SCRATCH/511028/C24539-P208

>  <alias>  (1692) 
CNCn1ncc2c(C(=O)Nc3cc4c(c5c3OC(C)(C)C5)[C@@H](CC(=O)O)NC4)cc(Cl)cc21

>  <HIPPO Compound ID>  (1692) 
24539

>  <fragmenstein_runtime>  (1692) 
6.481148

$$$$
NCc1c(Cl)cc([C@@H](N=O)Nc2ccc3c(c2)CN[C@@H]3CC(=O)O)c2cn[nH]c12
     RDKit          3D

 29 32  0  0  0  0  0  0  0  0999 V2000
   -6.0703    5.5875  -19.7154 N   0  0  0  0  0  0  0  0  0  0  0  0
   -6.9228    4.5308  -19.1379 C   0  0  0  0  0  0  0  0  0  0  0  0
   -7.1440    4.7181  -17.6721 C   0  0  0  0  0  0  0  0  0  0  0  0
   -8.3522    4.4939  -16.9928 C   0  0  0  0  0  0  0  0  0  0  0  0
   -9.8015    4.1052  -17.8537 Cl  0  0  0  0  0  0  0  0  0  0  0  0
   -8.4372    4.5902  -15.5940 C   0  0  0  0  0  0  0  0  0  0  0  0
   -7.3072    4.8595  -14.7839 C   0  0  0  0  0  0  0  0  0  0  0  0
   -7.3785    5.0143  -13.2710 C   0  0  1  0  0  0  0  0  0  0  0  0
   -7.1343    6.4689  -12.9469 N   0  0  0  0  0  0  0  0  0  0  0  0
   -8.0799    7.2061  -13.2560 O   0  0  0  0  0  0  0  0  0  0  0  0
   -8.5967    4.4423  -12.6644 N   0  0  0  0  0  0  0  0  0  0  0  0
   -8.5438    4.3093  -11.2506 C   0  0  0  0  0  0  0  0  0  0  0  0
   -8.4778    5.4417  -10.4115 C   0  0  0  0  0  0  0  0  0  0  0  0
   -8.3852    5.3331   -9.0202 C   0  0  0  0  0  0  0  0  0  0  0  0
   -8.3942    4.0721   -8.4593 C   0  0  0  0  0  0  0  0  0  0  0  0
   -8.4884    2.9434   -9.2619 C   0  0  0  0  0  0  0  0  0  0  0  0
   -8.5650    3.0412  -10.6498 C   0  0  0  0  0  0  0  0  0  0  0  0
   -8.4985    1.7289   -8.3964 C   0  0  0  0  0  0  0  0  0  0  0  0
   -8.1428    2.1939   -7.0202 N   0  0  0  0  0  0  0  0  0  0  0  0
   -8.2754    3.6797   -7.0192 C   0  0  2  0  0  0  0  0  0  0  0  0
   -9.4685    4.0781   -6.1586 C   0  0  0  0  0  0  0  0  0  0  0  0
   -9.0096    4.3889   -4.7638 C   0  0  0  0  0  0  0  0  0  0  0  0
   -8.9347    5.5281   -4.3199 O   0  0  0  0  0  0  0  0  0  0  0  0
   -8.6687    3.3168   -4.0231 O   0  0  0  0  0  0  0  0  0  0  0  0
   -6.0876    5.0743  -15.4716 C   0  0  0  0  0  0  0  0  0  0  0  0
   -4.7477    5.3783  -15.1144 C   0  0  0  0  0  0  0  0  0  0  0  0
   -3.9356    5.5046  -16.1671 N   0  0  0  0  0  0  0  0  0  0  0  0
   -4.7603    5.3074  -17.2069 N   0  0  0  0  0  0  0  0  0  0  0  0
   -6.0533    5.0204  -16.8500 C   0  0  0  0  0  0  0  0  0  0  0  0
  1  2  1  0
  2  3  1  0
  3  4  2  0
  4  5  1  0
  4  6  1  0
  6  7  2  0
  7  8  1  0
  8  9  1  0
  9 10  2  0
  8 11  1  6
 11 12  1  0
 12 13  2  0
 13 14  1  0
 14 15  2  0
 15 16  1  0
 16 17  2  0
 16 18  1  0
 18 19  1  0
 19 20  1  0
 20 21  1  1
 21 22  1  0
 22 23  2  0
 22 24  1  0
  7 25  1  0
 25 26  1  0
 26 27  2  0
 27 28  1  0
 28 29  1  0
 29  3  1  0
 17 12  1  0
 29 25  2  0
 20 15  1  0
M  END
>  <smiles>  (1693) 
C24558-P282

>  <fragmenstein_outcome>  (1693) 
acceptable

>  <inchikey>  (1693) 
XDVLJCGVPCGNMN-UHFFFAOYSA-N

>  <fragmenstein_mode>  (1693) 
expansion

>  <HIPPO Pose ID>  (1693) 
22806

>  <Energy>  (1693) 
27.504139

>  <fragmenstein_error>  (1693) 


>  <tags>  (1693) 
{'openbind_xx01zvns2b_c1_fragmenstein', 'fragmenstein_placed'}

>  <ref_pdb>  (1693) 
175

>  <scratch_subdir>  (1693) 
/opt/xchem-fragalysis-2/maxwin/BulkDock/SCRATCH/511028/C24558-P282

>  <alias>  (1693) 
NCc1c(Cl)cc([C@@H](N=O)Nc2ccc3c(c2)CN[C@@H]3CC(=O)O)c2cn[nH]c12

>  <HIPPO Compound ID>  (1693) 
24558

>  <fragmenstein_runtime>  (1693) 
4.137681

$$$$
NCN1C(=O)Cc2c(C(=O)Nc3ccc4c(n3)CNC4)cccc21
     RDKit          3D

 24 27  0  0  0  0  0  0  0  0999 V2000
   -5.8425    4.4299  -20.0665 N   0  0  0  0  0  0  0  0  0  0  0  0
   -5.5894    5.6190  -19.2920 C   0  0  0  0  0  0  0  0  0  0  0  0
   -5.6254    5.3013  -17.8976 N   0  0  0  0  0  0  0  0  0  0  0  0
   -4.5668    5.5756  -17.0261 C   0  0  0  0  0  0  0  0  0  0  0  0
   -3.4298    5.9167  -17.3213 O   0  0  0  0  0  0  0  0  0  0  0  0
   -5.0956    5.4133  -15.5990 C   0  0  0  0  0  0  0  0  0  0  0  0
   -6.5315    5.0602  -15.8228 C   0  0  0  0  0  0  0  0  0  0  0  0
   -7.5503    4.8576  -14.9104 C   0  0  0  0  0  0  0  0  0  0  0  0
   -7.3840    5.2236  -13.4883 C   0  0  0  0  0  0  0  0  0  0  0  0
   -7.0195    6.3051  -13.2457 O   0  0  0  0  0  0  0  0  0  0  0  0
   -7.8359    4.0891  -12.5516 N   0  0  0  0  0  0  0  0  0  0  0  0
   -8.0181    4.0744  -11.1847 C   0  0  0  0  0  0  0  0  0  0  0  0
   -7.8135    5.2237  -10.4139 C   0  0  0  0  0  0  0  0  0  0  0  0
   -8.0638    5.1845   -9.0415 C   0  0  0  0  0  0  0  0  0  0  0  0
   -8.4946    3.9888   -8.5131 C   0  0  0  0  0  0  0  0  0  0  0  0
   -8.6406    2.8954   -9.3483 C   0  0  0  0  0  0  0  0  0  0  0  0
   -8.4358    2.9010  -10.6764 N   0  0  0  0  0  0  0  0  0  0  0  0
   -9.0567    1.7155   -8.5161 C   0  0  0  0  0  0  0  0  0  0  0  0
   -9.5419    2.2948   -7.2273 N   0  0  0  0  0  0  0  0  0  0  0  0
   -8.8498    3.6019   -7.1203 C   0  0  0  0  0  0  0  0  0  0  0  0
   -8.8204    4.5083  -15.3836 C   0  0  0  0  0  0  0  0  0  0  0  0
   -9.0653    4.3938  -16.7573 C   0  0  0  0  0  0  0  0  0  0  0  0
   -8.0504    4.6638  -17.6740 C   0  0  0  0  0  0  0  0  0  0  0  0
   -6.7910    4.9812  -17.1876 C   0  0  0  0  0  0  0  0  0  0  0  0
  1  2  1  0
  2  3  1  0
  3  4  1  0
  4  5  2  0
  4  6  1  0
  6  7  1  0
  7  8  2  0
  8  9  1  0
  9 10  2  0
  9 11  1  0
 11 12  1  0
 12 13  2  0
 13 14  1  0
 14 15  2  0
 15 16  1  0
 16 17  2  0
 16 18  1  0
 18 19  1  0
 19 20  1  0
  8 21  1  0
 21 22  2  0
 22 23  1  0
 23 24  2  0
 24  3  1  0
 24  7  1  0
 17 12  1  0
 20 15  1  0
M  END
>  <smiles>  (1694) 
C24575-P208

>  <fragmenstein_outcome>  (1694) 
acceptable

>  <inchikey>  (1694) 
CMOBKAKQXYCRRR-UHFFFAOYSA-N

>  <fragmenstein_mode>  (1694) 
expansion

>  <HIPPO Pose ID>  (1694) 
22811

>  <Energy>  (1694) 
1.839053

>  <fragmenstein_error>  (1694) 


>  <tags>  (1694) 
{'openbind_xx01zvns2b_c1_fragmenstein', 'fragmenstein_placed'}

>  <ref_pdb>  (1694) 
175

>  <scratch_subdir>  (1694) 
/opt/xchem-fragalysis-2/maxwin/BulkDock/SCRATCH/511028/C24575-P208

>  <alias>  (1694) 
NCN1C(=O)Cc2c(C(=O)Nc3ccc4c(n3)CNC4)cccc21

>  <HIPPO Compound ID>  (1694) 
24575

>  <fragmenstein_runtime>  (1694) 
3.29289

$$$$
NN1C(=O)Cc2c(C(=O)Nc3ccc4c(n3)CNC4)cccc21
     RDKit          3D

 23 26  0  0  0  0  0  0  0  0999 V2000
   -5.4219    5.1210  -19.4624 N   0  0  0  0  0  0  0  0  0  0  0  0
   -5.5771    5.2109  -18.0801 N   0  0  0  0  0  0  0  0  0  0  0  0
   -4.5423    5.5561  -17.1867 C   0  0  0  0  0  0  0  0  0  0  0  0
   -3.3742    5.8178  -17.4396 O   0  0  0  0  0  0  0  0  0  0  0  0
   -5.1675    5.5522  -15.7826 C   0  0  0  0  0  0  0  0  0  0  0  0
   -6.5792    5.1166  -16.0409 C   0  0  0  0  0  0  0  0  0  0  0  0
   -7.6266    4.9072  -15.1601 C   0  0  0  0  0  0  0  0  0  0  0  0
   -7.5446    5.3229  -13.7403 C   0  0  0  0  0  0  0  0  0  0  0  0
   -7.2259    6.4243  -13.5189 O   0  0  0  0  0  0  0  0  0  0  0  0
   -8.0090    4.2044  -12.7841 N   0  0  0  0  0  0  0  0  0  0  0  0
   -8.0854    4.1767  -11.4047 C   0  0  0  0  0  0  0  0  0  0  0  0
   -7.8577    5.3269  -10.6424 C   0  0  0  0  0  0  0  0  0  0  0  0
   -8.0412    5.2835   -9.2585 C   0  0  0  0  0  0  0  0  0  0  0  0
   -8.4350    4.0840   -8.7093 C   0  0  0  0  0  0  0  0  0  0  0  0
   -8.5991    2.9859   -9.5343 C   0  0  0  0  0  0  0  0  0  0  0  0
   -8.4516    2.9941  -10.8720 N   0  0  0  0  0  0  0  0  0  0  0  0
   -8.9831    1.8068   -8.6818 C   0  0  0  0  0  0  0  0  0  0  0  0
   -9.4231    2.3892   -7.3774 N   0  0  0  0  0  0  0  0  0  0  0  0
   -8.7416    3.7033   -7.3032 C   0  0  0  0  0  0  0  0  0  0  0  0
   -8.8546    4.4704  -15.6741 C   0  0  0  0  0  0  0  0  0  0  0  0
   -9.0276    4.2616  -17.0505 C   0  0  0  0  0  0  0  0  0  0  0  0
   -7.9752    4.4960  -17.9345 C   0  0  0  0  0  0  0  0  0  0  0  0
   -6.7652    4.9163  -17.4085 C   0  0  0  0  0  0  0  0  0  0  0  0
  1  2  1  0
  2  3  1  0
  3  4  2  0
  3  5  1  0
  5  6  1  0
  6  7  2  0
  7  8  1  0
  8  9  2  0
  8 10  1  0
 10 11  1  0
 11 12  2  0
 12 13  1  0
 13 14  2  0
 14 15  1  0
 15 16  2  0
 15 17  1  0
 17 18  1  0
 18 19  1  0
  7 20  1  0
 20 21  2  0
 21 22  1  0
 22 23  2  0
 23  2  1  0
 23  6  1  0
 16 11  1  0
 19 14  1  0
M  END
>  <smiles>  (1695) 
C24577-P208

>  <fragmenstein_outcome>  (1695) 
acceptable

>  <inchikey>  (1695) 
ZHYRIFWPQWZLGO-UHFFFAOYSA-N

>  <fragmenstein_mode>  (1695) 
expansion

>  <HIPPO Pose ID>  (1695) 
22812

>  <Energy>  (1695) 
83.048172

>  <fragmenstein_error>  (1695) 


>  <tags>  (1695) 
{'openbind_xx01zvns2b_c1_fragmenstein', 'fragmenstein_placed'}

>  <ref_pdb>  (1695) 
175

>  <scratch_subdir>  (1695) 
/opt/xchem-fragalysis-2/maxwin/BulkDock/SCRATCH/511028/C24577-P208

>  <alias>  (1695) 
NN1C(=O)Cc2c(C(=O)Nc3ccc4c(n3)CNC4)cccc21

>  <HIPPO Compound ID>  (1695) 
24577

>  <fragmenstein_runtime>  (1695) 
2.456584

$$$$
C[C@@]1(CO)C(=O)Cc2c(C(=O)Nc3ccc4c(n3)CNC4)cccc21
     RDKit          3D

 25 28  0  0  0  0  0  0  0  0999 V2000
   -5.6364    6.5843  -18.9837 C   0  0  0  0  0  0  0  0  0  0  0  0
   -5.3770    5.8481  -17.6764 C   0  0  1  0  0  0  0  0  0  0  0  0
   -4.2415    4.8356  -17.8325 C   0  0  0  0  0  0  0  0  0  0  0  0
   -3.1073    5.3804  -18.5048 O   0  0  0  0  0  0  0  0  0  0  0  0
   -4.9579    6.7890  -16.5350 C   0  0  0  0  0  0  0  0  0  0  0  0
   -4.1638    7.7163  -16.6314 O   0  0  0  0  0  0  0  0  0  0  0  0
   -5.6206    6.3933  -15.2316 C   0  0  0  0  0  0  0  0  0  0  0  0
   -6.7385    5.5156  -15.7062 C   0  0  0  0  0  0  0  0  0  0  0  0
   -7.8242    5.0703  -14.9597 C   0  0  0  0  0  0  0  0  0  0  0  0
   -7.9579    5.4668  -13.5338 C   0  0  0  0  0  0  0  0  0  0  0  0
   -7.8118    6.5949  -13.2731 O   0  0  0  0  0  0  0  0  0  0  0  0
   -8.2424    4.2591  -12.6199 N   0  0  0  0  0  0  0  0  0  0  0  0
   -8.3104    4.1716  -11.2407 C   0  0  0  0  0  0  0  0  0  0  0  0
   -8.1709    5.3161  -10.4464 C   0  0  0  0  0  0  0  0  0  0  0  0
   -8.2956    5.2176   -9.0602 C   0  0  0  0  0  0  0  0  0  0  0  0
   -8.5834    3.9769   -8.5412 C   0  0  0  0  0  0  0  0  0  0  0  0
   -8.6769    2.8923   -9.3963 C   0  0  0  0  0  0  0  0  0  0  0  0
   -8.5341    2.9421  -10.7352 N   0  0  0  0  0  0  0  0  0  0  0  0
   -9.0136    1.6772   -8.5750 C   0  0  0  0  0  0  0  0  0  0  0  0
   -9.4928    2.2055   -7.2610 N   0  0  0  0  0  0  0  0  0  0  0  0
   -8.8632    3.5422   -7.1451 C   0  0  0  0  0  0  0  0  0  0  0  0
   -8.8417    4.3820  -15.6185 C   0  0  0  0  0  0  0  0  0  0  0  0
   -8.7623    4.1424  -16.9990 C   0  0  0  0  0  0  0  0  0  0  0  0
   -7.6473    4.5535  -17.7350 C   0  0  0  0  0  0  0  0  0  0  0  0
   -6.6286    5.2309  -17.0814 C   0  0  0  0  0  0  0  0  0  0  0  0
  2  1  1  6
  2  3  1  0
  3  4  1  0
  2  5  1  0
  5  6  2  0
  5  7  1  0
  7  8  1  0
  8  9  2  0
  9 10  1  0
 10 11  2  0
 10 12  1  0
 12 13  1  0
 13 14  2  0
 14 15  1  0
 15 16  2  0
 16 17  1  0
 17 18  2  0
 17 19  1  0
 19 20  1  0
 20 21  1  0
  9 22  1  0
 22 23  2  0
 23 24  1  0
 24 25  2  0
 25  2  1  0
 25  8  1  0
 18 13  1  0
 21 16  1  0
M  END
>  <smiles>  (1696) 
C24590-P208

>  <fragmenstein_outcome>  (1696) 
acceptable

>  <inchikey>  (1696) 
QABBJFIUUXZPPA-UHFFFAOYSA-N

>  <fragmenstein_mode>  (1696) 
expansion

>  <HIPPO Pose ID>  (1696) 
22813

>  <Energy>  (1696) 
74.076327

>  <fragmenstein_error>  (1696) 


>  <tags>  (1696) 
{'openbind_xx01zvns2b_c1_fragmenstein', 'fragmenstein_placed'}

>  <ref_pdb>  (1696) 
175

>  <scratch_subdir>  (1696) 
/opt/xchem-fragalysis-2/maxwin/BulkDock/SCRATCH/511028/C24590-P208

>  <alias>  (1696) 
C[C@@]1(CO)C(=O)Cc2c(C(=O)Nc3ccc4c(n3)CNC4)cccc21

>  <HIPPO Compound ID>  (1696) 
24590

>  <fragmenstein_runtime>  (1696) 
4.055551

$$$$
Cc1cc(C(=O)Nc2ccc3c(n2)CNC3)c2c(c1)N1CCNC[C@H]1C2
     RDKit          3D

 26 30  0  0  0  0  0  0  0  0999 V2000
  -10.0131    3.7463  -18.0045 C   0  0  0  0  0  0  0  0  0  0  0  0
   -8.7516    4.1573  -17.3099 C   0  0  0  0  0  0  0  0  0  0  0  0
   -8.7042    4.4221  -15.9305 C   0  0  0  0  0  0  0  0  0  0  0  0
   -7.5319    4.9161  -15.3408 C   0  0  0  0  0  0  0  0  0  0  0  0
   -7.5382    5.3775  -13.9315 C   0  0  0  0  0  0  0  0  0  0  0  0
   -7.2258    6.4819  -13.7160 O   0  0  0  0  0  0  0  0  0  0  0  0
   -8.0126    4.2670  -12.9719 N   0  0  0  0  0  0  0  0  0  0  0  0
   -8.1083    4.2520  -11.5923 C   0  0  0  0  0  0  0  0  0  0  0  0
   -7.9486    5.4328  -10.8578 C   0  0  0  0  0  0  0  0  0  0  0  0
   -8.0734    5.4060   -9.4691 C   0  0  0  0  0  0  0  0  0  0  0  0
   -8.3580    4.1930   -8.8855 C   0  0  0  0  0  0  0  0  0  0  0  0
   -8.4803    3.0677   -9.6832 C   0  0  0  0  0  0  0  0  0  0  0  0
   -8.3678    3.0544  -11.0266 N   0  0  0  0  0  0  0  0  0  0  0  0
   -8.7576    1.8870   -8.7882 C   0  0  0  0  0  0  0  0  0  0  0  0
   -9.1639    2.4731   -7.4746 N   0  0  0  0  0  0  0  0  0  0  0  0
   -8.5703    3.8261   -7.4595 C   0  0  0  0  0  0  0  0  0  0  0  0
   -6.4090    5.1082  -16.1337 C   0  0  0  0  0  0  0  0  0  0  0  0
   -6.4358    4.7844  -17.4845 C   0  0  0  0  0  0  0  0  0  0  0  0
   -7.5950    4.3087  -18.0757 C   0  0  0  0  0  0  0  0  0  0  0  0
   -5.2070    4.9953  -18.1349 N   0  0  0  0  0  0  0  0  0  0  0  0
   -5.3557    5.6249  -19.4496 C   0  0  0  0  0  0  0  0  0  0  0  0
   -4.0130    6.2190  -19.8875 C   0  0  0  0  0  0  0  0  0  0  0  0
   -3.4452    7.2396  -18.9660 N   0  0  0  0  0  0  0  0  0  0  0  0
   -4.0480    7.1416  -17.6127 C   0  0  0  0  0  0  0  0  0  0  0  0
   -4.3513    5.6941  -17.1427 C   0  0  1  0  0  0  0  0  0  0  0  0
   -5.0646    5.6419  -15.7703 C   0  0  0  0  0  0  0  0  0  0  0  0
  1  2  1  0
  2  3  2  0
  3  4  1  0
  4  5  1  0
  5  6  2  0
  5  7  1  0
  7  8  1  0
  8  9  2  0
  9 10  1  0
 10 11  2  0
 11 12  1  0
 12 13  2  0
 12 14  1  0
 14 15  1  0
 15 16  1  0
  4 17  2  0
 17 18  1  0
 18 19  2  0
 18 20  1  0
 20 21  1  0
 21 22  1  0
 22 23  1  0
 23 24  1  0
 25 24  1  6
 25 26  1  0
 19  2  1  0
 25 20  1  0
 13  8  1  0
 26 17  1  0
 16 11  1  0
M  END
>  <smiles>  (1697) 
C24608-P209

>  <fragmenstein_outcome>  (1697) 
acceptable

>  <inchikey>  (1697) 
QBLDOLACCYTJHQ-UHFFFAOYSA-N

>  <fragmenstein_mode>  (1697) 
expansion

>  <HIPPO Pose ID>  (1697) 
22818

>  <Energy>  (1697) 
123.020782

>  <fragmenstein_error>  (1697) 


>  <tags>  (1697) 
{'openbind_xx01zvns2b_c1_fragmenstein', 'fragmenstein_placed'}

>  <ref_pdb>  (1697) 
175

>  <scratch_subdir>  (1697) 
/opt/xchem-fragalysis-2/maxwin/BulkDock/SCRATCH/511028/C24608-P209

>  <alias>  (1697) 
Cc1cc(C(=O)Nc2ccc3c(n2)CNC3)c2c(c1)N1CCNC[C@H]1C2

>  <HIPPO Compound ID>  (1697) 
24608

>  <fragmenstein_runtime>  (1697) 
5.254425

$$$$
O=C1Cc2c(cccc2C(=O)Nc2ccc3c(n2)CNC3)N1
     RDKit          3D

 22 25  0  0  0  0  0  0  0  0999 V2000
   -3.3919    6.2717  -17.5794 O   0  0  0  0  0  0  0  0  0  0  0  0
   -4.4956    5.8237  -17.3091 C   0  0  0  0  0  0  0  0  0  0  0  0
   -5.1402    5.7804  -15.9181 C   0  0  0  0  0  0  0  0  0  0  0  0
   -6.4721    5.1579  -16.2048 C   0  0  0  0  0  0  0  0  0  0  0  0
   -6.5654    4.8781  -17.5646 C   0  0  0  0  0  0  0  0  0  0  0  0
   -7.6823    4.3057  -18.1340 C   0  0  0  0  0  0  0  0  0  0  0  0
   -8.7467    3.9916  -17.2869 C   0  0  0  0  0  0  0  0  0  0  0  0
   -8.6725    4.2661  -15.9081 C   0  0  0  0  0  0  0  0  0  0  0  0
   -7.5296    4.8631  -15.3611 C   0  0  0  0  0  0  0  0  0  0  0  0
   -7.5072    5.3224  -13.9523 C   0  0  0  0  0  0  0  0  0  0  0  0
   -7.2795    6.4506  -13.7558 O   0  0  0  0  0  0  0  0  0  0  0  0
   -7.8161    4.1782  -12.9658 N   0  0  0  0  0  0  0  0  0  0  0  0
   -7.9962    4.1979  -11.5944 C   0  0  0  0  0  0  0  0  0  0  0  0
   -7.8508    5.3876  -10.8716 C   0  0  0  0  0  0  0  0  0  0  0  0
   -8.0290    5.3828   -9.4880 C   0  0  0  0  0  0  0  0  0  0  0  0
   -8.3446    4.1811   -8.8970 C   0  0  0  0  0  0  0  0  0  0  0  0
   -8.4565    3.0472   -9.6834 C   0  0  0  0  0  0  0  0  0  0  0  0
   -8.2998    3.0143  -11.0220 N   0  0  0  0  0  0  0  0  0  0  0  0
   -8.7622    1.8791   -8.7814 C   0  0  0  0  0  0  0  0  0  0  0  0
   -9.1899    2.4825   -7.4824 N   0  0  0  0  0  0  0  0  0  0  0  0
   -8.5884    3.8321   -7.4714 C   0  0  0  0  0  0  0  0  0  0  0  0
   -5.4036    5.2763  -18.2077 N   0  0  0  0  0  0  0  0  0  0  0  0
  1  2  2  0
  2  3  1  0
  3  4  1  0
  4  5  2  0
  5  6  1  0
  6  7  2  0
  7  8  1  0
  8  9  2  0
  9 10  1  0
 10 11  2  0
 10 12  1  0
 12 13  1  0
 13 14  2  0
 14 15  1  0
 15 16  2  0
 16 17  1  0
 17 18  2  0
 17 19  1  0
 19 20  1  0
 20 21  1  0
  5 22  1  0
 22  2  1  0
  9  4  1  0
 18 13  1  0
 21 16  1  0
M  END
>  <smiles>  (1698) 
C189-P209

>  <fragmenstein_outcome>  (1698) 
acceptable

>  <inchikey>  (1698) 
MGCAZFAVYBYTMO-UHFFFAOYSA-N

>  <fragmenstein_mode>  (1698) 
expansion

>  <HIPPO Pose ID>  (1698) 
22819

>  <Energy>  (1698) 
20.318057

>  <fragmenstein_error>  (1698) 


>  <tags>  (1698) 
{'openbind_xx01zvns2b_c1_fragmenstein', 'fragmenstein_placed'}

>  <ref_pdb>  (1698) 
175

>  <scratch_subdir>  (1698) 
/opt/xchem-fragalysis-2/maxwin/BulkDock/SCRATCH/511028/C189-P209

>  <alias>  (1698) 
O=C1Cc2c(cccc2C(=O)Nc2ccc3c(n2)CNC3)N1

>  <HIPPO Compound ID>  (1698) 
189

>  <fragmenstein_runtime>  (1698) 
2.215752

$$$$
O=C(Nc1ccc2c(n1)CNC2)[C@H]1CC[C@H]2C(=O)N3CCNCN3C(=O)C[C@H]12
     RDKit          3D

 28 32  0  0  0  0  0  0  0  0999 V2000
   -7.8407    6.4555  -13.7158 O   0  0  0  0  0  0  0  0  0  0  0  0
   -8.0273    5.3086  -13.8467 C   0  0  0  0  0  0  0  0  0  0  0  0
   -8.3583    4.2138  -12.7910 N   0  0  0  0  0  0  0  0  0  0  0  0
   -8.4289    4.2881  -11.4188 C   0  0  0  0  0  0  0  0  0  0  0  0
   -8.2478    5.4848  -10.7267 C   0  0  0  0  0  0  0  0  0  0  0  0
   -8.2367    5.4626   -9.3311 C   0  0  0  0  0  0  0  0  0  0  0  0
   -8.4236    4.2449   -8.7089 C   0  0  0  0  0  0  0  0  0  0  0  0
   -8.5991    3.1114   -9.4783 C   0  0  0  0  0  0  0  0  0  0  0  0
   -8.5947    3.0907  -10.8207 N   0  0  0  0  0  0  0  0  0  0  0  0
   -8.7549    1.9214   -8.5742 C   0  0  0  0  0  0  0  0  0  0  0  0
   -8.9023    2.4771   -7.1965 N   0  0  0  0  0  0  0  0  0  0  0  0
   -8.4648    3.8859   -7.2670 C   0  0  0  0  0  0  0  0  0  0  0  0
   -7.8748    4.5660  -15.1691 C   0  0  1  0  0  0  0  0  0  0  0  0
   -9.1395    4.3654  -15.9787 C   0  0  0  0  0  0  0  0  0  0  0  0
   -8.6583    4.0517  -17.3986 C   0  0  0  0  0  0  0  0  0  0  0  0
   -7.1455    4.2805  -17.3523 C   0  0  1  0  0  0  0  0  0  0  0  0
   -6.5542    4.6598  -18.6712 C   0  0  0  0  0  0  0  0  0  0  0  0
   -6.7936    4.0032  -19.6816 O   0  0  0  0  0  0  0  0  0  0  0  0
   -5.6310    5.7104  -18.5788 N   0  0  0  0  0  0  0  0  0  0  0  0
   -5.3187    6.4160  -19.8242 C   0  0  0  0  0  0  0  0  0  0  0  0
   -4.0465    7.2623  -19.7333 C   0  0  0  0  0  0  0  0  0  0  0  0
   -2.8775    6.5322  -19.2425 N   0  0  0  0  0  0  0  0  0  0  0  0
   -3.2359    5.2219  -18.7076 C   0  0  0  0  0  0  0  0  0  0  0  0
   -4.4154    5.3651  -17.8682 N   0  0  0  0  0  0  0  0  0  0  0  0
   -4.3404    5.1668  -16.5094 C   0  0  0  0  0  0  0  0  0  0  0  0
   -3.2860    4.8240  -15.9616 O   0  0  0  0  0  0  0  0  0  0  0  0
   -5.5429    5.4187  -15.6377 C   0  0  0  0  0  0  0  0  0  0  0  0
   -6.9441    5.2308  -16.1898 C   0  0  2  0  0  0  0  0  0  0  0  0
  1  2  2  0
  2  3  1  0
  3  4  1  0
  4  5  2  0
  5  6  1  0
  6  7  2  0
  7  8  1  0
  8  9  2  0
  8 10  1  0
 10 11  1  0
 11 12  1  0
 13  2  1  1
 13 14  1  0
 14 15  1  0
 16 15  1  6
 16 17  1  0
 17 18  2  0
 17 19  1  0
 19 20  1  0
 20 21  1  0
 21 22  1  0
 22 23  1  0
 23 24  1  0
 24 25  1  0
 25 26  2  0
 25 27  1  0
 28 27  1  1
  9  4  1  0
 28 13  1  0
 12  7  1  0
 28 16  1  0
 24 19  1  0
M  END
>  <smiles>  (1699) 
C24611-P209

>  <fragmenstein_outcome>  (1699) 
acceptable

>  <inchikey>  (1699) 
CTBJWHRLHFFOQE-UHFFFAOYSA-N

>  <fragmenstein_mode>  (1699) 
expansion

>  <HIPPO Pose ID>  (1699) 
22820

>  <Energy>  (1699) 
70.151364

>  <fragmenstein_error>  (1699) 


>  <tags>  (1699) 
{'openbind_xx01zvns2b_c1_fragmenstein', 'fragmenstein_placed'}

>  <ref_pdb>  (1699) 
175

>  <scratch_subdir>  (1699) 
/opt/xchem-fragalysis-2/maxwin/BulkDock/SCRATCH/511028/C24611-P209

>  <alias>  (1699) 
O=C(Nc1ccc2c(n1)CNC2)[C@H]1CC[C@H]2C(=O)N3CCNCN3C(=O)C[C@H]12

>  <HIPPO Compound ID>  (1699) 
24611

>  <fragmenstein_runtime>  (1699) 
4.09305

$$$$
Cc1cc(NC(=O)c2cccc3c2[C@H](F)C(=O)N3)nc2c1CNC2
     RDKit          3D

 24 27  0  0  0  0  0  0  0  0999 V2000
   -7.8929    6.6215   -8.6560 C   0  0  0  0  0  0  0  0  0  0  0  0
   -8.0877    5.3722   -9.4522 C   0  0  0  0  0  0  0  0  0  0  0  0
   -7.9719    5.3691  -10.8472 C   0  0  0  0  0  0  0  0  0  0  0  0
   -8.1466    4.1793  -11.5665 C   0  0  0  0  0  0  0  0  0  0  0  0
   -8.0566    4.1750  -12.9464 N   0  0  0  0  0  0  0  0  0  0  0  0
   -7.7349    5.3133  -13.9312 C   0  0  0  0  0  0  0  0  0  0  0  0
   -7.5702    6.4523  -13.7427 O   0  0  0  0  0  0  0  0  0  0  0  0
   -7.6731    4.8427  -15.3313 C   0  0  0  0  0  0  0  0  0  0  0  0
   -8.7988    4.2972  -15.9572 C   0  0  0  0  0  0  0  0  0  0  0  0
   -8.7954    4.0332  -17.3395 C   0  0  0  0  0  0  0  0  0  0  0  0
   -7.6634    4.2994  -18.1105 C   0  0  0  0  0  0  0  0  0  0  0  0
   -6.5557    4.7966  -17.4578 C   0  0  0  0  0  0  0  0  0  0  0  0
   -6.5425    5.0705  -16.0924 C   0  0  0  0  0  0  0  0  0  0  0  0
   -5.1809    5.5441  -15.6885 C   0  0  2  0  0  0  0  0  0  0  0  0
   -5.1467    6.8081  -15.1871 F   0  0  0  0  0  0  0  0  0  0  0  0
   -4.4088    5.4513  -17.0222 C   0  0  0  0  0  0  0  0  0  0  0  0
   -3.2190    5.6704  -17.1925 O   0  0  0  0  0  0  0  0  0  0  0  0
   -5.3120    5.0636  -18.0085 N   0  0  0  0  0  0  0  0  0  0  0  0
   -8.4029    2.9911  -10.9855 N   0  0  0  0  0  0  0  0  0  0  0  0
   -8.5052    3.0244   -9.6420 C   0  0  0  0  0  0  0  0  0  0  0  0
   -8.3746    4.1598   -8.8561 C   0  0  0  0  0  0  0  0  0  0  0  0
   -8.5771    3.7978   -7.4246 C   0  0  0  0  0  0  0  0  0  0  0  0
   -9.1743    2.4464   -7.4264 N   0  0  0  0  0  0  0  0  0  0  0  0
   -8.7716    1.8508   -8.7351 C   0  0  0  0  0  0  0  0  0  0  0  0
  1  2  1  0
  2  3  2  0
  3  4  1  0
  4  5  1  0
  5  6  1  0
  6  7  2  0
  6  8  1  0
  8  9  2  0
  9 10  1  0
 10 11  2  0
 11 12  1  0
 12 13  2  0
 13 14  1  0
 14 15  1  6
 14 16  1  0
 16 17  2  0
 16 18  1  0
  4 19  2  0
 19 20  1  0
 20 21  2  0
 21 22  1  0
 22 23  1  0
 23 24  1  0
 21  2  1  0
 13  8  1  0
 24 20  1  0
 18 12  1  0
M  END
>  <smiles>  (1700) 
C24614-P209

>  <fragmenstein_outcome>  (1700) 
acceptable

>  <inchikey>  (1700) 
SWAXWXSGTBQQHW-UHFFFAOYSA-N

>  <fragmenstein_mode>  (1700) 
expansion

>  <HIPPO Pose ID>  (1700) 
22823

>  <Energy>  (1700) 
47.3653

>  <fragmenstein_error>  (1700) 


>  <tags>  (1700) 
{'openbind_xx01zvns2b_c1_fragmenstein', 'fragmenstein_placed'}

>  <ref_pdb>  (1700) 
175

>  <scratch_subdir>  (1700) 
/opt/xchem-fragalysis-2/maxwin/BulkDock/SCRATCH/511028/C24614-P209

>  <alias>  (1700) 
Cc1cc(NC(=O)c2cccc3c2[C@H](F)C(=O)N3)nc2c1CNC2

>  <HIPPO Compound ID>  (1700) 
29311

>  <fragmenstein_runtime>  (1700) 
2.88101

$$$$
CCc1ccc(C(=O)Nc2nc3c(cc2C)CNC3)c2c1NC(=O)C2
     RDKit          3D

 25 28  0  0  0  0  0  0  0  0999 V2000
   -9.5838    3.9478  -18.9797 C   0  0  0  0  0  0  0  0  0  0  0  0
   -8.1435    4.3336  -18.7239 C   0  0  0  0  0  0  0  0  0  0  0  0
   -7.7507    4.4611  -17.2931 C   0  0  0  0  0  0  0  0  0  0  0  0
   -8.6630    4.2351  -16.2634 C   0  0  0  0  0  0  0  0  0  0  0  0
   -8.3304    4.5171  -14.9476 C   0  0  0  0  0  0  0  0  0  0  0  0
   -7.0530    4.9918  -14.6133 C   0  0  0  0  0  0  0  0  0  0  0  0
   -6.8147    5.3975  -13.2091 C   0  0  0  0  0  0  0  0  0  0  0  0
   -6.2816    6.4100  -12.9814 O   0  0  0  0  0  0  0  0  0  0  0  0
   -7.4515    4.3655  -12.2552 N   0  0  0  0  0  0  0  0  0  0  0  0
   -7.6425    4.4050  -10.8893 C   0  0  0  0  0  0  0  0  0  0  0  0
   -8.0595    3.1828  -10.4754 N   0  0  0  0  0  0  0  0  0  0  0  0
   -8.3781    3.0639   -9.1825 C   0  0  0  0  0  0  0  0  0  0  0  0
   -8.3341    4.0922   -8.2720 C   0  0  0  0  0  0  0  0  0  0  0  0
   -7.9161    5.3354   -8.6880 C   0  0  0  0  0  0  0  0  0  0  0  0
   -7.5703    5.5211  -10.0406 C   0  0  0  0  0  0  0  0  0  0  0  0
   -7.1994    6.9105  -10.4529 C   0  0  0  0  0  0  0  0  0  0  0  0
   -8.7714    3.5964   -6.9406 C   0  0  0  0  0  0  0  0  0  0  0  0
   -9.4133    2.2861   -7.1903 N   0  0  0  0  0  0  0  0  0  0  0  0
   -8.8329    1.8155   -8.4831 C   0  0  0  0  0  0  0  0  0  0  0  0
   -6.1336    5.1939  -15.6248 C   0  0  0  0  0  0  0  0  0  0  0  0
   -6.4928    4.9271  -16.9425 C   0  0  0  0  0  0  0  0  0  0  0  0
   -5.4296    5.2224  -17.7858 N   0  0  0  0  0  0  0  0  0  0  0  0
   -4.3234    5.6530  -17.0684 C   0  0  0  0  0  0  0  0  0  0  0  0
   -3.2374    5.9543  -17.5389 O   0  0  0  0  0  0  0  0  0  0  0  0
   -4.7219    5.6893  -15.5865 C   0  0  0  0  0  0  0  0  0  0  0  0
  1  2  1  0
  2  3  1  0
  3  4  2  0
  4  5  1  0
  5  6  2  0
  6  7  1  0
  7  8  2  0
  7  9  1  0
  9 10  1  0
 10 11  2  0
 11 12  1  0
 12 13  2  0
 13 14  1  0
 14 15  2  0
 15 16  1  0
 13 17  1  0
 17 18  1  0
 18 19  1  0
  6 20  1  0
 20 21  2  0
 21 22  1  0
 22 23  1  0
 23 24  2  0
 23 25  1  0
 21  3  1  0
 15 10  1  0
 25 20  1  0
 19 12  1  0
M  END
>  <smiles>  (1701) 
C24616-P209

>  <fragmenstein_outcome>  (1701) 
acceptable

>  <inchikey>  (1701) 
RPEGCYFAPWHPOW-UHFFFAOYSA-N

>  <fragmenstein_mode>  (1701) 
expansion

>  <HIPPO Pose ID>  (1701) 
22825

>  <Energy>  (1701) 
38.394592

>  <fragmenstein_error>  (1701) 


>  <tags>  (1701) 
{'openbind_xx01zvns2b_c1_fragmenstein', 'fragmenstein_placed'}

>  <ref_pdb>  (1701) 
175

>  <scratch_subdir>  (1701) 
/opt/xchem-fragalysis-2/maxwin/BulkDock/SCRATCH/511028/C24616-P209

>  <alias>  (1701) 
CCc1ccc(C(=O)Nc2nc3c(cc2C)CNC3)c2c1NC(=O)C2

>  <HIPPO Compound ID>  (1701) 
25500

>  <fragmenstein_runtime>  (1701) 
3.565477

$$$$
Cc1cc2c(nc1NC(=O)c1ccccc1CC1=N[S@H]1CCN)CNC2
     RDKit          3D

 26 29  0  0  0  0  0  0  0  0999 V2000
   -7.5200    6.9468  -11.6844 C   0  0  0  0  0  0  0  0  0  0  0  0
   -7.7638    5.5836  -11.1149 C   0  0  0  0  0  0  0  0  0  0  0  0
   -7.9357    5.5176   -9.7135 C   0  0  0  0  0  0  0  0  0  0  0  0
   -8.2367    4.3088   -9.1325 C   0  0  0  0  0  0  0  0  0  0  0  0
   -8.3428    3.1985   -9.9357 C   0  0  0  0  0  0  0  0  0  0  0  0
   -8.1740    3.2017  -11.2730 N   0  0  0  0  0  0  0  0  0  0  0  0
   -7.8629    4.3912  -11.8585 C   0  0  0  0  0  0  0  0  0  0  0  0
   -7.7265    4.2411  -13.2413 N   0  0  0  0  0  0  0  0  0  0  0  0
   -7.1746    5.2192  -14.3121 C   0  0  0  0  0  0  0  0  0  0  0  0
   -6.6776    6.2716  -14.1934 O   0  0  0  0  0  0  0  0  0  0  0  0
   -7.4079    4.7314  -15.7077 C   0  0  0  0  0  0  0  0  0  0  0  0
   -8.6887    4.2323  -16.0033 C   0  0  0  0  0  0  0  0  0  0  0  0
   -9.0543    3.9299  -17.3133 C   0  0  0  0  0  0  0  0  0  0  0  0
   -8.1450    4.1134  -18.3419 C   0  0  0  0  0  0  0  0  0  0  0  0
   -6.8738    4.6079  -18.0652 C   0  0  0  0  0  0  0  0  0  0  0  0
   -6.4758    4.9293  -16.7516 C   0  0  0  0  0  0  0  0  0  0  0  0
   -5.1135    5.5631  -16.6189 C   0  0  0  0  0  0  0  0  0  0  0  0
   -4.2509    5.0789  -15.5561 C   0  0  0  0  0  0  0  0  0  0  0  0
   -3.0216    4.7468  -15.5223 N   0  0  0  0  0  0  0  0  0  0  0  0
   -3.7814    4.7476  -13.9999 S   0  0  1  0  0  4  0  0  0  0  0  0
   -2.9535    6.1329  -13.3163 C   0  0  0  0  0  0  0  0  0  0  0  0
   -3.0748    7.4260  -14.1188 C   0  0  0  0  0  0  0  0  0  0  0  0
   -4.4143    7.9961  -14.1305 N   0  0  0  0  0  0  0  0  0  0  0  0
   -8.6711    2.0138   -9.0616 C   0  0  0  0  0  0  0  0  0  0  0  0
   -9.0818    2.5901   -7.7444 N   0  0  0  0  0  0  0  0  0  0  0  0
   -8.4809    3.9390   -7.7129 C   0  0  0  0  0  0  0  0  0  0  0  0
  1  2  1  0
  2  3  2  0
  3  4  1  0
  4  5  2  0
  5  6  1  0
  6  7  2  0
  7  8  1  0
  8  9  1  0
  9 10  2  0
  9 11  1  0
 11 12  2  0
 12 13  1  0
 13 14  2  0
 14 15  1  0
 15 16  2  0
 16 17  1  0
 17 18  1  0
 18 19  2  0
 19 20  1  0
 20 21  1  1
 21 22  1  0
 22 23  1  0
  5 24  1  0
 24 25  1  0
 25 26  1  0
  7  2  1  0
 16 11  1  0
 20 18  1  0
 26  4  1  0
M  END
>  <smiles>  (1702) 
C24620-P209

>  <fragmenstein_outcome>  (1702) 
acceptable

>  <inchikey>  (1702) 
PNESPAVEZLRZHD-UHFFFAOYSA-N

>  <fragmenstein_mode>  (1702) 
expansion

>  <HIPPO Pose ID>  (1702) 
22827

>  <Energy>  (1702) 
88.372191

>  <fragmenstein_error>  (1702) 


>  <tags>  (1702) 
{'openbind_xx01zvns2b_c1_fragmenstein', 'fragmenstein_placed'}

>  <ref_pdb>  (1702) 
175

>  <scratch_subdir>  (1702) 
/opt/xchem-fragalysis-2/maxwin/BulkDock/SCRATCH/511028/C24620-P209

>  <alias>  (1702) 
Cc1cc2c(nc1NC(=O)c1ccccc1CC1=N[S@H]1CCN)CNC2

>  <HIPPO Compound ID>  (1702) 
25505

>  <fragmenstein_runtime>  (1702) 
6.776937

$$$$
CC(=O)NN=C(C(=O)c1ccc2c(n1)[C@@H](C)NC2)c1cccc2c1CC(=O)N2
     RDKit          3D

 28 31  0  0  0  0  0  0  0  0999 V2000
   -4.9003    2.9274   -9.9324 C   0  0  0  0  0  0  0  0  0  0  0  0
   -4.5109    3.6044  -11.2274 C   0  0  0  0  0  0  0  0  0  0  0  0
   -3.4211    3.9549  -11.4691 O   0  0  0  0  0  0  0  0  0  0  0  0
   -5.8183    3.7160  -12.0702 N   0  0  0  0  0  0  0  0  0  0  0  0
   -6.0127    4.1616  -13.3225 N   0  0  0  0  0  0  0  0  0  0  0  0
   -7.2021    4.4441  -13.7778 C   0  0  0  0  0  0  0  0  0  0  0  0
   -8.4267    4.7239  -12.9081 C   0  0  0  0  0  0  0  0  0  0  0  0
   -9.4662    5.1275  -13.4267 O   0  0  0  0  0  0  0  0  0  0  0  0
   -8.3123    4.8238  -11.4434 C   0  0  0  0  0  0  0  0  0  0  0  0
   -7.9768    6.0790  -10.9273 C   0  0  0  0  0  0  0  0  0  0  0  0
   -7.9137    6.2400   -9.5500 C   0  0  0  0  0  0  0  0  0  0  0  0
   -8.2201    5.1468   -8.7677 C   0  0  0  0  0  0  0  0  0  0  0  0
   -8.5469    3.9307   -9.3592 C   0  0  0  0  0  0  0  0  0  0  0  0
   -8.5726    3.7133  -10.6939 N   0  0  0  0  0  0  0  0  0  0  0  0
   -9.0286    3.0177   -8.2487 C   0  0  1  0  0  0  0  0  0  0  0  0
   -8.5633    1.5969   -8.3097 C   0  0  0  0  0  0  0  0  0  0  0  0
   -8.5824    3.6647   -6.9874 N   0  0  0  0  0  0  0  0  0  0  0  0
   -8.3530    5.0717   -7.2849 C   0  0  0  0  0  0  0  0  0  0  0  0
   -7.3575    4.5717  -15.2709 C   0  0  0  0  0  0  0  0  0  0  0  0
   -8.5522    4.1772  -15.9056 C   0  0  0  0  0  0  0  0  0  0  0  0
   -8.6867    4.1644  -17.3055 C   0  0  0  0  0  0  0  0  0  0  0  0
   -7.6190    4.5285  -18.1143 C   0  0  0  0  0  0  0  0  0  0  0  0
   -6.4522    4.9025  -17.4864 C   0  0  0  0  0  0  0  0  0  0  0  0
   -6.3000    4.9367  -16.0963 C   0  0  0  0  0  0  0  0  0  0  0  0
   -4.8818    5.3274  -15.7844 C   0  0  0  0  0  0  0  0  0  0  0  0
   -4.2424    5.3836  -17.1768 C   0  0  0  0  0  0  0  0  0  0  0  0
   -3.0582    5.5334  -17.4323 O   0  0  0  0  0  0  0  0  0  0  0  0
   -5.2544    5.2128  -18.1090 N   0  0  0  0  0  0  0  0  0  0  0  0
  1  2  1  0
  2  3  2  0
  2  4  1  0
  4  5  1  0
  5  6  2  3
  6  7  1  0
  7  8  2  0
  7  9  1  0
  9 10  2  0
 10 11  1  0
 11 12  2  0
 12 13  1  0
 13 14  2  0
 13 15  1  0
 15 16  1  6
 15 17  1  0
 17 18  1  0
  6 19  1  0
 19 20  2  0
 20 21  1  0
 21 22  2  0
 22 23  1  0
 23 24  2  0
 24 25  1  0
 25 26  1  0
 26 27  2  0
 26 28  1  0
 14  9  1  0
 24 19  1  0
 18 12  1  0
 28 23  1  0
M  END
>  <smiles>  (1703) 
C24639-P209

>  <fragmenstein_outcome>  (1703) 
acceptable

>  <inchikey>  (1703) 
UUKVNZJMPMAGNI-UHFFFAOYSA-N

>  <fragmenstein_mode>  (1703) 
expansion

>  <HIPPO Pose ID>  (1703) 
22834

>  <Energy>  (1703) 
181.061289

>  <fragmenstein_error>  (1703) 


>  <tags>  (1703) 
{'openbind_xx01zvns2b_c1_fragmenstein', 'fragmenstein_placed'}

>  <ref_pdb>  (1703) 
175

>  <scratch_subdir>  (1703) 
/opt/xchem-fragalysis-2/maxwin/BulkDock/SCRATCH/511028/C24639-P209

>  <alias>  (1703) 
CC(=O)NN=C(C(=O)c1ccc2c(n1)[C@@H](C)NC2)c1cccc2c1CC(=O)N2

>  <HIPPO Compound ID>  (1703) 
24639

>  <fragmenstein_runtime>  (1703) 
3.739564

$$$$
C[C@H]1C(=O)N(CO)c2cccc(C(=O)C(=O)c3ccc4c(n3)CNC4)c21
     RDKit          3D

 26 29  0  0  0  0  0  0  0  0999 V2000
   -3.8745    5.0862  -15.0641 C   0  0  0  0  0  0  0  0  0  0  0  0
   -4.9081    5.8718  -15.8589 C   0  0  1  0  0  0  0  0  0  0  0  0
   -4.3300    6.1213  -17.2587 C   0  0  0  0  0  0  0  0  0  0  0  0
   -3.3202    6.7596  -17.5250 O   0  0  0  0  0  0  0  0  0  0  0  0
   -5.1427    5.4751  -18.1815 N   0  0  0  0  0  0  0  0  0  0  0  0
   -4.9507    5.5691  -19.6009 C   0  0  0  0  0  0  0  0  0  0  0  0
   -3.6194    5.1833  -19.9208 O   0  0  0  0  0  0  0  0  0  0  0  0
   -6.2877    4.9626  -17.5587 C   0  0  0  0  0  0  0  0  0  0  0  0
   -7.3963    4.3851  -18.1516 C   0  0  0  0  0  0  0  0  0  0  0  0
   -8.4410    3.9749  -17.3305 C   0  0  0  0  0  0  0  0  0  0  0  0
   -8.3643    4.1521  -15.9412 C   0  0  0  0  0  0  0  0  0  0  0  0
   -7.2521    4.7655  -15.3373 C   0  0  0  0  0  0  0  0  0  0  0  0
   -7.2428    5.0888  -13.8805 C   0  0  0  0  0  0  0  0  0  0  0  0
   -6.3062    5.6863  -13.3585 O   0  0  0  0  0  0  0  0  0  0  0  0
   -8.4654    4.8672  -13.0297 C   0  0  0  0  0  0  0  0  0  0  0  0
   -9.5637    5.1518  -13.5001 O   0  0  0  0  0  0  0  0  0  0  0  0
   -8.2831    4.6050  -11.5884 C   0  0  0  0  0  0  0  0  0  0  0  0
   -8.0815    5.7216  -10.7637 C   0  0  0  0  0  0  0  0  0  0  0  0
   -8.0975    5.5544   -9.3830 C   0  0  0  0  0  0  0  0  0  0  0  0
   -8.3359    4.2832   -8.9069 C   0  0  0  0  0  0  0  0  0  0  0  0
   -8.4886    3.2268   -9.7959 C   0  0  0  0  0  0  0  0  0  0  0  0
   -8.4762    3.3384  -11.1410 N   0  0  0  0  0  0  0  0  0  0  0  0
   -8.7229    1.9735   -8.9878 C   0  0  0  0  0  0  0  0  0  0  0  0
   -9.0940    2.4501   -7.6208 N   0  0  0  0  0  0  0  0  0  0  0  0
   -8.5000    3.7963   -7.5090 C   0  0  0  0  0  0  0  0  0  0  0  0
   -6.1992    5.1512  -16.1706 C   0  0  0  0  0  0  0  0  0  0  0  0
  2  1  1  1
  2  3  1  0
  3  4  2  0
  3  5  1  0
  5  6  1  0
  6  7  1  0
  5  8  1  0
  8  9  2  0
  9 10  1  0
 10 11  2  0
 11 12  1  0
 12 13  1  0
 13 14  2  0
 13 15  1  0
 15 16  2  0
 15 17  1  0
 17 18  2  0
 18 19  1  0
 19 20  2  0
 20 21  1  0
 21 22  2  0
 21 23  1  0
 23 24  1  0
 24 25  1  0
 12 26  2  0
 26  2  1  0
 26  8  1  0
 22 17  1  0
 25 20  1  0
M  END
>  <smiles>  (1704) 
C24640-P209

>  <fragmenstein_outcome>  (1704) 
acceptable

>  <inchikey>  (1704) 
CDPXRYOBMIJVNW-UHFFFAOYSA-N

>  <fragmenstein_mode>  (1704) 
expansion

>  <HIPPO Pose ID>  (1704) 
22835

>  <Energy>  (1704) 
108.651013

>  <fragmenstein_error>  (1704) 


>  <tags>  (1704) 
{'openbind_xx01zvns2b_c1_fragmenstein', 'fragmenstein_placed'}

>  <ref_pdb>  (1704) 
175

>  <scratch_subdir>  (1704) 
/opt/xchem-fragalysis-2/maxwin/BulkDock/SCRATCH/511028/C24640-P209

>  <alias>  (1704) 
C[C@H]1C(=O)N(CO)c2cccc(C(=O)C(=O)c3ccc4c(n3)CNC4)c21

>  <HIPPO Compound ID>  (1704) 
24640

>  <fragmenstein_runtime>  (1704) 
2.558187

$$$$
Cc1cc2c(nc1NC(O)(O)c1cccc3c1CC(=O)N3)CNC2
     RDKit          3D

 24 27  0  0  0  0  0  0  0  0999 V2000
   -8.3890    7.0489  -11.4021 C   0  0  0  0  0  0  0  0  0  0  0  0
   -8.2860    5.6611  -10.8413 C   0  0  0  0  0  0  0  0  0  0  0  0
   -8.2446    5.5305   -9.4442 C   0  0  0  0  0  0  0  0  0  0  0  0
   -8.3269    4.2673   -8.9064 C   0  0  0  0  0  0  0  0  0  0  0  0
   -8.3923    3.1832   -9.7518 C   0  0  0  0  0  0  0  0  0  0  0  0
   -8.3446    3.2539  -11.0977 N   0  0  0  0  0  0  0  0  0  0  0  0
   -8.3037    4.4946  -11.6311 C   0  0  0  0  0  0  0  0  0  0  0  0
   -8.3519    4.4958  -13.0189 N   0  0  0  0  0  0  0  0  0  0  0  0
   -7.1638    4.8042  -13.7740 C   0  0  0  0  0  0  0  0  0  0  0  0
   -6.7182    6.1069  -13.5020 O   0  0  0  0  0  0  0  0  0  0  0  0
   -6.1050    3.9610  -13.4112 O   0  0  0  0  0  0  0  0  0  0  0  0
   -7.3934    4.7054  -15.2754 C   0  0  0  0  0  0  0  0  0  0  0  0
   -8.6241    4.2889  -15.8332 C   0  0  0  0  0  0  0  0  0  0  0  0
   -8.8210    4.1502  -17.2216 C   0  0  0  0  0  0  0  0  0  0  0  0
   -7.7930    4.4349  -18.1115 C   0  0  0  0  0  0  0  0  0  0  0  0
   -6.6009    4.8610  -17.5740 C   0  0  0  0  0  0  0  0  0  0  0  0
   -6.3883    5.0007  -16.1996 C   0  0  0  0  0  0  0  0  0  0  0  0
   -4.9748    5.4661  -15.9805 C   0  0  0  0  0  0  0  0  0  0  0  0
   -4.4196    5.5274  -17.4106 C   0  0  0  0  0  0  0  0  0  0  0  0
   -3.2806    5.8228  -17.7399 O   0  0  0  0  0  0  0  0  0  0  0  0
   -5.4506    5.1881  -18.2737 N   0  0  0  0  0  0  0  0  0  0  0  0
   -8.5642    1.9362   -8.9274 C   0  0  0  0  0  0  0  0  0  0  0  0
   -8.6780    2.3809   -7.5059 N   0  0  0  0  0  0  0  0  0  0  0  0
   -8.4192    3.8320   -7.4903 C   0  0  0  0  0  0  0  0  0  0  0  0
  1  2  1  0
  2  3  2  0
  3  4  1  0
  4  5  2  0
  5  6  1  0
  6  7  2  0
  7  8  1  0
  8  9  1  0
  9 10  1  0
  9 11  1  0
  9 12  1  0
 12 13  2  0
 13 14  1  0
 14 15  2  0
 15 16  1  0
 16 17  2  0
 17 18  1  0
 18 19  1  0
 19 20  2  0
 19 21  1  0
  5 22  1  0
 22 23  1  0
 23 24  1  0
  7  2  1  0
 17 12  1  0
 24  4  1  0
 21 16  1  0
M  END
>  <smiles>  (1705) 
C24649-P209

>  <fragmenstein_outcome>  (1705) 
acceptable

>  <inchikey>  (1705) 
ZVXKUELEICRBNL-UHFFFAOYSA-N

>  <fragmenstein_mode>  (1705) 
expansion

>  <HIPPO Pose ID>  (1705) 
22839

>  <Energy>  (1705) 
-107.71585

>  <fragmenstein_error>  (1705) 


>  <tags>  (1705) 
{'openbind_xx01zvns2b_c1_fragmenstein', 'fragmenstein_placed'}

>  <ref_pdb>  (1705) 
175

>  <scratch_subdir>  (1705) 
/opt/xchem-fragalysis-2/maxwin/BulkDock/SCRATCH/511028/C24649-P209

>  <alias>  (1705) 
Cc1cc2c(nc1NC(O)(O)c1cccc3c1CC(=O)N3)CNC2

>  <HIPPO Compound ID>  (1705) 
24649

>  <fragmenstein_runtime>  (1705) 
2.253727

$$$$
CC(C)NN1C(=O)Cc2c(C(=O)Nc3ccc4c(n3)CNC4)cccc21
     RDKit          3D

 26 29  0  0  0  0  0  0  0  0999 V2000
   -4.8923    7.8491  -19.3946 C   0  0  0  0  0  0  0  0  0  0  0  0
   -4.5113    6.5869  -20.1902 C   0  0  0  0  0  0  0  0  0  0  0  0
   -4.7218    6.9154  -21.6716 C   0  0  0  0  0  0  0  0  0  0  0  0
   -5.3032    5.4159  -19.7943 N   0  0  0  0  0  0  0  0  0  0  0  0
   -5.3075    5.1286  -18.4248 N   0  0  0  0  0  0  0  0  0  0  0  0
   -4.2297    5.3373  -17.5465 C   0  0  0  0  0  0  0  0  0  0  0  0
   -3.0557    5.5063  -17.8496 O   0  0  0  0  0  0  0  0  0  0  0  0
   -4.8256    5.3641  -16.1274 C   0  0  0  0  0  0  0  0  0  0  0  0
   -6.2604    4.9801  -16.3543 C   0  0  0  0  0  0  0  0  0  0  0  0
   -7.2983    4.7767  -15.4525 C   0  0  0  0  0  0  0  0  0  0  0  0
   -7.1791    5.1980  -14.0303 C   0  0  0  0  0  0  0  0  0  0  0  0
   -6.7067    6.2459  -13.8206 O   0  0  0  0  0  0  0  0  0  0  0  0
   -7.8156    4.1748  -13.0635 N   0  0  0  0  0  0  0  0  0  0  0  0
   -7.9150    4.1833  -11.6832 C   0  0  0  0  0  0  0  0  0  0  0  0
   -7.6958    5.3643  -10.9649 C   0  0  0  0  0  0  0  0  0  0  0  0
   -7.8722    5.3753   -9.5806 C   0  0  0  0  0  0  0  0  0  0  0  0
   -8.2492    4.1948   -8.9822 C   0  0  0  0  0  0  0  0  0  0  0  0
   -8.4166    3.0637   -9.7623 C   0  0  0  0  0  0  0  0  0  0  0  0
   -8.2777    3.0195  -11.1034 N   0  0  0  0  0  0  0  0  0  0  0  0
   -8.7566    1.9127   -8.8503 C   0  0  0  0  0  0  0  0  0  0  0  0
   -9.1567    2.5380   -7.5533 N   0  0  0  0  0  0  0  0  0  0  0  0
   -8.5119    3.8680   -7.5545 C   0  0  0  0  0  0  0  0  0  0  0  0
   -8.5413    4.3528  -15.9500 C   0  0  0  0  0  0  0  0  0  0  0  0
   -8.7371    4.1683  -17.3283 C   0  0  0  0  0  0  0  0  0  0  0  0
   -7.7070    4.4370  -18.2301 C   0  0  0  0  0  0  0  0  0  0  0  0
   -6.4833    4.8364  -17.7252 C   0  0  0  0  0  0  0  0  0  0  0  0
  1  2  1  0
  2  3  1  0
  2  4  1  0
  4  5  1  0
  5  6  1  0
  6  7  2  0
  6  8  1  0
  8  9  1  0
  9 10  2  0
 10 11  1  0
 11 12  2  0
 11 13  1  0
 13 14  1  0
 14 15  2  0
 15 16  1  0
 16 17  2  0
 17 18  1  0
 18 19  2  0
 18 20  1  0
 20 21  1  0
 21 22  1  0
 10 23  1  0
 23 24  2  0
 24 25  1  0
 25 26  2  0
 26  5  1  0
 26  9  1  0
 19 14  1  0
 22 17  1  0
M  END
>  <smiles>  (1706) 
C24650-P209

>  <fragmenstein_outcome>  (1706) 
acceptable

>  <inchikey>  (1706) 
JIKXAOCUYDGVJA-UHFFFAOYSA-N

>  <fragmenstein_mode>  (1706) 
expansion

>  <HIPPO Pose ID>  (1706) 
22840

>  <Energy>  (1706) 
77.407565

>  <fragmenstein_error>  (1706) 


>  <tags>  (1706) 
{'openbind_xx01zvns2b_c1_fragmenstein', 'fragmenstein_placed'}

>  <ref_pdb>  (1706) 
175

>  <scratch_subdir>  (1706) 
/opt/xchem-fragalysis-2/maxwin/BulkDock/SCRATCH/511028/C24650-P209

>  <alias>  (1706) 
CC(C)NN1C(=O)Cc2c(C(=O)Nc3ccc4c(n3)CNC4)cccc21

>  <HIPPO Compound ID>  (1706) 
36988

>  <fragmenstein_runtime>  (1706) 
10.246091

$$$$
Cc1cc(NC(=O)c2cccc3c2CC(=O)N3NC(C)C)nc2c1CNC2
     RDKit          3D

 27 30  0  0  0  0  0  0  0  0999 V2000
   -7.8787    6.6058   -8.7118 C   0  0  0  0  0  0  0  0  0  0  0  0
   -8.0336    5.3467   -9.4958 C   0  0  0  0  0  0  0  0  0  0  0  0
   -7.9172    5.3479  -10.8899 C   0  0  0  0  0  0  0  0  0  0  0  0
   -8.0933    4.1620  -11.6125 C   0  0  0  0  0  0  0  0  0  0  0  0
   -7.9762    4.1630  -12.9906 N   0  0  0  0  0  0  0  0  0  0  0  0
   -7.5970    5.2971  -13.9624 C   0  0  0  0  0  0  0  0  0  0  0  0
   -7.3979    6.4301  -13.7629 O   0  0  0  0  0  0  0  0  0  0  0  0
   -7.5257    4.8406  -15.3675 C   0  0  0  0  0  0  0  0  0  0  0  0
   -8.6453    4.3069  -16.0114 C   0  0  0  0  0  0  0  0  0  0  0  0
   -8.6215    4.0834  -17.3984 C   0  0  0  0  0  0  0  0  0  0  0  0
   -7.4849    4.3952  -18.1537 C   0  0  0  0  0  0  0  0  0  0  0  0
   -6.3760    4.8971  -17.4940 C   0  0  0  0  0  0  0  0  0  0  0  0
   -6.3894    5.1075  -16.1168 C   0  0  0  0  0  0  0  0  0  0  0  0
   -5.0546    5.6172  -15.6684 C   0  0  0  0  0  0  0  0  0  0  0  0
   -4.2347    5.6262  -16.9590 C   0  0  0  0  0  0  0  0  0  0  0  0
   -3.0491    5.9181  -17.0241 O   0  0  0  0  0  0  0  0  0  0  0  0
   -5.1197    5.2676  -17.9989 N   0  0  0  0  0  0  0  0  0  0  0  0
   -4.7392    5.1529  -19.3389 N   0  0  0  0  0  0  0  0  0  0  0  0
   -4.5245    6.4291  -20.0426 C   0  0  0  0  0  0  0  0  0  0  0  0
   -5.2501    7.6459  -19.4662 C   0  0  0  0  0  0  0  0  0  0  0  0
   -3.0284    6.7058  -20.1895 C   0  0  0  0  0  0  0  0  0  0  0  0
   -8.3727    2.9766  -11.0352 N   0  0  0  0  0  0  0  0  0  0  0  0
   -8.4892    3.0094   -9.6918 C   0  0  0  0  0  0  0  0  0  0  0  0
   -8.3530    4.1417   -8.9036 C   0  0  0  0  0  0  0  0  0  0  0  0
   -8.5835    3.7853   -7.4748 C   0  0  0  0  0  0  0  0  0  0  0  0
   -9.1941    2.4407   -7.4833 N   0  0  0  0  0  0  0  0  0  0  0  0
   -8.7783    1.8402   -8.7857 C   0  0  0  0  0  0  0  0  0  0  0  0
  1  2  1  0
  2  3  2  0
  3  4  1  0
  4  5  1  0
  5  6  1  0
  6  7  2  0
  6  8  1  0
  8  9  2  0
  9 10  1  0
 10 11  2  0
 11 12  1  0
 12 13  2  0
 13 14  1  0
 14 15  1  0
 15 16  2  0
 15 17  1  0
 17 18  1  0
 18 19  1  0
 19 20  1  0
 19 21  1  0
  4 22  2  0
 22 23  1  0
 23 24  2  0
 24 25  1  0
 25 26  1  0
 26 27  1  0
 24  2  1  0
 13  8  1  0
 27 23  1  0
 17 12  1  0
M  END
>  <smiles>  (1707) 
C24651-P209

>  <fragmenstein_outcome>  (1707) 
acceptable

>  <inchikey>  (1707) 
XFCCLJSTSUJYCE-UHFFFAOYSA-N

>  <fragmenstein_mode>  (1707) 
expansion

>  <HIPPO Pose ID>  (1707) 
22841

>  <Energy>  (1707) 
81.831962

>  <fragmenstein_error>  (1707) 


>  <tags>  (1707) 
{'openbind_xx01zvns2b_c1_fragmenstein', 'fragmenstein_placed'}

>  <ref_pdb>  (1707) 
175

>  <scratch_subdir>  (1707) 
/opt/xchem-fragalysis-2/maxwin/BulkDock/SCRATCH/511028/C24651-P209

>  <alias>  (1707) 
Cc1cc(NC(=O)c2cccc3c2CC(=O)N3NC(C)C)nc2c1CNC2

>  <HIPPO Compound ID>  (1707) 
20737

>  <fragmenstein_runtime>  (1707) 
5.808877

$$$$
N[C@H]1NCc2ccc(NC(=O)c3cc(Cl)cc4c3CC(=O)N4N)nc21
     RDKit          3D

 25 28  0  0  0  0  0  0  0  0999 V2000
   -8.1128    1.3193   -8.5627 N   0  0  0  0  0  0  0  0  0  0  0  0
   -9.0000    2.4163   -8.7493 C   0  0  1  0  0  0  0  0  0  0  0  0
   -9.0495    3.0355   -7.4226 N   0  0  0  0  0  0  0  0  0  0  0  0
   -8.3548    4.3259   -7.5277 C   0  0  0  0  0  0  0  0  0  0  0  0
   -8.1566    4.5820   -8.9797 C   0  0  0  0  0  0  0  0  0  0  0  0
   -7.6941    5.6972   -9.6349 C   0  0  0  0  0  0  0  0  0  0  0  0
   -7.5769    5.6205  -11.0224 C   0  0  0  0  0  0  0  0  0  0  0  0
   -7.9140    4.4366  -11.6894 C   0  0  0  0  0  0  0  0  0  0  0  0
   -7.7645    4.3422  -13.0621 N   0  0  0  0  0  0  0  0  0  0  0  0
   -7.2036    5.3552  -14.0811 C   0  0  0  0  0  0  0  0  0  0  0  0
   -6.7078    6.3991  -13.9160 O   0  0  0  0  0  0  0  0  0  0  0  0
   -7.3282    4.8880  -15.4874 C   0  0  0  0  0  0  0  0  0  0  0  0
   -8.5505    4.4281  -15.9926 C   0  0  0  0  0  0  0  0  0  0  0  0
   -8.6999    4.2154  -17.3745 C   0  0  0  0  0  0  0  0  0  0  0  0
  -10.2384    3.8225  -18.0236 Cl  0  0  0  0  0  0  0  0  0  0  0  0
   -7.6520    4.4273  -18.2646 C   0  0  0  0  0  0  0  0  0  0  0  0
   -6.4595    4.8814  -17.7469 C   0  0  0  0  0  0  0  0  0  0  0  0
   -6.2828    5.0996  -16.3807 C   0  0  0  0  0  0  0  0  0  0  0  0
   -4.8886    5.6046  -16.1375 C   0  0  0  0  0  0  0  0  0  0  0  0
   -4.2841    5.6630  -17.5463 C   0  0  0  0  0  0  0  0  0  0  0  0
   -3.1459    6.0276  -17.8093 O   0  0  0  0  0  0  0  0  0  0  0  0
   -5.2931    5.2290  -18.4300 N   0  0  0  0  0  0  0  0  0  0  0  0
   -5.2262    5.4135  -19.8080 N   0  0  0  0  0  0  0  0  0  0  0  0
   -8.3779    3.3389  -11.0588 N   0  0  0  0  0  0  0  0  0  0  0  0
   -8.4940    3.4598   -9.7150 C   0  0  0  0  0  0  0  0  0  0  0  0
  2  1  1  1
  2  3  1  0
  3  4  1  0
  4  5  1  0
  5  6  2  0
  6  7  1  0
  7  8  2  0
  8  9  1  0
  9 10  1  0
 10 11  2  0
 10 12  1  0
 12 13  2  0
 13 14  1  0
 14 15  1  0
 14 16  2  0
 16 17  1  0
 17 18  2  0
 18 19  1  0
 19 20  1  0
 20 21  2  0
 20 22  1  0
 22 23  1  0
  8 24  1  0
 24 25  2  0
 25  2  1  0
 25  5  1  0
 18 12  1  0
 22 17  1  0
M  END
>  <smiles>  (1708) 
C24659-P209

>  <fragmenstein_outcome>  (1708) 
acceptable

>  <inchikey>  (1708) 
HSBJAWVPGWOLKA-UHFFFAOYSA-N

>  <fragmenstein_mode>  (1708) 
expansion

>  <HIPPO Pose ID>  (1708) 
22843

>  <Energy>  (1708) 
17.825565

>  <fragmenstein_error>  (1708) 


>  <tags>  (1708) 
{'openbind_xx01zvns2b_c1_fragmenstein', 'fragmenstein_placed'}

>  <ref_pdb>  (1708) 
175

>  <scratch_subdir>  (1708) 
/opt/xchem-fragalysis-2/maxwin/BulkDock/SCRATCH/511028/C24659-P209

>  <alias>  (1708) 
N[C@H]1NCc2ccc(NC(=O)c3cc(Cl)cc4c3CC(=O)N4N)nc21

>  <HIPPO Compound ID>  (1708) 
24659

>  <fragmenstein_runtime>  (1708) 
3.185776

$$$$
N#C[C@](O)(Nc1ccc2c(n1)CNC2)c1cc(Cl)cc2c1CC(=O)N2
     RDKit          3D

 25 28  0  0  0  0  0  0  0  0999 V2000
   -4.9984    4.9750  -12.7730 N   0  0  0  0  0  0  0  0  0  0  0  0
   -6.0550    4.9735  -13.2619 C   0  0  0  0  0  0  0  0  0  0  0  0
   -7.4089    5.1154  -13.8854 C   0  0  2  0  0  0  0  0  0  0  0  0
   -7.7887    6.5029  -13.9378 O   0  0  0  0  0  0  0  0  0  0  0  0
   -8.4598    4.4154  -13.1472 N   0  0  0  0  0  0  0  0  0  0  0  0
   -8.4094    4.4119  -11.7525 C   0  0  0  0  0  0  0  0  0  0  0  0
   -8.3544    5.5876  -10.9905 C   0  0  0  0  0  0  0  0  0  0  0  0
   -8.3020    5.5231   -9.5977 C   0  0  0  0  0  0  0  0  0  0  0  0
   -8.3685    4.2774   -9.0200 C   0  0  0  0  0  0  0  0  0  0  0  0
   -8.4613    3.1660   -9.8319 C   0  0  0  0  0  0  0  0  0  0  0  0
   -8.4604    3.1937  -11.1828 N   0  0  0  0  0  0  0  0  0  0  0  0
   -8.5833    1.9433   -8.9625 C   0  0  0  0  0  0  0  0  0  0  0  0
   -8.6749    2.4344   -7.5542 N   0  0  0  0  0  0  0  0  0  0  0  0
   -8.3931    3.8802   -7.5893 C   0  0  0  0  0  0  0  0  0  0  0  0
   -7.4284    4.7678  -15.3845 C   0  0  0  0  0  0  0  0  0  0  0  0
   -8.6343    4.3510  -16.0024 C   0  0  0  0  0  0  0  0  0  0  0  0
   -8.7469    4.1801  -17.3952 C   0  0  0  0  0  0  0  0  0  0  0  0
  -10.2715    3.8276  -18.0965 Cl  0  0  0  0  0  0  0  0  0  0  0  0
   -7.6678    4.3910  -18.2352 C   0  0  0  0  0  0  0  0  0  0  0  0
   -6.5042    4.8149  -17.6461 C   0  0  0  0  0  0  0  0  0  0  0  0
   -6.3595    5.0079  -16.2646 C   0  0  0  0  0  0  0  0  0  0  0  0
   -4.9538    5.5083  -16.0278 C   0  0  0  0  0  0  0  0  0  0  0  0
   -4.3539    5.5582  -17.4373 C   0  0  0  0  0  0  0  0  0  0  0  0
   -3.2218    5.9002  -17.7387 O   0  0  0  0  0  0  0  0  0  0  0  0
   -5.3370    5.1426  -18.3155 N   0  0  0  0  0  0  0  0  0  0  0  0
  1  2  3  0
  2  3  1  0
  3  4  1  6
  3  5  1  0
  5  6  1  0
  6  7  2  0
  7  8  1  0
  8  9  2  0
  9 10  1  0
 10 11  2  0
 10 12  1  0
 12 13  1  0
 13 14  1  0
  3 15  1  0
 15 16  2  0
 16 17  1  0
 17 18  1  0
 17 19  2  0
 19 20  1  0
 20 21  2  0
 21 22  1  0
 22 23  1  0
 23 24  2  0
 23 25  1  0
 11  6  1  0
 21 15  1  0
 14  9  1  0
 25 20  1  0
M  END
>  <smiles>  (1709) 
C24663-P209

>  <fragmenstein_outcome>  (1709) 
acceptable

>  <inchikey>  (1709) 
LRDJXCAGMBDKFO-UHFFFAOYSA-N

>  <fragmenstein_mode>  (1709) 
expansion

>  <HIPPO Pose ID>  (1709) 
22845

>  <Energy>  (1709) 
15.560449

>  <fragmenstein_error>  (1709) 


>  <tags>  (1709) 
{'openbind_xx01zvns2b_c1_fragmenstein', 'fragmenstein_placed'}

>  <ref_pdb>  (1709) 
175

>  <scratch_subdir>  (1709) 
/opt/xchem-fragalysis-2/maxwin/BulkDock/SCRATCH/511028/C24663-P209

>  <alias>  (1709) 
N#C[C@](O)(Nc1ccc2c(n1)CNC2)c1cc(Cl)cc2c1CC(=O)N2

>  <HIPPO Compound ID>  (1709) 
24663

>  <fragmenstein_runtime>  (1709) 
3.722517

$$$$
O=C1Cc2c(C(=O)Nc3ccc4c(n3)CNC4)cccc2C1=O
     RDKit          3D

 23 26  0  0  0  0  0  0  0  0999 V2000
   -3.1349    5.8615  -17.4069 O   0  0  0  0  0  0  0  0  0  0  0  0
   -4.3070    5.5977  -17.2192 C   0  0  0  0  0  0  0  0  0  0  0  0
   -5.0639    5.6259  -15.9110 C   0  0  0  0  0  0  0  0  0  0  0  0
   -6.4140    5.0834  -16.2931 C   0  0  0  0  0  0  0  0  0  0  0  0
   -7.4982    4.8267  -15.4592 C   0  0  0  0  0  0  0  0  0  0  0  0
   -7.4676    5.2790  -14.0443 C   0  0  0  0  0  0  0  0  0  0  0  0
   -7.1237    6.3769  -13.8450 O   0  0  0  0  0  0  0  0  0  0  0  0
   -7.8801    4.1662  -13.0598 N   0  0  0  0  0  0  0  0  0  0  0  0
   -8.0414    4.1958  -11.6853 C   0  0  0  0  0  0  0  0  0  0  0  0
   -7.8951    5.3932  -10.9752 C   0  0  0  0  0  0  0  0  0  0  0  0
   -8.0484    5.3995   -9.5883 C   0  0  0  0  0  0  0  0  0  0  0  0
   -8.3441    4.2010   -8.9805 C   0  0  0  0  0  0  0  0  0  0  0  0
   -8.4616    3.0593   -9.7545 C   0  0  0  0  0  0  0  0  0  0  0  0
   -8.3258    3.0153  -11.0962 N   0  0  0  0  0  0  0  0  0  0  0  0
   -8.7476    1.8984   -8.8355 C   0  0  0  0  0  0  0  0  0  0  0  0
   -9.1545    2.5122   -7.5348 N   0  0  0  0  0  0  0  0  0  0  0  0
   -8.5605    3.8646   -7.5472 C   0  0  0  0  0  0  0  0  0  0  0  0
   -8.6602    4.2771  -16.0159 C   0  0  0  0  0  0  0  0  0  0  0  0
   -8.7384    4.0146  -17.3968 C   0  0  0  0  0  0  0  0  0  0  0  0
   -7.6598    4.2936  -18.2387 C   0  0  0  0  0  0  0  0  0  0  0  0
   -6.5167    4.8160  -17.6652 C   0  0  0  0  0  0  0  0  0  0  0  0
   -5.2536    5.1686  -18.3240 C   0  0  0  0  0  0  0  0  0  0  0  0
   -4.9628    5.1585  -19.4975 O   0  0  0  0  0  0  0  0  0  0  0  0
  1  2  2  0
  2  3  1  0
  3  4  1  0
  4  5  2  0
  5  6  1  0
  6  7  2  0
  6  8  1  0
  8  9  1  0
  9 10  2  0
 10 11  1  0
 11 12  2  0
 12 13  1  0
 13 14  2  0
 13 15  1  0
 15 16  1  0
 16 17  1  0
  5 18  1  0
 18 19  2  0
 19 20  1  0
 20 21  2  0
 21 22  1  0
 22 23  2  0
 22  2  1  0
 21  4  1  0
 14  9  1  0
 17 12  1  0
M  END
>  <smiles>  (1710) 
C24669-P209

>  <fragmenstein_outcome>  (1710) 
acceptable

>  <inchikey>  (1710) 
QBFNXCWEPKMHIU-UHFFFAOYSA-N

>  <fragmenstein_mode>  (1710) 
expansion

>  <HIPPO Pose ID>  (1710) 
22846

>  <Energy>  (1710) 
74.865946

>  <fragmenstein_error>  (1710) 


>  <tags>  (1710) 
{'openbind_xx01zvns2b_c1_fragmenstein', 'fragmenstein_placed'}

>  <ref_pdb>  (1710) 
175

>  <scratch_subdir>  (1710) 
/opt/xchem-fragalysis-2/maxwin/BulkDock/SCRATCH/511028/C24669-P209

>  <alias>  (1710) 
O=C1Cc2c(C(=O)Nc3ccc4c(n3)CNC4)cccc2C1=O

>  <HIPPO Compound ID>  (1710) 
26960

>  <fragmenstein_runtime>  (1710) 
3.956931

$$$$
N#Cc1c(Cl)cc(C(=O)Nc2ccc3c(n2)CNC3)c2c1NC(=O)C2
     RDKit          3D

 25 28  0  0  0  0  0  0  0  0999 V2000
   -7.3231    3.1915  -20.3377 N   0  0  0  0  0  0  0  0  0  0  0  0
   -7.3604    3.7803  -19.3383 C   0  0  0  0  0  0  0  0  0  0  0  0
   -7.4186    4.3244  -18.0257 C   0  0  0  0  0  0  0  0  0  0  0  0
   -8.5751    4.2155  -17.2499 C   0  0  0  0  0  0  0  0  0  0  0  0
  -10.0786    3.7701  -17.9664 Cl  0  0  0  0  0  0  0  0  0  0  0  0
   -8.5619    4.5390  -15.8816 C   0  0  0  0  0  0  0  0  0  0  0  0
   -7.3943    5.0269  -15.2842 C   0  0  0  0  0  0  0  0  0  0  0  0
   -7.4063    5.4701  -13.8722 C   0  0  0  0  0  0  0  0  0  0  0  0
   -7.0711    6.5641  -13.6424 O   0  0  0  0  0  0  0  0  0  0  0  0
   -7.9241    4.3642  -12.9302 N   0  0  0  0  0  0  0  0  0  0  0  0
   -8.0438    4.3407  -11.5533 C   0  0  0  0  0  0  0  0  0  0  0  0
   -7.8873    5.5083  -10.8016 C   0  0  0  0  0  0  0  0  0  0  0  0
   -8.0153    5.4541   -9.4140 C   0  0  0  0  0  0  0  0  0  0  0  0
   -8.2965    4.2295   -8.8493 C   0  0  0  0  0  0  0  0  0  0  0  0
   -8.4370    3.1243   -9.6666 C   0  0  0  0  0  0  0  0  0  0  0  0
   -8.3146    3.1358  -11.0098 N   0  0  0  0  0  0  0  0  0  0  0  0
   -8.7005    1.9189   -8.8059 C   0  0  0  0  0  0  0  0  0  0  0  0
   -8.8898    2.4286   -7.4162 N   0  0  0  0  0  0  0  0  0  0  0  0
   -8.4750    3.8443   -7.4251 C   0  0  0  0  0  0  0  0  0  0  0  0
   -6.2687    5.2062  -16.0732 C   0  0  0  0  0  0  0  0  0  0  0  0
   -6.2939    4.8539  -17.4218 C   0  0  0  0  0  0  0  0  0  0  0  0
   -5.0443    5.0935  -17.9857 N   0  0  0  0  0  0  0  0  0  0  0  0
   -4.1476    5.5804  -17.0456 C   0  0  0  0  0  0  0  0  0  0  0  0
   -2.9757    5.8478  -17.2530 O   0  0  0  0  0  0  0  0  0  0  0  0
   -4.9011    5.7124  -15.7165 C   0  0  0  0  0  0  0  0  0  0  0  0
  1  2  3  0
  2  3  1  0
  3  4  2  0
  4  5  1  0
  4  6  1  0
  6  7  2  0
  7  8  1  0
  8  9  2  0
  8 10  1  0
 10 11  1  0
 11 12  2  0
 12 13  1  0
 13 14  2  0
 14 15  1  0
 15 16  2  0
 15 17  1  0
 17 18  1  0
 18 19  1  0
  7 20  1  0
 20 21  2  0
 21 22  1  0
 22 23  1  0
 23 24  2  0
 23 25  1  0
 21  3  1  0
 16 11  1  0
 25 20  1  0
 19 14  1  0
M  END
>  <smiles>  (1711) 
C24672-P209

>  <fragmenstein_outcome>  (1711) 
acceptable

>  <inchikey>  (1711) 
UEMKBNQASCMCLR-UHFFFAOYSA-N

>  <fragmenstein_mode>  (1711) 
expansion

>  <HIPPO Pose ID>  (1711) 
22848

>  <Energy>  (1711) 
26.593584

>  <fragmenstein_error>  (1711) 


>  <tags>  (1711) 
{'openbind_xx01zvns2b_c1_fragmenstein', 'fragmenstein_placed'}

>  <ref_pdb>  (1711) 
175

>  <scratch_subdir>  (1711) 
/opt/xchem-fragalysis-2/maxwin/BulkDock/SCRATCH/511028/C24672-P209

>  <alias>  (1711) 
N#Cc1c(Cl)cc(C(=O)Nc2ccc3c(n2)CNC3)c2c1NC(=O)C2

>  <HIPPO Compound ID>  (1711) 
41415

>  <fragmenstein_runtime>  (1711) 
3.778791

$$$$
C[N@+]1([O-])C(=O)Cc2c(C(=O)Nc3ccc4c(n3)CNC4)cccc21
     RDKit          3D

 24 27  0  0  0  0  0  0  0  0999 V2000
   -5.0554    5.1453  -19.2828 C   0  0  0  0  0  0  0  0  0  0  0  0
   -5.5885    5.8660  -18.1058 N   0  0  2  0  0  0  0  0  0  0  0  0
   -5.9653    7.1545  -18.4206 O   0  0  0  0  0  0  0  0  0  0  0  0
   -4.5914    5.8946  -16.9753 C   0  0  0  0  0  0  0  0  0  0  0  0
   -3.3841    5.8798  -17.1716 O   0  0  0  0  0  0  0  0  0  0  0  0
   -5.2837    5.8371  -15.6355 C   0  0  0  0  0  0  0  0  0  0  0  0
   -6.6061    5.2549  -16.0261 C   0  0  0  0  0  0  0  0  0  0  0  0
   -7.6382    4.8473  -15.1933 C   0  0  0  0  0  0  0  0  0  0  0  0
   -7.6235    5.2655  -13.7677 C   0  0  0  0  0  0  0  0  0  0  0  0
   -7.2889    6.3613  -13.5470 O   0  0  0  0  0  0  0  0  0  0  0  0
   -8.1061    4.1590  -12.8146 N   0  0  0  0  0  0  0  0  0  0  0  0
   -8.1866    4.1340  -11.4361 C   0  0  0  0  0  0  0  0  0  0  0  0
   -8.0100    5.3147  -10.7026 C   0  0  0  0  0  0  0  0  0  0  0  0
   -8.1240    5.2904   -9.3145 C   0  0  0  0  0  0  0  0  0  0  0  0
   -8.4137    4.0793   -8.7320 C   0  0  0  0  0  0  0  0  0  0  0  0
   -8.5453    2.9541   -9.5300 C   0  0  0  0  0  0  0  0  0  0  0  0
   -8.4465    2.9381  -10.8740 N   0  0  0  0  0  0  0  0  0  0  0  0
   -8.8117    1.7750   -8.6318 C   0  0  0  0  0  0  0  0  0  0  0  0
   -9.2249    2.3635   -7.3222 N   0  0  0  0  0  0  0  0  0  0  0  0
   -8.6278    3.7151   -7.3058 C   0  0  0  0  0  0  0  0  0  0  0  0
   -8.7560    4.2463  -15.7743 C   0  0  0  0  0  0  0  0  0  0  0  0
   -8.8443    4.0944  -17.1682 C   0  0  0  0  0  0  0  0  0  0  0  0
   -7.8374    4.5840  -18.0035 C   0  0  0  0  0  0  0  0  0  0  0  0
   -6.7246    5.1771  -17.4237 C   0  0  0  0  0  0  0  0  0  0  0  0
  2  1  1  6
  2  3  1  0
  2  4  1  0
  4  5  2  0
  4  6  1  0
  6  7  1  0
  7  8  2  0
  8  9  1  0
  9 10  2  0
  9 11  1  0
 11 12  1  0
 12 13  2  0
 13 14  1  0
 14 15  2  0
 15 16  1  0
 16 17  2  0
 16 18  1  0
 18 19  1  0
 19 20  1  0
  8 21  1  0
 21 22  2  0
 22 23  1  0
 23 24  2  0
 24  2  1  0
 24  7  1  0
 17 12  1  0
 20 15  1  0
M  CHG  2   2   1   3  -1
M  END
>  <smiles>  (1712) 
C24673-P209

>  <fragmenstein_outcome>  (1712) 
acceptable

>  <inchikey>  (1712) 
JEVGYPYCKJUVAC-UHFFFAOYSA-N

>  <fragmenstein_mode>  (1712) 
expansion

>  <HIPPO Pose ID>  (1712) 
22849

>  <Energy>  (1712) 
83.061633

>  <fragmenstein_error>  (1712) 


>  <tags>  (1712) 
{'openbind_xx01zvns2b_c1_fragmenstein', 'fragmenstein_placed'}

>  <ref_pdb>  (1712) 
175

>  <scratch_subdir>  (1712) 
/opt/xchem-fragalysis-2/maxwin/BulkDock/SCRATCH/511028/C24673-P209

>  <alias>  (1712) 
C[N@+]1([O-])C(=O)Cc2c(C(=O)Nc3ccc4c(n3)CNC4)cccc21

>  <HIPPO Compound ID>  (1712) 
31993

>  <fragmenstein_runtime>  (1712) 
3.323206

$$$$
O=C1Cc2c(cc(Br)cc2C(=O)Nc2ccc3c(n2)CNC3)N1
     RDKit          3D

 23 26  0  0  0  0  0  0  0  0999 V2000
   -3.1617    5.7806  -17.7404 O   0  0  0  0  0  0  0  0  0  0  0  0
   -4.3081    5.5070  -17.4301 C   0  0  0  0  0  0  0  0  0  0  0  0
   -4.9254    5.5533  -16.0235 C   0  0  0  0  0  0  0  0  0  0  0  0
   -6.3219    5.0711  -16.2799 C   0  0  0  0  0  0  0  0  0  0  0  0
   -6.4694    4.8252  -17.6434 C   0  0  0  0  0  0  0  0  0  0  0  0
   -7.6431    4.4018  -18.2097 C   0  0  0  0  0  0  0  0  0  0  0  0
   -8.7212    4.2352  -17.3516 C   0  0  0  0  0  0  0  0  0  0  0  0
  -10.4079    3.9286  -18.1190 Br  0  0  0  0  0  0  0  0  0  0  0  0
   -8.6050    4.4351  -15.9650 C   0  0  0  0  0  0  0  0  0  0  0  0
   -7.3894    4.8682  -15.4203 C   0  0  0  0  0  0  0  0  0  0  0  0
   -7.3192    5.3016  -14.0030 C   0  0  0  0  0  0  0  0  0  0  0  0
   -6.9283    6.3815  -13.7906 O   0  0  0  0  0  0  0  0  0  0  0  0
   -7.8860    4.2354  -13.0416 N   0  0  0  0  0  0  0  0  0  0  0  0
   -7.9985    4.2374  -11.6622 C   0  0  0  0  0  0  0  0  0  0  0  0
   -7.8137    5.4187  -10.9353 C   0  0  0  0  0  0  0  0  0  0  0  0
   -7.9703    5.4093   -9.5489 C   0  0  0  0  0  0  0  0  0  0  0  0
   -8.3012    4.2110   -8.9586 C   0  0  0  0  0  0  0  0  0  0  0  0
   -8.4438    3.0830   -9.7484 C   0  0  0  0  0  0  0  0  0  0  0  0
   -8.3140    3.0560  -11.0907 N   0  0  0  0  0  0  0  0  0  0  0  0
   -8.7520    1.9154   -8.8457 C   0  0  0  0  0  0  0  0  0  0  0  0
   -9.1554    2.5196   -7.5396 N   0  0  0  0  0  0  0  0  0  0  0  0
   -8.5374    3.8618   -7.5315 C   0  0  0  0  0  0  0  0  0  0  0  0
   -5.2921    5.0978  -18.3113 N   0  0  0  0  0  0  0  0  0  0  0  0
  1  2  2  0
  2  3  1  0
  3  4  1  0
  4  5  2  0
  5  6  1  0
  6  7  2  0
  7  8  1  0
  7  9  1  0
  9 10  2  0
 10 11  1  0
 11 12  2  0
 11 13  1  0
 13 14  1  0
 14 15  2  0
 15 16  1  0
 16 17  2  0
 17 18  1  0
 18 19  2  0
 18 20  1  0
 20 21  1  0
 21 22  1  0
  5 23  1  0
 23  2  1  0
 10  4  1  0
 19 14  1  0
 22 17  1  0
M  END
>  <smiles>  (1713) 
C24585-P209

>  <fragmenstein_outcome>  (1713) 
acceptable

>  <inchikey>  (1713) 
POLGZLJEWBCPEM-UHFFFAOYSA-N

>  <fragmenstein_mode>  (1713) 
expansion

>  <HIPPO Pose ID>  (1713) 
22850

>  <Energy>  (1713) 
11.934999

>  <fragmenstein_error>  (1713) 


>  <tags>  (1713) 
{'openbind_xx01zvns2b_c1_fragmenstein', 'fragmenstein_placed'}

>  <ref_pdb>  (1713) 
175

>  <scratch_subdir>  (1713) 
/opt/xchem-fragalysis-2/maxwin/BulkDock/SCRATCH/511028/C24585-P209

>  <alias>  (1713) 
O=C1Cc2c(cc(Br)cc2C(=O)Nc2ccc3c(n2)CNC3)N1

>  <HIPPO Compound ID>  (1713) 
24585

>  <fragmenstein_runtime>  (1713) 
4.22681

$$$$
N[C@@H]1C(=O)Nc2cccc(C(=O)Nc3ccc4c(n3)CNC4)c21
     RDKit          3D

 23 26  0  0  0  0  0  0  0  0999 V2000
   -4.9377    6.8627  -15.6586 N   0  0  0  0  0  0  0  0  0  0  0  0
   -5.1132    5.4852  -16.1226 C   0  0  2  0  0  0  0  0  0  0  0  0
   -4.5397    5.3659  -17.5751 C   0  0  0  0  0  0  0  0  0  0  0  0
   -3.4007    5.6164  -17.9386 O   0  0  0  0  0  0  0  0  0  0  0  0
   -5.5744    4.9674  -18.4017 N   0  0  0  0  0  0  0  0  0  0  0  0
   -6.7298    4.7387  -17.6743 C   0  0  0  0  0  0  0  0  0  0  0  0
   -7.9132    4.2493  -18.1870 C   0  0  0  0  0  0  0  0  0  0  0  0
   -8.9542    4.0302  -17.2931 C   0  0  0  0  0  0  0  0  0  0  0  0
   -8.7897    4.3275  -15.9305 C   0  0  0  0  0  0  0  0  0  0  0  0
   -7.5854    4.8577  -15.4366 C   0  0  0  0  0  0  0  0  0  0  0  0
   -7.5682    5.3393  -14.0320 C   0  0  0  0  0  0  0  0  0  0  0  0
   -7.3940    6.4783  -13.8465 O   0  0  0  0  0  0  0  0  0  0  0  0
   -7.8964    4.2024  -13.0402 N   0  0  0  0  0  0  0  0  0  0  0  0
   -7.9818    4.2111  -11.6594 C   0  0  0  0  0  0  0  0  0  0  0  0
   -7.8184    5.4008  -10.9410 C   0  0  0  0  0  0  0  0  0  0  0  0
   -7.9746    5.3994   -9.5544 C   0  0  0  0  0  0  0  0  0  0  0  0
   -8.2912    4.2016   -8.9557 C   0  0  0  0  0  0  0  0  0  0  0  0
   -8.4130    3.0652   -9.7364 C   0  0  0  0  0  0  0  0  0  0  0  0
   -8.2712    3.0275  -11.0771 N   0  0  0  0  0  0  0  0  0  0  0  0
   -8.7303    1.9041   -8.8287 C   0  0  0  0  0  0  0  0  0  0  0  0
   -9.1474    2.5170   -7.5303 N   0  0  0  0  0  0  0  0  0  0  0  0
   -8.5350    3.8620   -7.5280 C   0  0  0  0  0  0  0  0  0  0  0  0
   -6.5383    5.0529  -16.3232 C   0  0  0  0  0  0  0  0  0  0  0  0
  2  1  1  6
  2  3  1  0
  3  4  2  0
  3  5  1  0
  5  6  1  0
  6  7  2  0
  7  8  1  0
  8  9  2  0
  9 10  1  0
 10 11  1  0
 11 12  2  0
 11 13  1  0
 13 14  1  0
 14 15  2  0
 15 16  1  0
 16 17  2  0
 17 18  1  0
 18 19  2  0
 18 20  1  0
 20 21  1  0
 21 22  1  0
 10 23  2  0
 23  2  1  0
 23  6  1  0
 19 14  1  0
 22 17  1  0
M  END
>  <smiles>  (1714) 
C24675-P209

>  <fragmenstein_outcome>  (1714) 
acceptable

>  <inchikey>  (1714) 
RQDPTGTWMZIVJL-UHFFFAOYSA-N

>  <fragmenstein_mode>  (1714) 
expansion

>  <HIPPO Pose ID>  (1714) 
22851

>  <Energy>  (1714) 
56.780653

>  <fragmenstein_error>  (1714) 


>  <tags>  (1714) 
{'openbind_xx01zvns2b_c1_fragmenstein', 'fragmenstein_placed'}

>  <ref_pdb>  (1714) 
175

>  <scratch_subdir>  (1714) 
/opt/xchem-fragalysis-2/maxwin/BulkDock/SCRATCH/511028/C24675-P209

>  <alias>  (1714) 
N[C@@H]1C(=O)Nc2cccc(C(=O)Nc3ccc4c(n3)CNC4)c21

>  <HIPPO Compound ID>  (1714) 
24675

>  <fragmenstein_runtime>  (1714) 
3.986279

$$$$
CCc1cc(C(=O)Nc2ccc3c(n2)CNC3)c2c(c1)N(C)C(=O)C2
     RDKit          3D

 25 28  0  0  0  0  0  0  0  0999 V2000
  -10.6729    4.1903  -18.2107 C   0  0  0  0  0  0  0  0  0  0  0  0
   -9.3821    3.4037  -18.1241 C   0  0  0  0  0  0  0  0  0  0  0  0
   -8.2906    4.1129  -17.3650 C   0  0  0  0  0  0  0  0  0  0  0  0
   -8.4287    4.3706  -15.9787 C   0  0  0  0  0  0  0  0  0  0  0  0
   -7.4005    5.0012  -15.2722 C   0  0  0  0  0  0  0  0  0  0  0  0
   -7.5645    5.4438  -13.8696 C   0  0  0  0  0  0  0  0  0  0  0  0
   -7.3944    6.5763  -13.6439 O   0  0  0  0  0  0  0  0  0  0  0  0
   -7.8466    4.2671  -12.9169 N   0  0  0  0  0  0  0  0  0  0  0  0
   -8.0643    4.2488  -11.5510 C   0  0  0  0  0  0  0  0  0  0  0  0
   -8.0011    5.4358  -10.8102 C   0  0  0  0  0  0  0  0  0  0  0  0
   -8.1685    5.3999   -9.4268 C   0  0  0  0  0  0  0  0  0  0  0  0
   -8.4125    4.1733   -8.8550 C   0  0  0  0  0  0  0  0  0  0  0  0
   -8.4641    3.0470   -9.6592 C   0  0  0  0  0  0  0  0  0  0  0  0
   -8.2915    3.0398  -10.9973 N   0  0  0  0  0  0  0  0  0  0  0  0
   -8.7419    1.8557   -8.7781 C   0  0  0  0  0  0  0  0  0  0  0  0
   -9.1914    2.4228   -7.4700 N   0  0  0  0  0  0  0  0  0  0  0  0
   -8.6386    3.7917   -7.4351 C   0  0  0  0  0  0  0  0  0  0  0  0
   -6.2349    5.3282  -15.9456 C   0  0  0  0  0  0  0  0  0  0  0  0
   -6.0987    5.0700  -17.3055 C   0  0  0  0  0  0  0  0  0  0  0  0
   -7.1132    4.4830  -18.0353 C   0  0  0  0  0  0  0  0  0  0  0  0
   -4.8329    5.4876  -17.7248 N   0  0  0  0  0  0  0  0  0  0  0  0
   -4.2851    5.2770  -19.0312 C   0  0  0  0  0  0  0  0  0  0  0  0
   -4.0837    5.9833  -16.6576 C   0  0  0  0  0  0  0  0  0  0  0  0
   -2.9294    6.3830  -16.6885 O   0  0  0  0  0  0  0  0  0  0  0  0
   -4.9769    5.9488  -15.4212 C   0  0  0  0  0  0  0  0  0  0  0  0
  1  2  1  0
  2  3  1  0
  3  4  2  0
  4  5  1  0
  5  6  1  0
  6  7  2  0
  6  8  1  0
  8  9  1  0
  9 10  2  0
 10 11  1  0
 11 12  2  0
 12 13  1  0
 13 14  2  0
 13 15  1  0
 15 16  1  0
 16 17  1  0
  5 18  2  0
 18 19  1  0
 19 20  2  0
 19 21  1  0
 21 22  1  0
 21 23  1  0
 23 24  2  0
 23 25  1  0
 20  3  1  0
 14  9  1  0
 25 18  1  0
 17 12  1  0
M  END
>  <smiles>  (1715) 
C24688-P209

>  <fragmenstein_outcome>  (1715) 
acceptable

>  <inchikey>  (1715) 
SEQOSALUEWYPTM-UHFFFAOYSA-N

>  <fragmenstein_mode>  (1715) 
expansion

>  <HIPPO Pose ID>  (1715) 
22853

>  <Energy>  (1715) 
32.730007

>  <fragmenstein_error>  (1715) 


>  <tags>  (1715) 
{'openbind_xx01zvns2b_c1_fragmenstein', 'fragmenstein_placed'}

>  <ref_pdb>  (1715) 
175

>  <scratch_subdir>  (1715) 
/opt/xchem-fragalysis-2/maxwin/BulkDock/SCRATCH/511028/C24688-P209

>  <alias>  (1715) 
CCc1cc(C(=O)Nc2ccc3c(n2)CNC3)c2c(c1)N(C)C(=O)C2

>  <HIPPO Compound ID>  (1715) 
24688

>  <fragmenstein_runtime>  (1715) 
4.530818

$$$$
N#Cc1cc2c(nc1NC(=O)c1cc(F)cc3c1CC(=O)N3)CNC2
     RDKit          3D

 25 28  0  0  0  0  0  0  0  0999 V2000
   -7.9131    7.8887  -11.4868 N   0  0  0  0  0  0  0  0  0  0  0  0
   -7.9116    6.7606  -11.2064 C   0  0  0  0  0  0  0  0  0  0  0  0
   -8.0000    5.4247  -10.7158 C   0  0  0  0  0  0  0  0  0  0  0  0
   -8.1125    5.3133   -9.3185 C   0  0  0  0  0  0  0  0  0  0  0  0
   -8.3808    4.0783   -8.7844 C   0  0  0  0  0  0  0  0  0  0  0  0
   -8.4996    2.9963   -9.6307 C   0  0  0  0  0  0  0  0  0  0  0  0
   -8.3911    3.0515  -10.9756 N   0  0  0  0  0  0  0  0  0  0  0  0
   -8.1263    4.2713  -11.5129 C   0  0  0  0  0  0  0  0  0  0  0  0
   -8.0355    4.2327  -12.9055 N   0  0  0  0  0  0  0  0  0  0  0  0
   -7.3384    5.1957  -13.8934 C   0  0  0  0  0  0  0  0  0  0  0  0
   -6.7969    6.2124  -13.7041 O   0  0  0  0  0  0  0  0  0  0  0  0
   -7.4760    4.7763  -15.3213 C   0  0  0  0  0  0  0  0  0  0  0  0
   -8.6784    4.2667  -15.8295 C   0  0  0  0  0  0  0  0  0  0  0  0
   -8.8293    4.0361  -17.2081 C   0  0  0  0  0  0  0  0  0  0  0  0
  -10.0030    3.5867  -17.6727 F   0  0  0  0  0  0  0  0  0  0  0  0
   -7.8098    4.2986  -18.1129 C   0  0  0  0  0  0  0  0  0  0  0  0
   -6.6376    4.7928  -17.5923 C   0  0  0  0  0  0  0  0  0  0  0  0
   -6.4541    5.0357  -16.2298 C   0  0  0  0  0  0  0  0  0  0  0  0
   -5.0657    5.5720  -16.0185 C   0  0  0  0  0  0  0  0  0  0  0  0
   -4.4837    5.5509  -17.4398 C   0  0  0  0  0  0  0  0  0  0  0  0
   -3.3493    5.8596  -17.7697 O   0  0  0  0  0  0  0  0  0  0  0  0
   -5.4878    5.1170  -18.2942 N   0  0  0  0  0  0  0  0  0  0  0  0
   -8.7817    1.7799   -8.7860 C   0  0  0  0  0  0  0  0  0  0  0  0
   -9.1981    2.3108   -7.4537 N   0  0  0  0  0  0  0  0  0  0  0  0
   -8.6147    3.6627   -7.3759 C   0  0  0  0  0  0  0  0  0  0  0  0
  1  2  3  0
  2  3  1  0
  3  4  2  0
  4  5  1  0
  5  6  2  0
  6  7  1  0
  7  8  2  0
  8  9  1  0
  9 10  1  0
 10 11  2  0
 10 12  1  0
 12 13  2  0
 13 14  1  0
 14 15  1  0
 14 16  2  0
 16 17  1  0
 17 18  2  0
 18 19  1  0
 19 20  1  0
 20 21  2  0
 20 22  1  0
  6 23  1  0
 23 24  1  0
 24 25  1  0
  8  3  1  0
 18 12  1  0
 25  5  1  0
 22 17  1  0
M  END
>  <smiles>  (1716) 
C24690-P209

>  <fragmenstein_outcome>  (1716) 
acceptable

>  <inchikey>  (1716) 
FWIMKSYILJBGGS-UHFFFAOYSA-N

>  <fragmenstein_mode>  (1716) 
expansion

>  <HIPPO Pose ID>  (1716) 
22855

>  <Energy>  (1716) 
32.241689

>  <fragmenstein_error>  (1716) 


>  <tags>  (1716) 
{'openbind_xx01zvns2b_c1_fragmenstein', 'fragmenstein_placed'}

>  <ref_pdb>  (1716) 
175

>  <scratch_subdir>  (1716) 
/opt/xchem-fragalysis-2/maxwin/BulkDock/SCRATCH/511028/C24690-P209

>  <alias>  (1716) 
N#Cc1cc2c(nc1NC(=O)c1cc(F)cc3c1CC(=O)N3)CNC2

>  <HIPPO Compound ID>  (1716) 
24690

>  <fragmenstein_runtime>  (1716) 
4.862167

$$$$
O=C1Cc2c(cc(F)cc2C(=O)Nc2ccc3c(n2)CNC3)N1
     RDKit          3D

 23 26  0  0  0  0  0  0  0  0999 V2000
   -3.5486    5.7383  -17.7845 O   0  0  0  0  0  0  0  0  0  0  0  0
   -4.7002    5.4435  -17.5065 C   0  0  0  0  0  0  0  0  0  0  0  0
   -5.3358    5.4919  -16.1119 C   0  0  0  0  0  0  0  0  0  0  0  0
   -6.7070    4.9454  -16.3701 C   0  0  0  0  0  0  0  0  0  0  0  0
   -6.8446    4.6818  -17.7326 C   0  0  0  0  0  0  0  0  0  0  0  0
   -7.9967    4.1720  -18.2820 C   0  0  0  0  0  0  0  0  0  0  0  0
   -9.0385    3.9101  -17.4040 C   0  0  0  0  0  0  0  0  0  0  0  0
  -10.1959    3.4528  -17.8967 F   0  0  0  0  0  0  0  0  0  0  0  0
   -8.9254    4.1501  -16.0254 C   0  0  0  0  0  0  0  0  0  0  0  0
   -7.7515    4.6909  -15.4958 C   0  0  0  0  0  0  0  0  0  0  0  0
   -7.6772    5.1529  -14.0851 C   0  0  0  0  0  0  0  0  0  0  0  0
   -7.2969    6.2433  -13.9078 O   0  0  0  0  0  0  0  0  0  0  0  0
   -8.1766    4.0912  -13.0811 N   0  0  0  0  0  0  0  0  0  0  0  0
   -8.2222    4.1128  -11.6962 C   0  0  0  0  0  0  0  0  0  0  0  0
   -7.9896    5.3052  -11.0003 C   0  0  0  0  0  0  0  0  0  0  0  0
   -8.0805    5.3257   -9.6081 C   0  0  0  0  0  0  0  0  0  0  0  0
   -8.3953    4.1436   -8.9792 C   0  0  0  0  0  0  0  0  0  0  0  0
   -8.5757    2.9993   -9.7380 C   0  0  0  0  0  0  0  0  0  0  0  0
   -8.5144    2.9444  -11.0850 N   0  0  0  0  0  0  0  0  0  0  0  0
   -8.8329    1.8535   -8.7913 C   0  0  0  0  0  0  0  0  0  0  0  0
   -9.2189    2.4949   -7.4966 N   0  0  0  0  0  0  0  0  0  0  0  0
   -8.5817    3.8285   -7.5366 C   0  0  0  0  0  0  0  0  0  0  0  0
   -5.6725    5.0058  -18.3965 N   0  0  0  0  0  0  0  0  0  0  0  0
  1  2  2  0
  2  3  1  0
  3  4  1  0
  4  5  2  0
  5  6  1  0
  6  7  2  0
  7  8  1  0
  7  9  1  0
  9 10  2  0
 10 11  1  0
 11 12  2  0
 11 13  1  0
 13 14  1  0
 14 15  2  0
 15 16  1  0
 16 17  2  0
 17 18  1  0
 18 19  2  0
 18 20  1  0
 20 21  1  0
 21 22  1  0
  5 23  1  0
 23  2  1  0
 10  4  1  0
 19 14  1  0
 22 17  1  0
M  END
>  <smiles>  (1717) 
C24667-P209

>  <fragmenstein_outcome>  (1717) 
acceptable

>  <inchikey>  (1717) 
XULWFMBPBDXECC-UHFFFAOYSA-N

>  <fragmenstein_mode>  (1717) 
expansion

>  <HIPPO Pose ID>  (1717) 
22857

>  <Energy>  (1717) 
6.657131

>  <fragmenstein_error>  (1717) 


>  <tags>  (1717) 
{'openbind_xx01zvns2b_c1_fragmenstein', 'fragmenstein_placed'}

>  <ref_pdb>  (1717) 
175

>  <scratch_subdir>  (1717) 
/opt/xchem-fragalysis-2/maxwin/BulkDock/SCRATCH/511028/C24667-P209

>  <alias>  (1717) 
O=C1Cc2c(cc(F)cc2C(=O)Nc2ccc3c(n2)CNC3)N1

>  <HIPPO Compound ID>  (1717) 
24667

>  <fragmenstein_runtime>  (1717) 
4.711821

$$$$
CN1CCC2(CC1)Cc1c(cccc1C(=O)Nc1ccc3c(n1)CNC3)N2
     RDKit          3D

 27 31  0  0  0  0  0  0  0  0999 V2000
   -1.2897    7.7064  -19.2884 C   0  0  0  0  0  0  0  0  0  0  0  0
   -2.1781    7.4011  -18.1666 N   0  0  0  0  0  0  0  0  0  0  0  0
   -2.1194    5.9669  -17.8459 C   0  0  0  0  0  0  0  0  0  0  0  0
   -2.9940    5.6348  -16.6375 C   0  0  0  0  0  0  0  0  0  0  0  0
   -4.4478    6.0595  -16.8511 C   0  0  0  0  0  0  0  0  0  0  0  0
   -4.4985    7.5255  -17.3157 C   0  0  0  0  0  0  0  0  0  0  0  0
   -3.5556    7.7971  -18.4884 C   0  0  0  0  0  0  0  0  0  0  0  0
   -5.2302    5.8627  -15.5173 C   0  0  0  0  0  0  0  0  0  0  0  0
   -6.5003    5.2495  -15.9935 C   0  0  0  0  0  0  0  0  0  0  0  0
   -6.3840    4.9292  -17.3397 C   0  0  0  0  0  0  0  0  0  0  0  0
   -7.4236    4.3145  -18.0132 C   0  0  0  0  0  0  0  0  0  0  0  0
   -8.5955    4.0154  -17.3110 C   0  0  0  0  0  0  0  0  0  0  0  0
   -8.7084    4.3255  -15.9464 C   0  0  0  0  0  0  0  0  0  0  0  0
   -7.6556    4.9598  -15.2837 C   0  0  0  0  0  0  0  0  0  0  0  0
   -7.7858    5.4260  -13.8838 C   0  0  0  0  0  0  0  0  0  0  0  0
   -7.6082    6.5598  -13.6696 O   0  0  0  0  0  0  0  0  0  0  0  0
   -8.1190    4.2682  -12.9235 N   0  0  0  0  0  0  0  0  0  0  0  0
   -8.2073    4.2424  -11.5437 C   0  0  0  0  0  0  0  0  0  0  0  0
   -8.0860    5.4268  -10.8060 C   0  0  0  0  0  0  0  0  0  0  0  0
   -8.1812    5.3905   -9.4158 C   0  0  0  0  0  0  0  0  0  0  0  0
   -8.4129    4.1659   -8.8342 C   0  0  0  0  0  0  0  0  0  0  0  0
   -8.5054    3.0396   -9.6349 C   0  0  0  0  0  0  0  0  0  0  0  0
   -8.4034    3.0330  -10.9791 N   0  0  0  0  0  0  0  0  0  0  0  0
   -8.7525    1.8502   -8.7430 C   0  0  0  0  0  0  0  0  0  0  0  0
   -9.1655    2.4231   -7.4249 N   0  0  0  0  0  0  0  0  0  0  0  0
   -8.6005    3.7880   -7.4080 C   0  0  0  0  0  0  0  0  0  0  0  0
   -5.0954    5.1788  -17.8553 N   0  0  0  0  0  0  0  0  0  0  0  0
  1  2  1  0
  2  3  1  0
  3  4  1  0
  4  5  1  0
  5  6  1  0
  6  7  1  0
  5  8  1  0
  8  9  1  0
  9 10  2  0
 10 11  1  0
 11 12  2  0
 12 13  1  0
 13 14  2  0
 14 15  1  0
 15 16  2  0
 15 17  1  0
 17 18  1  0
 18 19  2  0
 19 20  1  0
 20 21  2  0
 21 22  1  0
 22 23  2  0
 22 24  1  0
 24 25  1  0
 25 26  1  0
 10 27  1  0
  7  2  1  0
 14  9  1  0
 23 18  1  0
 27  5  1  0
 26 21  1  0
M  END
>  <smiles>  (1718) 
C24735-P209

>  <fragmenstein_outcome>  (1718) 
acceptable

>  <inchikey>  (1718) 
ZHCHNLJUWXSMRZ-UHFFFAOYSA-N

>  <fragmenstein_mode>  (1718) 
expansion

>  <HIPPO Pose ID>  (1718) 
22859

>  <Energy>  (1718) 
41.698862

>  <fragmenstein_error>  (1718) 


>  <tags>  (1718) 
{'openbind_xx01zvns2b_c1_fragmenstein', 'fragmenstein_placed'}

>  <ref_pdb>  (1718) 
175

>  <scratch_subdir>  (1718) 
/opt/xchem-fragalysis-2/maxwin/BulkDock/SCRATCH/511028/C24735-P209

>  <alias>  (1718) 
CN1CCC2(CC1)Cc1c(cccc1C(=O)Nc1ccc3c(n1)CNC3)N2

>  <HIPPO Compound ID>  (1718) 
24735

>  <fragmenstein_runtime>  (1718) 
3.904641

$$$$
CNCN1C(=O)Cc2c(C(=O)Nc3ccc4c(n3)CNC4)cc(Cl)cc21
     RDKit          3D

 26 29  0  0  0  0  0  0  0  0999 V2000
   -3.4199    6.4879  -20.7992 C   0  0  0  0  0  0  0  0  0  0  0  0
   -3.7325    5.4147  -19.8680 N   0  0  0  0  0  0  0  0  0  0  0  0
   -5.1335    5.4884  -19.4556 C   0  0  0  0  0  0  0  0  0  0  0  0
   -5.2881    5.1508  -18.0554 N   0  0  0  0  0  0  0  0  0  0  0  0
   -4.4127    5.5547  -17.0447 C   0  0  0  0  0  0  0  0  0  0  0  0
   -3.2688    5.9636  -17.1887 O   0  0  0  0  0  0  0  0  0  0  0  0
   -5.1300    5.4298  -15.7070 C   0  0  0  0  0  0  0  0  0  0  0  0
   -6.4907    4.9682  -16.1144 C   0  0  0  0  0  0  0  0  0  0  0  0
   -7.6136    4.7506  -15.3299 C   0  0  0  0  0  0  0  0  0  0  0  0
   -7.6274    5.2079  -13.9207 C   0  0  0  0  0  0  0  0  0  0  0  0
   -7.2921    6.3076  -13.7196 O   0  0  0  0  0  0  0  0  0  0  0  0
   -8.1270    4.1229  -12.9490 N   0  0  0  0  0  0  0  0  0  0  0  0
   -8.2263    4.1287  -11.5692 C   0  0  0  0  0  0  0  0  0  0  0  0
   -8.0599    5.3214  -10.8550 C   0  0  0  0  0  0  0  0  0  0  0  0
   -8.1606    5.3154   -9.4643 C   0  0  0  0  0  0  0  0  0  0  0  0
   -8.4260    4.1099   -8.8560 C   0  0  0  0  0  0  0  0  0  0  0  0
   -8.5707    2.9765   -9.6357 C   0  0  0  0  0  0  0  0  0  0  0  0
   -8.4772    2.9419  -10.9813 N   0  0  0  0  0  0  0  0  0  0  0  0
   -8.7916    1.8000   -8.7240 C   0  0  0  0  0  0  0  0  0  0  0  0
   -9.0491    2.3711   -7.3677 N   0  0  0  0  0  0  0  0  0  0  0  0
   -8.5746    3.7674   -7.4168 C   0  0  0  0  0  0  0  0  0  0  0  0
   -8.7864    4.3263  -15.9528 C   0  0  0  0  0  0  0  0  0  0  0  0
   -8.8211    4.1836  -17.3479 C   0  0  0  0  0  0  0  0  0  0  0  0
  -10.3102    3.8501  -18.1300 Cl  0  0  0  0  0  0  0  0  0  0  0  0
   -7.6954    4.4203  -18.1364 C   0  0  0  0  0  0  0  0  0  0  0  0
   -6.5353    4.8094  -17.4993 C   0  0  0  0  0  0  0  0  0  0  0  0
  1  2  1  0
  2  3  1  0
  3  4  1  0
  4  5  1  0
  5  6  2  0
  5  7  1  0
  7  8  1  0
  8  9  2  0
  9 10  1  0
 10 11  2  0
 10 12  1  0
 12 13  1  0
 13 14  2  0
 14 15  1  0
 15 16  2  0
 16 17  1  0
 17 18  2  0
 17 19  1  0
 19 20  1  0
 20 21  1  0
  9 22  1  0
 22 23  2  0
 23 24  1  0
 23 25  1  0
 25 26  2  0
 26  4  1  0
 26  8  1  0
 18 13  1  0
 21 16  1  0
M  END
>  <smiles>  (1719) 
C24733-P209

>  <fragmenstein_outcome>  (1719) 
acceptable

>  <inchikey>  (1719) 
OFOFSJYRIUSRCG-UHFFFAOYSA-N

>  <fragmenstein_mode>  (1719) 
expansion

>  <HIPPO Pose ID>  (1719) 
22860

>  <Energy>  (1719) 
-2.413017

>  <fragmenstein_error>  (1719) 


>  <tags>  (1719) 
{'openbind_xx01zvns2b_c1_fragmenstein', 'fragmenstein_placed'}

>  <ref_pdb>  (1719) 
175

>  <scratch_subdir>  (1719) 
/opt/xchem-fragalysis-2/maxwin/BulkDock/SCRATCH/511028/C24733-P209

>  <alias>  (1719) 
CNCN1C(=O)Cc2c(C(=O)Nc3ccc4c(n3)CNC4)cc(Cl)cc21

>  <HIPPO Compound ID>  (1719) 
31279

>  <fragmenstein_runtime>  (1719) 
4.69992

$$$$
O=C(Nc1ccc2c(n1)CNC2)c1cc(Cl)cc2c1CC(=NC1CNC1)N2
     RDKit          3D

 27 31  0  0  0  0  0  0  0  0999 V2000
   -7.2625    6.2919  -13.7270 O   0  0  0  0  0  0  0  0  0  0  0  0
   -7.6053    5.1945  -13.9329 C   0  0  0  0  0  0  0  0  0  0  0  0
   -8.1030    4.1027  -12.9619 N   0  0  0  0  0  0  0  0  0  0  0  0
   -8.1904    4.0997  -11.5789 C   0  0  0  0  0  0  0  0  0  0  0  0
   -8.0303    5.2915  -10.8627 C   0  0  0  0  0  0  0  0  0  0  0  0
   -8.1393    5.2866   -9.4722 C   0  0  0  0  0  0  0  0  0  0  0  0
   -8.4064    4.0825   -8.8631 C   0  0  0  0  0  0  0  0  0  0  0  0
   -8.5426    2.9471   -9.6419 C   0  0  0  0  0  0  0  0  0  0  0  0
   -8.4390    2.9107  -10.9889 N   0  0  0  0  0  0  0  0  0  0  0  0
   -8.7759    1.7748   -8.7253 C   0  0  0  0  0  0  0  0  0  0  0  0
   -9.0528    2.3542   -7.3798 N   0  0  0  0  0  0  0  0  0  0  0  0
   -8.5671    3.7447   -7.4235 C   0  0  0  0  0  0  0  0  0  0  0  0
   -7.6375    4.7540  -15.3504 C   0  0  0  0  0  0  0  0  0  0  0  0
   -8.8243    4.2948  -15.9278 C   0  0  0  0  0  0  0  0  0  0  0  0
   -8.9147    4.1289  -17.3208 C   0  0  0  0  0  0  0  0  0  0  0  0
  -10.4302    3.8212  -18.0598 Cl  0  0  0  0  0  0  0  0  0  0  0  0
   -7.8247    4.3448  -18.1546 C   0  0  0  0  0  0  0  0  0  0  0  0
   -6.6664    4.7993  -17.5755 C   0  0  0  0  0  0  0  0  0  0  0  0
   -6.5638    5.0035  -16.1892 C   0  0  0  0  0  0  0  0  0  0  0  0
   -5.1911    5.5396  -15.8840 C   0  0  0  0  0  0  0  0  0  0  0  0
   -4.5764    5.6152  -17.3020 C   0  0  0  0  0  0  0  0  0  0  0  0
   -3.4033    6.1227  -17.4702 N   0  0  0  0  0  0  0  0  0  0  0  0
   -2.9315    6.1757  -18.8561 C   0  0  0  0  0  0  0  0  0  0  0  0
   -2.4067    4.8194  -19.3710 C   0  0  0  0  0  0  0  0  0  0  0  0
   -1.0486    5.2089  -18.9587 N   0  0  0  0  0  0  0  0  0  0  0  0
   -1.4541    6.6244  -18.9565 C   0  0  0  0  0  0  0  0  0  0  0  0
   -5.4740    5.1112  -18.2155 N   0  0  0  0  0  0  0  0  0  0  0  0
  1  2  2  0
  2  3  1  0
  3  4  1  0
  4  5  2  0
  5  6  1  0
  6  7  2  0
  7  8  1  0
  8  9  2  0
  8 10  1  0
 10 11  1  0
 11 12  1  0
  2 13  1  0
 13 14  2  0
 14 15  1  0
 15 16  1  0
 15 17  2  0
 17 18  1  0
 18 19  2  0
 19 20  1  0
 20 21  1  0
 21 22  2  3
 22 23  1  0
 23 24  1  0
 24 25  1  0
 25 26  1  0
 21 27  1  0
  9  4  1  0
 19 13  1  0
 26 23  1  0
 12  7  1  0
 27 18  1  0
M  END
>  <smiles>  (1720) 
C24750-P209

>  <fragmenstein_outcome>  (1720) 
acceptable

>  <inchikey>  (1720) 
NXENINORCFPSHM-UHFFFAOYSA-N

>  <fragmenstein_mode>  (1720) 
expansion

>  <HIPPO Pose ID>  (1720) 
22861

>  <Energy>  (1720) 
66.859291

>  <fragmenstein_error>  (1720) 


>  <tags>  (1720) 
{'openbind_xx01zvns2b_c1_fragmenstein', 'fragmenstein_placed'}

>  <ref_pdb>  (1720) 
175

>  <scratch_subdir>  (1720) 
/opt/xchem-fragalysis-2/maxwin/BulkDock/SCRATCH/511028/C24750-P209

>  <alias>  (1720) 
O=C(Nc1ccc2c(n1)CNC2)c1cc(Cl)cc2c1CC(=NC1CNC1)N2

>  <HIPPO Compound ID>  (1720) 
24750

>  <fragmenstein_runtime>  (1720) 
4.615711

$$$$
CNCN1C(=O)Cc2c(C(=O)Nc3ccc4c(n3)CN(C)[C@@H]4C)cc(Cl)cc21
     RDKit          3D

 28 31  0  0  0  0  0  0  0  0999 V2000
   -3.9455    6.7244  -20.9431 C   0  0  0  0  0  0  0  0  0  0  0  0
   -4.5133    6.6850  -19.6080 N   0  0  0  0  0  0  0  0  0  0  0  0
   -4.7293    5.3028  -19.1947 C   0  0  0  0  0  0  0  0  0  0  0  0
   -5.1137    5.3335  -17.8132 N   0  0  0  0  0  0  0  0  0  0  0  0
   -4.2425    5.6858  -16.7810 C   0  0  0  0  0  0  0  0  0  0  0  0
   -3.0681    6.0073  -16.8917 O   0  0  0  0  0  0  0  0  0  0  0  0
   -5.0319    5.6339  -15.4757 C   0  0  0  0  0  0  0  0  0  0  0  0
   -6.3750    5.1452  -15.9269 C   0  0  0  0  0  0  0  0  0  0  0  0
   -7.5164    4.8856  -15.1792 C   0  0  0  0  0  0  0  0  0  0  0  0
   -7.5784    5.3300  -13.7660 C   0  0  0  0  0  0  0  0  0  0  0  0
   -7.2680    6.4345  -13.5501 O   0  0  0  0  0  0  0  0  0  0  0  0
   -7.9885    4.2004  -12.8010 N   0  0  0  0  0  0  0  0  0  0  0  0
   -8.1872    4.2156  -11.4304 C   0  0  0  0  0  0  0  0  0  0  0  0
   -8.0547    5.4076  -10.7102 C   0  0  0  0  0  0  0  0  0  0  0  0
   -8.1510    5.3921   -9.3180 C   0  0  0  0  0  0  0  0  0  0  0  0
   -8.3833    4.1789   -8.7061 C   0  0  0  0  0  0  0  0  0  0  0  0
   -8.5243    3.0495   -9.4973 C   0  0  0  0  0  0  0  0  0  0  0  0
   -8.4398    3.0267  -10.8474 N   0  0  0  0  0  0  0  0  0  0  0  0
   -8.6987    1.8470   -8.6016 C   0  0  0  0  0  0  0  0  0  0  0  0
   -8.8173    2.3770   -7.2103 N   0  0  0  0  0  0  0  0  0  0  0  0
  -10.1111    2.0841   -6.6275 C   0  0  0  0  0  0  0  0  0  0  0  0
   -8.3927    3.7952   -7.2562 C   0  0  2  0  0  0  0  0  0  0  0  0
   -9.1123    4.7708   -6.3257 C   0  0  0  0  0  0  0  0  0  0  0  0
   -8.6458    4.3967  -15.8378 C   0  0  0  0  0  0  0  0  0  0  0  0
   -8.6192    4.2304  -17.2330 C   0  0  0  0  0  0  0  0  0  0  0  0
  -10.0462    3.7652  -18.0679 Cl  0  0  0  0  0  0  0  0  0  0  0  0
   -7.4821    4.5237  -17.9855 C   0  0  0  0  0  0  0  0  0  0  0  0
   -6.3673    4.9727  -17.3108 C   0  0  0  0  0  0  0  0  0  0  0  0
  1  2  1  0
  2  3  1  0
  3  4  1  0
  4  5  1  0
  5  6  2  0
  5  7  1  0
  7  8  1  0
  8  9  2  0
  9 10  1  0
 10 11  2  0
 10 12  1  0
 12 13  1  0
 13 14  2  0
 14 15  1  0
 15 16  2  0
 16 17  1  0
 17 18  2  0
 17 19  1  0
 19 20  1  0
 20 21  1  0
 20 22  1  0
 22 23  1  1
  9 24  1  0
 24 25  2  0
 25 26  1  0
 25 27  1  0
 27 28  2  0
 28  4  1  0
 28  8  1  0
 18 13  1  0
 22 16  1  0
M  END
>  <smiles>  (1721) 
C24755-P209

>  <fragmenstein_outcome>  (1721) 
acceptable

>  <inchikey>  (1721) 
WBRHQKAYBMPPFT-UHFFFAOYSA-N

>  <fragmenstein_mode>  (1721) 
expansion

>  <HIPPO Pose ID>  (1721) 
22865

>  <Energy>  (1721) 
3.207036

>  <fragmenstein_error>  (1721) 


>  <tags>  (1721) 
{'openbind_xx01zvns2b_c1_fragmenstein', 'fragmenstein_placed'}

>  <ref_pdb>  (1721) 
175

>  <scratch_subdir>  (1721) 
/opt/xchem-fragalysis-2/maxwin/BulkDock/SCRATCH/511028/C24755-P209

>  <alias>  (1721) 
CNCN1C(=O)Cc2c(C(=O)Nc3ccc4c(n3)CN(C)[C@@H]4C)cc(Cl)cc21

>  <HIPPO Compound ID>  (1721) 
24755

>  <fragmenstein_runtime>  (1721) 
5.891012

$$$$
CNCN1C(=O)Cc2c(C(=O)Nc3cc(F)c4c(n3)CNC4)cc(Cl)cc21
     RDKit          3D

 27 30  0  0  0  0  0  0  0  0999 V2000
   -6.8358    3.6509  -19.7987 C   0  0  0  0  0  0  0  0  0  0  0  0
   -5.6316    4.4726  -19.8143 N   0  0  0  0  0  0  0  0  0  0  0  0
   -5.6452    5.7273  -19.1044 C   0  0  0  0  0  0  0  0  0  0  0  0
   -5.5957    5.5501  -17.6776 N   0  0  0  0  0  0  0  0  0  0  0  0
   -4.5054    5.7765  -16.8429 C   0  0  0  0  0  0  0  0  0  0  0  0
   -3.3790    6.1237  -17.1673 O   0  0  0  0  0  0  0  0  0  0  0  0
   -4.9950    5.5559  -15.3936 C   0  0  0  0  0  0  0  0  0  0  0  0
   -6.4263    5.1524  -15.5855 C   0  0  0  0  0  0  0  0  0  0  0  0
   -7.4450    4.8321  -14.6963 C   0  0  0  0  0  0  0  0  0  0  0  0
   -7.2883    5.1726  -13.2609 C   0  0  0  0  0  0  0  0  0  0  0  0
   -6.8101    6.2075  -13.0134 O   0  0  0  0  0  0  0  0  0  0  0  0
   -7.8752    4.0975  -12.3311 N   0  0  0  0  0  0  0  0  0  0  0  0
   -8.0767    4.1054  -10.9661 C   0  0  0  0  0  0  0  0  0  0  0  0
   -7.8723    5.2659  -10.2214 C   0  0  0  0  0  0  0  0  0  0  0  0
   -8.0813    5.2152   -8.8511 C   0  0  0  0  0  0  0  0  0  0  0  0
   -7.8929    6.3067   -8.0978 F   0  0  0  0  0  0  0  0  0  0  0  0
   -8.4693    4.0348   -8.2771 C   0  0  0  0  0  0  0  0  0  0  0  0
   -8.6408    2.9386   -9.0932 C   0  0  0  0  0  0  0  0  0  0  0  0
   -8.4706    2.9354  -10.4283 N   0  0  0  0  0  0  0  0  0  0  0  0
   -8.9490    1.7498   -8.2274 C   0  0  0  0  0  0  0  0  0  0  0  0
   -9.2887    2.3098   -6.8846 N   0  0  0  0  0  0  0  0  0  0  0  0
   -8.7147    3.6735   -6.8613 C   0  0  0  0  0  0  0  0  0  0  0  0
   -8.6966    4.4180  -15.2061 C   0  0  0  0  0  0  0  0  0  0  0  0
   -8.9226    4.4422  -16.5827 C   0  0  0  0  0  0  0  0  0  0  0  0
  -10.3682    4.0235  -17.3994 Cl  0  0  0  0  0  0  0  0  0  0  0  0
   -7.9539    4.9298  -17.4205 C   0  0  0  0  0  0  0  0  0  0  0  0
   -6.7067    5.1888  -16.9336 C   0  0  0  0  0  0  0  0  0  0  0  0
  1  2  1  0
  2  3  1  0
  3  4  1  0
  4  5  1  0
  5  6  2  0
  5  7  1  0
  7  8  1  0
  8  9  2  0
  9 10  1  0
 10 11  2  0
 10 12  1  0
 12 13  1  0
 13 14  2  0
 14 15  1  0
 15 16  1  0
 15 17  2  0
 17 18  1  0
 18 19  2  0
 18 20  1  0
 20 21  1  0
 21 22  1  0
  9 23  1  0
 23 24  2  0
 24 25  1  0
 24 26  1  0
 26 27  2  0
 27  4  1  0
 27  8  1  0
 19 13  1  0
 22 17  1  0
M  END
>  <smiles>  (1722) 
C24758-P209

>  <fragmenstein_outcome>  (1722) 
acceptable

>  <inchikey>  (1722) 
CJSKBWGIQBOHQS-UHFFFAOYSA-N

>  <fragmenstein_mode>  (1722) 
expansion

>  <HIPPO Pose ID>  (1722) 
22867

>  <Energy>  (1722) 
-13.678643

>  <fragmenstein_error>  (1722) 


>  <tags>  (1722) 
{'openbind_xx01zvns2b_c1_fragmenstein', 'fragmenstein_placed'}

>  <ref_pdb>  (1722) 
175

>  <scratch_subdir>  (1722) 
/opt/xchem-fragalysis-2/maxwin/BulkDock/SCRATCH/511028/C24758-P209

>  <alias>  (1722) 
CNCN1C(=O)Cc2c(C(=O)Nc3cc(F)c4c(n3)CNC4)cc(Cl)cc21

>  <HIPPO Compound ID>  (1722) 
24758

>  <fragmenstein_runtime>  (1722) 
6.564952

$$$$
CNCN1C(=O)Cc2c(C(=O)Nc3nc4c(cc3F)CNC4)cc(Cl)cc21
     RDKit          3D

 27 30  0  0  0  0  0  0  0  0999 V2000
   -2.5902    5.0561  -19.9674 C   0  0  0  0  0  0  0  0  0  0  0  0
   -3.9897    4.8059  -19.6804 N   0  0  0  0  0  0  0  0  0  0  0  0
   -4.6347    5.9513  -19.0712 C   0  0  0  0  0  0  0  0  0  0  0  0
   -4.9209    5.6537  -17.6982 N   0  0  0  0  0  0  0  0  0  0  0  0
   -4.1144    6.0862  -16.6451 C   0  0  0  0  0  0  0  0  0  0  0  0
   -3.0312    6.6480  -16.7220 O   0  0  0  0  0  0  0  0  0  0  0  0
   -4.8606    5.7868  -15.3468 C   0  0  0  0  0  0  0  0  0  0  0  0
   -6.1599    5.2203  -15.8358 C   0  0  0  0  0  0  0  0  0  0  0  0
   -7.3016    4.8779  -15.1197 C   0  0  0  0  0  0  0  0  0  0  0  0
   -7.4236    5.3115  -13.7070 C   0  0  0  0  0  0  0  0  0  0  0  0
   -7.1464    6.4219  -13.4795 O   0  0  0  0  0  0  0  0  0  0  0  0
   -7.9320    4.1969  -12.7720 N   0  0  0  0  0  0  0  0  0  0  0  0
   -8.1103    4.1857  -11.3924 C   0  0  0  0  0  0  0  0  0  0  0  0
   -8.3542    2.9628  -10.8580 N   0  0  0  0  0  0  0  0  0  0  0  0
   -8.5317    2.9409   -9.5185 C   0  0  0  0  0  0  0  0  0  0  0  0
   -8.4772    4.0474   -8.6868 C   0  0  0  0  0  0  0  0  0  0  0  0
   -8.2128    5.2824   -9.2279 C   0  0  0  0  0  0  0  0  0  0  0  0
   -8.0398    5.3511  -10.6074 C   0  0  0  0  0  0  0  0  0  0  0  0
   -7.8421    6.5665  -11.1315 F   0  0  0  0  0  0  0  0  0  0  0  0
   -8.7408    3.6423   -7.2798 C   0  0  0  0  0  0  0  0  0  0  0  0
   -9.3053    2.2808   -7.3586 N   0  0  0  0  0  0  0  0  0  0  0  0
   -8.8242    1.7348   -8.6626 C   0  0  0  0  0  0  0  0  0  0  0  0
   -8.3984    4.3605  -15.8152 C   0  0  0  0  0  0  0  0  0  0  0  0
   -8.3334    4.2282  -17.2133 C   0  0  0  0  0  0  0  0  0  0  0  0
   -9.7193    3.6814  -18.0756 Cl  0  0  0  0  0  0  0  0  0  0  0  0
   -7.1999    4.6149  -17.9349 C   0  0  0  0  0  0  0  0  0  0  0  0
   -6.1266    5.1167  -17.2254 C   0  0  0  0  0  0  0  0  0  0  0  0
  1  2  1  0
  2  3  1  0
  3  4  1  0
  4  5  1  0
  5  6  2  0
  5  7  1  0
  7  8  1  0
  8  9  2  0
  9 10  1  0
 10 11  2  0
 10 12  1  0
 12 13  1  0
 13 14  2  0
 14 15  1  0
 15 16  2  0
 16 17  1  0
 17 18  2  0
 18 19  1  0
 16 20  1  0
 20 21  1  0
 21 22  1  0
  9 23  1  0
 23 24  2  0
 24 25  1  0
 24 26  1  0
 26 27  2  0
 27  4  1  0
 27  8  1  0
 18 13  1  0
 22 15  1  0
M  END
>  <smiles>  (1723) 
C24759-P209

>  <fragmenstein_outcome>  (1723) 
acceptable

>  <inchikey>  (1723) 
GPTKHJMGTBDXJJ-UHFFFAOYSA-N

>  <fragmenstein_mode>  (1723) 
expansion

>  <HIPPO Pose ID>  (1723) 
22868

>  <Energy>  (1723) 
21.976899

>  <fragmenstein_error>  (1723) 


>  <tags>  (1723) 
{'openbind_xx01zvns2b_c1_fragmenstein', 'fragmenstein_placed'}

>  <ref_pdb>  (1723) 
175

>  <scratch_subdir>  (1723) 
/opt/xchem-fragalysis-2/maxwin/BulkDock/SCRATCH/511028/C24759-P209

>  <alias>  (1723) 
CNCN1C(=O)Cc2c(C(=O)Nc3nc4c(cc3F)CNC4)cc(Cl)cc21

>  <HIPPO Compound ID>  (1723) 
24759

>  <fragmenstein_runtime>  (1723) 
11.681846

$$$$
CNCN1C(=O)Cc2c(C(=O)Nc3ccc4c(n3)CNC4)cc(F)cc21
     RDKit          3D

 26 29  0  0  0  0  0  0  0  0999 V2000
   -4.5006    6.9514  -21.2135 C   0  0  0  0  0  0  0  0  0  0  0  0
   -5.3615    6.6367  -20.0860 N   0  0  0  0  0  0  0  0  0  0  0  0
   -4.9811    5.3653  -19.4831 C   0  0  0  0  0  0  0  0  0  0  0  0
   -5.3641    5.4053  -18.1066 N   0  0  0  0  0  0  0  0  0  0  0  0
   -4.5192    5.9047  -17.1122 C   0  0  0  0  0  0  0  0  0  0  0  0
   -3.3746    6.3140  -17.2400 O   0  0  0  0  0  0  0  0  0  0  0  0
   -5.2847    5.8433  -15.7960 C   0  0  0  0  0  0  0  0  0  0  0  0
   -6.5799    5.2063  -16.1981 C   0  0  0  0  0  0  0  0  0  0  0  0
   -7.6723    4.8736  -15.4095 C   0  0  0  0  0  0  0  0  0  0  0  0
   -7.7159    5.3359  -14.0037 C   0  0  0  0  0  0  0  0  0  0  0  0
   -7.4816    6.4619  -13.8077 O   0  0  0  0  0  0  0  0  0  0  0  0
   -8.0063    4.1907  -13.0176 N   0  0  0  0  0  0  0  0  0  0  0  0
   -8.1572    4.2051  -11.6439 C   0  0  0  0  0  0  0  0  0  0  0  0
   -8.0611    5.4092  -10.9354 C   0  0  0  0  0  0  0  0  0  0  0  0
   -8.1854    5.4063   -9.5473 C   0  0  0  0  0  0  0  0  0  0  0  0
   -8.4140    4.1938   -8.9390 C   0  0  0  0  0  0  0  0  0  0  0  0
   -8.4925    3.0484   -9.7137 C   0  0  0  0  0  0  0  0  0  0  0  0
   -8.3687    3.0101  -11.0560 N   0  0  0  0  0  0  0  0  0  0  0  0
   -8.7388    1.8779   -8.7953 C   0  0  0  0  0  0  0  0  0  0  0  0
   -9.1514    2.4773   -7.4894 N   0  0  0  0  0  0  0  0  0  0  0  0
   -8.5965    3.8458   -7.5040 C   0  0  0  0  0  0  0  0  0  0  0  0
   -8.7640    4.2513  -16.0132 C   0  0  0  0  0  0  0  0  0  0  0  0
   -8.7490    4.0140  -17.3936 C   0  0  0  0  0  0  0  0  0  0  0  0
   -9.8248    3.4583  -17.9682 F   0  0  0  0  0  0  0  0  0  0  0  0
   -7.6625    4.3723  -18.1923 C   0  0  0  0  0  0  0  0  0  0  0  0
   -6.5797    4.9632  -17.5709 C   0  0  0  0  0  0  0  0  0  0  0  0
  1  2  1  0
  2  3  1  0
  3  4  1  0
  4  5  1  0
  5  6  2  0
  5  7  1  0
  7  8  1  0
  8  9  2  0
  9 10  1  0
 10 11  2  0
 10 12  1  0
 12 13  1  0
 13 14  2  0
 14 15  1  0
 15 16  2  0
 16 17  1  0
 17 18  2  0
 17 19  1  0
 19 20  1  0
 20 21  1  0
  9 22  1  0
 22 23  2  0
 23 24  1  0
 23 25  1  0
 25 26  2  0
 26  4  1  0
 26  8  1  0
 18 13  1  0
 21 16  1  0
M  END
>  <smiles>  (1724) 
C24739-P209

>  <fragmenstein_outcome>  (1724) 
acceptable

>  <inchikey>  (1724) 
WAAWBXZWVLRCTR-UHFFFAOYSA-N

>  <fragmenstein_mode>  (1724) 
expansion

>  <HIPPO Pose ID>  (1724) 
22872

>  <Energy>  (1724) 
-9.5558

>  <fragmenstein_error>  (1724) 


>  <tags>  (1724) 
{'openbind_xx01zvns2b_c1_fragmenstein', 'fragmenstein_placed'}

>  <ref_pdb>  (1724) 
175

>  <scratch_subdir>  (1724) 
/opt/xchem-fragalysis-2/maxwin/BulkDock/SCRATCH/511028/C24739-P209

>  <alias>  (1724) 
CNCN1C(=O)Cc2c(C(=O)Nc3ccc4c(n3)CNC4)cc(F)cc21

>  <HIPPO Compound ID>  (1724) 
24739

>  <fragmenstein_runtime>  (1724) 
4.463655

$$$$
CN=C1Cc2c(cc(Cl)cc2C(=O)Nc2ccc3c(n2)CNC3)N1
     RDKit          3D

 24 27  0  0  0  0  0  0  0  0999 V2000
   -2.5906    6.9910  -16.4567 C   0  0  0  0  0  0  0  0  0  0  0  0
   -3.3363    6.4043  -17.5617 N   0  0  0  0  0  0  0  0  0  0  0  0
   -4.4463    5.8213  -17.2691 C   0  0  0  0  0  0  0  0  0  0  0  0
   -5.0912    5.7180  -15.8656 C   0  0  0  0  0  0  0  0  0  0  0  0
   -6.4319    5.1281  -16.2085 C   0  0  0  0  0  0  0  0  0  0  0  0
   -6.4802    4.8971  -17.5933 C   0  0  0  0  0  0  0  0  0  0  0  0
   -7.6022    4.3812  -18.1940 C   0  0  0  0  0  0  0  0  0  0  0  0
   -8.7106    4.1386  -17.3873 C   0  0  0  0  0  0  0  0  0  0  0  0
  -10.1863    3.7087  -18.1444 Cl  0  0  0  0  0  0  0  0  0  0  0  0
   -8.6771    4.3470  -15.9983 C   0  0  0  0  0  0  0  0  0  0  0  0
   -7.5234    4.8573  -15.3996 C   0  0  0  0  0  0  0  0  0  0  0  0
   -7.5412    5.3162  -13.9913 C   0  0  0  0  0  0  0  0  0  0  0  0
   -7.3125    6.4446  -13.7964 O   0  0  0  0  0  0  0  0  0  0  0  0
   -7.9481    4.1951  -13.0138 N   0  0  0  0  0  0  0  0  0  0  0  0
   -8.0627    4.2025  -11.6350 C   0  0  0  0  0  0  0  0  0  0  0  0
   -7.8880    5.3891  -10.9128 C   0  0  0  0  0  0  0  0  0  0  0  0
   -8.0289    5.3830   -9.5251 C   0  0  0  0  0  0  0  0  0  0  0  0
   -8.3376    4.1826   -8.9283 C   0  0  0  0  0  0  0  0  0  0  0  0
   -8.4717    3.0498   -9.7130 C   0  0  0  0  0  0  0  0  0  0  0  0
   -8.3514    3.0184  -11.0560 N   0  0  0  0  0  0  0  0  0  0  0  0
   -8.7615    1.8829   -8.8036 C   0  0  0  0  0  0  0  0  0  0  0  0
   -9.1653    2.4888   -7.4982 N   0  0  0  0  0  0  0  0  0  0  0  0
   -8.5594    3.8363   -7.4984 C   0  0  0  0  0  0  0  0  0  0  0  0
   -5.2697    5.2235  -18.1926 N   0  0  0  0  0  0  0  0  0  0  0  0
  1  2  1  0
  2  3  2  3
  3  4  1  0
  4  5  1  0
  5  6  2  0
  6  7  1  0
  7  8  2  0
  8  9  1  0
  8 10  1  0
 10 11  2  0
 11 12  1  0
 12 13  2  0
 12 14  1  0
 14 15  1  0
 15 16  2  0
 16 17  1  0
 17 18  2  0
 18 19  1  0
 19 20  2  0
 19 21  1  0
 21 22  1  0
 22 23  1  0
  6 24  1  0
 24  3  1  0
 11  5  1  0
 20 15  1  0
 23 18  1  0
M  END
>  <smiles>  (1725) 
C24767-P209

>  <fragmenstein_outcome>  (1725) 
acceptable

>  <inchikey>  (1725) 
WTGCCCQAJHKSCC-UHFFFAOYSA-N

>  <fragmenstein_mode>  (1725) 
expansion

>  <HIPPO Pose ID>  (1725) 
22873

>  <Energy>  (1725) 
23.719683

>  <fragmenstein_error>  (1725) 


>  <tags>  (1725) 
{'openbind_xx01zvns2b_c1_fragmenstein', 'fragmenstein_placed'}

>  <ref_pdb>  (1725) 
175

>  <scratch_subdir>  (1725) 
/opt/xchem-fragalysis-2/maxwin/BulkDock/SCRATCH/511028/C24767-P209

>  <alias>  (1725) 
CN=C1Cc2c(cc(Cl)cc2C(=O)Nc2ccc3c(n2)CNC3)N1

>  <HIPPO Compound ID>  (1725) 
37526

>  <fragmenstein_runtime>  (1725) 
4.901492

$$$$
CNC[C@H]1Cc2c(cc(Cl)cc2C(=O)Nc2ccc3c(n2)CNC3)N1
     RDKit          3D

 25 28  0  0  0  0  0  0  0  0999 V2000
   -1.6779    7.5799  -17.4941 C   0  0  0  0  0  0  0  0  0  0  0  0
   -3.0283    7.7138  -18.0300 N   0  0  0  0  0  0  0  0  0  0  0  0
   -4.0483    7.4019  -17.0138 C   0  0  0  0  0  0  0  0  0  0  0  0
   -4.2112    5.8884  -16.7168 C   0  0  1  0  0  0  0  0  0  0  0  0
   -5.0164    5.6571  -15.4189 C   0  0  0  0  0  0  0  0  0  0  0  0
   -6.3222    5.1889  -15.9529 C   0  0  0  0  0  0  0  0  0  0  0  0
   -6.2123    4.9608  -17.3205 C   0  0  0  0  0  0  0  0  0  0  0  0
   -7.2830    4.4630  -18.0376 C   0  0  0  0  0  0  0  0  0  0  0  0
   -8.4742    4.2057  -17.3530 C   0  0  0  0  0  0  0  0  0  0  0  0
   -9.8507    3.6685  -18.2276 Cl  0  0  0  0  0  0  0  0  0  0  0  0
   -8.5939    4.4349  -15.9744 C   0  0  0  0  0  0  0  0  0  0  0  0
   -7.5074    4.9498  -15.2717 C   0  0  0  0  0  0  0  0  0  0  0  0
   -7.6446    5.4066  -13.8718 C   0  0  0  0  0  0  0  0  0  0  0  0
   -7.4257    6.5317  -13.6515 O   0  0  0  0  0  0  0  0  0  0  0  0
   -8.0461    4.2631  -12.9221 N   0  0  0  0  0  0  0  0  0  0  0  0
   -8.1662    4.2394  -11.5446 C   0  0  0  0  0  0  0  0  0  0  0  0
   -8.0507    5.4236  -10.8070 C   0  0  0  0  0  0  0  0  0  0  0  0
   -8.1463    5.3851   -9.4172 C   0  0  0  0  0  0  0  0  0  0  0  0
   -8.3688    4.1587   -8.8338 C   0  0  0  0  0  0  0  0  0  0  0  0
   -8.4784    3.0378   -9.6355 C   0  0  0  0  0  0  0  0  0  0  0  0
   -8.3696    3.0318  -10.9805 N   0  0  0  0  0  0  0  0  0  0  0  0
   -8.7011    1.8388   -8.7553 C   0  0  0  0  0  0  0  0  0  0  0  0
   -8.8887    2.3615   -7.3696 N   0  0  0  0  0  0  0  0  0  0  0  0
   -8.5161    3.7880   -7.4028 C   0  0  0  0  0  0  0  0  0  0  0  0
   -4.9105    5.1930  -17.8213 N   0  0  0  0  0  0  0  0  0  0  0  0
  1  2  1  0
  2  3  1  0
  4  3  1  6
  4  5  1  0
  5  6  1  0
  6  7  2  0
  7  8  1  0
  8  9  2  0
  9 10  1  0
  9 11  1  0
 11 12  2  0
 12 13  1  0
 13 14  2  0
 13 15  1  0
 15 16  1  0
 16 17  2  0
 17 18  1  0
 18 19  2  0
 19 20  1  0
 20 21  2  0
 20 22  1  0
 22 23  1  0
 23 24  1  0
  7 25  1  0
 25  4  1  0
 12  6  1  0
 21 16  1  0
 24 19  1  0
M  END
>  <smiles>  (1726) 
C24770-P209

>  <fragmenstein_outcome>  (1726) 
acceptable

>  <inchikey>  (1726) 
JCQLHDJDKPPTBP-UHFFFAOYSA-N

>  <fragmenstein_mode>  (1726) 
expansion

>  <HIPPO Pose ID>  (1726) 
22874

>  <Energy>  (1726) 
56.61583

>  <fragmenstein_error>  (1726) 


>  <tags>  (1726) 
{'openbind_xx01zvns2b_c1_fragmenstein', 'fragmenstein_placed'}

>  <ref_pdb>  (1726) 
175

>  <scratch_subdir>  (1726) 
/opt/xchem-fragalysis-2/maxwin/BulkDock/SCRATCH/511028/C24770-P209

>  <alias>  (1726) 
CNC[C@H]1Cc2c(cc(Cl)cc2C(=O)Nc2ccc3c(n2)CNC3)N1

>  <HIPPO Compound ID>  (1726) 
24770

>  <fragmenstein_runtime>  (1726) 
5.181451

$$$$
CNCN1C(=O)Cc2c(C(=O)Nc3cc(C)c4c(n3)CNC4)cc(Cl)cc21
     RDKit          3D

 27 30  0  0  0  0  0  0  0  0999 V2000
   -2.7709    5.9035  -20.3711 C   0  0  0  0  0  0  0  0  0  0  0  0
   -3.8457    5.0492  -19.8912 N   0  0  0  0  0  0  0  0  0  0  0  0
   -4.9484    5.8523  -19.3858 C   0  0  0  0  0  0  0  0  0  0  0  0
   -5.1456    5.5675  -17.9919 N   0  0  0  0  0  0  0  0  0  0  0  0
   -4.3588    6.1434  -16.9878 C   0  0  0  0  0  0  0  0  0  0  0  0
   -3.3499    6.8210  -17.1211 O   0  0  0  0  0  0  0  0  0  0  0  0
   -5.0334    5.8465  -15.6497 C   0  0  0  0  0  0  0  0  0  0  0  0
   -6.3216    5.2086  -16.0677 C   0  0  0  0  0  0  0  0  0  0  0  0
   -7.4326    4.8723  -15.3040 C   0  0  0  0  0  0  0  0  0  0  0  0
   -7.5279    5.3329  -13.8999 C   0  0  0  0  0  0  0  0  0  0  0  0
   -7.3568    6.4706  -13.7035 O   0  0  0  0  0  0  0  0  0  0  0  0
   -7.9076    4.1982  -12.9302 N   0  0  0  0  0  0  0  0  0  0  0  0
   -8.0583    4.2037  -11.5555 C   0  0  0  0  0  0  0  0  0  0  0  0
   -7.9185    5.3926  -10.8297 C   0  0  0  0  0  0  0  0  0  0  0  0
   -8.0654    5.3879   -9.4375 C   0  0  0  0  0  0  0  0  0  0  0  0
   -7.8910    6.6375   -8.6363 C   0  0  0  0  0  0  0  0  0  0  0  0
   -8.3330    4.1667   -8.8477 C   0  0  0  0  0  0  0  0  0  0  0  0
   -8.4573    3.0395   -9.6416 C   0  0  0  0  0  0  0  0  0  0  0  0
   -8.3239    3.0134  -10.9839 N   0  0  0  0  0  0  0  0  0  0  0  0
   -8.7090    1.8495   -8.7570 C   0  0  0  0  0  0  0  0  0  0  0  0
   -8.9064    2.3817   -7.3786 N   0  0  0  0  0  0  0  0  0  0  0  0
   -8.5074    3.8008   -7.4153 C   0  0  0  0  0  0  0  0  0  0  0  0
   -8.5469    4.3255  -15.9449 C   0  0  0  0  0  0  0  0  0  0  0  0
   -8.5259    4.1489  -17.3359 C   0  0  0  0  0  0  0  0  0  0  0  0
   -9.9438    3.6266  -18.1476 Cl  0  0  0  0  0  0  0  0  0  0  0  0
   -7.4117    4.4903  -18.1022 C   0  0  0  0  0  0  0  0  0  0  0  0
   -6.3237    5.0333  -17.4508 C   0  0  0  0  0  0  0  0  0  0  0  0
  1  2  1  0
  2  3  1  0
  3  4  1  0
  4  5  1  0
  5  6  2  0
  5  7  1  0
  7  8  1  0
  8  9  2  0
  9 10  1  0
 10 11  2  0
 10 12  1  0
 12 13  1  0
 13 14  2  0
 14 15  1  0
 15 16  1  0
 15 17  2  0
 17 18  1  0
 18 19  2  0
 18 20  1  0
 20 21  1  0
 21 22  1  0
  9 23  1  0
 23 24  2  0
 24 25  1  0
 24 26  1  0
 26 27  2  0
 27  4  1  0
 27  8  1  0
 19 13  1  0
 22 17  1  0
M  END
>  <smiles>  (1727) 
C24771-P209

>  <fragmenstein_outcome>  (1727) 
acceptable

>  <inchikey>  (1727) 
IKOYQVWZYSZADL-UHFFFAOYSA-N

>  <fragmenstein_mode>  (1727) 
expansion

>  <HIPPO Pose ID>  (1727) 
22875

>  <Energy>  (1727) 
0.07842

>  <fragmenstein_error>  (1727) 


>  <tags>  (1727) 
{'openbind_xx01zvns2b_c1_fragmenstein', 'fragmenstein_placed'}

>  <ref_pdb>  (1727) 
175

>  <scratch_subdir>  (1727) 
/opt/xchem-fragalysis-2/maxwin/BulkDock/SCRATCH/511028/C24771-P209

>  <alias>  (1727) 
CNCN1C(=O)Cc2c(C(=O)Nc3cc(C)c4c(n3)CNC4)cc(Cl)cc21

>  <HIPPO Compound ID>  (1727) 
24771

>  <fragmenstein_runtime>  (1727) 
4.744434

$$$$
CN=C1Cc2c(cccc2C(=O)Nc2ccc3c(n2)CNC3)N1
     RDKit          3D

 23 26  0  0  0  0  0  0  0  0999 V2000
   -2.1506    5.9807  -16.4592 C   0  0  0  0  0  0  0  0  0  0  0  0
   -3.0467    5.6240  -17.5485 N   0  0  0  0  0  0  0  0  0  0  0  0
   -4.3007    5.4966  -17.2775 C   0  0  0  0  0  0  0  0  0  0  0  0
   -4.9653    5.6343  -15.8861 C   0  0  0  0  0  0  0  0  0  0  0  0
   -6.3519    5.1238  -16.1777 C   0  0  0  0  0  0  0  0  0  0  0  0
   -6.4495    4.8363  -17.5485 C   0  0  0  0  0  0  0  0  0  0  0  0
   -7.6212    4.3579  -18.0974 C   0  0  0  0  0  0  0  0  0  0  0  0
   -8.6967    4.1012  -17.2421 C   0  0  0  0  0  0  0  0  0  0  0  0
   -8.5977    4.3648  -15.8642 C   0  0  0  0  0  0  0  0  0  0  0  0
   -7.4200    4.8969  -15.3258 C   0  0  0  0  0  0  0  0  0  0  0  0
   -7.3554    5.3315  -13.9096 C   0  0  0  0  0  0  0  0  0  0  0  0
   -6.9995    6.4215  -13.6890 O   0  0  0  0  0  0  0  0  0  0  0  0
   -7.7965    4.2094  -12.9474 N   0  0  0  0  0  0  0  0  0  0  0  0
   -7.9760    4.2206  -11.5769 C   0  0  0  0  0  0  0  0  0  0  0  0
   -7.8354    5.4064  -10.8474 C   0  0  0  0  0  0  0  0  0  0  0  0
   -8.0206    5.3936   -9.4648 C   0  0  0  0  0  0  0  0  0  0  0  0
   -8.3394    4.1885   -8.8819 C   0  0  0  0  0  0  0  0  0  0  0  0
   -8.4479    3.0592   -9.6752 C   0  0  0  0  0  0  0  0  0  0  0  0
   -8.2844    3.0340  -11.0129 N   0  0  0  0  0  0  0  0  0  0  0  0
   -8.7603    1.8861   -8.7822 C   0  0  0  0  0  0  0  0  0  0  0  0
   -9.1935    2.4821   -7.4815 N   0  0  0  0  0  0  0  0  0  0  0  0
   -8.5912    3.8314   -7.4598 C   0  0  0  0  0  0  0  0  0  0  0  0
   -5.2687    5.1772  -18.2058 N   0  0  0  0  0  0  0  0  0  0  0  0
  1  2  1  0
  2  3  2  3
  3  4  1  0
  4  5  1  0
  5  6  2  0
  6  7  1  0
  7  8  2  0
  8  9  1  0
  9 10  2  0
 10 11  1  0
 11 12  2  0
 11 13  1  0
 13 14  1  0
 14 15  2  0
 15 16  1  0
 16 17  2  0
 17 18  1  0
 18 19  2  0
 18 20  1  0
 20 21  1  0
 21 22  1  0
  6 23  1  0
 23  3  1  0
 10  5  1  0
 19 14  1  0
 22 17  1  0
M  END
>  <smiles>  (1728) 
C24772-P209

>  <fragmenstein_outcome>  (1728) 
acceptable

>  <inchikey>  (1728) 
UMYBRVJQPBPMPI-UHFFFAOYSA-N

>  <fragmenstein_mode>  (1728) 
expansion

>  <HIPPO Pose ID>  (1728) 
22876

>  <Energy>  (1728) 
34.328201

>  <fragmenstein_error>  (1728) 


>  <tags>  (1728) 
{'openbind_xx01zvns2b_c1_fragmenstein', 'fragmenstein_placed'}

>  <ref_pdb>  (1728) 
175

>  <scratch_subdir>  (1728) 
/opt/xchem-fragalysis-2/maxwin/BulkDock/SCRATCH/511028/C24772-P209

>  <alias>  (1728) 
CN=C1Cc2c(cccc2C(=O)Nc2ccc3c(n2)CNC3)N1

>  <HIPPO Compound ID>  (1728) 
25425

>  <fragmenstein_runtime>  (1728) 
2.580025

$$$$
CNCN1C(=O)Cc2c(C(=O)Nc3ccc4c(n3)CNC4)cccc21
     RDKit          3D

 25 28  0  0  0  0  0  0  0  0999 V2000
   -3.2124    4.9275  -19.6630 C   0  0  0  0  0  0  0  0  0  0  0  0
   -4.2885    5.8537  -19.9631 N   0  0  0  0  0  0  0  0  0  0  0  0
   -5.5633    5.5280  -19.3702 C   0  0  0  0  0  0  0  0  0  0  0  0
   -5.5512    5.4390  -17.9333 N   0  0  0  0  0  0  0  0  0  0  0  0
   -4.7989    6.2153  -17.0383 C   0  0  0  0  0  0  0  0  0  0  0  0
   -3.8742    6.9845  -17.2628 O   0  0  0  0  0  0  0  0  0  0  0  0
   -5.3599    5.9635  -15.6390 C   0  0  0  0  0  0  0  0  0  0  0  0
   -6.6148    5.2100  -15.9265 C   0  0  0  0  0  0  0  0  0  0  0  0
   -7.6621    4.8711  -15.0916 C   0  0  0  0  0  0  0  0  0  0  0  0
   -7.6862    5.3404  -13.6893 C   0  0  0  0  0  0  0  0  0  0  0  0
   -7.5117    6.4759  -13.4866 O   0  0  0  0  0  0  0  0  0  0  0  0
   -8.0262    4.1943  -12.7199 N   0  0  0  0  0  0  0  0  0  0  0  0
   -8.1260    4.1838  -11.3456 C   0  0  0  0  0  0  0  0  0  0  0  0
   -7.9664    5.3603  -10.6059 C   0  0  0  0  0  0  0  0  0  0  0  0
   -8.1076    5.3242   -9.2200 C   0  0  0  0  0  0  0  0  0  0  0  0
   -8.4066    4.1080   -8.6499 C   0  0  0  0  0  0  0  0  0  0  0  0
   -8.5217    2.9884   -9.4563 C   0  0  0  0  0  0  0  0  0  0  0  0
   -8.3942    2.9837  -10.7952 N   0  0  0  0  0  0  0  0  0  0  0  0
   -8.8104    1.8011   -8.5778 C   0  0  0  0  0  0  0  0  0  0  0  0
   -9.2452    2.3789   -7.2704 N   0  0  0  0  0  0  0  0  0  0  0  0
   -8.6453    3.7297   -7.2313 C   0  0  0  0  0  0  0  0  0  0  0  0
   -8.7745    4.2260  -15.6408 C   0  0  0  0  0  0  0  0  0  0  0  0
   -8.8311    3.9291  -17.0083 C   0  0  0  0  0  0  0  0  0  0  0  0
   -7.7734    4.2730  -17.8431 C   0  0  0  0  0  0  0  0  0  0  0  0
   -6.6772    4.9100  -17.2810 C   0  0  0  0  0  0  0  0  0  0  0  0
  1  2  1  0
  2  3  1  0
  3  4  1  0
  4  5  1  0
  5  6  2  0
  5  7  1  0
  7  8  1  0
  8  9  2  0
  9 10  1  0
 10 11  2  0
 10 12  1  0
 12 13  1  0
 13 14  2  0
 14 15  1  0
 15 16  2  0
 16 17  1  0
 17 18  2  0
 17 19  1  0
 19 20  1  0
 20 21  1  0
  9 22  1  0
 22 23  2  0
 23 24  1  0
 24 25  2  0
 25  4  1  0
 25  8  1  0
 18 13  1  0
 21 16  1  0
M  END
>  <smiles>  (1729) 
C24726-P209

>  <fragmenstein_outcome>  (1729) 
acceptable

>  <inchikey>  (1729) 
BLXIAOGDQXHBFW-UHFFFAOYSA-N

>  <fragmenstein_mode>  (1729) 
expansion

>  <HIPPO Pose ID>  (1729) 
22877

>  <Energy>  (1729) 
16.198469

>  <fragmenstein_error>  (1729) 


>  <tags>  (1729) 
{'openbind_xx01zvns2b_c1_fragmenstein', 'fragmenstein_placed'}

>  <ref_pdb>  (1729) 
175

>  <scratch_subdir>  (1729) 
/opt/xchem-fragalysis-2/maxwin/BulkDock/SCRATCH/511028/C24726-P209

>  <alias>  (1729) 
CNCN1C(=O)Cc2c(C(=O)Nc3ccc4c(n3)CNC4)cccc21

>  <HIPPO Compound ID>  (1729) 
24318

>  <fragmenstein_runtime>  (1729) 
4.463964

$$$$
NN1C(=O)Cc2c(C(=O)Nc3ccc4c(n3)CNC4)cc(Br)cc21
     RDKit          3D

 24 27  0  0  0  0  0  0  0  0999 V2000
   -5.3438    5.2841  -19.8083 N   0  0  0  0  0  0  0  0  0  0  0  0
   -5.3802    5.1590  -18.4228 N   0  0  0  0  0  0  0  0  0  0  0  0
   -4.3569    5.6028  -17.5608 C   0  0  0  0  0  0  0  0  0  0  0  0
   -3.2281    5.9759  -17.8506 O   0  0  0  0  0  0  0  0  0  0  0  0
   -4.9364    5.5464  -16.1358 C   0  0  0  0  0  0  0  0  0  0  0  0
   -6.3343    5.0439  -16.3544 C   0  0  0  0  0  0  0  0  0  0  0  0
   -7.3710    4.8289  -15.4551 C   0  0  0  0  0  0  0  0  0  0  0  0
   -7.2483    5.2535  -14.0379 C   0  0  0  0  0  0  0  0  0  0  0  0
   -6.8275    6.3229  -13.8316 O   0  0  0  0  0  0  0  0  0  0  0  0
   -7.7506    4.1704  -13.0604 N   0  0  0  0  0  0  0  0  0  0  0  0
   -7.9226    4.2081  -11.6880 C   0  0  0  0  0  0  0  0  0  0  0  0
   -7.7545    5.4011  -10.9783 C   0  0  0  0  0  0  0  0  0  0  0  0
   -7.9205    5.4093   -9.5929 C   0  0  0  0  0  0  0  0  0  0  0  0
   -8.2400    4.2161   -8.9841 C   0  0  0  0  0  0  0  0  0  0  0  0
   -8.3945    3.0836   -9.7594 C   0  0  0  0  0  0  0  0  0  0  0  0
   -8.2483    3.0375  -11.1007 N   0  0  0  0  0  0  0  0  0  0  0  0
   -8.6870    1.9174   -8.8554 C   0  0  0  0  0  0  0  0  0  0  0  0
   -8.8341    2.4724   -7.4772 N   0  0  0  0  0  0  0  0  0  0  0  0
   -8.4401    3.8928   -7.5478 C   0  0  0  0  0  0  0  0  0  0  0  0
   -8.6099    4.4063  -15.9542 C   0  0  0  0  0  0  0  0  0  0  0  0
   -8.7791    4.2225  -17.3349 C   0  0  0  0  0  0  0  0  0  0  0  0
  -10.4861    3.9480  -18.0676 Br  0  0  0  0  0  0  0  0  0  0  0  0
   -7.7342    4.3978  -18.2291 C   0  0  0  0  0  0  0  0  0  0  0  0
   -6.5323    4.8257  -17.7171 C   0  0  0  0  0  0  0  0  0  0  0  0
  1  2  1  0
  2  3  1  0
  3  4  2  0
  3  5  1  0
  5  6  1  0
  6  7  2  0
  7  8  1  0
  8  9  2  0
  8 10  1  0
 10 11  1  0
 11 12  2  0
 12 13  1  0
 13 14  2  0
 14 15  1  0
 15 16  2  0
 15 17  1  0
 17 18  1  0
 18 19  1  0
  7 20  1  0
 20 21  2  0
 21 22  1  0
 21 23  1  0
 23 24  2  0
 24  2  1  0
 24  6  1  0
 16 11  1  0
 19 14  1  0
M  END
>  <smiles>  (1730) 
C24778-P209

>  <fragmenstein_outcome>  (1730) 
acceptable

>  <inchikey>  (1730) 
XVWSYUBONCROOD-UHFFFAOYSA-N

>  <fragmenstein_mode>  (1730) 
expansion

>  <HIPPO Pose ID>  (1730) 
22882

>  <Energy>  (1730) 
73.789158

>  <fragmenstein_error>  (1730) 


>  <tags>  (1730) 
{'openbind_xx01zvns2b_c1_fragmenstein', 'fragmenstein_placed'}

>  <ref_pdb>  (1730) 
175

>  <scratch_subdir>  (1730) 
/opt/xchem-fragalysis-2/maxwin/BulkDock/SCRATCH/511028/C24778-P209

>  <alias>  (1730) 
NN1C(=O)Cc2c(C(=O)Nc3ccc4c(n3)CNC4)cc(Br)cc21

>  <HIPPO Compound ID>  (1730) 
22173

>  <fragmenstein_runtime>  (1730) 
4.247759

$$$$
CC(C)O[C@@]1(C)c2c(C(=O)Nc3ccc4c(c3)CNC4)cc(F)cc2N2CC(N(C)C)=N[C@@H]21
     RDKit          3D

 33 37  0  0  0  0  0  0  0  0999 V2000
   -4.9461    9.6547  -14.6834 C   0  0  0  0  0  0  0  0  0  0  0  0
   -4.4508    8.2178  -14.5624 C   0  0  0  0  0  0  0  0  0  0  0  0
   -3.9828    7.9403  -13.1384 C   0  0  0  0  0  0  0  0  0  0  0  0
   -5.5518    7.3615  -14.8502 O   0  0  0  0  0  0  0  0  0  0  0  0
   -5.3495    6.3251  -15.8050 C   0  0  1  0  0  0  0  0  0  0  0  0
   -4.2613    5.3355  -15.3903 C   0  0  0  0  0  0  0  0  0  0  0  0
   -6.6357    5.5495  -16.0321 C   0  0  0  0  0  0  0  0  0  0  0  0
   -7.5824    5.0391  -15.1406 C   0  0  0  0  0  0  0  0  0  0  0  0
   -7.6591    5.4490  -13.7073 C   0  0  0  0  0  0  0  0  0  0  0  0
   -7.6485    6.5898  -13.4624 O   0  0  0  0  0  0  0  0  0  0  0  0
   -7.7912    4.2240  -12.7718 N   0  0  0  0  0  0  0  0  0  0  0  0
   -8.0250    4.1541  -11.3967 C   0  0  0  0  0  0  0  0  0  0  0  0
   -8.0237    5.3272  -10.6197 C   0  0  0  0  0  0  0  0  0  0  0  0
   -8.2425    5.2841   -9.2396 C   0  0  0  0  0  0  0  0  0  0  0  0
   -8.5008    4.0580   -8.6620 C   0  0  0  0  0  0  0  0  0  0  0  0
   -8.5213    2.8937   -9.4262 C   0  0  0  0  0  0  0  0  0  0  0  0
   -8.2651    2.9174  -10.7909 C   0  0  0  0  0  0  0  0  0  0  0  0
   -8.8169    1.7391   -8.5244 C   0  0  0  0  0  0  0  0  0  0  0  0
   -9.3520    2.3515   -7.2754 N   0  0  0  0  0  0  0  0  0  0  0  0
   -8.7755    3.7121   -7.2372 C   0  0  0  0  0  0  0  0  0  0  0  0
   -8.6397    4.2778  -15.6565 C   0  0  0  0  0  0  0  0  0  0  0  0
   -8.7327    4.0363  -17.0281 C   0  0  0  0  0  0  0  0  0  0  0  0
   -9.7775    3.3511  -17.5068 F   0  0  0  0  0  0  0  0  0  0  0  0
   -7.8135    4.5657  -17.9196 C   0  0  0  0  0  0  0  0  0  0  0  0
   -6.7931    5.3534  -17.4143 C   0  0  0  0  0  0  0  0  0  0  0  0
   -5.9320    6.1325  -18.1998 N   0  0  0  0  0  0  0  0  0  0  0  0
   -5.0189    5.4276  -19.0685 C   0  0  0  0  0  0  0  0  0  0  0  0
   -3.6679    6.0428  -18.6598 C   0  0  0  0  0  0  0  0  0  0  0  0
   -2.4901    5.7320  -19.3104 N   0  0  0  0  0  0  0  0  0  0  0  0
   -1.2365    6.3029  -18.8240 C   0  0  0  0  0  0  0  0  0  0  0  0
   -2.3455    4.4728  -20.0014 C   0  0  0  0  0  0  0  0  0  0  0  0
   -3.7015    6.8721  -17.6542 N   0  0  0  0  0  0  0  0  0  0  0  0
   -5.1232    6.9029  -17.2515 C   0  0  2  0  0  0  0  0  0  0  0  0
  1  2  1  0
  2  3  1  0
  2  4  1  0
  4  5  1  0
  5  6  1  1
  5  7  1  0
  7  8  2  0
  8  9  1  0
  9 10  2  0
  9 11  1  0
 11 12  1  0
 12 13  2  0
 13 14  1  0
 14 15  2  0
 15 16  1  0
 16 17  2  0
 16 18  1  0
 18 19  1  0
 19 20  1  0
  8 21  1  0
 21 22  2  0
 22 23  1  0
 22 24  1  0
 24 25  2  0
 25 26  1  0
 26 27  1  0
 27 28  1  0
 28 29  1  0
 29 30  1  0
 29 31  1  0
 28 32  2  0
 33 32  1  6
 33  5  1  0
 25  7  1  0
 33 26  1  0
 17 12  1  0
 20 15  1  0
M  END
>  <smiles>  (1731) 
C24819-P209

>  <fragmenstein_outcome>  (1731) 
acceptable

>  <inchikey>  (1731) 
KMHCKDFWGFCLIM-UHFFFAOYSA-N

>  <fragmenstein_mode>  (1731) 
expansion

>  <HIPPO Pose ID>  (1731) 
22895

>  <Energy>  (1731) 
107.902552

>  <fragmenstein_error>  (1731) 


>  <tags>  (1731) 
{'openbind_xx01zvns2b_c1_fragmenstein', 'fragmenstein_placed'}

>  <ref_pdb>  (1731) 
175

>  <scratch_subdir>  (1731) 
/opt/xchem-fragalysis-2/maxwin/BulkDock/SCRATCH/511028/C24819-P209

>  <alias>  (1731) 
CC(C)O[C@@]1(C)c2c(C(=O)Nc3ccc4c(c3)CNC4)cc(F)cc2N2CC(N(C)C)=N[C@@H]21

>  <HIPPO Compound ID>  (1731) 
24819

>  <fragmenstein_runtime>  (1731) 
7.875655

$$$$
CCOC(=O)[C@@]1(OC(C)C)C(=O)Nc2c(C#N)c(F)cc(C(=O)Nc3ccc4c(c3)CNC4)c21
     RDKit          3D

 34 37  0  0  0  0  0  0  0  0999 V2000
   -3.3099    2.2957  -13.2272 C   0  0  0  0  0  0  0  0  0  0  0  0
   -4.6714    2.9478  -13.0766 C   0  0  0  0  0  0  0  0  0  0  0  0
   -5.0193    3.6924  -14.2592 O   0  0  0  0  0  0  0  0  0  0  0  0
   -4.5521    4.9781  -14.3166 C   0  0  0  0  0  0  0  0  0  0  0  0
   -3.7450    5.4317  -13.5132 O   0  0  0  0  0  0  0  0  0  0  0  0
   -5.1724    5.7609  -15.5178 C   0  0  1  0  0  0  0  0  0  0  0  0
   -5.3090    7.1796  -15.5848 O   0  0  0  0  0  0  0  0  0  0  0  0
   -4.5801    7.9740  -14.6538 C   0  0  0  0  0  0  0  0  0  0  0  0
   -3.1159    8.0926  -15.0630 C   0  0  0  0  0  0  0  0  0  0  0  0
   -5.2261    9.3585  -14.6680 C   0  0  0  0  0  0  0  0  0  0  0  0
   -4.3982    5.3709  -16.8275 C   0  0  0  0  0  0  0  0  0  0  0  0
   -3.1942    5.3655  -17.0342 O   0  0  0  0  0  0  0  0  0  0  0  0
   -5.3383    5.0241  -17.7890 N   0  0  0  0  0  0  0  0  0  0  0  0
   -6.6097    4.9291  -17.2394 C   0  0  0  0  0  0  0  0  0  0  0  0
   -7.7609    4.4937  -17.8707 C   0  0  0  0  0  0  0  0  0  0  0  0
   -7.6865    4.1005  -19.2294 C   0  0  0  0  0  0  0  0  0  0  0  0
   -7.4163    3.6855  -20.2818 N   0  0  0  0  0  0  0  0  0  0  0  0
   -8.9031    4.3353  -17.0960 C   0  0  0  0  0  0  0  0  0  0  0  0
  -10.0392    3.8767  -17.6398 F   0  0  0  0  0  0  0  0  0  0  0  0
   -8.8868    4.6324  -15.7274 C   0  0  0  0  0  0  0  0  0  0  0  0
   -7.7206    5.1232  -15.1260 C   0  0  0  0  0  0  0  0  0  0  0  0
   -7.7273    5.5324  -13.7099 C   0  0  0  0  0  0  0  0  0  0  0  0
   -7.4513    6.6358  -13.4541 O   0  0  0  0  0  0  0  0  0  0  0  0
   -8.0704    4.3473  -12.7844 N   0  0  0  0  0  0  0  0  0  0  0  0
   -8.2326    4.2966  -11.4037 C   0  0  0  0  0  0  0  0  0  0  0  0
   -8.0443    5.4387  -10.6093 C   0  0  0  0  0  0  0  0  0  0  0  0
   -8.2022    5.3781   -9.2220 C   0  0  0  0  0  0  0  0  0  0  0  0
   -8.5418    4.1639   -8.6554 C   0  0  0  0  0  0  0  0  0  0  0  0
   -8.7204    3.0324   -9.4406 C   0  0  0  0  0  0  0  0  0  0  0  0
   -8.5719    3.0767  -10.8166 C   0  0  0  0  0  0  0  0  0  0  0  0
   -9.0318    1.8663   -8.5683 C   0  0  0  0  0  0  0  0  0  0  0  0
   -9.2317    2.4148   -7.2000 N   0  0  0  0  0  0  0  0  0  0  0  0
   -8.7578    3.8145   -7.2238 C   0  0  0  0  0  0  0  0  0  0  0  0
   -6.5723    5.2682  -15.8909 C   0  0  0  0  0  0  0  0  0  0  0  0
  1  2  1  0
  2  3  1  0
  3  4  1  0
  4  5  2  0
  4  6  1  0
  6  7  1  1
  7  8  1  0
  8  9  1  0
  8 10  1  0
  6 11  1  0
 11 12  2  0
 11 13  1  0
 13 14  1  0
 14 15  2  0
 15 16  1  0
 16 17  3  0
 15 18  1  0
 18 19  1  0
 18 20  2  0
 20 21  1  0
 21 22  1  0
 22 23  2  0
 22 24  1  0
 24 25  1  0
 25 26  2  0
 26 27  1  0
 27 28  2  0
 28 29  1  0
 29 30  2  0
 29 31  1  0
 31 32  1  0
 32 33  1  0
 21 34  2  0
 34  6  1  0
 34 14  1  0
 30 25  1  0
 33 28  1  0
M  END
>  <smiles>  (1732) 
C24848-P210

>  <fragmenstein_outcome>  (1732) 
acceptable

>  <inchikey>  (1732) 
MXJFFQVQURWVLK-UHFFFAOYSA-N

>  <fragmenstein_mode>  (1732) 
expansion

>  <HIPPO Pose ID>  (1732) 
22903

>  <Energy>  (1732) 
101.91084

>  <fragmenstein_error>  (1732) 


>  <tags>  (1732) 
{'openbind_xx01zvns2b_c1_fragmenstein', 'fragmenstein_placed'}

>  <ref_pdb>  (1732) 
175

>  <scratch_subdir>  (1732) 
/opt/xchem-fragalysis-2/maxwin/BulkDock/SCRATCH/511028/C24848-P210

>  <alias>  (1732) 
CCOC(=O)[C@@]1(OC(C)C)C(=O)Nc2c(C#N)c(F)cc(C(=O)Nc3ccc4c(c3)CNC4)c21

>  <HIPPO Compound ID>  (1732) 
37985

>  <fragmenstein_runtime>  (1732) 
6.214366

$$$$
CC(C)O[C@]1(C)C(=O)Nc2cc(F)cc(C(=O)C(=O)c3ccc4c(c3)CNC4)c21
     RDKit          3D

 29 32  0  0  0  0  0  0  0  0999 V2000
   -4.6673    8.6155  -14.2585 C   0  0  0  0  0  0  0  0  0  0  0  0
   -4.1352    7.2817  -14.7813 C   0  0  0  0  0  0  0  0  0  0  0  0
   -2.8974    7.5289  -15.6349 C   0  0  0  0  0  0  0  0  0  0  0  0
   -5.1983    6.6992  -15.5273 O   0  0  0  0  0  0  0  0  0  0  0  0
   -5.1312    5.3382  -15.9347 C   0  0  2  0  0  0  0  0  0  0  0  0
   -4.3587    4.4075  -15.0037 C   0  0  0  0  0  0  0  0  0  0  0  0
   -4.5952    5.2105  -17.4106 C   0  0  0  0  0  0  0  0  0  0  0  0
   -3.4324    5.2624  -17.7860 O   0  0  0  0  0  0  0  0  0  0  0  0
   -5.6934    5.0223  -18.2409 N   0  0  0  0  0  0  0  0  0  0  0  0
   -6.8479    4.8233  -17.5023 C   0  0  0  0  0  0  0  0  0  0  0  0
   -8.0904    4.5018  -18.0050 C   0  0  0  0  0  0  0  0  0  0  0  0
   -9.1018    4.2679  -17.0835 C   0  0  0  0  0  0  0  0  0  0  0  0
  -10.3227    3.9443  -17.5277 F   0  0  0  0  0  0  0  0  0  0  0  0
   -8.8783    4.3688  -15.7050 C   0  0  0  0  0  0  0  0  0  0  0  0
   -7.6128    4.7258  -15.2233 C   0  0  0  0  0  0  0  0  0  0  0  0
   -7.4011    4.9037  -13.7743 C   0  0  0  0  0  0  0  0  0  0  0  0
   -6.8968    5.9309  -13.3453 O   0  0  0  0  0  0  0  0  0  0  0  0
   -7.7358    3.7599  -12.8446 C   0  0  0  0  0  0  0  0  0  0  0  0
   -7.5747    2.6268  -13.2904 O   0  0  0  0  0  0  0  0  0  0  0  0
   -8.1339    3.9658  -11.4278 C   0  0  0  0  0  0  0  0  0  0  0  0
   -8.0741    5.2075  -10.7639 C   0  0  0  0  0  0  0  0  0  0  0  0
   -8.3073    5.2966   -9.3841 C   0  0  0  0  0  0  0  0  0  0  0  0
   -8.6230    4.1408   -8.6938 C   0  0  0  0  0  0  0  0  0  0  0  0
   -8.7432    2.9292   -9.3555 C   0  0  0  0  0  0  0  0  0  0  0  0
   -8.4971    2.8202  -10.7105 C   0  0  0  0  0  0  0  0  0  0  0  0
   -9.0779    1.8514   -8.3871 C   0  0  0  0  0  0  0  0  0  0  0  0
   -9.3048    2.5286   -7.0821 N   0  0  0  0  0  0  0  0  0  0  0  0
   -8.8377    3.9230   -7.2350 C   0  0  0  0  0  0  0  0  0  0  0  0
   -6.5850    4.9445  -16.1347 C   0  0  0  0  0  0  0  0  0  0  0  0
  1  2  1  0
  2  3  1  0
  2  4  1  0
  4  5  1  0
  5  6  1  1
  5  7  1  0
  7  8  2  0
  7  9  1  0
  9 10  1  0
 10 11  2  0
 11 12  1  0
 12 13  1  0
 12 14  2  0
 14 15  1  0
 15 16  1  0
 16 17  2  0
 16 18  1  0
 18 19  2  0
 18 20  1  0
 20 21  2  0
 21 22  1  0
 22 23  2  0
 23 24  1  0
 24 25  2  0
 24 26  1  0
 26 27  1  0
 27 28  1  0
 15 29  2  0
 29  5  1  0
 29 10  1  0
 25 20  1  0
 28 23  1  0
M  END
>  <smiles>  (1733) 
C24851-P210

>  <fragmenstein_outcome>  (1733) 
acceptable

>  <inchikey>  (1733) 
DFWAZAIJGAXPHM-UHFFFAOYSA-N

>  <fragmenstein_mode>  (1733) 
expansion

>  <HIPPO Pose ID>  (1733) 
22904

>  <Energy>  (1733) 
124.007198

>  <fragmenstein_error>  (1733) 


>  <tags>  (1733) 
{'openbind_xx01zvns2b_c1_fragmenstein', 'fragmenstein_placed'}

>  <ref_pdb>  (1733) 
175

>  <scratch_subdir>  (1733) 
/opt/xchem-fragalysis-2/maxwin/BulkDock/SCRATCH/511028/C24851-P210

>  <alias>  (1733) 
CC(C)O[C@]1(C)C(=O)Nc2cc(F)cc(C(=O)C(=O)c3ccc4c(c3)CNC4)c21

>  <HIPPO Compound ID>  (1733) 
24851

>  <fragmenstein_runtime>  (1733) 
3.491613

$$$$
CC(C)O[C@]1(C)C(=O)N(CO)c2cc(F)cc(C(=O)C(=O)c3ccc4c(c3)CNC4)c21
     RDKit          3D

 31 34  0  0  0  0  0  0  0  0999 V2000
   -5.8392    8.3361  -14.2470 C   0  0  0  0  0  0  0  0  0  0  0  0
   -5.0193    7.5949  -15.2995 C   0  0  0  0  0  0  0  0  0  0  0  0
   -3.6680    8.2804  -15.4676 C   0  0  0  0  0  0  0  0  0  0  0  0
   -4.8233    6.2765  -14.8078 O   0  0  0  0  0  0  0  0  0  0  0  0
   -4.9422    5.1894  -15.7156 C   0  0  2  0  0  0  0  0  0  0  0  0
   -4.0905    4.0521  -15.1336 C   0  0  0  0  0  0  0  0  0  0  0  0
   -4.4234    5.3716  -17.1894 C   0  0  0  0  0  0  0  0  0  0  0  0
   -3.2834    5.6553  -17.5333 O   0  0  0  0  0  0  0  0  0  0  0  0
   -5.5002    5.1566  -18.0436 N   0  0  0  0  0  0  0  0  0  0  0  0
   -5.3968    5.3716  -19.4531 C   0  0  0  0  0  0  0  0  0  0  0  0
   -6.1414    4.4036  -20.1562 O   0  0  0  0  0  0  0  0  0  0  0  0
   -6.6675    4.8533  -17.3354 C   0  0  0  0  0  0  0  0  0  0  0  0
   -7.9285    4.5949  -17.8487 C   0  0  0  0  0  0  0  0  0  0  0  0
   -8.9432    4.2846  -16.9617 C   0  0  0  0  0  0  0  0  0  0  0  0
  -10.1572    3.9833  -17.4363 F   0  0  0  0  0  0  0  0  0  0  0  0
   -8.7232    4.2838  -15.5891 C   0  0  0  0  0  0  0  0  0  0  0  0
   -7.4529    4.5807  -15.0678 C   0  0  0  0  0  0  0  0  0  0  0  0
   -7.2733    4.6637  -13.6005 C   0  0  0  0  0  0  0  0  0  0  0  0
   -6.1951    4.4850  -13.0567 O   0  0  0  0  0  0  0  0  0  0  0  0
   -8.4287    5.0792  -12.7306 C   0  0  0  0  0  0  0  0  0  0  0  0
   -9.2873    5.8278  -13.1872 O   0  0  0  0  0  0  0  0  0  0  0  0
   -8.4200    4.7086  -11.3083 C   0  0  0  0  0  0  0  0  0  0  0  0
   -8.3122    5.7627  -10.3797 C   0  0  0  0  0  0  0  0  0  0  0  0
   -8.4011    5.5091   -9.0132 C   0  0  0  0  0  0  0  0  0  0  0  0
   -8.6396    4.2071   -8.6154 C   0  0  0  0  0  0  0  0  0  0  0  0
   -8.7218    3.1604   -9.5379 C   0  0  0  0  0  0  0  0  0  0  0  0
   -8.5912    3.3828  -10.8988 C   0  0  0  0  0  0  0  0  0  0  0  0
   -8.9996    1.8941   -8.7927 C   0  0  0  0  0  0  0  0  0  0  0  0
   -9.5075    2.3426   -7.4677 N   0  0  0  0  0  0  0  0  0  0  0  0
   -8.8957    3.6687   -7.2461 C   0  0  0  0  0  0  0  0  0  0  0  0
   -6.4056    4.8350  -15.9564 C   0  0  0  0  0  0  0  0  0  0  0  0
  1  2  1  0
  2  3  1  0
  2  4  1  0
  4  5  1  0
  5  6  1  1
  5  7  1  0
  7  8  2  0
  7  9  1  0
  9 10  1  0
 10 11  1  0
  9 12  1  0
 12 13  2  0
 13 14  1  0
 14 15  1  0
 14 16  2  0
 16 17  1  0
 17 18  1  0
 18 19  2  0
 18 20  1  0
 20 21  2  0
 20 22  1  0
 22 23  2  0
 23 24  1  0
 24 25  2  0
 25 26  1  0
 26 27  2  0
 26 28  1  0
 28 29  1  0
 29 30  1  0
 17 31  2  0
 31  5  1  0
 31 12  1  0
 27 22  1  0
 30 25  1  0
M  END
>  <smiles>  (1734) 
C24853-P210

>  <fragmenstein_outcome>  (1734) 
acceptable

>  <inchikey>  (1734) 
BGQUSMNXMFGSTI-UHFFFAOYSA-N

>  <fragmenstein_mode>  (1734) 
expansion

>  <HIPPO Pose ID>  (1734) 
22906

>  <Energy>  (1734) 
113.480397

>  <fragmenstein_error>  (1734) 


>  <tags>  (1734) 
{'openbind_xx01zvns2b_c1_fragmenstein', 'fragmenstein_placed'}

>  <ref_pdb>  (1734) 
175

>  <scratch_subdir>  (1734) 
/opt/xchem-fragalysis-2/maxwin/BulkDock/SCRATCH/511028/C24853-P210

>  <alias>  (1734) 
CC(C)O[C@]1(C)C(=O)N(CO)c2cc(F)cc(C(=O)C(=O)c3ccc4c(c3)CNC4)c21

>  <HIPPO Compound ID>  (1734) 
24853

>  <fragmenstein_runtime>  (1734) 
3.192831

$$$$
CC(C)O[C@@]1(C)C(=O)N(N)c2cc(F)cc(C(=O)Nc3ccc4c(c3)CNC4)c21
     RDKit          3D

 29 32  0  0  0  0  0  0  0  0999 V2000
   -4.7327    2.9423  -13.0260 C   0  0  0  0  0  0  0  0  0  0  0  0
   -4.4562    4.3185  -13.6270 C   0  0  0  0  0  0  0  0  0  0  0  0
   -3.0265    4.7375  -13.3020 C   0  0  0  0  0  0  0  0  0  0  0  0
   -4.6130    4.1989  -15.0377 O   0  0  0  0  0  0  0  0  0  0  0  0
   -5.1767    5.2877  -15.7760 C   0  0  1  0  0  0  0  0  0  0  0  0
   -4.8927    6.7094  -15.2799 C   0  0  0  0  0  0  0  0  0  0  0  0
   -4.5164    5.2195  -17.2011 C   0  0  0  0  0  0  0  0  0  0  0  0
   -3.3208    5.3317  -17.4505 O   0  0  0  0  0  0  0  0  0  0  0  0
   -5.5653    5.0248  -18.1153 N   0  0  0  0  0  0  0  0  0  0  0  0
   -5.3824    5.0228  -19.4871 N   0  0  0  0  0  0  0  0  0  0  0  0
   -6.7876    4.8244  -17.4785 C   0  0  0  0  0  0  0  0  0  0  0  0
   -8.0008    4.4922  -18.0595 C   0  0  0  0  0  0  0  0  0  0  0  0
   -9.0815    4.2898  -17.2142 C   0  0  0  0  0  0  0  0  0  0  0  0
  -10.2669    3.9424  -17.7288 F   0  0  0  0  0  0  0  0  0  0  0  0
   -8.9686    4.4762  -15.8377 C   0  0  0  0  0  0  0  0  0  0  0  0
   -7.7466    4.8645  -15.2785 C   0  0  0  0  0  0  0  0  0  0  0  0
   -7.7468    5.3190  -13.8765 C   0  0  0  0  0  0  0  0  0  0  0  0
   -7.5069    6.4428  -13.6752 O   0  0  0  0  0  0  0  0  0  0  0  0
   -8.1556    4.1944  -12.9043 N   0  0  0  0  0  0  0  0  0  0  0  0
   -8.2595    4.1926  -11.5166 C   0  0  0  0  0  0  0  0  0  0  0  0
   -8.0477    5.3635  -10.7701 C   0  0  0  0  0  0  0  0  0  0  0  0
   -8.1721    5.3573   -9.3772 C   0  0  0  0  0  0  0  0  0  0  0  0
   -8.5052    4.1682   -8.7561 C   0  0  0  0  0  0  0  0  0  0  0  0
   -8.7072    3.0094   -9.4932 C   0  0  0  0  0  0  0  0  0  0  0  0
   -8.5880    2.9998  -10.8729 C   0  0  0  0  0  0  0  0  0  0  0  0
   -9.0197    1.8809   -8.5739 C   0  0  0  0  0  0  0  0  0  0  0  0
   -9.1699    2.4780   -7.2192 N   0  0  0  0  0  0  0  0  0  0  0  0
   -8.6991    3.8762   -7.3088 C   0  0  0  0  0  0  0  0  0  0  0  0
   -6.6324    4.9959  -16.0974 C   0  0  0  0  0  0  0  0  0  0  0  0
  1  2  1  0
  2  3  1  0
  2  4  1  0
  4  5  1  0
  5  6  1  1
  5  7  1  0
  7  8  2  0
  7  9  1  0
  9 10  1  0
  9 11  1  0
 11 12  2  0
 12 13  1  0
 13 14  1  0
 13 15  2  0
 15 16  1  0
 16 17  1  0
 17 18  2  0
 17 19  1  0
 19 20  1  0
 20 21  2  0
 21 22  1  0
 22 23  2  0
 23 24  1  0
 24 25  2  0
 24 26  1  0
 26 27  1  0
 27 28  1  0
 16 29  2  0
 29  5  1  0
 29 11  1  0
 25 20  1  0
 28 23  1  0
M  END
>  <smiles>  (1735) 
C24799-P210

>  <fragmenstein_outcome>  (1735) 
acceptable

>  <inchikey>  (1735) 
GBKQAPGMRFCFJS-UHFFFAOYSA-N

>  <fragmenstein_mode>  (1735) 
expansion

>  <HIPPO Pose ID>  (1735) 
22907

>  <Energy>  (1735) 
129.052976

>  <fragmenstein_error>  (1735) 


>  <tags>  (1735) 
{'openbind_xx01zvns2b_c1_fragmenstein', 'fragmenstein_placed'}

>  <ref_pdb>  (1735) 
175

>  <scratch_subdir>  (1735) 
/opt/xchem-fragalysis-2/maxwin/BulkDock/SCRATCH/511028/C24799-P210

>  <alias>  (1735) 
CC(C)O[C@@]1(C)C(=O)N(N)c2cc(F)cc(C(=O)Nc3ccc4c(c3)CNC4)c21

>  <HIPPO Compound ID>  (1735) 
36158

>  <fragmenstein_runtime>  (1735) 
6.253863

$$$$
CC(C)O[C@]1(C)C(=O)N(CO)c2cc(F)cc(C(=O)C(=O)c3ccc4c(c3N)CNC4)c21
     RDKit          3D

 32 35  0  0  0  0  0  0  0  0999 V2000
   -4.0202    8.7433  -16.1068 C   0  0  0  0  0  0  0  0  0  0  0  0
   -4.0153    7.5136  -15.2066 C   0  0  0  0  0  0  0  0  0  0  0  0
   -3.8992    7.9215  -13.7432 C   0  0  0  0  0  0  0  0  0  0  0  0
   -5.2640    6.8483  -15.3822 O   0  0  0  0  0  0  0  0  0  0  0  0
   -5.2199    5.4801  -15.7898 C   0  0  2  0  0  0  0  0  0  0  0  0
   -4.4626    4.5817  -14.8151 C   0  0  0  0  0  0  0  0  0  0  0  0
   -4.6546    5.3399  -17.2408 C   0  0  0  0  0  0  0  0  0  0  0  0
   -3.4855    5.4843  -17.5784 O   0  0  0  0  0  0  0  0  0  0  0  0
   -5.7339    5.0789  -18.0779 N   0  0  0  0  0  0  0  0  0  0  0  0
   -5.6266    5.1216  -19.5004 C   0  0  0  0  0  0  0  0  0  0  0  0
   -6.4497    4.1414  -20.0779 O   0  0  0  0  0  0  0  0  0  0  0  0
   -6.9152    4.8956  -17.3531 C   0  0  0  0  0  0  0  0  0  0  0  0
   -8.1729    4.5569  -17.8218 C   0  0  0  0  0  0  0  0  0  0  0  0
   -9.1758    4.3265  -16.8930 C   0  0  0  0  0  0  0  0  0  0  0  0
  -10.3915    3.9800  -17.3331 F   0  0  0  0  0  0  0  0  0  0  0  0
   -8.9478    4.4740  -15.5254 C   0  0  0  0  0  0  0  0  0  0  0  0
   -7.6905    4.8823  -15.0742 C   0  0  0  0  0  0  0  0  0  0  0  0
   -7.4936    5.1726  -13.6470 C   0  0  0  0  0  0  0  0  0  0  0  0
   -7.1762    6.2964  -13.2927 O   0  0  0  0  0  0  0  0  0  0  0  0
   -7.6176    4.0412  -12.6612 C   0  0  0  0  0  0  0  0  0  0  0  0
   -7.3154    2.9262  -13.0894 O   0  0  0  0  0  0  0  0  0  0  0  0
   -7.9950    4.2467  -11.2296 C   0  0  0  0  0  0  0  0  0  0  0  0
   -7.8133    5.4760  -10.5642 C   0  0  0  0  0  0  0  0  0  0  0  0
   -8.0422    5.5912   -9.1874 C   0  0  0  0  0  0  0  0  0  0  0  0
   -8.4619    4.4732   -8.4938 C   0  0  0  0  0  0  0  0  0  0  0  0
   -8.6922    3.2737   -9.1500 C   0  0  0  0  0  0  0  0  0  0  0  0
   -8.4291    3.1207  -10.5011 C   0  0  0  0  0  0  0  0  0  0  0  0
   -8.7825    1.9301  -11.1347 N   0  0  0  0  0  0  0  0  0  0  0  0
   -9.2567    2.2863   -8.1863 C   0  0  0  0  0  0  0  0  0  0  0  0
   -9.0611    2.8756   -6.8339 N   0  0  0  0  0  0  0  0  0  0  0  0
   -8.7656    4.3084   -7.0448 C   0  0  0  0  0  0  0  0  0  0  0  0
   -6.6632    5.0705  -15.9912 C   0  0  0  0  0  0  0  0  0  0  0  0
  1  2  1  0
  2  3  1  0
  2  4  1  0
  4  5  1  0
  5  6  1  1
  5  7  1  0
  7  8  2  0
  7  9  1  0
  9 10  1  0
 10 11  1  0
  9 12  1  0
 12 13  2  0
 13 14  1  0
 14 15  1  0
 14 16  2  0
 16 17  1  0
 17 18  1  0
 18 19  2  0
 18 20  1  0
 20 21  2  0
 20 22  1  0
 22 23  2  0
 23 24  1  0
 24 25  2  0
 25 26  1  0
 26 27  2  0
 27 28  1  0
 26 29  1  0
 29 30  1  0
 30 31  1  0
 17 32  2  0
 32  5  1  0
 32 12  1  0
 27 22  1  0
 31 25  1  0
M  END
>  <smiles>  (1736) 
C24858-P210

>  <fragmenstein_outcome>  (1736) 
acceptable

>  <inchikey>  (1736) 
DCOPGBXDFRPMAX-UHFFFAOYSA-N

>  <fragmenstein_mode>  (1736) 
expansion

>  <HIPPO Pose ID>  (1736) 
22910

>  <Energy>  (1736) 
119.722187

>  <fragmenstein_error>  (1736) 


>  <tags>  (1736) 
{'openbind_xx01zvns2b_c1_fragmenstein', 'fragmenstein_placed'}

>  <ref_pdb>  (1736) 
175

>  <scratch_subdir>  (1736) 
/opt/xchem-fragalysis-2/maxwin/BulkDock/SCRATCH/511028/C24858-P210

>  <alias>  (1736) 
CC(C)O[C@]1(C)C(=O)N(CO)c2cc(F)cc(C(=O)C(=O)c3ccc4c(c3N)CNC4)c21

>  <HIPPO Compound ID>  (1736) 
24858

>  <fragmenstein_runtime>  (1736) 
4.032653

$$$$
CC(C)O[C@@]1(C)C(=O)Nc2c(CN)c(F)cc(C(=O)N[C@@H]3CC4=C(CNC4)C4(C3)NNNN4)c21
     RDKit          3D

 34 38  0  0  0  0  0  0  0  0999 V2000
   -4.5498    3.2055  -13.5423 C   0  0  0  0  0  0  0  0  0  0  0  0
   -3.7268    4.0886  -14.4704 C   0  0  0  0  0  0  0  0  0  0  0  0
   -2.3641    4.3545  -13.8364 C   0  0  0  0  0  0  0  0  0  0  0  0
   -4.3514    5.3568  -14.5985 O   0  0  0  0  0  0  0  0  0  0  0  0
   -5.0357    5.6649  -15.7894 C   0  0  1  0  0  0  0  0  0  0  0  0
   -4.9421    7.1995  -15.9165 C   0  0  0  0  0  0  0  0  0  0  0  0
   -4.6138    5.1240  -17.2159 C   0  0  0  0  0  0  0  0  0  0  0  0
   -3.4832    4.9951  -17.6622 O   0  0  0  0  0  0  0  0  0  0  0  0
   -5.7938    4.8334  -17.8930 N   0  0  0  0  0  0  0  0  0  0  0  0
   -6.8942    4.8634  -17.0454 C   0  0  0  0  0  0  0  0  0  0  0  0
   -8.1896    4.4849  -17.3522 C   0  0  0  0  0  0  0  0  0  0  0  0
   -8.7654    4.1251  -18.6748 C   0  0  0  0  0  0  0  0  0  0  0  0
   -7.7927    3.8510  -19.7179 N   0  0  0  0  0  0  0  0  0  0  0  0
   -9.0886    4.4600  -16.2933 C   0  0  0  0  0  0  0  0  0  0  0  0
  -10.3390    4.0567  -16.5288 F   0  0  0  0  0  0  0  0  0  0  0  0
   -8.7351    4.8293  -15.0069 C   0  0  0  0  0  0  0  0  0  0  0  0
   -7.4285    5.2460  -14.7355 C   0  0  0  0  0  0  0  0  0  0  0  0
   -7.1196    5.6190  -13.3388 C   0  0  0  0  0  0  0  0  0  0  0  0
   -6.6805    6.6672  -13.0908 O   0  0  0  0  0  0  0  0  0  0  0  0
   -7.5670    4.4798  -12.4078 N   0  0  0  0  0  0  0  0  0  0  0  0
   -7.4797    4.3522  -10.9666 C   0  0  2  0  0  0  0  0  0  0  0  0
   -8.2758    3.1008  -10.5333 C   0  0  0  0  0  0  0  0  0  0  0  0
   -8.6301    3.1412   -9.0961 C   0  0  0  0  0  0  0  0  0  0  0  0
   -8.4716    4.1980   -8.2951 C   0  0  0  0  0  0  0  0  0  0  0  0
   -8.8498    3.8361   -6.9084 C   0  0  0  0  0  0  0  0  0  0  0  0
   -9.3776    2.4551   -6.9738 N   0  0  0  0  0  0  0  0  0  0  0  0
   -9.1221    1.9658   -8.3457 C   0  0  0  0  0  0  0  0  0  0  0  0
   -7.9271    5.5232   -8.7247 C   0  0  0  0  0  0  0  0  0  0  0  0
   -7.9855    5.6261  -10.2714 C   0  0  0  0  0  0  0  0  0  0  0  0
   -6.5385    5.6667   -8.2230 N   0  0  0  0  0  0  0  0  0  0  0  0
   -6.6241    6.6366   -7.1562 N   0  0  0  0  0  0  0  0  0  0  0  0
   -7.6720    7.4910   -7.5456 N   0  0  0  0  0  0  0  0  0  0  0  0
   -8.6654    6.6427   -8.1141 N   0  0  0  0  0  0  0  0  0  0  0  0
   -6.5008    5.2701  -15.7633 C   0  0  0  0  0  0  0  0  0  0  0  0
  1  2  1  0
  2  3  1  0
  2  4  1  0
  4  5  1  0
  5  6  1  6
  5  7  1  0
  7  8  2  0
  7  9  1  0
  9 10  1  0
 10 11  2  0
 11 12  1  0
 12 13  1  0
 11 14  1  0
 14 15  1  0
 14 16  2  0
 16 17  1  0
 17 18  1  0
 18 19  2  0
 18 20  1  0
 21 20  1  6
 21 22  1  0
 22 23  1  0
 23 24  2  0
 24 25  1  0
 25 26  1  0
 26 27  1  0
 24 28  1  0
 28 29  1  0
 28 30  1  0
 30 31  1  0
 31 32  1  0
 32 33  1  0
 17 34  2  0
 34  5  1  0
 34 10  1  0
 29 21  1  0
 27 23  1  0
 33 28  1  0
M  END
>  <smiles>  (1737) 
C24873-P210

>  <fragmenstein_outcome>  (1737) 
acceptable

>  <inchikey>  (1737) 
WWCQOQMHYIRDDF-UHFFFAOYSA-N

>  <fragmenstein_mode>  (1737) 
expansion

>  <HIPPO Pose ID>  (1737) 
22919

>  <Energy>  (1737) 
50.074239

>  <fragmenstein_error>  (1737) 


>  <tags>  (1737) 
{'openbind_xx01zvns2b_c1_fragmenstein', 'fragmenstein_placed'}

>  <ref_pdb>  (1737) 
175

>  <scratch_subdir>  (1737) 
/opt/xchem-fragalysis-2/maxwin/BulkDock/SCRATCH/511028/C24873-P210

>  <alias>  (1737) 
CC(C)O[C@@]1(C)C(=O)Nc2c(CN)c(F)cc(C(=O)N[C@@H]3CC4=C(CNC4)C4(C3)NNNN4)c21

>  <HIPPO Compound ID>  (1737) 
24873

>  <fragmenstein_runtime>  (1737) 
11.360353

$$$$
CC(C)O[C@@]1(C)C(=O)Nc2c(C#N)c(F)cc(C(=O)Nc3ccc4c(c3)CNC4)c21
     RDKit          3D

 30 33  0  0  0  0  0  0  0  0999 V2000
   -3.9357    5.0765  -12.3379 C   0  0  0  0  0  0  0  0  0  0  0  0
   -3.7542    4.4391  -13.7116 C   0  0  0  0  0  0  0  0  0  0  0  0
   -3.3521    2.9774  -13.5487 C   0  0  0  0  0  0  0  0  0  0  0  0
   -4.9992    4.4471  -14.4051 O   0  0  0  0  0  0  0  0  0  0  0  0
   -5.1701    5.4043  -15.4357 C   0  0  1  0  0  0  0  0  0  0  0  0
   -4.9995    6.8577  -14.9939 C   0  0  0  0  0  0  0  0  0  0  0  0
   -4.2974    5.1847  -16.7331 C   0  0  0  0  0  0  0  0  0  0  0  0
   -3.0820    5.2108  -16.8458 O   0  0  0  0  0  0  0  0  0  0  0  0
   -5.1630    4.9562  -17.7858 N   0  0  0  0  0  0  0  0  0  0  0  0
   -6.4776    4.8597  -17.3511 C   0  0  0  0  0  0  0  0  0  0  0  0
   -7.5662    4.4722  -18.1108 C   0  0  0  0  0  0  0  0  0  0  0  0
   -7.3382    4.1067  -19.4667 C   0  0  0  0  0  0  0  0  0  0  0  0
   -6.9490    3.7415  -20.5020 N   0  0  0  0  0  0  0  0  0  0  0  0
   -8.7801    4.3091  -17.4519 C   0  0  0  0  0  0  0  0  0  0  0  0
   -9.8594    3.8663  -18.1106 F   0  0  0  0  0  0  0  0  0  0  0  0
   -8.8981    4.5757  -16.0791 C   0  0  0  0  0  0  0  0  0  0  0  0
   -7.7839    5.0065  -15.3481 C   0  0  0  0  0  0  0  0  0  0  0  0
   -7.9494    5.4527  -13.9537 C   0  0  0  0  0  0  0  0  0  0  0  0
   -7.9236    6.6013  -13.7517 O   0  0  0  0  0  0  0  0  0  0  0  0
   -8.1567    4.2728  -12.9854 N   0  0  0  0  0  0  0  0  0  0  0  0
   -8.2772    4.2512  -11.5979 C   0  0  0  0  0  0  0  0  0  0  0  0
   -8.1469    5.4269  -10.8398 C   0  0  0  0  0  0  0  0  0  0  0  0
   -8.2654    5.3995   -9.4463 C   0  0  0  0  0  0  0  0  0  0  0  0
   -8.5298    4.1874   -8.8364 C   0  0  0  0  0  0  0  0  0  0  0  0
   -8.6653    3.0257   -9.5845 C   0  0  0  0  0  0  0  0  0  0  0  0
   -8.5275    3.0335  -10.9635 C   0  0  0  0  0  0  0  0  0  0  0  0
   -8.9473    1.8780   -8.6776 C   0  0  0  0  0  0  0  0  0  0  0  0
   -9.1254    2.4569   -7.3178 N   0  0  0  0  0  0  0  0  0  0  0  0
   -8.7084    3.8722   -7.3921 C   0  0  0  0  0  0  0  0  0  0  0  0
   -6.5579    5.1267  -15.9876 C   0  0  0  0  0  0  0  0  0  0  0  0
  1  2  1  0
  2  3  1  0
  2  4  1  0
  4  5  1  0
  5  6  1  1
  5  7  1  0
  7  8  2  0
  7  9  1  0
  9 10  1  0
 10 11  2  0
 11 12  1  0
 12 13  3  0
 11 14  1  0
 14 15  1  0
 14 16  2  0
 16 17  1  0
 17 18  1  0
 18 19  2  0
 18 20  1  0
 20 21  1  0
 21 22  2  0
 22 23  1  0
 23 24  2  0
 24 25  1  0
 25 26  2  0
 25 27  1  0
 27 28  1  0
 28 29  1  0
 17 30  2  0
 30  5  1  0
 30 10  1  0
 26 21  1  0
 29 24  1  0
M  END
>  <smiles>  (1738) 
C24818-P210

>  <fragmenstein_outcome>  (1738) 
acceptable

>  <inchikey>  (1738) 
RJTBLGUZYLGWHP-UHFFFAOYSA-N

>  <fragmenstein_mode>  (1738) 
expansion

>  <HIPPO Pose ID>  (1738) 
22921

>  <Energy>  (1738) 
80.74262

>  <fragmenstein_error>  (1738) 


>  <tags>  (1738) 
{'openbind_xx01zvns2b_c1_fragmenstein', 'fragmenstein_placed'}

>  <ref_pdb>  (1738) 
175

>  <scratch_subdir>  (1738) 
/opt/xchem-fragalysis-2/maxwin/BulkDock/SCRATCH/511028/C24818-P210

>  <alias>  (1738) 
CC(C)O[C@@]1(C)C(=O)Nc2c(C#N)c(F)cc(C(=O)Nc3ccc4c(c3)CNC4)c21

>  <HIPPO Compound ID>  (1738) 
24818

>  <fragmenstein_runtime>  (1738) 
5.071878

$$$$
CC(C)O[C@]12C[C@H](C)CNC(=O)[C@](O)(Nc3ccc4c(c3)CNC4)c3cc(F)cc(c31)NC2=O
     RDKit          3D

 34 38  0  0  0  0  0  0  0  0999 V2000
   -4.2430    9.0572  -14.7420 C   0  0  0  0  0  0  0  0  0  0  0  0
   -5.1237    7.8144  -14.5291 C   0  0  2  0  0  0  0  0  0  0  0  0
   -5.2166    7.5442  -13.0298 C   0  0  0  0  0  0  0  0  0  0  0  0
   -6.1654    6.5056  -12.7995 N   0  0  0  0  0  0  0  0  0  0  0  0
   -7.4536    6.7037  -13.2372 C   0  0  0  0  0  0  0  0  0  0  0  0
   -7.9633    7.8263  -13.2664 O   0  0  0  0  0  0  0  0  0  0  0  0
   -8.1992    5.4069  -13.6654 C   0  0  2  0  0  0  0  0  0  0  0  0
   -9.5848    5.7405  -13.5356 O   0  0  0  0  0  0  0  0  0  0  0  0
   -7.9420    4.2539  -12.8083 N   0  0  0  0  0  0  0  0  0  0  0  0
   -8.2363    4.2337  -11.4319 C   0  0  0  0  0  0  0  0  0  0  0  0
   -8.1667    5.3578  -10.5768 C   0  0  0  0  0  0  0  0  0  0  0  0
   -8.3825    5.2740   -9.1950 C   0  0  0  0  0  0  0  0  0  0  0  0
   -8.6844    4.0448   -8.6620 C   0  0  0  0  0  0  0  0  0  0  0  0
   -8.7361    2.9181   -9.4710 C   0  0  0  0  0  0  0  0  0  0  0  0
   -8.4832    2.9878  -10.8332 C   0  0  0  0  0  0  0  0  0  0  0  0
   -9.0636    1.7369   -8.6202 C   0  0  0  0  0  0  0  0  0  0  0  0
   -9.6068    2.3166   -7.3590 N   0  0  0  0  0  0  0  0  0  0  0  0
   -8.9832    3.6521   -7.2557 C   0  0  0  0  0  0  0  0  0  0  0  0
   -7.9366    5.0649  -15.1481 C   0  0  0  0  0  0  0  0  0  0  0  0
   -9.0597    4.5775  -15.8738 C   0  0  0  0  0  0  0  0  0  0  0  0
   -9.0499    4.3336  -17.2454 C   0  0  0  0  0  0  0  0  0  0  0  0
  -10.1594    3.8868  -17.8440 F   0  0  0  0  0  0  0  0  0  0  0  0
   -7.9041    4.5161  -17.9772 C   0  0  0  0  0  0  0  0  0  0  0  0
   -6.7693    4.8404  -17.2615 C   0  0  0  0  0  0  0  0  0  0  0  0
   -6.7272    5.1374  -15.8781 C   0  0  0  0  0  0  0  0  0  0  0  0
   -5.2361    5.2423  -15.4542 C   0  0  2  0  0  0  0  0  0  0  0  0
   -5.1569    4.4378  -14.2920 O   0  0  0  0  0  0  0  0  0  0  0  0
   -3.9715    4.2752  -13.5218 C   0  0  0  0  0  0  0  0  0  0  0  0
   -4.3535    3.4191  -12.3094 C   0  0  0  0  0  0  0  0  0  0  0  0
   -2.8566    3.5862  -14.2602 C   0  0  0  0  0  0  0  0  0  0  0  0
   -4.5765    6.6559  -15.3654 C   0  0  0  0  0  0  0  0  0  0  0  0
   -4.5428    4.7494  -16.8209 C   0  0  0  0  0  0  0  0  0  0  0  0
   -3.3596    4.5349  -17.0451 O   0  0  0  0  0  0  0  0  0  0  0  0
   -5.5072    4.7341  -17.8034 N   0  0  0  0  0  0  0  0  0  0  0  0
  2  1  1  1
  2  3  1  0
  3  4  1  0
  4  5  1  0
  5  6  2  0
  5  7  1  0
  7  8  1  6
  7  9  1  0
  9 10  1  0
 10 11  2  0
 11 12  1  0
 12 13  2  0
 13 14  1  0
 14 15  2  0
 14 16  1  0
 16 17  1  0
 17 18  1  0
  7 19  1  0
 19 20  2  0
 20 21  1  0
 21 22  1  0
 21 23  2  0
 23 24  1  0
 24 25  2  0
 25 26  1  0
 26 27  1  1
 27 28  1  0
 28 29  1  0
 28 30  1  0
 26 31  1  0
 26 32  1  0
 32 33  2  0
 32 34  1  0
 31  2  1  0
 15 10  1  0
 25 19  1  0
 18 13  1  0
 34 24  1  0
M  END
>  <smiles>  (1739) 
C24886-P210

>  <fragmenstein_outcome>  (1739) 
acceptable

>  <inchikey>  (1739) 
UMDYPELTGKYTSZ-UHFFFAOYSA-N

>  <fragmenstein_mode>  (1739) 
expansion

>  <HIPPO Pose ID>  (1739) 
22923

>  <Energy>  (1739) 
135.390448

>  <fragmenstein_error>  (1739) 


>  <tags>  (1739) 
{'openbind_xx01zvns2b_c1_fragmenstein', 'fragmenstein_placed'}

>  <ref_pdb>  (1739) 
175

>  <scratch_subdir>  (1739) 
/opt/xchem-fragalysis-2/maxwin/BulkDock/SCRATCH/511028/C24886-P210

>  <alias>  (1739) 
CC(C)O[C@]12C[C@H](C)CNC(=O)[C@](O)(Nc3ccc4c(c3)CNC4)c3cc(F)cc(c31)NC2=O

>  <HIPPO Compound ID>  (1739) 
20276

>  <fragmenstein_runtime>  (1739) 
4.938196

$$$$
CCc1cc(C(=O)Nc2ccc3c(c2)CNC3)c2c(c1)N(C)C(=O)[C@@]2(C)OC(C)C
     RDKit          3D

 30 33  0  0  0  0  0  0  0  0999 V2000
  -10.8586    4.8482  -18.3521 C   0  0  0  0  0  0  0  0  0  0  0  0
  -10.1247    3.9469  -17.4096 C   0  0  0  0  0  0  0  0  0  0  0  0
   -8.7926    4.4285  -16.9486 C   0  0  0  0  0  0  0  0  0  0  0  0
   -8.5738    4.6387  -15.5758 C   0  0  0  0  0  0  0  0  0  0  0  0
   -7.3128    5.0074  -15.0969 C   0  0  0  0  0  0  0  0  0  0  0  0
   -7.1963    5.3682  -13.6605 C   0  0  0  0  0  0  0  0  0  0  0  0
   -6.7939    6.4249  -13.3749 O   0  0  0  0  0  0  0  0  0  0  0  0
   -7.7464    4.2317  -12.7697 N   0  0  0  0  0  0  0  0  0  0  0  0
   -7.9951    4.1961  -11.4015 C   0  0  0  0  0  0  0  0  0  0  0  0
   -7.8635    5.3506  -10.6112 C   0  0  0  0  0  0  0  0  0  0  0  0
   -8.1451    5.3190   -9.2418 C   0  0  0  0  0  0  0  0  0  0  0  0
   -8.5563    4.1212   -8.6910 C   0  0  0  0  0  0  0  0  0  0  0  0
   -8.6781    2.9753   -9.4726 C   0  0  0  0  0  0  0  0  0  0  0  0
   -8.4062    2.9916  -10.8290 C   0  0  0  0  0  0  0  0  0  0  0  0
   -9.0827    1.8363   -8.5980 C   0  0  0  0  0  0  0  0  0  0  0  0
   -9.5970    2.4736   -7.3565 N   0  0  0  0  0  0  0  0  0  0  0  0
   -8.9092    3.7820   -7.2812 C   0  0  0  0  0  0  0  0  0  0  0  0
   -6.2707    5.1293  -16.0047 C   0  0  0  0  0  0  0  0  0  0  0  0
   -6.5164    4.9591  -17.3711 C   0  0  0  0  0  0  0  0  0  0  0  0
   -7.7602    4.6266  -17.8633 C   0  0  0  0  0  0  0  0  0  0  0  0
   -5.3440    5.1319  -18.1041 N   0  0  0  0  0  0  0  0  0  0  0  0
   -5.2924    5.1755  -19.5437 C   0  0  0  0  0  0  0  0  0  0  0  0
   -4.2551    5.3311  -17.2603 C   0  0  0  0  0  0  0  0  0  0  0  0
   -3.0819    5.4095  -17.6016 O   0  0  0  0  0  0  0  0  0  0  0  0
   -4.8116    5.4621  -15.7953 C   0  0  2  0  0  0  0  0  0  0  0  0
   -4.1170    4.4790  -14.8554 C   0  0  0  0  0  0  0  0  0  0  0  0
   -4.7841    6.8008  -15.3241 O   0  0  0  0  0  0  0  0  0  0  0  0
   -3.5038    7.3979  -15.1352 C   0  0  0  0  0  0  0  0  0  0  0  0
   -3.4628    8.6716  -15.9706 C   0  0  0  0  0  0  0  0  0  0  0  0
   -3.3462    7.7218  -13.6548 C   0  0  0  0  0  0  0  0  0  0  0  0
  1  2  1  0
  2  3  1  0
  3  4  2  0
  4  5  1  0
  5  6  1  0
  6  7  2  0
  6  8  1  0
  8  9  1  0
  9 10  2  0
 10 11  1  0
 11 12  2  0
 12 13  1  0
 13 14  2  0
 13 15  1  0
 15 16  1  0
 16 17  1  0
  5 18  2  0
 18 19  1  0
 19 20  2  0
 19 21  1  0
 21 22  1  0
 21 23  1  0
 23 24  2  0
 23 25  1  0
 25 26  1  1
 25 27  1  0
 27 28  1  0
 28 29  1  0
 28 30  1  0
 20  3  1  0
 14  9  1  0
 25 18  1  0
 17 12  1  0
M  END
>  <smiles>  (1740) 
C24894-P210

>  <fragmenstein_outcome>  (1740) 
acceptable

>  <inchikey>  (1740) 
VIRMWMFIXWCSFR-UHFFFAOYSA-N

>  <fragmenstein_mode>  (1740) 
expansion

>  <HIPPO Pose ID>  (1740) 
22926

>  <Energy>  (1740) 
93.940517

>  <fragmenstein_error>  (1740) 


>  <tags>  (1740) 
{'openbind_xx01zvns2b_c1_fragmenstein', 'fragmenstein_placed'}

>  <ref_pdb>  (1740) 
175

>  <scratch_subdir>  (1740) 
/opt/xchem-fragalysis-2/maxwin/BulkDock/SCRATCH/511028/C24894-P210

>  <alias>  (1740) 
CCc1cc(C(=O)Nc2ccc3c(c2)CNC3)c2c(c1)N(C)C(=O)[C@@]2(C)OC(C)C

>  <HIPPO Compound ID>  (1740) 
35512

>  <fragmenstein_runtime>  (1740) 
6.159513

$$$$
CC(C)O[C@@]1(C)C(=O)Nc2cc(F)cc(C(=O)Nc3cc4c(cc3C#N)CNC4)c21
     RDKit          3D

 30 33  0  0  0  0  0  0  0  0999 V2000
   -4.4758    2.8713  -13.1858 C   0  0  0  0  0  0  0  0  0  0  0  0
   -4.2091    4.2105  -13.8679 C   0  0  0  0  0  0  0  0  0  0  0  0
   -2.7634    4.6295  -13.6237 C   0  0  0  0  0  0  0  0  0  0  0  0
   -4.4443    4.0365  -15.2643 O   0  0  0  0  0  0  0  0  0  0  0  0
   -5.0490    5.1027  -16.0038 C   0  0  1  0  0  0  0  0  0  0  0  0
   -4.6544    6.5226  -15.6039 C   0  0  0  0  0  0  0  0  0  0  0  0
   -4.5295    4.9689  -17.4897 C   0  0  0  0  0  0  0  0  0  0  0  0
   -3.3690    4.9899  -17.8788 O   0  0  0  0  0  0  0  0  0  0  0  0
   -5.6353    4.8383  -18.3172 N   0  0  0  0  0  0  0  0  0  0  0  0
   -6.7982    4.7153  -17.5798 C   0  0  0  0  0  0  0  0  0  0  0  0
   -8.0491    4.4376  -18.0940 C   0  0  0  0  0  0  0  0  0  0  0  0
   -9.0819    4.2711  -17.1858 C   0  0  0  0  0  0  0  0  0  0  0  0
  -10.3035    3.9569  -17.6319 F   0  0  0  0  0  0  0  0  0  0  0  0
   -8.8787    4.4424  -15.8157 C   0  0  0  0  0  0  0  0  0  0  0  0
   -7.6037    4.7641  -15.3273 C   0  0  0  0  0  0  0  0  0  0  0  0
   -7.4760    5.1815  -13.9207 C   0  0  0  0  0  0  0  0  0  0  0  0
   -6.9733    6.2140  -13.7249 O   0  0  0  0  0  0  0  0  0  0  0  0
   -8.0719    4.1571  -12.9348 N   0  0  0  0  0  0  0  0  0  0  0  0
   -8.2548    4.2290  -11.5452 C   0  0  0  0  0  0  0  0  0  0  0  0
   -8.5252    3.0035  -10.9146 C   0  0  0  0  0  0  0  0  0  0  0  0
   -8.7154    2.9759   -9.5440 C   0  0  0  0  0  0  0  0  0  0  0  0
   -8.6192    4.1282   -8.7771 C   0  0  0  0  0  0  0  0  0  0  0  0
   -8.3527    5.3476   -9.3650 C   0  0  0  0  0  0  0  0  0  0  0  0
   -8.2000    5.4113  -10.7655 C   0  0  0  0  0  0  0  0  0  0  0  0
   -8.1389    6.7359  -11.3143 C   0  0  0  0  0  0  0  0  0  0  0  0
   -8.1598    7.8430  -11.6681 N   0  0  0  0  0  0  0  0  0  0  0  0
   -8.8786    3.7853   -7.3485 C   0  0  0  0  0  0  0  0  0  0  0  0
   -9.5091    2.4500   -7.3858 N   0  0  0  0  0  0  0  0  0  0  0  0
   -9.0278    1.8232   -8.6466 C   0  0  0  0  0  0  0  0  0  0  0  0
   -6.5384    4.8683  -16.2143 C   0  0  0  0  0  0  0  0  0  0  0  0
  1  2  1  0
  2  3  1  0
  2  4  1  0
  4  5  1  0
  5  6  1  1
  5  7  1  0
  7  8  2  0
  7  9  1  0
  9 10  1  0
 10 11  2  0
 11 12  1  0
 12 13  1  0
 12 14  2  0
 14 15  1  0
 15 16  1  0
 16 17  2  0
 16 18  1  0
 18 19  1  0
 19 20  2  0
 20 21  1  0
 21 22  2  0
 22 23  1  0
 23 24  2  0
 24 25  1  0
 25 26  3  0
 22 27  1  0
 27 28  1  0
 28 29  1  0
 15 30  2  0
 30  5  1  0
 30 10  1  0
 24 19  1  0
 29 21  1  0
M  END
>  <smiles>  (1741) 
C24897-P210

>  <fragmenstein_outcome>  (1741) 
acceptable

>  <inchikey>  (1741) 
UVZPTIJGTJQXBZ-UHFFFAOYSA-N

>  <fragmenstein_mode>  (1741) 
expansion

>  <HIPPO Pose ID>  (1741) 
22927

>  <Energy>  (1741) 
98.094721

>  <fragmenstein_error>  (1741) 


>  <tags>  (1741) 
{'openbind_xx01zvns2b_c1_fragmenstein', 'fragmenstein_placed'}

>  <ref_pdb>  (1741) 
175

>  <scratch_subdir>  (1741) 
/opt/xchem-fragalysis-2/maxwin/BulkDock/SCRATCH/511028/C24897-P210

>  <alias>  (1741) 
CC(C)O[C@@]1(C)C(=O)Nc2cc(F)cc(C(=O)Nc3cc4c(cc3C#N)CNC4)c21

>  <HIPPO Compound ID>  (1741) 
36882

>  <fragmenstein_runtime>  (1741) 
10.438548

$$$$
CC(C)O[C@]1(C)c2c(cc(F)cc2C(=O)Nc2ccc3c(c2)CNC3)N[C@@]12NN[C@H](C(C)C)S2
     RDKit          3D

 34 38  0  0  0  0  0  0  0  0999 V2000
   -2.9901    4.7932  -13.3938 C   0  0  0  0  0  0  0  0  0  0  0  0
   -4.4150    4.3715  -13.7409 C   0  0  0  0  0  0  0  0  0  0  0  0
   -4.6343    2.9335  -13.2787 C   0  0  0  0  0  0  0  0  0  0  0  0
   -4.6023    4.4091  -15.1547 O   0  0  0  0  0  0  0  0  0  0  0  0
   -5.1373    5.5993  -15.7913 C   0  0  2  0  0  0  0  0  0  0  0  0
   -4.9612    6.9086  -15.0034 C   0  0  0  0  0  0  0  0  0  0  0  0
   -6.5656    5.2472  -16.1612 C   0  0  0  0  0  0  0  0  0  0  0  0
   -6.6338    4.9195  -17.5186 C   0  0  0  0  0  0  0  0  0  0  0  0
   -7.8031    4.4590  -18.1048 C   0  0  0  0  0  0  0  0  0  0  0  0
   -8.9258    4.3025  -17.3095 C   0  0  0  0  0  0  0  0  0  0  0  0
  -10.0616    3.8458  -17.8507 F   0  0  0  0  0  0  0  0  0  0  0  0
   -8.8917    4.6181  -15.9554 C   0  0  0  0  0  0  0  0  0  0  0  0
   -7.7134    5.1142  -15.3839 C   0  0  0  0  0  0  0  0  0  0  0  0
   -7.7759    5.5731  -13.9859 C   0  0  0  0  0  0  0  0  0  0  0  0
   -7.6677    6.7142  -13.7719 O   0  0  0  0  0  0  0  0  0  0  0  0
   -7.9737    4.3898  -13.0192 N   0  0  0  0  0  0  0  0  0  0  0  0
   -8.1682    4.3709  -11.6416 C   0  0  0  0  0  0  0  0  0  0  0  0
   -8.0600    5.5435  -10.8741 C   0  0  0  0  0  0  0  0  0  0  0  0
   -8.2408    5.5092   -9.4865 C   0  0  0  0  0  0  0  0  0  0  0  0
   -8.5448    4.2964   -8.8982 C   0  0  0  0  0  0  0  0  0  0  0  0
   -8.6552    3.1382   -9.6607 C   0  0  0  0  0  0  0  0  0  0  0  0
   -8.4592    3.1514  -11.0299 C   0  0  0  0  0  0  0  0  0  0  0  0
   -8.9745    1.9901   -8.7617 C   0  0  0  0  0  0  0  0  0  0  0  0
   -9.4151    2.6153   -7.4875 N   0  0  0  0  0  0  0  0  0  0  0  0
   -8.7873    3.9536   -7.4668 C   0  0  0  0  0  0  0  0  0  0  0  0
   -5.3963    4.9509  -18.2033 N   0  0  0  0  0  0  0  0  0  0  0  0
   -4.5256    5.7467  -17.3264 C   0  0  1  0  0  0  0  0  0  0  0  0
   -4.3277    7.1304  -17.8124 N   0  0  0  0  0  0  0  0  0  0  0  0
   -3.0210    7.6291  -17.4337 N   0  0  0  0  0  0  0  0  0  0  0  0
   -2.0380    6.5659  -17.6979 C   0  0  2  0  0  0  0  0  0  0  0  0
   -1.3090    6.7273  -19.0612 C   0  0  0  0  0  0  0  0  0  0  0  0
   -2.2141    6.6481  -20.2974 C   0  0  0  0  0  0  0  0  0  0  0  0
   -0.1576    5.7233  -19.2059 C   0  0  0  0  0  0  0  0  0  0  0  0
   -2.8745    4.9767  -17.4928 S   0  0  0  0  0  0  0  0  0  0  0  0
  1  2  1  0
  2  3  1  0
  2  4  1  0
  4  5  1  0
  5  6  1  1
  5  7  1  0
  7  8  2  0
  8  9  1  0
  9 10  2  0
 10 11  1  0
 10 12  1  0
 12 13  2  0
 13 14  1  0
 14 15  2  0
 14 16  1  0
 16 17  1  0
 17 18  2  0
 18 19  1  0
 19 20  2  0
 20 21  1  0
 21 22  2  0
 21 23  1  0
 23 24  1  0
 24 25  1  0
  8 26  1  0
 27 26  1  6
 27 28  1  0
 28 29  1  0
 29 30  1  0
 30 31  1  6
 31 32  1  0
 31 33  1  0
 30 34  1  0
 27  5  1  0
 13  7  1  0
 22 17  1  0
 34 27  1  0
 25 20  1  0
M  END
>  <smiles>  (1742) 
C24908-P210

>  <fragmenstein_outcome>  (1742) 
acceptable

>  <inchikey>  (1742) 
UKDWIPCBLSJJFI-UHFFFAOYSA-N

>  <fragmenstein_mode>  (1742) 
expansion

>  <HIPPO Pose ID>  (1742) 
22937

>  <Energy>  (1742) 
105.212899

>  <fragmenstein_error>  (1742) 


>  <tags>  (1742) 
{'openbind_xx01zvns2b_c1_fragmenstein', 'fragmenstein_placed'}

>  <ref_pdb>  (1742) 
175

>  <scratch_subdir>  (1742) 
/opt/xchem-fragalysis-2/maxwin/BulkDock/SCRATCH/511028/C24908-P210

>  <alias>  (1742) 
CC(C)O[C@]1(C)c2c(cc(F)cc2C(=O)Nc2ccc3c(c2)CNC3)N[C@@]12NN[C@H](C(C)C)S2

>  <HIPPO Compound ID>  (1742) 
24908

>  <fragmenstein_runtime>  (1742) 
10.796752

$$$$
CC(C)O[C@]1(C)C(=O)Nc2c1c(C(=O)Nc1ccc3c(c1)CNC3)cc1cc[nH]c21
     RDKit          3D

 30 34  0  0  0  0  0  0  0  0999 V2000
   -4.3239    8.7368  -14.0100 C   0  0  0  0  0  0  0  0  0  0  0  0
   -3.8504    7.3355  -14.3924 C   0  0  0  0  0  0  0  0  0  0  0  0
   -2.5084    7.4313  -15.1092 C   0  0  0  0  0  0  0  0  0  0  0  0
   -4.8603    6.7884  -15.2325 O   0  0  0  0  0  0  0  0  0  0  0  0
   -4.8737    5.3877  -15.5043 C   0  0  2  0  0  0  0  0  0  0  0  0
   -4.2206    4.4595  -14.4832 C   0  0  0  0  0  0  0  0  0  0  0  0
   -4.2749    5.1451  -16.9411 C   0  0  0  0  0  0  0  0  0  0  0  0
   -3.1003    5.1281  -17.2795 O   0  0  0  0  0  0  0  0  0  0  0  0
   -5.3377    4.9498  -17.8071 N   0  0  0  0  0  0  0  0  0  0  0  0
   -6.5215    4.8423  -17.1054 C   0  0  0  0  0  0  0  0  0  0  0  0
   -6.3295    5.0304  -15.7416 C   0  0  0  0  0  0  0  0  0  0  0  0
   -7.4110    4.9221  -14.8781 C   0  0  0  0  0  0  0  0  0  0  0  0
   -7.3448    5.3323  -13.4571 C   0  0  0  0  0  0  0  0  0  0  0  0
   -6.9280    6.3888  -13.1929 O   0  0  0  0  0  0  0  0  0  0  0  0
   -7.9688    4.2483  -12.5529 N   0  0  0  0  0  0  0  0  0  0  0  0
   -8.1182    4.2011  -11.1758 C   0  0  0  0  0  0  0  0  0  0  0  0
   -7.8722    5.3346  -10.3852 C   0  0  0  0  0  0  0  0  0  0  0  0
   -8.0832    5.2989   -9.0055 C   0  0  0  0  0  0  0  0  0  0  0  0
   -8.5203    4.1140   -8.4448 C   0  0  0  0  0  0  0  0  0  0  0  0
   -8.7475    2.9909   -9.2294 C   0  0  0  0  0  0  0  0  0  0  0  0
   -8.5653    3.0147  -10.5993 C   0  0  0  0  0  0  0  0  0  0  0  0
   -9.1323    1.8472   -8.3611 C   0  0  0  0  0  0  0  0  0  0  0  0
   -9.3395    2.4092   -7.0001 N   0  0  0  0  0  0  0  0  0  0  0  0
   -8.8009    3.7865   -7.0195 C   0  0  0  0  0  0  0  0  0  0  0  0
   -8.6888    4.5874  -15.3777 C   0  0  0  0  0  0  0  0  0  0  0  0
   -8.8808    4.4531  -16.7637 C   0  0  0  0  0  0  0  0  0  0  0  0
  -10.0264    4.3287  -17.5885 C   0  0  0  0  0  0  0  0  0  0  0  0
   -9.5988    4.5581  -18.8680 C   0  0  0  0  0  0  0  0  0  0  0  0
   -8.2364    4.5673  -18.8886 N   0  0  0  0  0  0  0  0  0  0  0  0
   -7.7803    4.6071  -17.6071 C   0  0  0  0  0  0  0  0  0  0  0  0
  1  2  1  0
  2  3  1  0
  2  4  1  0
  4  5  1  0
  5  6  1  1
  5  7  1  0
  7  8  2  0
  7  9  1  0
  9 10  1  0
 10 11  2  0
 11 12  1  0
 12 13  1  0
 13 14  2  0
 13 15  1  0
 15 16  1  0
 16 17  2  0
 17 18  1  0
 18 19  2  0
 19 20  1  0
 20 21  2  0
 20 22  1  0
 22 23  1  0
 23 24  1  0
 12 25  2  0
 25 26  1  0
 26 27  1  0
 27 28  2  0
 28 29  1  0
 29 30  1  0
 11  5  1  0
 21 16  1  0
 30 26  2  0
 30 10  1  0
 24 19  1  0
M  END
>  <smiles>  (1743) 
C20514-P210

>  <fragmenstein_outcome>  (1743) 
acceptable

>  <inchikey>  (1743) 
QDNVXTVLZPFQCC-UHFFFAOYSA-N

>  <fragmenstein_mode>  (1743) 
expansion

>  <HIPPO Pose ID>  (1743) 
22938

>  <Energy>  (1743) 
85.849102

>  <fragmenstein_error>  (1743) 


>  <tags>  (1743) 
{'openbind_xx01zvns2b_c1_fragmenstein', 'fragmenstein_placed'}

>  <ref_pdb>  (1743) 
175

>  <scratch_subdir>  (1743) 
/opt/xchem-fragalysis-2/maxwin/BulkDock/SCRATCH/511028/C20514-P210

>  <alias>  (1743) 
CC(C)O[C@]1(C)C(=O)Nc2c1c(C(=O)Nc1ccc3c(c1)CNC3)cc1cc[nH]c21

>  <HIPPO Compound ID>  (1743) 
20514

>  <fragmenstein_runtime>  (1743) 
5.917849

$$$$
CC(C)O[C@@]1(C)C(=O)Nc2cc(F)cc([C@](O)(Nc3ccc4c(c3)CNC4)C(=O)NCC(F)F)c21
     RDKit          3D

 35 38  0  0  0  0  0  0  0  0999 V2000
   -2.3783    5.2714  -14.7426 C   0  0  0  0  0  0  0  0  0  0  0  0
   -3.4441    4.1922  -14.8909 C   0  0  0  0  0  0  0  0  0  0  0  0
   -3.4221    3.2924  -13.6542 C   0  0  0  0  0  0  0  0  0  0  0  0
   -4.7594    4.7243  -14.9498 O   0  0  0  0  0  0  0  0  0  0  0  0
   -5.1850    5.4236  -16.1007 C   0  0  1  0  0  0  0  0  0  0  0  0
   -5.0308    6.9477  -15.9352 C   0  0  0  0  0  0  0  0  0  0  0  0
   -4.5887    5.1012  -17.5290 C   0  0  0  0  0  0  0  0  0  0  0  0
   -3.4111    5.0765  -17.8575 O   0  0  0  0  0  0  0  0  0  0  0  0
   -5.6552    4.8875  -18.3854 N   0  0  0  0  0  0  0  0  0  0  0  0
   -6.8494    4.8028  -17.6878 C   0  0  0  0  0  0  0  0  0  0  0  0
   -8.0556    4.4300  -18.2373 C   0  0  0  0  0  0  0  0  0  0  0  0
   -9.1100    4.2616  -17.3642 C   0  0  0  0  0  0  0  0  0  0  0  0
  -10.2929    3.8494  -17.8351 F   0  0  0  0  0  0  0  0  0  0  0  0
   -8.9629    4.5059  -15.9946 C   0  0  0  0  0  0  0  0  0  0  0  0
   -7.7491    4.9681  -15.4260 C   0  0  0  0  0  0  0  0  0  0  0  0
   -7.7301    5.3098  -13.9229 C   0  0  2  0  0  0  0  0  0  0  0  0
   -6.4689    5.8152  -13.5478 O   0  0  0  0  0  0  0  0  0  0  0  0
   -7.9249    4.1033  -13.1191 N   0  0  0  0  0  0  0  0  0  0  0  0
   -8.0983    4.1436  -11.7236 C   0  0  0  0  0  0  0  0  0  0  0  0
   -7.7643    5.2403  -10.9039 C   0  0  0  0  0  0  0  0  0  0  0  0
   -7.9843    5.2538   -9.5209 C   0  0  0  0  0  0  0  0  0  0  0  0
   -8.4672    4.1095   -8.9358 C   0  0  0  0  0  0  0  0  0  0  0  0
   -8.6840    2.9699   -9.6970 C   0  0  0  0  0  0  0  0  0  0  0  0
   -8.5065    2.9707  -11.0738 C   0  0  0  0  0  0  0  0  0  0  0  0
   -9.0604    1.8527   -8.7805 C   0  0  0  0  0  0  0  0  0  0  0  0
   -9.5047    2.5235   -7.5272 N   0  0  0  0  0  0  0  0  0  0  0  0
   -8.7785    3.8129   -7.5086 C   0  0  0  0  0  0  0  0  0  0  0  0
   -8.8738    6.4165  -13.6030 C   0  0  0  0  0  0  0  0  0  0  0  0
  -10.0189    6.2243  -13.7568 O   0  0  0  0  0  0  0  0  0  0  0  0
   -8.1262    7.6600  -13.0281 N   0  0  0  0  0  0  0  0  0  0  0  0
   -8.6429    8.8779  -12.4388 C   0  0  0  0  0  0  0  0  0  0  0  0
   -7.8009    9.4052  -11.2803 C   0  0  0  0  0  0  0  0  0  0  0  0
   -7.6257    8.4500  -10.3336 F   0  0  0  0  0  0  0  0  0  0  0  0
   -6.5615    9.7325  -11.7344 F   0  0  0  0  0  0  0  0  0  0  0  0
   -6.6657    5.0775  -16.3183 C   0  0  0  0  0  0  0  0  0  0  0  0
  1  2  1  0
  2  3  1  0
  2  4  1  0
  4  5  1  0
  5  6  1  1
  5  7  1  0
  7  8  2  0
  7  9  1  0
  9 10  1  0
 10 11  2  0
 11 12  1  0
 12 13  1  0
 12 14  2  0
 14 15  1  0
 15 16  1  0
 16 17  1  1
 16 18  1  0
 18 19  1  0
 19 20  2  0
 20 21  1  0
 21 22  2  0
 22 23  1  0
 23 24  2  0
 23 25  1  0
 25 26  1  0
 26 27  1  0
 16 28  1  0
 28 29  2  0
 28 30  1  0
 30 31  1  0
 31 32  1  0
 32 33  1  0
 32 34  1  0
 15 35  2  0
 35  5  1  0
 35 10  1  0
 24 19  1  0
 27 22  1  0
M  END
>  <smiles>  (1744) 
C24911-P210

>  <fragmenstein_outcome>  (1744) 
acceptable

>  <inchikey>  (1744) 
OYKOFQAKSHAGCG-UHFFFAOYSA-N

>  <fragmenstein_mode>  (1744) 
expansion

>  <HIPPO Pose ID>  (1744) 
22941

>  <Energy>  (1744) 
152.879803

>  <fragmenstein_error>  (1744) 


>  <tags>  (1744) 
{'openbind_xx01zvns2b_c1_fragmenstein', 'fragmenstein_placed'}

>  <ref_pdb>  (1744) 
175

>  <scratch_subdir>  (1744) 
/opt/xchem-fragalysis-2/maxwin/BulkDock/SCRATCH/511028/C24911-P210

>  <alias>  (1744) 
CC(C)O[C@@]1(C)C(=O)Nc2cc(F)cc([C@](O)(Nc3ccc4c(c3)CNC4)C(=O)NCC(F)F)c21

>  <HIPPO Compound ID>  (1744) 
36333

>  <fragmenstein_runtime>  (1744) 
5.743567

$$$$
CC(C)O[C@]1(CCCCO)C(=O)Nc2cc(F)cc(C(=O)Nc3ccc4c(c3)CNC4)c21
     RDKit          3D

 32 35  0  0  0  0  0  0  0  0999 V2000
   -2.9405    7.8255  -15.6556 C   0  0  0  0  0  0  0  0  0  0  0  0
   -4.4628    7.7946  -15.7647 C   0  0  0  0  0  0  0  0  0  0  0  0
   -5.0271    8.9829  -14.9867 C   0  0  0  0  0  0  0  0  0  0  0  0
   -4.9982    6.6193  -15.1666 O   0  0  0  0  0  0  0  0  0  0  0  0
   -5.0730    5.4379  -15.9415 C   0  0  2  0  0  0  0  0  0  0  0  0
   -4.1916    4.3605  -15.2542 C   0  0  0  0  0  0  0  0  0  0  0  0
   -4.5705    3.8323  -13.8692 C   0  0  0  0  0  0  0  0  0  0  0  0
   -4.4017    4.7961  -12.6926 C   0  0  0  0  0  0  0  0  0  0  0  0
   -2.9817    5.3038  -12.4792 C   0  0  0  0  0  0  0  0  0  0  0  0
   -2.0689    4.2189  -12.3699 O   0  0  0  0  0  0  0  0  0  0  0  0
   -4.5536    5.4143  -17.4583 C   0  0  0  0  0  0  0  0  0  0  0  0
   -3.4161    5.6112  -17.8607 O   0  0  0  0  0  0  0  0  0  0  0  0
   -5.6212    5.0928  -18.2730 N   0  0  0  0  0  0  0  0  0  0  0  0
   -6.7654    4.8568  -17.5378 C   0  0  0  0  0  0  0  0  0  0  0  0
   -7.9802    4.4785  -18.0791 C   0  0  0  0  0  0  0  0  0  0  0  0
   -9.0312    4.2773  -17.2028 C   0  0  0  0  0  0  0  0  0  0  0  0
  -10.2193    3.8870  -17.6848 F   0  0  0  0  0  0  0  0  0  0  0  0
   -8.8768    4.5108  -15.8357 C   0  0  0  0  0  0  0  0  0  0  0  0
   -7.6392    4.9411  -15.3187 C   0  0  0  0  0  0  0  0  0  0  0  0
   -7.6371    5.4042  -13.9114 C   0  0  0  0  0  0  0  0  0  0  0  0
   -7.3972    6.5240  -13.6884 O   0  0  0  0  0  0  0  0  0  0  0  0
   -7.9740    4.2413  -12.9507 N   0  0  0  0  0  0  0  0  0  0  0  0
   -8.1718    4.2353  -11.5724 C   0  0  0  0  0  0  0  0  0  0  0  0
   -8.0621    5.4122  -10.8129 C   0  0  0  0  0  0  0  0  0  0  0  0
   -8.2571    5.3929   -9.4274 C   0  0  0  0  0  0  0  0  0  0  0  0
   -8.5773    4.1881   -8.8316 C   0  0  0  0  0  0  0  0  0  0  0  0
   -8.6845    3.0209   -9.5827 C   0  0  0  0  0  0  0  0  0  0  0  0
   -8.4749    3.0218  -10.9504 C   0  0  0  0  0  0  0  0  0  0  0  0
   -9.0202    1.8866   -8.6717 C   0  0  0  0  0  0  0  0  0  0  0  0
   -9.4987    2.5353   -7.4197 N   0  0  0  0  0  0  0  0  0  0  0  0
   -8.8479    3.8641   -7.4008 C   0  0  0  0  0  0  0  0  0  0  0  0
   -6.5422    5.0631  -16.1694 C   0  0  0  0  0  0  0  0  0  0  0  0
  1  2  1  0
  2  3  1  0
  2  4  1  0
  4  5  1  0
  5  6  1  1
  6  7  1  0
  7  8  1  0
  8  9  1  0
  9 10  1  0
  5 11  1  0
 11 12  2  0
 11 13  1  0
 13 14  1  0
 14 15  2  0
 15 16  1  0
 16 17  1  0
 16 18  2  0
 18 19  1  0
 19 20  1  0
 20 21  2  0
 20 22  1  0
 22 23  1  0
 23 24  2  0
 24 25  1  0
 25 26  2  0
 26 27  1  0
 27 28  2  0
 27 29  1  0
 29 30  1  0
 30 31  1  0
 19 32  2  0
 32  5  1  0
 32 14  1  0
 28 23  1  0
 31 26  1  0
M  END
>  <smiles>  (1745) 
C24915-P210

>  <fragmenstein_outcome>  (1745) 
acceptable

>  <inchikey>  (1745) 
PEGDATDGFXFNKR-UHFFFAOYSA-N

>  <fragmenstein_mode>  (1745) 
expansion

>  <HIPPO Pose ID>  (1745) 
22942

>  <Energy>  (1745) 
77.763616

>  <fragmenstein_error>  (1745) 


>  <tags>  (1745) 
{'openbind_xx01zvns2b_c1_fragmenstein', 'fragmenstein_placed'}

>  <ref_pdb>  (1745) 
175

>  <scratch_subdir>  (1745) 
/opt/xchem-fragalysis-2/maxwin/BulkDock/SCRATCH/511028/C24915-P210

>  <alias>  (1745) 
CC(C)O[C@]1(CCCCO)C(=O)Nc2cc(F)cc(C(=O)Nc3ccc4c(c3)CNC4)c21

>  <HIPPO Compound ID>  (1745) 
21977

>  <fragmenstein_runtime>  (1745) 
8.764458

$$$$
CSc1cc2c(cc1NC(=O)c1cc(F)cc3c1[C@](C)(OC(C)C)C(=O)N3)CNC2
     RDKit          3D

 30 33  0  0  0  0  0  0  0  0999 V2000
   -8.9362    8.2991  -10.0395 C   0  0  0  0  0  0  0  0  0  0  0  0
   -8.1479    7.3056  -11.3375 S   0  0  0  0  0  0  0  0  0  0  0  0
   -8.2092    5.6150  -10.7086 C   0  0  0  0  0  0  0  0  0  0  0  0
   -8.2908    5.4424   -9.3104 C   0  0  0  0  0  0  0  0  0  0  0  0
   -8.5690    4.1941   -8.7873 C   0  0  0  0  0  0  0  0  0  0  0  0
   -8.7062    3.0895   -9.6093 C   0  0  0  0  0  0  0  0  0  0  0  0
   -8.5633    3.2030  -10.9792 C   0  0  0  0  0  0  0  0  0  0  0  0
   -8.3006    4.4660  -11.5526 C   0  0  0  0  0  0  0  0  0  0  0  0
   -8.2113    4.4375  -12.9610 N   0  0  0  0  0  0  0  0  0  0  0  0
   -7.4491    5.3669  -13.9409 C   0  0  0  0  0  0  0  0  0  0  0  0
   -6.8415    6.3431  -13.7395 O   0  0  0  0  0  0  0  0  0  0  0  0
   -7.6090    4.9424  -15.3649 C   0  0  0  0  0  0  0  0  0  0  0  0
   -8.8563    4.5047  -15.8392 C   0  0  0  0  0  0  0  0  0  0  0  0
   -9.0474    4.2465  -17.2030 C   0  0  0  0  0  0  0  0  0  0  0  0
  -10.2365    3.8087  -17.6307 F   0  0  0  0  0  0  0  0  0  0  0  0
   -8.0336    4.4231  -18.1293 C   0  0  0  0  0  0  0  0  0  0  0  0
   -6.8098    4.8184  -17.6415 C   0  0  0  0  0  0  0  0  0  0  0  0
   -6.5733    5.0855  -16.2880 C   0  0  0  0  0  0  0  0  0  0  0  0
   -5.1281    5.5245  -16.1267 C   0  0  2  0  0  0  0  0  0  0  0  0
   -4.3626    4.7261  -15.0739 C   0  0  0  0  0  0  0  0  0  0  0  0
   -5.1622    6.9371  -15.9166 O   0  0  0  0  0  0  0  0  0  0  0  0
   -3.9137    7.5986  -15.7327 C   0  0  0  0  0  0  0  0  0  0  0  0
   -3.8022    8.0404  -14.2785 C   0  0  0  0  0  0  0  0  0  0  0  0
   -3.9079    8.8113  -16.6567 C   0  0  0  0  0  0  0  0  0  0  0  0
   -4.5642    5.2272  -17.5620 C   0  0  0  0  0  0  0  0  0  0  0  0
   -3.3936    5.2481  -17.9165 O   0  0  0  0  0  0  0  0  0  0  0  0
   -5.6473    4.9495  -18.3828 N   0  0  0  0  0  0  0  0  0  0  0  0
   -9.0029    1.8940   -8.7647 C   0  0  0  0  0  0  0  0  0  0  0  0
   -9.4585    2.4593   -7.4654 N   0  0  0  0  0  0  0  0  0  0  0  0
   -8.8090    3.7840   -7.3732 C   0  0  0  0  0  0  0  0  0  0  0  0
  1  2  1  0
  2  3  1  0
  3  4  2  0
  4  5  1  0
  5  6  2  0
  6  7  1  0
  7  8  2  0
  8  9  1  0
  9 10  1  0
 10 11  2  0
 10 12  1  0
 12 13  2  0
 13 14  1  0
 14 15  1  0
 14 16  2  0
 16 17  1  0
 17 18  2  0
 18 19  1  0
 19 20  1  1
 19 21  1  0
 21 22  1  0
 22 23  1  0
 22 24  1  0
 19 25  1  0
 25 26  2  0
 25 27  1  0
  6 28  1  0
 28 29  1  0
 29 30  1  0
  8  3  1  0
 18 12  1  0
 30  5  1  0
 27 17  1  0
M  END
>  <smiles>  (1746) 
C24917-P210

>  <fragmenstein_outcome>  (1746) 
acceptable

>  <inchikey>  (1746) 
NJZMUARBDGDASX-UHFFFAOYSA-N

>  <fragmenstein_mode>  (1746) 
expansion

>  <HIPPO Pose ID>  (1746) 
22943

>  <Energy>  (1746) 
96.832516

>  <fragmenstein_error>  (1746) 


>  <tags>  (1746) 
{'openbind_xx01zvns2b_c1_fragmenstein', 'fragmenstein_placed'}

>  <ref_pdb>  (1746) 
175

>  <scratch_subdir>  (1746) 
/opt/xchem-fragalysis-2/maxwin/BulkDock/SCRATCH/511028/C24917-P210

>  <alias>  (1746) 
CSc1cc2c(cc1NC(=O)c1cc(F)cc3c1[C@](C)(OC(C)C)C(=O)N3)CNC2

>  <HIPPO Compound ID>  (1746) 
43057

>  <fragmenstein_runtime>  (1746) 
4.650781

$$$$
CC(C)O[C@]1(C)C(=O)N(C#N)c2cc(F)cc(C(=O)Nc3ccc4c(c3)CNC4)c21
     RDKit          3D

 30 33  0  0  0  0  0  0  0  0999 V2000
   -3.6212    7.5280  -13.5807 C   0  0  0  0  0  0  0  0  0  0  0  0
   -3.7189    7.2443  -15.0747 C   0  0  0  0  0  0  0  0  0  0  0  0
   -3.6384    8.5414  -15.8707 C   0  0  0  0  0  0  0  0  0  0  0  0
   -4.9931    6.6598  -15.3364 O   0  0  0  0  0  0  0  0  0  0  0  0
   -5.0265    5.3187  -15.7940 C   0  0  2  0  0  0  0  0  0  0  0  0
   -4.3777    4.3493  -14.8108 C   0  0  0  0  0  0  0  0  0  0  0  0
   -4.4166    5.1834  -17.2310 C   0  0  0  0  0  0  0  0  0  0  0  0
   -3.2230    5.2059  -17.5058 O   0  0  0  0  0  0  0  0  0  0  0  0
   -5.4613    5.0592  -18.2142 N   0  0  0  0  0  0  0  0  0  0  0  0
   -5.5038    6.2071  -18.9159 C   0  0  0  0  0  0  0  0  0  0  0  0
   -5.5322    7.2490  -19.4270 N   0  0  0  0  0  0  0  0  0  0  0  0
   -6.6585    4.8367  -17.4576 C   0  0  0  0  0  0  0  0  0  0  0  0
   -7.8856    4.4958  -18.0040 C   0  0  0  0  0  0  0  0  0  0  0  0
   -8.9427    4.2778  -17.1323 C   0  0  0  0  0  0  0  0  0  0  0  0
  -10.1301    3.9033  -17.6222 F   0  0  0  0  0  0  0  0  0  0  0  0
   -8.8015    4.4623  -15.7564 C   0  0  0  0  0  0  0  0  0  0  0  0
   -7.5647    4.8482  -15.2229 C   0  0  0  0  0  0  0  0  0  0  0  0
   -7.5115    5.2671  -13.8004 C   0  0  0  0  0  0  0  0  0  0  0  0
   -7.1480    6.3497  -13.5649 O   0  0  0  0  0  0  0  0  0  0  0  0
   -8.0586    4.1698  -12.8635 N   0  0  0  0  0  0  0  0  0  0  0  0
   -8.1800    4.1426  -11.4760 C   0  0  0  0  0  0  0  0  0  0  0  0
   -7.9868    5.3084  -10.7138 C   0  0  0  0  0  0  0  0  0  0  0  0
   -8.1674    5.2996   -9.3270 C   0  0  0  0  0  0  0  0  0  0  0  0
   -8.5440    4.1131   -8.7297 C   0  0  0  0  0  0  0  0  0  0  0  0
   -8.7115    2.9525   -9.4803 C   0  0  0  0  0  0  0  0  0  0  0  0
   -8.5332    2.9455  -10.8527 C   0  0  0  0  0  0  0  0  0  0  0  0
   -9.0672    1.8315   -8.5618 C   0  0  0  0  0  0  0  0  0  0  0  0
   -9.5161    2.4962   -7.3083 N   0  0  0  0  0  0  0  0  0  0  0  0
   -8.8294    3.8071   -7.2977 C   0  0  0  0  0  0  0  0  0  0  0  0
   -6.4742    4.9922  -16.0785 C   0  0  0  0  0  0  0  0  0  0  0  0
  1  2  1  0
  2  3  1  0
  2  4  1  0
  4  5  1  0
  5  6  1  1
  5  7  1  0
  7  8  2  0
  7  9  1  0
  9 10  1  0
 10 11  3  0
  9 12  1  0
 12 13  2  0
 13 14  1  0
 14 15  1  0
 14 16  2  0
 16 17  1  0
 17 18  1  0
 18 19  2  0
 18 20  1  0
 20 21  1  0
 21 22  2  0
 22 23  1  0
 23 24  2  0
 24 25  1  0
 25 26  2  0
 25 27  1  0
 27 28  1  0
 28 29  1  0
 17 30  2  0
 30  5  1  0
 30 12  1  0
 26 21  1  0
 29 24  1  0
M  END
>  <smiles>  (1747) 
C24921-P210

>  <fragmenstein_outcome>  (1747) 
acceptable

>  <inchikey>  (1747) 
GKJLUPOFEZMYFJ-UHFFFAOYSA-N

>  <fragmenstein_mode>  (1747) 
expansion

>  <HIPPO Pose ID>  (1747) 
22947

>  <Energy>  (1747) 
51.490127

>  <fragmenstein_error>  (1747) 


>  <tags>  (1747) 
{'openbind_xx01zvns2b_c1_fragmenstein', 'fragmenstein_placed'}

>  <ref_pdb>  (1747) 
175

>  <scratch_subdir>  (1747) 
/opt/xchem-fragalysis-2/maxwin/BulkDock/SCRATCH/511028/C24921-P210

>  <alias>  (1747) 
CC(C)O[C@]1(C)C(=O)N(C#N)c2cc(F)cc(C(=O)Nc3ccc4c(c3)CNC4)c21

>  <HIPPO Compound ID>  (1747) 
32646

>  <fragmenstein_runtime>  (1747) 
4.731725

$$$$
C[C@H](CO)O[C@@]12C[C@H](F)CNC(=O)[C@](O)(Nc3ccc4c(c3)CNC4)c3cc(F)cc(c31)NC2=O
     RDKit          3D

 35 39  0  0  0  0  0  0  0  0999 V2000
   -3.2838    8.4424  -15.1745 C   0  0  0  0  0  0  0  0  0  0  0  0
   -3.8462    7.4865  -16.2297 C   0  0  2  0  0  0  0  0  0  0  0  0
   -4.4672    8.2896  -17.3886 C   0  0  0  0  0  0  0  0  0  0  0  0
   -5.4442    9.2179  -16.9133 O   0  0  0  0  0  0  0  0  0  0  0  0
   -4.8544    6.6744  -15.6002 O   0  0  0  0  0  0  0  0  0  0  0  0
   -5.0373    5.3366  -16.0629 C   0  0  1  0  0  0  0  0  0  0  0  0
   -4.2962    4.2967  -15.1923 C   0  0  0  0  0  0  0  0  0  0  0  0
   -3.3273    4.8091  -14.1252 C   0  0  2  0  0  0  0  0  0  0  0  0
   -2.6827    3.6929  -13.6423 F   0  0  0  0  0  0  0  0  0  0  0  0
   -3.9485    5.5160  -12.9101 C   0  0  0  0  0  0  0  0  0  0  0  0
   -5.3486    5.2163  -12.7658 N   0  0  0  0  0  0  0  0  0  0  0  0
   -6.3197    6.0633  -13.2613 C   0  0  0  0  0  0  0  0  0  0  0  0
   -6.1972    7.2895  -13.3242 O   0  0  0  0  0  0  0  0  0  0  0  0
   -7.6270    5.3437  -13.7380 C   0  0  2  0  0  0  0  0  0  0  0  0
   -8.7224    6.2457  -13.5835 O   0  0  0  0  0  0  0  0  0  0  0  0
   -7.8783    4.1417  -12.9307 N   0  0  0  0  0  0  0  0  0  0  0  0
   -8.1753    4.1896  -11.5567 C   0  0  0  0  0  0  0  0  0  0  0  0
   -8.0574    5.3423  -10.7486 C   0  0  0  0  0  0  0  0  0  0  0  0
   -8.2758    5.3138   -9.3642 C   0  0  0  0  0  0  0  0  0  0  0  0
   -8.6135    4.1117   -8.7850 C   0  0  0  0  0  0  0  0  0  0  0  0
   -8.7130    2.9589   -9.5525 C   0  0  0  0  0  0  0  0  0  0  0  0
   -8.4824    2.9768  -10.9193 C   0  0  0  0  0  0  0  0  0  0  0  0
   -9.0516    1.8135   -8.6574 C   0  0  0  0  0  0  0  0  0  0  0  0
   -9.5542    2.4467   -7.4060 N   0  0  0  0  0  0  0  0  0  0  0  0
   -8.9040    3.7742   -7.3621 C   0  0  0  0  0  0  0  0  0  0  0  0
   -7.6171    4.9784  -15.2384 C   0  0  0  0  0  0  0  0  0  0  0  0
   -8.8790    4.5690  -15.7675 C   0  0  0  0  0  0  0  0  0  0  0  0
   -9.0992    4.3296  -17.1252 C   0  0  0  0  0  0  0  0  0  0  0  0
  -10.3183    3.9749  -17.5486 F   0  0  0  0  0  0  0  0  0  0  0  0
   -8.0811    4.4776  -18.0378 C   0  0  0  0  0  0  0  0  0  0  0  0
   -6.8394    4.8081  -17.5350 C   0  0  0  0  0  0  0  0  0  0  0  0
   -6.5569    5.0507  -16.1688 C   0  0  0  0  0  0  0  0  0  0  0  0
   -5.7047    4.8851  -18.3208 N   0  0  0  0  0  0  0  0  0  0  0  0
   -4.5778    5.0718  -17.5582 C   0  0  0  0  0  0  0  0  0  0  0  0
   -3.4294    5.0604  -17.9804 O   0  0  0  0  0  0  0  0  0  0  0  0
  2  1  1  1
  2  3  1  0
  3  4  1  0
  2  5  1  0
  6  5  1  1
  6  7  1  0
  7  8  1  0
  8  9  1  1
  8 10  1  0
 10 11  1  0
 11 12  1  0
 12 13  2  0
 12 14  1  0
 14 15  1  6
 14 16  1  0
 16 17  1  0
 17 18  2  0
 18 19  1  0
 19 20  2  0
 20 21  1  0
 21 22  2  0
 21 23  1  0
 23 24  1  0
 24 25  1  0
 14 26  1  0
 26 27  2  0
 27 28  1  0
 28 29  1  0
 28 30  2  0
 30 31  1  0
 31 32  2  0
 31 33  1  0
 33 34  1  0
 34 35  2  0
 32  6  1  0
 34  6  1  0
 22 17  1  0
 32 26  1  0
 25 20  1  0
M  END
>  <smiles>  (1748) 
C24923-P210

>  <fragmenstein_outcome>  (1748) 
acceptable

>  <inchikey>  (1748) 
QTFODYWATKEVNZ-UHFFFAOYSA-N

>  <fragmenstein_mode>  (1748) 
expansion

>  <HIPPO Pose ID>  (1748) 
22949

>  <Energy>  (1748) 
141.497897

>  <fragmenstein_error>  (1748) 


>  <tags>  (1748) 
{'openbind_xx01zvns2b_c1_fragmenstein', 'fragmenstein_placed'}

>  <ref_pdb>  (1748) 
175

>  <scratch_subdir>  (1748) 
/opt/xchem-fragalysis-2/maxwin/BulkDock/SCRATCH/511028/C24923-P210

>  <alias>  (1748) 
C[C@H](CO)O[C@@]12C[C@H](F)CNC(=O)[C@](O)(Nc3ccc4c(c3)CNC4)c3cc(F)cc(c31)NC2=O

>  <HIPPO Compound ID>  (1748) 
24923

>  <fragmenstein_runtime>  (1748) 
7.534714

$$$$
CC(C)O[C@]1(C)C(=O)C(=O)c2cc(F)cc(C(=O)Nc3ccc4c(c3)CNC4)c21
     RDKit          3D

 29 32  0  0  0  0  0  0  0  0999 V2000
   -3.7621    8.5846  -15.8857 C   0  0  0  0  0  0  0  0  0  0  0  0
   -3.9711    7.3555  -15.0089 C   0  0  0  0  0  0  0  0  0  0  0  0
   -4.0875    7.7591  -13.5443 C   0  0  0  0  0  0  0  0  0  0  0  0
   -5.2006    6.7519  -15.4103 O   0  0  0  0  0  0  0  0  0  0  0  0
   -5.1801    5.3691  -15.7307 C   0  0  2  0  0  0  0  0  0  0  0  0
   -4.6450    4.4835  -14.6064 C   0  0  0  0  0  0  0  0  0  0  0  0
   -4.4070    5.1289  -17.0403 C   0  0  0  0  0  0  0  0  0  0  0  0
   -3.2014    5.1164  -17.2153 O   0  0  0  0  0  0  0  0  0  0  0  0
   -5.4117    4.8922  -18.1470 C   0  0  0  0  0  0  0  0  0  0  0  0
   -5.1313    4.8003  -19.3188 O   0  0  0  0  0  0  0  0  0  0  0  0
   -6.7227    4.7746  -17.5092 C   0  0  0  0  0  0  0  0  0  0  0  0
   -7.9156    4.4335  -18.1205 C   0  0  0  0  0  0  0  0  0  0  0  0
   -9.0219    4.2696  -17.3008 C   0  0  0  0  0  0  0  0  0  0  0  0
  -10.1880    3.8915  -17.8375 F   0  0  0  0  0  0  0  0  0  0  0  0
   -8.9487    4.4976  -15.9237 C   0  0  0  0  0  0  0  0  0  0  0  0
   -7.7441    4.9056  -15.3380 C   0  0  0  0  0  0  0  0  0  0  0  0
   -7.7592    5.3608  -13.9275 C   0  0  0  0  0  0  0  0  0  0  0  0
   -7.4692    6.4683  -13.7070 O   0  0  0  0  0  0  0  0  0  0  0  0
   -8.2006    4.2334  -12.9717 N   0  0  0  0  0  0  0  0  0  0  0  0
   -8.2837    4.2066  -11.5807 C   0  0  0  0  0  0  0  0  0  0  0  0
   -8.1057    5.3782  -10.8236 C   0  0  0  0  0  0  0  0  0  0  0  0
   -8.2421    5.3628   -9.4316 C   0  0  0  0  0  0  0  0  0  0  0  0
   -8.5667    4.1656   -8.8246 C   0  0  0  0  0  0  0  0  0  0  0  0
   -8.7209    2.9999   -9.5702 C   0  0  0  0  0  0  0  0  0  0  0  0
   -8.5758    2.9979  -10.9467 C   0  0  0  0  0  0  0  0  0  0  0  0
   -9.0391    1.8728   -8.6441 C   0  0  0  0  0  0  0  0  0  0  0  0
   -9.4791    2.5325   -7.3847 N   0  0  0  0  0  0  0  0  0  0  0  0
   -8.8118    3.8532   -7.3865 C   0  0  0  0  0  0  0  0  0  0  0  0
   -6.6029    5.0106  -16.1307 C   0  0  0  0  0  0  0  0  0  0  0  0
  1  2  1  0
  2  3  1  0
  2  4  1  0
  4  5  1  0
  5  6  1  1
  5  7  1  0
  7  8  2  0
  7  9  1  0
  9 10  2  0
  9 11  1  0
 11 12  2  0
 12 13  1  0
 13 14  1  0
 13 15  2  0
 15 16  1  0
 16 17  1  0
 17 18  2  0
 17 19  1  0
 19 20  1  0
 20 21  2  0
 21 22  1  0
 22 23  2  0
 23 24  1  0
 24 25  2  0
 24 26  1  0
 26 27  1  0
 27 28  1  0
 16 29  2  0
 29  5  1  0
 29 11  1  0
 25 20  1  0
 28 23  1  0
M  END
>  <smiles>  (1749) 
C24878-P210

>  <fragmenstein_outcome>  (1749) 
acceptable

>  <inchikey>  (1749) 
NLXRSBYLLGBTME-UHFFFAOYSA-N

>  <fragmenstein_mode>  (1749) 
expansion

>  <HIPPO Pose ID>  (1749) 
22951

>  <Energy>  (1749) 
101.934398

>  <fragmenstein_error>  (1749) 


>  <tags>  (1749) 
{'openbind_xx01zvns2b_c1_fragmenstein', 'fragmenstein_placed'}

>  <ref_pdb>  (1749) 
175

>  <scratch_subdir>  (1749) 
/opt/xchem-fragalysis-2/maxwin/BulkDock/SCRATCH/511028/C24878-P210

>  <alias>  (1749) 
CC(C)O[C@]1(C)C(=O)C(=O)c2cc(F)cc(C(=O)Nc3ccc4c(c3)CNC4)c21

>  <HIPPO Compound ID>  (1749) 
24878

>  <fragmenstein_runtime>  (1749) 
4.087604

$$$$
CNCN1C(=O)[C@](C)(OC(C)C)c2c(C(=O)Nc3ccc4c(c3)CNC4)cc(F)cc21
     RDKit          3D

 31 34  0  0  0  0  0  0  0  0999 V2000
   -5.1101    7.1456  -20.9592 C   0  0  0  0  0  0  0  0  0  0  0  0
   -5.6983    6.6438  -19.7257 N   0  0  0  0  0  0  0  0  0  0  0  0
   -5.2792    5.2690  -19.4573 C   0  0  0  0  0  0  0  0  0  0  0  0
   -5.5157    5.0449  -18.0602 N   0  0  0  0  0  0  0  0  0  0  0  0
   -4.5138    5.1827  -17.0952 C   0  0  0  0  0  0  0  0  0  0  0  0
   -3.3066    5.2102  -17.3028 O   0  0  0  0  0  0  0  0  0  0  0  0
   -5.2278    5.3495  -15.7016 C   0  0  2  0  0  0  0  0  0  0  0  0
   -5.0262    6.8166  -15.3071 C   0  0  0  0  0  0  0  0  0  0  0  0
   -4.9233    4.4031  -14.6929 O   0  0  0  0  0  0  0  0  0  0  0  0
   -3.6433    4.4537  -14.0717 C   0  0  0  0  0  0  0  0  0  0  0  0
   -3.2820    3.0098  -13.7322 C   0  0  0  0  0  0  0  0  0  0  0  0
   -3.7031    5.2571  -12.7746 C   0  0  0  0  0  0  0  0  0  0  0  0
   -6.6642    5.0519  -16.0837 C   0  0  0  0  0  0  0  0  0  0  0  0
   -7.7889    4.9036  -15.2822 C   0  0  0  0  0  0  0  0  0  0  0  0
   -7.8037    5.3481  -13.8747 C   0  0  0  0  0  0  0  0  0  0  0  0
   -7.6263    6.4814  -13.6637 O   0  0  0  0  0  0  0  0  0  0  0  0
   -8.1485    4.1954  -12.9132 N   0  0  0  0  0  0  0  0  0  0  0  0
   -8.2515    4.1756  -11.5244 C   0  0  0  0  0  0  0  0  0  0  0  0
   -8.1178    5.3550  -10.7704 C   0  0  0  0  0  0  0  0  0  0  0  0
   -8.2754    5.3421   -9.3808 C   0  0  0  0  0  0  0  0  0  0  0  0
   -8.5884    4.1412   -8.7753 C   0  0  0  0  0  0  0  0  0  0  0  0
   -8.7092    2.9707   -9.5198 C   0  0  0  0  0  0  0  0  0  0  0  0
   -8.5281    2.9636  -10.8914 C   0  0  0  0  0  0  0  0  0  0  0  0
   -9.0405    1.8434   -8.5995 C   0  0  0  0  0  0  0  0  0  0  0  0
   -9.5092    2.5019   -7.3491 N   0  0  0  0  0  0  0  0  0  0  0  0
   -8.8522    3.8276   -7.3410 C   0  0  0  0  0  0  0  0  0  0  0  0
   -8.9858    4.4806  -15.8620 C   0  0  0  0  0  0  0  0  0  0  0  0
   -9.0586    4.2896  -17.2410 C   0  0  0  0  0  0  0  0  0  0  0  0
  -10.2157    3.8904  -17.7825 F   0  0  0  0  0  0  0  0  0  0  0  0
   -7.9633    4.5183  -18.0665 C   0  0  0  0  0  0  0  0  0  0  0  0
   -6.7675    4.8664  -17.4641 C   0  0  0  0  0  0  0  0  0  0  0  0
  1  2  1  0
  2  3  1  0
  3  4  1  0
  4  5  1  0
  5  6  2  0
  5  7  1  0
  7  8  1  1
  7  9  1  0
  9 10  1  0
 10 11  1  0
 10 12  1  0
  7 13  1  0
 13 14  2  0
 14 15  1  0
 15 16  2  0
 15 17  1  0
 17 18  1  0
 18 19  2  0
 19 20  1  0
 20 21  2  0
 21 22  1  0
 22 23  2  0
 22 24  1  0
 24 25  1  0
 25 26  1  0
 14 27  1  0
 27 28  2  0
 28 29  1  0
 28 30  1  0
 30 31  2  0
 31  4  1  0
 31 13  1  0
 23 18  1  0
 26 21  1  0
M  END
>  <smiles>  (1750) 
C24926-P210

>  <fragmenstein_outcome>  (1750) 
acceptable

>  <inchikey>  (1750) 
KYXUZIXKQMSMOL-UHFFFAOYSA-N

>  <fragmenstein_mode>  (1750) 
expansion

>  <HIPPO Pose ID>  (1750) 
22954

>  <Energy>  (1750) 
48.44351

>  <fragmenstein_error>  (1750) 


>  <tags>  (1750) 
{'openbind_xx01zvns2b_c1_fragmenstein', 'fragmenstein_placed'}

>  <ref_pdb>  (1750) 
175

>  <scratch_subdir>  (1750) 
/opt/xchem-fragalysis-2/maxwin/BulkDock/SCRATCH/511028/C24926-P210

>  <alias>  (1750) 
CNCN1C(=O)[C@](C)(OC(C)C)c2c(C(=O)Nc3ccc4c(c3)CNC4)cc(F)cc21

>  <HIPPO Compound ID>  (1750) 
20053

>  <fragmenstein_runtime>  (1750) 
4.88072

$$$$
CC(C)O[C@]12C[C@H](F)CNC(=O)[C@](O)(Nc3ccc4c(c3)CNC4)c3cc(F)cc(c31)NC2=O
     RDKit          3D

 34 38  0  0  0  0  0  0  0  0999 V2000
   -5.0384    2.1801  -12.9807 C   0  0  0  0  0  0  0  0  0  0  0  0
   -4.4128    3.4915  -13.4536 C   0  0  0  0  0  0  0  0  0  0  0  0
   -2.9070    3.4252  -13.2054 C   0  0  0  0  0  0  0  0  0  0  0  0
   -4.6670    3.6729  -14.8444 O   0  0  0  0  0  0  0  0  0  0  0  0
   -5.0059    4.9856  -15.3754 C   0  0  2  0  0  0  0  0  0  0  0  0
   -4.1784    6.1476  -14.7512 C   0  0  0  0  0  0  0  0  0  0  0  0
   -4.8004    7.5340  -14.6730 C   0  0  2  0  0  0  0  0  0  0  0  0
   -3.8530    8.4481  -15.0379 F   0  0  0  0  0  0  0  0  0  0  0  0
   -5.1814    7.8370  -13.2153 C   0  0  0  0  0  0  0  0  0  0  0  0
   -6.0823    6.8272  -12.7146 N   0  0  0  0  0  0  0  0  0  0  0  0
   -7.3478    6.8069  -13.2487 C   0  0  0  0  0  0  0  0  0  0  0  0
   -7.9059    7.8680  -13.5274 O   0  0  0  0  0  0  0  0  0  0  0  0
   -7.9679    5.3955  -13.5203 C   0  0  2  0  0  0  0  0  0  0  0  0
   -9.3687    5.5690  -13.3191 O   0  0  0  0  0  0  0  0  0  0  0  0
   -7.5153    4.3311  -12.6350 N   0  0  0  0  0  0  0  0  0  0  0  0
   -7.9219    4.2812  -11.2851 C   0  0  0  0  0  0  0  0  0  0  0  0
   -7.9037    5.4011  -10.4233 C   0  0  0  0  0  0  0  0  0  0  0  0
   -8.2505    5.3066   -9.0706 C   0  0  0  0  0  0  0  0  0  0  0  0
   -8.6225    4.0755   -8.5820 C   0  0  0  0  0  0  0  0  0  0  0  0
   -8.6371    2.9587   -9.4074 C   0  0  0  0  0  0  0  0  0  0  0  0
   -8.2648    3.0347  -10.7392 C   0  0  0  0  0  0  0  0  0  0  0  0
   -9.0600    1.7734   -8.6056 C   0  0  0  0  0  0  0  0  0  0  0  0
   -9.6613    2.3444   -7.3686 N   0  0  0  0  0  0  0  0  0  0  0  0
   -9.0213    3.6658   -7.2046 C   0  0  0  0  0  0  0  0  0  0  0  0
   -7.7268    4.9914  -14.9911 C   0  0  0  0  0  0  0  0  0  0  0  0
   -8.8941    4.5837  -15.7106 C   0  0  0  0  0  0  0  0  0  0  0  0
   -8.9246    4.3697  -17.0861 C   0  0  0  0  0  0  0  0  0  0  0  0
  -10.0705    4.0006  -17.6736 F   0  0  0  0  0  0  0  0  0  0  0  0
   -7.7917    4.5552  -17.8346 C   0  0  0  0  0  0  0  0  0  0  0  0
   -6.6279    4.8169  -17.1331 C   0  0  0  0  0  0  0  0  0  0  0  0
   -6.5202    4.9976  -15.7258 C   0  0  0  0  0  0  0  0  0  0  0  0
   -5.3995    4.8512  -17.7532 N   0  0  0  0  0  0  0  0  0  0  0  0
   -4.3772    4.8788  -16.8396 C   0  0  0  0  0  0  0  0  0  0  0  0
   -3.1943    4.8212  -17.1520 O   0  0  0  0  0  0  0  0  0  0  0  0
  1  2  1  0
  2  3  1  0
  2  4  1  0
  5  4  1  1
  5  6  1  0
  6  7  1  0
  7  8  1  1
  7  9  1  0
  9 10  1  0
 10 11  1  0
 11 12  2  0
 11 13  1  0
 13 14  1  6
 13 15  1  0
 15 16  1  0
 16 17  2  0
 17 18  1  0
 18 19  2  0
 19 20  1  0
 20 21  2  0
 20 22  1  0
 22 23  1  0
 23 24  1  0
 13 25  1  0
 25 26  2  0
 26 27  1  0
 27 28  1  0
 27 29  2  0
 29 30  1  0
 30 31  2  0
 30 32  1  0
 32 33  1  0
 33 34  2  0
 31  5  1  0
 33  5  1  0
 21 16  1  0
 31 25  1  0
 24 19  1  0
M  END
>  <smiles>  (1751) 
C24912-P210

>  <fragmenstein_outcome>  (1751) 
acceptable

>  <inchikey>  (1751) 
MKJMAHPTRRSFSE-UHFFFAOYSA-N

>  <fragmenstein_mode>  (1751) 
expansion

>  <HIPPO Pose ID>  (1751) 
22955

>  <Energy>  (1751) 
147.070732

>  <fragmenstein_error>  (1751) 


>  <tags>  (1751) 
{'openbind_xx01zvns2b_c1_fragmenstein', 'fragmenstein_placed'}

>  <ref_pdb>  (1751) 
175

>  <scratch_subdir>  (1751) 
/opt/xchem-fragalysis-2/maxwin/BulkDock/SCRATCH/511028/C24912-P210

>  <alias>  (1751) 
CC(C)O[C@]12C[C@H](F)CNC(=O)[C@](O)(Nc3ccc4c(c3)CNC4)c3cc(F)cc(c31)NC2=O

>  <HIPPO Compound ID>  (1751) 
24912

>  <fragmenstein_runtime>  (1751) 
5.845487

$$$$
CC(C)O[C@]1(C)C(=O)Nc2cc(F)cc([C@](O)(Nc3ccc4c(c3)CNC4)C(=O)NCCCF)c21
     RDKit          3D

 35 38  0  0  0  0  0  0  0  0999 V2000
   -2.5975    7.1975  -15.1279 C   0  0  0  0  0  0  0  0  0  0  0  0
   -3.9468    7.5277  -15.7547 C   0  0  0  0  0  0  0  0  0  0  0  0
   -4.3980    8.9080  -15.2804 C   0  0  0  0  0  0  0  0  0  0  0  0
   -4.9769    6.6189  -15.3683 O   0  0  0  0  0  0  0  0  0  0  0  0
   -4.9663    5.3004  -15.9078 C   0  0  2  0  0  0  0  0  0  0  0  0
   -4.1125    4.3675  -15.0545 C   0  0  0  0  0  0  0  0  0  0  0  0
   -4.5113    5.1752  -17.4145 C   0  0  0  0  0  0  0  0  0  0  0  0
   -3.3696    5.2338  -17.8509 O   0  0  0  0  0  0  0  0  0  0  0  0
   -5.6487    5.0205  -18.1821 N   0  0  0  0  0  0  0  0  0  0  0  0
   -6.7678    4.8431  -17.3868 C   0  0  0  0  0  0  0  0  0  0  0  0
   -8.0243    4.5589  -17.8698 C   0  0  0  0  0  0  0  0  0  0  0  0
   -9.0111    4.3581  -16.9284 C   0  0  0  0  0  0  0  0  0  0  0  0
  -10.2474    4.0474  -17.3361 F   0  0  0  0  0  0  0  0  0  0  0  0
   -8.7458    4.4666  -15.5555 C   0  0  0  0  0  0  0  0  0  0  0  0
   -7.4502    4.7506  -15.0420 C   0  0  0  0  0  0  0  0  0  0  0  0
   -7.1890    4.7672  -13.5144 C   0  0  2  0  0  0  0  0  0  0  0  0
   -6.3007    3.6986  -13.2722 O   0  0  0  0  0  0  0  0  0  0  0  0
   -8.4332    4.4139  -12.7916 N   0  0  0  0  0  0  0  0  0  0  0  0
   -8.4157    4.2948  -11.3836 C   0  0  0  0  0  0  0  0  0  0  0  0
   -8.2600    5.4100  -10.5390 C   0  0  0  0  0  0  0  0  0  0  0  0
   -8.3514    5.3123   -9.1467 C   0  0  0  0  0  0  0  0  0  0  0  0
   -8.6388    4.0801   -8.6057 C   0  0  0  0  0  0  0  0  0  0  0  0
   -8.7756    2.9604   -9.4172 C   0  0  0  0  0  0  0  0  0  0  0  0
   -8.6531    3.0434  -10.7936 C   0  0  0  0  0  0  0  0  0  0  0  0
   -9.0792    1.7802   -8.5572 C   0  0  0  0  0  0  0  0  0  0  0  0
   -9.5538    2.3657   -7.2728 N   0  0  0  0  0  0  0  0  0  0  0  0
   -8.8963    3.6887   -7.1902 C   0  0  0  0  0  0  0  0  0  0  0  0
   -6.6007    6.1855  -13.0171 C   0  0  0  0  0  0  0  0  0  0  0  0
   -5.5275    6.2813  -12.5530 O   0  0  0  0  0  0  0  0  0  0  0  0
   -7.7121    7.2632  -13.2264 N   0  0  0  0  0  0  0  0  0  0  0  0
   -7.6910    8.6864  -12.9956 C   0  0  0  0  0  0  0  0  0  0  0  0
   -7.4371    9.0474  -11.5382 C   0  0  0  0  0  0  0  0  0  0  0  0
   -7.1606   10.5308  -11.3903 C   0  0  0  0  0  0  0  0  0  0  0  0
   -8.1989   11.2380  -11.9094 F   0  0  0  0  0  0  0  0  0  0  0  0
   -6.4495    4.9399  -16.0142 C   0  0  0  0  0  0  0  0  0  0  0  0
  1  2  1  0
  2  3  1  0
  2  4  1  0
  4  5  1  0
  5  6  1  1
  5  7  1  0
  7  8  2  0
  7  9  1  0
  9 10  1  0
 10 11  2  0
 11 12  1  0
 12 13  1  0
 12 14  2  0
 14 15  1  0
 15 16  1  0
 16 17  1  6
 16 18  1  0
 18 19  1  0
 19 20  2  0
 20 21  1  0
 21 22  2  0
 22 23  1  0
 23 24  2  0
 23 25  1  0
 25 26  1  0
 26 27  1  0
 16 28  1  0
 28 29  2  0
 28 30  1  0
 30 31  1  0
 31 32  1  0
 32 33  1  0
 33 34  1  0
 15 35  2  0
 35  5  1  0
 35 10  1  0
 24 19  1  0
 27 22  1  0
M  END
>  <smiles>  (1752) 
C24934-P210

>  <fragmenstein_outcome>  (1752) 
acceptable

>  <inchikey>  (1752) 
DPTMADXIYZWWJY-UHFFFAOYSA-N

>  <fragmenstein_mode>  (1752) 
expansion

>  <HIPPO Pose ID>  (1752) 
22956

>  <Energy>  (1752) 
119.972043

>  <fragmenstein_error>  (1752) 


>  <tags>  (1752) 
{'openbind_xx01zvns2b_c1_fragmenstein', 'fragmenstein_placed'}

>  <ref_pdb>  (1752) 
175

>  <scratch_subdir>  (1752) 
/opt/xchem-fragalysis-2/maxwin/BulkDock/SCRATCH/511028/C24934-P210

>  <alias>  (1752) 
CC(C)O[C@]1(C)C(=O)Nc2cc(F)cc([C@](O)(Nc3ccc4c(c3)CNC4)C(=O)NCCCF)c21

>  <HIPPO Compound ID>  (1752) 
23794

>  <fragmenstein_runtime>  (1752) 
10.597289

$$$$
CNCN1C(=O)[C@@](C)(OC(C)C)c2c(C(=O)Nc3ccc4c(c3)CNC4)cc(F)cc21
     RDKit          3D

 31 34  0  0  0  0  0  0  0  0999 V2000
   -4.5838    7.5120  -19.1211 C   0  0  0  0  0  0  0  0  0  0  0  0
   -4.2957    6.1384  -19.4590 N   0  0  0  0  0  0  0  0  0  0  0  0
   -5.4097    5.2434  -19.1800 C   0  0  0  0  0  0  0  0  0  0  0  0
   -5.6319    5.1775  -17.7647 N   0  0  0  0  0  0  0  0  0  0  0  0
   -4.6134    5.1148  -16.8062 C   0  0  0  0  0  0  0  0  0  0  0  0
   -3.4143    5.0161  -17.0368 O   0  0  0  0  0  0  0  0  0  0  0  0
   -5.2934    5.2525  -15.3964 C   0  0  1  0  0  0  0  0  0  0  0  0
   -4.8449    4.0538  -14.5545 C   0  0  0  0  0  0  0  0  0  0  0  0
   -5.0331    6.3882  -14.5852 O   0  0  0  0  0  0  0  0  0  0  0  0
   -4.9166    7.6615  -15.2094 C   0  0  0  0  0  0  0  0  0  0  0  0
   -3.4476    7.9695  -15.4878 C   0  0  0  0  0  0  0  0  0  0  0  0
   -5.4553    8.7215  -14.2498 C   0  0  0  0  0  0  0  0  0  0  0  0
   -6.7575    5.1233  -15.7793 C   0  0  0  0  0  0  0  0  0  0  0  0
   -7.8866    5.0582  -14.9853 C   0  0  0  0  0  0  0  0  0  0  0  0
   -7.8960    5.4874  -13.5739 C   0  0  0  0  0  0  0  0  0  0  0  0
   -7.6114    6.5924  -13.3412 O   0  0  0  0  0  0  0  0  0  0  0  0
   -8.3339    4.3511  -12.6339 N   0  0  0  0  0  0  0  0  0  0  0  0
   -8.4201    4.3090  -11.2459 C   0  0  0  0  0  0  0  0  0  0  0  0
   -8.2000    5.4624  -10.4758 C   0  0  0  0  0  0  0  0  0  0  0  0
   -8.2546    5.4130   -9.0802 C   0  0  0  0  0  0  0  0  0  0  0  0
   -8.5323    4.1993   -8.4809 C   0  0  0  0  0  0  0  0  0  0  0  0
   -8.7572    3.0584   -9.2422 C   0  0  0  0  0  0  0  0  0  0  0  0
   -8.7102    3.0959  -10.6261 C   0  0  0  0  0  0  0  0  0  0  0  0
   -8.9720    1.8973   -8.3307 C   0  0  0  0  0  0  0  0  0  0  0  0
   -9.1640    2.4822   -6.9804 N   0  0  0  0  0  0  0  0  0  0  0  0
   -8.6064    3.8488   -7.0336 C   0  0  0  0  0  0  0  0  0  0  0  0
   -9.1013    4.7483  -15.5844 C   0  0  0  0  0  0  0  0  0  0  0  0
   -9.1964    4.5760  -16.9642 C   0  0  0  0  0  0  0  0  0  0  0  0
  -10.3857    4.2789  -17.4921 F   0  0  0  0  0  0  0  0  0  0  0  0
   -8.0954    4.7433  -17.7906 C   0  0  0  0  0  0  0  0  0  0  0  0
   -6.8843    5.0086  -17.1718 C   0  0  0  0  0  0  0  0  0  0  0  0
  1  2  1  0
  2  3  1  0
  3  4  1  0
  4  5  1  0
  5  6  2  0
  5  7  1  0
  7  8  1  1
  7  9  1  0
  9 10  1  0
 10 11  1  0
 10 12  1  0
  7 13  1  0
 13 14  2  0
 14 15  1  0
 15 16  2  0
 15 17  1  0
 17 18  1  0
 18 19  2  0
 19 20  1  0
 20 21  2  0
 21 22  1  0
 22 23  2  0
 22 24  1  0
 24 25  1  0
 25 26  1  0
 14 27  1  0
 27 28  2  0
 28 29  1  0
 28 30  1  0
 30 31  2  0
 31  4  1  0
 31 13  1  0
 23 18  1  0
 26 21  1  0
M  END
>  <smiles>  (1753) 
C24926-P182

>  <fragmenstein_outcome>  (1753) 
acceptable

>  <inchikey>  (1753) 
MOOUBWVOXNCXNE-UHFFFAOYSA-N

>  <fragmenstein_mode>  (1753) 
expansion

>  <HIPPO Pose ID>  (1753) 
22959

>  <Energy>  (1753) 
58.037974

>  <fragmenstein_error>  (1753) 


>  <tags>  (1753) 
{'openbind_xx01zvns2b_c1_fragmenstein', 'fragmenstein_placed'}

>  <ref_pdb>  (1753) 
175

>  <scratch_subdir>  (1753) 
/opt/xchem-fragalysis-2/maxwin/BulkDock/SCRATCH/511028/C24926-P182

>  <alias>  (1753) 
CNCN1C(=O)[C@@](C)(OC(C)C)c2c(C(=O)Nc3ccc4c(c3)CNC4)cc(F)cc21

>  <HIPPO Compound ID>  (1753) 
32002

>  <fragmenstein_runtime>  (1753) 
6.044415

$$$$
CC(C)O[C@@]1(C)C(=O)Nc2cc(F)cc([C@@](O)(CC(=O)O)Nc3ccc4c(c3)CNC4)c21
     RDKit          3D

 32 35  0  0  0  0  0  0  0  0999 V2000
   -2.0945    5.1694  -14.9218 C   0  0  0  0  0  0  0  0  0  0  0  0
   -3.3811    4.7309  -14.2333 C   0  0  0  0  0  0  0  0  0  0  0  0
   -3.1226    3.4847  -13.3856 C   0  0  0  0  0  0  0  0  0  0  0  0
   -4.4019    4.3677  -15.1600 O   0  0  0  0  0  0  0  0  0  0  0  0
   -5.0809    5.3745  -15.9034 C   0  0  1  0  0  0  0  0  0  0  0  0
   -4.9362    6.8357  -15.4618 C   0  0  0  0  0  0  0  0  0  0  0  0
   -4.5863    5.2965  -17.3914 C   0  0  0  0  0  0  0  0  0  0  0  0
   -3.4445    5.4538  -17.8020 O   0  0  0  0  0  0  0  0  0  0  0  0
   -5.6855    5.0334  -18.1877 N   0  0  0  0  0  0  0  0  0  0  0  0
   -6.8202    4.8128  -17.4265 C   0  0  0  0  0  0  0  0  0  0  0  0
   -8.0495    4.4653  -17.9391 C   0  0  0  0  0  0  0  0  0  0  0  0
   -9.0639    4.2568  -17.0262 C   0  0  0  0  0  0  0  0  0  0  0  0
  -10.2747    3.9005  -17.4736 F   0  0  0  0  0  0  0  0  0  0  0  0
   -8.8563    4.4355  -15.6505 C   0  0  0  0  0  0  0  0  0  0  0  0
   -7.6014    4.8202  -15.1137 C   0  0  0  0  0  0  0  0  0  0  0  0
   -7.4925    5.1512  -13.6128 C   0  0  1  0  0  0  0  0  0  0  0  0
   -6.1747    4.8867  -13.1846 O   0  0  0  0  0  0  0  0  0  0  0  0
   -7.7227    6.6545  -13.4378 C   0  0  0  0  0  0  0  0  0  0  0  0
   -9.1409    7.0577  -13.1935 C   0  0  0  0  0  0  0  0  0  0  0  0
  -10.1493    6.6132  -13.7132 O   0  0  0  0  0  0  0  0  0  0  0  0
   -9.2218    8.1084  -12.3461 O   0  0  0  0  0  0  0  0  0  0  0  0
   -8.3333    4.2873  -12.7957 N   0  0  0  0  0  0  0  0  0  0  0  0
   -8.3524    4.2266  -11.3997 C   0  0  0  0  0  0  0  0  0  0  0  0
   -8.0842    5.3190  -10.5510 C   0  0  0  0  0  0  0  0  0  0  0  0
   -8.1948    5.2430   -9.1567 C   0  0  0  0  0  0  0  0  0  0  0  0
   -8.5606    4.0417   -8.5991 C   0  0  0  0  0  0  0  0  0  0  0  0
   -8.7966    2.9398   -9.4020 C   0  0  0  0  0  0  0  0  0  0  0  0
   -8.7144    3.0172  -10.7868 C   0  0  0  0  0  0  0  0  0  0  0  0
   -9.0839    1.7613   -8.5399 C   0  0  0  0  0  0  0  0  0  0  0  0
   -9.2516    2.2877   -7.1572 N   0  0  0  0  0  0  0  0  0  0  0  0
   -8.7659    3.6822   -7.1707 C   0  0  0  0  0  0  0  0  0  0  0  0
   -6.5606    4.9854  -16.0519 C   0  0  0  0  0  0  0  0  0  0  0  0
  1  2  1  0
  2  3  1  0
  2  4  1  0
  4  5  1  0
  5  6  1  1
  5  7  1  0
  7  8  2  0
  7  9  1  0
  9 10  1  0
 10 11  2  0
 11 12  1  0
 12 13  1  0
 12 14  2  0
 14 15  1  0
 15 16  1  0
 16 17  1  1
 16 18  1  0
 18 19  1  0
 19 20  2  0
 19 21  1  0
 16 22  1  0
 22 23  1  0
 23 24  2  0
 24 25  1  0
 25 26  2  0
 26 27  1  0
 27 28  2  0
 27 29  1  0
 29 30  1  0
 30 31  1  0
 15 32  2  0
 32  5  1  0
 32 10  1  0
 28 23  1  0
 31 26  1  0
M  END
>  <smiles>  (1754) 
C24938-P210

>  <fragmenstein_outcome>  (1754) 
acceptable

>  <inchikey>  (1754) 
NPUMTALMOZCRJE-UHFFFAOYSA-N

>  <fragmenstein_mode>  (1754) 
expansion

>  <HIPPO Pose ID>  (1754) 
22960

>  <Energy>  (1754) 
14.501801

>  <fragmenstein_error>  (1754) 


>  <tags>  (1754) 
{'openbind_xx01zvns2b_c1_fragmenstein', 'fragmenstein_placed'}

>  <ref_pdb>  (1754) 
175

>  <scratch_subdir>  (1754) 
/opt/xchem-fragalysis-2/maxwin/BulkDock/SCRATCH/511028/C24938-P210

>  <alias>  (1754) 
CC(C)O[C@@]1(C)C(=O)Nc2cc(F)cc([C@@](O)(CC(=O)O)Nc3ccc4c(c3)CNC4)c21

>  <HIPPO Compound ID>  (1754) 
24938

>  <fragmenstein_runtime>  (1754) 
3.076022

$$$$
CC(C)O[C@]12C[C@H](C)NC(=O)[C@](O)(Nc3ccc4c(c3)CNC4)c3cc(F)cc(c31)N(F)C2=O
     RDKit          3D

 34 38  0  0  0  0  0  0  0  0999 V2000
   -5.3506    9.0206  -13.9707 C   0  0  0  0  0  0  0  0  0  0  0  0
   -5.7453    7.5740  -14.2703 C   0  0  1  0  0  0  0  0  0  0  0  0
   -4.9212    7.0255  -15.4433 C   0  0  0  0  0  0  0  0  0  0  0  0
   -5.0859    5.5333  -15.8352 C   0  0  2  0  0  0  0  0  0  0  0  0
   -4.4977    4.5428  -15.0082 O   0  0  0  0  0  0  0  0  0  0  0  0
   -3.2657    4.7446  -14.3168 C   0  0  0  0  0  0  0  0  0  0  0  0
   -2.9912    3.4335  -13.5755 C   0  0  0  0  0  0  0  0  0  0  0  0
   -2.0768    5.0861  -15.2007 C   0  0  0  0  0  0  0  0  0  0  0  0
   -4.5525    5.4077  -17.3188 C   0  0  0  0  0  0  0  0  0  0  0  0
   -3.4146    5.6252  -17.7142 O   0  0  0  0  0  0  0  0  0  0  0  0
   -5.6305    5.0560  -18.1033 N   0  0  0  0  0  0  0  0  0  0  0  0
   -5.5357    4.8573  -19.4557 F   0  0  0  0  0  0  0  0  0  0  0  0
   -6.7860    4.8667  -17.3729 C   0  0  0  0  0  0  0  0  0  0  0  0
   -7.9968    4.4764  -17.9027 C   0  0  0  0  0  0  0  0  0  0  0  0
   -9.0188    4.2639  -17.0050 C   0  0  0  0  0  0  0  0  0  0  0  0
  -10.2117    3.8584  -17.4550 F   0  0  0  0  0  0  0  0  0  0  0  0
   -8.8294    4.4733  -15.6340 C   0  0  0  0  0  0  0  0  0  0  0  0
   -7.5942    4.9182  -15.0771 C   0  0  0  0  0  0  0  0  0  0  0  0
   -6.5547    5.1115  -16.0010 C   0  0  0  0  0  0  0  0  0  0  0  0
   -7.5914    5.2497  -13.5730 C   0  0  1  0  0  0  0  0  0  0  0  0
   -8.4602    6.3758  -13.5019 O   0  0  0  0  0  0  0  0  0  0  0  0
   -8.2941    4.2029  -12.8216 N   0  0  0  0  0  0  0  0  0  0  0  0
   -8.3527    4.1912  -11.4117 C   0  0  0  0  0  0  0  0  0  0  0  0
   -8.2387    5.3464  -10.6008 C   0  0  0  0  0  0  0  0  0  0  0  0
   -8.3810    5.2974   -9.2086 C   0  0  0  0  0  0  0  0  0  0  0  0
   -8.6854    4.0848   -8.6322 C   0  0  0  0  0  0  0  0  0  0  0  0
   -8.8206    2.9416   -9.4097 C   0  0  0  0  0  0  0  0  0  0  0  0
   -8.6660    2.9769  -10.7846 C   0  0  0  0  0  0  0  0  0  0  0  0
   -9.1215    1.7856   -8.5171 C   0  0  0  0  0  0  0  0  0  0  0  0
   -9.5921    2.4057   -7.2476 N   0  0  0  0  0  0  0  0  0  0  0  0
   -8.9336    3.7300   -7.2052 C   0  0  0  0  0  0  0  0  0  0  0  0
   -6.1770    5.5389  -12.9087 C   0  0  0  0  0  0  0  0  0  0  0  0
   -5.5650    4.7493  -12.1844 O   0  0  0  0  0  0  0  0  0  0  0  0
   -5.5953    6.7769  -13.0791 N   0  0  0  0  0  0  0  0  0  0  0  0
  2  1  1  1
  2  3  1  0
  3  4  1  0
  4  5  1  1
  5  6  1  0
  6  7  1  0
  6  8  1  0
  4  9  1  0
  9 10  2  0
  9 11  1  0
 11 12  1  0
 11 13  1  0
 13 14  1  0
 14 15  2  0
 15 16  1  0
 15 17  1  0
 17 18  2  0
 18 19  1  0
 18 20  1  0
 20 21  1  6
 20 22  1  0
 22 23  1  0
 23 24  2  0
 24 25  1  0
 25 26  2  0
 26 27  1  0
 27 28  2  0
 27 29  1  0
 29 30  1  0
 30 31  1  0
 20 32  1  0
 32 33  2  0
 32 34  1  0
 34  2  1  0
 19  4  1  0
 28 23  1  0
 19 13  2  0
 31 26  1  0
M  END
>  <smiles>  (1755) 
C24949-P210

>  <fragmenstein_outcome>  (1755) 
acceptable

>  <inchikey>  (1755) 
NHNDYICOBQQJFT-UHFFFAOYSA-N

>  <fragmenstein_mode>  (1755) 
expansion

>  <HIPPO Pose ID>  (1755) 
22965

>  <Energy>  (1755) 
140.705368

>  <fragmenstein_error>  (1755) 


>  <tags>  (1755) 
{'openbind_xx01zvns2b_c1_fragmenstein', 'fragmenstein_placed'}

>  <ref_pdb>  (1755) 
175

>  <scratch_subdir>  (1755) 
/opt/xchem-fragalysis-2/maxwin/BulkDock/SCRATCH/511028/C24949-P210

>  <alias>  (1755) 
CC(C)O[C@]12C[C@H](C)NC(=O)[C@](O)(Nc3ccc4c(c3)CNC4)c3cc(F)cc(c31)N(F)C2=O

>  <HIPPO Compound ID>  (1755) 
25998

>  <fragmenstein_runtime>  (1755) 
5.105351

$$$$
CC(C)O[C@]1(C)c2c(C(=O)Nc3ccc4c(c3)CNC4)cc(F)c3ncn(c23)[C@]1(O)CN(C)C
     RDKit          3D

 34 38  0  0  0  0  0  0  0  0999 V2000
   -4.9143    3.6860  -12.9053 C   0  0  0  0  0  0  0  0  0  0  0  0
   -3.8486    3.8144  -13.9765 C   0  0  0  0  0  0  0  0  0  0  0  0
   -2.6526    4.6499  -13.5343 C   0  0  0  0  0  0  0  0  0  0  0  0
   -4.3390    4.1402  -15.2695 O   0  0  0  0  0  0  0  0  0  0  0  0
   -5.0267    5.3446  -15.6413 C   0  0  2  0  0  0  0  0  0  0  0  0
   -4.7320    6.6010  -14.8300 C   0  0  0  0  0  0  0  0  0  0  0  0
   -6.4914    5.0126  -15.8032 C   0  0  0  0  0  0  0  0  0  0  0  0
   -7.6656    4.9012  -15.0694 C   0  0  0  0  0  0  0  0  0  0  0  0
   -7.7337    5.3778  -13.6782 C   0  0  0  0  0  0  0  0  0  0  0  0
   -7.4708    6.4933  -13.4605 O   0  0  0  0  0  0  0  0  0  0  0  0
   -8.1922    4.2552  -12.7270 N   0  0  0  0  0  0  0  0  0  0  0  0
   -8.3277    4.2429  -11.3455 C   0  0  0  0  0  0  0  0  0  0  0  0
   -8.1106    5.3979  -10.5781 C   0  0  0  0  0  0  0  0  0  0  0  0
   -8.2356    5.3621   -9.1864 C   0  0  0  0  0  0  0  0  0  0  0  0
   -8.5729    4.1603   -8.5917 C   0  0  0  0  0  0  0  0  0  0  0  0
   -8.7804    3.0181   -9.3537 C   0  0  0  0  0  0  0  0  0  0  0  0
   -8.6646    3.0380  -10.7316 C   0  0  0  0  0  0  0  0  0  0  0  0
   -9.0787    1.8674   -8.4583 C   0  0  0  0  0  0  0  0  0  0  0  0
   -9.2581    2.4418   -7.0979 N   0  0  0  0  0  0  0  0  0  0  0  0
   -8.7614    3.8331   -7.1510 C   0  0  0  0  0  0  0  0  0  0  0  0
   -8.8751    4.4695  -15.6796 C   0  0  0  0  0  0  0  0  0  0  0  0
   -8.9536    4.1961  -17.0612 C   0  0  0  0  0  0  0  0  0  0  0  0
  -10.1080    3.7947  -17.6034 F   0  0  0  0  0  0  0  0  0  0  0  0
   -7.8058    4.4006  -17.8251 C   0  0  0  0  0  0  0  0  0  0  0  0
   -7.4373    4.3176  -19.1482 N   0  0  0  0  0  0  0  0  0  0  0  0
   -6.1889    4.7788  -19.2268 C   0  0  0  0  0  0  0  0  0  0  0  0
   -5.7004    4.9949  -17.9991 N   0  0  0  0  0  0  0  0  0  0  0  0
   -6.7059    4.7737  -17.1279 C   0  0  0  0  0  0  0  0  0  0  0  0
   -4.5864    5.6193  -17.2768 C   0  0  1  0  0  0  0  0  0  0  0  0
   -4.6305    7.0276  -17.5784 O   0  0  0  0  0  0  0  0  0  0  0  0
   -3.1995    4.9809  -17.6166 C   0  0  0  0  0  0  0  0  0  0  0  0
   -2.3097    5.5301  -18.6727 N   0  0  0  0  0  0  0  0  0  0  0  0
   -2.9502    5.7286  -19.9628 C   0  0  0  0  0  0  0  0  0  0  0  0
   -1.6292    6.7509  -18.2424 C   0  0  0  0  0  0  0  0  0  0  0  0
  1  2  1  0
  2  3  1  0
  2  4  1  0
  4  5  1  0
  5  6  1  1
  5  7  1  0
  7  8  2  0
  8  9  1  0
  9 10  2  0
  9 11  1  0
 11 12  1  0
 12 13  2  0
 13 14  1  0
 14 15  2  0
 15 16  1  0
 16 17  2  0
 16 18  1  0
 18 19  1  0
 19 20  1  0
  8 21  1  0
 21 22  2  0
 22 23  1  0
 22 24  1  0
 24 25  1  0
 25 26  2  0
 26 27  1  0
 27 28  1  0
 27 29  1  0
 29 30  1  1
 29 31  1  0
 31 32  1  0
 32 33  1  0
 32 34  1  0
 29  5  1  0
 28  7  1  0
 17 12  1  0
 28 24  2  0
 20 15  1  0
M  END
>  <smiles>  (1756) 
C24951-P210

>  <fragmenstein_outcome>  (1756) 
acceptable

>  <inchikey>  (1756) 
SPIBFKGYMOMNBF-UHFFFAOYSA-N

>  <fragmenstein_mode>  (1756) 
expansion

>  <HIPPO Pose ID>  (1756) 
22966

>  <Energy>  (1756) 
202.216904

>  <fragmenstein_error>  (1756) 


>  <tags>  (1756) 
{'openbind_xx01zvns2b_c1_fragmenstein', 'fragmenstein_placed'}

>  <ref_pdb>  (1756) 
175

>  <scratch_subdir>  (1756) 
/opt/xchem-fragalysis-2/maxwin/BulkDock/SCRATCH/511028/C24951-P210

>  <alias>  (1756) 
CC(C)O[C@]1(C)c2c(C(=O)Nc3ccc4c(c3)CNC4)cc(F)c3ncn(c23)[C@]1(O)CN(C)C

>  <HIPPO Compound ID>  (1756) 
24951

>  <fragmenstein_runtime>  (1756) 
9.073975

$$$$
CC(C)O[C@@]1(C)C(=NC2CNC2)Nc2cc(F)cc(C(=O)Nc3ccc4c(c3)CNC4)c21
     RDKit          3D

 32 36  0  0  0  0  0  0  0  0999 V2000
   -3.3534    3.2028  -13.7497 C   0  0  0  0  0  0  0  0  0  0  0  0
   -3.4285    4.2348  -14.8788 C   0  0  0  0  0  0  0  0  0  0  0  0
   -2.4996    5.3916  -14.5255 C   0  0  0  0  0  0  0  0  0  0  0  0
   -4.8026    4.5828  -14.9712 O   0  0  0  0  0  0  0  0  0  0  0  0
   -5.2323    5.4909  -15.9569 C   0  0  1  0  0  0  0  0  0  0  0  0
   -5.0973    6.9360  -15.4524 C   0  0  0  0  0  0  0  0  0  0  0  0
   -4.7036    5.4982  -17.4899 C   0  0  0  0  0  0  0  0  0  0  0  0
   -3.4619    5.7559  -17.7512 N   0  0  0  0  0  0  0  0  0  0  0  0
   -3.1321    6.2428  -19.0967 C   0  0  0  0  0  0  0  0  0  0  0  0
   -1.6217    6.0704  -19.3965 C   0  0  0  0  0  0  0  0  0  0  0  0
   -1.9322    4.7898  -20.0939 N   0  0  0  0  0  0  0  0  0  0  0  0
   -3.3107    5.2899  -20.2796 C   0  0  0  0  0  0  0  0  0  0  0  0
   -5.7774    5.2948  -18.3275 N   0  0  0  0  0  0  0  0  0  0  0  0
   -6.9053    4.9472  -17.5923 C   0  0  0  0  0  0  0  0  0  0  0  0
   -8.1174    4.5231  -18.1013 C   0  0  0  0  0  0  0  0  0  0  0  0
   -9.1387    4.2497  -17.2045 C   0  0  0  0  0  0  0  0  0  0  0  0
  -10.3250    3.8410  -17.6695 F   0  0  0  0  0  0  0  0  0  0  0  0
   -8.9714    4.4387  -15.8340 C   0  0  0  0  0  0  0  0  0  0  0  0
   -7.7501    4.9024  -15.3302 C   0  0  0  0  0  0  0  0  0  0  0  0
   -7.7218    5.3501  -13.9202 C   0  0  0  0  0  0  0  0  0  0  0  0
   -7.4921    6.4745  -13.7081 O   0  0  0  0  0  0  0  0  0  0  0  0
   -8.1158    4.2107  -12.9572 N   0  0  0  0  0  0  0  0  0  0  0  0
   -8.2142    4.1936  -11.5681 C   0  0  0  0  0  0  0  0  0  0  0  0
   -8.0829    5.3749  -10.8176 C   0  0  0  0  0  0  0  0  0  0  0  0
   -8.2507    5.3667   -9.4291 C   0  0  0  0  0  0  0  0  0  0  0  0
   -8.5661    4.1675   -8.8208 C   0  0  0  0  0  0  0  0  0  0  0  0
   -8.6861    2.9948   -9.5615 C   0  0  0  0  0  0  0  0  0  0  0  0
   -8.5020    2.9846  -10.9328 C   0  0  0  0  0  0  0  0  0  0  0  0
   -9.0186    1.8699   -8.6385 C   0  0  0  0  0  0  0  0  0  0  0  0
   -9.4845    2.5318   -7.3882 N   0  0  0  0  0  0  0  0  0  0  0  0
   -8.8282    3.8579   -7.3856 C   0  0  0  0  0  0  0  0  0  0  0  0
   -6.6963    5.1161  -16.2113 C   0  0  0  0  0  0  0  0  0  0  0  0
  1  2  1  0
  2  3  1  0
  2  4  1  0
  4  5  1  0
  5  6  1  1
  5  7  1  0
  7  8  2  3
  8  9  1  0
  9 10  1  0
 10 11  1  0
 11 12  1  0
  7 13  1  0
 13 14  1  0
 14 15  2  0
 15 16  1  0
 16 17  1  0
 16 18  2  0
 18 19  1  0
 19 20  1  0
 20 21  2  0
 20 22  1  0
 22 23  1  0
 23 24  2  0
 24 25  1  0
 25 26  2  0
 26 27  1  0
 27 28  2  0
 27 29  1  0
 29 30  1  0
 30 31  1  0
 19 32  2  0
 32  5  1  0
 12  9  1  0
 32 14  1  0
 28 23  1  0
 31 26  1  0
M  END
>  <smiles>  (1757) 
C24952-P210

>  <fragmenstein_outcome>  (1757) 
acceptable

>  <inchikey>  (1757) 
PGRSBCLWXACIBK-UHFFFAOYSA-N

>  <fragmenstein_mode>  (1757) 
expansion

>  <HIPPO Pose ID>  (1757) 
22967

>  <Energy>  (1757) 
124.359955

>  <fragmenstein_error>  (1757) 


>  <tags>  (1757) 
{'openbind_xx01zvns2b_c1_fragmenstein', 'fragmenstein_placed'}

>  <ref_pdb>  (1757) 
175

>  <scratch_subdir>  (1757) 
/opt/xchem-fragalysis-2/maxwin/BulkDock/SCRATCH/511028/C24952-P210

>  <alias>  (1757) 
CC(C)O[C@@]1(C)C(=NC2CNC2)Nc2cc(F)cc(C(=O)Nc3ccc4c(c3)CNC4)c21

>  <HIPPO Compound ID>  (1757) 
28233

>  <fragmenstein_runtime>  (1757) 
5.838477

$$$$
CC(C)O[C@@]1(C)C(=O)n2c(=O)[nH]c3c(F)cc(C(=O)Nc4ccc5c(c4)CNC5)c1c32
     RDKit          3D

 31 35  0  0  0  0  0  0  0  0999 V2000
   -3.9109    6.3780  -12.5437 C   0  0  0  0  0  0  0  0  0  0  0  0
   -3.4787    5.5800  -13.7713 C   0  0  0  0  0  0  0  0  0  0  0  0
   -2.6475    4.3876  -13.3164 C   0  0  0  0  0  0  0  0  0  0  0  0
   -4.6248    5.0622  -14.4430 O   0  0  0  0  0  0  0  0  0  0  0  0
   -5.1247    5.7667  -15.5598 C   0  0  1  0  0  0  0  0  0  0  0  0
   -5.1625    7.2963  -15.4254 C   0  0  0  0  0  0  0  0  0  0  0  0
   -4.4145    5.4847  -16.9993 C   0  0  0  0  0  0  0  0  0  0  0  0
   -3.2275    5.5948  -17.2638 O   0  0  0  0  0  0  0  0  0  0  0  0
   -5.4704    5.0948  -17.8667 N   0  0  0  0  0  0  0  0  0  0  0  0
   -5.8297    4.7755  -19.2275 C   0  0  0  0  0  0  0  0  0  0  0  0
   -5.1599    4.9044  -20.2355 O   0  0  0  0  0  0  0  0  0  0  0  0
   -7.1945    4.3141  -19.1507 N   0  0  0  0  0  0  0  0  0  0  0  0
   -7.6403    4.3891  -17.8324 C   0  0  0  0  0  0  0  0  0  0  0  0
   -8.7856    4.1231  -17.1356 C   0  0  0  0  0  0  0  0  0  0  0  0
   -9.8640    3.6065  -17.7300 F   0  0  0  0  0  0  0  0  0  0  0  0
   -8.8024    4.4043  -15.7484 C   0  0  0  0  0  0  0  0  0  0  0  0
   -7.6672    4.9707  -15.0886 C   0  0  0  0  0  0  0  0  0  0  0  0
   -7.7695    5.4039  -13.6848 C   0  0  0  0  0  0  0  0  0  0  0  0
   -7.6976    6.5452  -13.4552 O   0  0  0  0  0  0  0  0  0  0  0  0
   -8.0419    4.2118  -12.7482 N   0  0  0  0  0  0  0  0  0  0  0  0
   -8.1843    4.1632  -11.3657 C   0  0  0  0  0  0  0  0  0  0  0  0
   -8.0596    5.3213  -10.5799 C   0  0  0  0  0  0  0  0  0  0  0  0
   -8.2407    5.2692   -9.1946 C   0  0  0  0  0  0  0  0  0  0  0  0
   -8.5657    4.0521   -8.6273 C   0  0  0  0  0  0  0  0  0  0  0  0
   -8.6782    2.9020   -9.4043 C   0  0  0  0  0  0  0  0  0  0  0  0
   -8.4760    2.9333  -10.7722 C   0  0  0  0  0  0  0  0  0  0  0  0
   -9.0321    1.7522   -8.5202 C   0  0  0  0  0  0  0  0  0  0  0  0
   -9.5235    2.3805   -7.2641 N   0  0  0  0  0  0  0  0  0  0  0  0
   -8.8547    3.7001   -7.2063 C   0  0  0  0  0  0  0  0  0  0  0  0
   -6.5153    5.2165  -15.8040 C   0  0  0  0  0  0  0  0  0  0  0  0
   -6.5936    4.8881  -17.1191 C   0  0  0  0  0  0  0  0  0  0  0  0
  1  2  1  0
  2  3  1  0
  2  4  1  0
  4  5  1  0
  5  6  1  1
  5  7  1  0
  7  8  2  0
  7  9  1  0
  9 10  1  0
 10 11  2  0
 10 12  1  0
 12 13  1  0
 13 14  2  0
 14 15  1  0
 14 16  1  0
 16 17  2  0
 17 18  1  0
 18 19  2  0
 18 20  1  0
 20 21  1  0
 21 22  2  0
 22 23  1  0
 23 24  2  0
 24 25  1  0
 25 26  2  0
 25 27  1  0
 27 28  1  0
 28 29  1  0
 17 30  1  0
 30 31  2  0
 30  5  1  0
 31  9  1  0
 31 13  1  0
 26 21  1  0
 29 24  1  0
M  END
>  <smiles>  (1758) 
C24927-P206

>  <fragmenstein_outcome>  (1758) 
acceptable

>  <inchikey>  (1758) 
XDANZATWJOALAC-UHFFFAOYSA-N

>  <fragmenstein_mode>  (1758) 
expansion

>  <HIPPO Pose ID>  (1758) 
22968

>  <Energy>  (1758) 
73.86396

>  <fragmenstein_error>  (1758) 


>  <tags>  (1758) 
{'openbind_xx01zvns2b_c1_fragmenstein', 'fragmenstein_placed'}

>  <ref_pdb>  (1758) 
175

>  <scratch_subdir>  (1758) 
/opt/xchem-fragalysis-2/maxwin/BulkDock/SCRATCH/511028/C24927-P206

>  <alias>  (1758) 
CC(C)O[C@@]1(C)C(=O)n2c(=O)[nH]c3c(F)cc(C(=O)Nc4ccc5c(c4)CNC5)c1c32

>  <HIPPO Compound ID>  (1758) 
24927

>  <fragmenstein_runtime>  (1758) 
4.872941

$$$$
CNCN1C(=O)[C@@](C)(OC(C)C)c2c(C(=O)Nc3cc(F)c4c(c3)CNC4=O)cc(F)cc21
     RDKit          3D

 33 36  0  0  0  0  0  0  0  0999 V2000
   -4.9098    7.0959  -20.9846 C   0  0  0  0  0  0  0  0  0  0  0  0
   -5.2069    6.7584  -19.6018 N   0  0  0  0  0  0  0  0  0  0  0  0
   -5.2525    5.3083  -19.4219 C   0  0  0  0  0  0  0  0  0  0  0  0
   -5.4784    5.0813  -18.0228 N   0  0  0  0  0  0  0  0  0  0  0  0
   -4.4728    5.2046  -17.0655 C   0  0  0  0  0  0  0  0  0  0  0  0
   -3.2709    5.2829  -17.2938 O   0  0  0  0  0  0  0  0  0  0  0  0
   -5.1693    5.3041  -15.6668 C   0  0  1  0  0  0  0  0  0  0  0  0
   -4.5876    4.3136  -14.6624 C   0  0  0  0  0  0  0  0  0  0  0  0
   -5.1385    6.6453  -15.1953 O   0  0  0  0  0  0  0  0  0  0  0  0
   -3.8721    7.1630  -14.7956 C   0  0  0  0  0  0  0  0  0  0  0  0
   -3.6660    8.4757  -15.5438 C   0  0  0  0  0  0  0  0  0  0  0  0
   -3.9031    7.4096  -13.2920 C   0  0  0  0  0  0  0  0  0  0  0  0
   -6.6072    4.9908  -16.0310 C   0  0  0  0  0  0  0  0  0  0  0  0
   -7.7353    4.8495  -15.2279 C   0  0  0  0  0  0  0  0  0  0  0  0
   -7.7409    5.2913  -13.8126 C   0  0  0  0  0  0  0  0  0  0  0  0
   -7.4353    6.3939  -13.5889 O   0  0  0  0  0  0  0  0  0  0  0  0
   -8.2131    4.1720  -12.8616 N   0  0  0  0  0  0  0  0  0  0  0  0
   -8.3141    4.1478  -11.4715 C   0  0  0  0  0  0  0  0  0  0  0  0
   -8.1323    5.3282  -10.7265 C   0  0  0  0  0  0  0  0  0  0  0  0
   -8.2585    5.3157   -9.3392 C   0  0  0  0  0  0  0  0  0  0  0  0
   -8.0899    6.4483   -8.6457 F   0  0  0  0  0  0  0  0  0  0  0  0
   -8.5626    4.1271   -8.7219 C   0  0  0  0  0  0  0  0  0  0  0  0
   -8.7318    2.9480   -9.4448 C   0  0  0  0  0  0  0  0  0  0  0  0
   -8.6110    2.9421  -10.8267 C   0  0  0  0  0  0  0  0  0  0  0  0
   -9.0031    1.8226   -8.5060 C   0  0  0  0  0  0  0  0  0  0  0  0
   -9.1213    2.4959   -7.2300 N   0  0  0  0  0  0  0  0  0  0  0  0
   -8.7583    3.8250   -7.3031 C   0  0  0  0  0  0  0  0  0  0  0  0
   -8.6114    4.5966   -6.3749 O   0  0  0  0  0  0  0  0  0  0  0  0
   -8.9429    4.4663  -15.8194 C   0  0  0  0  0  0  0  0  0  0  0  0
   -9.0235    4.3118  -17.2050 C   0  0  0  0  0  0  0  0  0  0  0  0
  -10.1895    3.9516  -17.7587 F   0  0  0  0  0  0  0  0  0  0  0  0
   -7.9278    4.5515  -18.0262 C   0  0  0  0  0  0  0  0  0  0  0  0
   -6.7246    4.8700  -17.4213 C   0  0  0  0  0  0  0  0  0  0  0  0
  1  2  1  0
  2  3  1  0
  3  4  1  0
  4  5  1  0
  5  6  2  0
  5  7  1  0
  7  8  1  1
  7  9  1  0
  9 10  1  0
 10 11  1  0
 10 12  1  0
  7 13  1  0
 13 14  2  0
 14 15  1  0
 15 16  2  0
 15 17  1  0
 17 18  1  0
 18 19  2  0
 19 20  1  0
 20 21  1  0
 20 22  2  0
 22 23  1  0
 23 24  2  0
 23 25  1  0
 25 26  1  0
 26 27  1  0
 27 28  2  0
 14 29  1  0
 29 30  2  0
 30 31  1  0
 30 32  1  0
 32 33  2  0
 33  4  1  0
 33 13  1  0
 24 18  1  0
 27 22  1  0
M  END
>  <smiles>  (1759) 
C24953-P210

>  <fragmenstein_outcome>  (1759) 
acceptable

>  <inchikey>  (1759) 
HGKCTJUHEAQEIE-UHFFFAOYSA-N

>  <fragmenstein_mode>  (1759) 
expansion

>  <HIPPO Pose ID>  (1759) 
22969

>  <Energy>  (1759) 
28.735528

>  <fragmenstein_error>  (1759) 


>  <tags>  (1759) 
{'openbind_xx01zvns2b_c1_fragmenstein', 'fragmenstein_placed'}

>  <ref_pdb>  (1759) 
175

>  <scratch_subdir>  (1759) 
/opt/xchem-fragalysis-2/maxwin/BulkDock/SCRATCH/511028/C24953-P210

>  <alias>  (1759) 
CNCN1C(=O)[C@@](C)(OC(C)C)c2c(C(=O)Nc3cc(F)c4c(c3)CNC4=O)cc(F)cc21

>  <HIPPO Compound ID>  (1759) 
24953

>  <fragmenstein_runtime>  (1759) 
4.795633

$$$$
CNCN1C(=O)[C@](C)(OC(C)C)c2c(C(=O)N[C@H]3CC4=C(CNC4)C[C@]34CCCC4=O)cc(F)cc21
     RDKit          3D

 36 40  0  0  0  0  0  0  0  0999 V2000
   -4.9385    7.2395  -21.0169 C   0  0  0  0  0  0  0  0  0  0  0  0
   -5.1921    6.9422  -19.6130 N   0  0  0  0  0  0  0  0  0  0  0  0
   -5.2656    5.4953  -19.4133 C   0  0  0  0  0  0  0  0  0  0  0  0
   -5.4596    5.2926  -18.0072 N   0  0  0  0  0  0  0  0  0  0  0  0
   -4.4101    5.3321  -17.0855 C   0  0  0  0  0  0  0  0  0  0  0  0
   -3.2223    5.4339  -17.3631 O   0  0  0  0  0  0  0  0  0  0  0  0
   -5.0634    5.3168  -15.6475 C   0  0  2  0  0  0  0  0  0  0  0  0
   -5.1919    6.8014  -15.2364 C   0  0  0  0  0  0  0  0  0  0  0  0
   -4.5742    4.6616  -14.5133 O   0  0  0  0  0  0  0  0  0  0  0  0
   -3.2754    4.0949  -14.5568 C   0  0  0  0  0  0  0  0  0  0  0  0
   -3.2131    3.0534  -13.4405 C   0  0  0  0  0  0  0  0  0  0  0  0
   -2.2125    5.1610  -14.3103 C   0  0  0  0  0  0  0  0  0  0  0  0
   -6.4636    4.8316  -15.9985 C   0  0  0  0  0  0  0  0  0  0  0  0
   -7.4912    4.3573  -15.1920 C   0  0  0  0  0  0  0  0  0  0  0  0
   -7.2691    3.9361  -13.7858 C   0  0  0  0  0  0  0  0  0  0  0  0
   -6.5270    3.0732  -13.5584 O   0  0  0  0  0  0  0  0  0  0  0  0
   -8.1313    4.7775  -12.8427 N   0  0  0  0  0  0  0  0  0  0  0  0
   -8.3388    4.6737  -11.4095 C   0  0  1  0  0  0  0  0  0  0  0  0
   -8.4059    3.2138  -10.9056 C   0  0  0  0  0  0  0  0  0  0  0  0
   -8.5959    3.1963   -9.4305 C   0  0  0  0  0  0  0  0  0  0  0  0
   -8.3929    4.2383   -8.6249 C   0  0  0  0  0  0  0  0  0  0  0  0
   -8.6832    3.8682   -7.2197 C   0  0  0  0  0  0  0  0  0  0  0  0
   -9.1724    2.4788   -7.2599 N   0  0  0  0  0  0  0  0  0  0  0  0
   -8.9998    1.9998   -8.6569 C   0  0  0  0  0  0  0  0  0  0  0  0
   -7.8986    5.5713   -9.0675 C   0  0  0  0  0  0  0  0  0  0  0  0
   -7.4294    5.5797  -10.5513 C   0  0  2  0  0  0  0  0  0  0  0  0
   -7.3812    7.0393  -11.0819 C   0  0  0  0  0  0  0  0  0  0  0  0
   -5.9860    7.5480  -10.7505 C   0  0  0  0  0  0  0  0  0  0  0  0
   -5.0856    6.3635  -11.0506 C   0  0  0  0  0  0  0  0  0  0  0  0
   -5.9439    5.2086  -10.6040 C   0  0  0  0  0  0  0  0  0  0  0  0
   -5.4553    4.1370  -10.2701 O   0  0  0  0  0  0  0  0  0  0  0  0
   -8.7495    4.1260  -15.7615 C   0  0  0  0  0  0  0  0  0  0  0  0
   -8.9337    4.2847  -17.1345 C   0  0  0  0  0  0  0  0  0  0  0  0
  -10.1245    3.9957  -17.6761 F   0  0  0  0  0  0  0  0  0  0  0  0
   -7.8934    4.6888  -17.9628 C   0  0  0  0  0  0  0  0  0  0  0  0
   -6.6660    4.9514  -17.3814 C   0  0  0  0  0  0  0  0  0  0  0  0
  1  2  1  0
  2  3  1  0
  3  4  1  0
  4  5  1  0
  5  6  2  0
  5  7  1  0
  7  8  1  1
  7  9  1  0
  9 10  1  0
 10 11  1  0
 10 12  1  0
  7 13  1  0
 13 14  2  0
 14 15  1  0
 15 16  2  0
 15 17  1  0
 18 17  1  6
 18 19  1  0
 19 20  1  0
 20 21  2  0
 21 22  1  0
 22 23  1  0
 23 24  1  0
 21 25  1  0
 26 25  1  1
 26 27  1  0
 27 28  1  0
 28 29  1  0
 29 30  1  0
 30 31  2  0
 14 32  1  0
 32 33  2  0
 33 34  1  0
 33 35  1  0
 35 36  2  0
 36  4  1  0
 36 13  1  0
 26 18  1  0
 24 20  1  0
 30 26  1  0
M  END
>  <smiles>  (1760) 
C24955-P210

>  <fragmenstein_outcome>  (1760) 
acceptable

>  <inchikey>  (1760) 
WMEWFRALAHEPHJ-UHFFFAOYSA-N

>  <fragmenstein_mode>  (1760) 
expansion

>  <HIPPO Pose ID>  (1760) 
22970

>  <Energy>  (1760) 
39.054253

>  <fragmenstein_error>  (1760) 


>  <tags>  (1760) 
{'openbind_xx01zvns2b_c1_fragmenstein', 'fragmenstein_placed'}

>  <ref_pdb>  (1760) 
175

>  <scratch_subdir>  (1760) 
/opt/xchem-fragalysis-2/maxwin/BulkDock/SCRATCH/511028/C24955-P210

>  <alias>  (1760) 
CNCN1C(=O)[C@](C)(OC(C)C)c2c(C(=O)N[C@H]3CC4=C(CNC4)C[C@]34CCCC4=O)cc(F)cc21

>  <HIPPO Compound ID>  (1760) 
24955

>  <fragmenstein_runtime>  (1760) 
18.70041

$$$$
CNCN1C(=O)[C@](C)(OC(C)C)c2c(C(=O)Nc3cc4c(c5c3OC(C)(C)C5)CNC4)cc(F)cc21
     RDKit          3D

 36 40  0  0  0  0  0  0  0  0999 V2000
   -2.8412    5.0313  -19.4872 C   0  0  0  0  0  0  0  0  0  0  0  0
   -4.2233    5.1020  -19.9257 N   0  0  0  0  0  0  0  0  0  0  0  0
   -5.0558    5.9739  -19.1308 C   0  0  0  0  0  0  0  0  0  0  0  0
   -5.3456    5.4055  -17.8364 N   0  0  0  0  0  0  0  0  0  0  0  0
   -4.5274    5.6632  -16.7286 C   0  0  0  0  0  0  0  0  0  0  0  0
   -3.3537    6.0104  -16.7619 O   0  0  0  0  0  0  0  0  0  0  0  0
   -5.3934    5.5074  -15.4279 C   0  0  2  0  0  0  0  0  0  0  0  0
   -5.4035    6.8761  -14.7417 C   0  0  0  0  0  0  0  0  0  0  0  0
   -5.0767    4.4250  -14.5662 O   0  0  0  0  0  0  0  0  0  0  0  0
   -3.8605    4.4839  -13.8274 C   0  0  0  0  0  0  0  0  0  0  0  0
   -3.3437    3.0508  -13.7555 C   0  0  0  0  0  0  0  0  0  0  0  0
   -4.1143    4.9863  -12.4084 C   0  0  0  0  0  0  0  0  0  0  0  0
   -6.7256    5.1208  -16.0251 C   0  0  0  0  0  0  0  0  0  0  0  0
   -7.9359    4.8593  -15.3924 C   0  0  0  0  0  0  0  0  0  0  0  0
   -8.1808    5.3168  -14.0188 C   0  0  0  0  0  0  0  0  0  0  0  0
   -8.3813    6.4556  -13.8695 O   0  0  0  0  0  0  0  0  0  0  0  0
   -8.1288    4.1708  -12.9951 N   0  0  0  0  0  0  0  0  0  0  0  0
   -8.2155    4.1943  -11.6025 C   0  0  0  0  0  0  0  0  0  0  0  0
   -8.4623    2.9872  -10.9403 C   0  0  0  0  0  0  0  0  0  0  0  0
   -8.6144    2.9953   -9.5558 C   0  0  0  0  0  0  0  0  0  0  0  0
   -8.4806    4.1579   -8.8092 C   0  0  0  0  0  0  0  0  0  0  0  0
   -8.1944    5.3374   -9.4482 C   0  0  0  0  0  0  0  0  0  0  0  0
   -8.0694    5.3511  -10.8312 C   0  0  0  0  0  0  0  0  0  0  0  0
   -7.7474    6.5936  -11.3116 O   0  0  0  0  0  0  0  0  0  0  0  0
   -7.5809    7.4545  -10.1577 C   0  0  0  0  0  0  0  0  0  0  0  0
   -6.0998    7.8425  -10.0897 C   0  0  0  0  0  0  0  0  0  0  0  0
   -8.4381    8.7007  -10.3861 C   0  0  0  0  0  0  0  0  0  0  0  0
   -8.0236    6.6943   -8.8923 C   0  0  0  0  0  0  0  0  0  0  0  0
   -8.6898    3.8612   -7.3699 C   0  0  0  0  0  0  0  0  0  0  0  0
   -9.0932    2.4423   -7.2868 N   0  0  0  0  0  0  0  0  0  0  0  0
   -8.9311    1.8582   -8.6471 C   0  0  0  0  0  0  0  0  0  0  0  0
   -9.0138    4.3957  -16.1377 C   0  0  0  0  0  0  0  0  0  0  0  0
   -8.8775    4.2583  -17.5158 C   0  0  0  0  0  0  0  0  0  0  0  0
   -9.9240    3.8195  -18.2197 F   0  0  0  0  0  0  0  0  0  0  0  0
   -7.6985    4.5954  -18.1775 C   0  0  0  0  0  0  0  0  0  0  0  0
   -6.6272    5.0185  -17.4146 C   0  0  0  0  0  0  0  0  0  0  0  0
  1  2  1  0
  2  3  1  0
  3  4  1  0
  4  5  1  0
  5  6  2  0
  5  7  1  0
  7  8  1  1
  7  9  1  0
  9 10  1  0
 10 11  1  0
 10 12  1  0
  7 13  1  0
 13 14  2  0
 14 15  1  0
 15 16  2  0
 15 17  1  0
 17 18  1  0
 18 19  2  0
 19 20  1  0
 20 21  2  0
 21 22  1  0
 22 23  2  0
 23 24  1  0
 24 25  1  0
 25 26  1  0
 25 27  1  0
 25 28  1  0
 21 29  1  0
 29 30  1  0
 30 31  1  0
 14 32  1  0
 32 33  2  0
 33 34  1  0
 33 35  1  0
 35 36  2  0
 36  4  1  0
 36 13  1  0
 23 18  1  0
 31 20  1  0
 28 22  1  0
M  END
>  <smiles>  (1761) 
C24957-P210

>  <fragmenstein_outcome>  (1761) 
acceptable

>  <inchikey>  (1761) 
XVQAHVLPJGPJES-UHFFFAOYSA-N

>  <fragmenstein_mode>  (1761) 
expansion

>  <HIPPO Pose ID>  (1761) 
22971

>  <Energy>  (1761) 
86.217225

>  <fragmenstein_error>  (1761) 


>  <tags>  (1761) 
{'openbind_xx01zvns2b_c1_fragmenstein', 'fragmenstein_placed'}

>  <ref_pdb>  (1761) 
175

>  <scratch_subdir>  (1761) 
/opt/xchem-fragalysis-2/maxwin/BulkDock/SCRATCH/511028/C24957-P210

>  <alias>  (1761) 
CNCN1C(=O)[C@](C)(OC(C)C)c2c(C(=O)Nc3cc4c(c5c3OC(C)(C)C5)CNC4)cc(F)cc21

>  <HIPPO Compound ID>  (1761) 
24957

>  <fragmenstein_runtime>  (1761) 
10.365395

$$$$
CNCN1C(=O)[C@@](C)(OC(C)C)c2c(C(=O)Nc3ccc4c(c3)CN(C)C4)cc(F)cc21
     RDKit          3D

 32 35  0  0  0  0  0  0  0  0999 V2000
   -4.9529    7.1065  -21.0166 C   0  0  0  0  0  0  0  0  0  0  0  0
   -5.2786    6.7775  -19.6381 N   0  0  0  0  0  0  0  0  0  0  0  0
   -5.2978    5.3292  -19.4412 C   0  0  0  0  0  0  0  0  0  0  0  0
   -5.4966    5.1159  -18.0368 N   0  0  0  0  0  0  0  0  0  0  0  0
   -4.4686    5.2602  -17.1040 C   0  0  0  0  0  0  0  0  0  0  0  0
   -3.2730    5.3217  -17.3663 O   0  0  0  0  0  0  0  0  0  0  0  0
   -5.1331    5.3959  -15.6969 C   0  0  1  0  0  0  0  0  0  0  0  0
   -4.4913    4.4484  -14.6882 C   0  0  0  0  0  0  0  0  0  0  0  0
   -5.1545    6.7823  -15.3634 O   0  0  0  0  0  0  0  0  0  0  0  0
   -4.2057    7.3169  -14.4470 C   0  0  0  0  0  0  0  0  0  0  0  0
   -2.8262    7.4677  -15.0790 C   0  0  0  0  0  0  0  0  0  0  0  0
   -4.7269    8.6966  -14.0456 C   0  0  0  0  0  0  0  0  0  0  0  0
   -6.5690    5.0239  -16.0170 C   0  0  0  0  0  0  0  0  0  0  0  0
   -7.6674    4.8650  -15.1754 C   0  0  0  0  0  0  0  0  0  0  0  0
   -7.6245    5.3088  -13.7623 C   0  0  0  0  0  0  0  0  0  0  0  0
   -7.2892    6.4063  -13.5552 O   0  0  0  0  0  0  0  0  0  0  0  0
   -8.0392    4.1893  -12.7863 N   0  0  0  0  0  0  0  0  0  0  0  0
   -8.2136    4.2124  -11.4047 C   0  0  0  0  0  0  0  0  0  0  0  0
   -8.0593    5.4126  -10.6878 C   0  0  0  0  0  0  0  0  0  0  0  0
   -8.2372    5.4532   -9.3025 C   0  0  0  0  0  0  0  0  0  0  0  0
   -8.5685    4.2792   -8.6548 C   0  0  0  0  0  0  0  0  0  0  0  0
   -8.7190    3.0895   -9.3606 C   0  0  0  0  0  0  0  0  0  0  0  0
   -8.5446    3.0347  -10.7356 C   0  0  0  0  0  0  0  0  0  0  0  0
   -9.0832    1.9903   -8.4152 C   0  0  0  0  0  0  0  0  0  0  0  0
   -9.0820    2.6064   -7.0703 N   0  0  0  0  0  0  0  0  0  0  0  0
  -10.2278    2.2549   -6.2607 C   0  0  0  0  0  0  0  0  0  0  0  0
   -8.8358    4.0443   -7.2048 C   0  0  0  0  0  0  0  0  0  0  0  0
   -8.8901    4.4729  -15.7264 C   0  0  0  0  0  0  0  0  0  0  0  0
   -9.0118    4.3229  -17.1098 C   0  0  0  0  0  0  0  0  0  0  0  0
  -10.1959    3.9669  -17.6253 F   0  0  0  0  0  0  0  0  0  0  0  0
   -7.9433    4.5667  -17.9683 C   0  0  0  0  0  0  0  0  0  0  0  0
   -6.7246    4.8948  -17.4024 C   0  0  0  0  0  0  0  0  0  0  0  0
  1  2  1  0
  2  3  1  0
  3  4  1  0
  4  5  1  0
  5  6  2  0
  5  7  1  0
  7  8  1  1
  7  9  1  0
  9 10  1  0
 10 11  1  0
 10 12  1  0
  7 13  1  0
 13 14  2  0
 14 15  1  0
 15 16  2  0
 15 17  1  0
 17 18  1  0
 18 19  2  0
 19 20  1  0
 20 21  2  0
 21 22  1  0
 22 23  2  0
 22 24  1  0
 24 25  1  0
 25 26  1  0
 25 27  1  0
 14 28  1  0
 28 29  2  0
 29 30  1  0
 29 31  1  0
 31 32  2  0
 32  4  1  0
 32 13  1  0
 23 18  1  0
 27 21  1  0
M  END
>  <smiles>  (1762) 
C24958-P210

>  <fragmenstein_outcome>  (1762) 
acceptable

>  <inchikey>  (1762) 
GUDJEKMJLNERNJ-UHFFFAOYSA-N

>  <fragmenstein_mode>  (1762) 
expansion

>  <HIPPO Pose ID>  (1762) 
22972

>  <Energy>  (1762) 
63.563397

>  <fragmenstein_error>  (1762) 


>  <tags>  (1762) 
{'openbind_xx01zvns2b_c1_fragmenstein', 'fragmenstein_placed'}

>  <ref_pdb>  (1762) 
175

>  <scratch_subdir>  (1762) 
/opt/xchem-fragalysis-2/maxwin/BulkDock/SCRATCH/511028/C24958-P210

>  <alias>  (1762) 
CNCN1C(=O)[C@@](C)(OC(C)C)c2c(C(=O)Nc3ccc4c(c3)CN(C)C4)cc(F)cc21

>  <HIPPO Compound ID>  (1762) 
29404

>  <fragmenstein_runtime>  (1762) 
6.046691

$$$$
CNCN1C(=O)[C@@](C)(OC(C)C)c2c(C(=O)Nc3cc(F)c4c(c3)CNC4)cc(F)cc21
     RDKit          3D

 32 35  0  0  0  0  0  0  0  0999 V2000
   -4.9538    7.1289  -21.0778 C   0  0  0  0  0  0  0  0  0  0  0  0
   -5.2701    6.8168  -19.6929 N   0  0  0  0  0  0  0  0  0  0  0  0
   -5.2741    5.3718  -19.4740 C   0  0  0  0  0  0  0  0  0  0  0  0
   -5.5041    5.1793  -18.0708 N   0  0  0  0  0  0  0  0  0  0  0  0
   -4.5065    5.3741  -17.1155 C   0  0  0  0  0  0  0  0  0  0  0  0
   -3.3057    5.4542  -17.3447 O   0  0  0  0  0  0  0  0  0  0  0  0
   -5.2138    5.5266  -15.7310 C   0  0  1  0  0  0  0  0  0  0  0  0
   -4.5685    4.6189  -14.6872 C   0  0  0  0  0  0  0  0  0  0  0  0
   -5.3028    6.9193  -15.4297 O   0  0  0  0  0  0  0  0  0  0  0  0
   -4.3949    7.5103  -14.5065 C   0  0  0  0  0  0  0  0  0  0  0  0
   -4.9821    8.8730  -14.1414 C   0  0  0  0  0  0  0  0  0  0  0  0
   -3.0110    7.7047  -15.1157 C   0  0  0  0  0  0  0  0  0  0  0  0
   -6.6259    5.0939  -16.0769 C   0  0  0  0  0  0  0  0  0  0  0  0
   -7.7372    4.9042  -15.2598 C   0  0  0  0  0  0  0  0  0  0  0  0
   -7.7436    5.3398  -13.8433 C   0  0  0  0  0  0  0  0  0  0  0  0
   -7.4974    6.4573  -13.6201 O   0  0  0  0  0  0  0  0  0  0  0  0
   -8.1622    4.1990  -12.8928 N   0  0  0  0  0  0  0  0  0  0  0  0
   -8.2697    4.1718  -11.5044 C   0  0  0  0  0  0  0  0  0  0  0  0
   -8.0584    5.3330  -10.7438 C   0  0  0  0  0  0  0  0  0  0  0  0
   -8.1916    5.2950   -9.3583 C   0  0  0  0  0  0  0  0  0  0  0  0
   -7.9900    6.4021   -8.6320 F   0  0  0  0  0  0  0  0  0  0  0  0
   -8.5283    4.1111   -8.7442 C   0  0  0  0  0  0  0  0  0  0  0  0
   -8.7255    2.9610   -9.4938 C   0  0  0  0  0  0  0  0  0  0  0  0
   -8.6013    2.9699  -10.8747 C   0  0  0  0  0  0  0  0  0  0  0  0
   -9.0257    1.8251   -8.5791 C   0  0  0  0  0  0  0  0  0  0  0  0
   -9.2095    2.4213   -7.2284 N   0  0  0  0  0  0  0  0  0  0  0  0
   -8.7232    3.8171   -7.3028 C   0  0  0  0  0  0  0  0  0  0  0  0
   -8.9293    4.4582  -15.8351 C   0  0  0  0  0  0  0  0  0  0  0  0
   -9.0090    4.2795  -17.2168 C   0  0  0  0  0  0  0  0  0  0  0  0
  -10.1591    3.8501  -17.7502 F   0  0  0  0  0  0  0  0  0  0  0  0
   -7.9303    4.5485  -18.0526 C   0  0  0  0  0  0  0  0  0  0  0  0
   -6.7404    4.9331  -17.4633 C   0  0  0  0  0  0  0  0  0  0  0  0
  1  2  1  0
  2  3  1  0
  3  4  1  0
  4  5  1  0
  5  6  2  0
  5  7  1  0
  7  8  1  1
  7  9  1  0
  9 10  1  0
 10 11  1  0
 10 12  1  0
  7 13  1  0
 13 14  2  0
 14 15  1  0
 15 16  2  0
 15 17  1  0
 17 18  1  0
 18 19  2  0
 19 20  1  0
 20 21  1  0
 20 22  2  0
 22 23  1  0
 23 24  2  0
 23 25  1  0
 25 26  1  0
 26 27  1  0
 14 28  1  0
 28 29  2  0
 29 30  1  0
 29 31  1  0
 31 32  2  0
 32  4  1  0
 32 13  1  0
 24 18  1  0
 27 22  1  0
M  END
>  <smiles>  (1763) 
C24959-P210

>  <fragmenstein_outcome>  (1763) 
acceptable

>  <inchikey>  (1763) 
GVFBDNUAYLGOCO-UHFFFAOYSA-N

>  <fragmenstein_mode>  (1763) 
expansion

>  <HIPPO Pose ID>  (1763) 
22973

>  <Energy>  (1763) 
43.594026

>  <fragmenstein_error>  (1763) 


>  <tags>  (1763) 
{'openbind_xx01zvns2b_c1_fragmenstein', 'fragmenstein_placed'}

>  <ref_pdb>  (1763) 
175

>  <scratch_subdir>  (1763) 
/opt/xchem-fragalysis-2/maxwin/BulkDock/SCRATCH/511028/C24959-P210

>  <alias>  (1763) 
CNCN1C(=O)[C@@](C)(OC(C)C)c2c(C(=O)Nc3cc(F)c4c(c3)CNC4)cc(F)cc21

>  <HIPPO Compound ID>  (1763) 
24959

>  <fragmenstein_runtime>  (1763) 
5.114897

$$$$
CC(C)O[C@]1(C)c2c(cc(F)cc2C(=O)Nc2ccc3c(c2)CNC3)N[C@H]1CN(C)C
     RDKit          3D

 31 34  0  0  0  0  0  0  0  0999 V2000
   -4.1261    5.9591  -12.2902 C   0  0  0  0  0  0  0  0  0  0  0  0
   -3.7127    5.2328  -13.5649 C   0  0  0  0  0  0  0  0  0  0  0  0
   -3.0529    3.9038  -13.2156 C   0  0  0  0  0  0  0  0  0  0  0  0
   -4.8723    4.9260  -14.3296 O   0  0  0  0  0  0  0  0  0  0  0  0
   -5.1390    5.7096  -15.5008 C   0  0  2  0  0  0  0  0  0  0  0  0
   -5.0587    7.2245  -15.3053 C   0  0  0  0  0  0  0  0  0  0  0  0
   -6.5298    5.2877  -15.9321 C   0  0  0  0  0  0  0  0  0  0  0  0
   -6.5244    4.9614  -17.2912 C   0  0  0  0  0  0  0  0  0  0  0  0
   -7.6739    4.5472  -17.9398 C   0  0  0  0  0  0  0  0  0  0  0  0
   -8.8129    4.3287  -17.1746 C   0  0  0  0  0  0  0  0  0  0  0  0
   -9.9160    3.8435  -17.7586 F   0  0  0  0  0  0  0  0  0  0  0  0
   -8.8339    4.6007  -15.8076 C   0  0  0  0  0  0  0  0  0  0  0  0
   -7.6929    5.1162  -15.1846 C   0  0  0  0  0  0  0  0  0  0  0  0
   -7.7827    5.5298  -13.7654 C   0  0  0  0  0  0  0  0  0  0  0  0
   -7.6390    6.6978  -13.5445 O   0  0  0  0  0  0  0  0  0  0  0  0
   -8.0807    4.4394  -12.8855 N   0  0  0  0  0  0  0  0  0  0  0  0
   -8.2035    4.3913  -11.4969 C   0  0  0  0  0  0  0  0  0  0  0  0
   -8.0754    5.5466  -10.7065 C   0  0  0  0  0  0  0  0  0  0  0  0
   -8.2112    5.4850   -9.3158 C   0  0  0  0  0  0  0  0  0  0  0  0
   -8.4938    4.2602   -8.7404 C   0  0  0  0  0  0  0  0  0  0  0  0
   -8.6299    3.1189   -9.5192 C   0  0  0  0  0  0  0  0  0  0  0  0
   -8.4739    3.1597  -10.8958 C   0  0  0  0  0  0  0  0  0  0  0  0
   -8.9500    1.9537   -8.6480 C   0  0  0  0  0  0  0  0  0  0  0  0
   -9.1239    2.4965   -7.2722 N   0  0  0  0  0  0  0  0  0  0  0  0
   -8.7047    3.9132   -7.3081 C   0  0  0  0  0  0  0  0  0  0  0  0
   -5.2660    5.1495  -17.9165 N   0  0  0  0  0  0  0  0  0  0  0  0
   -4.3455    5.1550  -16.7466 C   0  0  1  0  0  0  0  0  0  0  0  0
   -2.9667    5.7747  -17.1038 C   0  0  0  0  0  0  0  0  0  0  0  0
   -2.8492    7.2097  -17.4396 N   0  0  0  0  0  0  0  0  0  0  0  0
   -3.5875    7.5595  -18.6561 C   0  0  0  0  0  0  0  0  0  0  0  0
   -1.4403    7.5789  -17.5915 C   0  0  0  0  0  0  0  0  0  0  0  0
  1  2  1  0
  2  3  1  0
  2  4  1  0
  4  5  1  0
  5  6  1  1
  5  7  1  0
  7  8  2  0
  8  9  1  0
  9 10  2  0
 10 11  1  0
 10 12  1  0
 12 13  2  0
 13 14  1  0
 14 15  2  0
 14 16  1  0
 16 17  1  0
 17 18  2  0
 18 19  1  0
 19 20  2  0
 20 21  1  0
 21 22  2  0
 21 23  1  0
 23 24  1  0
 24 25  1  0
  8 26  1  0
 26 27  1  0
 27 28  1  6
 28 29  1  0
 29 30  1  0
 29 31  1  0
 27  5  1  0
 13  7  1  0
 22 17  1  0
 25 20  1  0
M  END
>  <smiles>  (1764) 
C24966-P210

>  <fragmenstein_outcome>  (1764) 
acceptable

>  <inchikey>  (1764) 
LMOMVTPLSWGCDY-UHFFFAOYSA-N

>  <fragmenstein_mode>  (1764) 
expansion

>  <HIPPO Pose ID>  (1764) 
22975

>  <Energy>  (1764) 
104.828038

>  <fragmenstein_error>  (1764) 


>  <tags>  (1764) 
{'openbind_xx01zvns2b_c1_fragmenstein', 'fragmenstein_placed'}

>  <ref_pdb>  (1764) 
175

>  <scratch_subdir>  (1764) 
/opt/xchem-fragalysis-2/maxwin/BulkDock/SCRATCH/511028/C24966-P210

>  <alias>  (1764) 
CC(C)O[C@]1(C)c2c(cc(F)cc2C(=O)Nc2ccc3c(c2)CNC3)N[C@H]1CN(C)C

>  <HIPPO Compound ID>  (1764) 
24966

>  <fragmenstein_runtime>  (1764) 
11.792572

$$$$
CC(C)O[C@@]1(C)C(=O)N(NC2CCC2)c2cc(F)cc(C(=O)Nc3ccc4c(c3)CNC4)c21
     RDKit          3D

 33 37  0  0  0  0  0  0  0  0999 V2000
   -3.6080    2.8916  -13.3143 C   0  0  0  0  0  0  0  0  0  0  0  0
   -3.5414    3.9286  -14.4360 C   0  0  0  0  0  0  0  0  0  0  0  0
   -2.5120    4.9910  -14.0669 C   0  0  0  0  0  0  0  0  0  0  0  0
   -4.8585    4.4482  -14.5736 O   0  0  0  0  0  0  0  0  0  0  0  0
   -5.1480    5.3063  -15.6590 C   0  0  1  0  0  0  0  0  0  0  0  0
   -4.9673    6.7735  -15.2387 C   0  0  0  0  0  0  0  0  0  0  0  0
   -4.4390    5.1596  -17.0674 C   0  0  0  0  0  0  0  0  0  0  0  0
   -3.2330    5.1594  -17.2861 O   0  0  0  0  0  0  0  0  0  0  0  0
   -5.4692    5.0842  -18.0214 N   0  0  0  0  0  0  0  0  0  0  0  0
   -5.3200    5.3293  -19.3880 N   0  0  0  0  0  0  0  0  0  0  0  0
   -4.5185    6.5277  -19.6587 C   0  0  0  0  0  0  0  0  0  0  0  0
   -5.2668    7.7985  -19.1865 C   0  0  0  0  0  0  0  0  0  0  0  0
   -4.8219    8.4486  -20.5136 C   0  0  0  0  0  0  0  0  0  0  0  0
   -4.7718    7.0207  -21.1005 C   0  0  0  0  0  0  0  0  0  0  0  0
   -6.7121    4.8869  -17.4217 C   0  0  0  0  0  0  0  0  0  0  0  0
   -7.9098    4.5641  -18.0336 C   0  0  0  0  0  0  0  0  0  0  0  0
   -9.0030    4.3185  -17.2124 C   0  0  0  0  0  0  0  0  0  0  0  0
  -10.1631    3.9377  -17.7595 F   0  0  0  0  0  0  0  0  0  0  0  0
   -8.9265    4.4819  -15.8284 C   0  0  0  0  0  0  0  0  0  0  0  0
   -7.7221    4.8753  -15.2389 C   0  0  0  0  0  0  0  0  0  0  0  0
   -7.7334    5.3171  -13.8301 C   0  0  0  0  0  0  0  0  0  0  0  0
   -7.5119    6.4425  -13.6152 O   0  0  0  0  0  0  0  0  0  0  0  0
   -8.1326    4.1769  -12.8733 N   0  0  0  0  0  0  0  0  0  0  0  0
   -8.2474    4.1588  -11.4853 C   0  0  0  0  0  0  0  0  0  0  0  0
   -8.1047    5.3369  -10.7310 C   0  0  0  0  0  0  0  0  0  0  0  0
   -8.2708    5.3264   -9.3423 C   0  0  0  0  0  0  0  0  0  0  0  0
   -8.5976    4.1286   -8.7378 C   0  0  0  0  0  0  0  0  0  0  0  0
   -8.7258    2.9591   -9.4825 C   0  0  0  0  0  0  0  0  0  0  0  0
   -8.5413    2.9501  -10.8531 C   0  0  0  0  0  0  0  0  0  0  0  0
   -9.0627    1.8336   -8.5630 C   0  0  0  0  0  0  0  0  0  0  0  0
   -9.5330    2.4943   -7.3143 N   0  0  0  0  0  0  0  0  0  0  0  0
   -8.8684    3.8166   -7.3044 C   0  0  0  0  0  0  0  0  0  0  0  0
   -6.5939    5.0212  -16.0360 C   0  0  0  0  0  0  0  0  0  0  0  0
  1  2  1  0
  2  3  1  0
  2  4  1  0
  4  5  1  0
  5  6  1  1
  5  7  1  0
  7  8  2  0
  7  9  1  0
  9 10  1  0
 10 11  1  0
 11 12  1  0
 12 13  1  0
 13 14  1  0
  9 15  1  0
 15 16  2  0
 16 17  1  0
 17 18  1  0
 17 19  2  0
 19 20  1  0
 20 21  1  0
 21 22  2  0
 21 23  1  0
 23 24  1  0
 24 25  2  0
 25 26  1  0
 26 27  2  0
 27 28  1  0
 28 29  2  0
 28 30  1  0
 30 31  1  0
 31 32  1  0
 20 33  2  0
 33  5  1  0
 14 11  1  0
 33 15  1  0
 29 24  1  0
 32 27  1  0
M  END
>  <smiles>  (1765) 
C24967-P210

>  <fragmenstein_outcome>  (1765) 
acceptable

>  <inchikey>  (1765) 
XYVMGEYUPUTDCP-UHFFFAOYSA-N

>  <fragmenstein_mode>  (1765) 
expansion

>  <HIPPO Pose ID>  (1765) 
22976

>  <Energy>  (1765) 
131.707943

>  <fragmenstein_error>  (1765) 


>  <tags>  (1765) 
{'openbind_xx01zvns2b_c1_fragmenstein', 'fragmenstein_placed'}

>  <ref_pdb>  (1765) 
175

>  <scratch_subdir>  (1765) 
/opt/xchem-fragalysis-2/maxwin/BulkDock/SCRATCH/511028/C24967-P210

>  <alias>  (1765) 
CC(C)O[C@@]1(C)C(=O)N(NC2CCC2)c2cc(F)cc(C(=O)Nc3ccc4c(c3)CNC4)c21

>  <HIPPO Compound ID>  (1765) 
25388

>  <fragmenstein_runtime>  (1765) 
16.617583

$$$$
CN=C1Nc2cc(F)cc(C(=O)Nc3ccc4c(c3)CNC4)c2[C@]1(C)OC(C)C
     RDKit          3D

 29 32  0  0  0  0  0  0  0  0999 V2000
   -2.9522    5.3425  -19.1364 C   0  0  0  0  0  0  0  0  0  0  0  0
   -3.4600    5.5358  -17.7907 N   0  0  0  0  0  0  0  0  0  0  0  0
   -4.7087    5.3469  -17.5513 C   0  0  0  0  0  0  0  0  0  0  0  0
   -5.7408    4.9719  -18.3839 N   0  0  0  0  0  0  0  0  0  0  0  0
   -6.9261    4.8573  -17.6632 C   0  0  0  0  0  0  0  0  0  0  0  0
   -8.1427    4.4264  -18.1503 C   0  0  0  0  0  0  0  0  0  0  0  0
   -9.1753    4.2425  -17.2433 C   0  0  0  0  0  0  0  0  0  0  0  0
  -10.3665    3.8290  -17.6916 F   0  0  0  0  0  0  0  0  0  0  0  0
   -9.0042    4.4904  -15.8795 C   0  0  0  0  0  0  0  0  0  0  0  0
   -7.7777    4.9576  -15.3938 C   0  0  0  0  0  0  0  0  0  0  0  0
   -7.6944    5.3988  -13.9766 C   0  0  0  0  0  0  0  0  0  0  0  0
   -7.3546    6.4932  -13.7568 O   0  0  0  0  0  0  0  0  0  0  0  0
   -8.1760    4.2870  -13.0159 N   0  0  0  0  0  0  0  0  0  0  0  0
   -8.2469    4.2615  -11.6238 C   0  0  0  0  0  0  0  0  0  0  0  0
   -8.0394    5.4269  -10.8681 C   0  0  0  0  0  0  0  0  0  0  0  0
   -8.1516    5.4077   -9.4738 C   0  0  0  0  0  0  0  0  0  0  0  0
   -8.4702    4.2111   -8.8589 C   0  0  0  0  0  0  0  0  0  0  0  0
   -8.6680    3.0562   -9.6029 C   0  0  0  0  0  0  0  0  0  0  0  0
   -8.5596    3.0599  -10.9850 C   0  0  0  0  0  0  0  0  0  0  0  0
   -8.9731    1.9203   -8.6890 C   0  0  0  0  0  0  0  0  0  0  0  0
   -9.0974    2.5027   -7.3244 N   0  0  0  0  0  0  0  0  0  0  0  0
   -8.6545    3.9102   -7.4126 C   0  0  0  0  0  0  0  0  0  0  0  0
   -6.7285    5.1175  -16.2925 C   0  0  0  0  0  0  0  0  0  0  0  0
   -5.2914    5.5816  -16.0838 C   0  0  1  0  0  0  0  0  0  0  0  0
   -4.5609    4.7465  -15.0356 C   0  0  0  0  0  0  0  0  0  0  0  0
   -5.3765    6.9740  -15.7928 O   0  0  0  0  0  0  0  0  0  0  0  0
   -4.1577    7.6578  -15.5181 C   0  0  0  0  0  0  0  0  0  0  0  0
   -4.1604    8.0751  -14.0523 C   0  0  0  0  0  0  0  0  0  0  0  0
   -4.1136    8.8859  -16.4201 C   0  0  0  0  0  0  0  0  0  0  0  0
  1  2  1  0
  2  3  2  3
  3  4  1  0
  4  5  1  0
  5  6  2  0
  6  7  1  0
  7  8  1  0
  7  9  2  0
  9 10  1  0
 10 11  1  0
 11 12  2  0
 11 13  1  0
 13 14  1  0
 14 15  2  0
 15 16  1  0
 16 17  2  0
 17 18  1  0
 18 19  2  0
 18 20  1  0
 20 21  1  0
 21 22  1  0
 10 23  2  0
 23 24  1  0
 24 25  1  1
 24 26  1  0
 26 27  1  0
 27 28  1  0
 27 29  1  0
 24  3  1  0
 23  5  1  0
 19 14  1  0
 22 17  1  0
M  END
>  <smiles>  (1766) 
C24789-P210

>  <fragmenstein_outcome>  (1766) 
acceptable

>  <inchikey>  (1766) 
OEYBSXZBQPSCEL-UHFFFAOYSA-N

>  <fragmenstein_mode>  (1766) 
expansion

>  <HIPPO Pose ID>  (1766) 
22978

>  <Energy>  (1766) 
80.023668

>  <fragmenstein_error>  (1766) 


>  <tags>  (1766) 
{'openbind_xx01zvns2b_c1_fragmenstein', 'fragmenstein_placed'}

>  <ref_pdb>  (1766) 
175

>  <scratch_subdir>  (1766) 
/opt/xchem-fragalysis-2/maxwin/BulkDock/SCRATCH/511028/C24789-P210

>  <alias>  (1766) 
CN=C1Nc2cc(F)cc(C(=O)Nc3ccc4c(c3)CNC4)c2[C@]1(C)OC(C)C

>  <HIPPO Compound ID>  (1766) 
24789

>  <fragmenstein_runtime>  (1766) 
5.152555

$$$$
CNCN1C(=O)[C@@](C)(OC(C)C)c2c(C(=O)Nc3cc(C)c4c(c3)CNC4)cc(F)cc21
     RDKit          3D

 32 35  0  0  0  0  0  0  0  0999 V2000
   -3.1212    6.0049  -20.5249 C   0  0  0  0  0  0  0  0  0  0  0  0
   -3.7196    4.9411  -19.7227 N   0  0  0  0  0  0  0  0  0  0  0  0
   -5.0897    5.2954  -19.3502 C   0  0  0  0  0  0  0  0  0  0  0  0
   -5.3022    5.0843  -17.9328 N   0  0  0  0  0  0  0  0  0  0  0  0
   -4.3968    5.4727  -16.9402 C   0  0  0  0  0  0  0  0  0  0  0  0
   -3.2091    5.7203  -17.1153 O   0  0  0  0  0  0  0  0  0  0  0  0
   -5.1584    5.5615  -15.5843 C   0  0  1  0  0  0  0  0  0  0  0  0
   -4.5301    4.6383  -14.5427 C   0  0  0  0  0  0  0  0  0  0  0  0
   -5.2916    6.9213  -15.1819 O   0  0  0  0  0  0  0  0  0  0  0  0
   -4.1196    7.5849  -14.7150 C   0  0  0  0  0  0  0  0  0  0  0  0
   -4.0213    8.9080  -15.4655 C   0  0  0  0  0  0  0  0  0  0  0  0
   -4.2654    7.8320  -13.2183 C   0  0  0  0  0  0  0  0  0  0  0  0
   -6.5392    5.1012  -15.9899 C   0  0  0  0  0  0  0  0  0  0  0  0
   -7.6908    4.9407  -15.2226 C   0  0  0  0  0  0  0  0  0  0  0  0
   -7.7546    5.3876  -13.8135 C   0  0  0  0  0  0  0  0  0  0  0  0
   -7.6228    6.5247  -13.5909 O   0  0  0  0  0  0  0  0  0  0  0  0
   -7.9788    4.1998  -12.8541 N   0  0  0  0  0  0  0  0  0  0  0  0
   -8.1757    4.1752  -11.4738 C   0  0  0  0  0  0  0  0  0  0  0  0
   -8.0455    5.3480  -10.7080 C   0  0  0  0  0  0  0  0  0  0  0  0
   -8.2305    5.3418   -9.3147 C   0  0  0  0  0  0  0  0  0  0  0  0
   -8.0995    6.6112   -8.5338 C   0  0  0  0  0  0  0  0  0  0  0  0
   -8.5909    4.1380   -8.7283 C   0  0  0  0  0  0  0  0  0  0  0  0
   -8.7114    2.9732   -9.4870 C   0  0  0  0  0  0  0  0  0  0  0  0
   -8.4949    2.9678  -10.8548 C   0  0  0  0  0  0  0  0  0  0  0  0
   -9.0648    1.8379   -8.5837 C   0  0  0  0  0  0  0  0  0  0  0  0
   -9.5551    2.4826   -7.3367 N   0  0  0  0  0  0  0  0  0  0  0  0
   -8.8908    3.8040   -7.3021 C   0  0  0  0  0  0  0  0  0  0  0  0
   -8.8592    4.4926  -15.8378 C   0  0  0  0  0  0  0  0  0  0  0  0
   -8.8727    4.2801  -17.2163 C   0  0  0  0  0  0  0  0  0  0  0  0
  -10.0078    3.8700  -17.7953 F   0  0  0  0  0  0  0  0  0  0  0  0
   -7.7454    4.4980  -18.0049 C   0  0  0  0  0  0  0  0  0  0  0  0
   -6.5753    4.8764  -17.3709 C   0  0  0  0  0  0  0  0  0  0  0  0
  1  2  1  0
  2  3  1  0
  3  4  1  0
  4  5  1  0
  5  6  2  0
  5  7  1  0
  7  8  1  1
  7  9  1  0
  9 10  1  0
 10 11  1  0
 10 12  1  0
  7 13  1  0
 13 14  2  0
 14 15  1  0
 15 16  2  0
 15 17  1  0
 17 18  1  0
 18 19  2  0
 19 20  1  0
 20 21  1  0
 20 22  2  0
 22 23  1  0
 23 24  2  0
 23 25  1  0
 25 26  1  0
 26 27  1  0
 14 28  1  0
 28 29  2  0
 29 30  1  0
 29 31  1  0
 31 32  2  0
 32  4  1  0
 32 13  1  0
 24 18  1  0
 27 22  1  0
M  END
>  <smiles>  (1767) 
C24972-P210

>  <fragmenstein_outcome>  (1767) 
acceptable

>  <inchikey>  (1767) 
CJBLBZHEVPPPQX-UHFFFAOYSA-N

>  <fragmenstein_mode>  (1767) 
expansion

>  <HIPPO Pose ID>  (1767) 
22980

>  <Energy>  (1767) 
56.014958

>  <fragmenstein_error>  (1767) 


>  <tags>  (1767) 
{'openbind_xx01zvns2b_c1_fragmenstein', 'fragmenstein_placed'}

>  <ref_pdb>  (1767) 
175

>  <scratch_subdir>  (1767) 
/opt/xchem-fragalysis-2/maxwin/BulkDock/SCRATCH/511028/C24972-P210

>  <alias>  (1767) 
CNCN1C(=O)[C@@](C)(OC(C)C)c2c(C(=O)Nc3cc(C)c4c(c3)CNC4)cc(F)cc21

>  <HIPPO Compound ID>  (1767) 
24972

>  <fragmenstein_runtime>  (1767) 
5.903599

$$$$
CC(C)O[C@]1(C)c2c(C(=O)Nc3ccc4c(c3)CNC4)cc(F)cc2N2CCN[C@@]21O
     RDKit          3D

 31 35  0  0  0  0  0  0  0  0999 V2000
   -4.2049    5.3387  -13.1424 C   0  0  0  0  0  0  0  0  0  0  0  0
   -4.4434    4.5058  -14.3986 C   0  0  0  0  0  0  0  0  0  0  0  0
   -3.3610    3.4345  -14.4313 C   0  0  0  0  0  0  0  0  0  0  0  0
   -4.3201    5.2082  -15.6415 O   0  0  0  0  0  0  0  0  0  0  0  0
   -5.3208    6.1946  -16.0292 C   0  0  2  0  0  0  0  0  0  0  0  0
   -5.1630    7.4766  -15.2047 C   0  0  0  0  0  0  0  0  0  0  0  0
   -6.6926    5.5494  -16.2136 C   0  0  0  0  0  0  0  0  0  0  0  0
   -7.6890    5.1646  -15.3077 C   0  0  0  0  0  0  0  0  0  0  0  0
   -7.7019    5.5828  -13.8865 C   0  0  0  0  0  0  0  0  0  0  0  0
   -7.5853    6.7193  -13.6490 O   0  0  0  0  0  0  0  0  0  0  0  0
   -7.9125    4.3773  -12.9403 N   0  0  0  0  0  0  0  0  0  0  0  0
   -8.1111    4.3328  -11.5617 C   0  0  0  0  0  0  0  0  0  0  0  0
   -8.0041    5.4907  -10.7753 C   0  0  0  0  0  0  0  0  0  0  0  0
   -8.1923    5.4359   -9.3904 C   0  0  0  0  0  0  0  0  0  0  0  0
   -8.4943    4.2142   -8.8175 C   0  0  0  0  0  0  0  0  0  0  0  0
   -8.6129    3.0702   -9.5947 C   0  0  0  0  0  0  0  0  0  0  0  0
   -8.4180    3.1063  -10.9668 C   0  0  0  0  0  0  0  0  0  0  0  0
   -8.9390    1.9066   -8.7228 C   0  0  0  0  0  0  0  0  0  0  0  0
   -9.1363    2.4526   -7.3523 N   0  0  0  0  0  0  0  0  0  0  0  0
   -8.7263    3.8717   -7.3870 C   0  0  0  0  0  0  0  0  0  0  0  0
   -8.8236    4.4757  -15.7686 C   0  0  0  0  0  0  0  0  0  0  0  0
   -8.9608    4.1886  -17.1201 C   0  0  0  0  0  0  0  0  0  0  0  0
  -10.0436    3.5385  -17.5568 F   0  0  0  0  0  0  0  0  0  0  0  0
   -8.0123    4.6000  -18.0357 C   0  0  0  0  0  0  0  0  0  0  0  0
   -6.9019    5.2962  -17.5805 C   0  0  0  0  0  0  0  0  0  0  0  0
   -5.9938    5.9187  -18.4292 N   0  0  0  0  0  0  0  0  0  0  0  0
   -5.2756    5.1224  -19.4058 C   0  0  0  0  0  0  0  0  0  0  0  0
   -3.9215    5.8367  -19.4800 C   0  0  0  0  0  0  0  0  0  0  0  0
   -3.6504    6.3138  -18.1035 N   0  0  0  0  0  0  0  0  0  0  0  0
   -5.0082    6.5952  -17.6064 C   0  0  2  0  0  0  0  0  0  0  0  0
   -5.2910    7.9504  -17.8833 O   0  0  0  0  0  0  0  0  0  0  0  0
  1  2  1  0
  2  3  1  0
  2  4  1  0
  4  5  1  0
  5  6  1  1
  5  7  1  0
  7  8  2  0
  8  9  1  0
  9 10  2  0
  9 11  1  0
 11 12  1  0
 12 13  2  0
 13 14  1  0
 14 15  2  0
 15 16  1  0
 16 17  2  0
 16 18  1  0
 18 19  1  0
 19 20  1  0
  8 21  1  0
 21 22  2  0
 22 23  1  0
 22 24  1  0
 24 25  2  0
 25 26  1  0
 26 27  1  0
 27 28  1  0
 28 29  1  0
 29 30  1  0
 30 31  1  1
 30  5  1  0
 25  7  1  0
 30 26  1  0
 17 12  1  0
 20 15  1  0
M  END
>  <smiles>  (1768) 
C24978-P210

>  <fragmenstein_outcome>  (1768) 
acceptable

>  <inchikey>  (1768) 
PJGZGCWCTNCUKC-UHFFFAOYSA-N

>  <fragmenstein_mode>  (1768) 
expansion

>  <HIPPO Pose ID>  (1768) 
22983

>  <Energy>  (1768) 
55.31124

>  <fragmenstein_error>  (1768) 


>  <tags>  (1768) 
{'openbind_xx01zvns2b_c1_fragmenstein', 'fragmenstein_placed'}

>  <ref_pdb>  (1768) 
175

>  <scratch_subdir>  (1768) 
/opt/xchem-fragalysis-2/maxwin/BulkDock/SCRATCH/511028/C24978-P210

>  <alias>  (1768) 
CC(C)O[C@]1(C)c2c(C(=O)Nc3ccc4c(c3)CNC4)cc(F)cc2N2CCN[C@@]21O

>  <HIPPO Compound ID>  (1768) 
24978

>  <fragmenstein_runtime>  (1768) 
11.585425

$$$$
CCC[C@@H]1NCC2=C1[C@@](C)(OC(C)C)c1c(C(=O)Nc3ccc4c(c3)CNC4)cc(F)cc12
     RDKit          3D

 33 37  0  0  0  0  0  0  0  0999 V2000
   -0.1727    6.3593  -19.3298 C   0  0  0  0  0  0  0  0  0  0  0  0
   -0.5336    6.5839  -17.8711 C   0  0  0  0  0  0  0  0  0  0  0  0
   -2.0315    6.7700  -17.5909 C   0  0  0  0  0  0  0  0  0  0  0  0
   -2.8938    5.5313  -17.8529 C   0  0  2  0  0  0  0  0  0  0  0  0
   -3.1461    5.3568  -19.3236 N   0  0  0  0  0  0  0  0  0  0  0  0
   -4.6194    5.2854  -19.5430 C   0  0  0  0  0  0  0  0  0  0  0  0
   -5.1729    5.3368  -18.1935 C   0  0  0  0  0  0  0  0  0  0  0  0
   -4.2483    5.5487  -17.2621 C   0  0  0  0  0  0  0  0  0  0  0  0
   -4.7920    5.5956  -15.8604 C   0  0  1  0  0  0  0  0  0  0  0  0
   -4.1724    4.4733  -15.0197 C   0  0  0  0  0  0  0  0  0  0  0  0
   -4.3720    6.7987  -15.2245 O   0  0  0  0  0  0  0  0  0  0  0  0
   -5.0966    8.0082  -15.3752 C   0  0  0  0  0  0  0  0  0  0  0  0
   -4.6956    8.8999  -14.2010 C   0  0  0  0  0  0  0  0  0  0  0  0
   -4.8101    8.7366  -16.6817 C   0  0  0  0  0  0  0  0  0  0  0  0
   -6.2750    5.2944  -16.1546 C   0  0  0  0  0  0  0  0  0  0  0  0
   -7.3693    5.0696  -15.3187 C   0  0  0  0  0  0  0  0  0  0  0  0
   -7.3944    5.4689  -13.8913 C   0  0  0  0  0  0  0  0  0  0  0  0
   -7.1288    6.5757  -13.6389 O   0  0  0  0  0  0  0  0  0  0  0  0
   -7.8818    4.3241  -12.9783 N   0  0  0  0  0  0  0  0  0  0  0  0
   -8.0477    4.2776  -11.5977 C   0  0  0  0  0  0  0  0  0  0  0  0
   -7.8611    5.4328  -10.8194 C   0  0  0  0  0  0  0  0  0  0  0  0
   -8.0550    5.4052   -9.4365 C   0  0  0  0  0  0  0  0  0  0  0  0
   -8.4260    4.2084   -8.8543 C   0  0  0  0  0  0  0  0  0  0  0  0
   -8.6087    3.0651   -9.6210 C   0  0  0  0  0  0  0  0  0  0  0  0
   -8.4309    3.0792  -10.9960 C   0  0  0  0  0  0  0  0  0  0  0  0
   -8.9687    1.9240   -8.7330 C   0  0  0  0  0  0  0  0  0  0  0  0
   -9.1229    2.4869   -7.3636 N   0  0  0  0  0  0  0  0  0  0  0  0
   -8.6762    3.8946   -7.4204 C   0  0  0  0  0  0  0  0  0  0  0  0
   -8.5748    4.6042  -15.8799 C   0  0  0  0  0  0  0  0  0  0  0  0
   -8.6770    4.3801  -17.2543 C   0  0  0  0  0  0  0  0  0  0  0  0
   -9.8265    3.9110  -17.7596 F   0  0  0  0  0  0  0  0  0  0  0  0
   -7.6176    4.6468  -18.1084 C   0  0  0  0  0  0  0  0  0  0  0  0
   -6.4332    5.0949  -17.5514 C   0  0  0  0  0  0  0  0  0  0  0  0
  1  2  1  0
  2  3  1  0
  4  3  1  6
  4  5  1  0
  5  6  1  0
  6  7  1  0
  7  8  2  0
  8  9  1  0
  9 10  1  1
  9 11  1  0
 11 12  1  0
 12 13  1  0
 12 14  1  0
  9 15  1  0
 15 16  2  0
 16 17  1  0
 17 18  2  0
 17 19  1  0
 19 20  1  0
 20 21  2  0
 21 22  1  0
 22 23  2  0
 23 24  1  0
 24 25  2  0
 24 26  1  0
 26 27  1  0
 27 28  1  0
 16 29  1  0
 29 30  2  0
 30 31  1  0
 30 32  1  0
 32 33  2  0
  8  4  1  0
 33 15  1  0
 33  7  1  0
 25 20  1  0
 28 23  1  0
M  END
>  <smiles>  (1769) 
C24981-P210

>  <fragmenstein_outcome>  (1769) 
acceptable

>  <inchikey>  (1769) 
WWHSZGIGTIDICT-UHFFFAOYSA-N

>  <fragmenstein_mode>  (1769) 
expansion

>  <HIPPO Pose ID>  (1769) 
22985

>  <Energy>  (1769) 
55.112055

>  <fragmenstein_error>  (1769) 


>  <tags>  (1769) 
{'openbind_xx01zvns2b_c1_fragmenstein', 'fragmenstein_placed'}

>  <ref_pdb>  (1769) 
175

>  <scratch_subdir>  (1769) 
/opt/xchem-fragalysis-2/maxwin/BulkDock/SCRATCH/511028/C24981-P210

>  <alias>  (1769) 
CCC[C@@H]1NCC2=C1[C@@](C)(OC(C)C)c1c(C(=O)Nc3ccc4c(c3)CNC4)cc(F)cc12

>  <HIPPO Compound ID>  (1769) 
24981

>  <fragmenstein_runtime>  (1769) 
6.095243

$$$$
CCc1ccc(N[C@@H]2CC[C@]3(CCC[C@H]3CN)C2)c(C(=O)Nc2ccc3c(c2)CNC3)c1
     RDKit          3D

 32 36  0  0  0  0  0  0  0  0999 V2000
   -9.6988    4.6138  -18.8446 C   0  0  0  0  0  0  0  0  0  0  0  0
   -9.5210    3.8921  -17.5352 C   0  0  0  0  0  0  0  0  0  0  0  0
   -8.2617    4.3404  -16.8560 C   0  0  0  0  0  0  0  0  0  0  0  0
   -7.0725    4.4664  -17.5783 C   0  0  0  0  0  0  0  0  0  0  0  0
   -5.9052    4.9082  -16.9624 C   0  0  0  0  0  0  0  0  0  0  0  0
   -5.8863    5.2611  -15.6107 C   0  0  0  0  0  0  0  0  0  0  0  0
   -4.7025    5.6216  -14.9507 N   0  0  0  0  0  0  0  0  0  0  0  0
   -3.5275    6.0648  -15.6886 C   0  0  2  0  0  0  0  0  0  0  0  0
   -2.3625    6.2903  -14.7127 C   0  0  0  0  0  0  0  0  0  0  0  0
   -1.7056    7.5848  -15.1711 C   0  0  0  0  0  0  0  0  0  0  0  0
   -2.8757    8.4489  -15.6383 C   0  0  1  0  0  0  0  0  0  0  0  0
   -3.6743    9.0806  -14.4820 C   0  0  0  0  0  0  0  0  0  0  0  0
   -4.3611   10.3131  -15.0704 C   0  0  0  0  0  0  0  0  0  0  0  0
   -3.7634   10.5360  -16.4577 C   0  0  0  0  0  0  0  0  0  0  0  0
   -2.5115    9.6522  -16.5377 C   0  0  1  0  0  0  0  0  0  0  0  0
   -1.2140   10.4208  -16.2070 C   0  0  0  0  0  0  0  0  0  0  0  0
   -1.1785   11.0815  -14.9108 N   0  0  0  0  0  0  0  0  0  0  0  0
   -3.7504    7.4173  -16.3902 C   0  0  0  0  0  0  0  0  0  0  0  0
   -7.0894    5.1069  -14.8880 C   0  0  0  0  0  0  0  0  0  0  0  0
   -7.1705    5.5389  -13.4692 C   0  0  0  0  0  0  0  0  0  0  0  0
   -6.8581    6.6340  -13.2043 O   0  0  0  0  0  0  0  0  0  0  0  0
   -7.7583    4.4195  -12.5764 N   0  0  0  0  0  0  0  0  0  0  0  0
   -7.9869    4.3843  -11.2048 C   0  0  0  0  0  0  0  0  0  0  0  0
   -7.7771    5.5198  -10.4065 C   0  0  0  0  0  0  0  0  0  0  0  0
   -8.0101    5.4798   -9.0289 C   0  0  0  0  0  0  0  0  0  0  0  0
   -8.4374    4.2889   -8.4732 C   0  0  0  0  0  0  0  0  0  0  0  0
   -8.6494    3.1659   -9.2623 C   0  0  0  0  0  0  0  0  0  0  0  0
   -8.4378    3.1939  -10.6314 C   0  0  0  0  0  0  0  0  0  0  0  0
   -9.1353    2.0466   -8.4098 C   0  0  0  0  0  0  0  0  0  0  0  0
   -9.0399    2.5185   -7.0017 N   0  0  0  0  0  0  0  0  0  0  0  0
   -8.7671    3.9716   -7.0566 C   0  0  0  0  0  0  0  0  0  0  0  0
   -8.2661    4.6589  -15.5010 C   0  0  0  0  0  0  0  0  0  0  0  0
  1  2  1  0
  2  3  1  0
  3  4  2  0
  4  5  1  0
  5  6  2  0
  6  7  1  0
  8  7  1  1
  8  9  1  0
  9 10  1  0
 11 10  1  1
 11 12  1  0
 12 13  1  0
 13 14  1  0
 14 15  1  0
 15 16  1  1
 16 17  1  0
 11 18  1  0
  6 19  1  0
 19 20  1  0
 20 21  2  0
 20 22  1  0
 22 23  1  0
 23 24  2  0
 24 25  1  0
 25 26  2  0
 26 27  1  0
 27 28  2  0
 27 29  1  0
 29 30  1  0
 30 31  1  0
 19 32  2  0
 32  3  1  0
 18  8  1  0
 28 23  1  0
 15 11  1  0
 31 26  1  0
M  END
>  <smiles>  (1770) 
C25052-P211

>  <fragmenstein_outcome>  (1770) 
acceptable

>  <inchikey>  (1770) 
BLOBKGKKFLONIX-UHFFFAOYSA-N

>  <fragmenstein_mode>  (1770) 
expansion

>  <HIPPO Pose ID>  (1770) 
23027

>  <Energy>  (1770) 
107.332934

>  <fragmenstein_error>  (1770) 


>  <tags>  (1770) 
{'openbind_xx01zvns2b_c1_fragmenstein', 'fragmenstein_placed'}

>  <ref_pdb>  (1770) 
175

>  <scratch_subdir>  (1770) 
/opt/xchem-fragalysis-2/maxwin/BulkDock/SCRATCH/511028/C25052-P211

>  <alias>  (1770) 
CCc1ccc(N[C@@H]2CC[C@]3(CCC[C@H]3CN)C2)c(C(=O)Nc2ccc3c(c2)CNC3)c1

>  <HIPPO Compound ID>  (1770) 
25052

>  <fragmenstein_runtime>  (1770) 
20.531158

$$$$
NN1C(=O)Cc2c(C(Nc3ccc4c(c3)CNCC4)=C(F)F)cccc21
     RDKit          3D

 26 29  0  0  0  0  0  0  0  0999 V2000
   -5.1758    5.1618  -19.2993 N   0  0  0  0  0  0  0  0  0  0  0  0
   -5.3566    5.0554  -17.9233 N   0  0  0  0  0  0  0  0  0  0  0  0
   -4.3269    5.2353  -16.9816 C   0  0  0  0  0  0  0  0  0  0  0  0
   -3.1302    5.4012  -17.1793 O   0  0  0  0  0  0  0  0  0  0  0  0
   -4.9929    5.1837  -15.6003 C   0  0  0  0  0  0  0  0  0  0  0  0
   -6.4301    4.8776  -15.9167 C   0  0  0  0  0  0  0  0  0  0  0  0
   -7.5205    4.7179  -15.0659 C   0  0  0  0  0  0  0  0  0  0  0  0
   -7.5123    5.0678  -13.6182 C   0  0  0  0  0  0  0  0  0  0  0  0
   -7.8692    4.0635  -12.7259 N   0  0  0  0  0  0  0  0  0  0  0  0
   -7.8261    4.0419  -11.3132 C   0  0  0  0  0  0  0  0  0  0  0  0
   -7.1052    4.9647  -10.5501 C   0  0  0  0  0  0  0  0  0  0  0  0
   -7.2382    5.0529   -9.1620 C   0  0  0  0  0  0  0  0  0  0  0  0
   -8.0498    4.1564   -8.4779 C   0  0  0  0  0  0  0  0  0  0  0  0
   -8.6786    3.1315   -9.1951 C   0  0  0  0  0  0  0  0  0  0  0  0
   -8.5920    3.1055  -10.6051 C   0  0  0  0  0  0  0  0  0  0  0  0
   -9.5198    2.1204   -8.4610 C   0  0  0  0  0  0  0  0  0  0  0  0
   -9.1913    1.9802   -7.0401 N   0  0  0  0  0  0  0  0  0  0  0  0
   -9.2224    3.2875   -6.3934 C   0  0  0  0  0  0  0  0  0  0  0  0
   -8.1868    4.2517   -6.9800 C   0  0  0  0  0  0  0  0  0  0  0  0
   -7.3377    6.3885  -13.3995 C   0  0  0  0  0  0  0  0  0  0  0  0
   -7.5787    6.9595  -12.2019 F   0  0  0  0  0  0  0  0  0  0  0  0
   -7.0268    7.2248  -14.4165 F   0  0  0  0  0  0  0  0  0  0  0  0
   -8.7433    4.3768  -15.6702 C   0  0  0  0  0  0  0  0  0  0  0  0
   -8.8785    4.2457  -17.0631 C   0  0  0  0  0  0  0  0  0  0  0  0
   -7.7899    4.4746  -17.8994 C   0  0  0  0  0  0  0  0  0  0  0  0
   -6.5812    4.7873  -17.3070 C   0  0  0  0  0  0  0  0  0  0  0  0
  1  2  1  0
  2  3  1  0
  3  4  2  0
  3  5  1  0
  5  6  1  0
  6  7  2  0
  7  8  1  0
  8  9  1  0
  9 10  1  0
 10 11  2  0
 11 12  1  0
 12 13  2  0
 13 14  1  0
 14 15  2  0
 14 16  1  0
 16 17  1  0
 17 18  1  0
 18 19  1  0
  8 20  2  3
 20 21  1  0
 20 22  1  0
  7 23  1  0
 23 24  2  0
 24 25  1  0
 25 26  2  0
 26  2  1  0
 26  6  1  0
 15 10  1  0
 19 13  1  0
M  END
>  <smiles>  (1771) 
C25094-P211

>  <fragmenstein_outcome>  (1771) 
acceptable

>  <inchikey>  (1771) 
YSQDQRXHUCFBDI-UHFFFAOYSA-N

>  <fragmenstein_mode>  (1771) 
expansion

>  <HIPPO Pose ID>  (1771) 
23035

>  <Energy>  (1771) 
134.699575

>  <fragmenstein_error>  (1771) 


>  <tags>  (1771) 
{'openbind_xx01zvns2b_c1_fragmenstein', 'fragmenstein_placed'}

>  <ref_pdb>  (1771) 
175

>  <scratch_subdir>  (1771) 
/opt/xchem-fragalysis-2/maxwin/BulkDock/SCRATCH/511028/C25094-P211

>  <alias>  (1771) 
NN1C(=O)Cc2c(C(Nc3ccc4c(c3)CNCC4)=C(F)F)cccc21

>  <HIPPO Compound ID>  (1771) 
25094

>  <fragmenstein_runtime>  (1771) 
6.899505

$$$$
NN1C(=O)Cc2c(C(=O)Nc3ccc4c(c3)CNCC4)cccc21
     RDKit          3D

 24 27  0  0  0  0  0  0  0  0999 V2000
   -5.3286    4.9540  -19.4218 N   0  0  0  0  0  0  0  0  0  0  0  0
   -5.4664    5.0939  -18.0469 N   0  0  0  0  0  0  0  0  0  0  0  0
   -4.3901    5.3576  -17.1783 C   0  0  0  0  0  0  0  0  0  0  0  0
   -3.2133    5.5168  -17.4745 O   0  0  0  0  0  0  0  0  0  0  0  0
   -4.9794    5.4242  -15.7639 C   0  0  0  0  0  0  0  0  0  0  0  0
   -6.4189    5.0610  -15.9826 C   0  0  0  0  0  0  0  0  0  0  0  0
   -7.4463    4.9029  -15.0663 C   0  0  0  0  0  0  0  0  0  0  0  0
   -7.2694    5.2906  -13.6433 C   0  0  0  0  0  0  0  0  0  0  0  0
   -6.8128    6.3446  -13.4258 O   0  0  0  0  0  0  0  0  0  0  0  0
   -7.8175    4.2139  -12.6730 N   0  0  0  0  0  0  0  0  0  0  0  0
   -7.9988    4.2484  -11.2884 C   0  0  0  0  0  0  0  0  0  0  0  0
   -7.7219    5.3964  -10.5489 C   0  0  0  0  0  0  0  0  0  0  0  0
   -7.9515    5.4223   -9.1696 C   0  0  0  0  0  0  0  0  0  0  0  0
   -8.4439    4.2911   -8.5086 C   0  0  0  0  0  0  0  0  0  0  0  0
   -8.7163    3.1282   -9.2449 C   0  0  0  0  0  0  0  0  0  0  0  0
   -8.4881    3.1154  -10.6340 C   0  0  0  0  0  0  0  0  0  0  0  0
   -9.2010    1.8861   -8.5355 C   0  0  0  0  0  0  0  0  0  0  0  0
   -9.9878    2.1844   -7.3280 N   0  0  0  0  0  0  0  0  0  0  0  0
   -9.1936    3.0082   -6.4201 C   0  0  0  0  0  0  0  0  0  0  0  0
   -8.7434    4.3442   -7.0305 C   0  0  0  0  0  0  0  0  0  0  0  0
   -8.7038    4.5148  -15.5434 C   0  0  0  0  0  0  0  0  0  0  0  0
   -8.9200    4.2940  -16.9144 C   0  0  0  0  0  0  0  0  0  0  0  0
   -7.8849    4.4733  -17.8323 C   0  0  0  0  0  0  0  0  0  0  0  0
   -6.6488    4.8569  -17.3452 C   0  0  0  0  0  0  0  0  0  0  0  0
  1  2  1  0
  2  3  1  0
  3  4  2  0
  3  5  1  0
  5  6  1  0
  6  7  2  0
  7  8  1  0
  8  9  2  0
  8 10  1  0
 10 11  1  0
 11 12  2  0
 12 13  1  0
 13 14  2  0
 14 15  1  0
 15 16  2  0
 15 17  1  0
 17 18  1  0
 18 19  1  0
 19 20  1  0
  7 21  1  0
 21 22  2  0
 22 23  1  0
 23 24  2  0
 24  2  1  0
 24  6  1  0
 16 11  1  0
 20 14  1  0
M  END
>  <smiles>  (1772) 
C25103-P211

>  <fragmenstein_outcome>  (1772) 
acceptable

>  <inchikey>  (1772) 
HCWSPXYXXFGVPD-UHFFFAOYSA-N

>  <fragmenstein_mode>  (1772) 
expansion

>  <HIPPO Pose ID>  (1772) 
23040

>  <Energy>  (1772) 
107.387681

>  <fragmenstein_error>  (1772) 


>  <tags>  (1772) 
{'openbind_xx01zvns2b_c1_fragmenstein', 'fragmenstein_placed'}

>  <ref_pdb>  (1772) 
175

>  <scratch_subdir>  (1772) 
/opt/xchem-fragalysis-2/maxwin/BulkDock/SCRATCH/511028/C25103-P211

>  <alias>  (1772) 
NN1C(=O)Cc2c(C(=O)Nc3ccc4c(c3)CNCC4)cccc21

>  <HIPPO Compound ID>  (1772) 
29229

>  <fragmenstein_runtime>  (1772) 
5.342111

$$$$
O=C(Nc1ccc2c(c1)CNCC2)c1cccc2c1C1(CCNCC1)C(=O)N2
     RDKit          3D

 28 32  0  0  0  0  0  0  0  0999 V2000
   -6.2593    3.4751  -13.4709 O   0  0  0  0  0  0  0  0  0  0  0  0
   -6.9922    4.3588  -13.6664 C   0  0  0  0  0  0  0  0  0  0  0  0
   -7.8494    5.1807  -12.6855 N   0  0  0  0  0  0  0  0  0  0  0  0
   -8.0501    5.0313  -11.3186 C   0  0  0  0  0  0  0  0  0  0  0  0
   -8.2774    6.1364  -10.5103 C   0  0  0  0  0  0  0  0  0  0  0  0
   -8.4799    5.9557   -9.1375 C   0  0  0  0  0  0  0  0  0  0  0  0
   -8.5843    4.6671   -8.5902 C   0  0  0  0  0  0  0  0  0  0  0  0
   -8.4403    3.5504   -9.4221 C   0  0  0  0  0  0  0  0  0  0  0  0
   -8.1112    3.7434  -10.7745 C   0  0  0  0  0  0  0  0  0  0  0  0
   -8.7529    2.1573   -8.9261 C   0  0  0  0  0  0  0  0  0  0  0  0
   -8.8708    1.9974   -7.4757 N   0  0  0  0  0  0  0  0  0  0  0  0
   -9.5018    3.1172   -6.8100 C   0  0  0  0  0  0  0  0  0  0  0  0
   -8.8178    4.4561   -7.1160 C   0  0  0  0  0  0  0  0  0  0  0  0
   -7.2588    4.7378  -15.0800 C   0  0  0  0  0  0  0  0  0  0  0  0
   -8.5496    4.4176  -15.5538 C   0  0  0  0  0  0  0  0  0  0  0  0
   -8.8430    4.3714  -16.9254 C   0  0  0  0  0  0  0  0  0  0  0  0
   -7.8427    4.6233  -17.8547 C   0  0  0  0  0  0  0  0  0  0  0  0
   -6.5977    4.9725  -17.3698 C   0  0  0  0  0  0  0  0  0  0  0  0
   -6.2844    5.0794  -16.0046 C   0  0  0  0  0  0  0  0  0  0  0  0
   -4.8584    5.5947  -15.8889 C   0  0  0  0  0  0  0  0  0  0  0  0
   -3.9328    4.9913  -14.8334 C   0  0  0  0  0  0  0  0  0  0  0  0
   -2.5928    5.7300  -14.7384 C   0  0  0  0  0  0  0  0  0  0  0  0
   -2.7610    7.1748  -14.5586 N   0  0  0  0  0  0  0  0  0  0  0  0
   -3.5547    7.7688  -15.6241 C   0  0  0  0  0  0  0  0  0  0  0  0
   -4.9352    7.1273  -15.6960 C   0  0  0  0  0  0  0  0  0  0  0  0
   -4.3463    5.3277  -17.3380 C   0  0  0  0  0  0  0  0  0  0  0  0
   -3.1892    5.3037  -17.7289 O   0  0  0  0  0  0  0  0  0  0  0  0
   -5.4647    5.1725  -18.1434 N   0  0  0  0  0  0  0  0  0  0  0  0
  1  2  2  0
  2  3  1  0
  3  4  1  0
  4  5  2  0
  5  6  1  0
  6  7  2  0
  7  8  1  0
  8  9  2  0
  8 10  1  0
 10 11  1  0
 11 12  1  0
 12 13  1  0
  2 14  1  0
 14 15  2  0
 15 16  1  0
 16 17  2  0
 17 18  1  0
 18 19  2  0
 19 20  1  0
 20 21  1  0
 21 22  1  0
 22 23  1  0
 23 24  1  0
 24 25  1  0
 20 26  1  0
 26 27  2  0
 26 28  1  0
  9  4  1  0
 19 14  1  0
 25 20  1  0
 13  7  1  0
 28 18  1  0
M  END
>  <smiles>  (1773) 
C25106-P211

>  <fragmenstein_outcome>  (1773) 
acceptable

>  <inchikey>  (1773) 
BSSHLOXEBAWNFD-UHFFFAOYSA-N

>  <fragmenstein_mode>  (1773) 
expansion

>  <HIPPO Pose ID>  (1773) 
23041

>  <Energy>  (1773) 
61.626607

>  <fragmenstein_error>  (1773) 


>  <tags>  (1773) 
{'openbind_xx01zvns2b_c1_fragmenstein', 'fragmenstein_placed'}

>  <ref_pdb>  (1773) 
175

>  <scratch_subdir>  (1773) 
/opt/xchem-fragalysis-2/maxwin/BulkDock/SCRATCH/511028/C25106-P211

>  <alias>  (1773) 
O=C(Nc1ccc2c(c1)CNCC2)c1cccc2c1C1(CCNCC1)C(=O)N2

>  <HIPPO Compound ID>  (1773) 
25106

>  <fragmenstein_runtime>  (1773) 
6.467739

$$$$
C=CN1C(=O)Cc2c(C(=O)Nc3ccc4c(c3)CNCC4)cccc21
     RDKit          3D

 25 28  0  0  0  0  0  0  0  0999 V2000
   -3.7724    5.5396  -19.9967 C   0  0  0  0  0  0  0  0  0  0  0  0
   -4.9545    5.2372  -19.4478 C   0  0  0  0  0  0  0  0  0  0  0  0
   -5.2348    5.1718  -18.1001 N   0  0  0  0  0  0  0  0  0  0  0  0
   -4.3170    5.4442  -17.0542 C   0  0  0  0  0  0  0  0  0  0  0  0
   -3.1072    5.6217  -17.1153 O   0  0  0  0  0  0  0  0  0  0  0  0
   -5.1028    5.4936  -15.7488 C   0  0  0  0  0  0  0  0  0  0  0  0
   -6.4711    5.0817  -16.1686 C   0  0  0  0  0  0  0  0  0  0  0  0
   -7.6052    4.9039  -15.3932 C   0  0  0  0  0  0  0  0  0  0  0  0
   -7.6259    5.4149  -14.0064 C   0  0  0  0  0  0  0  0  0  0  0  0
   -7.3718    6.5450  -13.8560 O   0  0  0  0  0  0  0  0  0  0  0  0
   -8.0584    4.3413  -12.9841 N   0  0  0  0  0  0  0  0  0  0  0  0
   -8.1733    4.4065  -11.5966 C   0  0  0  0  0  0  0  0  0  0  0  0
   -7.9509    5.6076  -10.9243 C   0  0  0  0  0  0  0  0  0  0  0  0
   -8.0907    5.6779   -9.5386 C   0  0  0  0  0  0  0  0  0  0  0  0
   -8.4584    4.5447   -8.8066 C   0  0  0  0  0  0  0  0  0  0  0  0
   -8.6927    3.3331   -9.4754 C   0  0  0  0  0  0  0  0  0  0  0  0
   -8.5278    3.2677  -10.8721 C   0  0  0  0  0  0  0  0  0  0  0  0
   -9.0883    2.1051   -8.6912 C   0  0  0  0  0  0  0  0  0  0  0  0
   -9.8134    2.4197   -7.4508 N   0  0  0  0  0  0  0  0  0  0  0  0
   -9.0368    3.3371   -6.6214 C   0  0  0  0  0  0  0  0  0  0  0  0
   -8.6744    4.6538   -7.3190 C   0  0  0  0  0  0  0  0  0  0  0  0
   -8.7694    4.4344  -16.0038 C   0  0  0  0  0  0  0  0  0  0  0  0
   -8.7942    4.1965  -17.3855 C   0  0  0  0  0  0  0  0  0  0  0  0
   -7.6582    4.4350  -18.1663 C   0  0  0  0  0  0  0  0  0  0  0  0
   -6.5013    4.8761  -17.5429 C   0  0  0  0  0  0  0  0  0  0  0  0
  1  2  2  0
  2  3  1  0
  3  4  1  0
  4  5  2  0
  4  6  1  0
  6  7  1  0
  7  8  2  0
  8  9  1  0
  9 10  2  0
  9 11  1  0
 11 12  1  0
 12 13  2  0
 13 14  1  0
 14 15  2  0
 15 16  1  0
 16 17  2  0
 16 18  1  0
 18 19  1  0
 19 20  1  0
 20 21  1  0
  8 22  1  0
 22 23  2  0
 23 24  1  0
 24 25  2  0
 25  3  1  0
 25  7  1  0
 17 12  1  0
 21 15  1  0
M  END
>  <smiles>  (1774) 
C25110-P211

>  <fragmenstein_outcome>  (1774) 
acceptable

>  <inchikey>  (1774) 
XOAKPUGCZYUXPB-UHFFFAOYSA-N

>  <fragmenstein_mode>  (1774) 
expansion

>  <HIPPO Pose ID>  (1774) 
23043

>  <Energy>  (1774) 
84.214238

>  <fragmenstein_error>  (1774) 


>  <tags>  (1774) 
{'openbind_xx01zvns2b_c1_fragmenstein', 'fragmenstein_placed'}

>  <ref_pdb>  (1774) 
175

>  <scratch_subdir>  (1774) 
/opt/xchem-fragalysis-2/maxwin/BulkDock/SCRATCH/511028/C25110-P211

>  <alias>  (1774) 
C=CN1C(=O)Cc2c(C(=O)Nc3ccc4c(c3)CNCC4)cccc21

>  <HIPPO Compound ID>  (1774) 
27336

>  <fragmenstein_runtime>  (1774) 
5.52817

$$$$
CCN1C(=O)[C@@H]([C@H]2CCOC2)c2c(C(=O)Nc3ccc4c(c3)CNCC4)ccc(Cl)c21
     RDKit          3D

 31 35  0  0  0  0  0  0  0  0999 V2000
   -5.3936    6.3962  -19.6710 C   0  0  0  0  0  0  0  0  0  0  0  0
   -5.1522    5.0201  -19.0709 C   0  0  0  0  0  0  0  0  0  0  0  0
   -5.2861    5.0401  -17.6294 N   0  0  0  0  0  0  0  0  0  0  0  0
   -4.1915    5.2109  -16.7864 C   0  0  0  0  0  0  0  0  0  0  0  0
   -3.0101    5.1311  -17.0955 O   0  0  0  0  0  0  0  0  0  0  0  0
   -4.7358    5.6354  -15.4027 C   0  0  1  0  0  0  0  0  0  0  0  0
   -4.1716    7.0600  -15.2033 C   0  0  1  0  0  0  0  0  0  0  0  0
   -4.1804    8.0029  -16.4020 C   0  0  0  0  0  0  0  0  0  0  0  0
   -3.7096    9.2953  -15.7718 C   0  0  0  0  0  0  0  0  0  0  0  0
   -4.1762    9.2822  -14.4184 O   0  0  0  0  0  0  0  0  0  0  0  0
   -4.7598    7.9864  -14.1608 C   0  0  0  0  0  0  0  0  0  0  0  0
   -6.2139    5.3442  -15.5533 C   0  0  0  0  0  0  0  0  0  0  0  0
   -7.2229    5.2090  -14.5938 C   0  0  0  0  0  0  0  0  0  0  0  0
   -7.0972    5.5256  -13.1480 C   0  0  0  0  0  0  0  0  0  0  0  0
   -6.7215    6.5889  -12.8570 O   0  0  0  0  0  0  0  0  0  0  0  0
   -7.6036    4.3658  -12.2625 N   0  0  0  0  0  0  0  0  0  0  0  0
   -7.8341    4.3099  -10.8904 C   0  0  0  0  0  0  0  0  0  0  0  0
   -7.6689    5.4410  -10.0934 C   0  0  0  0  0  0  0  0  0  0  0  0
   -7.9990    5.4049   -8.7382 C   0  0  0  0  0  0  0  0  0  0  0  0
   -8.4872    4.2293   -8.1635 C   0  0  0  0  0  0  0  0  0  0  0  0
   -8.6146    3.0740   -8.9508 C   0  0  0  0  0  0  0  0  0  0  0  0
   -8.3069    3.1287  -10.3215 C   0  0  0  0  0  0  0  0  0  0  0  0
   -9.1263    1.7854   -8.3553 C   0  0  0  0  0  0  0  0  0  0  0  0
   -9.1717    1.7460   -6.8903 N   0  0  0  0  0  0  0  0  0  0  0  0
   -9.7126    2.9814   -6.3435 C   0  0  0  0  0  0  0  0  0  0  0  0
   -8.8309    4.1819   -6.6974 C   0  0  0  0  0  0  0  0  0  0  0  0
   -8.5097    4.8255  -15.0039 C   0  0  0  0  0  0  0  0  0  0  0  0
   -8.7740    4.5146  -16.3322 C   0  0  0  0  0  0  0  0  0  0  0  0
   -7.7616    4.5850  -17.2845 C   0  0  0  0  0  0  0  0  0  0  0  0
   -8.1886    4.0144  -18.8314 Cl  0  0  0  0  0  0  0  0  0  0  0  0
   -6.4872    4.9984  -16.8948 C   0  0  0  0  0  0  0  0  0  0  0  0
  1  2  1  0
  2  3  1  0
  3  4  1  0
  4  5  2  0
  6  4  1  6
  6  7  1  0
  7  8  1  6
  8  9  1  0
  9 10  1  0
 10 11  1  0
  6 12  1  0
 12 13  2  0
 13 14  1  0
 14 15  2  0
 14 16  1  0
 16 17  1  0
 17 18  2  0
 18 19  1  0
 19 20  2  0
 20 21  1  0
 21 22  2  0
 21 23  1  0
 23 24  1  0
 24 25  1  0
 25 26  1  0
 13 27  1  0
 27 28  2  0
 28 29  1  0
 29 30  1  0
 29 31  2  0
 31  3  1  0
 11  7  1  0
 31 12  1  0
 22 17  1  0
 26 20  1  0
M  END
>  <smiles>  (1775) 
C25128-P211

>  <fragmenstein_outcome>  (1775) 
acceptable

>  <inchikey>  (1775) 
JXZXZUDXAWXYSF-UHFFFAOYSA-N

>  <fragmenstein_mode>  (1775) 
expansion

>  <HIPPO Pose ID>  (1775) 
23047

>  <Energy>  (1775) 
94.87443

>  <fragmenstein_error>  (1775) 


>  <tags>  (1775) 
{'openbind_xx01zvns2b_c1_fragmenstein', 'fragmenstein_placed'}

>  <ref_pdb>  (1775) 
175

>  <scratch_subdir>  (1775) 
/opt/xchem-fragalysis-2/maxwin/BulkDock/SCRATCH/511028/C25128-P211

>  <alias>  (1775) 
CCN1C(=O)[C@@H]([C@H]2CCOC2)c2c(C(=O)Nc3ccc4c(c3)CNCC4)ccc(Cl)c21

>  <HIPPO Compound ID>  (1775) 
25128

>  <fragmenstein_runtime>  (1775) 
5.71535

$$$$
Cc1cc([C@](O)(F)Nc2ccc3c(c2)CNCC3)c2c3c1CCCNN3C(=O)C2
     RDKit          3D

 29 33  0  0  0  0  0  0  0  0999 V2000
   -9.2746    4.0893  -17.8296 C   0  0  0  0  0  0  0  0  0  0  0  0
   -8.0707    4.4824  -17.0132 C   0  0  0  0  0  0  0  0  0  0  0  0
   -8.2180    4.6331  -15.6114 C   0  0  0  0  0  0  0  0  0  0  0  0
   -7.1473    5.0115  -14.7710 C   0  0  0  0  0  0  0  0  0  0  0  0
   -7.3644    5.3215  -13.3080 C   0  0  2  0  0  0  0  0  0  0  0  0
   -8.3743    6.3039  -13.2579 O   0  0  0  0  0  0  0  0  0  0  0  0
   -6.2716    5.8920  -12.7364 F   0  0  0  0  0  0  0  0  0  0  0  0
   -7.7647    4.1831  -12.5239 N   0  0  0  0  0  0  0  0  0  0  0  0
   -8.0007    4.2431  -11.1481 C   0  0  0  0  0  0  0  0  0  0  0  0
   -7.6879    5.3540  -10.3507 C   0  0  0  0  0  0  0  0  0  0  0  0
   -7.9417    5.3754   -8.9761 C   0  0  0  0  0  0  0  0  0  0  0  0
   -8.4661    4.2535   -8.3403 C   0  0  0  0  0  0  0  0  0  0  0  0
   -8.7353    3.1065   -9.0966 C   0  0  0  0  0  0  0  0  0  0  0  0
   -8.4860    3.1085  -10.4854 C   0  0  0  0  0  0  0  0  0  0  0  0
   -9.2183    1.8535   -8.4104 C   0  0  0  0  0  0  0  0  0  0  0  0
   -9.9542    2.1147   -7.1640 N   0  0  0  0  0  0  0  0  0  0  0  0
   -9.1547    2.9389   -6.2642 C   0  0  0  0  0  0  0  0  0  0  0  0
   -8.7963    4.2985   -6.8706 C   0  0  0  0  0  0  0  0  0  0  0  0
   -5.9114    5.1877  -15.3871 C   0  0  0  0  0  0  0  0  0  0  0  0
   -5.7674    5.0476  -16.7685 C   0  0  0  0  0  0  0  0  0  0  0  0
   -6.8160    4.7196  -17.6099 C   0  0  0  0  0  0  0  0  0  0  0  0
   -6.5443    4.6319  -19.0858 C   0  0  0  0  0  0  0  0  0  0  0  0
   -5.8584    5.9017  -19.6303 C   0  0  0  0  0  0  0  0  0  0  0  0
   -4.3554    5.9914  -19.3685 C   0  0  0  0  0  0  0  0  0  0  0  0
   -3.8810    5.0447  -18.3744 N   0  0  0  0  0  0  0  0  0  0  0  0
   -4.4401    5.2962  -17.1254 N   0  0  0  0  0  0  0  0  0  0  0  0
   -3.6379    5.5084  -16.0100 C   0  0  0  0  0  0  0  0  0  0  0  0
   -2.4206    5.6227  -16.0233 O   0  0  0  0  0  0  0  0  0  0  0  0
   -4.5698    5.5371  -14.7973 C   0  0  0  0  0  0  0  0  0  0  0  0
  1  2  1  0
  2  3  2  0
  3  4  1  0
  4  5  1  0
  5  6  1  6
  5  7  1  0
  5  8  1  0
  8  9  1  0
  9 10  2  0
 10 11  1  0
 11 12  2  0
 12 13  1  0
 13 14  2  0
 13 15  1  0
 15 16  1  0
 16 17  1  0
 17 18  1  0
  4 19  2  0
 19 20  1  0
 20 21  2  0
 21 22  1  0
 22 23  1  0
 23 24  1  0
 24 25  1  0
 25 26  1  0
 26 27  1  0
 27 28  2  0
 27 29  1  0
 21  2  1  0
 14  9  1  0
 29 19  1  0
 18 12  1  0
 26 20  1  0
M  END
>  <smiles>  (1776) 
C25131-P211

>  <fragmenstein_outcome>  (1776) 
acceptable

>  <inchikey>  (1776) 
HFUPLTSCYGRNHS-UHFFFAOYSA-N

>  <fragmenstein_mode>  (1776) 
expansion

>  <HIPPO Pose ID>  (1776) 
23049

>  <Energy>  (1776) 
45.980438

>  <fragmenstein_error>  (1776) 


>  <tags>  (1776) 
{'openbind_xx01zvns2b_c1_fragmenstein', 'fragmenstein_placed'}

>  <ref_pdb>  (1776) 
175

>  <scratch_subdir>  (1776) 
/opt/xchem-fragalysis-2/maxwin/BulkDock/SCRATCH/511028/C25131-P211

>  <alias>  (1776) 
Cc1cc([C@](O)(F)Nc2ccc3c(c2)CNCC3)c2c3c1CCCNN3C(=O)C2

>  <HIPPO Compound ID>  (1776) 
25131

>  <fragmenstein_runtime>  (1776) 
5.112044

$$$$
CN1CCc2c(O)cc(NC(=O)c3cc(Cl)cc4c3CC(=O)N4NC(C)(C)CO)cc2C1
     RDKit          3D

 32 35  0  0  0  0  0  0  0  0999 V2000
  -10.1273    1.5385   -6.2769 C   0  0  0  0  0  0  0  0  0  0  0  0
   -9.8358    2.7335   -7.0612 N   0  0  0  0  0  0  0  0  0  0  0  0
   -8.9198    3.5802   -6.2950 C   0  0  0  0  0  0  0  0  0  0  0  0
   -8.6529    4.8901   -7.0253 C   0  0  0  0  0  0  0  0  0  0  0  0
   -8.4158    4.7368   -8.5046 C   0  0  0  0  0  0  0  0  0  0  0  0
   -7.9532    5.8042   -9.2729 C   0  0  0  0  0  0  0  0  0  0  0  0
   -7.7006    7.0389   -8.7422 O   0  0  0  0  0  0  0  0  0  0  0  0
   -7.7346    5.6616  -10.6369 C   0  0  0  0  0  0  0  0  0  0  0  0
   -8.0226    4.4566  -11.2758 C   0  0  0  0  0  0  0  0  0  0  0  0
   -7.8326    4.3435  -12.6507 N   0  0  0  0  0  0  0  0  0  0  0  0
   -7.1563    5.3044  -13.6517 C   0  0  0  0  0  0  0  0  0  0  0  0
   -6.5839    6.3059  -13.4709 O   0  0  0  0  0  0  0  0  0  0  0  0
   -7.2964    4.8739  -15.0579 C   0  0  0  0  0  0  0  0  0  0  0  0
   -8.5451    4.5843  -15.6145 C   0  0  0  0  0  0  0  0  0  0  0  0
   -8.6700    4.4457  -17.0065 C   0  0  0  0  0  0  0  0  0  0  0  0
  -10.1903    4.1250  -17.7129 Cl  0  0  0  0  0  0  0  0  0  0  0  0
   -7.5900    4.6297  -17.8578 C   0  0  0  0  0  0  0  0  0  0  0  0
   -6.3728    4.8939  -17.2769 C   0  0  0  0  0  0  0  0  0  0  0  0
   -6.2034    4.9743  -15.9011 C   0  0  0  0  0  0  0  0  0  0  0  0
   -4.7536    5.1884  -15.5888 C   0  0  0  0  0  0  0  0  0  0  0  0
   -4.0979    5.1190  -16.9731 C   0  0  0  0  0  0  0  0  0  0  0  0
   -2.8942    5.0807  -17.1803 O   0  0  0  0  0  0  0  0  0  0  0  0
   -5.1514    5.1070  -17.9065 N   0  0  0  0  0  0  0  0  0  0  0  0
   -5.0827    5.3257  -19.2747 N   0  0  0  0  0  0  0  0  0  0  0  0
   -4.4870    6.6021  -19.7057 C   0  0  0  0  0  0  0  0  0  0  0  0
   -4.9284    6.8750  -21.1579 C   0  0  0  0  0  0  0  0  0  0  0  0
   -2.9436    6.5387  -19.7489 C   0  0  0  0  0  0  0  0  0  0  0  0
   -4.9039    7.8276  -18.8428 C   0  0  0  0  0  0  0  0  0  0  0  0
   -6.3110    8.0318  -18.8539 O   0  0  0  0  0  0  0  0  0  0  0  0
   -8.5131    3.3835  -10.5345 C   0  0  0  0  0  0  0  0  0  0  0  0
   -8.7148    3.5171   -9.1457 C   0  0  0  0  0  0  0  0  0  0  0  0
   -9.2094    2.3343   -8.3398 C   0  0  0  0  0  0  0  0  0  0  0  0
  1  2  1  0
  2  3  1  0
  3  4  1  0
  4  5  1  0
  5  6  2  0
  6  7  1  0
  6  8  1  0
  8  9  2  0
  9 10  1  0
 10 11  1  0
 11 12  2  0
 11 13  1  0
 13 14  2  0
 14 15  1  0
 15 16  1  0
 15 17  2  0
 17 18  1  0
 18 19  2  0
 19 20  1  0
 20 21  1  0
 21 22  2  0
 21 23  1  0
 23 24  1  0
 24 25  1  0
 25 26  1  0
 25 27  1  0
 25 28  1  0
 28 29  1  0
  9 30  1  0
 30 31  2  0
 31 32  1  0
 32  2  1  0
 31  5  1  0
 19 13  1  0
 23 18  1  0
M  END
>  <smiles>  (1777) 
C25144-P211

>  <fragmenstein_outcome>  (1777) 
acceptable

>  <inchikey>  (1777) 
ZIKDKOTWAHPFIC-UHFFFAOYSA-N

>  <fragmenstein_mode>  (1777) 
expansion

>  <HIPPO Pose ID>  (1777) 
23050

>  <Energy>  (1777) 
115.993446

>  <fragmenstein_error>  (1777) 


>  <tags>  (1777) 
{'openbind_xx01zvns2b_c1_fragmenstein', 'fragmenstein_placed'}

>  <ref_pdb>  (1777) 
175

>  <scratch_subdir>  (1777) 
/opt/xchem-fragalysis-2/maxwin/BulkDock/SCRATCH/511028/C25144-P211

>  <alias>  (1777) 
CN1CCc2c(O)cc(NC(=O)c3cc(Cl)cc4c3CC(=O)N4NC(C)(C)CO)cc2C1

>  <HIPPO Compound ID>  (1777) 
25628

>  <fragmenstein_runtime>  (1777) 
11.529052

$$$$
O=C1Cc2c(C(=O)Nc3ccc4c(c3)CNCC4)cccc2C1=O
     RDKit          3D

 24 27  0  0  0  0  0  0  0  0999 V2000
   -3.4619    5.7819  -17.3687 O   0  0  0  0  0  0  0  0  0  0  0  0
   -4.6406    5.5339  -17.2352 C   0  0  0  0  0  0  0  0  0  0  0  0
   -5.4070    5.5904  -15.9529 C   0  0  0  0  0  0  0  0  0  0  0  0
   -6.7294    4.9810  -16.3251 C   0  0  0  0  0  0  0  0  0  0  0  0
   -7.7953    4.6965  -15.4773 C   0  0  0  0  0  0  0  0  0  0  0  0
   -7.7484    5.1637  -14.0654 C   0  0  0  0  0  0  0  0  0  0  0  0
   -7.3379    6.2424  -13.8848 O   0  0  0  0  0  0  0  0  0  0  0  0
   -8.2567    4.1038  -13.0613 N   0  0  0  0  0  0  0  0  0  0  0  0
   -8.2768    4.1134  -11.6658 C   0  0  0  0  0  0  0  0  0  0  0  0
   -7.9626    5.2749  -10.9647 C   0  0  0  0  0  0  0  0  0  0  0  0
   -8.0238    5.2956   -9.5707 C   0  0  0  0  0  0  0  0  0  0  0  0
   -8.4022    4.1530   -8.8583 C   0  0  0  0  0  0  0  0  0  0  0  0
   -8.7096    2.9763   -9.5551 C   0  0  0  0  0  0  0  0  0  0  0  0
   -8.6316    2.9612  -10.9601 C   0  0  0  0  0  0  0  0  0  0  0  0
   -9.1064    1.7443   -8.7814 C   0  0  0  0  0  0  0  0  0  0  0  0
   -9.8511    2.0612   -7.5601 N   0  0  0  0  0  0  0  0  0  0  0  0
   -9.0512    2.9198   -6.6937 C   0  0  0  0  0  0  0  0  0  0  0  0
   -8.5527    4.2154   -7.3576 C   0  0  0  0  0  0  0  0  0  0  0  0
   -8.9397    4.1103  -16.0266 C   0  0  0  0  0  0  0  0  0  0  0  0
   -9.0151    3.8349  -17.4070 C   0  0  0  0  0  0  0  0  0  0  0  0
   -7.9507    4.1347  -18.2595 C   0  0  0  0  0  0  0  0  0  0  0  0
   -6.8238    4.6969  -17.6950 C   0  0  0  0  0  0  0  0  0  0  0  0
   -5.5672    5.0790  -18.3502 C   0  0  0  0  0  0  0  0  0  0  0  0
   -5.2702    5.0555  -19.5210 O   0  0  0  0  0  0  0  0  0  0  0  0
  1  2  2  0
  2  3  1  0
  3  4  1  0
  4  5  2  0
  5  6  1  0
  6  7  2  0
  6  8  1  0
  8  9  1  0
  9 10  2  0
 10 11  1  0
 11 12  2  0
 12 13  1  0
 13 14  2  0
 13 15  1  0
 15 16  1  0
 16 17  1  0
 17 18  1  0
  5 19  1  0
 19 20  2  0
 20 21  1  0
 21 22  2  0
 22 23  1  0
 23 24  2  0
 23  2  1  0
 22  4  1  0
 14  9  1  0
 18 12  1  0
M  END
>  <smiles>  (1778) 
C25185-P212

>  <fragmenstein_outcome>  (1778) 
acceptable

>  <inchikey>  (1778) 
ODPISGJCCBMUFK-UHFFFAOYSA-N

>  <fragmenstein_mode>  (1778) 
expansion

>  <HIPPO Pose ID>  (1778) 
23057

>  <Energy>  (1778) 
104.153431

>  <fragmenstein_error>  (1778) 


>  <tags>  (1778) 
{'openbind_xx01zvns2b_c1_fragmenstein', 'fragmenstein_placed'}

>  <ref_pdb>  (1778) 
175

>  <scratch_subdir>  (1778) 
/opt/xchem-fragalysis-2/maxwin/BulkDock/SCRATCH/511028/C25185-P212

>  <alias>  (1778) 
O=C1Cc2c(C(=O)Nc3ccc4c(c3)CNCC4)cccc2C1=O

>  <HIPPO Compound ID>  (1778) 
23551

>  <fragmenstein_runtime>  (1778) 
4.212187

$$$$
O=C(Nc1ccc2c(c1)CNCC2)c1cc(F)cc2c1Cc1[nH]ncc1-2
     RDKit          3D

 26 30  0  0  0  0  0  0  0  0999 V2000
   -6.8432    6.2592  -13.7754 O   0  0  0  0  0  0  0  0  0  0  0  0
   -7.3706    5.2291  -13.9416 C   0  0  0  0  0  0  0  0  0  0  0  0
   -7.9389    4.2153  -12.9171 N   0  0  0  0  0  0  0  0  0  0  0  0
   -8.0574    4.2994  -11.5286 C   0  0  0  0  0  0  0  0  0  0  0  0
   -7.7082    5.4673  -10.8516 C   0  0  0  0  0  0  0  0  0  0  0  0
   -7.8103    5.5400   -9.4603 C   0  0  0  0  0  0  0  0  0  0  0  0
   -8.2622    4.4402   -8.7253 C   0  0  0  0  0  0  0  0  0  0  0  0
   -8.6118    3.2568   -9.3968 C   0  0  0  0  0  0  0  0  0  0  0  0
   -8.5211    3.2008  -10.8019 C   0  0  0  0  0  0  0  0  0  0  0  0
   -9.1629    2.0785   -8.6277 C   0  0  0  0  0  0  0  0  0  0  0  0
   -8.8189    2.0738   -7.2055 N   0  0  0  0  0  0  0  0  0  0  0  0
   -9.1149    3.3586   -6.5889 C   0  0  0  0  0  0  0  0  0  0  0  0
   -8.3137    4.5040   -7.2188 C   0  0  0  0  0  0  0  0  0  0  0  0
   -7.5294    4.7732  -15.3516 C   0  0  0  0  0  0  0  0  0  0  0  0
   -8.7210    4.2119  -15.8228 C   0  0  0  0  0  0  0  0  0  0  0  0
   -8.8881    3.9390  -17.1948 C   0  0  0  0  0  0  0  0  0  0  0  0
  -10.0512    3.4287  -17.6116 F   0  0  0  0  0  0  0  0  0  0  0  0
   -7.9101    4.2176  -18.1425 C   0  0  0  0  0  0  0  0  0  0  0  0
   -6.7427    4.7670  -17.6733 C   0  0  0  0  0  0  0  0  0  0  0  0
   -6.5321    5.0357  -16.2833 C   0  0  0  0  0  0  0  0  0  0  0  0
   -5.1314    5.6146  -16.0625 C   0  0  0  0  0  0  0  0  0  0  0  0
   -4.6766    5.6154  -17.4610 C   0  0  0  0  0  0  0  0  0  0  0  0
   -3.5617    5.9731  -18.1139 N   0  0  0  0  0  0  0  0  0  0  0  0
   -3.6927    5.8088  -19.4582 N   0  0  0  0  0  0  0  0  0  0  0  0
   -4.9428    5.3166  -19.6141 C   0  0  0  0  0  0  0  0  0  0  0  0
   -5.5735    5.1646  -18.3869 C   0  0  0  0  0  0  0  0  0  0  0  0
  1  2  2  0
  2  3  1  0
  3  4  1  0
  4  5  2  0
  5  6  1  0
  6  7  2  0
  7  8  1  0
  8  9  2  0
  8 10  1  0
 10 11  1  0
 11 12  1  0
 12 13  1  0
  2 14  1  0
 14 15  2  0
 15 16  1  0
 16 17  1  0
 16 18  2  0
 18 19  1  0
 19 20  2  0
 20 21  1  0
 21 22  1  0
 22 23  1  0
 23 24  1  0
 24 25  2  0
 25 26  1  0
  9  4  1  0
 20 14  1  0
 26 22  2  0
 13  7  1  0
 26 19  1  0
M  END
>  <smiles>  (1779) 
C25276-P212

>  <fragmenstein_outcome>  (1779) 
acceptable

>  <inchikey>  (1779) 
USHGIJHBECJXIQ-UHFFFAOYSA-N

>  <fragmenstein_mode>  (1779) 
expansion

>  <HIPPO Pose ID>  (1779) 
23076

>  <Energy>  (1779) 
72.478858

>  <fragmenstein_error>  (1779) 


>  <tags>  (1779) 
{'openbind_xx01zvns2b_c1_fragmenstein', 'fragmenstein_placed'}

>  <ref_pdb>  (1779) 
175

>  <scratch_subdir>  (1779) 
/opt/xchem-fragalysis-2/maxwin/BulkDock/SCRATCH/511028/C25276-P212

>  <alias>  (1779) 
O=C(Nc1ccc2c(c1)CNCC2)c1cc(F)cc2c1Cc1[nH]ncc1-2

>  <HIPPO Compound ID>  (1779) 
43423

>  <fragmenstein_runtime>  (1779) 
4.446369

$$$$
Cc1cc([C@H](Nc2ccc3c(c2)CNC3)C(=O)NCC(F)F)cc(C(F)(F)ON)c1
     RDKit          3D

 30 32  0  0  0  0  0  0  0  0999 V2000
  -10.0193    3.8265  -17.8918 C   0  0  0  0  0  0  0  0  0  0  0  0
   -8.7339    4.1902  -17.2409 C   0  0  0  0  0  0  0  0  0  0  0  0
   -8.6072    4.2021  -15.8497 C   0  0  0  0  0  0  0  0  0  0  0  0
   -7.4142    4.6037  -15.2391 C   0  0  0  0  0  0  0  0  0  0  0  0
   -7.1964    4.5627  -13.7185 C   0  0  2  0  0  0  0  0  0  0  0  0
   -8.4812    4.3596  -13.0007 N   0  0  0  0  0  0  0  0  0  0  0  0
   -8.4250    4.3152  -11.5940 C   0  0  0  0  0  0  0  0  0  0  0  0
   -8.2398    5.4929  -10.8436 C   0  0  0  0  0  0  0  0  0  0  0  0
   -8.2008    5.4716   -9.4474 C   0  0  0  0  0  0  0  0  0  0  0  0
   -8.3922    4.2614   -8.8106 C   0  0  0  0  0  0  0  0  0  0  0  0
   -8.5950    3.0958   -9.5348 C   0  0  0  0  0  0  0  0  0  0  0  0
   -8.5882    3.0979  -10.9204 C   0  0  0  0  0  0  0  0  0  0  0  0
   -8.8726    1.9673   -8.6022 C   0  0  0  0  0  0  0  0  0  0  0  0
   -8.7445    2.5208   -7.2270 N   0  0  0  0  0  0  0  0  0  0  0  0
   -8.5007    3.9723   -7.3553 C   0  0  0  0  0  0  0  0  0  0  0  0
   -6.4093    5.8456  -13.2231 C   0  0  0  0  0  0  0  0  0  0  0  0
   -6.5944    6.9188  -13.6549 O   0  0  0  0  0  0  0  0  0  0  0  0
   -5.3751    5.3461  -12.1643 N   0  0  0  0  0  0  0  0  0  0  0  0
   -4.4284    6.0827  -11.3573 C   0  0  0  0  0  0  0  0  0  0  0  0
   -3.6180    7.1168  -12.1320 C   0  0  0  0  0  0  0  0  0  0  0  0
   -2.7878    6.4901  -13.0079 F   0  0  0  0  0  0  0  0  0  0  0  0
   -2.8160    7.7968  -11.2698 F   0  0  0  0  0  0  0  0  0  0  0  0
   -6.3596    5.0033  -16.0820 C   0  0  0  0  0  0  0  0  0  0  0  0
   -6.4746    4.9945  -17.4836 C   0  0  0  0  0  0  0  0  0  0  0  0
   -5.3961    5.5438  -18.3704 C   0  0  0  0  0  0  0  0  0  0  0  0
   -5.2863    4.9474  -19.5904 F   0  0  0  0  0  0  0  0  0  0  0  0
   -5.5719    6.8768  -18.6252 F   0  0  0  0  0  0  0  0  0  0  0  0
   -4.1018    5.4115  -17.7279 O   0  0  0  0  0  0  0  0  0  0  0  0
   -2.9795    5.7527  -18.6293 N   0  0  0  0  0  0  0  0  0  0  0  0
   -7.6607    4.5496  -18.0529 C   0  0  0  0  0  0  0  0  0  0  0  0
  1  2  1  0
  2  3  2  0
  3  4  1  0
  4  5  1  0
  5  6  1  1
  6  7  1  0
  7  8  2  0
  8  9  1  0
  9 10  2  0
 10 11  1  0
 11 12  2  0
 11 13  1  0
 13 14  1  0
 14 15  1  0
  5 16  1  0
 16 17  2  0
 16 18  1  0
 18 19  1  0
 19 20  1  0
 20 21  1  0
 20 22  1  0
  4 23  2  0
 23 24  1  0
 24 25  1  0
 25 26  1  0
 25 27  1  0
 25 28  1  0
 28 29  1  0
 24 30  2  0
 30  2  1  0
 12  7  1  0
 15 10  1  0
M  END
>  <smiles>  (1780) 
C25304-P212

>  <fragmenstein_outcome>  (1780) 
acceptable

>  <inchikey>  (1780) 
JYTWBQYRCHTZAW-UHFFFAOYSA-N

>  <fragmenstein_mode>  (1780) 
expansion

>  <HIPPO Pose ID>  (1780) 
23085

>  <Energy>  (1780) 
237.193722

>  <fragmenstein_error>  (1780) 


>  <tags>  (1780) 
{'openbind_xx01zvns2b_c1_fragmenstein', 'fragmenstein_placed'}

>  <ref_pdb>  (1780) 
175

>  <scratch_subdir>  (1780) 
/opt/xchem-fragalysis-2/maxwin/BulkDock/SCRATCH/511028/C25304-P212

>  <alias>  (1780) 
Cc1cc([C@H](Nc2ccc3c(c2)CNC3)C(=O)NCC(F)F)cc(C(F)(F)ON)c1

>  <HIPPO Compound ID>  (1780) 
37341

>  <fragmenstein_runtime>  (1780) 
6.263581

$$$$
N#Cc1cc([C@@H](Nc2ccc3c(c2)CNC3)C(=O)NCC(F)F)cc(C(F)(F)F)c1
     RDKit          3D

 30 32  0  0  0  0  0  0  0  0999 V2000
  -11.2593    3.8456  -17.8582 N   0  0  0  0  0  0  0  0  0  0  0  0
  -10.1559    4.0044  -17.5521 C   0  0  0  0  0  0  0  0  0  0  0  0
   -8.8221    4.2338  -17.1231 C   0  0  0  0  0  0  0  0  0  0  0  0
   -8.5504    4.4004  -15.7614 C   0  0  0  0  0  0  0  0  0  0  0  0
   -7.2910    4.8411  -15.3230 C   0  0  0  0  0  0  0  0  0  0  0  0
   -7.0789    5.1205  -13.8286 C   0  0  1  0  0  0  0  0  0  0  0  0
   -7.6592    4.0163  -13.0531 N   0  0  0  0  0  0  0  0  0  0  0  0
   -7.8829    4.1139  -11.6737 C   0  0  0  0  0  0  0  0  0  0  0  0
   -7.8936    5.3266  -10.9561 C   0  0  0  0  0  0  0  0  0  0  0  0
   -8.1225    5.3672   -9.5730 C   0  0  0  0  0  0  0  0  0  0  0  0
   -8.4126    4.1860   -8.9229 C   0  0  0  0  0  0  0  0  0  0  0  0
   -8.4873    2.9910   -9.6233 C   0  0  0  0  0  0  0  0  0  0  0  0
   -8.2244    2.9391  -10.9831 C   0  0  0  0  0  0  0  0  0  0  0  0
   -8.8499    1.8908   -8.6803 C   0  0  0  0  0  0  0  0  0  0  0  0
   -9.2955    2.5765   -7.4352 N   0  0  0  0  0  0  0  0  0  0  0  0
   -8.6782    3.9190   -7.4806 C   0  0  0  0  0  0  0  0  0  0  0  0
   -5.5614    5.3219  -13.4378 C   0  0  0  0  0  0  0  0  0  0  0  0
   -4.7752    4.4600  -13.5216 O   0  0  0  0  0  0  0  0  0  0  0  0
   -5.3971    6.7937  -12.9527 N   0  0  0  0  0  0  0  0  0  0  0  0
   -4.2126    7.5273  -12.5635 C   0  0  0  0  0  0  0  0  0  0  0  0
   -3.6925    7.1471  -11.1802 C   0  0  0  0  0  0  0  0  0  0  0  0
   -2.4802    7.7304  -10.9859 F   0  0  0  0  0  0  0  0  0  0  0  0
   -4.5196    7.6648  -10.2334 F   0  0  0  0  0  0  0  0  0  0  0  0
   -6.3191    5.1036  -16.3033 C   0  0  0  0  0  0  0  0  0  0  0  0
   -6.5788    4.8992  -17.6741 C   0  0  0  0  0  0  0  0  0  0  0  0
   -5.5349    5.1780  -18.7180 C   0  0  0  0  0  0  0  0  0  0  0  0
   -5.6191    6.4309  -19.2398 F   0  0  0  0  0  0  0  0  0  0  0  0
   -4.2696    5.0838  -18.2165 F   0  0  0  0  0  0  0  0  0  0  0  0
   -5.5958    4.3281  -19.7700 F   0  0  0  0  0  0  0  0  0  0  0  0
   -7.8376    4.4557  -18.0764 C   0  0  0  0  0  0  0  0  0  0  0  0
  1  2  3  0
  2  3  1  0
  3  4  2  0
  4  5  1  0
  5  6  1  0
  6  7  1  1
  7  8  1  0
  8  9  2  0
  9 10  1  0
 10 11  2  0
 11 12  1  0
 12 13  2  0
 12 14  1  0
 14 15  1  0
 15 16  1  0
  6 17  1  0
 17 18  2  0
 17 19  1  0
 19 20  1  0
 20 21  1  0
 21 22  1  0
 21 23  1  0
  5 24  2  0
 24 25  1  0
 25 26  1  0
 26 27  1  0
 26 28  1  0
 26 29  1  0
 25 30  2  0
 30  3  1  0
 13  8  1  0
 16 11  1  0
M  END
>  <smiles>  (1781) 
C25313-P212

>  <fragmenstein_outcome>  (1781) 
acceptable

>  <inchikey>  (1781) 
ZMSNTGFVAQYYRC-UHFFFAOYSA-N

>  <fragmenstein_mode>  (1781) 
expansion

>  <HIPPO Pose ID>  (1781) 
23086

>  <Energy>  (1781) 
166.94412

>  <fragmenstein_error>  (1781) 


>  <tags>  (1781) 
{'openbind_xx01zvns2b_c1_fragmenstein', 'fragmenstein_placed'}

>  <ref_pdb>  (1781) 
175

>  <scratch_subdir>  (1781) 
/opt/xchem-fragalysis-2/maxwin/BulkDock/SCRATCH/511028/C25313-P212

>  <alias>  (1781) 
N#Cc1cc([C@@H](Nc2ccc3c(c2)CNC3)C(=O)NCC(F)F)cc(C(F)(F)F)c1

>  <HIPPO Compound ID>  (1781) 
31325

>  <fragmenstein_runtime>  (1781) 
11.503188

$$$$
Cc1cc([C@@H](F)N=[S@](C)(=O)c2ncc[nH]2)cc([C@@H](Nc2ccc3c(c2)CNC3)C(=O)NCC(F)F)c1
     RDKit          3D

 36 39  0  0  0  0  0  0  0  0999 V2000
   -9.8557    3.7750  -17.7971 C   0  0  0  0  0  0  0  0  0  0  0  0
   -8.5842    4.2261  -17.1712 C   0  0  0  0  0  0  0  0  0  0  0  0
   -7.5234    4.5567  -18.0120 C   0  0  0  0  0  0  0  0  0  0  0  0
   -6.3473    5.0901  -17.4907 C   0  0  0  0  0  0  0  0  0  0  0  0
   -5.2238    5.4325  -18.4313 C   0  0  1  0  0  0  0  0  0  0  0  0
   -5.6404    5.7061  -19.6956 F   0  0  0  0  0  0  0  0  0  0  0  0
   -4.3946    6.5470  -17.9829 N   0  0  0  0  0  0  0  0  0  0  0  0
   -4.7721    7.9753  -18.4008 S   0  0  2  0  0  0  0  0  0  0  0  0
   -3.8725    9.1156  -17.3856 C   0  0  0  0  0  0  0  0  0  0  0  0
   -6.0941    8.5234  -18.6441 O   0  0  0  0  0  0  0  0  0  0  0  0
   -3.9453    8.1028  -19.9702 C   0  0  0  0  0  0  0  0  0  0  0  0
   -2.9394    8.9123  -20.2645 N   0  0  0  0  0  0  0  0  0  0  0  0
   -2.6626    8.6856  -21.5890 C   0  0  0  0  0  0  0  0  0  0  0  0
   -3.5095    7.7394  -22.1132 C   0  0  0  0  0  0  0  0  0  0  0  0
   -4.3275    7.3834  -21.0777 N   0  0  0  0  0  0  0  0  0  0  0  0
   -6.2292    5.2238  -16.0976 C   0  0  0  0  0  0  0  0  0  0  0  0
   -7.2691    4.8668  -15.2207 C   0  0  0  0  0  0  0  0  0  0  0  0
   -7.1685    5.1367  -13.7150 C   0  0  1  0  0  0  0  0  0  0  0  0
   -7.9650    4.1457  -12.9649 N   0  0  0  0  0  0  0  0  0  0  0  0
   -8.1006    4.2125  -11.5794 C   0  0  0  0  0  0  0  0  0  0  0  0
   -7.8897    5.3974  -10.8445 C   0  0  0  0  0  0  0  0  0  0  0  0
   -8.0000    5.4302   -9.4507 C   0  0  0  0  0  0  0  0  0  0  0  0
   -8.3490    4.2676   -8.7969 C   0  0  0  0  0  0  0  0  0  0  0  0
   -8.6172    3.1066   -9.5049 C   0  0  0  0  0  0  0  0  0  0  0  0
   -8.5121    3.0654  -10.8864 C   0  0  0  0  0  0  0  0  0  0  0  0
   -9.0290    2.0331   -8.5586 C   0  0  0  0  0  0  0  0  0  0  0  0
   -8.7828    2.5700   -7.1913 N   0  0  0  0  0  0  0  0  0  0  0  0
   -8.5381    4.0215   -7.3426 C   0  0  0  0  0  0  0  0  0  0  0  0
   -5.6730    5.2500  -13.2037 C   0  0  0  0  0  0  0  0  0  0  0  0
   -5.0669    6.2452  -13.3166 O   0  0  0  0  0  0  0  0  0  0  0  0
   -5.2294    3.8552  -12.6834 N   0  0  0  0  0  0  0  0  0  0  0  0
   -3.9775    3.4240  -12.1070 C   0  0  0  0  0  0  0  0  0  0  0  0
   -3.7215    3.9183  -10.6846 C   0  0  0  0  0  0  0  0  0  0  0  0
   -4.6752    3.4730   -9.8340 F   0  0  0  0  0  0  0  0  0  0  0  0
   -3.7228    5.2716  -10.6213 F   0  0  0  0  0  0  0  0  0  0  0  0
   -8.4556    4.3722  -15.7866 C   0  0  0  0  0  0  0  0  0  0  0  0
  1  2  1  0
  2  3  2  0
  3  4  1  0
  4  5  1  0
  5  6  1  6
  5  7  1  0
  7  8  2  0
  8  9  1  1
  8 10  2  0
  8 11  1  0
 11 12  2  0
 12 13  1  0
 13 14  2  0
 14 15  1  0
  4 16  2  0
 16 17  1  0
 17 18  1  0
 18 19  1  1
 19 20  1  0
 20 21  2  0
 21 22  1  0
 22 23  2  0
 23 24  1  0
 24 25  2  0
 24 26  1  0
 26 27  1  0
 27 28  1  0
 18 29  1  0
 29 30  2  0
 29 31  1  0
 31 32  1  0
 32 33  1  0
 33 34  1  0
 33 35  1  0
 17 36  2  0
 36  2  1  0
 15 11  1  0
 25 20  1  0
 28 23  1  0
M  END
>  <smiles>  (1782) 
C25324-P212

>  <fragmenstein_outcome>  (1782) 
acceptable

>  <inchikey>  (1782) 
DFODLUPEKATRPW-UHFFFAOYSA-N

>  <fragmenstein_mode>  (1782) 
expansion

>  <HIPPO Pose ID>  (1782) 
23092

>  <Energy>  (1782) 
133.583333

>  <fragmenstein_error>  (1782) 


>  <tags>  (1782) 
{'openbind_xx01zvns2b_c1_fragmenstein', 'fragmenstein_placed'}

>  <ref_pdb>  (1782) 
175

>  <scratch_subdir>  (1782) 
/opt/xchem-fragalysis-2/maxwin/BulkDock/SCRATCH/511028/C25324-P212

>  <alias>  (1782) 
Cc1cc([C@@H](F)N=[S@](C)(=O)c2ncc[nH]2)cc([C@@H](Nc2ccc3c(c2)CNC3)C(=O)NCC(F)F)c1

>  <HIPPO Compound ID>  (1782) 
25324

>  <fragmenstein_runtime>  (1782) 
5.184839

$$$$
Cc1cc([C@H](Nc2ccc3c(c2)CNC3)C(=O)NCC(F)F)cc(C(C)(F)F)c1
     RDKit          3D

 29 31  0  0  0  0  0  0  0  0999 V2000
   -9.9162    4.3370  -17.8989 C   0  0  0  0  0  0  0  0  0  0  0  0
   -8.5947    4.4606  -17.2141 C   0  0  0  0  0  0  0  0  0  0  0  0
   -8.5032    4.4662  -15.8172 C   0  0  0  0  0  0  0  0  0  0  0  0
   -7.2696    4.6222  -15.1704 C   0  0  0  0  0  0  0  0  0  0  0  0
   -7.1077    4.6477  -13.6437 C   0  0  2  0  0  0  0  0  0  0  0  0
   -8.4038    4.4256  -12.9588 N   0  0  0  0  0  0  0  0  0  0  0  0
   -8.3805    4.3425  -11.5542 C   0  0  0  0  0  0  0  0  0  0  0  0
   -8.2527    5.5060  -10.7709 C   0  0  0  0  0  0  0  0  0  0  0  0
   -8.2673    5.4521   -9.3739 C   0  0  0  0  0  0  0  0  0  0  0  0
   -8.4561    4.2232   -8.7737 C   0  0  0  0  0  0  0  0  0  0  0  0
   -8.5825    3.0654   -9.5327 C   0  0  0  0  0  0  0  0  0  0  0  0
   -8.5172    3.1018  -10.9159 C   0  0  0  0  0  0  0  0  0  0  0  0
   -8.8281    1.9069   -8.6218 C   0  0  0  0  0  0  0  0  0  0  0  0
   -9.1844    2.5145   -7.3107 N   0  0  0  0  0  0  0  0  0  0  0  0
   -8.6069    3.8793   -7.3308 C   0  0  0  0  0  0  0  0  0  0  0  0
   -6.3918    5.9974  -13.2099 C   0  0  0  0  0  0  0  0  0  0  0  0
   -6.6148    7.0287  -13.7185 O   0  0  0  0  0  0  0  0  0  0  0  0
   -5.3405    5.6138  -12.1201 N   0  0  0  0  0  0  0  0  0  0  0  0
   -4.4193    6.4416  -11.3710 C   0  0  0  0  0  0  0  0  0  0  0  0
   -5.0770    7.4260  -10.4098 C   0  0  0  0  0  0  0  0  0  0  0  0
   -4.1658    8.3706  -10.0509 F   0  0  0  0  0  0  0  0  0  0  0  0
   -5.4243    6.7869   -9.2634 F   0  0  0  0  0  0  0  0  0  0  0  0
   -6.1241    4.7714  -15.9749 C   0  0  0  0  0  0  0  0  0  0  0  0
   -6.2025    4.7871  -17.3758 C   0  0  0  0  0  0  0  0  0  0  0  0
   -4.9859    5.0595  -18.2211 C   0  0  0  0  0  0  0  0  0  0  0  0
   -4.5543    6.5030  -18.0701 C   0  0  0  0  0  0  0  0  0  0  0  0
   -5.1802    4.8315  -19.5530 F   0  0  0  0  0  0  0  0  0  0  0  0
   -3.9003    4.3051  -17.8741 F   0  0  0  0  0  0  0  0  0  0  0  0
   -7.4428    4.6053  -17.9832 C   0  0  0  0  0  0  0  0  0  0  0  0
  1  2  1  0
  2  3  2  0
  3  4  1  0
  4  5  1  0
  5  6  1  1
  6  7  1  0
  7  8  2  0
  8  9  1  0
  9 10  2  0
 10 11  1  0
 11 12  2  0
 11 13  1  0
 13 14  1  0
 14 15  1  0
  5 16  1  0
 16 17  2  0
 16 18  1  0
 18 19  1  0
 19 20  1  0
 20 21  1  0
 20 22  1  0
  4 23  2  0
 23 24  1  0
 24 25  1  0
 25 26  1  0
 25 27  1  0
 25 28  1  0
 24 29  2  0
 29  2  1  0
 12  7  1  0
 15 10  1  0
M  END
>  <smiles>  (1783) 
C25393-P213

>  <fragmenstein_outcome>  (1783) 
acceptable

>  <inchikey>  (1783) 
WNJHKMIXZSISIQ-UHFFFAOYSA-N

>  <fragmenstein_mode>  (1783) 
expansion

>  <HIPPO Pose ID>  (1783) 
23119

>  <Energy>  (1783) 
159.853562

>  <fragmenstein_error>  (1783) 


>  <tags>  (1783) 
{'openbind_xx01zvns2b_c1_fragmenstein', 'fragmenstein_placed'}

>  <ref_pdb>  (1783) 
175

>  <scratch_subdir>  (1783) 
/opt/xchem-fragalysis-2/maxwin/BulkDock/SCRATCH/511028/C25393-P213

>  <alias>  (1783) 
Cc1cc([C@H](Nc2ccc3c(c2)CNC3)C(=O)NCC(F)F)cc(C(C)(F)F)c1

>  <HIPPO Compound ID>  (1783) 
37137

>  <fragmenstein_runtime>  (1783) 
4.752052

$$$$
C[C@@H]1C[C@@H]([C@@H](C(=O)NCC(F)F)C(=O)c2ccc3c(c2)CNC3)C[C@]2(CN[C@H](F)N2)C1
     RDKit          3D

 31 34  0  0  0  0  0  0  0  0999 V2000
  -10.1509    4.4471  -17.8251 C   0  0  0  0  0  0  0  0  0  0  0  0
   -8.7126    4.0756  -17.4469 C   0  0  2  0  0  0  0  0  0  0  0  0
   -8.4977    4.1963  -15.9383 C   0  0  0  0  0  0  0  0  0  0  0  0
   -7.3847    5.1474  -15.4839 C   0  0  1  0  0  0  0  0  0  0  0  0
   -7.0750    4.9199  -13.9573 C   0  0  1  0  0  0  0  0  0  0  0  0
   -5.8897    5.7790  -13.4874 C   0  0  0  0  0  0  0  0  0  0  0  0
   -4.9007    5.2990  -13.0945 O   0  0  0  0  0  0  0  0  0  0  0  0
   -6.2822    7.2698  -13.6647 N   0  0  0  0  0  0  0  0  0  0  0  0
   -5.5014    8.4749  -13.4837 C   0  0  0  0  0  0  0  0  0  0  0  0
   -6.2968    9.6459  -12.9262 C   0  0  0  0  0  0  0  0  0  0  0  0
   -7.2679    9.9903  -13.8152 F   0  0  0  0  0  0  0  0  0  0  0  0
   -5.4908   10.7296  -12.7999 F   0  0  0  0  0  0  0  0  0  0  0  0
   -8.2828    5.1874  -13.0652 C   0  0  0  0  0  0  0  0  0  0  0  0
   -9.2448    5.8533  -13.4532 O   0  0  0  0  0  0  0  0  0  0  0  0
   -8.2229    4.8178  -11.6303 C   0  0  0  0  0  0  0  0  0  0  0  0
   -8.1212    5.8838  -10.7130 C   0  0  0  0  0  0  0  0  0  0  0  0
   -8.1812    5.6504   -9.3397 C   0  0  0  0  0  0  0  0  0  0  0  0
   -8.3863    4.3518   -8.9141 C   0  0  0  0  0  0  0  0  0  0  0  0
   -8.4817    3.2922   -9.8185 C   0  0  0  0  0  0  0  0  0  0  0  0
   -8.3844    3.4998  -11.1900 C   0  0  0  0  0  0  0  0  0  0  0  0
   -8.7407    2.0340   -9.0479 C   0  0  0  0  0  0  0  0  0  0  0  0
   -9.1573    2.4832   -7.6924 N   0  0  0  0  0  0  0  0  0  0  0  0
   -8.5890    3.8382   -7.5268 C   0  0  0  0  0  0  0  0  0  0  0  0
   -6.1371    4.9596  -16.3674 C   0  0  0  0  0  0  0  0  0  0  0  0
   -6.3635    5.2465  -17.8709 C   0  0  1  0  0  0  0  0  0  0  0  0
   -6.0383    6.6973  -18.2658 C   0  0  0  0  0  0  0  0  0  0  0  0
   -4.5823    6.7585  -18.2824 N   0  0  0  0  0  0  0  0  0  0  0  0
   -4.1722    5.4405  -18.6947 C   0  0  2  0  0  0  0  0  0  0  0  0
   -3.7755    5.5510  -19.9848 F   0  0  0  0  0  0  0  0  0  0  0  0
   -5.3259    4.5779  -18.6799 N   0  0  0  0  0  0  0  0  0  0  0  0
   -7.7592    4.8470  -18.3596 C   0  0  0  0  0  0  0  0  0  0  0  0
  2  1  1  1
  2  3  1  0
  4  3  1  6
  4  5  1  0
  5  6  1  1
  6  7  2  0
  6  8  1  0
  8  9  1  0
  9 10  1  0
 10 11  1  0
 10 12  1  0
  5 13  1  0
 13 14  2  0
 13 15  1  0
 15 16  2  0
 16 17  1  0
 17 18  2  0
 18 19  1  0
 19 20  2  0
 19 21  1  0
 21 22  1  0
 22 23  1  0
  4 24  1  0
 25 24  1  1
 25 26  1  0
 26 27  1  0
 27 28  1  0
 28 29  1  6
 28 30  1  0
 25 31  1  0
 31  2  1  0
 20 15  1  0
 30 25  1  0
 23 18  1  0
M  END
>  <smiles>  (1784) 
C25412-P213

>  <fragmenstein_outcome>  (1784) 
acceptable

>  <inchikey>  (1784) 
GKBLFBVNYUVYOD-UHFFFAOYSA-N

>  <fragmenstein_mode>  (1784) 
expansion

>  <HIPPO Pose ID>  (1784) 
23139

>  <Energy>  (1784) 
44.205603

>  <fragmenstein_error>  (1784) 


>  <tags>  (1784) 
{'openbind_xx01zvns2b_c1_fragmenstein', 'fragmenstein_placed'}

>  <ref_pdb>  (1784) 
175

>  <scratch_subdir>  (1784) 
/opt/xchem-fragalysis-2/maxwin/BulkDock/SCRATCH/511028/C25412-P213

>  <alias>  (1784) 
C[C@@H]1C[C@@H]([C@@H](C(=O)NCC(F)F)C(=O)c2ccc3c(c2)CNC3)C[C@]2(CN[C@H](F)N2)C1

>  <HIPPO Compound ID>  (1784) 
25412

>  <fragmenstein_runtime>  (1784) 
6.901608

$$$$
CCc1c([C@@H](Nc2ccc3c(c2)CNC3)C(=O)NCC(F)(F)F)cc(C)cc1C(F)(F)F
     RDKit          3D

 32 34  0  0  0  0  0  0  0  0999 V2000
   -3.5258    5.3175  -16.1492 C   0  0  0  0  0  0  0  0  0  0  0  0
   -4.8471    5.7562  -15.5387 C   0  0  0  0  0  0  0  0  0  0  0  0
   -6.1678    5.3598  -16.1648 C   0  0  0  0  0  0  0  0  0  0  0  0
   -7.3150    5.1749  -15.3201 C   0  0  0  0  0  0  0  0  0  0  0  0
   -7.4576    5.5834  -13.8259 C   0  0  1  0  0  0  0  0  0  0  0  0
   -7.3326    4.3918  -12.9453 N   0  0  0  0  0  0  0  0  0  0  0  0
   -7.8972    4.3692  -11.6506 C   0  0  0  0  0  0  0  0  0  0  0  0
   -8.0619    5.5292  -10.8609 C   0  0  0  0  0  0  0  0  0  0  0  0
   -8.3414    5.4659   -9.4892 C   0  0  0  0  0  0  0  0  0  0  0  0
   -8.5238    4.2268   -8.9158 C   0  0  0  0  0  0  0  0  0  0  0  0
   -8.4486    3.0729   -9.6829 C   0  0  0  0  0  0  0  0  0  0  0  0
   -8.0997    3.1239  -11.0275 C   0  0  0  0  0  0  0  0  0  0  0  0
   -8.7491    1.8930   -8.8141 C   0  0  0  0  0  0  0  0  0  0  0  0
   -9.2810    2.4627   -7.5430 N   0  0  0  0  0  0  0  0  0  0  0  0
   -8.7818    3.8547   -7.4956 C   0  0  0  0  0  0  0  0  0  0  0  0
   -6.5506    6.7998  -13.4056 C   0  0  0  0  0  0  0  0  0  0  0  0
   -6.7275    7.8808  -13.8159 O   0  0  0  0  0  0  0  0  0  0  0  0
   -5.4798    6.2615  -12.4163 N   0  0  0  0  0  0  0  0  0  0  0  0
   -4.3481    6.9254  -11.8029 C   0  0  0  0  0  0  0  0  0  0  0  0
   -4.6833    7.8230  -10.6107 C   0  0  0  0  0  0  0  0  0  0  0  0
   -3.5589    8.4261  -10.1519 F   0  0  0  0  0  0  0  0  0  0  0  0
   -5.2038    7.1163   -9.5837 F   0  0  0  0  0  0  0  0  0  0  0  0
   -5.5590    8.7982  -10.9331 F   0  0  0  0  0  0  0  0  0  0  0  0
   -8.4773    4.6255  -15.8869 C   0  0  0  0  0  0  0  0  0  0  0  0
   -8.5649    4.3782  -17.2514 C   0  0  0  0  0  0  0  0  0  0  0  0
   -9.8177    3.8810  -17.8725 C   0  0  0  0  0  0  0  0  0  0  0  0
   -7.4870    4.6588  -18.0833 C   0  0  0  0  0  0  0  0  0  0  0  0
   -6.3050    5.2003  -17.5748 C   0  0  0  0  0  0  0  0  0  0  0  0
   -5.2826    5.6585  -18.5940 C   0  0  0  0  0  0  0  0  0  0  0  0
   -5.7636    5.8265  -19.8550 F   0  0  0  0  0  0  0  0  0  0  0  0
   -4.7570    6.8833  -18.2812 F   0  0  0  0  0  0  0  0  0  0  0  0
   -4.2208    4.8177  -18.7240 F   0  0  0  0  0  0  0  0  0  0  0  0
  1  2  1  0
  2  3  1  0
  3  4  2  0
  4  5  1  0
  5  6  1  1
  6  7  1  0
  7  8  2  0
  8  9  1  0
  9 10  2  0
 10 11  1  0
 11 12  2  0
 11 13  1  0
 13 14  1  0
 14 15  1  0
  5 16  1  0
 16 17  2  0
 16 18  1  0
 18 19  1  0
 19 20  1  0
 20 21  1  0
 20 22  1  0
 20 23  1  0
  4 24  1  0
 24 25  2  0
 25 26  1  0
 25 27  1  0
 27 28  2  0
 28 29  1  0
 29 30  1  0
 29 31  1  0
 29 32  1  0
 28  3  1  0
 12  7  1  0
 15 10  1  0
M  END
>  <smiles>  (1785) 
C25449-P213

>  <fragmenstein_outcome>  (1785) 
acceptable

>  <inchikey>  (1785) 
FSOLSPAHYWOOGF-UHFFFAOYSA-N

>  <fragmenstein_mode>  (1785) 
expansion

>  <HIPPO Pose ID>  (1785) 
23159

>  <Energy>  (1785) 
189.241105

>  <fragmenstein_error>  (1785) 


>  <tags>  (1785) 
{'openbind_xx01zvns2b_c1_fragmenstein', 'fragmenstein_placed'}

>  <ref_pdb>  (1785) 
175

>  <scratch_subdir>  (1785) 
/opt/xchem-fragalysis-2/maxwin/BulkDock/SCRATCH/511028/C25449-P213

>  <alias>  (1785) 
CCc1c([C@@H](Nc2ccc3c(c2)CNC3)C(=O)NCC(F)(F)F)cc(C)cc1C(F)(F)F

>  <HIPPO Compound ID>  (1785) 
25449

>  <fragmenstein_runtime>  (1785) 
5.462637

$$$$
Cc1cc(CCOCF)cc([C@H](Nc2ccc3c(c2)CNC3)C(=O)NCC(F)F)c1
     RDKit          3D

 30 32  0  0  0  0  0  0  0  0999 V2000
   -9.9295    4.2654  -17.8874 C   0  0  0  0  0  0  0  0  0  0  0  0
   -8.6536    4.4503  -17.1340 C   0  0  0  0  0  0  0  0  0  0  0  0
   -7.4860    4.6942  -17.8540 C   0  0  0  0  0  0  0  0  0  0  0  0
   -6.2854    4.9059  -17.1924 C   0  0  0  0  0  0  0  0  0  0  0  0
   -5.0522    5.1675  -18.0178 C   0  0  0  0  0  0  0  0  0  0  0  0
   -3.9244    5.8483  -17.2537 C   0  0  0  0  0  0  0  0  0  0  0  0
   -3.3435    4.9327  -16.3236 O   0  0  0  0  0  0  0  0  0  0  0  0
   -2.7279    5.6119  -15.2409 C   0  0  0  0  0  0  0  0  0  0  0  0
   -1.8627    6.5113  -15.7571 F   0  0  0  0  0  0  0  0  0  0  0  0
   -6.2746    4.8134  -15.7948 C   0  0  0  0  0  0  0  0  0  0  0  0
   -7.4249    4.5813  -15.0307 C   0  0  0  0  0  0  0  0  0  0  0  0
   -7.2653    4.4631  -13.5104 C   0  0  2  0  0  0  0  0  0  0  0  0
   -8.5762    4.3357  -12.8304 N   0  0  0  0  0  0  0  0  0  0  0  0
   -8.5343    4.2410  -11.4229 C   0  0  0  0  0  0  0  0  0  0  0  0
   -8.3908    5.4056  -10.6388 C   0  0  0  0  0  0  0  0  0  0  0  0
   -8.3712    5.3498   -9.2423 C   0  0  0  0  0  0  0  0  0  0  0  0
   -8.5483    4.1185   -8.6436 C   0  0  0  0  0  0  0  0  0  0  0  0
   -8.6772    2.9602   -9.4044 C   0  0  0  0  0  0  0  0  0  0  0  0
   -8.6355    2.9967  -10.7881 C   0  0  0  0  0  0  0  0  0  0  0  0
   -8.8979    1.7997   -8.4907 C   0  0  0  0  0  0  0  0  0  0  0  0
   -9.2767    2.4092   -7.1854 N   0  0  0  0  0  0  0  0  0  0  0  0
   -8.6913    3.7690   -7.2010 C   0  0  0  0  0  0  0  0  0  0  0  0
   -6.3746    5.6427  -12.9162 C   0  0  0  0  0  0  0  0  0  0  0  0
   -6.3982    6.7390  -13.3297 O   0  0  0  0  0  0  0  0  0  0  0  0
   -5.5187    5.0113  -11.7683 N   0  0  0  0  0  0  0  0  0  0  0  0
   -4.5944    5.6246  -10.8415 C   0  0  0  0  0  0  0  0  0  0  0  0
   -3.6163    6.6047  -11.4758 C   0  0  0  0  0  0  0  0  0  0  0  0
   -2.7617    5.9329  -12.2950 F   0  0  0  0  0  0  0  0  0  0  0  0
   -2.8454    7.1651  -10.5064 F   0  0  0  0  0  0  0  0  0  0  0  0
   -8.6177    4.3905  -15.7317 C   0  0  0  0  0  0  0  0  0  0  0  0
  1  2  1  0
  2  3  2  0
  3  4  1  0
  4  5  1  0
  5  6  1  0
  6  7  1  0
  7  8  1  0
  8  9  1  0
  4 10  2  0
 10 11  1  0
 11 12  1  0
 12 13  1  1
 13 14  1  0
 14 15  2  0
 15 16  1  0
 16 17  2  0
 17 18  1  0
 18 19  2  0
 18 20  1  0
 20 21  1  0
 21 22  1  0
 12 23  1  0
 23 24  2  0
 23 25  1  0
 25 26  1  0
 26 27  1  0
 27 28  1  0
 27 29  1  0
 11 30  2  0
 30  2  1  0
 19 14  1  0
 22 17  1  0
M  END
>  <smiles>  (1786) 
C25481-P213

>  <fragmenstein_outcome>  (1786) 
acceptable

>  <inchikey>  (1786) 
FSZHKBNWNGXCLZ-UHFFFAOYSA-N

>  <fragmenstein_mode>  (1786) 
expansion

>  <HIPPO Pose ID>  (1786) 
23186

>  <Energy>  (1786) 
149.581917

>  <fragmenstein_error>  (1786) 


>  <tags>  (1786) 
{'openbind_xx01zvns2b_c1_fragmenstein', 'fragmenstein_placed'}

>  <ref_pdb>  (1786) 
175

>  <scratch_subdir>  (1786) 
/opt/xchem-fragalysis-2/maxwin/BulkDock/SCRATCH/511028/C25481-P213

>  <alias>  (1786) 
Cc1cc(CCOCF)cc([C@H](Nc2ccc3c(c2)CNC3)C(=O)NCC(F)F)c1

>  <HIPPO Compound ID>  (1786) 
35116

>  <fragmenstein_runtime>  (1786) 
5.460054

$$$$
Cc1cc([C@@H](Nc2ccc3c(c2)CNC3)C(=O)NCC(F)(F)F)cc(C(F)(F)F)c1
     RDKit          3D

 30 32  0  0  0  0  0  0  0  0999 V2000
   -4.7341    5.3664  -17.9538 C   0  0  0  0  0  0  0  0  0  0  0  0
   -5.9759    5.0478  -17.1849 C   0  0  0  0  0  0  0  0  0  0  0  0
   -6.0290    5.1906  -15.7932 C   0  0  0  0  0  0  0  0  0  0  0  0
   -7.1882    4.8862  -15.0448 C   0  0  0  0  0  0  0  0  0  0  0  0
   -7.2407    5.1094  -13.5246 C   0  0  1  0  0  0  0  0  0  0  0  0
   -7.8532    3.9586  -12.8110 N   0  0  0  0  0  0  0  0  0  0  0  0
   -8.1180    4.0624  -11.4270 C   0  0  0  0  0  0  0  0  0  0  0  0
   -7.9328    5.2394  -10.6672 C   0  0  0  0  0  0  0  0  0  0  0  0
   -8.1000    5.2606   -9.2752 C   0  0  0  0  0  0  0  0  0  0  0  0
   -8.4576    4.0897   -8.6415 C   0  0  0  0  0  0  0  0  0  0  0  0
   -8.6513    2.9234   -9.3674 C   0  0  0  0  0  0  0  0  0  0  0  0
   -8.4872    2.8926  -10.7457 C   0  0  0  0  0  0  0  0  0  0  0  0
   -8.9857    1.8129   -8.4290 C   0  0  0  0  0  0  0  0  0  0  0  0
   -9.2592    2.4627   -7.1232 N   0  0  0  0  0  0  0  0  0  0  0  0
   -8.6789    3.8166   -7.1927 C   0  0  0  0  0  0  0  0  0  0  0  0
   -5.7938    5.3845  -12.9298 C   0  0  0  0  0  0  0  0  0  0  0  0
   -5.3167    6.4521  -12.8911 O   0  0  0  0  0  0  0  0  0  0  0  0
   -5.1973    4.0002  -12.5483 N   0  0  0  0  0  0  0  0  0  0  0  0
   -3.9239    3.6581  -11.9513 C   0  0  0  0  0  0  0  0  0  0  0  0
   -3.7643    2.2142  -11.4859 C   0  0  0  0  0  0  0  0  0  0  0  0
   -2.5268    2.0109  -10.9744 F   0  0  0  0  0  0  0  0  0  0  0  0
   -3.9132    1.3398  -12.5112 F   0  0  0  0  0  0  0  0  0  0  0  0
   -4.6540    1.8707  -10.5331 F   0  0  0  0  0  0  0  0  0  0  0  0
   -8.3184    4.4564  -15.7586 C   0  0  0  0  0  0  0  0  0  0  0  0
   -8.2751    4.3178  -17.1567 C   0  0  0  0  0  0  0  0  0  0  0  0
   -9.4161    3.7556  -17.9462 C   0  0  0  0  0  0  0  0  0  0  0  0
   -9.2929    4.0065  -19.2702 F   0  0  0  0  0  0  0  0  0  0  0  0
  -10.6328    4.2227  -17.5817 F   0  0  0  0  0  0  0  0  0  0  0  0
   -9.4760    2.3994  -17.8144 F   0  0  0  0  0  0  0  0  0  0  0  0
   -7.1088    4.6303  -17.8591 C   0  0  0  0  0  0  0  0  0  0  0  0
  1  2  1  0
  2  3  2  0
  3  4  1  0
  4  5  1  0
  5  6  1  1
  6  7  1  0
  7  8  2  0
  8  9  1  0
  9 10  2  0
 10 11  1  0
 11 12  2  0
 11 13  1  0
 13 14  1  0
 14 15  1  0
  5 16  1  0
 16 17  2  0
 16 18  1  0
 18 19  1  0
 19 20  1  0
 20 21  1  0
 20 22  1  0
 20 23  1  0
  4 24  2  0
 24 25  1  0
 25 26  1  0
 26 27  1  0
 26 28  1  0
 26 29  1  0
 25 30  2  0
 30  2  1  0
 12  7  1  0
 15 10  1  0
M  END
>  <smiles>  (1787) 
C25494-P213

>  <fragmenstein_outcome>  (1787) 
acceptable

>  <inchikey>  (1787) 
MOZDKBJTNTWJOO-UHFFFAOYSA-N

>  <fragmenstein_mode>  (1787) 
expansion

>  <HIPPO Pose ID>  (1787) 
23193

>  <Energy>  (1787) 
176.289089

>  <fragmenstein_error>  (1787) 


>  <tags>  (1787) 
{'openbind_xx01zvns2b_c1_fragmenstein', 'fragmenstein_placed'}

>  <ref_pdb>  (1787) 
175

>  <scratch_subdir>  (1787) 
/opt/xchem-fragalysis-2/maxwin/BulkDock/SCRATCH/511028/C25494-P213

>  <alias>  (1787) 
Cc1cc([C@@H](Nc2ccc3c(c2)CNC3)C(=O)NCC(F)(F)F)cc(C(F)(F)F)c1

>  <HIPPO Compound ID>  (1787) 
25494

>  <fragmenstein_runtime>  (1787) 
6.646936

$$$$
COn1cc2c(C(=O)Nc3cnc4c(c3)CNC4)cc(F)cc2n1
     RDKit          3D

 24 27  0  0  0  0  0  0  0  0999 V2000
   -2.7044    4.9942  -18.5046 C   0  0  0  0  0  0  0  0  0  0  0  0
   -3.2812    5.7626  -17.4583 O   0  0  0  0  0  0  0  0  0  0  0  0
   -4.5858    5.3396  -17.2032 N   0  0  0  0  0  0  0  0  0  0  0  0
   -5.1636    5.3679  -15.9734 C   0  0  0  0  0  0  0  0  0  0  0  0
   -6.4637    5.0001  -16.1948 C   0  0  0  0  0  0  0  0  0  0  0  0
   -7.4791    4.8450  -15.2493 C   0  0  0  0  0  0  0  0  0  0  0  0
   -7.3773    5.2408  -13.8308 C   0  0  0  0  0  0  0  0  0  0  0  0
   -6.9078    6.2801  -13.5829 O   0  0  0  0  0  0  0  0  0  0  0  0
   -7.9375    4.1458  -12.8951 N   0  0  0  0  0  0  0  0  0  0  0  0
   -8.1174    4.1413  -11.5123 C   0  0  0  0  0  0  0  0  0  0  0  0
   -7.9210    5.2860  -10.7291 C   0  0  0  0  0  0  0  0  0  0  0  0
   -8.0650    5.3332   -9.3773 N   0  0  0  0  0  0  0  0  0  0  0  0
   -8.4033    4.1617   -8.8110 C   0  0  0  0  0  0  0  0  0  0  0  0
   -8.6156    2.9824   -9.4950 C   0  0  0  0  0  0  0  0  0  0  0  0
   -8.4877    2.9592  -10.8721 C   0  0  0  0  0  0  0  0  0  0  0  0
   -8.9525    1.8937   -8.5412 C   0  0  0  0  0  0  0  0  0  0  0  0
   -8.8598    2.4720   -7.1701 N   0  0  0  0  0  0  0  0  0  0  0  0
   -8.6147    3.9276   -7.3446 C   0  0  0  0  0  0  0  0  0  0  0  0
   -8.6768    4.3954  -15.8384 C   0  0  0  0  0  0  0  0  0  0  0  0
   -8.8268    4.1713  -17.2369 C   0  0  0  0  0  0  0  0  0  0  0  0
  -10.0350    3.7836  -17.6766 F   0  0  0  0  0  0  0  0  0  0  0  0
   -7.8037    4.3536  -18.1820 C   0  0  0  0  0  0  0  0  0  0  0  0
   -6.5886    4.7769  -17.6205 C   0  0  0  0  0  0  0  0  0  0  0  0
   -5.4159    5.0557  -18.2137 N   0  0  0  0  0  0  0  0  0  0  0  0
  1  2  1  0
  2  3  1  0
  3  4  1  0
  4  5  2  0
  5  6  1  0
  6  7  1  0
  7  8  2  0
  7  9  1  0
  9 10  1  0
 10 11  2  0
 11 12  1  0
 12 13  2  0
 13 14  1  0
 14 15  2  0
 14 16  1  0
 16 17  1  0
 17 18  1  0
  6 19  2  0
 19 20  1  0
 20 21  1  0
 20 22  2  0
 22 23  1  0
 23 24  2  0
 24  3  1  0
 23  5  1  0
 15 10  1  0
 18 13  1  0
M  END
>  <smiles>  (1788) 
C23092-P213

>  <fragmenstein_outcome>  (1788) 
acceptable

>  <inchikey>  (1788) 
YZXMTRYCMRGQKW-UHFFFAOYSA-N

>  <fragmenstein_mode>  (1788) 
expansion

>  <HIPPO Pose ID>  (1788) 
23243

>  <Energy>  (1788) 
38.981533

>  <fragmenstein_error>  (1788) 


>  <tags>  (1788) 
{'openbind_xx01zvns2b_c1_fragmenstein', 'fragmenstein_placed'}

>  <ref_pdb>  (1788) 
175

>  <scratch_subdir>  (1788) 
/opt/xchem-fragalysis-2/maxwin/BulkDock/SCRATCH/511028/C23092-P213

>  <alias>  (1788) 
COn1cc2c(C(=O)Nc3cnc4c(c3)CNC4)cc(F)cc2n1

>  <HIPPO Compound ID>  (1788) 
23092

>  <fragmenstein_runtime>  (1788) 
3.102054

$$$$
Nn1cc2c(C(=O)Nc3cnc4c(c3)CNC4)cc(F)cc2n1
     RDKit          3D

 23 26  0  0  0  0  0  0  0  0999 V2000
   -3.0596    5.6260  -17.4135 N   0  0  0  0  0  0  0  0  0  0  0  0
   -4.4079    5.4997  -17.0923 N   0  0  0  0  0  0  0  0  0  0  0  0
   -4.8901    5.3517  -15.8315 C   0  0  0  0  0  0  0  0  0  0  0  0
   -6.2151    5.0477  -15.9997 C   0  0  0  0  0  0  0  0  0  0  0  0
   -7.1434    4.6952  -15.0186 C   0  0  0  0  0  0  0  0  0  0  0  0
   -6.8194    4.4261  -13.5993 C   0  0  0  0  0  0  0  0  0  0  0  0
   -5.8411    3.8400  -13.3662 O   0  0  0  0  0  0  0  0  0  0  0  0
   -7.9394    4.9109  -12.6611 N   0  0  0  0  0  0  0  0  0  0  0  0
   -8.1307    4.7018  -11.3039 C   0  0  0  0  0  0  0  0  0  0  0  0
   -8.3530    5.7539  -10.4167 C   0  0  0  0  0  0  0  0  0  0  0  0
   -8.5293    5.5981   -9.0792 N   0  0  0  0  0  0  0  0  0  0  0  0
   -8.5694    4.3156   -8.6636 C   0  0  0  0  0  0  0  0  0  0  0  0
   -8.4402    3.2122   -9.4810 C   0  0  0  0  0  0  0  0  0  0  0  0
   -8.1562    3.3935  -10.8196 C   0  0  0  0  0  0  0  0  0  0  0  0
   -8.6932    1.9662   -8.7100 C   0  0  0  0  0  0  0  0  0  0  0  0
   -8.8955    2.3744   -7.2893 N   0  0  0  0  0  0  0  0  0  0  0  0
   -8.7946    3.8550   -7.2526 C   0  0  0  0  0  0  0  0  0  0  0  0
   -8.3898    4.3388  -15.5903 C   0  0  0  0  0  0  0  0  0  0  0  0
   -8.6405    4.3441  -16.9943 C   0  0  0  0  0  0  0  0  0  0  0  0
   -9.8465    3.9339  -17.4208 F   0  0  0  0  0  0  0  0  0  0  0  0
   -7.6990    4.7229  -17.9628 C   0  0  0  0  0  0  0  0  0  0  0  0
   -6.4546    5.0769  -17.4251 C   0  0  0  0  0  0  0  0  0  0  0  0
   -5.3301    5.4582  -18.0486 N   0  0  0  0  0  0  0  0  0  0  0  0
  1  2  1  0
  2  3  1  0
  3  4  2  0
  4  5  1  0
  5  6  1  0
  6  7  2  0
  6  8  1  0
  8  9  1  0
  9 10  2  0
 10 11  1  0
 11 12  2  0
 12 13  1  0
 13 14  2  0
 13 15  1  0
 15 16  1  0
 16 17  1  0
  5 18  2  0
 18 19  1  0
 19 20  1  0
 19 21  2  0
 21 22  1  0
 22 23  2  0
 23  2  1  0
 22  4  1  0
 14  9  1  0
 17 12  1  0
M  END
>  <smiles>  (1789) 
C23111-P213

>  <fragmenstein_outcome>  (1789) 
acceptable

>  <inchikey>  (1789) 
VXTHLTZUMGZYJF-UHFFFAOYSA-N

>  <fragmenstein_mode>  (1789) 
expansion

>  <HIPPO Pose ID>  (1789) 
23247

>  <Energy>  (1789) 
12.802245

>  <fragmenstein_error>  (1789) 


>  <tags>  (1789) 
{'openbind_xx01zvns2b_c1_fragmenstein', 'fragmenstein_placed'}

>  <ref_pdb>  (1789) 
175

>  <scratch_subdir>  (1789) 
/opt/xchem-fragalysis-2/maxwin/BulkDock/SCRATCH/511028/C23111-P213

>  <alias>  (1789) 
Nn1cc2c(C(=O)Nc3cnc4c(c3)CNC4)cc(F)cc2n1

>  <HIPPO Compound ID>  (1789) 
29014

>  <fragmenstein_runtime>  (1789) 
3.049718

$$$$
CS(=O)(=O)c1nc2c(cc1NC(=O)c1cc(F)cc3n[nH]cc13)CNC2
     RDKit          3D

 26 29  0  0  0  0  0  0  0  0999 V2000
   -9.0349    8.1002   -9.8762 C   0  0  0  0  0  0  0  0  0  0  0  0
   -8.2467    7.2616  -11.2248 S   0  0  0  0  0  0  0  0  0  0  0  0
   -6.8907    7.7851  -11.2676 O   0  0  0  0  0  0  0  0  0  0  0  0
   -9.1684    7.3934  -12.3452 O   0  0  0  0  0  0  0  0  0  0  0  0
   -8.1807    5.5447  -10.7285 C   0  0  0  0  0  0  0  0  0  0  0  0
   -8.2464    5.4463   -9.3604 N   0  0  0  0  0  0  0  0  0  0  0  0
   -8.4294    4.2058   -8.8839 C   0  0  0  0  0  0  0  0  0  0  0  0
   -8.5765    3.0809   -9.6605 C   0  0  0  0  0  0  0  0  0  0  0  0
   -8.5090    3.1939  -11.0379 C   0  0  0  0  0  0  0  0  0  0  0  0
   -8.2843    4.4561  -11.6135 C   0  0  0  0  0  0  0  0  0  0  0  0
   -8.1719    4.4621  -13.0110 N   0  0  0  0  0  0  0  0  0  0  0  0
   -7.4210    5.4288  -13.9529 C   0  0  0  0  0  0  0  0  0  0  0  0
   -6.8431    6.4140  -13.7198 O   0  0  0  0  0  0  0  0  0  0  0  0
   -7.4977    5.0049  -15.3690 C   0  0  0  0  0  0  0  0  0  0  0  0
   -8.6448    4.4654  -15.9860 C   0  0  0  0  0  0  0  0  0  0  0  0
   -8.7258    4.1845  -17.3809 C   0  0  0  0  0  0  0  0  0  0  0  0
   -9.8915    3.7083  -17.8474 F   0  0  0  0  0  0  0  0  0  0  0  0
   -7.6774    4.3911  -18.2936 C   0  0  0  0  0  0  0  0  0  0  0  0
   -6.5194    4.9266  -17.7086 C   0  0  0  0  0  0  0  0  0  0  0  0
   -5.3406    5.2622  -18.2648 N   0  0  0  0  0  0  0  0  0  0  0  0
   -4.5898    5.7096  -17.2468 N   0  0  0  0  0  0  0  0  0  0  0  0
   -5.2167    5.7059  -16.0411 C   0  0  0  0  0  0  0  0  0  0  0  0
   -6.4685    5.2115  -16.2926 C   0  0  0  0  0  0  0  0  0  0  0  0
   -8.7927    1.8890   -8.7959 C   0  0  0  0  0  0  0  0  0  0  0  0
   -8.8319    2.3781   -7.3907 N   0  0  0  0  0  0  0  0  0  0  0  0
   -8.5570    3.8340   -7.4363 C   0  0  0  0  0  0  0  0  0  0  0  0
  1  2  1  0
  2  3  2  0
  2  4  2  0
  2  5  1  0
  5  6  2  0
  6  7  1  0
  7  8  2  0
  8  9  1  0
  9 10  2  0
 10 11  1  0
 11 12  1  0
 12 13  2  0
 12 14  1  0
 14 15  2  0
 15 16  1  0
 16 17  1  0
 16 18  2  0
 18 19  1  0
 19 20  2  0
 20 21  1  0
 21 22  1  0
 22 23  2  0
  8 24  1  0
 24 25  1  0
 25 26  1  0
 10  5  1  0
 23 14  1  0
 26  7  1  0
 23 19  1  0
M  END
>  <smiles>  (1790) 
C23099-P213

>  <fragmenstein_outcome>  (1790) 
acceptable

>  <inchikey>  (1790) 
TWAXBOMTVAIRMH-UHFFFAOYSA-N

>  <fragmenstein_mode>  (1790) 
expansion

>  <HIPPO Pose ID>  (1790) 
23252

>  <Energy>  (1790) 
145.026518

>  <fragmenstein_error>  (1790) 


>  <tags>  (1790) 
{'openbind_xx01zvns2b_c1_fragmenstein', 'fragmenstein_placed'}

>  <ref_pdb>  (1790) 
175

>  <scratch_subdir>  (1790) 
/opt/xchem-fragalysis-2/maxwin/BulkDock/SCRATCH/511028/C23099-P213

>  <alias>  (1790) 
CS(=O)(=O)c1nc2c(cc1NC(=O)c1cc(F)cc3n[nH]cc13)CNC2

>  <HIPPO Compound ID>  (1790) 
23099

>  <fragmenstein_runtime>  (1790) 
5.404762

$$$$
Cc1cc(NC(=O)c2cc(F)cc3nn(C)cc23)cc2c1CNC2
     RDKit          3D

 24 27  0  0  0  0  0  0  0  0999 V2000
   -8.1555    6.8033   -8.8606 C   0  0  0  0  0  0  0  0  0  0  0  0
   -8.2266    5.5141   -9.6157 C   0  0  0  0  0  0  0  0  0  0  0  0
   -8.0164    5.5001  -11.0061 C   0  0  0  0  0  0  0  0  0  0  0  0
   -8.0733    4.3055  -11.7405 C   0  0  0  0  0  0  0  0  0  0  0  0
   -7.8751    4.2966  -13.1205 N   0  0  0  0  0  0  0  0  0  0  0  0
   -7.4573    5.4331  -14.0829 C   0  0  0  0  0  0  0  0  0  0  0  0
   -7.1392    6.5348  -13.8605 O   0  0  0  0  0  0  0  0  0  0  0  0
   -7.4983    4.9817  -15.4824 C   0  0  0  0  0  0  0  0  0  0  0  0
   -8.6549    4.4443  -16.0778 C   0  0  0  0  0  0  0  0  0  0  0  0
   -8.7412    4.1329  -17.4627 C   0  0  0  0  0  0  0  0  0  0  0  0
   -9.9098    3.6531  -17.9145 F   0  0  0  0  0  0  0  0  0  0  0  0
   -7.6899    4.2993  -18.3799 C   0  0  0  0  0  0  0  0  0  0  0  0
   -6.5120    4.7972  -17.8022 C   0  0  0  0  0  0  0  0  0  0  0  0
   -5.3120    5.0414  -18.3559 N   0  0  0  0  0  0  0  0  0  0  0  0
   -4.5228    5.3984  -17.3271 N   0  0  0  0  0  0  0  0  0  0  0  0
   -3.1091    5.5530  -17.5620 C   0  0  0  0  0  0  0  0  0  0  0  0
   -5.1732    5.5322  -16.1374 C   0  0  0  0  0  0  0  0  0  0  0  0
   -6.4546    5.1239  -16.3959 C   0  0  0  0  0  0  0  0  0  0  0  0
   -8.3348    3.0966  -11.0911 C   0  0  0  0  0  0  0  0  0  0  0  0
   -8.5228    3.1109   -9.7182 C   0  0  0  0  0  0  0  0  0  0  0  0
   -8.4582    4.2963   -8.9882 C   0  0  0  0  0  0  0  0  0  0  0  0
   -8.6576    3.9711   -7.5423 C   0  0  0  0  0  0  0  0  0  0  0  0
   -9.2210    2.6013   -7.5117 N   0  0  0  0  0  0  0  0  0  0  0  0
   -8.7963    1.9704   -8.7904 C   0  0  0  0  0  0  0  0  0  0  0  0
  1  2  1  0
  2  3  2  0
  3  4  1  0
  4  5  1  0
  5  6  1  0
  6  7  2  0
  6  8  1  0
  8  9  2  0
  9 10  1  0
 10 11  1  0
 10 12  2  0
 12 13  1  0
 13 14  2  0
 14 15  1  0
 15 16  1  0
 15 17  1  0
 17 18  2  0
  4 19  2  0
 19 20  1  0
 20 21  2  0
 21 22  1  0
 22 23  1  0
 23 24  1  0
 21  2  1  0
 18  8  1  0
 24 20  1  0
 18 13  1  0
M  END
>  <smiles>  (1791) 
C25570-P213

>  <fragmenstein_outcome>  (1791) 
acceptable

>  <inchikey>  (1791) 
SCXIGHSMMDFLNN-UHFFFAOYSA-N

>  <fragmenstein_mode>  (1791) 
expansion

>  <HIPPO Pose ID>  (1791) 
23253

>  <Energy>  (1791) 
41.862187

>  <fragmenstein_error>  (1791) 


>  <tags>  (1791) 
{'openbind_xx01zvns2b_c1_fragmenstein', 'fragmenstein_placed'}

>  <ref_pdb>  (1791) 
175

>  <scratch_subdir>  (1791) 
/opt/xchem-fragalysis-2/maxwin/BulkDock/SCRATCH/511028/C25570-P213

>  <alias>  (1791) 
Cc1cc(NC(=O)c2cc(F)cc3nn(C)cc23)cc2c1CNC2

>  <HIPPO Compound ID>  (1791) 
43414

>  <fragmenstein_runtime>  (1791) 
2.858554

$$$$
O=N[C@@H](Nc1cnc2c(c1)CNC2)c1cc(F)cc2[nH]ncc12
     RDKit          3D

 23 26  0  0  0  0  0  0  0  0999 V2000
   -7.0697    6.8946  -13.7099 O   0  0  0  0  0  0  0  0  0  0  0  0
   -6.4599    5.8563  -13.4281 N   0  0  0  0  0  0  0  0  0  0  0  0
   -7.1774    4.6006  -13.8426 C   0  0  1  0  0  0  0  0  0  0  0  0
   -8.3931    4.3006  -13.0507 N   0  0  0  0  0  0  0  0  0  0  0  0
   -8.3044    4.2436  -11.6447 C   0  0  0  0  0  0  0  0  0  0  0  0
   -8.0976    5.3779  -10.8359 C   0  0  0  0  0  0  0  0  0  0  0  0
   -8.0985    5.3955   -9.4745 N   0  0  0  0  0  0  0  0  0  0  0  0
   -8.3469    4.2045   -8.9064 C   0  0  0  0  0  0  0  0  0  0  0  0
   -8.5578    3.0268   -9.5961 C   0  0  0  0  0  0  0  0  0  0  0  0
   -8.5175    3.0294  -10.9782 C   0  0  0  0  0  0  0  0  0  0  0  0
   -8.8406    1.9255   -8.6325 C   0  0  0  0  0  0  0  0  0  0  0  0
   -9.1685    2.5994   -7.3437 N   0  0  0  0  0  0  0  0  0  0  0  0
   -8.5255    3.9394   -7.4369 C   0  0  0  0  0  0  0  0  0  0  0  0
   -7.4626    4.5836  -15.3580 C   0  0  0  0  0  0  0  0  0  0  0  0
   -8.7515    4.2708  -15.8667 C   0  0  0  0  0  0  0  0  0  0  0  0
   -9.0305    4.1719  -17.2280 C   0  0  0  0  0  0  0  0  0  0  0  0
  -10.2694    3.8652  -17.6349 F   0  0  0  0  0  0  0  0  0  0  0  0
   -8.0536    4.3797  -18.1800 C   0  0  0  0  0  0  0  0  0  0  0  0
   -6.7900    4.7172  -17.7054 C   0  0  0  0  0  0  0  0  0  0  0  0
   -5.6378    4.9843  -18.3940 N   0  0  0  0  0  0  0  0  0  0  0  0
   -4.5834    5.2641  -17.6033 N   0  0  0  0  0  0  0  0  0  0  0  0
   -5.0895    5.1525  -16.3697 C   0  0  0  0  0  0  0  0  0  0  0  0
   -6.4699    4.8198  -16.3528 C   0  0  0  0  0  0  0  0  0  0  0  0
  1  2  2  0
  2  3  1  0
  3  4  1  1
  4  5  1  0
  5  6  2  0
  6  7  1  0
  7  8  2  0
  8  9  1  0
  9 10  2  0
  9 11  1  0
 11 12  1  0
 12 13  1  0
  3 14  1  0
 14 15  2  0
 15 16  1  0
 16 17  1  0
 16 18  2  0
 18 19  1  0
 19 20  1  0
 20 21  1  0
 21 22  2  0
 22 23  1  0
 10  5  1  0
 23 14  1  0
 13  8  1  0
 23 19  2  0
M  END
>  <smiles>  (1792) 
C25572-P213

>  <fragmenstein_outcome>  (1792) 
acceptable

>  <inchikey>  (1792) 
NIAHOACVCBRSAD-UHFFFAOYSA-N

>  <fragmenstein_mode>  (1792) 
expansion

>  <HIPPO Pose ID>  (1792) 
23254

>  <Energy>  (1792) 
90.539046

>  <fragmenstein_error>  (1792) 


>  <tags>  (1792) 
{'openbind_xx01zvns2b_c1_fragmenstein', 'fragmenstein_placed'}

>  <ref_pdb>  (1792) 
175

>  <scratch_subdir>  (1792) 
/opt/xchem-fragalysis-2/maxwin/BulkDock/SCRATCH/511028/C25572-P213

>  <alias>  (1792) 
O=N[C@@H](Nc1cnc2c(c1)CNC2)c1cc(F)cc2[nH]ncc12

>  <HIPPO Compound ID>  (1792) 
25572

>  <fragmenstein_runtime>  (1792) 
4.098583

$$$$
CNn1cc2c(C(=O)N[C@@H]3C[C@H]4CNC[C@@H]4N(C)C3)cc(F)cc2n1
     RDKit          3D

 25 28  0  0  0  0  0  0  0  0999 V2000
   -2.8606    6.7056  -18.1898 C   0  0  0  0  0  0  0  0  0  0  0  0
   -3.1724    5.3765  -17.6851 N   0  0  0  0  0  0  0  0  0  0  0  0
   -4.5486    5.2714  -17.4172 N   0  0  0  0  0  0  0  0  0  0  0  0
   -5.0831    5.3652  -16.1687 C   0  0  0  0  0  0  0  0  0  0  0  0
   -6.4042    5.0420  -16.3225 C   0  0  0  0  0  0  0  0  0  0  0  0
   -7.3698    4.9254  -15.3216 C   0  0  0  0  0  0  0  0  0  0  0  0
   -7.1318    5.3100  -13.9158 C   0  0  0  0  0  0  0  0  0  0  0  0
   -6.6053    6.3295  -13.7166 O   0  0  0  0  0  0  0  0  0  0  0  0
   -7.6492    4.2467  -12.9330 N   0  0  0  0  0  0  0  0  0  0  0  0
   -7.5427    4.1674  -11.4856 C   0  0  2  0  0  0  0  0  0  0  0  0
   -8.2067    2.8937  -10.9302 C   0  0  0  0  0  0  0  0  0  0  0  0
   -8.7424    3.1303   -9.5258 C   0  0  1  0  0  0  0  0  0  0  0  0
   -8.8094    1.9455   -8.5874 C   0  0  0  0  0  0  0  0  0  0  0  0
   -8.9528    2.5501   -7.2423 N   0  0  0  0  0  0  0  0  0  0  0  0
   -8.4660    3.9441   -7.3364 C   0  0  0  0  0  0  0  0  0  0  0  0
   -7.9000    4.1231   -8.7494 C   0  0  2  0  0  0  0  0  0  0  0  0
   -7.9906    5.4766   -9.3175 N   0  0  0  0  0  0  0  0  0  0  0  0
   -6.8884    6.3135   -8.8504 C   0  0  0  0  0  0  0  0  0  0  0  0
   -8.0647    5.4568  -10.7964 C   0  0  0  0  0  0  0  0  0  0  0  0
   -8.6068    4.4893  -15.8390 C   0  0  0  0  0  0  0  0  0  0  0  0
   -8.8251    4.2322  -17.2262 C   0  0  0  0  0  0  0  0  0  0  0  0
  -10.0559    3.8535  -17.6088 F   0  0  0  0  0  0  0  0  0  0  0  0
   -7.8426    4.3671  -18.2213 C   0  0  0  0  0  0  0  0  0  0  0  0
   -6.5955    4.7763  -17.7262 C   0  0  0  0  0  0  0  0  0  0  0  0
   -5.4362    4.9778  -18.3707 N   0  0  0  0  0  0  0  0  0  0  0  0
  1  2  1  0
  2  3  1  0
  3  4  1  0
  4  5  2  0
  5  6  1  0
  6  7  1  0
  7  8  2  0
  7  9  1  0
 10  9  1  6
 10 11  1  0
 12 11  1  6
 12 13  1  0
 13 14  1  0
 14 15  1  0
 16 15  1  1
 16 17  1  0
 17 18  1  0
 17 19  1  0
  6 20  2  0
 20 21  1  0
 21 22  1  0
 21 23  2  0
 23 24  1  0
 24 25  2  0
 25  3  1  0
 24  5  1  0
 19 10  1  0
 16 12  1  0
M  END
>  <smiles>  (1793) 
C25573-P213

>  <fragmenstein_outcome>  (1793) 
acceptable

>  <inchikey>  (1793) 
JROJORKHLVZCSA-UHFFFAOYSA-N

>  <fragmenstein_mode>  (1793) 
expansion

>  <HIPPO Pose ID>  (1793) 
23255

>  <Energy>  (1793) 
13.962148

>  <fragmenstein_error>  (1793) 


>  <tags>  (1793) 
{'openbind_xx01zvns2b_c1_fragmenstein', 'fragmenstein_placed'}

>  <ref_pdb>  (1793) 
175

>  <scratch_subdir>  (1793) 
/opt/xchem-fragalysis-2/maxwin/BulkDock/SCRATCH/511028/C25573-P213

>  <alias>  (1793) 
CNn1cc2c(C(=O)N[C@@H]3C[C@H]4CNC[C@@H]4N(C)C3)cc(F)cc2n1

>  <HIPPO Compound ID>  (1793) 
25573

>  <fragmenstein_runtime>  (1793) 
8.524208

$$$$
O=C(Nc1cnc2c(c1)CNC2)c1cc(F)cc2nn(Br)cc12
     RDKit          3D

 23 26  0  0  0  0  0  0  0  0999 V2000
   -6.7852    6.2689  -13.5885 O   0  0  0  0  0  0  0  0  0  0  0  0
   -7.2804    5.2381  -13.8255 C   0  0  0  0  0  0  0  0  0  0  0  0
   -7.9493    4.2061  -12.8846 N   0  0  0  0  0  0  0  0  0  0  0  0
   -8.0591    4.1857  -11.4929 C   0  0  0  0  0  0  0  0  0  0  0  0
   -7.7944    5.3120  -10.7037 C   0  0  0  0  0  0  0  0  0  0  0  0
   -7.9207    5.3556   -9.3492 N   0  0  0  0  0  0  0  0  0  0  0  0
   -8.3089    4.1979   -8.7861 C   0  0  0  0  0  0  0  0  0  0  0  0
   -8.5808    3.0335   -9.4752 C   0  0  0  0  0  0  0  0  0  0  0  0
   -8.4721    3.0156  -10.8544 C   0  0  0  0  0  0  0  0  0  0  0  0
   -8.9779    1.9614   -8.5247 C   0  0  0  0  0  0  0  0  0  0  0  0
   -8.8119    2.5174   -7.1514 N   0  0  0  0  0  0  0  0  0  0  0  0
   -8.5435    3.9695   -7.3216 C   0  0  0  0  0  0  0  0  0  0  0  0
   -7.4071    4.8376  -15.2434 C   0  0  0  0  0  0  0  0  0  0  0  0
   -8.6200    4.3700  -15.7926 C   0  0  0  0  0  0  0  0  0  0  0  0
   -8.8104    4.1215  -17.1808 C   0  0  0  0  0  0  0  0  0  0  0  0
  -10.0178    3.6934  -17.5747 F   0  0  0  0  0  0  0  0  0  0  0  0
   -7.8284    4.3078  -18.1616 C   0  0  0  0  0  0  0  0  0  0  0  0
   -6.6047    4.7508  -17.6445 C   0  0  0  0  0  0  0  0  0  0  0  0
   -5.4613    5.0142  -18.2892 N   0  0  0  0  0  0  0  0  0  0  0  0
   -4.5936    5.3282  -17.3273 N   0  0  0  0  0  0  0  0  0  0  0  0
   -2.8259    5.6920  -17.7467 Br  0  0  0  0  0  0  0  0  0  0  0  0
   -5.1176    5.3834  -16.0711 C   0  0  0  0  0  0  0  0  0  0  0  0
   -6.4261    5.0007  -16.2275 C   0  0  0  0  0  0  0  0  0  0  0  0
  1  2  2  0
  2  3  1  0
  3  4  1  0
  4  5  2  0
  5  6  1  0
  6  7  2  0
  7  8  1  0
  8  9  2  0
  8 10  1  0
 10 11  1  0
 11 12  1  0
  2 13  1  0
 13 14  2  0
 14 15  1  0
 15 16  1  0
 15 17  2  0
 17 18  1  0
 18 19  2  0
 19 20  1  0
 20 21  1  0
 20 22  1  0
 22 23  2  0
  9  4  1  0
 23 13  1  0
 12  7  1  0
 23 18  1  0
M  END
>  <smiles>  (1794) 
C23147-P213

>  <fragmenstein_outcome>  (1794) 
acceptable

>  <inchikey>  (1794) 
ORGBNWQTBWUZER-UHFFFAOYSA-N

>  <fragmenstein_mode>  (1794) 
expansion

>  <HIPPO Pose ID>  (1794) 
23257

>  <Energy>  (1794) 
56.35851

>  <fragmenstein_error>  (1794) 


>  <tags>  (1794) 
{'openbind_xx01zvns2b_c1_fragmenstein', 'fragmenstein_placed'}

>  <ref_pdb>  (1794) 
175

>  <scratch_subdir>  (1794) 
/opt/xchem-fragalysis-2/maxwin/BulkDock/SCRATCH/511028/C23147-P213

>  <alias>  (1794) 
O=C(Nc1cnc2c(c1)CNC2)c1cc(F)cc2nn(Br)cc12

>  <HIPPO Compound ID>  (1794) 
23147

>  <fragmenstein_runtime>  (1794) 
3.112172

$$$$
O=C(Nc1cnc2c(c1)CNC2)c1cc(F)cc2nn(OCOCc3ccccc3)cc12
     RDKit          3D

 32 36  0  0  0  0  0  0  0  0999 V2000
   -6.8562    6.3029  -13.7082 O   0  0  0  0  0  0  0  0  0  0  0  0
   -7.3359    5.2654  -13.9440 C   0  0  0  0  0  0  0  0  0  0  0  0
   -7.8837    4.1753  -12.9937 N   0  0  0  0  0  0  0  0  0  0  0  0
   -8.0366    4.1756  -11.6069 C   0  0  0  0  0  0  0  0  0  0  0  0
   -7.8142    5.3164  -10.8238 C   0  0  0  0  0  0  0  0  0  0  0  0
   -7.9577    5.3672   -9.4709 N   0  0  0  0  0  0  0  0  0  0  0  0
   -8.3248    4.2034   -8.9047 C   0  0  0  0  0  0  0  0  0  0  0  0
   -8.5553    3.0245   -9.5896 C   0  0  0  0  0  0  0  0  0  0  0  0
   -8.4197    2.9974  -10.9647 C   0  0  0  0  0  0  0  0  0  0  0  0
   -8.9034    1.9443   -8.6241 C   0  0  0  0  0  0  0  0  0  0  0  0
   -9.2382    2.6369   -7.3493 N   0  0  0  0  0  0  0  0  0  0  0  0
   -8.5649    3.9622   -7.4392 C   0  0  0  0  0  0  0  0  0  0  0  0
   -7.4705    4.8601  -15.3572 C   0  0  0  0  0  0  0  0  0  0  0  0
   -8.6831    4.4032  -15.9122 C   0  0  0  0  0  0  0  0  0  0  0  0
   -8.8589    4.1326  -17.2997 C   0  0  0  0  0  0  0  0  0  0  0  0
  -10.0745    3.7419  -17.7130 F   0  0  0  0  0  0  0  0  0  0  0  0
   -7.8484    4.2607  -18.2634 C   0  0  0  0  0  0  0  0  0  0  0  0
   -6.6192    4.6801  -17.7346 C   0  0  0  0  0  0  0  0  0  0  0  0
   -5.4431    4.8676  -18.3515 N   0  0  0  0  0  0  0  0  0  0  0  0
   -4.6034    5.2266  -17.3776 N   0  0  0  0  0  0  0  0  0  0  0  0
   -3.2540    5.3937  -17.6635 O   0  0  0  0  0  0  0  0  0  0  0  0
   -3.1411    6.3243  -18.7343 C   0  0  0  0  0  0  0  0  0  0  0  0
   -1.8282    6.8816  -18.8092 O   0  0  0  0  0  0  0  0  0  0  0  0
   -0.8762    5.9300  -19.2877 C   0  0  0  0  0  0  0  0  0  0  0  0
    0.4552    6.6126  -19.5035 C   0  0  0  0  0  0  0  0  0  0  0  0
    0.5331    7.9022  -20.0496 C   0  0  0  0  0  0  0  0  0  0  0  0
    1.7716    8.5031  -20.2846 C   0  0  0  0  0  0  0  0  0  0  0  0
    2.9477    7.8172  -19.9875 C   0  0  0  0  0  0  0  0  0  0  0  0
    2.8860    6.5306  -19.4569 C   0  0  0  0  0  0  0  0  0  0  0  0
    1.6474    5.9316  -19.2197 C   0  0  0  0  0  0  0  0  0  0  0  0
   -5.1572    5.3294  -16.1409 C   0  0  0  0  0  0  0  0  0  0  0  0
   -6.4683    4.9737  -16.3236 C   0  0  0  0  0  0  0  0  0  0  0  0
  1  2  2  0
  2  3  1  0
  3  4  1  0
  4  5  2  0
  5  6  1  0
  6  7  2  0
  7  8  1  0
  8  9  2  0
  8 10  1  0
 10 11  1  0
 11 12  1  0
  2 13  1  0
 13 14  2  0
 14 15  1  0
 15 16  1  0
 15 17  2  0
 17 18  1  0
 18 19  2  0
 19 20  1  0
 20 21  1  0
 21 22  1  0
 22 23  1  0
 23 24  1  0
 24 25  1  0
 25 26  2  0
 26 27  1  0
 27 28  2  0
 28 29  1  0
 29 30  2  0
 20 31  1  0
 31 32  2  0
  9  4  1  0
 32 13  1  0
 12  7  1  0
 32 18  1  0
 30 25  1  0
M  END
>  <smiles>  (1795) 
C25583-P213

>  <fragmenstein_outcome>  (1795) 
acceptable

>  <inchikey>  (1795) 
KOZFMZOXUWHDIC-UHFFFAOYSA-N

>  <fragmenstein_mode>  (1795) 
expansion

>  <HIPPO Pose ID>  (1795) 
23259

>  <Energy>  (1795) 
42.283557

>  <fragmenstein_error>  (1795) 


>  <tags>  (1795) 
{'openbind_xx01zvns2b_c1_fragmenstein', 'fragmenstein_placed'}

>  <ref_pdb>  (1795) 
175

>  <scratch_subdir>  (1795) 
/opt/xchem-fragalysis-2/maxwin/BulkDock/SCRATCH/511028/C25583-P213

>  <alias>  (1795) 
O=C(Nc1cnc2c(c1)CNC2)c1cc(F)cc2nn(OCOCc3ccccc3)cc12

>  <HIPPO Compound ID>  (1795) 
25583

>  <fragmenstein_runtime>  (1795) 
8.710548

$$$$
O=C(Nc1cnc2c(c1)CNC2)c1cc(F)cc2[nH]ncc12
     RDKit          3D

 22 25  0  0  0  0  0  0  0  0999 V2000
   -7.0791    6.3805  -13.5727 O   0  0  0  0  0  0  0  0  0  0  0  0
   -7.4774    5.3148  -13.8358 C   0  0  0  0  0  0  0  0  0  0  0  0
   -7.9615    4.1693  -12.9145 N   0  0  0  0  0  0  0  0  0  0  0  0
   -8.1394    4.1328  -11.5297 C   0  0  0  0  0  0  0  0  0  0  0  0
   -8.0048    5.2705  -10.7224 C   0  0  0  0  0  0  0  0  0  0  0  0
   -8.1707    5.2876   -9.3706 N   0  0  0  0  0  0  0  0  0  0  0  0
   -8.4722    4.0941   -8.8306 C   0  0  0  0  0  0  0  0  0  0  0  0
   -8.6265    2.9173   -9.5399 C   0  0  0  0  0  0  0  0  0  0  0  0
   -8.4611    2.9222  -10.9130 C   0  0  0  0  0  0  0  0  0  0  0  0
   -8.9347    1.8082   -8.5935 C   0  0  0  0  0  0  0  0  0  0  0  0
   -9.3437    2.4674   -7.3191 N   0  0  0  0  0  0  0  0  0  0  0  0
   -8.7117    3.8133   -7.3719 C   0  0  0  0  0  0  0  0  0  0  0  0
   -7.5457    4.9307  -15.2709 C   0  0  0  0  0  0  0  0  0  0  0  0
   -8.7121    4.3773  -15.8159 C   0  0  0  0  0  0  0  0  0  0  0  0
   -8.8126    4.1464  -17.1845 C   0  0  0  0  0  0  0  0  0  0  0  0
   -9.9590    3.6635  -17.6814 F   0  0  0  0  0  0  0  0  0  0  0  0
   -7.7632    4.4165  -18.0567 C   0  0  0  0  0  0  0  0  0  0  0  0
   -6.5990    4.9413  -17.4914 C   0  0  0  0  0  0  0  0  0  0  0  0
   -5.4028    5.2927  -18.0585 N   0  0  0  0  0  0  0  0  0  0  0  0
   -4.5129    5.7991  -17.1798 N   0  0  0  0  0  0  0  0  0  0  0  0
   -5.1633    5.7461  -16.0125 C   0  0  0  0  0  0  0  0  0  0  0  0
   -6.4670    5.2139  -16.1320 C   0  0  0  0  0  0  0  0  0  0  0  0
  1  2  2  0
  2  3  1  0
  3  4  1  0
  4  5  2  0
  5  6  1  0
  6  7  2  0
  7  8  1  0
  8  9  2  0
  8 10  1  0
 10 11  1  0
 11 12  1  0
  2 13  1  0
 13 14  2  0
 14 15  1  0
 15 16  1  0
 15 17  2  0
 17 18  1  0
 18 19  1  0
 19 20  1  0
 20 21  2  0
 21 22  1  0
  9  4  1  0
 22 13  1  0
 12  7  1  0
 22 18  2  0
M  END
>  <smiles>  (1796) 
C182-P213

>  <fragmenstein_outcome>  (1796) 
acceptable

>  <inchikey>  (1796) 
LPGIDXODXUYNEY-UHFFFAOYSA-N

>  <fragmenstein_mode>  (1796) 
expansion

>  <HIPPO Pose ID>  (1796) 
23260

>  <Energy>  (1796) 
76.190564

>  <fragmenstein_error>  (1796) 


>  <tags>  (1796) 
{'openbind_xx01zvns2b_c1_fragmenstein', 'fragmenstein_placed'}

>  <ref_pdb>  (1796) 
175

>  <scratch_subdir>  (1796) 
/opt/xchem-fragalysis-2/maxwin/BulkDock/SCRATCH/511028/C182-P213

>  <alias>  (1796) 
O=C(Nc1cnc2c(c1)CNC2)c1cc(F)cc2[nH]ncc12

>  <HIPPO Compound ID>  (1796) 
182

>  <fragmenstein_runtime>  (1796) 
4.191046

$$$$
CC(C)CNC(=O)[C@@](O)(Nc1cnc2c(c1)CNC2)c1cc(F)cc2[nH]ncc12
     RDKit          3D

 29 32  0  0  0  0  0  0  0  0999 V2000
   -3.5245    1.9605  -14.2306 C   0  0  0  0  0  0  0  0  0  0  0  0
   -3.3517    2.7832  -12.9680 C   0  0  0  0  0  0  0  0  0  0  0  0
   -2.9371    4.2039  -13.3354 C   0  0  0  0  0  0  0  0  0  0  0  0
   -4.6001    2.7390  -12.0838 C   0  0  0  0  0  0  0  0  0  0  0  0
   -5.7298    3.4295  -12.6392 N   0  0  0  0  0  0  0  0  0  0  0  0
   -7.0273    2.8769  -13.3018 C   0  0  0  0  0  0  0  0  0  0  0  0
   -7.3358    1.7788  -13.5645 O   0  0  0  0  0  0  0  0  0  0  0  0
   -8.0085    4.1684  -13.5411 C   0  0  1  0  0  0  0  0  0  0  0  0
   -9.3987    4.0058  -13.4228 O   0  0  0  0  0  0  0  0  0  0  0  0
   -7.6900    5.2201  -12.5513 N   0  0  0  0  0  0  0  0  0  0  0  0
   -7.9699    4.9510  -11.1757 C   0  0  0  0  0  0  0  0  0  0  0  0
   -7.7612    5.9695  -10.2243 C   0  0  0  0  0  0  0  0  0  0  0  0
   -7.9217    5.8544   -8.8773 N   0  0  0  0  0  0  0  0  0  0  0  0
   -8.3178    4.6380   -8.4634 C   0  0  0  0  0  0  0  0  0  0  0  0
   -8.5565    3.5679   -9.2931 C   0  0  0  0  0  0  0  0  0  0  0  0
   -8.3723    3.7087  -10.6579 C   0  0  0  0  0  0  0  0  0  0  0  0
   -9.0351    2.3973   -8.5081 C   0  0  0  0  0  0  0  0  0  0  0  0
   -8.9515    2.7877   -7.0714 N   0  0  0  0  0  0  0  0  0  0  0  0
   -8.6072    4.2326   -7.0469 C   0  0  0  0  0  0  0  0  0  0  0  0
   -7.8017    4.6311  -14.9984 C   0  0  0  0  0  0  0  0  0  0  0  0
   -8.6941    4.1248  -15.9912 C   0  0  0  0  0  0  0  0  0  0  0  0
   -8.5377    4.3545  -17.3499 C   0  0  0  0  0  0  0  0  0  0  0  0
   -9.4407    3.8540  -18.2040 F   0  0  0  0  0  0  0  0  0  0  0  0
   -7.4641    5.0798  -17.8314 C   0  0  0  0  0  0  0  0  0  0  0  0
   -6.6069    5.6264  -16.8757 C   0  0  0  0  0  0  0  0  0  0  0  0
   -5.4926    6.4044  -17.0354 N   0  0  0  0  0  0  0  0  0  0  0  0
   -4.9632    6.8398  -15.8836 N   0  0  0  0  0  0  0  0  0  0  0  0
   -5.7051    6.2262  -14.9564 C   0  0  0  0  0  0  0  0  0  0  0  0
   -6.7563    5.4475  -15.4981 C   0  0  0  0  0  0  0  0  0  0  0  0
  1  2  1  0
  2  3  1  0
  2  4  1  0
  4  5  1  0
  5  6  1  0
  6  7  2  0
  6  8  1  0
  8  9  1  6
  8 10  1  0
 10 11  1  0
 11 12  2  0
 12 13  1  0
 13 14  2  0
 14 15  1  0
 15 16  2  0
 15 17  1  0
 17 18  1  0
 18 19  1  0
  8 20  1  0
 20 21  2  0
 21 22  1  0
 22 23  1  0
 22 24  2  0
 24 25  1  0
 25 26  1  0
 26 27  1  0
 27 28  2  0
 28 29  1  0
 16 11  1  0
 29 20  1  0
 19 14  1  0
 29 25  2  0
M  END
>  <smiles>  (1797) 
C23189-P214

>  <fragmenstein_outcome>  (1797) 
acceptable

>  <inchikey>  (1797) 
SFWBCRKTLAHCFJ-UHFFFAOYSA-N

>  <fragmenstein_mode>  (1797) 
expansion

>  <HIPPO Pose ID>  (1797) 
23264

>  <Energy>  (1797) 
132.32714

>  <fragmenstein_error>  (1797) 


>  <tags>  (1797) 
{'openbind_xx01zvns2b_c1_fragmenstein', 'fragmenstein_placed'}

>  <ref_pdb>  (1797) 
175

>  <scratch_subdir>  (1797) 
/opt/xchem-fragalysis-2/maxwin/BulkDock/SCRATCH/511028/C23189-P214

>  <alias>  (1797) 
CC(C)CNC(=O)[C@@](O)(Nc1cnc2c(c1)CNC2)c1cc(F)cc2[nH]ncc12

>  <HIPPO Compound ID>  (1797) 
23189

>  <fragmenstein_runtime>  (1797) 
5.3454

$$$$
CNCn1ncc2c(C(=O)Nc3cnc4c(c3)CN(C)[C@@H]4C)cc(F)cc21
     RDKit          3D

 27 30  0  0  0  0  0  0  0  0999 V2000
   -4.5007    8.4274  -15.3870 C   0  0  0  0  0  0  0  0  0  0  0  0
   -3.8405    7.8505  -16.5579 N   0  0  0  0  0  0  0  0  0  0  0  0
   -4.7520    7.0258  -17.3783 C   0  0  0  0  0  0  0  0  0  0  0  0
   -5.0962    5.7961  -16.6607 N   0  0  0  0  0  0  0  0  0  0  0  0
   -4.2597    5.3342  -15.6907 N   0  0  0  0  0  0  0  0  0  0  0  0
   -5.0736    4.6353  -14.8999 C   0  0  0  0  0  0  0  0  0  0  0  0
   -6.3780    4.5413  -15.4267 C   0  0  0  0  0  0  0  0  0  0  0  0
   -7.5932    3.9822  -15.0163 C   0  0  0  0  0  0  0  0  0  0  0  0
   -7.7149    3.4150  -13.6673 C   0  0  0  0  0  0  0  0  0  0  0  0
   -7.7953    2.2605  -13.5323 O   0  0  0  0  0  0  0  0  0  0  0  0
   -7.8137    4.5537  -12.6288 N   0  0  0  0  0  0  0  0  0  0  0  0
   -7.9332    4.5051  -11.2441 C   0  0  0  0  0  0  0  0  0  0  0  0
   -7.6561    5.6255  -10.4459 C   0  0  0  0  0  0  0  0  0  0  0  0
   -7.7727    5.6678   -9.0926 N   0  0  0  0  0  0  0  0  0  0  0  0
   -8.2572    4.5355   -8.5497 C   0  0  0  0  0  0  0  0  0  0  0  0
   -8.6031    3.3996   -9.2714 C   0  0  0  0  0  0  0  0  0  0  0  0
   -8.4009    3.3514  -10.6315 C   0  0  0  0  0  0  0  0  0  0  0  0
   -9.2004    2.3819   -8.3633 C   0  0  0  0  0  0  0  0  0  0  0  0
   -9.5318    3.1626   -7.1410 N   0  0  0  0  0  0  0  0  0  0  0  0
   -9.5479    2.3062   -5.9786 C   0  0  0  0  0  0  0  0  0  0  0  0
   -8.5161    4.2451   -7.0826 C   0  0  2  0  0  0  0  0  0  0  0  0
   -8.9685    5.4478   -6.2658 C   0  0  0  0  0  0  0  0  0  0  0  0
   -8.6885    3.9658  -15.8835 C   0  0  0  0  0  0  0  0  0  0  0  0
   -8.5559    4.4730  -17.1663 C   0  0  0  0  0  0  0  0  0  0  0  0
   -9.5964    4.3711  -18.0066 F   0  0  0  0  0  0  0  0  0  0  0  0
   -7.3838    5.1131  -17.5877 C   0  0  0  0  0  0  0  0  0  0  0  0
   -6.3166    5.1612  -16.6736 C   0  0  0  0  0  0  0  0  0  0  0  0
  1  2  1  0
  2  3  1  0
  3  4  1  0
  4  5  1  0
  5  6  2  0
  6  7  1  0
  7  8  2  0
  8  9  1  0
  9 10  2  0
  9 11  1  0
 11 12  1  0
 12 13  2  0
 13 14  1  0
 14 15  2  0
 15 16  1  0
 16 17  2  0
 16 18  1  0
 18 19  1  0
 19 20  1  0
 19 21  1  0
 21 22  1  1
  8 23  1  0
 23 24  2  0
 24 25  1  0
 24 26  1  0
 26 27  2  0
 27  4  1  0
 27  7  1  0
 17 12  1  0
 21 15  1  0
M  END
>  <smiles>  (1798) 
C23259-P214

>  <fragmenstein_outcome>  (1798) 
acceptable

>  <inchikey>  (1798) 
KDPPBLONVKPKAV-UHFFFAOYSA-N

>  <fragmenstein_mode>  (1798) 
expansion

>  <HIPPO Pose ID>  (1798) 
23287

>  <Energy>  (1798) 
126.340662

>  <fragmenstein_error>  (1798) 


>  <tags>  (1798) 
{'openbind_xx01zvns2b_c1_fragmenstein', 'fragmenstein_placed'}

>  <ref_pdb>  (1798) 
175

>  <scratch_subdir>  (1798) 
/opt/xchem-fragalysis-2/maxwin/BulkDock/SCRATCH/511028/C23259-P214

>  <alias>  (1798) 
CNCn1ncc2c(C(=O)Nc3cnc4c(c3)CN(C)[C@@H]4C)cc(F)cc21

>  <HIPPO Compound ID>  (1798) 
43243

>  <fragmenstein_runtime>  (1798) 
7.207568

$$$$
N#Cc1c[nH]c2c(C(=O)Nc3ccc4c(c3)CNC4)cc(Br)cc12
     RDKit          3D

 24 27  0  0  0  0  0  0  0  0999 V2000
   -4.0380    6.5189  -19.2645 N   0  0  0  0  0  0  0  0  0  0  0  0
   -4.5361    6.2254  -18.2602 C   0  0  0  0  0  0  0  0  0  0  0  0
   -5.0827    5.8193  -17.0085 C   0  0  0  0  0  0  0  0  0  0  0  0
   -4.4139    5.8306  -15.8043 C   0  0  0  0  0  0  0  0  0  0  0  0
   -5.2107    5.2070  -14.8756 N   0  0  0  0  0  0  0  0  0  0  0  0
   -6.4244    4.8871  -15.4423 C   0  0  0  0  0  0  0  0  0  0  0  0
   -7.5457    4.2336  -14.9178 C   0  0  0  0  0  0  0  0  0  0  0  0
   -7.5578    3.6326  -13.5746 C   0  0  0  0  0  0  0  0  0  0  0  0
   -7.4601    2.4749  -13.4760 O   0  0  0  0  0  0  0  0  0  0  0  0
   -7.7598    4.7149  -12.4939 N   0  0  0  0  0  0  0  0  0  0  0  0
   -7.9716    4.5955  -11.1231 C   0  0  0  0  0  0  0  0  0  0  0  0
   -7.9313    5.7474  -10.3183 C   0  0  0  0  0  0  0  0  0  0  0  0
   -8.1650    5.6631   -8.9398 C   0  0  0  0  0  0  0  0  0  0  0  0
   -8.4825    4.4273   -8.4040 C   0  0  0  0  0  0  0  0  0  0  0  0
   -8.5503    3.2955   -9.2074 C   0  0  0  0  0  0  0  0  0  0  0  0
   -8.2699    3.3536  -10.5608 C   0  0  0  0  0  0  0  0  0  0  0  0
   -8.9586    2.1191   -8.3847 C   0  0  0  0  0  0  0  0  0  0  0  0
   -9.3936    2.6873   -7.0771 N   0  0  0  0  0  0  0  0  0  0  0  0
   -8.7958    4.0367   -6.9989 C   0  0  0  0  0  0  0  0  0  0  0  0
   -8.6614    4.0526  -15.7341 C   0  0  0  0  0  0  0  0  0  0  0  0
   -8.6235    4.4475  -17.0615 C   0  0  0  0  0  0  0  0  0  0  0  0
  -10.1356    4.1842  -18.1461 Br  0  0  0  0  0  0  0  0  0  0  0  0
   -7.4851    5.0349  -17.6140 C   0  0  0  0  0  0  0  0  0  0  0  0
   -6.3726    5.2774  -16.7854 C   0  0  0  0  0  0  0  0  0  0  0  0
  1  2  3  0
  2  3  1  0
  3  4  2  0
  4  5  1  0
  5  6  1  0
  6  7  2  0
  7  8  1  0
  8  9  2  0
  8 10  1  0
 10 11  1  0
 11 12  2  0
 12 13  1  0
 13 14  2  0
 14 15  1  0
 15 16  2  0
 15 17  1  0
 17 18  1  0
 18 19  1  0
  7 20  1  0
 20 21  2  0
 21 22  1  0
 21 23  1  0
 23 24  2  0
 24  3  1  0
 24  6  1  0
 16 11  1  0
 19 14  1  0
M  END
>  <smiles>  (1799) 
C25622-P214

>  <fragmenstein_outcome>  (1799) 
acceptable

>  <inchikey>  (1799) 
UUIJBEFZHQZDRV-UHFFFAOYSA-N

>  <fragmenstein_mode>  (1799) 
expansion

>  <HIPPO Pose ID>  (1799) 
23292

>  <Energy>  (1799) 
61.395927

>  <fragmenstein_error>  (1799) 


>  <tags>  (1799) 
{'openbind_xx01zvns2b_c1_fragmenstein', 'fragmenstein_placed'}

>  <ref_pdb>  (1799) 
175

>  <scratch_subdir>  (1799) 
/opt/xchem-fragalysis-2/maxwin/BulkDock/SCRATCH/511028/C25622-P214

>  <alias>  (1799) 
N#Cc1c[nH]c2c(C(=O)Nc3ccc4c(c3)CNC4)cc(Br)cc12

>  <HIPPO Compound ID>  (1799) 
20359

>  <fragmenstein_runtime>  (1799) 
3.967846

$$$$
CN[C@@](O)(Nc1ccc2c(c1)CNC2)c1cccc2c(C#N)c[nH]c12
     RDKit          3D

 25 28  0  0  0  0  0  0  0  0999 V2000
   -5.7621    2.1022  -12.6775 C   0  0  0  0  0  0  0  0  0  0  0  0
   -6.1009    3.4576  -13.1010 N   0  0  0  0  0  0  0  0  0  0  0  0
   -7.4807    3.6076  -13.5447 C   0  0  1  0  0  0  0  0  0  0  0  0
   -8.0757    2.3354  -13.6554 O   0  0  0  0  0  0  0  0  0  0  0  0
   -8.3916    4.4213  -12.7596 N   0  0  0  0  0  0  0  0  0  0  0  0
   -8.3070    4.3809  -11.3534 C   0  0  0  0  0  0  0  0  0  0  0  0
   -7.8911    5.5306  -10.6544 C   0  0  0  0  0  0  0  0  0  0  0  0
   -7.8931    5.5676   -9.2543 C   0  0  0  0  0  0  0  0  0  0  0  0
   -8.3113    4.4398   -8.5712 C   0  0  0  0  0  0  0  0  0  0  0  0
   -8.6916    3.2945   -9.2547 C   0  0  0  0  0  0  0  0  0  0  0  0
   -8.6731    3.2386  -10.6367 C   0  0  0  0  0  0  0  0  0  0  0  0
   -9.1762    2.2665   -8.2934 C   0  0  0  0  0  0  0  0  0  0  0  0
   -8.8930    2.8080   -6.9349 N   0  0  0  0  0  0  0  0  0  0  0  0
   -8.5099    4.2274   -7.1109 C   0  0  0  0  0  0  0  0  0  0  0  0
   -7.5335    4.1955  -14.9763 C   0  0  0  0  0  0  0  0  0  0  0  0
   -8.7474    4.1445  -15.7175 C   0  0  0  0  0  0  0  0  0  0  0  0
   -8.8405    4.5013  -17.0580 C   0  0  0  0  0  0  0  0  0  0  0  0
   -7.7174    4.9690  -17.7301 C   0  0  0  0  0  0  0  0  0  0  0  0
   -6.5053    5.1092  -17.0304 C   0  0  0  0  0  0  0  0  0  0  0  0
   -5.2059    5.5406  -17.4038 C   0  0  0  0  0  0  0  0  0  0  0  0
   -4.8143    5.9785  -18.7015 C   0  0  0  0  0  0  0  0  0  0  0  0
   -4.4924    6.3462  -19.7533 N   0  0  0  0  0  0  0  0  0  0  0  0
   -4.3805    5.4247  -16.3075 C   0  0  0  0  0  0  0  0  0  0  0  0
   -5.1356    4.9184  -15.2857 N   0  0  0  0  0  0  0  0  0  0  0  0
   -6.4420    4.7293  -15.6898 C   0  0  0  0  0  0  0  0  0  0  0  0
  1  2  1  0
  2  3  1  0
  3  4  1  6
  3  5  1  0
  5  6  1  0
  6  7  2  0
  7  8  1  0
  8  9  2  0
  9 10  1  0
 10 11  2  0
 10 12  1  0
 12 13  1  0
 13 14  1  0
  3 15  1  0
 15 16  2  0
 16 17  1  0
 17 18  2  0
 18 19  1  0
 19 20  1  0
 20 21  1  0
 21 22  3  0
 20 23  2  0
 23 24  1  0
 24 25  1  0
 11  6  1  0
 25 15  1  0
 14  9  1  0
 25 19  2  0
M  END
>  <smiles>  (1800) 
C25645-P214

>  <fragmenstein_outcome>  (1800) 
acceptable

>  <inchikey>  (1800) 
NILWULBVQMINSJ-UHFFFAOYSA-N

>  <fragmenstein_mode>  (1800) 
expansion

>  <HIPPO Pose ID>  (1800) 
23296

>  <Energy>  (1800) 
-69.531559

>  <fragmenstein_error>  (1800) 


>  <tags>  (1800) 
{'openbind_xx01zvns2b_c1_fragmenstein', 'fragmenstein_placed'}

>  <ref_pdb>  (1800) 
175

>  <scratch_subdir>  (1800) 
/opt/xchem-fragalysis-2/maxwin/BulkDock/SCRATCH/511028/C25645-P214

>  <alias>  (1800) 
CN[C@@](O)(Nc1ccc2c(c1)CNC2)c1cccc2c(C#N)c[nH]c12

>  <HIPPO Compound ID>  (1800) 
25645

>  <fragmenstein_runtime>  (1800) 
5.456037

$$$$
Cc1cc(C(=O)Nc2ccc3c(c2)CNC3)c2[nH]cc(C#N)c2c1
     RDKit          3D

 24 27  0  0  0  0  0  0  0  0999 V2000
   -9.9297    4.1850  -18.1335 C   0  0  0  0  0  0  0  0  0  0  0  0
   -8.7729    4.4167  -17.2084 C   0  0  0  0  0  0  0  0  0  0  0  0
   -8.8425    4.0145  -15.8743 C   0  0  0  0  0  0  0  0  0  0  0  0
   -7.7738    4.2181  -14.9939 C   0  0  0  0  0  0  0  0  0  0  0  0
   -7.8116    3.6249  -13.6445 C   0  0  0  0  0  0  0  0  0  0  0  0
   -7.8379    2.4639  -13.5411 O   0  0  0  0  0  0  0  0  0  0  0  0
   -7.8452    4.7268  -12.5640 N   0  0  0  0  0  0  0  0  0  0  0  0
   -8.0082    4.6355  -11.1837 C   0  0  0  0  0  0  0  0  0  0  0  0
   -7.8970    5.7947  -10.3976 C   0  0  0  0  0  0  0  0  0  0  0  0
   -8.0779    5.7339   -9.0097 C   0  0  0  0  0  0  0  0  0  0  0  0
   -8.4039    4.5140   -8.4415 C   0  0  0  0  0  0  0  0  0  0  0  0
   -8.5488    3.3794   -9.2261 C   0  0  0  0  0  0  0  0  0  0  0  0
   -8.3257    3.4128  -10.5914 C   0  0  0  0  0  0  0  0  0  0  0  0
   -9.0172    2.2386   -8.3908 C   0  0  0  0  0  0  0  0  0  0  0  0
   -8.9705    2.7170   -6.9792 N   0  0  0  0  0  0  0  0  0  0  0  0
   -8.6954    4.1698   -7.0220 C   0  0  0  0  0  0  0  0  0  0  0  0
   -6.6483    4.9018  -15.4591 C   0  0  0  0  0  0  0  0  0  0  0  0
   -5.4742    5.2504  -14.8300 N   0  0  0  0  0  0  0  0  0  0  0  0
   -4.6369    5.8737  -15.7245 C   0  0  0  0  0  0  0  0  0  0  0  0
   -5.2637    5.8837  -16.9535 C   0  0  0  0  0  0  0  0  0  0  0  0
   -4.7333    6.3695  -18.1873 C   0  0  0  0  0  0  0  0  0  0  0  0
   -4.3320    6.7761  -19.1975 N   0  0  0  0  0  0  0  0  0  0  0  0
   -6.5437    5.2990  -16.7932 C   0  0  0  0  0  0  0  0  0  0  0  0
   -7.6098    5.0373  -17.6776 C   0  0  0  0  0  0  0  0  0  0  0  0
  1  2  1  0
  2  3  2  0
  3  4  1  0
  4  5  1  0
  5  6  2  0
  5  7  1  0
  7  8  1  0
  8  9  2  0
  9 10  1  0
 10 11  2  0
 11 12  1  0
 12 13  2  0
 12 14  1  0
 14 15  1  0
 15 16  1  0
  4 17  2  0
 17 18  1  0
 18 19  1  0
 19 20  2  0
 20 21  1  0
 21 22  3  0
 20 23  1  0
 23 24  2  0
 24  2  1  0
 13  8  1  0
 23 17  1  0
 16 11  1  0
M  END
>  <smiles>  (1801) 
C25624-P214

>  <fragmenstein_outcome>  (1801) 
acceptable

>  <inchikey>  (1801) 
ZCETXSMNIOMQJN-UHFFFAOYSA-N

>  <fragmenstein_mode>  (1801) 
expansion

>  <HIPPO Pose ID>  (1801) 
23297

>  <Energy>  (1801) 
72.752391

>  <fragmenstein_error>  (1801) 


>  <tags>  (1801) 
{'openbind_xx01zvns2b_c1_fragmenstein', 'fragmenstein_placed'}

>  <ref_pdb>  (1801) 
175

>  <scratch_subdir>  (1801) 
/opt/xchem-fragalysis-2/maxwin/BulkDock/SCRATCH/511028/C25624-P214

>  <alias>  (1801) 
Cc1cc(C(=O)Nc2ccc3c(c2)CNC3)c2[nH]cc(C#N)c2c1

>  <HIPPO Compound ID>  (1801) 
25624

>  <fragmenstein_runtime>  (1801) 
5.847334

$$$$
CS(=O)(=O)c1cc2c(cc1NC(=O)c1cccc3c(C#N)c[nH]c13)CNC2
     RDKit          3D

 27 30  0  0  0  0  0  0  0  0999 V2000
   -8.7660    8.4509  -10.1037 C   0  0  0  0  0  0  0  0  0  0  0  0
   -7.5069    7.3717  -10.7320 S   0  0  0  0  0  0  0  0  0  0  0  0
   -7.6397    7.3664  -12.1820 O   0  0  0  0  0  0  0  0  0  0  0  0
   -6.2462    7.7410  -10.1172 O   0  0  0  0  0  0  0  0  0  0  0  0
   -7.9279    5.7554  -10.1300 C   0  0  0  0  0  0  0  0  0  0  0  0
   -8.1363    5.6196   -8.7440 C   0  0  0  0  0  0  0  0  0  0  0  0
   -8.5076    4.3799   -8.2580 C   0  0  0  0  0  0  0  0  0  0  0  0
   -8.6207    3.2891   -9.1074 C   0  0  0  0  0  0  0  0  0  0  0  0
   -8.3557    3.3939  -10.4608 C   0  0  0  0  0  0  0  0  0  0  0  0
   -8.0267    4.6441  -10.9963 C   0  0  0  0  0  0  0  0  0  0  0  0
   -7.8440    4.7478  -12.3788 N   0  0  0  0  0  0  0  0  0  0  0  0
   -7.8484    3.6613  -13.4745 C   0  0  0  0  0  0  0  0  0  0  0  0
   -7.9283    2.5013  -13.3884 O   0  0  0  0  0  0  0  0  0  0  0  0
   -7.7877    4.2551  -14.8204 C   0  0  0  0  0  0  0  0  0  0  0  0
   -8.8394    4.0368  -15.7188 C   0  0  0  0  0  0  0  0  0  0  0  0
   -8.7281    4.3851  -17.0589 C   0  0  0  0  0  0  0  0  0  0  0  0
   -7.5423    4.9406  -17.5382 C   0  0  0  0  0  0  0  0  0  0  0  0
   -6.4909    5.2092  -16.6373 C   0  0  0  0  0  0  0  0  0  0  0  0
   -5.1733    5.6960  -16.7930 C   0  0  0  0  0  0  0  0  0  0  0  0
   -4.5612    5.9714  -18.0430 C   0  0  0  0  0  0  0  0  0  0  0  0
   -4.1123    6.1491  -19.0965 N   0  0  0  0  0  0  0  0  0  0  0  0
   -4.5922    5.7975  -15.5514 C   0  0  0  0  0  0  0  0  0  0  0  0
   -5.4759    5.2659  -14.6445 N   0  0  0  0  0  0  0  0  0  0  0  0
   -6.6393    4.8977  -15.2855 C   0  0  0  0  0  0  0  0  0  0  0  0
   -9.0405    2.0865   -8.3292 C   0  0  0  0  0  0  0  0  0  0  0  0
   -9.4763    2.6176   -7.0087 N   0  0  0  0  0  0  0  0  0  0  0  0
   -8.8344    3.9408   -6.8692 C   0  0  0  0  0  0  0  0  0  0  0  0
  1  2  1  0
  2  3  2  0
  2  4  2  0
  2  5  1  0
  5  6  2  0
  6  7  1  0
  7  8  2  0
  8  9  1  0
  9 10  2  0
 10 11  1  0
 11 12  1  0
 12 13  2  0
 12 14  1  0
 14 15  2  0
 15 16  1  0
 16 17  2  0
 17 18  1  0
 18 19  1  0
 19 20  1  0
 20 21  3  0
 19 22  2  0
 22 23  1  0
 23 24  1  0
  8 25  1  0
 25 26  1  0
 26 27  1  0
 10  5  1  0
 24 14  1  0
 27  7  1  0
 24 18  2  0
M  END
>  <smiles>  (1802) 
C25614-P214

>  <fragmenstein_outcome>  (1802) 
acceptable

>  <inchikey>  (1802) 
RRWRSSRXUJFXRE-UHFFFAOYSA-N

>  <fragmenstein_mode>  (1802) 
expansion

>  <HIPPO Pose ID>  (1802) 
23298

>  <Energy>  (1802) 
95.424404

>  <fragmenstein_error>  (1802) 


>  <tags>  (1802) 
{'openbind_xx01zvns2b_c1_fragmenstein', 'fragmenstein_placed'}

>  <ref_pdb>  (1802) 
175

>  <scratch_subdir>  (1802) 
/opt/xchem-fragalysis-2/maxwin/BulkDock/SCRATCH/511028/C25614-P214

>  <alias>  (1802) 
CS(=O)(=O)c1cc2c(cc1NC(=O)c1cccc3c(C#N)c[nH]c13)CNC2

>  <HIPPO Compound ID>  (1802) 
25614

>  <fragmenstein_runtime>  (1802) 
6.065958

$$$$
N#Cc1c[nH]c2c(C(O)(O)Nc3ccc4c(c3)CNC4)cccc12
     RDKit          3D

 24 27  0  0  0  0  0  0  0  0999 V2000
   -4.6294    8.3178  -18.3275 N   0  0  0  0  0  0  0  0  0  0  0  0
   -4.9130    7.5492  -17.5040 C   0  0  0  0  0  0  0  0  0  0  0  0
   -5.3123    6.6529  -16.4707 C   0  0  0  0  0  0  0  0  0  0  0  0
   -4.7404    6.5874  -15.2180 C   0  0  0  0  0  0  0  0  0  0  0  0
   -5.4550    5.6776  -14.4886 N   0  0  0  0  0  0  0  0  0  0  0  0
   -6.5037    5.1854  -15.2385 C   0  0  0  0  0  0  0  0  0  0  0  0
   -7.5140    4.2850  -14.8513 C   0  0  0  0  0  0  0  0  0  0  0  0
   -7.6049    3.7072  -13.4517 C   0  0  0  0  0  0  0  0  0  0  0  0
   -6.3101    3.4941  -12.9497 O   0  0  0  0  0  0  0  0  0  0  0  0
   -8.2403    2.4745  -13.4800 O   0  0  0  0  0  0  0  0  0  0  0  0
   -8.3020    4.6520  -12.6130 N   0  0  0  0  0  0  0  0  0  0  0  0
   -8.2808    4.5267  -11.2134 C   0  0  0  0  0  0  0  0  0  0  0  0
   -8.0570    5.6815  -10.4273 C   0  0  0  0  0  0  0  0  0  0  0  0
   -8.1098    5.6465   -9.0281 C   0  0  0  0  0  0  0  0  0  0  0  0
   -8.4304    4.4501   -8.4190 C   0  0  0  0  0  0  0  0  0  0  0  0
   -8.6803    3.3170   -9.1755 C   0  0  0  0  0  0  0  0  0  0  0  0
   -8.5947    3.3314  -10.5587 C   0  0  0  0  0  0  0  0  0  0  0  0
   -9.1149    2.2016   -8.2895 C   0  0  0  0  0  0  0  0  0  0  0  0
   -8.9618    2.6984   -6.8945 N   0  0  0  0  0  0  0  0  0  0  0  0
   -8.6471    4.1414   -6.9790 C   0  0  0  0  0  0  0  0  0  0  0  0
   -8.4860    4.0212  -15.8410 C   0  0  0  0  0  0  0  0  0  0  0  0
   -8.3828    4.5099  -17.1417 C   0  0  0  0  0  0  0  0  0  0  0  0
   -7.3284    5.3510  -17.4980 C   0  0  0  0  0  0  0  0  0  0  0  0
   -6.3994    5.7375  -16.5134 C   0  0  0  0  0  0  0  0  0  0  0  0
  1  2  3  0
  2  3  1  0
  3  4  2  0
  4  5  1  0
  5  6  1  0
  6  7  2  0
  7  8  1  0
  8  9  1  0
  8 10  1  0
  8 11  1  0
 11 12  1  0
 12 13  2  0
 13 14  1  0
 14 15  2  0
 15 16  1  0
 16 17  2  0
 16 18  1  0
 18 19  1  0
 19 20  1  0
  7 21  1  0
 21 22  2  0
 22 23  1  0
 23 24  2  0
 24  3  1  0
 24  6  1  0
 17 12  1  0
 20 15  1  0
M  END
>  <smiles>  (1803) 
C25661-P214

>  <fragmenstein_outcome>  (1803) 
acceptable

>  <inchikey>  (1803) 
HCVJFKHUWGWVCN-UHFFFAOYSA-N

>  <fragmenstein_mode>  (1803) 
expansion

>  <HIPPO Pose ID>  (1803) 
23300

>  <Energy>  (1803) 
-60.477121

>  <fragmenstein_error>  (1803) 


>  <tags>  (1803) 
{'openbind_xx01zvns2b_c1_fragmenstein', 'fragmenstein_placed'}

>  <ref_pdb>  (1803) 
175

>  <scratch_subdir>  (1803) 
/opt/xchem-fragalysis-2/maxwin/BulkDock/SCRATCH/511028/C25661-P214

>  <alias>  (1803) 
N#Cc1c[nH]c2c(C(O)(O)Nc3ccc4c(c3)CNC4)cccc12

>  <HIPPO Compound ID>  (1803) 
25661

>  <fragmenstein_runtime>  (1803) 
5.354945

$$$$
N#Cc1c(N)[nH]c2c(C(=O)Nc3ccc4c(c3)CNC4)cccc12
     RDKit          3D

 24 27  0  0  0  0  0  0  0  0999 V2000
   -4.1416    6.2444  -19.0841 N   0  0  0  0  0  0  0  0  0  0  0  0
   -4.5692    5.9938  -18.0363 C   0  0  0  0  0  0  0  0  0  0  0  0
   -5.1495    5.6341  -16.7949 C   0  0  0  0  0  0  0  0  0  0  0  0
   -4.5325    5.6207  -15.5654 C   0  0  0  0  0  0  0  0  0  0  0  0
   -3.3028    5.9815  -15.1489 N   0  0  0  0  0  0  0  0  0  0  0  0
   -5.4167    5.0599  -14.6797 N   0  0  0  0  0  0  0  0  0  0  0  0
   -6.6088    4.7819  -15.3116 C   0  0  0  0  0  0  0  0  0  0  0  0
   -7.7736    4.1690  -14.8504 C   0  0  0  0  0  0  0  0  0  0  0  0
   -7.8276    3.5684  -13.5105 C   0  0  0  0  0  0  0  0  0  0  0  0
   -7.7779    2.4079  -13.4113 O   0  0  0  0  0  0  0  0  0  0  0  0
   -7.9318    4.6614  -12.4266 N   0  0  0  0  0  0  0  0  0  0  0  0
   -8.0868    4.5550  -11.0488 C   0  0  0  0  0  0  0  0  0  0  0  0
   -7.9946    5.7066  -10.2481 C   0  0  0  0  0  0  0  0  0  0  0  0
   -8.1921    5.6277   -8.8633 C   0  0  0  0  0  0  0  0  0  0  0  0
   -8.5215    4.3986   -8.3182 C   0  0  0  0  0  0  0  0  0  0  0  0
   -8.6247    3.2667   -9.1174 C   0  0  0  0  0  0  0  0  0  0  0  0
   -8.3820    3.3189  -10.4760 C   0  0  0  0  0  0  0  0  0  0  0  0
   -9.0286    2.0964   -8.2864 C   0  0  0  0  0  0  0  0  0  0  0  0
   -9.4503    2.6757   -6.9803 N   0  0  0  0  0  0  0  0  0  0  0  0
   -8.8243    4.0142   -6.9090 C   0  0  0  0  0  0  0  0  0  0  0  0
   -8.8488    4.0230  -15.7315 C   0  0  0  0  0  0  0  0  0  0  0  0
   -8.7437    4.4179  -17.0596 C   0  0  0  0  0  0  0  0  0  0  0  0
   -7.5500    4.9627  -17.5367 C   0  0  0  0  0  0  0  0  0  0  0  0
   -6.4747    5.1603  -16.6456 C   0  0  0  0  0  0  0  0  0  0  0  0
  1  2  3  0
  2  3  1  0
  3  4  2  0
  4  5  1  0
  4  6  1  0
  6  7  1  0
  7  8  2  0
  8  9  1  0
  9 10  2  0
  9 11  1  0
 11 12  1  0
 12 13  2  0
 13 14  1  0
 14 15  2  0
 15 16  1  0
 16 17  2  0
 16 18  1  0
 18 19  1  0
 19 20  1  0
  8 21  1  0
 21 22  2  0
 22 23  1  0
 23 24  2  0
 24  3  1  0
 24  7  1  0
 17 12  1  0
 20 15  1  0
M  END
>  <smiles>  (1804) 
C25628-P214

>  <fragmenstein_outcome>  (1804) 
acceptable

>  <inchikey>  (1804) 
KDWHSELMWBNIEY-UHFFFAOYSA-N

>  <fragmenstein_mode>  (1804) 
expansion

>  <HIPPO Pose ID>  (1804) 
23303

>  <Energy>  (1804) 
76.311039

>  <fragmenstein_error>  (1804) 


>  <tags>  (1804) 
{'openbind_xx01zvns2b_c1_fragmenstein', 'fragmenstein_placed'}

>  <ref_pdb>  (1804) 
175

>  <scratch_subdir>  (1804) 
/opt/xchem-fragalysis-2/maxwin/BulkDock/SCRATCH/511028/C25628-P214

>  <alias>  (1804) 
N#Cc1c(N)[nH]c2c(C(=O)Nc3ccc4c(c3)CNC4)cccc12

>  <HIPPO Compound ID>  (1804) 
33777

>  <fragmenstein_runtime>  (1804) 
6.771215

$$$$
N#Cc1c[nH]c2c(C(=O)Nc3ccc4c(c3)CNC4)cccc12
     RDKit          3D

 23 26  0  0  0  0  0  0  0  0999 V2000
   -4.5281    8.2450  -18.1563 N   0  0  0  0  0  0  0  0  0  0  0  0
   -4.8734    7.4806  -17.3532 C   0  0  0  0  0  0  0  0  0  0  0  0
   -5.3470    6.5878  -16.3473 C   0  0  0  0  0  0  0  0  0  0  0  0
   -4.8368    6.4922  -15.0694 C   0  0  0  0  0  0  0  0  0  0  0  0
   -5.6003    5.5858  -14.3822 N   0  0  0  0  0  0  0  0  0  0  0  0
   -6.6300    5.1409  -15.1828 C   0  0  0  0  0  0  0  0  0  0  0  0
   -7.6882    4.2681  -14.9032 C   0  0  0  0  0  0  0  0  0  0  0  0
   -7.8226    3.6393  -13.5733 C   0  0  0  0  0  0  0  0  0  0  0  0
   -7.7846    2.4769  -13.4840 O   0  0  0  0  0  0  0  0  0  0  0  0
   -7.9230    4.7263  -12.4773 N   0  0  0  0  0  0  0  0  0  0  0  0
   -8.0869    4.6090  -11.1021 C   0  0  0  0  0  0  0  0  0  0  0  0
   -7.9563    5.7585  -10.3022 C   0  0  0  0  0  0  0  0  0  0  0  0
   -8.1219    5.6831   -8.9147 C   0  0  0  0  0  0  0  0  0  0  0  0
   -8.4493    4.4580   -8.3608 C   0  0  0  0  0  0  0  0  0  0  0  0
   -8.6079    3.3336   -9.1587 C   0  0  0  0  0  0  0  0  0  0  0  0
   -8.4044    3.3813  -10.5263 C   0  0  0  0  0  0  0  0  0  0  0  0
   -9.0637    2.1829   -8.3314 C   0  0  0  0  0  0  0  0  0  0  0  0
   -9.0106    2.6467   -6.9156 N   0  0  0  0  0  0  0  0  0  0  0  0
   -8.7338    4.0993   -6.9437 C   0  0  0  0  0  0  0  0  0  0  0  0
   -8.5991    3.9772  -15.9212 C   0  0  0  0  0  0  0  0  0  0  0  0
   -8.4205    4.4888  -17.2021 C   0  0  0  0  0  0  0  0  0  0  0  0
   -7.3427    5.3367  -17.4832 C   0  0  0  0  0  0  0  0  0  0  0  0
   -6.4526    5.7005  -16.4498 C   0  0  0  0  0  0  0  0  0  0  0  0
  1  2  3  0
  2  3  1  0
  3  4  2  0
  4  5  1  0
  5  6  1  0
  6  7  2  0
  7  8  1  0
  8  9  2  0
  8 10  1  0
 10 11  1  0
 11 12  2  0
 12 13  1  0
 13 14  2  0
 14 15  1  0
 15 16  2  0
 15 17  1  0
 17 18  1  0
 18 19  1  0
  7 20  1  0
 20 21  2  0
 21 22  1  0
 22 23  2  0
 23  3  1  0
 23  6  1  0
 16 11  1  0
 19 14  1  0
M  END
>  <smiles>  (1805) 
C193-P214

>  <fragmenstein_outcome>  (1805) 
acceptable

>  <inchikey>  (1805) 
LFCFADNCZRJYKM-UHFFFAOYSA-N

>  <fragmenstein_mode>  (1805) 
expansion

>  <HIPPO Pose ID>  (1805) 
23307

>  <Energy>  (1805) 
70.36003

>  <fragmenstein_error>  (1805) 


>  <tags>  (1805) 
{'openbind_xx01zvns2b_c1_fragmenstein', 'fragmenstein_placed'}

>  <ref_pdb>  (1805) 
175

>  <scratch_subdir>  (1805) 
/opt/xchem-fragalysis-2/maxwin/BulkDock/SCRATCH/511028/C193-P214

>  <alias>  (1805) 
N#Cc1c[nH]c2c(C(=O)Nc3ccc4c(c3)CNC4)cccc12

>  <HIPPO Compound ID>  (1805) 
193

>  <fragmenstein_runtime>  (1805) 
4.447058

$$$$
N#CCCNc1cc(SCN)[nH]c1C(=O)Nc1ccc2c(c1)CNC2
     RDKit          3D

 25 27  0  0  0  0  0  0  0  0999 V2000
   -1.5708    5.5605  -19.3955 N   0  0  0  0  0  0  0  0  0  0  0  0
   -2.6389    5.6171  -18.9421 C   0  0  0  0  0  0  0  0  0  0  0  0
   -3.9920    5.6716  -18.3692 C   0  0  0  0  0  0  0  0  0  0  0  0
   -3.9176    5.7621  -16.8468 C   0  0  0  0  0  0  0  0  0  0  0  0
   -5.1544    6.2000  -16.1924 N   0  0  0  0  0  0  0  0  0  0  0  0
   -6.2835    5.4630  -16.3000 C   0  0  0  0  0  0  0  0  0  0  0  0
   -6.8512    5.0165  -17.5057 C   0  0  0  0  0  0  0  0  0  0  0  0
   -7.9491    4.2875  -17.1715 C   0  0  0  0  0  0  0  0  0  0  0  0
   -8.9692    3.3813  -18.1954 S   0  0  0  0  0  0  0  0  0  0  0  0
  -10.5837    3.8575  -17.6729 C   0  0  0  0  0  0  0  0  0  0  0  0
  -10.9943    5.0746  -18.2758 N   0  0  0  0  0  0  0  0  0  0  0  0
   -8.1219    4.3426  -15.8231 N   0  0  0  0  0  0  0  0  0  0  0  0
   -7.1170    5.0995  -15.2510 C   0  0  0  0  0  0  0  0  0  0  0  0
   -7.0905    5.4854  -13.8423 C   0  0  0  0  0  0  0  0  0  0  0  0
   -6.7155    6.5515  -13.5434 O   0  0  0  0  0  0  0  0  0  0  0  0
   -7.6988    4.3536  -12.9729 N   0  0  0  0  0  0  0  0  0  0  0  0
   -7.8767    4.2683  -11.5921 C   0  0  0  0  0  0  0  0  0  0  0  0
   -7.7357    5.4006  -10.7743 C   0  0  0  0  0  0  0  0  0  0  0  0
   -7.9842    5.3282   -9.3994 C   0  0  0  0  0  0  0  0  0  0  0  0
   -8.3742    4.1138   -8.8678 C   0  0  0  0  0  0  0  0  0  0  0  0
   -8.5032    2.9854   -9.6717 C   0  0  0  0  0  0  0  0  0  0  0  0
   -8.2606    3.0424  -11.0351 C   0  0  0  0  0  0  0  0  0  0  0  0
   -8.9035    1.8273   -8.8163 C   0  0  0  0  0  0  0  0  0  0  0  0
   -9.3725    2.4308   -7.5428 N   0  0  0  0  0  0  0  0  0  0  0  0
   -8.7036    3.7483   -7.4586 C   0  0  0  0  0  0  0  0  0  0  0  0
  1  2  3  0
  2  3  1  0
  3  4  1  0
  4  5  1  0
  5  6  1  0
  6  7  1  0
  7  8  2  0
  8  9  1  0
  9 10  1  0
 10 11  1  0
  8 12  1  0
 12 13  1  0
 13 14  1  0
 14 15  2  0
 14 16  1  0
 16 17  1  0
 17 18  2  0
 18 19  1  0
 19 20  2  0
 20 21  1  0
 21 22  2  0
 21 23  1  0
 23 24  1  0
 24 25  1  0
 13  6  2  0
 22 17  1  0
 25 20  1  0
M  END
>  <smiles>  (1806) 
C25703-P215

>  <fragmenstein_outcome>  (1806) 
acceptable

>  <inchikey>  (1806) 
UQTVAYFSJAZPHS-UHFFFAOYSA-N

>  <fragmenstein_mode>  (1806) 
expansion

>  <HIPPO Pose ID>  (1806) 
23313

>  <Energy>  (1806) 
-0.156127

>  <fragmenstein_error>  (1806) 


>  <tags>  (1806) 
{'openbind_xx01zvns2b_c1_fragmenstein', 'fragmenstein_placed'}

>  <ref_pdb>  (1806) 
175

>  <scratch_subdir>  (1806) 
/opt/xchem-fragalysis-2/maxwin/BulkDock/SCRATCH/511028/C25703-P215

>  <alias>  (1806) 
N#CCCNc1cc(SCN)[nH]c1C(=O)Nc1ccc2c(c1)CNC2

>  <HIPPO Compound ID>  (1806) 
36731

>  <fragmenstein_runtime>  (1806) 
5.822036

$$$$
N#CC1=c2cc(Br)cc(C(=O)Nc3ccc4c(c3)CNC4)c2=NC1=O
     RDKit          3D

 25 28  0  0  0  0  0  0  0  0999 V2000
   -4.3653    5.7354  -20.3214 N   0  0  0  0  0  0  0  0  0  0  0  0
   -4.7361    5.5680  -19.2357 C   0  0  0  0  0  0  0  0  0  0  0  0
   -5.1253    5.3971  -17.9012 C   0  0  0  0  0  0  0  0  0  0  0  0
   -6.2929    4.9980  -17.4105 C   0  0  0  0  0  0  0  0  0  0  0  0
   -7.5225    4.5672  -17.9821 C   0  0  0  0  0  0  0  0  0  0  0  0
   -8.5527    4.3158  -17.1616 C   0  0  0  0  0  0  0  0  0  0  0  0
  -10.2241    3.9567  -17.8471 Br  0  0  0  0  0  0  0  0  0  0  0  0
   -8.4502    4.4968  -15.7226 C   0  0  0  0  0  0  0  0  0  0  0  0
   -7.3154    4.8994  -15.1195 C   0  0  0  0  0  0  0  0  0  0  0  0
   -7.3891    5.3717  -13.7139 C   0  0  0  0  0  0  0  0  0  0  0  0
   -7.2021    6.4950  -13.4553 O   0  0  0  0  0  0  0  0  0  0  0  0
   -7.8285    4.1938  -12.8105 N   0  0  0  0  0  0  0  0  0  0  0  0
   -8.0296    4.1361  -11.4341 C   0  0  0  0  0  0  0  0  0  0  0  0
   -7.9411    5.2948  -10.6445 C   0  0  0  0  0  0  0  0  0  0  0  0
   -8.1642    5.2415   -9.2662 C   0  0  0  0  0  0  0  0  0  0  0  0
   -8.4970    4.0227   -8.7087 C   0  0  0  0  0  0  0  0  0  0  0  0
   -8.5888    2.8735   -9.4894 C   0  0  0  0  0  0  0  0  0  0  0  0
   -8.3460    2.9062  -10.8517 C   0  0  0  0  0  0  0  0  0  0  0  0
   -8.9578    1.7225   -8.6128 C   0  0  0  0  0  0  0  0  0  0  0  0
   -9.4501    2.3412   -7.3545 N   0  0  0  0  0  0  0  0  0  0  0  0
   -8.8018    3.6702   -7.2914 C   0  0  0  0  0  0  0  0  0  0  0  0
   -6.1291    5.1468  -15.9595 C   0  0  0  0  0  0  0  0  0  0  0  0
   -4.9456    5.5055  -15.5963 N   0  0  0  0  0  0  0  0  0  0  0  0
   -4.2304    5.6366  -16.7583 C   0  0  0  0  0  0  0  0  0  0  0  0
   -3.0421    5.8848  -16.8463 O   0  0  0  0  0  0  0  0  0  0  0  0
  1  2  3  0
  2  3  1  0
  3  4  2  0
  4  5  1  0
  5  6  2  0
  6  7  1  0
  6  8  1  0
  8  9  2  0
  9 10  1  0
 10 11  2  0
 10 12  1  0
 12 13  1  0
 13 14  2  0
 14 15  1  0
 15 16  2  0
 16 17  1  0
 17 18  2  0
 17 19  1  0
 19 20  1  0
 20 21  1  0
  9 22  1  0
 22 23  2  0
 23 24  1  0
 24 25  2  0
 24  3  1  0
 22  4  1  0
 18 13  1  0
 21 16  1  0
M  END
>  <smiles>  (1807) 
C25707-P215

>  <fragmenstein_outcome>  (1807) 
acceptable

>  <inchikey>  (1807) 
MSLYXQCVTWTVIQ-UHFFFAOYSA-N

>  <fragmenstein_mode>  (1807) 
expansion

>  <HIPPO Pose ID>  (1807) 
23315

>  <Energy>  (1807) 
10.790205

>  <fragmenstein_error>  (1807) 


>  <tags>  (1807) 
{'openbind_xx01zvns2b_c1_fragmenstein', 'fragmenstein_placed'}

>  <ref_pdb>  (1807) 
175

>  <scratch_subdir>  (1807) 
/opt/xchem-fragalysis-2/maxwin/BulkDock/SCRATCH/511028/C25707-P215

>  <alias>  (1807) 
N#CC1=c2cc(Br)cc(C(=O)Nc3ccc4c(c3)CNC4)c2=NC1=O

>  <HIPPO Compound ID>  (1807) 
27676

>  <fragmenstein_runtime>  (1807) 
3.007571

$$$$
N#Cc1c(C(F)(F)F)[nH]c2c(C(=O)Nc3ccc4c(c3)CNC4)cccc12
     RDKit          3D

 27 30  0  0  0  0  0  0  0  0999 V2000
   -4.2043    5.8648  -20.4661 N   0  0  0  0  0  0  0  0  0  0  0  0
   -4.6258    5.5461  -19.4335 C   0  0  0  0  0  0  0  0  0  0  0  0
   -5.0380    5.3306  -18.0787 C   0  0  0  0  0  0  0  0  0  0  0  0
   -4.2078    5.5591  -16.9946 C   0  0  0  0  0  0  0  0  0  0  0  0
   -2.7684    5.8829  -16.9126 C   0  0  0  0  0  0  0  0  0  0  0  0
   -2.2536    5.5308  -15.7067 F   0  0  0  0  0  0  0  0  0  0  0  0
   -2.0419    5.2479  -17.8566 F   0  0  0  0  0  0  0  0  0  0  0  0
   -2.5553    7.2130  -17.0560 F   0  0  0  0  0  0  0  0  0  0  0  0
   -4.9923    5.4935  -15.8766 N   0  0  0  0  0  0  0  0  0  0  0  0
   -6.2668    5.0843  -16.2054 C   0  0  0  0  0  0  0  0  0  0  0  0
   -7.3734    4.8433  -15.3689 C   0  0  0  0  0  0  0  0  0  0  0  0
   -7.2922    5.2251  -13.9342 C   0  0  0  0  0  0  0  0  0  0  0  0
   -6.7807    6.2454  -13.6827 O   0  0  0  0  0  0  0  0  0  0  0  0
   -7.8929    4.1488  -13.0017 N   0  0  0  0  0  0  0  0  0  0  0  0
   -8.0694    4.1449  -11.6189 C   0  0  0  0  0  0  0  0  0  0  0  0
   -7.8424    5.3074  -10.8647 C   0  0  0  0  0  0  0  0  0  0  0  0
   -7.9986    5.3041   -9.4754 C   0  0  0  0  0  0  0  0  0  0  0  0
   -8.3683    4.1225   -8.8609 C   0  0  0  0  0  0  0  0  0  0  0  0
   -8.5912    2.9692   -9.6012 C   0  0  0  0  0  0  0  0  0  0  0  0
   -8.4570    2.9627  -10.9824 C   0  0  0  0  0  0  0  0  0  0  0  0
   -8.9367    1.8486   -8.6798 C   0  0  0  0  0  0  0  0  0  0  0  0
   -9.0621    2.4451   -7.3236 N   0  0  0  0  0  0  0  0  0  0  0  0
   -8.5748    3.8380   -7.4138 C   0  0  0  0  0  0  0  0  0  0  0  0
   -8.5504    4.3631  -15.9552 C   0  0  0  0  0  0  0  0  0  0  0  0
   -8.6170    4.1623  -17.3331 C   0  0  0  0  0  0  0  0  0  0  0  0
   -7.5179    4.4569  -18.1552 C   0  0  0  0  0  0  0  0  0  0  0  0
   -6.3137    4.9238  -17.5877 C   0  0  0  0  0  0  0  0  0  0  0  0
  1  2  3  0
  2  3  1  0
  3  4  2  0
  4  5  1  0
  5  6  1  0
  5  7  1  0
  5  8  1  0
  4  9  1  0
  9 10  1  0
 10 11  2  0
 11 12  1  0
 12 13  2  0
 12 14  1  0
 14 15  1  0
 15 16  2  0
 16 17  1  0
 17 18  2  0
 18 19  1  0
 19 20  2  0
 19 21  1  0
 21 22  1  0
 22 23  1  0
 11 24  1  0
 24 25  2  0
 25 26  1  0
 26 27  2  0
 27  3  1  0
 27 10  1  0
 20 15  1  0
 23 18  1  0
M  END
>  <smiles>  (1808) 
C25711-P215

>  <fragmenstein_outcome>  (1808) 
acceptable

>  <inchikey>  (1808) 
ZWKYDBYSRHTCBB-UHFFFAOYSA-N

>  <fragmenstein_mode>  (1808) 
expansion

>  <HIPPO Pose ID>  (1808) 
23318

>  <Energy>  (1808) 
55.051302

>  <fragmenstein_error>  (1808) 


>  <tags>  (1808) 
{'openbind_xx01zvns2b_c1_fragmenstein', 'fragmenstein_placed'}

>  <ref_pdb>  (1808) 
175

>  <scratch_subdir>  (1808) 
/opt/xchem-fragalysis-2/maxwin/BulkDock/SCRATCH/511028/C25711-P215

>  <alias>  (1808) 
N#Cc1c(C(F)(F)F)[nH]c2c(C(=O)Nc3ccc4c(c3)CNC4)cccc12

>  <HIPPO Compound ID>  (1808) 
25711

>  <fragmenstein_runtime>  (1808) 
6.348671

$$$$
C[C@]1(OCCCO)C(=O)[C@@H](C#N)c2cccc(C(=O)Nc3ccc4c(c3)CNC4)c21
     RDKit          3D

 30 33  0  0  0  0  0  0  0  0999 V2000
   -5.0456    7.3092  -15.0391 C   0  0  0  0  0  0  0  0  0  0  0  0
   -5.0381    5.8803  -15.5999 C   0  0  2  0  0  0  0  0  0  0  0  0
   -4.5048    4.9666  -14.6543 O   0  0  0  0  0  0  0  0  0  0  0  0
   -3.1235    5.1052  -14.3430 C   0  0  0  0  0  0  0  0  0  0  0  0
   -2.8774    4.7243  -12.8876 C   0  0  0  0  0  0  0  0  0  0  0  0
   -3.3546    3.3237  -12.5339 C   0  0  0  0  0  0  0  0  0  0  0  0
   -2.9719    3.0222  -11.1962 O   0  0  0  0  0  0  0  0  0  0  0  0
   -4.3325    5.9617  -16.9895 C   0  0  0  0  0  0  0  0  0  0  0  0
   -3.1270    6.1258  -17.1551 O   0  0  0  0  0  0  0  0  0  0  0  0
   -5.3724    5.8963  -18.0975 C   0  0  1  0  0  0  0  0  0  0  0  0
   -4.8130    5.3943  -19.3402 C   0  0  0  0  0  0  0  0  0  0  0  0
   -4.2725    5.1517  -20.3379 N   0  0  0  0  0  0  0  0  0  0  0  0
   -6.5046    5.1834  -17.4165 C   0  0  0  0  0  0  0  0  0  0  0  0
   -7.6079    4.5683  -17.9959 C   0  0  0  0  0  0  0  0  0  0  0  0
   -8.6409    4.1181  -17.1726 C   0  0  0  0  0  0  0  0  0  0  0  0
   -8.5830    4.3222  -15.7880 C   0  0  0  0  0  0  0  0  0  0  0  0
   -7.4656    4.9364  -15.2045 C   0  0  0  0  0  0  0  0  0  0  0  0
   -7.5474    5.3529  -13.7879 C   0  0  0  0  0  0  0  0  0  0  0  0
   -7.4788    6.4943  -13.5573 O   0  0  0  0  0  0  0  0  0  0  0  0
   -7.7535    4.1539  -12.8434 N   0  0  0  0  0  0  0  0  0  0  0  0
   -8.0048    4.1135  -11.4744 C   0  0  0  0  0  0  0  0  0  0  0  0
   -7.9851    5.2917  -10.7097 C   0  0  0  0  0  0  0  0  0  0  0  0
   -8.2026    5.2558   -9.3303 C   0  0  0  0  0  0  0  0  0  0  0  0
   -8.4692    4.0335   -8.7436 C   0  0  0  0  0  0  0  0  0  0  0  0
   -8.5227    2.8709   -9.5013 C   0  0  0  0  0  0  0  0  0  0  0  0
   -8.2734    2.8860  -10.8655 C   0  0  0  0  0  0  0  0  0  0  0  0
   -8.8535    1.7178   -8.6165 C   0  0  0  0  0  0  0  0  0  0  0  0
   -9.1102    2.2851   -7.2653 N   0  0  0  0  0  0  0  0  0  0  0  0
   -8.7147    3.7085   -7.3116 C   0  0  0  0  0  0  0  0  0  0  0  0
   -6.4013    5.3309  -16.0128 C   0  0  0  0  0  0  0  0  0  0  0  0
  2  1  1  1
  2  3  1  0
  3  4  1  0
  4  5  1  0
  5  6  1  0
  6  7  1  0
  2  8  1  0
  8  9  2  0
  8 10  1  0
 10 11  1  6
 11 12  3  0
 10 13  1  0
 13 14  2  0
 14 15  1  0
 15 16  2  0
 16 17  1  0
 17 18  1  0
 18 19  2  0
 18 20  1  0
 20 21  1  0
 21 22  2  0
 22 23  1  0
 23 24  2  0
 24 25  1  0
 25 26  2  0
 25 27  1  0
 27 28  1  0
 28 29  1  0
 17 30  2  0
 30  2  1  0
 30 13  1  0
 26 21  1  0
 29 24  1  0
M  END
>  <smiles>  (1809) 
C25742-P215

>  <fragmenstein_outcome>  (1809) 
acceptable

>  <inchikey>  (1809) 
UJZJBLJQIFRXGD-UHFFFAOYSA-N

>  <fragmenstein_mode>  (1809) 
expansion

>  <HIPPO Pose ID>  (1809) 
23325

>  <Energy>  (1809) 
106.580244

>  <fragmenstein_error>  (1809) 


>  <tags>  (1809) 
{'openbind_xx01zvns2b_c1_fragmenstein', 'fragmenstein_placed'}

>  <ref_pdb>  (1809) 
175

>  <scratch_subdir>  (1809) 
/opt/xchem-fragalysis-2/maxwin/BulkDock/SCRATCH/511028/C25742-P215

>  <alias>  (1809) 
C[C@]1(OCCCO)C(=O)[C@@H](C#N)c2cccc(C(=O)Nc3ccc4c(c3)CNC4)c21

>  <HIPPO Compound ID>  (1809) 
24492

>  <fragmenstein_runtime>  (1809) 
6.126249

$$$$
COCCO[C@]1(C)C(=O)[C@H](C#N)c2cccc(C(=O)Nc3ccc4c(c3)CNC4)c21
     RDKit          3D

 30 33  0  0  0  0  0  0  0  0999 V2000
   -5.6206   11.4144  -15.6878 C   0  0  0  0  0  0  0  0  0  0  0  0
   -5.4317   10.1072  -15.1683 O   0  0  0  0  0  0  0  0  0  0  0  0
   -4.3565    9.4276  -15.8221 C   0  0  0  0  0  0  0  0  0  0  0  0
   -4.2282    8.0030  -15.2790 C   0  0  0  0  0  0  0  0  0  0  0  0
   -5.3186    7.2173  -15.7660 O   0  0  0  0  0  0  0  0  0  0  0  0
   -5.1599    5.7983  -15.7033 C   0  0  2  0  0  0  0  0  0  0  0  0
   -4.5445    5.2748  -14.4087 C   0  0  0  0  0  0  0  0  0  0  0  0
   -4.3228    5.4104  -16.9468 C   0  0  0  0  0  0  0  0  0  0  0  0
   -3.0962    5.3615  -16.9878 O   0  0  0  0  0  0  0  0  0  0  0  0
   -5.2390    5.1656  -18.1362 C   0  0  2  0  0  0  0  0  0  0  0  0
   -5.2546    6.3806  -18.9410 C   0  0  0  0  0  0  0  0  0  0  0  0
   -5.2717    7.3903  -19.5196 N   0  0  0  0  0  0  0  0  0  0  0  0
   -6.5501    4.8770  -17.4497 C   0  0  0  0  0  0  0  0  0  0  0  0
   -7.6858    4.3273  -18.0329 C   0  0  0  0  0  0  0  0  0  0  0  0
   -8.7872    4.0570  -17.2245 C   0  0  0  0  0  0  0  0  0  0  0  0
   -8.7507    4.3553  -15.8554 C   0  0  0  0  0  0  0  0  0  0  0  0
   -7.6184    4.9472  -15.2759 C   0  0  0  0  0  0  0  0  0  0  0  0
   -7.6813    5.3949  -13.8617 C   0  0  0  0  0  0  0  0  0  0  0  0
   -7.4425    6.5110  -13.6229 O   0  0  0  0  0  0  0  0  0  0  0  0
   -8.0891    4.2365  -12.9260 N   0  0  0  0  0  0  0  0  0  0  0  0
   -8.1925    4.1884  -11.5372 C   0  0  0  0  0  0  0  0  0  0  0  0
   -8.0352    5.3513  -10.7664 C   0  0  0  0  0  0  0  0  0  0  0  0
   -8.1498    5.3094   -9.3744 C   0  0  0  0  0  0  0  0  0  0  0  0
   -8.4342    4.0953   -8.7777 C   0  0  0  0  0  0  0  0  0  0  0  0
   -8.5936    2.9429   -9.5361 C   0  0  0  0  0  0  0  0  0  0  0  0
   -8.4674    2.9667  -10.9169 C   0  0  0  0  0  0  0  0  0  0  0  0
   -8.8954    1.7939   -8.6351 C   0  0  0  0  0  0  0  0  0  0  0  0
   -9.0620    2.3655   -7.2725 N   0  0  0  0  0  0  0  0  0  0  0  0
   -8.6208    3.7751   -7.3356 C   0  0  0  0  0  0  0  0  0  0  0  0
   -6.5053    5.1978  -16.0735 C   0  0  0  0  0  0  0  0  0  0  0  0
  1  2  1  0
  2  3  1  0
  3  4  1  0
  4  5  1  0
  5  6  1  0
  6  7  1  1
  6  8  1  0
  8  9  2  0
  8 10  1  0
 10 11  1  6
 11 12  3  0
 10 13  1  0
 13 14  2  0
 14 15  1  0
 15 16  2  0
 16 17  1  0
 17 18  1  0
 18 19  2  0
 18 20  1  0
 20 21  1  0
 21 22  2  0
 22 23  1  0
 23 24  2  0
 24 25  1  0
 25 26  2  0
 25 27  1  0
 27 28  1  0
 28 29  1  0
 17 30  2  0
 30  6  1  0
 30 13  1  0
 26 21  1  0
 29 24  1  0
M  END
>  <smiles>  (1810) 
C25743-P215

>  <fragmenstein_outcome>  (1810) 
acceptable

>  <inchikey>  (1810) 
YKHJCKPZYHMVNH-UHFFFAOYSA-N

>  <fragmenstein_mode>  (1810) 
expansion

>  <HIPPO Pose ID>  (1810) 
23326

>  <Energy>  (1810) 
125.713816

>  <fragmenstein_error>  (1810) 


>  <tags>  (1810) 
{'openbind_xx01zvns2b_c1_fragmenstein', 'fragmenstein_placed'}

>  <ref_pdb>  (1810) 
175

>  <scratch_subdir>  (1810) 
/opt/xchem-fragalysis-2/maxwin/BulkDock/SCRATCH/511028/C25743-P215

>  <alias>  (1810) 
COCCO[C@]1(C)C(=O)[C@H](C#N)c2cccc(C(=O)Nc3ccc4c(c3)CNC4)c21

>  <HIPPO Compound ID>  (1810) 
25743

>  <fragmenstein_runtime>  (1810) 
4.749718

$$$$
Cc1cc(NC(=O)c2cccc3c2=NC(=O)C=3C#N)cc2c1CNC2
     RDKit          3D

 25 28  0  0  0  0  0  0  0  0999 V2000
   -8.0257    6.5626   -8.6028 C   0  0  0  0  0  0  0  0  0  0  0  0
   -8.2128    5.3008   -9.3846 C   0  0  0  0  0  0  0  0  0  0  0  0
   -8.0918    5.3072  -10.7825 C   0  0  0  0  0  0  0  0  0  0  0  0
   -8.2301    4.1285  -11.5328 C   0  0  0  0  0  0  0  0  0  0  0  0
   -8.1203    4.1533  -12.9214 N   0  0  0  0  0  0  0  0  0  0  0  0
   -7.7769    5.3171  -13.8817 C   0  0  0  0  0  0  0  0  0  0  0  0
   -7.6083    6.4520  -13.6654 O   0  0  0  0  0  0  0  0  0  0  0  0
   -7.6896    4.7987  -15.2739 C   0  0  0  0  0  0  0  0  0  0  0  0
   -8.7716    4.2644  -15.8732 C   0  0  0  0  0  0  0  0  0  0  0  0
   -8.8337    3.9874  -17.3001 C   0  0  0  0  0  0  0  0  0  0  0  0
   -7.8202    4.3075  -18.1205 C   0  0  0  0  0  0  0  0  0  0  0  0
   -6.6331    4.8718  -17.5565 C   0  0  0  0  0  0  0  0  0  0  0  0
   -6.5082    5.0995  -16.1091 C   0  0  0  0  0  0  0  0  0  0  0  0
   -5.3612    5.5600  -15.7354 N   0  0  0  0  0  0  0  0  0  0  0  0
   -4.6294    5.6988  -16.8835 C   0  0  0  0  0  0  0  0  0  0  0  0
   -3.4709    6.0686  -16.9688 O   0  0  0  0  0  0  0  0  0  0  0  0
   -5.4693    5.3081  -18.0286 C   0  0  0  0  0  0  0  0  0  0  0  0
   -4.9958    5.4099  -19.3408 C   0  0  0  0  0  0  0  0  0  0  0  0
   -4.4863    5.5757  -20.3702 N   0  0  0  0  0  0  0  0  0  0  0  0
   -8.4830    2.9151  -10.8925 C   0  0  0  0  0  0  0  0  0  0  0  0
   -8.6106    2.9149   -9.5124 C   0  0  0  0  0  0  0  0  0  0  0  0
   -8.4696    4.0827   -8.7693 C   0  0  0  0  0  0  0  0  0  0  0  0
   -8.6370    3.7621   -7.3212 C   0  0  0  0  0  0  0  0  0  0  0  0
   -9.0785    2.3541   -7.2482 N   0  0  0  0  0  0  0  0  0  0  0  0
   -8.8911    1.7695   -8.5994 C   0  0  0  0  0  0  0  0  0  0  0  0
  1  2  1  0
  2  3  2  0
  3  4  1  0
  4  5  1  0
  5  6  1  0
  6  7  2  0
  6  8  1  0
  8  9  2  0
  9 10  1  0
 10 11  2  0
 11 12  1  0
 12 13  1  0
 13 14  2  0
 14 15  1  0
 15 16  2  0
 15 17  1  0
 17 18  1  0
 18 19  3  0
  4 20  2  0
 20 21  1  0
 21 22  2  0
 22 23  1  0
 23 24  1  0
 24 25  1  0
 22  2  1  0
 13  8  1  0
 25 21  1  0
 17 12  2  0
M  END
>  <smiles>  (1811) 
C25744-P215

>  <fragmenstein_outcome>  (1811) 
acceptable

>  <inchikey>  (1811) 
ZKZVBZNZVRWPHZ-UHFFFAOYSA-N

>  <fragmenstein_mode>  (1811) 
expansion

>  <HIPPO Pose ID>  (1811) 
23327

>  <Energy>  (1811) 
23.514015

>  <fragmenstein_error>  (1811) 


>  <tags>  (1811) 
{'openbind_xx01zvns2b_c1_fragmenstein', 'fragmenstein_placed'}

>  <ref_pdb>  (1811) 
175

>  <scratch_subdir>  (1811) 
/opt/xchem-fragalysis-2/maxwin/BulkDock/SCRATCH/511028/C25744-P215

>  <alias>  (1811) 
Cc1cc(NC(=O)c2cccc3c2=NC(=O)C=3C#N)cc2c1CNC2

>  <HIPPO Compound ID>  (1811) 
25744

>  <fragmenstein_runtime>  (1811) 
4.759081

$$$$
N#CC1=c2cccc(C(=O)Nc3cc4c(c(-c5ccncc5)c3)CNC4)c2=NC1=O
     RDKit          3D

 30 34  0  0  0  0  0  0  0  0999 V2000
   -4.4277    5.5555  -20.4155 N   0  0  0  0  0  0  0  0  0  0  0  0
   -4.9669    5.3923  -19.4006 C   0  0  0  0  0  0  0  0  0  0  0  0
   -5.4700    5.2840  -18.0935 C   0  0  0  0  0  0  0  0  0  0  0  0
   -6.6406    4.8530  -17.6276 C   0  0  0  0  0  0  0  0  0  0  0  0
   -7.8303    4.2926  -18.1906 C   0  0  0  0  0  0  0  0  0  0  0  0
   -8.8478    3.9777  -17.3720 C   0  0  0  0  0  0  0  0  0  0  0  0
   -8.7926    4.2552  -15.9444 C   0  0  0  0  0  0  0  0  0  0  0  0
   -7.7115    4.7853  -15.3415 C   0  0  0  0  0  0  0  0  0  0  0  0
   -7.7820    5.3031  -13.9453 C   0  0  0  0  0  0  0  0  0  0  0  0
   -7.5731    6.4311  -13.7286 O   0  0  0  0  0  0  0  0  0  0  0  0
   -8.1390    4.1461  -12.9818 N   0  0  0  0  0  0  0  0  0  0  0  0
   -8.2171    4.1183  -11.5899 C   0  0  0  0  0  0  0  0  0  0  0  0
   -8.5261    2.9153  -10.9545 C   0  0  0  0  0  0  0  0  0  0  0  0
   -8.6409    2.9143   -9.5754 C   0  0  0  0  0  0  0  0  0  0  0  0
   -8.4178    4.0688   -8.8256 C   0  0  0  0  0  0  0  0  0  0  0  0
   -8.0359    5.2631   -9.4253 C   0  0  0  0  0  0  0  0  0  0  0  0
   -7.6535    6.4425   -8.6458 C   0  0  0  0  0  0  0  0  0  0  0  0
   -6.4551    6.4473   -7.9223 C   0  0  0  0  0  0  0  0  0  0  0  0
   -6.1039    7.5825   -7.2107 C   0  0  0  0  0  0  0  0  0  0  0  0
   -6.8572    8.6988   -7.1606 N   0  0  0  0  0  0  0  0  0  0  0  0
   -8.0154    8.6738   -7.8572 C   0  0  0  0  0  0  0  0  0  0  0  0
   -8.4439    7.5923   -8.6130 C   0  0  0  0  0  0  0  0  0  0  0  0
   -7.9720    5.2760  -10.8305 C   0  0  0  0  0  0  0  0  0  0  0  0
   -8.6490    3.7511   -7.3824 C   0  0  0  0  0  0  0  0  0  0  0  0
   -9.3403    2.4414   -7.3725 N   0  0  0  0  0  0  0  0  0  0  0  0
   -8.9709    1.7885   -8.6513 C   0  0  0  0  0  0  0  0  0  0  0  0
   -6.5261    5.0729  -16.1762 C   0  0  0  0  0  0  0  0  0  0  0  0
   -5.3772    5.5152  -15.7916 N   0  0  0  0  0  0  0  0  0  0  0  0
   -4.6346    5.6379  -16.9317 C   0  0  0  0  0  0  0  0  0  0  0  0
   -3.4619    5.9572  -16.9956 O   0  0  0  0  0  0  0  0  0  0  0  0
  1  2  3  0
  2  3  1  0
  3  4  2  0
  4  5  1  0
  5  6  2  0
  6  7  1  0
  7  8  2  0
  8  9  1  0
  9 10  2  0
  9 11  1  0
 11 12  1  0
 12 13  2  0
 13 14  1  0
 14 15  2  0
 15 16  1  0
 16 17  1  0
 17 18  2  0
 18 19  1  0
 19 20  2  0
 20 21  1  0
 21 22  2  0
 16 23  2  0
 15 24  1  0
 24 25  1  0
 25 26  1  0
  8 27  1  0
 27 28  2  0
 28 29  1  0
 29 30  2  0
 29  3  1  0
 27  4  1  0
 23 12  1  0
 26 14  1  0
 22 17  1  0
M  END
>  <smiles>  (1812) 
C25758-P215

>  <fragmenstein_outcome>  (1812) 
acceptable

>  <inchikey>  (1812) 
RYXSAVWKQBGNQJ-UHFFFAOYSA-N

>  <fragmenstein_mode>  (1812) 
expansion

>  <HIPPO Pose ID>  (1812) 
23329

>  <Energy>  (1812) 
33.69824

>  <fragmenstein_error>  (1812) 


>  <tags>  (1812) 
{'openbind_xx01zvns2b_c1_fragmenstein', 'fragmenstein_placed'}

>  <ref_pdb>  (1812) 
175

>  <scratch_subdir>  (1812) 
/opt/xchem-fragalysis-2/maxwin/BulkDock/SCRATCH/511028/C25758-P215

>  <alias>  (1812) 
N#CC1=c2cccc(C(=O)Nc3cc4c(c(-c5ccncc5)c3)CNC4)c2=NC1=O

>  <HIPPO Compound ID>  (1812) 
25758

>  <fragmenstein_runtime>  (1812) 
2.853157

$$$$
O=C1Cc2c(cccc2C(=O)Nc2ccc3c(c2)CNCCO3)N1
     RDKit          3D

 24 27  0  0  0  0  0  0  0  0999 V2000
   -3.4287    5.5679  -17.7094 O   0  0  0  0  0  0  0  0  0  0  0  0
   -4.6053    5.3925  -17.4322 C   0  0  0  0  0  0  0  0  0  0  0  0
   -5.2375    5.5414  -16.0435 C   0  0  0  0  0  0  0  0  0  0  0  0
   -6.6319    5.0404  -16.2742 C   0  0  0  0  0  0  0  0  0  0  0  0
   -6.7920    4.7447  -17.6250 C   0  0  0  0  0  0  0  0  0  0  0  0
   -7.9622    4.2326  -18.1412 C   0  0  0  0  0  0  0  0  0  0  0  0
   -9.0084    3.9963  -17.2498 C   0  0  0  0  0  0  0  0  0  0  0  0
   -8.8632    4.2873  -15.8797 C   0  0  0  0  0  0  0  0  0  0  0  0
   -7.6715    4.8290  -15.3815 C   0  0  0  0  0  0  0  0  0  0  0  0
   -7.5511    5.2950  -13.9738 C   0  0  0  0  0  0  0  0  0  0  0  0
   -7.0466    6.3349  -13.7990 O   0  0  0  0  0  0  0  0  0  0  0  0
   -8.1548    4.2891  -12.9620 N   0  0  0  0  0  0  0  0  0  0  0  0
   -8.1769    4.3102  -11.5672 C   0  0  0  0  0  0  0  0  0  0  0  0
   -7.7439    5.4319  -10.8698 C   0  0  0  0  0  0  0  0  0  0  0  0
   -7.6794    5.4072   -9.4777 C   0  0  0  0  0  0  0  0  0  0  0  0
   -8.0671    4.2748   -8.7721 C   0  0  0  0  0  0  0  0  0  0  0  0
   -8.5574    3.1506   -9.4409 C   0  0  0  0  0  0  0  0  0  0  0  0
   -8.5956    3.1822  -10.8552 C   0  0  0  0  0  0  0  0  0  0  0  0
   -8.9186    1.8723   -8.7312 C   0  0  0  0  0  0  0  0  0  0  0  0
   -9.8762    2.0093   -7.6302 N   0  0  0  0  0  0  0  0  0  0  0  0
   -9.2674    2.6213   -6.4487 C   0  0  0  0  0  0  0  0  0  0  0  0
   -8.9340    4.0984   -6.6147 C   0  0  0  0  0  0  0  0  0  0  0  0
   -7.7952    4.3288   -7.4378 O   0  0  0  0  0  0  0  0  0  0  0  0
   -5.6132    5.0037  -18.3083 N   0  0  0  0  0  0  0  0  0  0  0  0
  1  2  2  0
  2  3  1  0
  3  4  1  0
  4  5  2  0
  5  6  1  0
  6  7  2  0
  7  8  1  0
  8  9  2  0
  9 10  1  0
 10 11  2  0
 10 12  1  0
 12 13  1  0
 13 14  2  0
 14 15  1  0
 15 16  2  0
 16 17  1  0
 17 18  2  0
 17 19  1  0
 19 20  1  0
 20 21  1  0
 21 22  1  0
 22 23  1  0
  5 24  1  0
 24  2  1  0
  9  4  1  0
 18 13  1  0
 23 16  1  0
M  END
>  <smiles>  (1813) 
C194-P215

>  <fragmenstein_outcome>  (1813) 
acceptable

>  <inchikey>  (1813) 
JMJOHTGIGNHXLX-UHFFFAOYSA-N

>  <fragmenstein_mode>  (1813) 
expansion

>  <HIPPO Pose ID>  (1813) 
23356

>  <Energy>  (1813) 
58.19288

>  <fragmenstein_error>  (1813) 


>  <tags>  (1813) 
{'openbind_xx01zvns2b_c1_fragmenstein', 'fragmenstein_placed'}

>  <ref_pdb>  (1813) 
175

>  <scratch_subdir>  (1813) 
/opt/xchem-fragalysis-2/maxwin/BulkDock/SCRATCH/511028/C194-P215

>  <alias>  (1813) 
O=C1Cc2c(cccc2C(=O)Nc2ccc3c(c2)CNCCO3)N1

>  <HIPPO Compound ID>  (1813) 
31349

>  <fragmenstein_runtime>  (1813) 
4.912722

$$$$
CC(=O)N[C@H]1CC[C@]2(Cc3c(cccc3C(=O)Nc3ccc4c(c3)CNCCO4)N2)C1
     RDKit          3D

 31 35  0  0  0  0  0  0  0  0999 V2000
    1.1282    6.5777  -19.0525 C   0  0  0  0  0  0  0  0  0  0  0  0
    0.1528    7.1917  -18.0715 C   0  0  0  0  0  0  0  0  0  0  0  0
    0.3592    8.1812  -17.4904 O   0  0  0  0  0  0  0  0  0  0  0  0
   -1.0804    6.2554  -18.0522 N   0  0  0  0  0  0  0  0  0  0  0  0
   -2.2753    6.2945  -17.2407 C   0  0  1  0  0  0  0  0  0  0  0  0
   -3.0444    7.6146  -17.3407 C   0  0  0  0  0  0  0  0  0  0  0  0
   -4.4184    7.2556  -17.9084 C   0  0  0  0  0  0  0  0  0  0  0  0
   -4.6557    5.8091  -17.4705 C   0  0  1  0  0  0  0  0  0  0  0  0
   -5.1987    5.6951  -16.0098 C   0  0  0  0  0  0  0  0  0  0  0  0
   -6.5681    5.1333  -16.2290 C   0  0  0  0  0  0  0  0  0  0  0  0
   -6.7373    4.8587  -17.5838 C   0  0  0  0  0  0  0  0  0  0  0  0
   -7.9048    4.2887  -18.0609 C   0  0  0  0  0  0  0  0  0  0  0  0
   -8.9359    4.0169  -17.1644 C   0  0  0  0  0  0  0  0  0  0  0  0
   -8.7804    4.3090  -15.8022 C   0  0  0  0  0  0  0  0  0  0  0  0
   -7.5897    4.8714  -15.3195 C   0  0  0  0  0  0  0  0  0  0  0  0
   -7.5059    5.3239  -13.9007 C   0  0  0  0  0  0  0  0  0  0  0  0
   -7.1534    6.4221  -13.7053 O   0  0  0  0  0  0  0  0  0  0  0  0
   -8.0165    4.2402  -12.9126 N   0  0  0  0  0  0  0  0  0  0  0  0
   -8.1052    4.2533  -11.5187 C   0  0  0  0  0  0  0  0  0  0  0  0
   -7.8104    5.3963  -10.7866 C   0  0  0  0  0  0  0  0  0  0  0  0
   -7.8522    5.3635   -9.3901 C   0  0  0  0  0  0  0  0  0  0  0  0
   -8.1899    4.1958   -8.7117 C   0  0  0  0  0  0  0  0  0  0  0  0
   -8.5045    3.0350   -9.4193 C   0  0  0  0  0  0  0  0  0  0  0  0
   -8.4717    3.0881  -10.8363 C   0  0  0  0  0  0  0  0  0  0  0  0
   -8.7903    1.6924   -8.7895 C   0  0  0  0  0  0  0  0  0  0  0  0
   -8.8740    1.6094   -7.3369 N   0  0  0  0  0  0  0  0  0  0  0  0
   -9.7837    2.5757   -6.7639 C   0  0  0  0  0  0  0  0  0  0  0  0
   -9.1541    3.9563   -6.5618 C   0  0  0  0  0  0  0  0  0  0  0  0
   -8.0106    4.2584   -7.3644 O   0  0  0  0  0  0  0  0  0  0  0  0
   -5.5948    5.1121  -18.3606 N   0  0  0  0  0  0  0  0  0  0  0  0
   -3.2608    5.2050  -17.6499 C   0  0  0  0  0  0  0  0  0  0  0  0
  1  2  1  0
  2  3  2  0
  2  4  1  0
  5  4  1  6
  5  6  1  0
  6  7  1  0
  8  7  1  6
  8  9  1  0
  9 10  1  0
 10 11  2  0
 11 12  1  0
 12 13  2  0
 13 14  1  0
 14 15  2  0
 15 16  1  0
 16 17  2  0
 16 18  1  0
 18 19  1  0
 19 20  2  0
 20 21  1  0
 21 22  2  0
 22 23  1  0
 23 24  2  0
 23 25  1  0
 25 26  1  0
 26 27  1  0
 27 28  1  0
 28 29  1  0
 11 30  1  0
  8 31  1  0
 31  5  1  0
 30  8  1  0
 15 10  1  0
 24 19  1  0
 29 22  1  0
M  END
>  <smiles>  (1814) 
C25864-P215

>  <fragmenstein_outcome>  (1814) 
acceptable

>  <inchikey>  (1814) 
GRWWQPWVRWBXAM-UHFFFAOYSA-N

>  <fragmenstein_mode>  (1814) 
expansion

>  <HIPPO Pose ID>  (1814) 
23357

>  <Energy>  (1814) 
93.480701

>  <fragmenstein_error>  (1814) 


>  <tags>  (1814) 
{'openbind_xx01zvns2b_c1_fragmenstein', 'fragmenstein_placed'}

>  <ref_pdb>  (1814) 
175

>  <scratch_subdir>  (1814) 
/opt/xchem-fragalysis-2/maxwin/BulkDock/SCRATCH/511028/C25864-P215

>  <alias>  (1814) 
CC(=O)N[C@H]1CC[C@]2(Cc3c(cccc3C(=O)Nc3ccc4c(c3)CNCCO4)N2)C1

>  <HIPPO Compound ID>  (1814) 
25864

>  <fragmenstein_runtime>  (1814) 
7.708743

$$$$
Cc1cc(NC(=O)c2cccc3c2C(F)(F)C(=O)N3)cc2c1OCCNC2
     RDKit          3D

 27 30  0  0  0  0  0  0  0  0999 V2000
   -8.0185    6.8286   -8.4457 C   0  0  0  0  0  0  0  0  0  0  0  0
   -8.1139    5.4977   -9.1457 C   0  0  0  0  0  0  0  0  0  0  0  0
   -7.8331    5.4401  -10.5206 C   0  0  0  0  0  0  0  0  0  0  0  0
   -7.9531    4.2483  -11.2252 C   0  0  0  0  0  0  0  0  0  0  0  0
   -7.7561    4.2122  -12.6097 N   0  0  0  0  0  0  0  0  0  0  0  0
   -7.2892    5.3206  -13.5903 C   0  0  0  0  0  0  0  0  0  0  0  0
   -6.9239    6.4107  -13.3821 O   0  0  0  0  0  0  0  0  0  0  0  0
   -7.4302    4.9119  -15.0172 C   0  0  0  0  0  0  0  0  0  0  0  0
   -8.6151    4.3011  -15.4575 C   0  0  0  0  0  0  0  0  0  0  0  0
   -8.8326    4.0321  -16.8217 C   0  0  0  0  0  0  0  0  0  0  0  0
   -7.8779    4.3762  -17.7752 C   0  0  0  0  0  0  0  0  0  0  0  0
   -6.7347    4.9995  -17.3263 C   0  0  0  0  0  0  0  0  0  0  0  0
   -6.4968    5.2767  -15.9772 C   0  0  0  0  0  0  0  0  0  0  0  0
   -5.1871    5.9995  -15.8509 C   0  0  0  0  0  0  0  0  0  0  0  0
   -5.2758    7.2334  -15.2805 F   0  0  0  0  0  0  0  0  0  0  0  0
   -4.2584    5.3011  -15.1348 F   0  0  0  0  0  0  0  0  0  0  0  0
   -4.7563    6.1441  -17.3515 C   0  0  0  0  0  0  0  0  0  0  0  0
   -3.7909    6.7515  -17.7949 O   0  0  0  0  0  0  0  0  0  0  0  0
   -5.7114    5.4868  -18.1238 N   0  0  0  0  0  0  0  0  0  0  0  0
   -8.3275    3.0918  -10.5352 C   0  0  0  0  0  0  0  0  0  0  0  0
   -8.6286    3.1178   -9.1478 C   0  0  0  0  0  0  0  0  0  0  0  0
   -8.5338    4.3434   -8.4662 C   0  0  0  0  0  0  0  0  0  0  0  0
   -8.9225    4.5873   -7.1761 O   0  0  0  0  0  0  0  0  0  0  0  0
   -8.8140    3.5102   -6.2548 C   0  0  0  0  0  0  0  0  0  0  0  0
   -9.9901    2.5466   -6.3533 C   0  0  0  0  0  0  0  0  0  0  0  0
  -10.2238    1.9234   -7.6471 N   0  0  0  0  0  0  0  0  0  0  0  0
   -9.0403    1.8170   -8.4917 C   0  0  0  0  0  0  0  0  0  0  0  0
  1  2  1  0
  2  3  2  0
  3  4  1  0
  4  5  1  0
  5  6  1  0
  6  7  2  0
  6  8  1  0
  8  9  2  0
  9 10  1  0
 10 11  2  0
 11 12  1  0
 12 13  2  0
 13 14  1  0
 14 15  1  0
 14 16  1  0
 14 17  1  0
 17 18  2  0
 17 19  1  0
  4 20  2  0
 20 21  1  0
 21 22  2  0
 22 23  1  0
 23 24  1  0
 24 25  1  0
 25 26  1  0
 26 27  1  0
 22  2  1  0
 13  8  1  0
 27 21  1  0
 19 12  1  0
M  END
>  <smiles>  (1815) 
C25865-P215

>  <fragmenstein_outcome>  (1815) 
acceptable

>  <inchikey>  (1815) 
NFVJUBJALRAPEU-UHFFFAOYSA-N

>  <fragmenstein_mode>  (1815) 
expansion

>  <HIPPO Pose ID>  (1815) 
23358

>  <Energy>  (1815) 
110.273581

>  <fragmenstein_error>  (1815) 


>  <tags>  (1815) 
{'openbind_xx01zvns2b_c1_fragmenstein', 'fragmenstein_placed'}

>  <ref_pdb>  (1815) 
175

>  <scratch_subdir>  (1815) 
/opt/xchem-fragalysis-2/maxwin/BulkDock/SCRATCH/511028/C25865-P215

>  <alias>  (1815) 
Cc1cc(NC(=O)c2cccc3c2C(F)(F)C(=O)N3)cc2c1OCCNC2

>  <HIPPO Compound ID>  (1815) 
25865

>  <fragmenstein_runtime>  (1815) 
4.901208

$$$$
C[C@@H]1C(=O)N(C)c2cccc(C(=O)C(=O)c3ccc4c(c3)CNCCO4)c21
     RDKit          3D

 27 30  0  0  0  0  0  0  0  0999 V2000
   -4.8807    6.8640  -15.3037 C   0  0  0  0  0  0  0  0  0  0  0  0
   -4.9881    5.4659  -15.8978 C   0  0  2  0  0  0  0  0  0  0  0  0
   -4.4088    5.4956  -17.3290 C   0  0  0  0  0  0  0  0  0  0  0  0
   -3.2606    5.7666  -17.6480 O   0  0  0  0  0  0  0  0  0  0  0  0
   -5.4510    5.1970  -18.1967 N   0  0  0  0  0  0  0  0  0  0  0  0
   -5.3405    5.2348  -19.6272 C   0  0  0  0  0  0  0  0  0  0  0  0
   -6.6188    4.8723  -17.5065 C   0  0  0  0  0  0  0  0  0  0  0  0
   -7.8195    4.4394  -18.0396 C   0  0  0  0  0  0  0  0  0  0  0  0
   -8.8433    4.1054  -17.1642 C   0  0  0  0  0  0  0  0  0  0  0  0
   -8.6470    4.2164  -15.7823 C   0  0  0  0  0  0  0  0  0  0  0  0
   -7.4308    4.6736  -15.2417 C   0  0  0  0  0  0  0  0  0  0  0  0
   -7.2535    4.7801  -13.7684 C   0  0  0  0  0  0  0  0  0  0  0  0
   -6.1461    4.7780  -13.2472 O   0  0  0  0  0  0  0  0  0  0  0  0
   -8.4641    4.9969  -12.8857 C   0  0  0  0  0  0  0  0  0  0  0  0
   -9.4896    5.4785  -13.3607 O   0  0  0  0  0  0  0  0  0  0  0  0
   -8.3579    4.7848  -11.4347 C   0  0  0  0  0  0  0  0  0  0  0  0
   -8.3090    5.9214  -10.6308 C   0  0  0  0  0  0  0  0  0  0  0  0
   -8.4356    5.7889   -9.2539 C   0  0  0  0  0  0  0  0  0  0  0  0
   -8.6399    4.5311   -8.6764 C   0  0  0  0  0  0  0  0  0  0  0  0
   -8.6513    3.3697   -9.4731 C   0  0  0  0  0  0  0  0  0  0  0  0
   -8.4813    3.5133  -10.8700 C   0  0  0  0  0  0  0  0  0  0  0  0
   -8.9063    1.9760   -8.9439 C   0  0  0  0  0  0  0  0  0  0  0  0
   -9.8824    1.9139   -7.8693 N   0  0  0  0  0  0  0  0  0  0  0  0
   -9.3043    2.2840   -6.5861 C   0  0  0  0  0  0  0  0  0  0  0  0
   -8.4533    3.5538   -6.5548 C   0  0  0  0  0  0  0  0  0  0  0  0
   -8.9927    4.6010   -7.3487 O   0  0  0  0  0  0  0  0  0  0  0  0
   -6.4088    5.0011  -16.1291 C   0  0  0  0  0  0  0  0  0  0  0  0
  2  1  1  6
  2  3  1  0
  3  4  2  0
  3  5  1  0
  5  6  1  0
  5  7  1  0
  7  8  2  0
  8  9  1  0
  9 10  2  0
 10 11  1  0
 11 12  1  0
 12 13  2  0
 12 14  1  0
 14 15  2  0
 14 16  1  0
 16 17  2  0
 17 18  1  0
 18 19  2  0
 19 20  1  0
 20 21  2  0
 20 22  1  0
 22 23  1  0
 23 24  1  0
 24 25  1  0
 25 26  1  0
 11 27  2  0
 27  2  1  0
 27  7  1  0
 21 16  1  0
 26 19  1  0
M  END
>  <smiles>  (1816) 
C25897-P215

>  <fragmenstein_outcome>  (1816) 
acceptable

>  <inchikey>  (1816) 
IHHZYACJOIXALQ-UHFFFAOYSA-N

>  <fragmenstein_mode>  (1816) 
expansion

>  <HIPPO Pose ID>  (1816) 
23367

>  <Energy>  (1816) 
130.592383

>  <fragmenstein_error>  (1816) 


>  <tags>  (1816) 
{'openbind_xx01zvns2b_c1_fragmenstein', 'fragmenstein_placed'}

>  <ref_pdb>  (1816) 
175

>  <scratch_subdir>  (1816) 
/opt/xchem-fragalysis-2/maxwin/BulkDock/SCRATCH/511028/C25897-P215

>  <alias>  (1816) 
C[C@@H]1C(=O)N(C)c2cccc(C(=O)C(=O)c3ccc4c(c3)CNCCO4)c21

>  <HIPPO Compound ID>  (1816) 
25897

>  <fragmenstein_runtime>  (1816) 
3.217181

$$$$
O=C1Cc2c(cc(Br)cc2C(=O)Nc2ccc3c(c2)CNCCO3)N1
     RDKit          3D

 25 28  0  0  0  0  0  0  0  0999 V2000
   -3.0429    5.7783  -17.5959 O   0  0  0  0  0  0  0  0  0  0  0  0
   -4.2009    5.5474  -17.2904 C   0  0  0  0  0  0  0  0  0  0  0  0
   -4.8095    5.6225  -15.8835 C   0  0  0  0  0  0  0  0  0  0  0  0
   -6.2143    5.1562  -16.1210 C   0  0  0  0  0  0  0  0  0  0  0  0
   -6.3790    4.9047  -17.4818 C   0  0  0  0  0  0  0  0  0  0  0  0
   -7.5600    4.4751  -18.0234 C   0  0  0  0  0  0  0  0  0  0  0  0
   -8.6174    4.3125  -17.1400 C   0  0  0  0  0  0  0  0  0  0  0  0
  -10.3124    3.9880  -17.8485 Br  0  0  0  0  0  0  0  0  0  0  0  0
   -8.4875    4.5298  -15.7600 C   0  0  0  0  0  0  0  0  0  0  0  0
   -7.2669    4.9642  -15.2383 C   0  0  0  0  0  0  0  0  0  0  0  0
   -7.1601    5.3788  -13.8166 C   0  0  0  0  0  0  0  0  0  0  0  0
   -6.6202    6.3901  -13.5893 O   0  0  0  0  0  0  0  0  0  0  0  0
   -7.8726    4.3848  -12.8650 N   0  0  0  0  0  0  0  0  0  0  0  0
   -7.9817    4.3822  -11.4758 C   0  0  0  0  0  0  0  0  0  0  0  0
   -7.5669    5.4786  -10.7314 C   0  0  0  0  0  0  0  0  0  0  0  0
   -7.5856    5.4215   -9.3397 C   0  0  0  0  0  0  0  0  0  0  0  0
   -8.0330    4.2808   -8.6832 C   0  0  0  0  0  0  0  0  0  0  0  0
   -8.5089    3.1827   -9.4045 C   0  0  0  0  0  0  0  0  0  0  0  0
   -8.4743    3.2514  -10.8174 C   0  0  0  0  0  0  0  0  0  0  0  0
   -8.9091    1.8836   -8.7559 C   0  0  0  0  0  0  0  0  0  0  0  0
   -9.8903    1.9861   -7.6735 N   0  0  0  0  0  0  0  0  0  0  0  0
   -9.3042    2.5499   -6.4579 C   0  0  0  0  0  0  0  0  0  0  0  0
   -8.9820    4.0342   -6.5617 C   0  0  0  0  0  0  0  0  0  0  0  0
   -7.8199    4.3034   -7.3377 O   0  0  0  0  0  0  0  0  0  0  0  0
   -5.2044    5.1598  -18.1635 N   0  0  0  0  0  0  0  0  0  0  0  0
  1  2  2  0
  2  3  1  0
  3  4  1  0
  4  5  2  0
  5  6  1  0
  6  7  2  0
  7  8  1  0
  7  9  1  0
  9 10  2  0
 10 11  1  0
 11 12  2  0
 11 13  1  0
 13 14  1  0
 14 15  2  0
 15 16  1  0
 16 17  2  0
 17 18  1  0
 18 19  2  0
 18 20  1  0
 20 21  1  0
 21 22  1  0
 22 23  1  0
 23 24  1  0
  5 25  1  0
 25  2  1  0
 10  4  1  0
 19 14  1  0
 24 17  1  0
M  END
>  <smiles>  (1817) 
C25838-P215

>  <fragmenstein_outcome>  (1817) 
acceptable

>  <inchikey>  (1817) 
XVALCIRLDBIKMY-UHFFFAOYSA-N

>  <fragmenstein_mode>  (1817) 
expansion

>  <HIPPO Pose ID>  (1817) 
23370

>  <Energy>  (1817) 
49.640185

>  <fragmenstein_error>  (1817) 


>  <tags>  (1817) 
{'openbind_xx01zvns2b_c1_fragmenstein', 'fragmenstein_placed'}

>  <ref_pdb>  (1817) 
175

>  <scratch_subdir>  (1817) 
/opt/xchem-fragalysis-2/maxwin/BulkDock/SCRATCH/511028/C25838-P215

>  <alias>  (1817) 
O=C1Cc2c(cc(Br)cc2C(=O)Nc2ccc3c(c2)CNCCO3)N1

>  <HIPPO Compound ID>  (1817) 
25838

>  <fragmenstein_runtime>  (1817) 
4.311199

$$$$
O=C1Cc2c(cc(Cl)cc2C(=O)Nc2ccc3c(c2)CNCCO3)N1
     RDKit          3D

 25 28  0  0  0  0  0  0  0  0999 V2000
   -3.2480    5.7438  -18.0461 O   0  0  0  0  0  0  0  0  0  0  0  0
   -4.3723    5.4891  -17.6481 C   0  0  0  0  0  0  0  0  0  0  0  0
   -4.8789    5.5445  -16.1976 C   0  0  0  0  0  0  0  0  0  0  0  0
   -6.2992    5.0711  -16.3355 C   0  0  0  0  0  0  0  0  0  0  0  0
   -6.5553    4.8268  -17.6832 C   0  0  0  0  0  0  0  0  0  0  0  0
   -7.7685    4.3925  -18.1457 C   0  0  0  0  0  0  0  0  0  0  0  0
   -8.7718    4.2317  -17.2025 C   0  0  0  0  0  0  0  0  0  0  0  0
  -10.3500    3.9140  -17.7653 Cl  0  0  0  0  0  0  0  0  0  0  0  0
   -8.5498    4.4461  -15.8316 C   0  0  0  0  0  0  0  0  0  0  0  0
   -7.2922    4.8689  -15.3832 C   0  0  0  0  0  0  0  0  0  0  0  0
   -7.0722    5.2622  -13.9637 C   0  0  0  0  0  0  0  0  0  0  0  0
   -6.4446    6.2317  -13.7781 O   0  0  0  0  0  0  0  0  0  0  0  0
   -7.7993    4.3268  -12.9600 N   0  0  0  0  0  0  0  0  0  0  0  0
   -7.8232    4.3385  -11.5641 C   0  0  0  0  0  0  0  0  0  0  0  0
   -7.2030    5.3654  -10.8650 C   0  0  0  0  0  0  0  0  0  0  0  0
   -7.2046    5.3665   -9.4728 C   0  0  0  0  0  0  0  0  0  0  0  0
   -7.8558    4.3671   -8.7615 C   0  0  0  0  0  0  0  0  0  0  0  0
   -8.5034    3.3225   -9.4322 C   0  0  0  0  0  0  0  0  0  0  0  0
   -8.4731    3.3242  -10.8510 C   0  0  0  0  0  0  0  0  0  0  0  0
   -9.2838    2.2295   -8.7395 C   0  0  0  0  0  0  0  0  0  0  0  0
   -8.8530    1.8697   -7.4019 N   0  0  0  0  0  0  0  0  0  0  0  0
   -9.1911    2.8419   -6.3709 C   0  0  0  0  0  0  0  0  0  0  0  0
   -8.9444    4.3074   -6.7030 C   0  0  0  0  0  0  0  0  0  0  0  0
   -7.7284    4.5089   -7.4095 O   0  0  0  0  0  0  0  0  0  0  0  0
   -5.4349    5.0952  -18.4457 N   0  0  0  0  0  0  0  0  0  0  0  0
  1  2  2  0
  2  3  1  0
  3  4  1  0
  4  5  2  0
  5  6  1  0
  6  7  2  0
  7  8  1  0
  7  9  1  0
  9 10  2  0
 10 11  1  0
 11 12  2  0
 11 13  1  0
 13 14  1  0
 14 15  2  0
 15 16  1  0
 16 17  2  0
 17 18  1  0
 18 19  2  0
 18 20  1  0
 20 21  1  0
 21 22  1  0
 22 23  1  0
 23 24  1  0
  5 25  1  0
 25  2  1  0
 10  4  1  0
 19 14  1  0
 24 17  1  0
M  END
>  <smiles>  (1818) 
C25919-P215

>  <fragmenstein_outcome>  (1818) 
acceptable

>  <inchikey>  (1818) 
MGNIIIAZTVVFIC-UHFFFAOYSA-N

>  <fragmenstein_mode>  (1818) 
expansion

>  <HIPPO Pose ID>  (1818) 
23371

>  <Energy>  (1818) 
47.848047

>  <fragmenstein_error>  (1818) 


>  <tags>  (1818) 
{'openbind_xx01zvns2b_c1_fragmenstein', 'fragmenstein_placed'}

>  <ref_pdb>  (1818) 
175

>  <scratch_subdir>  (1818) 
/opt/xchem-fragalysis-2/maxwin/BulkDock/SCRATCH/511028/C25919-P215

>  <alias>  (1818) 
O=C1Cc2c(cc(Cl)cc2C(=O)Nc2ccc3c(c2)CNCCO3)N1

>  <HIPPO Compound ID>  (1818) 
25919

>  <fragmenstein_runtime>  (1818) 
3.929815

$$$$
O=C1Cc2c(C(=O)Nc3ccc4c(c3)CNCCO4)cccc2C1=O
     RDKit          3D

 25 28  0  0  0  0  0  0  0  0999 V2000
   -3.2846    5.8824  -17.6216 O   0  0  0  0  0  0  0  0  0  0  0  0
   -4.4332    5.6012  -17.3381 C   0  0  0  0  0  0  0  0  0  0  0  0
   -5.0813    5.5993  -15.9715 C   0  0  0  0  0  0  0  0  0  0  0  0
   -6.4666    5.0684  -16.2485 C   0  0  0  0  0  0  0  0  0  0  0  0
   -7.4919    4.8183  -15.3368 C   0  0  0  0  0  0  0  0  0  0  0  0
   -7.3349    5.2566  -13.9245 C   0  0  0  0  0  0  0  0  0  0  0  0
   -6.8434    6.3048  -13.7611 O   0  0  0  0  0  0  0  0  0  0  0  0
   -7.8344    4.2104  -12.8965 N   0  0  0  0  0  0  0  0  0  0  0  0
   -7.9166    4.2749  -11.5050 C   0  0  0  0  0  0  0  0  0  0  0  0
   -7.3452    5.3489  -10.8346 C   0  0  0  0  0  0  0  0  0  0  0  0
   -7.3636    5.3978   -9.4452 C   0  0  0  0  0  0  0  0  0  0  0  0
   -7.9839    4.3998   -8.7051 C   0  0  0  0  0  0  0  0  0  0  0  0
   -8.5864    3.3102   -9.3471 C   0  0  0  0  0  0  0  0  0  0  0  0
   -8.5339    3.2609  -10.7658 C   0  0  0  0  0  0  0  0  0  0  0  0
   -9.3452    2.2195   -8.6265 C   0  0  0  0  0  0  0  0  0  0  0  0
   -8.8390    1.8341   -7.3222 N   0  0  0  0  0  0  0  0  0  0  0  0
   -9.0691    2.7950   -6.2526 C   0  0  0  0  0  0  0  0  0  0  0  0
   -9.0126    4.2716   -6.6060 C   0  0  0  0  0  0  0  0  0  0  0  0
   -7.8619    4.6060   -7.3623 O   0  0  0  0  0  0  0  0  0  0  0  0
   -8.7030    4.2976  -15.8144 C   0  0  0  0  0  0  0  0  0  0  0  0
   -8.8841    4.0408  -17.1866 C   0  0  0  0  0  0  0  0  0  0  0  0
   -7.8642    4.3095  -18.1005 C   0  0  0  0  0  0  0  0  0  0  0  0
   -6.6764    4.8187  -17.6094 C   0  0  0  0  0  0  0  0  0  0  0  0
   -5.4750    5.1948  -18.3595 C   0  0  0  0  0  0  0  0  0  0  0  0
   -5.3102    5.2376  -19.5537 O   0  0  0  0  0  0  0  0  0  0  0  0
  1  2  2  0
  2  3  1  0
  3  4  1  0
  4  5  2  0
  5  6  1  0
  6  7  2  0
  6  8  1  0
  8  9  1  0
  9 10  2  0
 10 11  1  0
 11 12  2  0
 12 13  1  0
 13 14  2  0
 13 15  1  0
 15 16  1  0
 16 17  1  0
 17 18  1  0
 18 19  1  0
  5 20  1  0
 20 21  2  0
 21 22  1  0
 22 23  2  0
 23 24  1  0
 24 25  2  0
 24  2  1  0
 23  4  1  0
 14  9  1  0
 19 12  1  0
M  END
>  <smiles>  (1819) 
C25921-P215

>  <fragmenstein_outcome>  (1819) 
acceptable

>  <inchikey>  (1819) 
FWMDCHOTNXURAU-UHFFFAOYSA-N

>  <fragmenstein_mode>  (1819) 
expansion

>  <HIPPO Pose ID>  (1819) 
23372

>  <Energy>  (1819) 
114.999785

>  <fragmenstein_error>  (1819) 


>  <tags>  (1819) 
{'openbind_xx01zvns2b_c1_fragmenstein', 'fragmenstein_placed'}

>  <ref_pdb>  (1819) 
175

>  <scratch_subdir>  (1819) 
/opt/xchem-fragalysis-2/maxwin/BulkDock/SCRATCH/511028/C25921-P215

>  <alias>  (1819) 
O=C1Cc2c(C(=O)Nc3ccc4c(c3)CNCCO4)cccc2C1=O

>  <HIPPO Compound ID>  (1819) 
25921

>  <fragmenstein_runtime>  (1819) 
3.552534

$$$$
O=C(Nc1cc(Br)cc([C@@](O)(Nc2ccc3c(c2)CNC3)C(=O)NCC(F)F)c1OCc1ccccn1)OCc1ccccc1
     RDKit          3D

 45 49  0  0  0  0  0  0  0  0999 V2000
   -2.5858    5.2643  -17.1181 O   0  0  0  0  0  0  0  0  0  0  0  0
   -3.2709    5.3487  -18.0912 C   0  0  0  0  0  0  0  0  0  0  0  0
   -4.6690    5.2124  -18.2549 N   0  0  0  0  0  0  0  0  0  0  0  0
   -5.6942    5.0273  -17.3158 C   0  0  0  0  0  0  0  0  0  0  0  0
   -6.9087    4.6221  -17.8760 C   0  0  0  0  0  0  0  0  0  0  0  0
   -7.9927    4.3431  -17.0608 C   0  0  0  0  0  0  0  0  0  0  0  0
   -9.6122    3.7903  -17.8312 Br  0  0  0  0  0  0  0  0  0  0  0  0
   -7.9006    4.4774  -15.6820 C   0  0  0  0  0  0  0  0  0  0  0  0
   -6.6998    4.8903  -15.0660 C   0  0  0  0  0  0  0  0  0  0  0  0
   -6.6821    5.1524  -13.5531 C   0  0  1  0  0  0  0  0  0  0  0  0
   -6.9526    6.5493  -13.4715 O   0  0  0  0  0  0  0  0  0  0  0  0
   -7.7992    4.4228  -12.8966 N   0  0  0  0  0  0  0  0  0  0  0  0
   -7.9515    4.4367  -11.4994 C   0  0  0  0  0  0  0  0  0  0  0  0
   -7.7220    5.5767  -10.7052 C   0  0  0  0  0  0  0  0  0  0  0  0
   -7.8831    5.5559   -9.3141 C   0  0  0  0  0  0  0  0  0  0  0  0
   -8.3089    4.3855   -8.7215 C   0  0  0  0  0  0  0  0  0  0  0  0
   -8.6045    3.2708   -9.4893 C   0  0  0  0  0  0  0  0  0  0  0  0
   -8.4487    3.2835  -10.8680 C   0  0  0  0  0  0  0  0  0  0  0  0
   -9.1313    2.1879   -8.6111 C   0  0  0  0  0  0  0  0  0  0  0  0
   -8.9520    2.6636   -7.2114 N   0  0  0  0  0  0  0  0  0  0  0  0
   -8.5845    4.0944   -7.2885 C   0  0  0  0  0  0  0  0  0  0  0  0
   -5.3043    4.7848  -12.7770 C   0  0  0  0  0  0  0  0  0  0  0  0
   -4.6807    5.7041  -12.3138 O   0  0  0  0  0  0  0  0  0  0  0  0
   -5.0907    3.3620  -12.6851 N   0  0  0  0  0  0  0  0  0  0  0  0
   -4.1210    2.5935  -11.9314 C   0  0  0  0  0  0  0  0  0  0  0  0
   -2.6725    2.6135  -12.4166 C   0  0  0  0  0  0  0  0  0  0  0  0
   -2.2850    3.8395  -12.8334 F   0  0  0  0  0  0  0  0  0  0  0  0
   -2.4995    1.7630  -13.4595 F   0  0  0  0  0  0  0  0  0  0  0  0
   -5.6148    5.2142  -15.9169 C   0  0  0  0  0  0  0  0  0  0  0  0
   -4.5112    5.7703  -15.3291 O   0  0  0  0  0  0  0  0  0  0  0  0
   -4.4588    7.1906  -15.5552 C   0  0  0  0  0  0  0  0  0  0  0  0
   -3.4151    7.8580  -14.6853 C   0  0  0  0  0  0  0  0  0  0  0  0
   -2.2749    7.1735  -14.2687 C   0  0  0  0  0  0  0  0  0  0  0  0
   -1.3327    7.8387  -13.4898 C   0  0  0  0  0  0  0  0  0  0  0  0
   -1.5437    9.1691  -13.1544 C   0  0  0  0  0  0  0  0  0  0  0  0
   -2.6931    9.7841  -13.6195 C   0  0  0  0  0  0  0  0  0  0  0  0
   -3.6239    9.1690  -14.3819 N   0  0  0  0  0  0  0  0  0  0  0  0
   -2.7893    5.6184  -19.3320 O   0  0  0  0  0  0  0  0  0  0  0  0
   -1.3754    5.8321  -19.3970 C   0  0  0  0  0  0  0  0  0  0  0  0
   -1.0537    6.3711  -20.7698 C   0  0  0  0  0  0  0  0  0  0  0  0
   -1.3939    5.6379  -21.9168 C   0  0  0  0  0  0  0  0  0  0  0  0
   -1.0933    6.1268  -23.1885 C   0  0  0  0  0  0  0  0  0  0  0  0
   -0.4480    7.3537  -23.3283 C   0  0  0  0  0  0  0  0  0  0  0  0
   -0.1028    8.0914  -22.1968 C   0  0  0  0  0  0  0  0  0  0  0  0
   -0.4028    7.6029  -20.9233 C   0  0  0  0  0  0  0  0  0  0  0  0
  1  2  2  0
  2  3  1  0
  3  4  1  0
  4  5  2  0
  5  6  1  0
  6  7  1  0
  6  8  2  0
  8  9  1  0
  9 10  1  0
 10 11  1  6
 10 12  1  0
 12 13  1  0
 13 14  2  0
 14 15  1  0
 15 16  2  0
 16 17  1  0
 17 18  2  0
 17 19  1  0
 19 20  1  0
 20 21  1  0
 10 22  1  0
 22 23  2  0
 22 24  1  0
 24 25  1  0
 25 26  1  0
 26 27  1  0
 26 28  1  0
  9 29  2  0
 29 30  1  0
 30 31  1  0
 31 32  1  0
 32 33  2  0
 33 34  1  0
 34 35  2  0
 35 36  1  0
 36 37  2  0
  2 38  1  0
 38 39  1  0
 39 40  1  0
 40 41  2  0
 41 42  1  0
 42 43  2  0
 43 44  1  0
 44 45  2  0
 29  4  1  0
 37 32  1  0
 45 40  1  0
 18 13  1  0
 21 16  1  0
M  END
>  <smiles>  (1820) 
C26115-P216

>  <fragmenstein_outcome>  (1820) 
acceptable

>  <inchikey>  (1820) 
LJSUGSUFGVYVTI-UHFFFAOYSA-N

>  <fragmenstein_mode>  (1820) 
expansion

>  <HIPPO Pose ID>  (1820) 
23423

>  <Energy>  (1820) 
134.334743

>  <fragmenstein_error>  (1820) 


>  <tags>  (1820) 
{'openbind_xx01zvns2b_c1_fragmenstein', 'fragmenstein_placed'}

>  <ref_pdb>  (1820) 
175

>  <scratch_subdir>  (1820) 
/opt/xchem-fragalysis-2/maxwin/BulkDock/SCRATCH/511028/C26115-P216

>  <alias>  (1820) 
O=C(Nc1cc(Br)cc([C@@](O)(Nc2ccc3c(c2)CNC3)C(=O)NCC(F)F)c1OCc1ccccn1)OCc1ccccc1

>  <HIPPO Compound ID>  (1820) 
29602

>  <fragmenstein_runtime>  (1820) 
40.852256

$$$$
NCc1cc(Br)cc([C@@H](Nc2ccc3c(c2)CNC3)C(=O)NCC(F)F)c1OCc1ccccn1
     RDKit          3D

 35 38  0  0  0  0  0  0  0  0999 V2000
   -4.0820    5.2448  -18.1162 N   0  0  0  0  0  0  0  0  0  0  0  0
   -5.4657    5.1453  -18.5539 C   0  0  0  0  0  0  0  0  0  0  0  0
   -6.4825    4.8584  -17.4709 C   0  0  0  0  0  0  0  0  0  0  0  0
   -7.7387    4.4579  -17.9376 C   0  0  0  0  0  0  0  0  0  0  0  0
   -8.7762    4.2419  -17.0504 C   0  0  0  0  0  0  0  0  0  0  0  0
  -10.4935    4.0012  -17.7490 Br  0  0  0  0  0  0  0  0  0  0  0  0
   -8.5832    4.3557  -15.6783 C   0  0  0  0  0  0  0  0  0  0  0  0
   -7.3316    4.7303  -15.1481 C   0  0  0  0  0  0  0  0  0  0  0  0
   -7.2160    4.9722  -13.6359 C   0  0  1  0  0  0  0  0  0  0  0  0
   -8.1759    4.1072  -12.8976 N   0  0  0  0  0  0  0  0  0  0  0  0
   -8.2438    4.1633  -11.5008 C   0  0  0  0  0  0  0  0  0  0  0  0
   -7.9688    5.3350  -10.7670 C   0  0  0  0  0  0  0  0  0  0  0  0
   -8.0388    5.3623   -9.3697 C   0  0  0  0  0  0  0  0  0  0  0  0
   -8.4141    4.2097   -8.7109 C   0  0  0  0  0  0  0  0  0  0  0  0
   -8.7300    3.0606   -9.4167 C   0  0  0  0  0  0  0  0  0  0  0  0
   -8.6628    3.0232  -10.8007 C   0  0  0  0  0  0  0  0  0  0  0  0
   -9.1572    1.9935   -8.4708 C   0  0  0  0  0  0  0  0  0  0  0  0
   -8.9870    2.5506   -7.1022 N   0  0  0  0  0  0  0  0  0  0  0  0
   -8.6023    3.9712   -7.2545 C   0  0  0  0  0  0  0  0  0  0  0  0
   -5.7747    4.8941  -12.9945 C   0  0  0  0  0  0  0  0  0  0  0  0
   -5.1782    5.8658  -12.7304 O   0  0  0  0  0  0  0  0  0  0  0  0
   -5.4354    3.4014  -12.7287 N   0  0  0  0  0  0  0  0  0  0  0  0
   -4.3384    2.8026  -11.9987 C   0  0  0  0  0  0  0  0  0  0  0  0
   -4.4889    2.8944  -10.4788 C   0  0  0  0  0  0  0  0  0  0  0  0
   -3.5205    2.1451   -9.8849 F   0  0  0  0  0  0  0  0  0  0  0  0
   -4.2761    4.1700  -10.0612 F   0  0  0  0  0  0  0  0  0  0  0  0
   -6.3100    5.0343  -16.0760 C   0  0  0  0  0  0  0  0  0  0  0  0
   -5.1073    5.4824  -15.5978 O   0  0  0  0  0  0  0  0  0  0  0  0
   -5.0206    6.9213  -15.6753 C   0  0  0  0  0  0  0  0  0  0  0  0
   -3.6036    7.4256  -15.4861 C   0  0  0  0  0  0  0  0  0  0  0  0
   -2.6897    6.7368  -14.6902 C   0  0  0  0  0  0  0  0  0  0  0  0
   -1.4132    7.2626  -14.5104 C   0  0  0  0  0  0  0  0  0  0  0  0
   -1.0802    8.4640  -15.1210 C   0  0  0  0  0  0  0  0  0  0  0  0
   -2.0454    9.0960  -15.8854 C   0  0  0  0  0  0  0  0  0  0  0  0
   -3.2929    8.6139  -16.0764 N   0  0  0  0  0  0  0  0  0  0  0  0
  1  2  1  0
  2  3  1  0
  3  4  2  0
  4  5  1  0
  5  6  1  0
  5  7  2  0
  7  8  1  0
  8  9  1  0
  9 10  1  1
 10 11  1  0
 11 12  2  0
 12 13  1  0
 13 14  2  0
 14 15  1  0
 15 16  2  0
 15 17  1  0
 17 18  1  0
 18 19  1  0
  9 20  1  0
 20 21  2  0
 20 22  1  0
 22 23  1  0
 23 24  1  0
 24 25  1  0
 24 26  1  0
  8 27  2  0
 27 28  1  0
 28 29  1  0
 29 30  1  0
 30 31  2  0
 31 32  1  0
 32 33  2  0
 33 34  1  0
 34 35  2  0
 27  3  1  0
 35 30  1  0
 16 11  1  0
 19 14  1  0
M  END
>  <smiles>  (1821) 
C26117-P216

>  <fragmenstein_outcome>  (1821) 
acceptable

>  <inchikey>  (1821) 
NHDGGVMHCDJZEA-UHFFFAOYSA-N

>  <fragmenstein_mode>  (1821) 
expansion

>  <HIPPO Pose ID>  (1821) 
23425

>  <Energy>  (1821) 
169.099251

>  <fragmenstein_error>  (1821) 


>  <tags>  (1821) 
{'openbind_xx01zvns2b_c1_fragmenstein', 'fragmenstein_placed'}

>  <ref_pdb>  (1821) 
175

>  <scratch_subdir>  (1821) 
/opt/xchem-fragalysis-2/maxwin/BulkDock/SCRATCH/511028/C26117-P216

>  <alias>  (1821) 
NCc1cc(Br)cc([C@@H](Nc2ccc3c(c2)CNC3)C(=O)NCC(F)F)c1OCc1ccccn1

>  <HIPPO Compound ID>  (1821) 
20812

>  <fragmenstein_runtime>  (1821) 
6.759497

$$$$
O=C(NCC(F)F)[C@@H](Nc1ccc2c(c1)CNC2)[C@@H]1C[C@@H](Br)Cc2[nH]c(=O)[nH]c21
     RDKit          3D

 29 32  0  0  0  0  0  0  0  0999 V2000
  -10.0435    6.0220  -13.7675 O   0  0  0  0  0  0  0  0  0  0  0  0
   -8.9279    6.2174  -13.4747 C   0  0  0  0  0  0  0  0  0  0  0  0
   -8.2671    7.4467  -12.7893 N   0  0  0  0  0  0  0  0  0  0  0  0
   -8.8602    8.6472  -12.2379 C   0  0  0  0  0  0  0  0  0  0  0  0
   -8.8205    8.7045  -10.7141 C   0  0  0  0  0  0  0  0  0  0  0  0
   -7.5272    8.5737  -10.3039 F   0  0  0  0  0  0  0  0  0  0  0  0
   -9.2257    9.9334  -10.3063 F   0  0  0  0  0  0  0  0  0  0  0  0
   -7.7998    5.1749  -13.8085 C   0  0  1  0  0  0  0  0  0  0  0  0
   -7.9976    3.9409  -13.0122 N   0  0  0  0  0  0  0  0  0  0  0  0
   -7.9982    4.0206  -11.6039 C   0  0  0  0  0  0  0  0  0  0  0  0
   -7.2934    4.9970  -10.8751 C   0  0  0  0  0  0  0  0  0  0  0  0
   -7.3839    5.0940   -9.4808 C   0  0  0  0  0  0  0  0  0  0  0  0
   -8.1063    4.1345   -8.8070 C   0  0  0  0  0  0  0  0  0  0  0  0
   -8.6979    3.0862   -9.4924 C   0  0  0  0  0  0  0  0  0  0  0  0
   -8.6518    3.0135  -10.8774 C   0  0  0  0  0  0  0  0  0  0  0  0
   -9.3671    2.1769   -8.5200 C   0  0  0  0  0  0  0  0  0  0  0  0
   -8.9672    2.6521   -7.1664 N   0  0  0  0  0  0  0  0  0  0  0  0
   -8.3936    4.0030   -7.3529 C   0  0  0  0  0  0  0  0  0  0  0  0
   -7.8870    4.9516  -15.3498 C   0  0  2  0  0  0  0  0  0  0  0  0
   -8.7702    3.7787  -15.8123 C   0  0  0  0  0  0  0  0  0  0  0  0
   -8.8963    3.6159  -17.3438 C   0  0  1  0  0  0  0  0  0  0  0  0
  -10.6233    4.2994  -17.8995 Br  0  0  0  0  0  0  0  0  0  0  0  0
   -7.8141    4.2303  -18.2457 C   0  0  0  0  0  0  0  0  0  0  0  0
   -6.6395    4.6748  -17.4684 C   0  0  0  0  0  0  0  0  0  0  0  0
   -5.3817    4.8544  -17.9730 N   0  0  0  0  0  0  0  0  0  0  0  0
   -4.5265    5.2301  -16.9287 C   0  0  0  0  0  0  0  0  0  0  0  0
   -3.3294    5.4426  -16.9763 O   0  0  0  0  0  0  0  0  0  0  0  0
   -5.3630    5.3078  -15.7964 N   0  0  0  0  0  0  0  0  0  0  0  0
   -6.6356    4.9582  -16.1591 C   0  0  0  0  0  0  0  0  0  0  0  0
  1  2  2  0
  2  3  1  0
  3  4  1  0
  4  5  1  0
  5  6  1  0
  5  7  1  0
  2  8  1  0
  8  9  1  1
  9 10  1  0
 10 11  2  0
 11 12  1  0
 12 13  2  0
 13 14  1  0
 14 15  2  0
 14 16  1  0
 16 17  1  0
 17 18  1  0
  8 19  1  0
 19 20  1  1
 20 21  1  0
 21 22  1  6
 21 23  1  0
 23 24  1  0
 24 25  1  0
 25 26  1  0
 26 27  2  0
 26 28  1  0
 28 29  1  0
 15 10  1  0
 29 19  1  0
 18 13  1  0
 29 24  2  0
M  END
>  <smiles>  (1822) 
C26137-P216

>  <fragmenstein_outcome>  (1822) 
acceptable

>  <inchikey>  (1822) 
YJLCQJFEVFZBJW-UHFFFAOYSA-N

>  <fragmenstein_mode>  (1822) 
expansion

>  <HIPPO Pose ID>  (1822) 
23426

>  <Energy>  (1822) 
97.134958

>  <fragmenstein_error>  (1822) 


>  <tags>  (1822) 
{'openbind_xx01zvns2b_c1_fragmenstein', 'fragmenstein_placed'}

>  <ref_pdb>  (1822) 
175

>  <scratch_subdir>  (1822) 
/opt/xchem-fragalysis-2/maxwin/BulkDock/SCRATCH/511028/C26137-P216

>  <alias>  (1822) 
O=C(NCC(F)F)[C@@H](Nc1ccc2c(c1)CNC2)[C@@H]1C[C@@H](Br)Cc2[nH]c(=O)[nH]c21

>  <HIPPO Compound ID>  (1822) 
26137

>  <fragmenstein_runtime>  (1822) 
3.862617

$$$$
O=C(NCC(F)F)[C@H](Nc1ccc2c(c1)CNC2)[C@@H]1C[C@@H](Br)C2=C1N[C@H](C(F)(F)F)N2
     RDKit          3D

 31 34  0  0  0  0  0  0  0  0999 V2000
   -6.7857    2.0721  -13.5237 O   0  0  0  0  0  0  0  0  0  0  0  0
   -6.4089    3.1736  -13.6361 C   0  0  0  0  0  0  0  0  0  0  0  0
   -4.9600    3.7411  -13.7161 N   0  0  0  0  0  0  0  0  0  0  0  0
   -3.6886    3.0596  -13.7695 C   0  0  0  0  0  0  0  0  0  0  0  0
   -3.4251    2.0913  -12.6172 C   0  0  0  0  0  0  0  0  0  0  0  0
   -2.3330    1.3362  -12.9356 F   0  0  0  0  0  0  0  0  0  0  0  0
   -3.0735    2.7978  -11.5087 F   0  0  0  0  0  0  0  0  0  0  0  0
   -7.3719    4.4108  -13.6226 C   0  0  2  0  0  0  0  0  0  0  0  0
   -8.5731    4.0912  -12.8236 N   0  0  0  0  0  0  0  0  0  0  0  0
   -8.4322    4.1527  -11.4257 C   0  0  0  0  0  0  0  0  0  0  0  0
   -8.0085    5.3278  -10.7746 C   0  0  0  0  0  0  0  0  0  0  0  0
   -7.9784    5.4162   -9.3785 C   0  0  0  0  0  0  0  0  0  0  0  0
   -8.3945    4.3214   -8.6454 C   0  0  0  0  0  0  0  0  0  0  0  0
   -8.8217    3.1622   -9.2746 C   0  0  0  0  0  0  0  0  0  0  0  0
   -8.8426    3.0606  -10.6533 C   0  0  0  0  0  0  0  0  0  0  0  0
   -9.3098    2.1891   -8.2602 C   0  0  0  0  0  0  0  0  0  0  0  0
   -8.9417    2.7602   -6.9342 N   0  0  0  0  0  0  0  0  0  0  0  0
   -8.5599    4.1701   -7.1742 C   0  0  0  0  0  0  0  0  0  0  0  0
   -7.7678    5.0082  -14.9923 C   0  0  2  0  0  0  0  0  0  0  0  0
   -9.2087    4.7201  -15.5177 C   0  0  0  0  0  0  0  0  0  0  0  0
   -9.1222    3.9070  -16.8060 C   0  0  1  0  0  0  0  0  0  0  0  0
  -10.3848    4.3345  -18.1771 Br  0  0  0  0  0  0  0  0  0  0  0  0
   -7.7489    4.2040  -17.1993 C   0  0  0  0  0  0  0  0  0  0  0  0
   -6.9996    4.6879  -16.2119 C   0  0  0  0  0  0  0  0  0  0  0  0
   -5.7481    5.0676  -16.6580 N   0  0  0  0  0  0  0  0  0  0  0  0
   -5.7612    4.8017  -18.1718 C   0  0  2  0  0  0  0  0  0  0  0  0
   -5.5051    6.0514  -19.0075 C   0  0  0  0  0  0  0  0  0  0  0  0
   -4.4131    6.6698  -18.5032 F   0  0  0  0  0  0  0  0  0  0  0  0
   -5.2271    5.7385  -20.2884 F   0  0  0  0  0  0  0  0  0  0  0  0
   -6.4998    6.9619  -18.9868 F   0  0  0  0  0  0  0  0  0  0  0  0
   -7.0791    4.1765  -18.3934 N   0  0  0  0  0  0  0  0  0  0  0  0
  1  2  2  0
  2  3  1  0
  3  4  1  0
  4  5  1  0
  5  6  1  0
  5  7  1  0
  2  8  1  0
  8  9  1  6
  9 10  1  0
 10 11  2  0
 11 12  1  0
 12 13  2  0
 13 14  1  0
 14 15  2  0
 14 16  1  0
 16 17  1  0
 17 18  1  0
  8 19  1  0
 19 20  1  6
 20 21  1  0
 21 22  1  6
 21 23  1  0
 23 24  2  0
 24 25  1  0
 25 26  1  0
 26 27  1  6
 27 28  1  0
 27 29  1  0
 27 30  1  0
 26 31  1  0
 15 10  1  0
 24 19  1  0
 18 13  1  0
 31 23  1  0
M  END
>  <smiles>  (1823) 
C26141-P311

>  <fragmenstein_outcome>  (1823) 
acceptable

>  <inchikey>  (1823) 
KZPZPHRZKTXCSA-UHFFFAOYSA-N

>  <fragmenstein_mode>  (1823) 
expansion

>  <HIPPO Pose ID>  (1823) 
23431

>  <Energy>  (1823) 
277.154271

>  <fragmenstein_error>  (1823) 


>  <tags>  (1823) 
{'openbind_xx01zvns2b_c1_fragmenstein', 'fragmenstein_placed'}

>  <ref_pdb>  (1823) 
175

>  <scratch_subdir>  (1823) 
/opt/xchem-fragalysis-2/maxwin/BulkDock/SCRATCH/511028/C26141-P311

>  <alias>  (1823) 
O=C(NCC(F)F)[C@H](Nc1ccc2c(c1)CNC2)[C@@H]1C[C@@H](Br)C2=C1N[C@H](C(F)(F)F)N2

>  <HIPPO Compound ID>  (1823) 
26141

>  <fragmenstein_runtime>  (1823) 
8.103135

$$$$
Cc1nc2cc(Br)cc([C@@H](Nc3ccc4c(c3)CNC4)C(=O)NCC(F)F)c2[nH]1
     RDKit          3D

 29 32  0  0  0  0  0  0  0  0999 V2000
   -2.7582    6.1350  -17.4771 C   0  0  0  0  0  0  0  0  0  0  0  0
   -4.1641    5.7109  -17.2923 C   0  0  0  0  0  0  0  0  0  0  0  0
   -5.0120    5.3482  -18.2270 N   0  0  0  0  0  0  0  0  0  0  0  0
   -6.1682    5.0121  -17.5637 C   0  0  0  0  0  0  0  0  0  0  0  0
   -7.3776    4.5654  -18.0948 C   0  0  0  0  0  0  0  0  0  0  0  0
   -8.4178    4.3374  -17.2041 C   0  0  0  0  0  0  0  0  0  0  0  0
  -10.1130    3.9132  -17.8607 Br  0  0  0  0  0  0  0  0  0  0  0  0
   -8.2728    4.5103  -15.8295 C   0  0  0  0  0  0  0  0  0  0  0  0
   -7.0556    4.9208  -15.2461 C   0  0  0  0  0  0  0  0  0  0  0  0
   -6.9803    5.1401  -13.7334 C   0  0  1  0  0  0  0  0  0  0  0  0
   -7.8444    4.1628  -13.0427 N   0  0  0  0  0  0  0  0  0  0  0  0
   -8.0548    4.1929  -11.6666 C   0  0  0  0  0  0  0  0  0  0  0  0
   -7.9116    5.3610  -10.8905 C   0  0  0  0  0  0  0  0  0  0  0  0
   -8.1063    5.3514   -9.5031 C   0  0  0  0  0  0  0  0  0  0  0  0
   -8.4727    4.1642   -8.9025 C   0  0  0  0  0  0  0  0  0  0  0  0
   -8.6503    3.0112   -9.6548 C   0  0  0  0  0  0  0  0  0  0  0  0
   -8.4581    3.0116  -11.0261 C   0  0  0  0  0  0  0  0  0  0  0  0
   -9.0318    1.8882   -8.7459 C   0  0  0  0  0  0  0  0  0  0  0  0
   -9.4282    2.5427   -7.4708 N   0  0  0  0  0  0  0  0  0  0  0  0
   -8.7393    3.8518   -7.4677 C   0  0  0  0  0  0  0  0  0  0  0  0
   -5.5013    5.1371  -13.1894 C   0  0  0  0  0  0  0  0  0  0  0  0
   -4.8377    6.1003  -13.2443 O   0  0  0  0  0  0  0  0  0  0  0  0
   -5.1490    3.6985  -12.7249 N   0  0  0  0  0  0  0  0  0  0  0  0
   -3.9348    3.1702  -12.1425 C   0  0  0  0  0  0  0  0  0  0  0  0
   -2.6710    3.9389  -12.5154 C   0  0  0  0  0  0  0  0  0  0  0  0
   -2.5052    3.9426  -13.8661 F   0  0  0  0  0  0  0  0  0  0  0  0
   -1.5828    3.3105  -11.9994 F   0  0  0  0  0  0  0  0  0  0  0  0
   -6.0350    5.1860  -16.1858 C   0  0  0  0  0  0  0  0  0  0  0  0
   -4.7461    5.6509  -16.0537 N   0  0  0  0  0  0  0  0  0  0  0  0
  1  2  1  0
  2  3  2  0
  3  4  1  0
  4  5  2  0
  5  6  1  0
  6  7  1  0
  6  8  2  0
  8  9  1  0
  9 10  1  0
 10 11  1  1
 11 12  1  0
 12 13  2  0
 13 14  1  0
 14 15  2  0
 15 16  1  0
 16 17  2  0
 16 18  1  0
 18 19  1  0
 19 20  1  0
 10 21  1  0
 21 22  2  0
 21 23  1  0
 23 24  1  0
 24 25  1  0
 25 26  1  0
 25 27  1  0
  9 28  2  0
 28 29  1  0
 29  2  1  0
 28  4  1  0
 17 12  1  0
 20 15  1  0
M  END
>  <smiles>  (1824) 
C26142-P216

>  <fragmenstein_outcome>  (1824) 
acceptable

>  <inchikey>  (1824) 
NQKBWFJSSMUHGW-UHFFFAOYSA-N

>  <fragmenstein_mode>  (1824) 
expansion

>  <HIPPO Pose ID>  (1824) 
23432

>  <Energy>  (1824) 
106.232475

>  <fragmenstein_error>  (1824) 


>  <tags>  (1824) 
{'openbind_xx01zvns2b_c1_fragmenstein', 'fragmenstein_placed'}

>  <ref_pdb>  (1824) 
175

>  <scratch_subdir>  (1824) 
/opt/xchem-fragalysis-2/maxwin/BulkDock/SCRATCH/511028/C26142-P216

>  <alias>  (1824) 
Cc1nc2cc(Br)cc([C@@H](Nc3ccc4c(c3)CNC4)C(=O)NCC(F)F)c2[nH]1

>  <HIPPO Compound ID>  (1824) 
26142

>  <fragmenstein_runtime>  (1824) 
5.133568

$$$$
CCN(Cc1ccccn1)c1ccc(Br)cc1[C@@H](Nc1ccc2c(c1)CNC2)C(=O)NCC(F)F
     RDKit          3D

 35 38  0  0  0  0  0  0  0  0999 V2000
   -4.9562    8.0123  -17.0499 C   0  0  0  0  0  0  0  0  0  0  0  0
   -5.1532    7.2080  -15.7715 C   0  0  0  0  0  0  0  0  0  0  0  0
   -5.2864    5.7819  -16.0344 N   0  0  0  0  0  0  0  0  0  0  0  0
   -4.1333    4.8888  -15.9598 C   0  0  0  0  0  0  0  0  0  0  0  0
   -3.0275    5.2093  -16.9391 C   0  0  0  0  0  0  0  0  0  0  0  0
   -1.9333    5.9677  -16.5236 C   0  0  0  0  0  0  0  0  0  0  0  0
   -0.9134    6.2273  -17.4321 C   0  0  0  0  0  0  0  0  0  0  0  0
   -1.0115    5.7300  -18.7269 C   0  0  0  0  0  0  0  0  0  0  0  0
   -2.1306    4.9870  -19.0605 C   0  0  0  0  0  0  0  0  0  0  0  0
   -3.1320    4.7154  -18.1985 N   0  0  0  0  0  0  0  0  0  0  0  0
   -6.4929    5.2391  -16.4308 C   0  0  0  0  0  0  0  0  0  0  0  0
   -6.6763    4.9876  -17.8053 C   0  0  0  0  0  0  0  0  0  0  0  0
   -7.9007    4.5810  -18.3123 C   0  0  0  0  0  0  0  0  0  0  0  0
   -8.9499    4.4094  -17.4330 C   0  0  0  0  0  0  0  0  0  0  0  0
  -10.6751    4.1577  -18.1064 Br  0  0  0  0  0  0  0  0  0  0  0  0
   -8.7669    4.5530  -16.0598 C   0  0  0  0  0  0  0  0  0  0  0  0
   -7.5357    4.9590  -15.5187 C   0  0  0  0  0  0  0  0  0  0  0  0
   -7.4177    5.2048  -14.0055 C   0  0  1  0  0  0  0  0  0  0  0  0
   -8.4932    4.4919  -13.2331 N   0  0  0  0  0  0  0  0  0  0  0  0
   -8.3949    4.5059  -11.8239 C   0  0  0  0  0  0  0  0  0  0  0  0
   -8.0836    5.6752  -11.1020 C   0  0  0  0  0  0  0  0  0  0  0  0
   -7.9585    5.6654   -9.7047 C   0  0  0  0  0  0  0  0  0  0  0  0
   -8.1634    4.4758   -9.0302 C   0  0  0  0  0  0  0  0  0  0  0  0
   -8.5030    3.3235   -9.7203 C   0  0  0  0  0  0  0  0  0  0  0  0
   -8.6365    3.3248  -11.1035 C   0  0  0  0  0  0  0  0  0  0  0  0
   -8.6261    2.1887   -8.7586 C   0  0  0  0  0  0  0  0  0  0  0  0
   -8.5263    2.7800   -7.4033 N   0  0  0  0  0  0  0  0  0  0  0  0
   -8.0613    4.1687   -7.5722 C   0  0  0  0  0  0  0  0  0  0  0  0
   -6.0119    4.8510  -13.3891 C   0  0  0  0  0  0  0  0  0  0  0  0
   -5.3130    5.6625  -12.9145 O   0  0  0  0  0  0  0  0  0  0  0  0
   -5.8562    3.3037  -13.4615 N   0  0  0  0  0  0  0  0  0  0  0  0
   -4.8583    2.4328  -12.8823 C   0  0  0  0  0  0  0  0  0  0  0  0
   -5.4186    1.6649  -11.6921 C   0  0  0  0  0  0  0  0  0  0  0  0
   -6.3767    0.8168  -12.1630 F   0  0  0  0  0  0  0  0  0  0  0  0
   -4.4432    0.9188  -11.1235 F   0  0  0  0  0  0  0  0  0  0  0  0
  1  2  1  0
  2  3  1  0
  3  4  1  0
  4  5  1  0
  5  6  2  0
  6  7  1  0
  7  8  2  0
  8  9  1  0
  9 10  2  0
  3 11  1  0
 11 12  2  0
 12 13  1  0
 13 14  2  0
 14 15  1  0
 14 16  1  0
 16 17  2  0
 17 18  1  0
 18 19  1  1
 19 20  1  0
 20 21  2  0
 21 22  1  0
 22 23  2  0
 23 24  1  0
 24 25  2  0
 24 26  1  0
 26 27  1  0
 27 28  1  0
 18 29  1  0
 29 30  2  0
 29 31  1  0
 31 32  1  0
 32 33  1  0
 33 34  1  0
 33 35  1  0
 10  5  1  0
 17 11  1  0
 25 20  1  0
 28 23  1  0
M  END
>  <smiles>  (1825) 
C26182-P29

>  <fragmenstein_outcome>  (1825) 
acceptable

>  <inchikey>  (1825) 
MOGHOESTABKOKH-UHFFFAOYSA-N

>  <fragmenstein_mode>  (1825) 
expansion

>  <HIPPO Pose ID>  (1825) 
23447

>  <Energy>  (1825) 
177.910908

>  <fragmenstein_error>  (1825) 


>  <tags>  (1825) 
{'openbind_xx01zvns2b_c1_fragmenstein', 'fragmenstein_placed'}

>  <ref_pdb>  (1825) 
175

>  <scratch_subdir>  (1825) 
/opt/xchem-fragalysis-2/maxwin/BulkDock/SCRATCH/511028/C26182-P29

>  <alias>  (1825) 
CCN(Cc1ccccn1)c1ccc(Br)cc1[C@@H](Nc1ccc2c(c1)CNC2)C(=O)NCC(F)F

>  <HIPPO Compound ID>  (1825) 
33888

>  <fragmenstein_runtime>  (1825) 
6.501713

$$$$
O=C(O)C[C@@H]1NCc2cc(N[C@@H](C(=O)NCC(F)F)c3cc(Br)cc4[nH]ncc34)ccc21
     RDKit          3D

 32 35  0  0  0  0  0  0  0  0999 V2000
   -6.0159    3.5388   -4.6116 O   0  0  0  0  0  0  0  0  0  0  0  0
   -7.0524    3.7187   -5.2448 C   0  0  0  0  0  0  0  0  0  0  0  0
   -8.2475    3.3690   -4.7294 O   0  0  0  0  0  0  0  0  0  0  0  0
   -7.1402    4.3574   -6.6174 C   0  0  0  0  0  0  0  0  0  0  0  0
   -8.2739    3.8020   -7.4931 C   0  0  2  0  0  0  0  0  0  0  0  0
   -8.3213    2.3159   -7.4803 N   0  0  0  0  0  0  0  0  0  0  0  0
   -8.7702    1.8854   -8.8147 C   0  0  0  0  0  0  0  0  0  0  0  0
   -8.5134    3.0411   -9.7143 C   0  0  0  0  0  0  0  0  0  0  0  0
   -8.5085    3.0504  -11.1040 C   0  0  0  0  0  0  0  0  0  0  0  0
   -8.1629    4.2160  -11.7980 C   0  0  0  0  0  0  0  0  0  0  0  0
   -7.9612    4.1041  -13.1756 N   0  0  0  0  0  0  0  0  0  0  0  0
   -7.3744    5.1670  -14.0266 C   0  0  1  0  0  0  0  0  0  0  0  0
   -5.9046    5.5027  -13.5877 C   0  0  0  0  0  0  0  0  0  0  0  0
   -5.4394    6.5645  -13.7474 O   0  0  0  0  0  0  0  0  0  0  0  0
   -5.2815    4.2102  -12.9921 N   0  0  0  0  0  0  0  0  0  0  0  0
   -3.9898    3.9853  -12.3841 C   0  0  0  0  0  0  0  0  0  0  0  0
   -3.8941    2.7325  -11.5168 C   0  0  0  0  0  0  0  0  0  0  0  0
   -4.0417    1.6139  -12.2747 F   0  0  0  0  0  0  0  0  0  0  0  0
   -4.8752    2.7082  -10.5861 F   0  0  0  0  0  0  0  0  0  0  0  0
   -7.5093    4.8191  -15.5261 C   0  0  0  0  0  0  0  0  0  0  0  0
   -8.8088    4.4948  -15.9950 C   0  0  0  0  0  0  0  0  0  0  0  0
   -9.0841    4.2731  -17.3436 C   0  0  0  0  0  0  0  0  0  0  0  0
  -10.8531    4.1381  -17.9214 Br  0  0  0  0  0  0  0  0  0  0  0  0
   -8.1028    4.3118  -18.3148 C   0  0  0  0  0  0  0  0  0  0  0  0
   -6.8366    4.6622  -17.8752 C   0  0  0  0  0  0  0  0  0  0  0  0
   -5.7029    4.8650  -18.6152 N   0  0  0  0  0  0  0  0  0  0  0  0
   -4.6395    5.2251  -17.8767 N   0  0  0  0  0  0  0  0  0  0  0  0
   -5.1298    5.2551  -16.6308 C   0  0  0  0  0  0  0  0  0  0  0  0
   -6.5082    4.9162  -16.5419 C   0  0  0  0  0  0  0  0  0  0  0  0
   -7.8749    5.3621  -11.0283 C   0  0  0  0  0  0  0  0  0  0  0  0
   -7.9129    5.3510   -9.6142 C   0  0  0  0  0  0  0  0  0  0  0  0
   -8.2066    4.1677   -8.9605 C   0  0  0  0  0  0  0  0  0  0  0  0
  1  2  2  0
  2  3  1  0
  2  4  1  0
  5  4  1  1
  5  6  1  0
  6  7  1  0
  7  8  1  0
  8  9  2  0
  9 10  1  0
 10 11  1  0
 12 11  1  1
 12 13  1  0
 13 14  2  0
 13 15  1  0
 15 16  1  0
 16 17  1  0
 17 18  1  0
 17 19  1  0
 12 20  1  0
 20 21  2  0
 21 22  1  0
 22 23  1  0
 22 24  2  0
 24 25  1  0
 25 26  1  0
 26 27  1  0
 27 28  2  0
 28 29  1  0
 10 30  2  0
 30 31  1  0
 31 32  2  0
 32  5  1  0
 32  8  1  0
 29 20  1  0
 29 25  2  0
M  END
>  <smiles>  (1826) 
C26184-P217

>  <fragmenstein_outcome>  (1826) 
acceptable

>  <inchikey>  (1826) 
GHWDDLBKKZEMRJ-UHFFFAOYSA-N

>  <fragmenstein_mode>  (1826) 
expansion

>  <HIPPO Pose ID>  (1826) 
23449

>  <Energy>  (1826) 
117.466826

>  <fragmenstein_error>  (1826) 


>  <tags>  (1826) 
{'openbind_xx01zvns2b_c1_fragmenstein', 'fragmenstein_placed'}

>  <ref_pdb>  (1826) 
175

>  <scratch_subdir>  (1826) 
/opt/xchem-fragalysis-2/maxwin/BulkDock/SCRATCH/511028/C26184-P217

>  <alias>  (1826) 
O=C(O)C[C@@H]1NCc2cc(N[C@@H](C(=O)NCC(F)F)c3cc(Br)cc4[nH]ncc34)ccc21

>  <HIPPO Compound ID>  (1826) 
26184

>  <fragmenstein_runtime>  (1826) 
7.345647

$$$$
O=C(NCC(F)F)[C@H](Nc1ccc2c(c1)CNC2)c1cc(Br)cc2nc[nH]c12
     RDKit          3D

 28 31  0  0  0  0  0  0  0  0999 V2000
   -5.0564    4.4489  -13.4771 O   0  0  0  0  0  0  0  0  0  0  0  0
   -5.7783    5.3691  -13.5159 C   0  0  0  0  0  0  0  0  0  0  0  0
   -5.5224    6.8688  -13.1711 N   0  0  0  0  0  0  0  0  0  0  0  0
   -4.3011    7.5526  -12.8006 C   0  0  0  0  0  0  0  0  0  0  0  0
   -3.4603    7.9586  -14.0080 C   0  0  0  0  0  0  0  0  0  0  0  0
   -4.1538    8.8464  -14.7682 F   0  0  0  0  0  0  0  0  0  0  0  0
   -3.2146    6.8828  -14.8010 F   0  0  0  0  0  0  0  0  0  0  0  0
   -7.2703    5.2558  -14.0155 C   0  0  2  0  0  0  0  0  0  0  0  0
   -8.0099    4.2517  -13.2329 N   0  0  0  0  0  0  0  0  0  0  0  0
   -8.0957    4.3445  -11.8390 C   0  0  0  0  0  0  0  0  0  0  0  0
   -8.0350    5.5600  -11.1308 C   0  0  0  0  0  0  0  0  0  0  0  0
   -8.0898    5.5985   -9.7313 C   0  0  0  0  0  0  0  0  0  0  0  0
   -8.2575    4.4094   -9.0501 C   0  0  0  0  0  0  0  0  0  0  0  0
   -8.4250    3.2169   -9.7360 C   0  0  0  0  0  0  0  0  0  0  0  0
   -8.3662    3.1716  -11.1182 C   0  0  0  0  0  0  0  0  0  0  0  0
   -8.6659    2.1070   -8.7706 C   0  0  0  0  0  0  0  0  0  0  0  0
   -8.4016    2.6788   -7.4264 N   0  0  0  0  0  0  0  0  0  0  0  0
   -8.3302    4.1463   -7.5862 C   0  0  0  0  0  0  0  0  0  0  0  0
   -7.3749    4.9070  -15.5036 C   0  0  0  0  0  0  0  0  0  0  0  0
   -8.6367    4.5448  -16.0259 C   0  0  0  0  0  0  0  0  0  0  0  0
   -8.8476    4.3286  -17.3871 C   0  0  0  0  0  0  0  0  0  0  0  0
  -10.6036    4.1008  -17.9913 Br  0  0  0  0  0  0  0  0  0  0  0  0
   -7.8211    4.4290  -18.3171 C   0  0  0  0  0  0  0  0  0  0  0  0
   -6.5583    4.7885  -17.8446 C   0  0  0  0  0  0  0  0  0  0  0  0
   -5.4044    5.0075  -18.5608 N   0  0  0  0  0  0  0  0  0  0  0  0
   -4.4989    5.3101  -17.6682 C   0  0  0  0  0  0  0  0  0  0  0  0
   -5.0162    5.3059  -16.4073 N   0  0  0  0  0  0  0  0  0  0  0  0
   -6.3587    5.0087  -16.4788 C   0  0  0  0  0  0  0  0  0  0  0  0
  1  2  2  0
  2  3  1  0
  3  4  1  0
  4  5  1  0
  5  6  1  0
  5  7  1  0
  2  8  1  0
  8  9  1  1
  9 10  1  0
 10 11  2  0
 11 12  1  0
 12 13  2  0
 13 14  1  0
 14 15  2  0
 14 16  1  0
 16 17  1  0
 17 18  1  0
  8 19  1  0
 19 20  2  0
 20 21  1  0
 21 22  1  0
 21 23  2  0
 23 24  1  0
 24 25  1  0
 25 26  2  0
 26 27  1  0
 27 28  1  0
 15 10  1  0
 28 19  1  0
 18 13  1  0
 28 24  2  0
M  END
>  <smiles>  (1827) 
C170-P217

>  <fragmenstein_outcome>  (1827) 
acceptable

>  <inchikey>  (1827) 
XBWPBDPSKPKGDB-UHFFFAOYSA-N

>  <fragmenstein_mode>  (1827) 
expansion

>  <HIPPO Pose ID>  (1827) 
23482

>  <Energy>  (1827) 
111.407384

>  <fragmenstein_error>  (1827) 


>  <tags>  (1827) 
{'openbind_xx01zvns2b_c1_fragmenstein', 'fragmenstein_placed'}

>  <ref_pdb>  (1827) 
175

>  <scratch_subdir>  (1827) 
/opt/xchem-fragalysis-2/maxwin/BulkDock/SCRATCH/511028/C170-P217

>  <alias>  (1827) 
O=C(NCC(F)F)[C@H](Nc1ccc2c(c1)CNC2)c1cc(Br)cc2nc[nH]c12

>  <HIPPO Compound ID>  (1827) 
36524

>  <fragmenstein_runtime>  (1827) 
4.395843

$$$$
CCN(OCCCO)c1c(C(=O)Nc2ccc3c(c2)CNC3)cc(F)c2c1[N@@H+]([O-])C=N2
     RDKit          3D

 31 34  0  0  0  0  0  0  0  0999 V2000
   -3.6327    3.4360  -13.8886 C   0  0  0  0  0  0  0  0  0  0  0  0
   -4.0096    4.3559  -15.0434 C   0  0  0  0  0  0  0  0  0  0  0  0
   -5.1950    5.1704  -14.6661 N   0  0  0  0  0  0  0  0  0  0  0  0
   -4.8953    6.5559  -14.5958 O   0  0  0  0  0  0  0  0  0  0  0  0
   -4.2267    6.8343  -13.3435 C   0  0  0  0  0  0  0  0  0  0  0  0
   -5.0701    6.5129  -12.1127 C   0  0  0  0  0  0  0  0  0  0  0  0
   -4.2817    6.5795  -10.8148 C   0  0  0  0  0  0  0  0  0  0  0  0
   -3.6414    7.8382  -10.6835 O   0  0  0  0  0  0  0  0  0  0  0  0
   -6.3155    4.8366  -15.4668 C   0  0  0  0  0  0  0  0  0  0  0  0
   -7.4405    4.1886  -14.9127 C   0  0  0  0  0  0  0  0  0  0  0  0
   -7.4318    3.5863  -13.5597 C   0  0  0  0  0  0  0  0  0  0  0  0
   -7.1805    2.4534  -13.4437 O   0  0  0  0  0  0  0  0  0  0  0  0
   -7.8482    4.6308  -12.5049 N   0  0  0  0  0  0  0  0  0  0  0  0
   -8.1251    4.4854  -11.1501 C   0  0  0  0  0  0  0  0  0  0  0  0
   -8.1678    5.6371  -10.3480 C   0  0  0  0  0  0  0  0  0  0  0  0
   -8.3430    5.5335   -8.9655 C   0  0  0  0  0  0  0  0  0  0  0  0
   -8.5459    4.2768   -8.4230 C   0  0  0  0  0  0  0  0  0  0  0  0
   -8.5715    3.1457   -9.2275 C   0  0  0  0  0  0  0  0  0  0  0  0
   -8.3310    3.2248  -10.5887 C   0  0  0  0  0  0  0  0  0  0  0  0
   -8.8702    1.9433   -8.3995 C   0  0  0  0  0  0  0  0  0  0  0  0
   -9.1259    2.4471   -7.0220 N   0  0  0  0  0  0  0  0  0  0  0  0
   -8.7698    3.8788   -7.0048 C   0  0  0  0  0  0  0  0  0  0  0  0
   -8.6284    3.9981  -15.6437 C   0  0  0  0  0  0  0  0  0  0  0  0
   -8.7057    4.3890  -16.9646 C   0  0  0  0  0  0  0  0  0  0  0  0
   -9.8349    4.1933  -17.6603 F   0  0  0  0  0  0  0  0  0  0  0  0
   -7.6029    4.9876  -17.5327 C   0  0  0  0  0  0  0  0  0  0  0  0
   -6.4217    5.1793  -16.8167 C   0  0  0  0  0  0  0  0  0  0  0  0
   -5.4689    5.8599  -17.7123 N   0  0  1  0  0  0  0  0  0  0  0  0
   -4.4134    5.0808  -18.0528 O   0  0  0  0  0  0  0  0  0  0  0  0
   -6.3258    6.0313  -18.9139 C   0  0  0  0  0  0  0  0  0  0  0  0
   -7.5263    5.5535  -18.8002 N   0  0  0  0  0  0  0  0  0  0  0  0
  1  2  1  0
  2  3  1  0
  3  4  1  0
  4  5  1  0
  5  6  1  0
  6  7  1  0
  7  8  1  0
  3  9  1  0
  9 10  2  0
 10 11  1  0
 11 12  2  0
 11 13  1  0
 13 14  1  0
 14 15  2  0
 15 16  1  0
 16 17  2  0
 17 18  1  0
 18 19  2  0
 18 20  1  0
 20 21  1  0
 21 22  1  0
 10 23  1  0
 23 24  2  0
 24 25  1  0
 24 26  1  0
 26 27  2  0
 27 28  1  0
 28 29  1  6
 28 30  1  0
 30 31  2  0
 27  9  1  0
 19 14  1  0
 31 26  1  0
 22 17  1  0
M  CHG  2  28   1  29  -1
M  END
>  <smiles>  (1828) 
C26415-P218

>  <fragmenstein_outcome>  (1828) 
acceptable

>  <inchikey>  (1828) 
WUDRJXFRYAPQPO-UHFFFAOYSA-N

>  <fragmenstein_mode>  (1828) 
expansion

>  <HIPPO Pose ID>  (1828) 
23509

>  <Energy>  (1828) 
104.439758

>  <fragmenstein_error>  (1828) 


>  <tags>  (1828) 
{'openbind_xx01zvns2b_c1_fragmenstein', 'fragmenstein_placed'}

>  <ref_pdb>  (1828) 
175

>  <scratch_subdir>  (1828) 
/opt/xchem-fragalysis-2/maxwin/BulkDock/SCRATCH/511028/C26415-P218

>  <alias>  (1828) 
CCN(OCCCO)c1c(C(=O)Nc2ccc3c(c2)CNC3)cc(F)c2c1[N@@H+]([O-])C=N2

>  <HIPPO Compound ID>  (1828) 
26415

>  <fragmenstein_runtime>  (1828) 
5.982841

$$$$
CC(C)NC(=O)[C@](O)(Nc1ccc2c(c1)CNC2)c1cc(Cl)c2c(c1)C1(CCCCC1)CN2
     RDKit          3D

 33 37  0  0  0  0  0  0  0  0999 V2000
   -3.3854    1.7690  -12.7822 C   0  0  0  0  0  0  0  0  0  0  0  0
   -4.1740    2.3052  -11.5895 C   0  0  0  0  0  0  0  0  0  0  0  0
   -4.7240    1.1905  -10.7080 C   0  0  0  0  0  0  0  0  0  0  0  0
   -5.2348    3.1648  -12.0542 N   0  0  0  0  0  0  0  0  0  0  0  0
   -6.4930    2.8437  -12.9251 C   0  0  0  0  0  0  0  0  0  0  0  0
   -6.8949    1.8196  -13.3291 O   0  0  0  0  0  0  0  0  0  0  0  0
   -7.1399    4.2847  -13.2534 C   0  0  2  0  0  0  0  0  0  0  0  0
   -6.3249    5.3623  -12.7656 O   0  0  0  0  0  0  0  0  0  0  0  0
   -8.4674    4.4699  -12.6541 N   0  0  0  0  0  0  0  0  0  0  0  0
   -8.4999    4.3826  -11.2466 C   0  0  0  0  0  0  0  0  0  0  0  0
   -8.2632    5.5254  -10.4530 C   0  0  0  0  0  0  0  0  0  0  0  0
   -8.2559    5.4528   -9.0579 C   0  0  0  0  0  0  0  0  0  0  0  0
   -8.5075    4.2284   -8.4703 C   0  0  0  0  0  0  0  0  0  0  0  0
   -8.7283    3.0957   -9.2423 C   0  0  0  0  0  0  0  0  0  0  0  0
   -8.7050    3.1483  -10.6257 C   0  0  0  0  0  0  0  0  0  0  0  0
   -8.9654    1.9235   -8.3552 C   0  0  0  0  0  0  0  0  0  0  0  0
   -9.0734    2.4723   -6.9751 N   0  0  0  0  0  0  0  0  0  0  0  0
   -8.6076    3.8725   -7.0281 C   0  0  0  0  0  0  0  0  0  0  0  0
   -7.2080    4.4815  -14.7788 C   0  0  0  0  0  0  0  0  0  0  0  0
   -8.3902    4.2414  -15.5195 C   0  0  0  0  0  0  0  0  0  0  0  0
   -8.4426    4.4779  -16.8974 C   0  0  0  0  0  0  0  0  0  0  0  0
   -9.8944    4.1699  -17.7740 Cl  0  0  0  0  0  0  0  0  0  0  0  0
   -7.3063    4.9476  -17.5405 C   0  0  0  0  0  0  0  0  0  0  0  0
   -6.1186    5.1493  -16.8323 C   0  0  0  0  0  0  0  0  0  0  0  0
   -6.0544    4.9142  -15.4685 C   0  0  0  0  0  0  0  0  0  0  0  0
   -5.0504    5.6815  -17.7676 C   0  0  0  0  0  0  0  0  0  0  0  0
   -3.6999    4.9349  -17.6622 C   0  0  0  0  0  0  0  0  0  0  0  0
   -2.4751    5.8374  -17.8418 C   0  0  0  0  0  0  0  0  0  0  0  0
   -2.7170    6.9157  -18.8853 C   0  0  0  0  0  0  0  0  0  0  0  0
   -3.8605    7.8444  -18.4850 C   0  0  0  0  0  0  0  0  0  0  0  0
   -4.8735    7.1972  -17.5372 C   0  0  0  0  0  0  0  0  0  0  0  0
   -5.7655    5.3961  -19.1283 C   0  0  0  0  0  0  0  0  0  0  0  0
   -7.1997    5.4411  -18.8517 N   0  0  0  0  0  0  0  0  0  0  0  0
  1  2  1  0
  2  3  1  0
  2  4  1  0
  4  5  1  0
  5  6  2  0
  5  7  1  0
  7  8  1  1
  7  9  1  0
  9 10  1  0
 10 11  2  0
 11 12  1  0
 12 13  2  0
 13 14  1  0
 14 15  2  0
 14 16  1  0
 16 17  1  0
 17 18  1  0
  7 19  1  0
 19 20  2  0
 20 21  1  0
 21 22  1  0
 21 23  2  0
 23 24  1  0
 24 25  2  0
 24 26  1  0
 26 27  1  0
 27 28  1  0
 28 29  1  0
 29 30  1  0
 30 31  1  0
 26 32  1  0
 32 33  1  0
 15 10  1  0
 25 19  1  0
 31 26  1  0
 18 13  1  0
 33 23  1  0
M  END
>  <smiles>  (1829) 
C26479-P218

>  <fragmenstein_outcome>  (1829) 
acceptable

>  <inchikey>  (1829) 
WDKMVRNLWYGMPY-UHFFFAOYSA-N

>  <fragmenstein_mode>  (1829) 
expansion

>  <HIPPO Pose ID>  (1829) 
23518

>  <Energy>  (1829) 
147.652113

>  <fragmenstein_error>  (1829) 


>  <tags>  (1829) 
{'openbind_xx01zvns2b_c1_fragmenstein', 'fragmenstein_placed'}

>  <ref_pdb>  (1829) 
175

>  <scratch_subdir>  (1829) 
/opt/xchem-fragalysis-2/maxwin/BulkDock/SCRATCH/511028/C26479-P218

>  <alias>  (1829) 
CC(C)NC(=O)[C@](O)(Nc1ccc2c(c1)CNC2)c1cc(Cl)c2c(c1)C1(CCCCC1)CN2

>  <HIPPO Compound ID>  (1829) 
26479

>  <fragmenstein_runtime>  (1829) 
7.368797

$$$$
NCc1cc(Cl)cc([C@@H](Nc2ccc3c(c2)CNC3)C(=O)NCC(F)F)c1OCC(=O)O
     RDKit          3D

 32 34  0  0  0  0  0  0  0  0999 V2000
   -4.9672    5.1567  -18.9928 N   0  0  0  0  0  0  0  0  0  0  0  0
   -5.0846    5.6811  -17.6432 C   0  0  0  0  0  0  0  0  0  0  0  0
   -6.3147    5.2186  -16.9036 C   0  0  0  0  0  0  0  0  0  0  0  0
   -7.5121    4.9450  -17.5866 C   0  0  0  0  0  0  0  0  0  0  0  0
   -8.6180    4.4444  -16.9075 C   0  0  0  0  0  0  0  0  0  0  0  0
  -10.0458    4.0689  -17.7946 Cl  0  0  0  0  0  0  0  0  0  0  0  0
   -8.5608    4.2346  -15.5323 C   0  0  0  0  0  0  0  0  0  0  0  0
   -7.3936    4.5297  -14.8051 C   0  0  0  0  0  0  0  0  0  0  0  0
   -7.2850    4.2359  -13.3096 C   0  0  1  0  0  0  0  0  0  0  0  0
   -8.6016    4.4381  -12.6587 N   0  0  0  0  0  0  0  0  0  0  0  0
   -8.5451    4.3731  -11.2508 C   0  0  0  0  0  0  0  0  0  0  0  0
   -8.2504    5.5245  -10.4919 C   0  0  0  0  0  0  0  0  0  0  0  0
   -8.2261    5.4808   -9.0949 C   0  0  0  0  0  0  0  0  0  0  0  0
   -8.5084    4.2764   -8.4786 C   0  0  0  0  0  0  0  0  0  0  0  0
   -8.7464    3.1251   -9.2226 C   0  0  0  0  0  0  0  0  0  0  0  0
   -8.7445    3.1499  -10.6045 C   0  0  0  0  0  0  0  0  0  0  0  0
   -8.9964    1.9832   -8.2953 C   0  0  0  0  0  0  0  0  0  0  0  0
   -9.2967    2.6237   -6.9847 N   0  0  0  0  0  0  0  0  0  0  0  0
   -8.6427    3.9484   -7.0297 C   0  0  0  0  0  0  0  0  0  0  0  0
   -6.6713    2.8027  -13.0560 C   0  0  0  0  0  0  0  0  0  0  0  0
   -7.2379    1.8145  -13.3210 O   0  0  0  0  0  0  0  0  0  0  0  0
   -5.2761    3.0199  -12.3976 N   0  0  0  0  0  0  0  0  0  0  0  0
   -4.2593    2.0670  -12.0210 C   0  0  0  0  0  0  0  0  0  0  0  0
   -3.1283    1.9596  -13.0364 C   0  0  0  0  0  0  0  0  0  0  0  0
   -3.5908    1.7984  -14.3006 F   0  0  0  0  0  0  0  0  0  0  0  0
   -2.4060    3.1151  -13.0406 F   0  0  0  0  0  0  0  0  0  0  0  0
   -6.2913    5.0510  -15.5055 C   0  0  0  0  0  0  0  0  0  0  0  0
   -5.1414    5.3044  -14.8002 O   0  0  0  0  0  0  0  0  0  0  0  0
   -5.0303    6.6852  -14.4501 C   0  0  0  0  0  0  0  0  0  0  0  0
   -4.1212    6.8451  -13.2464 C   0  0  0  0  0  0  0  0  0  0  0  0
   -3.3966    7.8030  -13.0235 O   0  0  0  0  0  0  0  0  0  0  0  0
   -4.2179    5.8409  -12.3466 O   0  0  0  0  0  0  0  0  0  0  0  0
  1  2  1  0
  2  3  1  0
  3  4  2  0
  4  5  1  0
  5  6  1  0
  5  7  2  0
  7  8  1  0
  8  9  1  0
  9 10  1  6
 10 11  1  0
 11 12  2  0
 12 13  1  0
 13 14  2  0
 14 15  1  0
 15 16  2  0
 15 17  1  0
 17 18  1  0
 18 19  1  0
  9 20  1  0
 20 21  2  0
 20 22  1  0
 22 23  1  0
 23 24  1  0
 24 25  1  0
 24 26  1  0
  8 27  2  0
 27 28  1  0
 28 29  1  0
 29 30  1  0
 30 31  2  0
 30 32  1  0
 27  3  1  0
 16 11  1  0
 19 14  1  0
M  END
>  <smiles>  (1830) 
C26502-P218

>  <fragmenstein_outcome>  (1830) 
acceptable

>  <inchikey>  (1830) 
NTLRCWRNIOXAEK-UHFFFAOYSA-N

>  <fragmenstein_mode>  (1830) 
expansion

>  <HIPPO Pose ID>  (1830) 
23524

>  <Energy>  (1830) 
130.590635

>  <fragmenstein_error>  (1830) 


>  <tags>  (1830) 
{'openbind_xx01zvns2b_c1_fragmenstein', 'fragmenstein_placed'}

>  <ref_pdb>  (1830) 
175

>  <scratch_subdir>  (1830) 
/opt/xchem-fragalysis-2/maxwin/BulkDock/SCRATCH/511028/C26502-P218

>  <alias>  (1830) 
NCc1cc(Cl)cc([C@@H](Nc2ccc3c(c2)CNC3)C(=O)NCC(F)F)c1OCC(=O)O

>  <HIPPO Compound ID>  (1830) 
28433

>  <fragmenstein_runtime>  (1830) 
4.95293

$$$$
O=C(O)CO[C@H]1[C@@H]([C@H](Nc2ccc3c(c2)CNC3)C(=O)NCC(F)F)C[C@@H](CO)CC12CCNCC2
     RDKit          3D

 36 39  0  0  0  0  0  0  0  0999 V2000
   -4.6143    5.8853  -12.4445 O   0  0  0  0  0  0  0  0  0  0  0  0
   -5.2267    6.9366  -12.5228 C   0  0  0  0  0  0  0  0  0  0  0  0
   -5.1364    7.8408  -11.5217 O   0  0  0  0  0  0  0  0  0  0  0  0
   -6.0949    7.4459  -13.6828 C   0  0  0  0  0  0  0  0  0  0  0  0
   -6.8276    6.6031  -14.5553 O   0  0  0  0  0  0  0  0  0  0  0  0
   -6.1738    5.4683  -15.1252 C   0  0  1  0  0  0  0  0  0  0  0  0
   -7.1431    4.2586  -14.9501 C   0  0  1  0  0  0  0  0  0  0  0  0
   -7.5072    3.7424  -13.5240 C   0  0  2  0  0  0  0  0  0  0  0  0
   -7.5616    4.8163  -12.5240 N   0  0  0  0  0  0  0  0  0  0  0  0
   -8.0080    4.5735  -11.2157 C   0  0  0  0  0  0  0  0  0  0  0  0
   -7.9948    5.6719  -10.3263 C   0  0  0  0  0  0  0  0  0  0  0  0
   -8.2618    5.5278   -8.9604 C   0  0  0  0  0  0  0  0  0  0  0  0
   -8.5667    4.2684   -8.4878 C   0  0  0  0  0  0  0  0  0  0  0  0
   -8.6111    3.1789   -9.3465 C   0  0  0  0  0  0  0  0  0  0  0  0
   -8.3304    3.3107  -10.6990 C   0  0  0  0  0  0  0  0  0  0  0  0
   -8.9445    1.9508   -8.5631 C   0  0  0  0  0  0  0  0  0  0  0  0
   -9.4375    2.4522   -7.2517 N   0  0  0  0  0  0  0  0  0  0  0  0
   -8.8695    3.8071   -7.1021 C   0  0  0  0  0  0  0  0  0  0  0  0
   -6.5544    2.5638  -13.1320 C   0  0  0  0  0  0  0  0  0  0  0  0
   -6.8547    1.4556  -13.3361 O   0  0  0  0  0  0  0  0  0  0  0  0
   -5.2834    3.1516  -12.4902 N   0  0  0  0  0  0  0  0  0  0  0  0
   -4.0723    2.5057  -12.0501 C   0  0  0  0  0  0  0  0  0  0  0  0
   -3.0562    2.2457  -13.1574 C   0  0  0  0  0  0  0  0  0  0  0  0
   -3.6384    1.8905  -14.3294 F   0  0  0  0  0  0  0  0  0  0  0  0
   -2.3520    3.3800  -13.4196 F   0  0  0  0  0  0  0  0  0  0  0  0
   -8.4317    4.4694  -15.7646 C   0  0  0  0  0  0  0  0  0  0  0  0
   -8.0950    4.5132  -17.2531 C   0  0  1  0  0  0  0  0  0  0  0  0
   -9.3323    4.4963  -18.1778 C   0  0  0  0  0  0  0  0  0  0  0  0
  -10.5227    4.1157  -17.5014 O   0  0  0  0  0  0  0  0  0  0  0  0
   -7.1035    5.6477  -17.5580 C   0  0  0  0  0  0  0  0  0  0  0  0
   -5.8291    5.7368  -16.6573 C   0  0  0  0  0  0  0  0  0  0  0  0
   -5.1653    7.1260  -16.9013 C   0  0  0  0  0  0  0  0  0  0  0  0
   -3.7385    7.2407  -16.3624 C   0  0  0  0  0  0  0  0  0  0  0  0
   -2.8725    6.2281  -16.9504 N   0  0  0  0  0  0  0  0  0  0  0  0
   -3.3905    4.8952  -16.6614 C   0  0  0  0  0  0  0  0  0  0  0  0
   -4.8098    4.7130  -17.1820 C   0  0  0  0  0  0  0  0  0  0  0  0
  1  2  2  0
  2  3  1  0
  2  4  1  0
  4  5  1  0
  6  5  1  6
  6  7  1  0
  7  8  1  0
  8  9  1  1
  9 10  1  0
 10 11  2  0
 11 12  1  0
 12 13  2  0
 13 14  1  0
 14 15  2  0
 14 16  1  0
 16 17  1  0
 17 18  1  0
  8 19  1  0
 19 20  2  0
 19 21  1  0
 21 22  1  0
 22 23  1  0
 23 24  1  0
 23 25  1  0
  7 26  1  1
 26 27  1  0
 27 28  1  6
 28 29  1  0
 27 30  1  0
 30 31  1  0
 31 32  1  0
 32 33  1  0
 33 34  1  0
 34 35  1  0
 35 36  1  0
 31  6  1  0
 15 10  1  0
 36 31  1  0
 18 13  1  0
M  END
>  <smiles>  (1831) 
C26530-P218

>  <fragmenstein_outcome>  (1831) 
acceptable

>  <inchikey>  (1831) 
BMBFDHBHURBFHQ-UHFFFAOYSA-N

>  <fragmenstein_mode>  (1831) 
expansion

>  <HIPPO Pose ID>  (1831) 
23532

>  <Energy>  (1831) 
141.143143

>  <fragmenstein_error>  (1831) 


>  <tags>  (1831) 
{'openbind_xx01zvns2b_c1_fragmenstein', 'fragmenstein_placed'}

>  <ref_pdb>  (1831) 
175

>  <scratch_subdir>  (1831) 
/opt/xchem-fragalysis-2/maxwin/BulkDock/SCRATCH/511028/C26530-P218

>  <alias>  (1831) 
O=C(O)CO[C@H]1[C@@H]([C@H](Nc2ccc3c(c2)CNC3)C(=O)NCC(F)F)C[C@@H](CO)CC12CCNCC2

>  <HIPPO Compound ID>  (1831) 
26359

>  <fragmenstein_runtime>  (1831) 
13.722872

$$$$
Cc1cc2c(c(N)c1N[C@@H](C(=O)NCC(F)F)c1cc(Cl)cc(C)c1OCC(=O)O)CNC2
     RDKit          3D

 33 35  0  0  0  0  0  0  0  0999 V2000
   -8.1614    6.9973  -11.3785 C   0  0  0  0  0  0  0  0  0  0  0  0
   -8.2828    5.7129  -10.6105 C   0  0  0  0  0  0  0  0  0  0  0  0
   -8.1408    5.7519   -9.2082 C   0  0  0  0  0  0  0  0  0  0  0  0
   -8.3560    4.5978   -8.4681 C   0  0  0  0  0  0  0  0  0  0  0  0
   -8.6640    3.4004   -9.0878 C   0  0  0  0  0  0  0  0  0  0  0  0
   -8.7072    3.3081  -10.4638 C   0  0  0  0  0  0  0  0  0  0  0  0
   -9.1471    2.1373  -11.0929 N   0  0  0  0  0  0  0  0  0  0  0  0
   -8.5655    4.4811  -11.2414 C   0  0  0  0  0  0  0  0  0  0  0  0
   -8.7026    4.3483  -12.6675 N   0  0  0  0  0  0  0  0  0  0  0  0
   -7.3802    4.3298  -13.3332 C   0  0  1  0  0  0  0  0  0  0  0  0
   -6.6237    2.9540  -13.1428 C   0  0  0  0  0  0  0  0  0  0  0  0
   -7.1134    1.9148  -13.3605 O   0  0  0  0  0  0  0  0  0  0  0  0
   -5.1651    3.3158  -12.7377 N   0  0  0  0  0  0  0  0  0  0  0  0
   -4.0424    2.4668  -12.4271 C   0  0  0  0  0  0  0  0  0  0  0  0
   -3.0189    2.5142  -13.5508 C   0  0  0  0  0  0  0  0  0  0  0  0
   -3.3463    1.6657  -14.5533 F   0  0  0  0  0  0  0  0  0  0  0  0
   -1.8005    2.1382  -13.0930 F   0  0  0  0  0  0  0  0  0  0  0  0
   -7.4822    4.6532  -14.8263 C   0  0  0  0  0  0  0  0  0  0  0  0
   -8.6046    4.2916  -15.5902 C   0  0  0  0  0  0  0  0  0  0  0  0
   -8.6187    4.4775  -16.9731 C   0  0  0  0  0  0  0  0  0  0  0  0
   -9.9987    4.0201  -17.8975 Cl  0  0  0  0  0  0  0  0  0  0  0  0
   -7.5181    5.0305  -17.6242 C   0  0  0  0  0  0  0  0  0  0  0  0
   -6.3844    5.4116  -16.8956 C   0  0  0  0  0  0  0  0  0  0  0  0
   -5.2105    5.9950  -17.6257 C   0  0  0  0  0  0  0  0  0  0  0  0
   -6.3926    5.2469  -15.4991 C   0  0  0  0  0  0  0  0  0  0  0  0
   -5.2789    5.5990  -14.7747 O   0  0  0  0  0  0  0  0  0  0  0  0
   -5.3284    6.9807  -14.4103 C   0  0  0  0  0  0  0  0  0  0  0  0
   -4.4974    7.2372  -13.1670 C   0  0  0  0  0  0  0  0  0  0  0  0
   -4.0027    8.3087  -12.8515 O   0  0  0  0  0  0  0  0  0  0  0  0
   -4.3787    6.1712  -12.3433 O   0  0  0  0  0  0  0  0  0  0  0  0
   -8.9892    2.3656   -8.0674 C   0  0  0  0  0  0  0  0  0  0  0  0
   -8.7521    2.9987   -6.7431 N   0  0  0  0  0  0  0  0  0  0  0  0
   -8.3994    4.4122   -6.9911 C   0  0  0  0  0  0  0  0  0  0  0  0
  1  2  1  0
  2  3  2  0
  3  4  1  0
  4  5  2  0
  5  6  1  0
  6  7  1  0
  6  8  2  0
  8  9  1  0
 10  9  1  6
 10 11  1  0
 11 12  2  0
 11 13  1  0
 13 14  1  0
 14 15  1  0
 15 16  1  0
 15 17  1  0
 10 18  1  0
 18 19  2  0
 19 20  1  0
 20 21  1  0
 20 22  2  0
 22 23  1  0
 23 24  1  0
 23 25  2  0
 25 26  1  0
 26 27  1  0
 27 28  1  0
 28 29  2  0
 28 30  1  0
  5 31  1  0
 31 32  1  0
 32 33  1  0
  8  2  1  0
 25 18  1  0
 33  4  1  0
M  END
>  <smiles>  (1832) 
C26552-P218

>  <fragmenstein_outcome>  (1832) 
acceptable

>  <inchikey>  (1832) 
XWSCOLHSPAJGDE-UHFFFAOYSA-N

>  <fragmenstein_mode>  (1832) 
expansion

>  <HIPPO Pose ID>  (1832) 
23545

>  <Energy>  (1832) 
151.711258

>  <fragmenstein_error>  (1832) 


>  <tags>  (1832) 
{'openbind_xx01zvns2b_c1_fragmenstein', 'fragmenstein_placed'}

>  <ref_pdb>  (1832) 
175

>  <scratch_subdir>  (1832) 
/opt/xchem-fragalysis-2/maxwin/BulkDock/SCRATCH/511028/C26552-P218

>  <alias>  (1832) 
Cc1cc2c(c(N)c1N[C@@H](C(=O)NCC(F)F)c1cc(Cl)cc(C)c1OCC(=O)O)CNC2

>  <HIPPO Compound ID>  (1832) 
26552

>  <fragmenstein_runtime>  (1832) 
6.308637

$$$$
Cc1cc2c(cc1N[C@H](C(=O)NCC(F)F)c1cc(Cl)cc(C(=O)NC(C)(C)CO)c1OCC(=O)O)CNC2
     RDKit          3D

 39 41  0  0  0  0  0  0  0  0999 V2000
   -7.6081    7.1136  -10.7541 C   0  0  0  0  0  0  0  0  0  0  0  0
   -7.9848    5.7385  -10.2671 C   0  0  0  0  0  0  0  0  0  0  0  0
   -8.2280    5.5688   -8.8903 C   0  0  0  0  0  0  0  0  0  0  0  0
   -8.5552    4.3142   -8.4175 C   0  0  0  0  0  0  0  0  0  0  0  0
   -8.6401    3.2319   -9.2775 C   0  0  0  0  0  0  0  0  0  0  0  0
   -8.3893    3.3691  -10.6347 C   0  0  0  0  0  0  0  0  0  0  0  0
   -8.0603    4.6329  -11.1632 C   0  0  0  0  0  0  0  0  0  0  0  0
   -7.6677    4.8423  -12.5030 N   0  0  0  0  0  0  0  0  0  0  0  0
   -7.7050    3.7422  -13.4782 C   0  0  2  0  0  0  0  0  0  0  0  0
   -6.7000    2.5737  -13.1627 C   0  0  0  0  0  0  0  0  0  0  0  0
   -6.9647    1.4707  -13.4358 O   0  0  0  0  0  0  0  0  0  0  0  0
   -5.4357    3.1648  -12.5062 N   0  0  0  0  0  0  0  0  0  0  0  0
   -4.2711    2.5122  -11.9613 C   0  0  0  0  0  0  0  0  0  0  0  0
   -3.1833    2.2162  -12.9945 C   0  0  0  0  0  0  0  0  0  0  0  0
   -3.6876    1.7824  -14.1750 F   0  0  0  0  0  0  0  0  0  0  0  0
   -2.4774    3.3468  -13.2692 F   0  0  0  0  0  0  0  0  0  0  0  0
   -7.5897    4.2680  -14.9193 C   0  0  0  0  0  0  0  0  0  0  0  0
   -8.7213    4.1401  -15.7499 C   0  0  0  0  0  0  0  0  0  0  0  0
   -8.6421    4.3699  -17.1202 C   0  0  0  0  0  0  0  0  0  0  0  0
  -10.0075    4.0566  -18.1169 Cl  0  0  0  0  0  0  0  0  0  0  0  0
   -7.4468    4.7710  -17.6988 C   0  0  0  0  0  0  0  0  0  0  0  0
   -6.3198    4.9851  -16.8914 C   0  0  0  0  0  0  0  0  0  0  0  0
   -5.0116    5.2180  -17.5895 C   0  0  0  0  0  0  0  0  0  0  0  0
   -4.0825    4.6197  -17.2224 O   0  0  0  0  0  0  0  0  0  0  0  0
   -5.1555    6.2327  -18.7438 N   0  0  0  0  0  0  0  0  0  0  0  0
   -4.1458    6.8029  -19.6420 C   0  0  0  0  0  0  0  0  0  0  0  0
   -2.9955    7.3823  -18.8040 C   0  0  0  0  0  0  0  0  0  0  0  0
   -3.6032    5.6892  -20.5493 C   0  0  0  0  0  0  0  0  0  0  0  0
   -4.7528    7.9494  -20.4848 C   0  0  0  0  0  0  0  0  0  0  0  0
   -5.6763    7.5112  -21.4721 O   0  0  0  0  0  0  0  0  0  0  0  0
   -6.4037    4.7814  -15.4905 C   0  0  0  0  0  0  0  0  0  0  0  0
   -5.3632    4.9802  -14.6259 O   0  0  0  0  0  0  0  0  0  0  0  0
   -4.7407    6.2582  -14.6885 C   0  0  0  0  0  0  0  0  0  0  0  0
   -4.2146    6.6332  -13.3166 C   0  0  0  0  0  0  0  0  0  0  0  0
   -4.2968    6.0033  -12.2754 O   0  0  0  0  0  0  0  0  0  0  0  0
   -3.6070    7.8426  -13.3186 O   0  0  0  0  0  0  0  0  0  0  0  0
   -8.9716    2.0054   -8.4897 C   0  0  0  0  0  0  0  0  0  0  0  0
   -9.4346    2.5112   -7.1689 N   0  0  0  0  0  0  0  0  0  0  0  0
   -8.8404    3.8563   -7.0269 C   0  0  0  0  0  0  0  0  0  0  0  0
  1  2  1  0
  2  3  2  0
  3  4  1  0
  4  5  2  0
  5  6  1  0
  6  7  2  0
  7  8  1  0
  9  8  1  1
  9 10  1  0
 10 11  2  0
 10 12  1  0
 12 13  1  0
 13 14  1  0
 14 15  1  0
 14 16  1  0
  9 17  1  0
 17 18  2  0
 18 19  1  0
 19 20  1  0
 19 21  2  0
 21 22  1  0
 22 23  1  0
 23 24  2  0
 23 25  1  0
 25 26  1  0
 26 27  1  0
 26 28  1  0
 26 29  1  0
 29 30  1  0
 22 31  2  0
 31 32  1  0
 32 33  1  0
 33 34  1  0
 34 35  2  0
 34 36  1  0
  5 37  1  0
 37 38  1  0
 38 39  1  0
  7  2  1  0
 31 17  1  0
 39  4  1  0
M  END
>  <smiles>  (1833) 
C26572-P218

>  <fragmenstein_outcome>  (1833) 
acceptable

>  <inchikey>  (1833) 
ZZOMRAQXMMWOLN-UHFFFAOYSA-N

>  <fragmenstein_mode>  (1833) 
expansion

>  <HIPPO Pose ID>  (1833) 
23559

>  <Energy>  (1833) 
172.917032

>  <fragmenstein_error>  (1833) 


>  <tags>  (1833) 
{'openbind_xx01zvns2b_c1_fragmenstein', 'fragmenstein_placed'}

>  <ref_pdb>  (1833) 
175

>  <scratch_subdir>  (1833) 
/opt/xchem-fragalysis-2/maxwin/BulkDock/SCRATCH/511028/C26572-P218

>  <alias>  (1833) 
Cc1cc2c(cc1N[C@H](C(=O)NCC(F)F)c1cc(Cl)cc(C(=O)NC(C)(C)CO)c1OCC(=O)O)CNC2

>  <HIPPO Compound ID>  (1833) 
26572

>  <fragmenstein_runtime>  (1833) 
6.192865

$$$$
NN1Cc2ccc(N[C@@H](C(=O)NCC(F)F)c3cc(Cl)cc(NC(=O)OCc4ccccc4)c3OCC(=O)O)cc2C1
     RDKit          3D

 42 45  0  0  0  0  0  0  0  0999 V2000
   -8.5807    2.9307   -5.6689 N   0  0  0  0  0  0  0  0  0  0  0  0
   -9.1380    3.5415   -6.8582 N   0  0  0  0  0  0  0  0  0  0  0  0
   -8.3639    4.7641   -7.1990 C   0  0  0  0  0  0  0  0  0  0  0  0
   -8.3385    4.8024   -8.6919 C   0  0  0  0  0  0  0  0  0  0  0  0
   -8.0128    5.8488   -9.5338 C   0  0  0  0  0  0  0  0  0  0  0  0
   -8.1033    5.6342  -10.9104 C   0  0  0  0  0  0  0  0  0  0  0  0
   -8.4938    4.3836  -11.4320 C   0  0  0  0  0  0  0  0  0  0  0  0
   -8.5752    4.1946  -12.8342 N   0  0  0  0  0  0  0  0  0  0  0  0
   -7.2335    4.1744  -13.4725 C   0  0  1  0  0  0  0  0  0  0  0  0
   -6.5122    2.8028  -13.1227 C   0  0  0  0  0  0  0  0  0  0  0  0
   -7.1002    1.7762  -13.3264 O   0  0  0  0  0  0  0  0  0  0  0  0
   -5.2307    3.0456  -12.5137 N   0  0  0  0  0  0  0  0  0  0  0  0
   -4.2149    2.1301  -12.0459 C   0  0  0  0  0  0  0  0  0  0  0  0
   -3.0518    1.9486  -13.0140 C   0  0  0  0  0  0  0  0  0  0  0  0
   -3.4781    1.5883  -14.2497 F   0  0  0  0  0  0  0  0  0  0  0  0
   -2.3787    3.1210  -13.1661 F   0  0  0  0  0  0  0  0  0  0  0  0
   -7.3356    4.4042  -14.9810 C   0  0  0  0  0  0  0  0  0  0  0  0
   -8.5385    4.2263  -15.6886 C   0  0  0  0  0  0  0  0  0  0  0  0
   -8.5809    4.3515  -17.0788 C   0  0  0  0  0  0  0  0  0  0  0  0
  -10.0617    4.0898  -17.9181 Cl  0  0  0  0  0  0  0  0  0  0  0  0
   -7.4316    4.6543  -17.8023 C   0  0  0  0  0  0  0  0  0  0  0  0
   -6.2262    4.8461  -17.1303 C   0  0  0  0  0  0  0  0  0  0  0  0
   -5.0321    5.0561  -17.8233 N   0  0  0  0  0  0  0  0  0  0  0  0
   -4.7497    5.0567  -19.2095 C   0  0  0  0  0  0  0  0  0  0  0  0
   -5.4412    4.8011  -20.1478 O   0  0  0  0  0  0  0  0  0  0  0  0
   -3.4428    5.4285  -19.3188 O   0  0  0  0  0  0  0  0  0  0  0  0
   -2.9420    5.5414  -20.6585 C   0  0  0  0  0  0  0  0  0  0  0  0
   -3.1400    6.9503  -21.1622 C   0  0  0  0  0  0  0  0  0  0  0  0
   -4.2888    7.2888  -21.8928 C   0  0  0  0  0  0  0  0  0  0  0  0
   -4.4838    8.5946  -22.3448 C   0  0  0  0  0  0  0  0  0  0  0  0
   -3.5360    9.5769  -22.0650 C   0  0  0  0  0  0  0  0  0  0  0  0
   -2.3963    9.2554  -21.3287 C   0  0  0  0  0  0  0  0  0  0  0  0
   -2.2002    7.9494  -20.8754 C   0  0  0  0  0  0  0  0  0  0  0  0
   -6.1965    4.7727  -15.7227 C   0  0  0  0  0  0  0  0  0  0  0  0
   -5.0127    4.9792  -15.0546 O   0  0  0  0  0  0  0  0  0  0  0  0
   -4.7520    6.3754  -14.8655 C   0  0  0  0  0  0  0  0  0  0  0  0
   -4.2965    6.6057  -13.4378 C   0  0  0  0  0  0  0  0  0  0  0  0
   -4.3339    5.8063  -12.5146 O   0  0  0  0  0  0  0  0  0  0  0  0
   -3.8452    7.8612  -13.2364 O   0  0  0  0  0  0  0  0  0  0  0  0
   -8.7863    3.3285  -10.5563 C   0  0  0  0  0  0  0  0  0  0  0  0
   -8.7233    3.5608   -9.1925 C   0  0  0  0  0  0  0  0  0  0  0  0
   -9.0471    2.6400   -8.0550 C   0  0  0  0  0  0  0  0  0  0  0  0
  1  2  1  0
  2  3  1  0
  3  4  1  0
  4  5  2  0
  5  6  1  0
  6  7  2  0
  7  8  1  0
  9  8  1  6
  9 10  1  0
 10 11  2  0
 10 12  1  0
 12 13  1  0
 13 14  1  0
 14 15  1  0
 14 16  1  0
  9 17  1  0
 17 18  2  0
 18 19  1  0
 19 20  1  0
 19 21  2  0
 21 22  1  0
 22 23  1  0
 23 24  1  0
 24 25  2  0
 24 26  1  0
 26 27  1  0
 27 28  1  0
 28 29  2  0
 29 30  1  0
 30 31  2  0
 31 32  1  0
 32 33  2  0
 22 34  2  0
 34 35  1  0
 35 36  1  0
 36 37  1  0
 37 38  2  0
 37 39  1  0
  7 40  1  0
 40 41  2  0
 41 42  1  0
 42  2  1  0
 41  4  1  0
 34 17  1  0
 33 28  1  0
M  END
>  <smiles>  (1834) 
C26577-P218

>  <fragmenstein_outcome>  (1834) 
acceptable

>  <inchikey>  (1834) 
VZCHGNWLMKPORK-UHFFFAOYSA-N

>  <fragmenstein_mode>  (1834) 
expansion

>  <HIPPO Pose ID>  (1834) 
23563

>  <Energy>  (1834) 
157.41963

>  <fragmenstein_error>  (1834) 


>  <tags>  (1834) 
{'openbind_xx01zvns2b_c1_fragmenstein', 'fragmenstein_placed'}

>  <ref_pdb>  (1834) 
175

>  <scratch_subdir>  (1834) 
/opt/xchem-fragalysis-2/maxwin/BulkDock/SCRATCH/511028/C26577-P218

>  <alias>  (1834) 
NN1Cc2ccc(N[C@@H](C(=O)NCC(F)F)c3cc(Cl)cc(NC(=O)OCc4ccccc4)c3OCC(=O)O)cc2C1

>  <HIPPO Compound ID>  (1834) 
26577

>  <fragmenstein_runtime>  (1834) 
13.786581

$$$$
CC(C)c1nc2c(Cl)cc([C@@H](Nc3ccc4c(c3)[C@@H](N)NC4)C(=O)NCC(F)F)c(OCC(=O)O)c2[nH]1
     RDKit          3D

 37 40  0  0  0  0  0  0  0  0999 V2000
   -4.6022    5.4223  -21.0230 C   0  0  0  0  0  0  0  0  0  0  0  0
   -4.6448    6.4237  -19.8746 C   0  0  0  0  0  0  0  0  0  0  0  0
   -5.0389    7.8079  -20.3735 C   0  0  0  0  0  0  0  0  0  0  0  0
   -5.5487    5.9651  -18.7689 C   0  0  0  0  0  0  0  0  0  0  0  0
   -6.7831    5.5132  -18.8448 N   0  0  0  0  0  0  0  0  0  0  0  0
   -7.1522    5.1341  -17.5695 C   0  0  0  0  0  0  0  0  0  0  0  0
   -8.3079    4.5352  -17.0343 C   0  0  0  0  0  0  0  0  0  0  0  0
   -9.5812    4.1593  -18.1134 Cl  0  0  0  0  0  0  0  0  0  0  0  0
   -8.3919    4.2526  -15.6628 C   0  0  0  0  0  0  0  0  0  0  0  0
   -7.3334    4.5677  -14.7928 C   0  0  0  0  0  0  0  0  0  0  0  0
   -7.3445    4.1959  -13.3150 C   0  0  1  0  0  0  0  0  0  0  0  0
   -8.7050    4.1915  -12.7496 N   0  0  0  0  0  0  0  0  0  0  0  0
   -8.6407    4.3635  -11.3417 C   0  0  0  0  0  0  0  0  0  0  0  0
   -8.2671    5.6124  -10.7944 C   0  0  0  0  0  0  0  0  0  0  0  0
   -8.1771    5.8091   -9.4139 C   0  0  0  0  0  0  0  0  0  0  0  0
   -8.4916    4.7473   -8.5915 C   0  0  0  0  0  0  0  0  0  0  0  0
   -8.8644    3.5152   -9.1234 C   0  0  0  0  0  0  0  0  0  0  0  0
   -8.9186    3.2952  -10.4900 C   0  0  0  0  0  0  0  0  0  0  0  0
   -9.2995    2.6237   -8.0159 C   0  0  1  0  0  0  0  0  0  0  0  0
   -8.6204    1.3945   -7.9647 N   0  0  0  0  0  0  0  0  0  0  0  0
   -8.8938    3.2954   -6.7912 N   0  0  0  0  0  0  0  0  0  0  0  0
   -8.6177    4.6943   -7.1045 C   0  0  0  0  0  0  0  0  0  0  0  0
   -6.6079    2.8274  -13.0645 C   0  0  0  0  0  0  0  0  0  0  0  0
   -7.0983    1.7875  -13.2789 O   0  0  0  0  0  0  0  0  0  0  0  0
   -5.1700    3.1847  -12.5859 N   0  0  0  0  0  0  0  0  0  0  0  0
   -4.0198    2.3423  -12.3667 C   0  0  0  0  0  0  0  0  0  0  0  0
   -3.0302    2.4782  -13.5145 C   0  0  0  0  0  0  0  0  0  0  0  0
   -3.3927    1.7160  -14.5720 F   0  0  0  0  0  0  0  0  0  0  0  0
   -1.7995    2.0659  -13.1296 F   0  0  0  0  0  0  0  0  0  0  0  0
   -6.1946    5.2106  -15.3161 C   0  0  0  0  0  0  0  0  0  0  0  0
   -5.1359    5.5335  -14.5040 O   0  0  0  0  0  0  0  0  0  0  0  0
   -5.2141    6.9091  -14.1102 C   0  0  0  0  0  0  0  0  0  0  0  0
   -4.5000    7.1227  -12.7886 C   0  0  0  0  0  0  0  0  0  0  0  0
   -4.0709    8.1887  -12.3768 O   0  0  0  0  0  0  0  0  0  0  0  0
   -4.4064    6.0093  -12.0280 O   0  0  0  0  0  0  0  0  0  0  0  0
   -6.1246    5.4457  -16.6868 C   0  0  0  0  0  0  0  0  0  0  0  0
   -5.1236    5.9524  -17.4689 N   0  0  0  0  0  0  0  0  0  0  0  0
  1  2  1  0
  2  3  1  0
  2  4  1  0
  4  5  2  0
  5  6  1  0
  6  7  2  0
  7  8  1  0
  7  9  1  0
  9 10  2  0
 10 11  1  0
 11 12  1  6
 12 13  1  0
 13 14  2  0
 14 15  1  0
 15 16  2  0
 16 17  1  0
 17 18  2  0
 17 19  1  0
 19 20  1  6
 19 21  1  0
 21 22  1  0
 11 23  1  0
 23 24  2  0
 23 25  1  0
 25 26  1  0
 26 27  1  0
 27 28  1  0
 27 29  1  0
 10 30  1  0
 30 31  1  0
 31 32  1  0
 32 33  1  0
 33 34  2  0
 33 35  1  0
 30 36  2  0
 36 37  1  0
 37  4  1  0
 36  6  1  0
 18 13  1  0
 22 16  1  0
M  END
>  <smiles>  (1835) 
C26581-P218

>  <fragmenstein_outcome>  (1835) 
acceptable

>  <inchikey>  (1835) 
ZOJAMMURIGQRCL-UHFFFAOYSA-N

>  <fragmenstein_mode>  (1835) 
expansion

>  <HIPPO Pose ID>  (1835) 
23566

>  <Energy>  (1835) 
73.106538

>  <fragmenstein_error>  (1835) 


>  <tags>  (1835) 
{'openbind_xx01zvns2b_c1_fragmenstein', 'fragmenstein_placed'}

>  <ref_pdb>  (1835) 
175

>  <scratch_subdir>  (1835) 
/opt/xchem-fragalysis-2/maxwin/BulkDock/SCRATCH/511028/C26581-P218

>  <alias>  (1835) 
CC(C)c1nc2c(Cl)cc([C@@H](Nc3ccc4c(c3)[C@@H](N)NC4)C(=O)NCC(F)F)c(OCC(=O)O)c2[nH]1

>  <HIPPO Compound ID>  (1835) 
26581

>  <fragmenstein_runtime>  (1835) 
5.396765

$$$$
NCc1cc(Cl)cc([C@H](N[C@H]2CC3=C(CNC3)C3(C2)NNNN3)C(=O)NCC(F)F)c1OCC(=O)O
     RDKit          3D

 36 39  0  0  0  0  0  0  0  0999 V2000
   -5.2230    5.1815  -19.1681 N   0  0  0  0  0  0  0  0  0  0  0  0
   -5.3186    5.5316  -17.7563 C   0  0  0  0  0  0  0  0  0  0  0  0
   -6.5695    5.0564  -17.0492 C   0  0  0  0  0  0  0  0  0  0  0  0
   -7.7444    4.8041  -17.7724 C   0  0  0  0  0  0  0  0  0  0  0  0
   -8.8826    4.3502  -17.1248 C   0  0  0  0  0  0  0  0  0  0  0  0
  -10.3142    4.0653  -18.0306 Cl  0  0  0  0  0  0  0  0  0  0  0  0
   -8.8624    4.0995  -15.7570 C   0  0  0  0  0  0  0  0  0  0  0  0
   -7.6963    4.2803  -14.9920 C   0  0  0  0  0  0  0  0  0  0  0  0
   -7.7225    3.7799  -13.5393 C   0  0  2  0  0  0  0  0  0  0  0  0
   -7.6760    4.8989  -12.5811 N   0  0  0  0  0  0  0  0  0  0  0  0
   -8.1637    4.6334  -11.2014 C   0  0  1  0  0  0  0  0  0  0  0  0
   -8.3152    3.1745  -10.6892 C   0  0  0  0  0  0  0  0  0  0  0  0
   -8.5580    3.1536   -9.2197 C   0  0  0  0  0  0  0  0  0  0  0  0
   -8.3046    4.1672   -8.3847 C   0  0  0  0  0  0  0  0  0  0  0  0
   -8.6924    3.7765   -7.0024 C   0  0  0  0  0  0  0  0  0  0  0  0
   -9.3346    2.4597   -7.1214 N   0  0  0  0  0  0  0  0  0  0  0  0
   -9.0670    1.9690   -8.4866 C   0  0  0  0  0  0  0  0  0  0  0  0
   -7.6844    5.4722   -8.7845 C   0  0  0  0  0  0  0  0  0  0  0  0
   -7.2178    5.4153  -10.2694 C   0  0  0  0  0  0  0  0  0  0  0  0
   -8.6007    6.6043   -8.5902 N   0  0  0  0  0  0  0  0  0  0  0  0
   -7.7756    7.7346   -8.2213 N   0  0  0  0  0  0  0  0  0  0  0  0
   -6.4513    7.2669   -8.0620 N   0  0  0  0  0  0  0  0  0  0  0  0
   -6.5249    5.8376   -7.9515 N   0  0  0  0  0  0  0  0  0  0  0  0
   -6.5954    2.7195  -13.2424 C   0  0  0  0  0  0  0  0  0  0  0  0
   -6.7445    1.5706  -13.3903 O   0  0  0  0  0  0  0  0  0  0  0  0
   -5.3470    3.5196  -12.8001 N   0  0  0  0  0  0  0  0  0  0  0  0
   -4.0566    3.0670  -12.3587 C   0  0  0  0  0  0  0  0  0  0  0  0
   -3.3989    2.0811  -13.3148 C   0  0  0  0  0  0  0  0  0  0  0  0
   -3.4498    2.5344  -14.5956 F   0  0  0  0  0  0  0  0  0  0  0  0
   -2.0753    1.9937  -13.0141 F   0  0  0  0  0  0  0  0  0  0  0  0
   -6.5917    4.8719  -15.6401 C   0  0  0  0  0  0  0  0  0  0  0  0
   -5.5108    5.2519  -14.8842 O   0  0  0  0  0  0  0  0  0  0  0  0
   -5.3829    6.6704  -14.7927 C   0  0  0  0  0  0  0  0  0  0  0  0
   -5.5262    7.1976  -13.3783 C   0  0  0  0  0  0  0  0  0  0  0  0
   -6.1759    8.1805  -13.0514 O   0  0  0  0  0  0  0  0  0  0  0  0
   -4.8157    6.5062  -12.4641 O   0  0  0  0  0  0  0  0  0  0  0  0
  1  2  1  0
  2  3  1  0
  3  4  2  0
  4  5  1  0
  5  6  1  0
  5  7  2  0
  7  8  1  0
  8  9  1  0
  9 10  1  1
 11 10  1  6
 11 12  1  0
 12 13  1  0
 13 14  2  0
 14 15  1  0
 15 16  1  0
 16 17  1  0
 14 18  1  0
 18 19  1  0
 18 20  1  0
 20 21  1  0
 21 22  1  0
 22 23  1  0
  9 24  1  0
 24 25  2  0
 24 26  1  0
 26 27  1  0
 27 28  1  0
 28 29  1  0
 28 30  1  0
  8 31  2  0
 31 32  1  0
 32 33  1  0
 33 34  1  0
 34 35  2  0
 34 36  1  0
 31  3  1  0
 19 11  1  0
 17 13  1  0
 23 18  1  0
M  END
>  <smiles>  (1836) 
C26582-P218

>  <fragmenstein_outcome>  (1836) 
acceptable

>  <inchikey>  (1836) 
YTOCORQZOCPBGW-UHFFFAOYSA-N

>  <fragmenstein_mode>  (1836) 
expansion

>  <HIPPO Pose ID>  (1836) 
23567

>  <Energy>  (1836) 
116.934139

>  <fragmenstein_error>  (1836) 


>  <tags>  (1836) 
{'openbind_xx01zvns2b_c1_fragmenstein', 'fragmenstein_placed'}

>  <ref_pdb>  (1836) 
175

>  <scratch_subdir>  (1836) 
/opt/xchem-fragalysis-2/maxwin/BulkDock/SCRATCH/511028/C26582-P218

>  <alias>  (1836) 
NCc1cc(Cl)cc([C@H](N[C@H]2CC3=C(CNC3)C3(C2)NNNN3)C(=O)NCC(F)F)c1OCC(=O)O

>  <HIPPO Compound ID>  (1836) 
26582

>  <fragmenstein_runtime>  (1836) 
11.79632

$$$$
NCc1cc(Cl)cc([C@@H](N[C@H]2CC3=C(CNC3)C3(C2)NNNN3)C(=O)NCC(F)F)c1OCC(=O)O
     RDKit          3D

 36 39  0  0  0  0  0  0  0  0999 V2000
   -4.9855    5.4004  -19.0331 N   0  0  0  0  0  0  0  0  0  0  0  0
   -4.8759    5.5748  -17.5810 C   0  0  0  0  0  0  0  0  0  0  0  0
   -6.0808    5.1378  -16.7806 C   0  0  0  0  0  0  0  0  0  0  0  0
   -7.2594    4.7454  -17.4215 C   0  0  0  0  0  0  0  0  0  0  0  0
   -8.3556    4.3313  -16.6851 C   0  0  0  0  0  0  0  0  0  0  0  0
   -9.7876    3.9510  -17.5568 Cl  0  0  0  0  0  0  0  0  0  0  0  0
   -8.2917    4.2620  -15.2912 C   0  0  0  0  0  0  0  0  0  0  0  0
   -7.1193    4.6100  -14.5836 C   0  0  0  0  0  0  0  0  0  0  0  0
   -7.0201    4.5057  -13.0422 C   0  0  1  0  0  0  0  0  0  0  0  0
   -8.3749    4.4029  -12.4202 N   0  0  0  0  0  0  0  0  0  0  0  0
   -8.4270    4.4673  -10.9331 C   0  0  1  0  0  0  0  0  0  0  0  0
   -8.7466    3.0855  -10.2812 C   0  0  0  0  0  0  0  0  0  0  0  0
   -8.7908    3.1799   -8.8030 C   0  0  0  0  0  0  0  0  0  0  0  0
   -8.3575    4.2223   -8.0902 C   0  0  0  0  0  0  0  0  0  0  0  0
   -8.6007    3.9613   -6.6480 C   0  0  0  0  0  0  0  0  0  0  0  0
   -9.3539    2.6984   -6.5918 N   0  0  0  0  0  0  0  0  0  0  0  0
   -9.2302    2.0739   -7.9221 C   0  0  0  0  0  0  0  0  0  0  0  0
   -7.6546    5.4174   -8.6685 C   0  0  0  0  0  0  0  0  0  0  0  0
   -7.2991    5.1903  -10.1686 C   0  0  0  0  0  0  0  0  0  0  0  0
   -8.4670    6.6410   -8.5151 N   0  0  0  0  0  0  0  0  0  0  0  0
   -7.5505    7.6317   -8.0297 N   0  0  0  0  0  0  0  0  0  0  0  0
   -6.6049    6.9317   -7.2506 N   0  0  0  0  0  0  0  0  0  0  0  0
   -6.3935    5.7140   -7.9688 N   0  0  0  0  0  0  0  0  0  0  0  0
   -6.1572    3.2985  -12.4840 C   0  0  0  0  0  0  0  0  0  0  0  0
   -6.6782    2.2995  -12.1828 O   0  0  0  0  0  0  0  0  0  0  0  0
   -4.6857    3.7395  -12.3453 N   0  0  0  0  0  0  0  0  0  0  0  0
   -3.5645    3.0800  -11.7198 C   0  0  0  0  0  0  0  0  0  0  0  0
   -2.5064    2.5610  -12.6761 C   0  0  0  0  0  0  0  0  0  0  0  0
   -2.9916    1.6656  -13.5604 F   0  0  0  0  0  0  0  0  0  0  0  0
   -1.9992    3.5929  -13.3966 F   0  0  0  0  0  0  0  0  0  0  0  0
   -6.0508    5.1118  -15.3605 C   0  0  0  0  0  0  0  0  0  0  0  0
   -4.9391    5.5895  -14.7100 O   0  0  0  0  0  0  0  0  0  0  0  0
   -5.0374    7.0060  -14.4968 C   0  0  0  0  0  0  0  0  0  0  0  0
   -4.5029    7.3387  -13.1200 C   0  0  0  0  0  0  0  0  0  0  0  0
   -4.0612    6.5491  -12.3002 O   0  0  0  0  0  0  0  0  0  0  0  0
   -4.5808    8.6542  -12.8343 O   0  0  0  0  0  0  0  0  0  0  0  0
  1  2  1  0
  2  3  1  0
  3  4  2  0
  4  5  1  0
  5  6  1  0
  5  7  2  0
  7  8  1  0
  8  9  1  0
  9 10  1  1
 11 10  1  6
 11 12  1  0
 12 13  1  0
 13 14  2  0
 14 15  1  0
 15 16  1  0
 16 17  1  0
 14 18  1  0
 18 19  1  0
 18 20  1  0
 20 21  1  0
 21 22  1  0
 22 23  1  0
  9 24  1  0
 24 25  2  0
 24 26  1  0
 26 27  1  0
 27 28  1  0
 28 29  1  0
 28 30  1  0
  8 31  2  0
 31 32  1  0
 32 33  1  0
 33 34  1  0
 34 35  2  0
 34 36  1  0
 31  3  1  0
 19 11  1  0
 17 13  1  0
 23 18  1  0
M  END
>  <smiles>  (1837) 
C26582-P270

>  <fragmenstein_outcome>  (1837) 
acceptable

>  <inchikey>  (1837) 
RFZWVEFXMGFGAF-UHFFFAOYSA-N

>  <fragmenstein_mode>  (1837) 
expansion

>  <HIPPO Pose ID>  (1837) 
23568

>  <Energy>  (1837) 
126.47869

>  <fragmenstein_error>  (1837) 


>  <tags>  (1837) 
{'openbind_xx01zvns2b_c1_fragmenstein', 'fragmenstein_placed'}

>  <ref_pdb>  (1837) 
175

>  <scratch_subdir>  (1837) 
/opt/xchem-fragalysis-2/maxwin/BulkDock/SCRATCH/511028/C26582-P270

>  <alias>  (1837) 
NCc1cc(Cl)cc([C@@H](N[C@H]2CC3=C(CNC3)C3(C2)NNNN3)C(=O)NCC(F)F)c1OCC(=O)O

>  <HIPPO Compound ID>  (1837) 
20112

>  <fragmenstein_runtime>  (1837) 
8.071075

$$$$
CC1(C)C(=O)Nc2c(Cl)cc([C@H](Nc3ccc4c(c3)CNC4)C(=O)NCC(F)F)c(OCC(=O)O)c21
     RDKit          3D

 36 39  0  0  0  0  0  0  0  0999 V2000
   -4.7081    7.4680  -16.9960 C   0  0  0  0  0  0  0  0  0  0  0  0
   -5.2010    6.1102  -17.4834 C   0  0  0  0  0  0  0  0  0  0  0  0
   -4.0190    5.1467  -17.6256 C   0  0  0  0  0  0  0  0  0  0  0  0
   -5.8419    6.2793  -18.8814 C   0  0  0  0  0  0  0  0  0  0  0  0
   -5.3589    6.8771  -19.8307 O   0  0  0  0  0  0  0  0  0  0  0  0
   -7.0617    5.6323  -18.8555 N   0  0  0  0  0  0  0  0  0  0  0  0
   -7.3684    5.1532  -17.5865 C   0  0  0  0  0  0  0  0  0  0  0  0
   -8.5147    4.4951  -17.1839 C   0  0  0  0  0  0  0  0  0  0  0  0
   -9.8103    4.1415  -18.2612 Cl  0  0  0  0  0  0  0  0  0  0  0  0
   -8.6037    4.1105  -15.8454 C   0  0  0  0  0  0  0  0  0  0  0  0
   -7.5688    4.3759  -14.9064 C   0  0  0  0  0  0  0  0  0  0  0  0
   -7.7367    3.7797  -13.4984 C   0  0  2  0  0  0  0  0  0  0  0  0
   -7.7803    4.8553  -12.4896 N   0  0  0  0  0  0  0  0  0  0  0  0
   -8.0804    4.5781  -11.1436 C   0  0  0  0  0  0  0  0  0  0  0  0
   -7.9963    5.6701  -10.2498 C   0  0  0  0  0  0  0  0  0  0  0  0
   -8.1897    5.5221   -8.8743 C   0  0  0  0  0  0  0  0  0  0  0  0
   -8.4989    4.2668   -8.3949 C   0  0  0  0  0  0  0  0  0  0  0  0
   -8.6224    3.1881   -9.2574 C   0  0  0  0  0  0  0  0  0  0  0  0
   -8.4151    3.3216  -10.6254 C   0  0  0  0  0  0  0  0  0  0  0  0
   -8.9625    1.9633   -8.4765 C   0  0  0  0  0  0  0  0  0  0  0  0
   -9.1769    2.4127   -7.0740 N   0  0  0  0  0  0  0  0  0  0  0  0
   -8.7485    3.8227   -6.9959 C   0  0  0  0  0  0  0  0  0  0  0  0
   -6.7343    2.6071  -13.1921 C   0  0  0  0  0  0  0  0  0  0  0  0
   -7.0386    1.5046  -13.4206 O   0  0  0  0  0  0  0  0  0  0  0  0
   -5.4331    3.1813  -12.5987 N   0  0  0  0  0  0  0  0  0  0  0  0
   -4.2673    2.5120  -12.0725 C   0  0  0  0  0  0  0  0  0  0  0  0
   -3.1726    2.2295  -13.0988 C   0  0  0  0  0  0  0  0  0  0  0  0
   -3.6684    1.8461  -14.2997 F   0  0  0  0  0  0  0  0  0  0  0  0
   -2.4479    3.3577  -13.3287 F   0  0  0  0  0  0  0  0  0  0  0  0
   -6.4549    5.1330  -15.3404 C   0  0  0  0  0  0  0  0  0  0  0  0
   -5.4826    5.5188  -14.4587 O   0  0  0  0  0  0  0  0  0  0  0  0
   -5.8101    6.7750  -13.8514 C   0  0  0  0  0  0  0  0  0  0  0  0
   -5.3528    6.9188  -12.4102 C   0  0  0  0  0  0  0  0  0  0  0  0
   -5.5673    7.8941  -11.7031 O   0  0  0  0  0  0  0  0  0  0  0  0
   -4.6594    5.8707  -11.9298 O   0  0  0  0  0  0  0  0  0  0  0  0
   -6.3333    5.4693  -16.6927 C   0  0  0  0  0  0  0  0  0  0  0  0
  1  2  1  0
  2  3  1  0
  2  4  1  0
  4  5  2  0
  4  6  1  0
  6  7  1  0
  7  8  2  0
  8  9  1  0
  8 10  1  0
 10 11  2  0
 11 12  1  0
 12 13  1  1
 13 14  1  0
 14 15  2  0
 15 16  1  0
 16 17  2  0
 17 18  1  0
 18 19  2  0
 18 20  1  0
 20 21  1  0
 21 22  1  0
 12 23  1  0
 23 24  2  0
 23 25  1  0
 25 26  1  0
 26 27  1  0
 27 28  1  0
 27 29  1  0
 11 30  1  0
 30 31  1  0
 31 32  1  0
 32 33  1  0
 33 34  2  0
 33 35  1  0
 30 36  2  0
 36  2  1  0
 36  7  1  0
 19 14  1  0
 22 17  1  0
M  END
>  <smiles>  (1838) 
C26596-P218

>  <fragmenstein_outcome>  (1838) 
acceptable

>  <inchikey>  (1838) 
GWDXZRXLJXWHAW-UHFFFAOYSA-N

>  <fragmenstein_mode>  (1838) 
expansion

>  <HIPPO Pose ID>  (1838) 
23572

>  <Energy>  (1838) 
149.326903

>  <fragmenstein_error>  (1838) 


>  <tags>  (1838) 
{'openbind_xx01zvns2b_c1_fragmenstein', 'fragmenstein_placed'}

>  <ref_pdb>  (1838) 
175

>  <scratch_subdir>  (1838) 
/opt/xchem-fragalysis-2/maxwin/BulkDock/SCRATCH/511028/C26596-P218

>  <alias>  (1838) 
CC1(C)C(=O)Nc2c(Cl)cc([C@H](Nc3ccc4c(c3)CNC4)C(=O)NCC(F)F)c(OCC(=O)O)c21

>  <HIPPO Compound ID>  (1838) 
43246

>  <fragmenstein_runtime>  (1838) 
5.213695

$$$$
Cc1ccc(C(F)(F)CNC(=O)[C@@H](Nc2ccc3c(c2)CNC3)c2cc(Cl)cc3[nH]nc(C(=O)O)c23)cc1
     RDKit          3D

 38 42  0  0  0  0  0  0  0  0999 V2000
    2.0121    0.2469  -11.3551 C   0  0  0  0  0  0  0  0  0  0  0  0
    0.6971    0.7905  -11.8249 C   0  0  0  0  0  0  0  0  0  0  0  0
   -0.4975    0.1507  -11.4844 C   0  0  0  0  0  0  0  0  0  0  0  0
   -1.7325    0.6561  -11.9016 C   0  0  0  0  0  0  0  0  0  0  0  0
   -1.7986    1.8341  -12.6527 C   0  0  0  0  0  0  0  0  0  0  0  0
   -3.1185    2.3961  -13.1573 C   0  0  0  0  0  0  0  0  0  0  0  0
   -3.6318    1.6348  -14.1668 F   0  0  0  0  0  0  0  0  0  0  0  0
   -2.9161    3.6220  -13.7327 F   0  0  0  0  0  0  0  0  0  0  0  0
   -4.1770    2.5793  -12.0410 C   0  0  0  0  0  0  0  0  0  0  0  0
   -5.4070    3.2131  -12.4886 N   0  0  0  0  0  0  0  0  0  0  0  0
   -6.6686    2.6056  -13.1422 C   0  0  0  0  0  0  0  0  0  0  0  0
   -6.8870    1.5151  -13.4934 O   0  0  0  0  0  0  0  0  0  0  0  0
   -7.6998    3.7782  -13.3881 C   0  0  1  0  0  0  0  0  0  0  0  0
   -7.6058    4.8288  -12.3702 N   0  0  0  0  0  0  0  0  0  0  0  0
   -8.0469    4.5893  -11.0584 C   0  0  0  0  0  0  0  0  0  0  0  0
   -7.9951    5.6809  -10.1627 C   0  0  0  0  0  0  0  0  0  0  0  0
   -8.2516    5.5344   -8.7958 C   0  0  0  0  0  0  0  0  0  0  0  0
   -8.5809    4.2797   -8.3282 C   0  0  0  0  0  0  0  0  0  0  0  0
   -8.6469    3.1933   -9.1902 C   0  0  0  0  0  0  0  0  0  0  0  0
   -8.3691    3.3245  -10.5429 C   0  0  0  0  0  0  0  0  0  0  0  0
   -8.9913    1.9677   -8.4072 C   0  0  0  0  0  0  0  0  0  0  0  0
   -9.4802    2.4754   -7.0970 N   0  0  0  0  0  0  0  0  0  0  0  0
   -8.8897    3.8204   -6.9430 C   0  0  0  0  0  0  0  0  0  0  0  0
   -7.5746    4.3753  -14.8061 C   0  0  0  0  0  0  0  0  0  0  0  0
   -8.6327    4.0801  -15.7097 C   0  0  0  0  0  0  0  0  0  0  0  0
   -8.5716    4.3571  -17.0728 C   0  0  0  0  0  0  0  0  0  0  0  0
   -9.9004    3.9467  -18.0877 Cl  0  0  0  0  0  0  0  0  0  0  0  0
   -7.4397    4.9312  -17.6293 C   0  0  0  0  0  0  0  0  0  0  0  0
   -6.4296    5.3043  -16.7401 C   0  0  0  0  0  0  0  0  0  0  0  0
   -5.2105    5.8670  -16.9914 N   0  0  0  0  0  0  0  0  0  0  0  0
   -4.5650    6.2787  -15.8965 N   0  0  0  0  0  0  0  0  0  0  0  0
   -5.3425    5.8527  -14.8795 C   0  0  0  0  0  0  0  0  0  0  0  0
   -5.0480    6.2916  -13.5211 C   0  0  0  0  0  0  0  0  0  0  0  0
   -4.0212    6.1005  -12.8833 O   0  0  0  0  0  0  0  0  0  0  0  0
   -6.0332    7.0469  -12.9675 O   0  0  0  0  0  0  0  0  0  0  0  0
   -6.4890    5.1228  -15.3539 C   0  0  0  0  0  0  0  0  0  0  0  0
   -0.5952    2.4882  -12.9693 C   0  0  0  0  0  0  0  0  0  0  0  0
    0.6378    1.9753  -12.5596 C   0  0  0  0  0  0  0  0  0  0  0  0
  1  2  1  0
  2  3  2  0
  3  4  1  0
  4  5  2  0
  5  6  1  0
  6  7  1  0
  6  8  1  0
  6  9  1  0
  9 10  1  0
 10 11  1  0
 11 12  2  0
 11 13  1  0
 13 14  1  1
 14 15  1  0
 15 16  2  0
 16 17  1  0
 17 18  2  0
 18 19  1  0
 19 20  2  0
 19 21  1  0
 21 22  1  0
 22 23  1  0
 13 24  1  0
 24 25  2  0
 25 26  1  0
 26 27  1  0
 26 28  2  0
 28 29  1  0
 29 30  1  0
 30 31  1  0
 31 32  2  0
 32 33  1  0
 33 34  2  0
 33 35  1  0
 32 36  1  0
  5 37  1  0
 37 38  2  0
 38  2  1  0
 20 15  1  0
 36 24  1  0
 23 18  1  0
 36 29  2  0
M  END
>  <smiles>  (1839) 
C26613-P218

>  <fragmenstein_outcome>  (1839) 
acceptable

>  <inchikey>  (1839) 
YQXCLBLVGYQSDI-UHFFFAOYSA-N

>  <fragmenstein_mode>  (1839) 
expansion

>  <HIPPO Pose ID>  (1839) 
23577

>  <Energy>  (1839) 
204.947813

>  <fragmenstein_error>  (1839) 


>  <tags>  (1839) 
{'openbind_xx01zvns2b_c1_fragmenstein', 'fragmenstein_placed'}

>  <ref_pdb>  (1839) 
175

>  <scratch_subdir>  (1839) 
/opt/xchem-fragalysis-2/maxwin/BulkDock/SCRATCH/511028/C26613-P218

>  <alias>  (1839) 
Cc1ccc(C(F)(F)CNC(=O)[C@@H](Nc2ccc3c(c2)CNC3)c2cc(Cl)cc3[nH]nc(C(=O)O)c23)cc1

>  <HIPPO Compound ID>  (1839) 
24613

>  <fragmenstein_runtime>  (1839) 
13.098831

$$$$
O=C(O)COc1c([C@@H](Nc2ccc3c(c2)CNC3)C(=O)NCC(F)F)cc(Cl)c2[nH]cc(C3CCNCC3)c12
     RDKit          3D

 39 43  0  0  0  0  0  0  0  0999 V2000
   -3.6059    7.9641  -12.8167 O   0  0  0  0  0  0  0  0  0  0  0  0
   -4.2413    6.9478  -13.0517 C   0  0  0  0  0  0  0  0  0  0  0  0
   -4.2064    5.9077  -12.1876 O   0  0  0  0  0  0  0  0  0  0  0  0
   -5.1690    6.7304  -14.2284 C   0  0  0  0  0  0  0  0  0  0  0  0
   -5.1032    5.3590  -14.6298 O   0  0  0  0  0  0  0  0  0  0  0  0
   -6.1889    5.0456  -15.4201 C   0  0  0  0  0  0  0  0  0  0  0  0
   -7.3271    4.4908  -14.7882 C   0  0  0  0  0  0  0  0  0  0  0  0
   -7.2762    4.1392  -13.2995 C   0  0  1  0  0  0  0  0  0  0  0  0
   -8.6308    4.1301  -12.6945 N   0  0  0  0  0  0  0  0  0  0  0  0
   -8.5819    4.1346  -11.2766 C   0  0  0  0  0  0  0  0  0  0  0  0
   -8.2546    5.3099  -10.5734 C   0  0  0  0  0  0  0  0  0  0  0  0
   -8.2124    5.3286   -9.1737 C   0  0  0  0  0  0  0  0  0  0  0  0
   -8.5008    4.1591   -8.4932 C   0  0  0  0  0  0  0  0  0  0  0  0
   -8.7956    2.9911   -9.1802 C   0  0  0  0  0  0  0  0  0  0  0  0
   -8.8287    2.9572  -10.5626 C   0  0  0  0  0  0  0  0  0  0  0  0
   -9.0370    1.8852   -8.2144 C   0  0  0  0  0  0  0  0  0  0  0  0
   -9.0996    2.5248   -6.8745 N   0  0  0  0  0  0  0  0  0  0  0  0
   -8.5799    3.8994   -7.0278 C   0  0  0  0  0  0  0  0  0  0  0  0
   -6.5755    2.7422  -13.0788 C   0  0  0  0  0  0  0  0  0  0  0  0
   -7.1315    1.7283  -13.2571 O   0  0  0  0  0  0  0  0  0  0  0  0
   -5.1194    3.0235  -12.6139 N   0  0  0  0  0  0  0  0  0  0  0  0
   -4.0832    2.1187  -12.1836 C   0  0  0  0  0  0  0  0  0  0  0  0
   -2.9536    1.9947  -13.1946 C   0  0  0  0  0  0  0  0  0  0  0  0
   -3.4241    1.7596  -14.4436 F   0  0  0  0  0  0  0  0  0  0  0  0
   -2.2648    3.1669  -13.2544 F   0  0  0  0  0  0  0  0  0  0  0  0
   -8.4513    4.2164  -15.5795 C   0  0  0  0  0  0  0  0  0  0  0  0
   -8.4484    4.4233  -16.9617 C   0  0  0  0  0  0  0  0  0  0  0  0
   -9.8416    4.0442  -17.8972 Cl  0  0  0  0  0  0  0  0  0  0  0  0
   -7.2842    4.9103  -17.5625 C   0  0  0  0  0  0  0  0  0  0  0  0
   -7.0157    5.1733  -18.8846 N   0  0  0  0  0  0  0  0  0  0  0  0
   -5.7258    5.5997  -19.0232 C   0  0  0  0  0  0  0  0  0  0  0  0
   -5.1304    5.6450  -17.7773 C   0  0  0  0  0  0  0  0  0  0  0  0
   -3.6974    6.0438  -17.5167 C   0  0  0  0  0  0  0  0  0  0  0  0
   -2.6876    5.1460  -18.2558 C   0  0  0  0  0  0  0  0  0  0  0  0
   -2.1413    5.8052  -19.5189 C   0  0  0  0  0  0  0  0  0  0  0  0
   -1.4756    7.0878  -19.2644 N   0  0  0  0  0  0  0  0  0  0  0  0
   -1.9748    7.7954  -18.0862 C   0  0  0  0  0  0  0  0  0  0  0  0
   -3.4542    7.5328  -17.8268 C   0  0  0  0  0  0  0  0  0  0  0  0
   -6.1331    5.2202  -16.8296 C   0  0  0  0  0  0  0  0  0  0  0  0
  1  2  2  0
  2  3  1  0
  2  4  1  0
  4  5  1  0
  5  6  1  0
  6  7  2  0
  7  8  1  0
  8  9  1  6
  9 10  1  0
 10 11  2  0
 11 12  1  0
 12 13  2  0
 13 14  1  0
 14 15  2  0
 14 16  1  0
 16 17  1  0
 17 18  1  0
  8 19  1  0
 19 20  2  0
 19 21  1  0
 21 22  1  0
 22 23  1  0
 23 24  1  0
 23 25  1  0
  7 26  1  0
 26 27  2  0
 27 28  1  0
 27 29  1  0
 29 30  1  0
 30 31  1  0
 31 32  2  0
 32 33  1  0
 33 34  1  0
 34 35  1  0
 35 36  1  0
 36 37  1  0
 37 38  1  0
 32 39  1  0
 39  6  1  0
 15 10  1  0
 39 29  2  0
 18 13  1  0
 38 33  1  0
M  END
>  <smiles>  (1840) 
C26624-P218

>  <fragmenstein_outcome>  (1840) 
acceptable

>  <inchikey>  (1840) 
WGDPKPTZIYBSEP-UHFFFAOYSA-N

>  <fragmenstein_mode>  (1840) 
expansion

>  <HIPPO Pose ID>  (1840) 
23583

>  <Energy>  (1840) 
136.339544

>  <fragmenstein_error>  (1840) 


>  <tags>  (1840) 
{'openbind_xx01zvns2b_c1_fragmenstein', 'fragmenstein_placed'}

>  <ref_pdb>  (1840) 
175

>  <scratch_subdir>  (1840) 
/opt/xchem-fragalysis-2/maxwin/BulkDock/SCRATCH/511028/C26624-P218

>  <alias>  (1840) 
O=C(O)COc1c([C@@H](Nc2ccc3c(c2)CNC3)C(=O)NCC(F)F)cc(Cl)c2[nH]cc(C3CCNCC3)c12

>  <HIPPO Compound ID>  (1840) 
26624

>  <fragmenstein_runtime>  (1840) 
10.516406

$$$$
CC(C)c1nnc([C@@H]2NCC3=C(N2)[C@H]([C@@H](Nc2ccc4c(c2)CNC4)C(=O)NCC(F)F)C[C@H](Cl)C3)s1
     RDKit          3D

 37 41  0  0  0  0  0  0  0  0999 V2000
   -2.3714   11.8284  -17.5505 C   0  0  0  0  0  0  0  0  0  0  0  0
   -2.9981   11.6984  -16.1624 C   0  0  0  0  0  0  0  0  0  0  0  0
   -1.9959   12.0576  -15.0657 C   0  0  0  0  0  0  0  0  0  0  0  0
   -3.6137   10.3415  -15.9450 C   0  0  0  0  0  0  0  0  0  0  0  0
   -4.9009   10.1487  -15.7391 N   0  0  0  0  0  0  0  0  0  0  0  0
   -5.2130    8.8186  -15.5557 N   0  0  0  0  0  0  0  0  0  0  0  0
   -4.1557    8.0342  -15.6468 C   0  0  0  0  0  0  0  0  0  0  0  0
   -4.1590    6.5098  -15.4943 C   0  0  2  0  0  0  0  0  0  0  0  0
   -3.8832    5.8445  -16.7705 N   0  0  0  0  0  0  0  0  0  0  0  0
   -5.1069    5.7387  -17.5600 C   0  0  0  0  0  0  0  0  0  0  0  0
   -6.3235    5.3162  -16.7763 C   0  0  0  0  0  0  0  0  0  0  0  0
   -6.3741    5.4197  -15.4326 C   0  0  0  0  0  0  0  0  0  0  0  0
   -5.3121    5.9962  -14.7463 N   0  0  0  0  0  0  0  0  0  0  0  0
   -7.6150    5.0214  -14.6443 C   0  0  2  0  0  0  0  0  0  0  0  0
   -7.3510    4.4983  -13.1981 C   0  0  1  0  0  0  0  0  0  0  0  0
   -8.6394    4.5780  -12.4565 N   0  0  0  0  0  0  0  0  0  0  0  0
   -8.5218    4.4505  -11.0629 C   0  0  0  0  0  0  0  0  0  0  0  0
   -8.1896    5.5657  -10.2691 C   0  0  0  0  0  0  0  0  0  0  0  0
   -8.1478    5.4681   -8.8772 C   0  0  0  0  0  0  0  0  0  0  0  0
   -8.4504    4.2477   -8.3028 C   0  0  0  0  0  0  0  0  0  0  0  0
   -8.7338    3.1355   -9.0852 C   0  0  0  0  0  0  0  0  0  0  0  0
   -8.7461    3.2101  -10.4651 C   0  0  0  0  0  0  0  0  0  0  0  0
   -9.0148    1.9643   -8.2117 C   0  0  0  0  0  0  0  0  0  0  0  0
   -9.1047    2.5051   -6.8275 N   0  0  0  0  0  0  0  0  0  0  0  0
   -8.5674    3.8804   -6.8646 C   0  0  0  0  0  0  0  0  0  0  0  0
   -6.7361    3.0419  -13.1068 C   0  0  0  0  0  0  0  0  0  0  0  0
   -7.3270    2.0923  -13.4436 O   0  0  0  0  0  0  0  0  0  0  0  0
   -5.3446    3.1725  -12.4252 N   0  0  0  0  0  0  0  0  0  0  0  0
   -4.3573    2.1650  -12.1065 C   0  0  0  0  0  0  0  0  0  0  0  0
   -3.2014    2.0738  -13.0950 C   0  0  0  0  0  0  0  0  0  0  0  0
   -3.6292    1.9360  -14.3723 F   0  0  0  0  0  0  0  0  0  0  0  0
   -2.4657    3.2188  -13.0568 F   0  0  0  0  0  0  0  0  0  0  0  0
   -8.5645    4.1043  -15.4403 C   0  0  0  0  0  0  0  0  0  0  0  0
   -8.7839    4.6346  -16.8420 C   0  0  2  0  0  0  0  0  0  0  0  0
   -9.9319    3.6703  -17.8069 Cl  0  0  0  0  0  0  0  0  0  0  0  0
   -7.4800    4.8244  -17.6141 C   0  0  0  0  0  0  0  0  0  0  0  0
   -2.6888    8.8890  -15.9458 S   0  0  0  0  0  0  0  0  0  0  0  0
  1  2  1  0
  2  3  1  0
  2  4  1  0
  4  5  2  0
  5  6  1  0
  6  7  2  0
  8  7  1  6
  8  9  1  0
  9 10  1  0
 10 11  1  0
 11 12  2  0
 12 13  1  0
 12 14  1  0
 14 15  1  0
 15 16  1  1
 16 17  1  0
 17 18  2  0
 18 19  1  0
 19 20  2  0
 20 21  1  0
 21 22  2  0
 21 23  1  0
 23 24  1  0
 24 25  1  0
 15 26  1  0
 26 27  2  0
 26 28  1  0
 28 29  1  0
 29 30  1  0
 30 31  1  0
 30 32  1  0
 14 33  1  6
 33 34  1  0
 34 35  1  6
 34 36  1  0
  7 37  1  0
 37  4  1  0
 13  8  1  0
 22 17  1  0
 36 11  1  0
 25 20  1  0
M  END
>  <smiles>  (1841) 
C26633-P218

>  <fragmenstein_outcome>  (1841) 
acceptable

>  <inchikey>  (1841) 
CVJXMDKNANHJFY-UHFFFAOYSA-N

>  <fragmenstein_mode>  (1841) 
expansion

>  <HIPPO Pose ID>  (1841) 
23589

>  <Energy>  (1841) 
96.596602

>  <fragmenstein_error>  (1841) 


>  <tags>  (1841) 
{'openbind_xx01zvns2b_c1_fragmenstein', 'fragmenstein_placed'}

>  <ref_pdb>  (1841) 
175

>  <scratch_subdir>  (1841) 
/opt/xchem-fragalysis-2/maxwin/BulkDock/SCRATCH/511028/C26633-P218

>  <alias>  (1841) 
CC(C)c1nnc([C@@H]2NCC3=C(N2)[C@H]([C@@H](Nc2ccc4c(c2)CNC4)C(=O)NCC(F)F)C[C@H](Cl)C3)s1

>  <HIPPO Compound ID>  (1841) 
26633

>  <fragmenstein_runtime>  (1841) 
8.334139

$$$$
CCc1cc(Cl)cc([C@H](Nc2ccc3c(c2)CNC3)C(=O)NCC(F)F)c1OCC(=O)O
     RDKit          3D

 32 34  0  0  0  0  0  0  0  0999 V2000
   -4.9592    5.3784  -19.0120 C   0  0  0  0  0  0  0  0  0  0  0  0
   -5.0787    5.4885  -17.4945 C   0  0  0  0  0  0  0  0  0  0  0  0
   -6.4005    5.0873  -16.8704 C   0  0  0  0  0  0  0  0  0  0  0  0
   -7.5442    4.8928  -17.6596 C   0  0  0  0  0  0  0  0  0  0  0  0
   -8.7221    4.4301  -17.0861 C   0  0  0  0  0  0  0  0  0  0  0  0
  -10.1074    4.1602  -18.0722 Cl  0  0  0  0  0  0  0  0  0  0  0  0
   -8.7753    4.1390  -15.7262 C   0  0  0  0  0  0  0  0  0  0  0  0
   -7.6439    4.2780  -14.8992 C   0  0  0  0  0  0  0  0  0  0  0  0
   -7.7362    3.7346  -13.4698 C   0  0  2  0  0  0  0  0  0  0  0  0
   -7.6897    4.8276  -12.4834 N   0  0  0  0  0  0  0  0  0  0  0  0
   -8.0720    4.5908  -11.1488 C   0  0  0  0  0  0  0  0  0  0  0  0
   -8.0203    5.6987  -10.2723 C   0  0  0  0  0  0  0  0  0  0  0  0
   -8.2470    5.5705   -8.8979 C   0  0  0  0  0  0  0  0  0  0  0  0
   -8.5540    4.3195   -8.4039 C   0  0  0  0  0  0  0  0  0  0  0  0
   -8.6264    3.2193   -9.2474 C   0  0  0  0  0  0  0  0  0  0  0  0
   -8.3753    3.3322  -10.6076 C   0  0  0  0  0  0  0  0  0  0  0  0
   -8.9577    2.0042   -8.4420 C   0  0  0  0  0  0  0  0  0  0  0  0
   -9.4220    2.5287   -7.1294 N   0  0  0  0  0  0  0  0  0  0  0  0
   -8.8398    3.8805   -7.0071 C   0  0  0  0  0  0  0  0  0  0  0  0
   -6.7243    2.5613  -13.1799 C   0  0  0  0  0  0  0  0  0  0  0  0
   -7.0085    1.4596  -13.4356 O   0  0  0  0  0  0  0  0  0  0  0  0
   -5.4384    3.1428  -12.5587 N   0  0  0  0  0  0  0  0  0  0  0  0
   -4.2691    2.4807  -12.0337 C   0  0  0  0  0  0  0  0  0  0  0  0
   -3.1741    2.2135  -13.0649 C   0  0  0  0  0  0  0  0  0  0  0  0
   -3.6669    1.8083  -14.2603 F   0  0  0  0  0  0  0  0  0  0  0  0
   -2.4747    3.3551  -13.3091 F   0  0  0  0  0  0  0  0  0  0  0  0
   -6.4905    4.8432  -15.4738 C   0  0  0  0  0  0  0  0  0  0  0  0
   -5.4081    5.0926  -14.6687 O   0  0  0  0  0  0  0  0  0  0  0  0
   -5.2240    6.4891  -14.4306 C   0  0  0  0  0  0  0  0  0  0  0  0
   -5.4285    6.8537  -12.9739 C   0  0  0  0  0  0  0  0  0  0  0  0
   -6.0514    7.8230  -12.5646 O   0  0  0  0  0  0  0  0  0  0  0  0
   -4.8334    5.9992  -12.1161 O   0  0  0  0  0  0  0  0  0  0  0  0
  1  2  1  0
  2  3  1  0
  3  4  2  0
  4  5  1  0
  5  6  1  0
  5  7  2  0
  7  8  1  0
  8  9  1  0
  9 10  1  1
 10 11  1  0
 11 12  2  0
 12 13  1  0
 13 14  2  0
 14 15  1  0
 15 16  2  0
 15 17  1  0
 17 18  1  0
 18 19  1  0
  9 20  1  0
 20 21  2  0
 20 22  1  0
 22 23  1  0
 23 24  1  0
 24 25  1  0
 24 26  1  0
  8 27  2  0
 27 28  1  0
 28 29  1  0
 29 30  1  0
 30 31  2  0
 30 32  1  0
 27  3  1  0
 16 11  1  0
 19 14  1  0
M  END
>  <smiles>  (1842) 
C26587-P218

>  <fragmenstein_outcome>  (1842) 
acceptable

>  <inchikey>  (1842) 
XQMZRIOULMOWGX-UHFFFAOYSA-N

>  <fragmenstein_mode>  (1842) 
expansion

>  <HIPPO Pose ID>  (1842) 
23593

>  <Energy>  (1842) 
132.286541

>  <fragmenstein_error>  (1842) 


>  <tags>  (1842) 
{'openbind_xx01zvns2b_c1_fragmenstein', 'fragmenstein_placed'}

>  <ref_pdb>  (1842) 
175

>  <scratch_subdir>  (1842) 
/opt/xchem-fragalysis-2/maxwin/BulkDock/SCRATCH/511028/C26587-P218

>  <alias>  (1842) 
CCc1cc(Cl)cc([C@H](Nc2ccc3c(c2)CNC3)C(=O)NCC(F)F)c1OCC(=O)O

>  <HIPPO Compound ID>  (1842) 
34697

>  <fragmenstein_runtime>  (1842) 
8.298088

$$$$
C[C@@H](Oc1ccc(Cl)cc1[C@@H](Nc1ccc2c(c1)CNC2)C(=O)NCC(F)F)C(=O)O
     RDKit          3D

 31 33  0  0  0  0  0  0  0  0999 V2000
   -2.8848    6.0860  -16.1980 C   0  0  0  0  0  0  0  0  0  0  0  0
   -3.9574    7.1164  -15.8542 C   0  0  1  0  0  0  0  0  0  0  0  0
   -5.0385    6.5210  -15.1344 O   0  0  0  0  0  0  0  0  0  0  0  0
   -5.9642    5.7547  -15.7922 C   0  0  0  0  0  0  0  0  0  0  0  0
   -6.1184    5.7448  -17.1861 C   0  0  0  0  0  0  0  0  0  0  0  0
   -7.1770    5.0628  -17.7785 C   0  0  0  0  0  0  0  0  0  0  0  0
   -8.1015    4.4155  -16.9767 C   0  0  0  0  0  0  0  0  0  0  0  0
   -9.4746    3.7003  -17.7067 Cl  0  0  0  0  0  0  0  0  0  0  0  0
   -7.9332    4.3721  -15.5918 C   0  0  0  0  0  0  0  0  0  0  0  0
   -6.8307    4.9977  -14.9700 C   0  0  0  0  0  0  0  0  0  0  0  0
   -6.5579    4.8689  -13.4488 C   0  0  1  0  0  0  0  0  0  0  0  0
   -7.6976    4.1460  -12.7968 N   0  0  0  0  0  0  0  0  0  0  0  0
   -8.0566    4.2826  -11.4552 C   0  0  0  0  0  0  0  0  0  0  0  0
   -7.8516    5.4602  -10.7170 C   0  0  0  0  0  0  0  0  0  0  0  0
   -8.0360    5.4884   -9.3277 C   0  0  0  0  0  0  0  0  0  0  0  0
   -8.4391    4.3296   -8.6903 C   0  0  0  0  0  0  0  0  0  0  0  0
   -8.7232    3.1835   -9.4152 C   0  0  0  0  0  0  0  0  0  0  0  0
   -8.5707    3.1524  -10.7910 C   0  0  0  0  0  0  0  0  0  0  0  0
   -9.1811    2.1082   -8.4911 C   0  0  0  0  0  0  0  0  0  0  0  0
   -8.9210    2.6138   -7.1157 N   0  0  0  0  0  0  0  0  0  0  0  0
   -8.6687    4.0665   -7.2421 C   0  0  0  0  0  0  0  0  0  0  0  0
   -5.1036    4.1760  -13.1522 C   0  0  0  0  0  0  0  0  0  0  0  0
   -4.1776    4.3586  -13.8413 O   0  0  0  0  0  0  0  0  0  0  0  0
   -5.2318    3.3662  -11.8365 N   0  0  0  0  0  0  0  0  0  0  0  0
   -4.2700    2.5357  -11.1480 C   0  0  0  0  0  0  0  0  0  0  0  0
   -4.2978    1.1028  -11.6631 C   0  0  0  0  0  0  0  0  0  0  0  0
   -3.6968    1.0565  -12.8818 F   0  0  0  0  0  0  0  0  0  0  0  0
   -5.5928    0.7160  -11.8188 F   0  0  0  0  0  0  0  0  0  0  0  0
   -3.3622    8.1983  -14.9548 C   0  0  0  0  0  0  0  0  0  0  0  0
   -3.7735    8.5900  -13.8735 O   0  0  0  0  0  0  0  0  0  0  0  0
   -2.2847    8.8065  -15.5048 O   0  0  0  0  0  0  0  0  0  0  0  0
  2  1  1  1
  2  3  1  0
  3  4  1  0
  4  5  2  0
  5  6  1  0
  6  7  2  0
  7  8  1  0
  7  9  1  0
  9 10  2  0
 10 11  1  0
 11 12  1  1
 12 13  1  0
 13 14  2  0
 14 15  1  0
 15 16  2  0
 16 17  1  0
 17 18  2  0
 17 19  1  0
 19 20  1  0
 20 21  1  0
 11 22  1  0
 22 23  2  0
 22 24  1  0
 24 25  1  0
 25 26  1  0
 26 27  1  0
 26 28  1  0
  2 29  1  0
 29 30  2  0
 29 31  1  0
 10  4  1  0
 18 13  1  0
 21 16  1  0
M  END
>  <smiles>  (1843) 
C24084-P219

>  <fragmenstein_outcome>  (1843) 
acceptable

>  <inchikey>  (1843) 
FXCUPNDAZOBXDR-UHFFFAOYSA-N

>  <fragmenstein_mode>  (1843) 
expansion

>  <HIPPO Pose ID>  (1843) 
23599

>  <Energy>  (1843) 
138.503532

>  <fragmenstein_error>  (1843) 


>  <tags>  (1843) 
{'openbind_xx01zvns2b_c1_fragmenstein', 'fragmenstein_placed'}

>  <ref_pdb>  (1843) 
175

>  <scratch_subdir>  (1843) 
/opt/xchem-fragalysis-2/maxwin/BulkDock/SCRATCH/511028/C24084-P219

>  <alias>  (1843) 
C[C@@H](Oc1ccc(Cl)cc1[C@@H](Nc1ccc2c(c1)CNC2)C(=O)NCC(F)F)C(=O)O

>  <HIPPO Compound ID>  (1843) 
31655

>  <fragmenstein_runtime>  (1843) 
3.917273

$$$$
O=C(NCC(F)F)[C@@H](Nc1ccc2c(c1)CNC2)c1cc(Cl)ccc1O[C@H](C(=O)O)c1ccccn1
     RDKit          3D

 36 39  0  0  0  0  0  0  0  0999 V2000
   -8.5020    7.2574  -13.2056 O   0  0  0  0  0  0  0  0  0  0  0  0
   -7.4259    6.7972  -13.2389 C   0  0  0  0  0  0  0  0  0  0  0  0
   -6.0293    7.4800  -13.0917 N   0  0  0  0  0  0  0  0  0  0  0  0
   -5.6758    8.8774  -12.9694 C   0  0  0  0  0  0  0  0  0  0  0  0
   -5.8262    9.6656  -14.2666 C   0  0  0  0  0  0  0  0  0  0  0  0
   -7.0666   10.2105  -14.3530 F   0  0  0  0  0  0  0  0  0  0  0  0
   -4.9572   10.7141  -14.2650 F   0  0  0  0  0  0  0  0  0  0  0  0
   -7.1476    5.2510  -13.4245 C   0  0  1  0  0  0  0  0  0  0  0  0
   -8.1489    4.4004  -12.7371 N   0  0  0  0  0  0  0  0  0  0  0  0
   -8.1335    4.3037  -11.3324 C   0  0  0  0  0  0  0  0  0  0  0  0
   -7.8471    5.3906  -10.4809 C   0  0  0  0  0  0  0  0  0  0  0  0
   -7.9685    5.3031   -9.0884 C   0  0  0  0  0  0  0  0  0  0  0  0
   -8.3877    4.1106   -8.5428 C   0  0  0  0  0  0  0  0  0  0  0  0
   -8.6777    3.0261   -9.3537 C   0  0  0  0  0  0  0  0  0  0  0  0
   -8.5759    3.1101  -10.7369 C   0  0  0  0  0  0  0  0  0  0  0  0
   -9.1331    1.8881   -8.5077 C   0  0  0  0  0  0  0  0  0  0  0  0
   -8.9649    2.3195   -7.0921 N   0  0  0  0  0  0  0  0  0  0  0  0
   -8.6717    3.7682   -7.1233 C   0  0  0  0  0  0  0  0  0  0  0  0
   -7.1261    4.9767  -14.9310 C   0  0  0  0  0  0  0  0  0  0  0  0
   -8.2886    4.5747  -15.6045 C   0  0  0  0  0  0  0  0  0  0  0  0
   -8.2833    4.4179  -16.9858 C   0  0  0  0  0  0  0  0  0  0  0  0
   -9.7199    3.9590  -17.7754 Cl  0  0  0  0  0  0  0  0  0  0  0  0
   -7.1421    4.6782  -17.7301 C   0  0  0  0  0  0  0  0  0  0  0  0
   -5.9801    5.0894  -17.0815 C   0  0  0  0  0  0  0  0  0  0  0  0
   -5.9619    5.2279  -15.6892 C   0  0  0  0  0  0  0  0  0  0  0  0
   -4.8828    5.6734  -14.9781 O   0  0  0  0  0  0  0  0  0  0  0  0
   -3.5675    5.4873  -15.5140 C   0  0  2  0  0  0  0  0  0  0  0  0
   -2.6038    5.1032  -14.3869 C   0  0  0  0  0  0  0  0  0  0  0  0
   -1.4019    4.9045  -14.5073 O   0  0  0  0  0  0  0  0  0  0  0  0
   -3.1871    4.9419  -13.1768 O   0  0  0  0  0  0  0  0  0  0  0  0
   -3.0748    6.7651  -16.1708 C   0  0  0  0  0  0  0  0  0  0  0  0
   -2.5406    6.7256  -17.4596 C   0  0  0  0  0  0  0  0  0  0  0  0
   -2.0747    7.9048  -18.0346 C   0  0  0  0  0  0  0  0  0  0  0  0
   -2.1396    9.0886  -17.3117 C   0  0  0  0  0  0  0  0  0  0  0  0
   -2.6770    9.0476  -16.0378 C   0  0  0  0  0  0  0  0  0  0  0  0
   -3.1525    7.9224  -15.4561 N   0  0  0  0  0  0  0  0  0  0  0  0
  1  2  2  0
  2  3  1  0
  3  4  1  0
  4  5  1  0
  5  6  1  0
  5  7  1  0
  2  8  1  0
  8  9  1  1
  9 10  1  0
 10 11  2  0
 11 12  1  0
 12 13  2  0
 13 14  1  0
 14 15  2  0
 14 16  1  0
 16 17  1  0
 17 18  1  0
  8 19  1  0
 19 20  2  0
 20 21  1  0
 21 22  1  0
 21 23  2  0
 23 24  1  0
 24 25  2  0
 25 26  1  0
 27 26  1  1
 27 28  1  0
 28 29  2  0
 28 30  1  0
 27 31  1  0
 31 32  2  0
 32 33  1  0
 33 34  2  0
 34 35  1  0
 35 36  2  0
 15 10  1  0
 25 19  1  0
 36 31  1  0
 18 13  1  0
M  END
>  <smiles>  (1844) 
C26654-P219

>  <fragmenstein_outcome>  (1844) 
acceptable

>  <inchikey>  (1844) 
LIVSHQUQCIZRII-UHFFFAOYSA-N

>  <fragmenstein_mode>  (1844) 
expansion

>  <HIPPO Pose ID>  (1844) 
23607

>  <Energy>  (1844) 
182.921749

>  <fragmenstein_error>  (1844) 


>  <tags>  (1844) 
{'openbind_xx01zvns2b_c1_fragmenstein', 'fragmenstein_placed'}

>  <ref_pdb>  (1844) 
175

>  <scratch_subdir>  (1844) 
/opt/xchem-fragalysis-2/maxwin/BulkDock/SCRATCH/511028/C26654-P219

>  <alias>  (1844) 
O=C(NCC(F)F)[C@@H](Nc1ccc2c(c1)CNC2)c1cc(Cl)ccc1O[C@H](C(=O)O)c1ccccn1

>  <HIPPO Compound ID>  (1844) 
26975

>  <fragmenstein_runtime>  (1844) 
4.887096

$$$$
O=C(O)COc1c([C@@H](Nc2ccc3c(c2)CNC3)C(=O)NCC(F)F)cc(Cl)c2scnc12
     RDKit          3D

 33 36  0  0  0  0  0  0  0  0999 V2000
   -3.4062    8.0003  -16.2937 O   0  0  0  0  0  0  0  0  0  0  0  0
   -2.9135    6.8982  -16.1089 C   0  0  0  0  0  0  0  0  0  0  0  0
   -1.6781    6.6331  -16.5989 O   0  0  0  0  0  0  0  0  0  0  0  0
   -3.4872    5.7282  -15.3282 C   0  0  0  0  0  0  0  0  0  0  0  0
   -4.8143    5.9629  -14.8744 O   0  0  0  0  0  0  0  0  0  0  0  0
   -5.8333    5.3367  -15.5666 C   0  0  0  0  0  0  0  0  0  0  0  0
   -6.9759    4.9916  -14.8083 C   0  0  0  0  0  0  0  0  0  0  0  0
   -7.0428    5.2030  -13.2874 C   0  0  1  0  0  0  0  0  0  0  0  0
   -8.1024    4.3319  -12.6976 N   0  0  0  0  0  0  0  0  0  0  0  0
   -8.2333    4.2938  -11.2977 C   0  0  0  0  0  0  0  0  0  0  0  0
   -8.0552    5.4331  -10.4873 C   0  0  0  0  0  0  0  0  0  0  0  0
   -8.1786    5.3687   -9.0952 C   0  0  0  0  0  0  0  0  0  0  0  0
   -8.5104    4.1570   -8.5227 C   0  0  0  0  0  0  0  0  0  0  0  0
   -8.7291    3.0360   -9.3076 C   0  0  0  0  0  0  0  0  0  0  0  0
   -8.6115    3.0885  -10.6873 C   0  0  0  0  0  0  0  0  0  0  0  0
   -9.1019    1.8836   -8.4420 C   0  0  0  0  0  0  0  0  0  0  0  0
   -8.9780    2.3573   -7.0361 N   0  0  0  0  0  0  0  0  0  0  0  0
   -8.7408    3.8165   -7.0926 C   0  0  0  0  0  0  0  0  0  0  0  0
   -5.6753    5.0335  -12.4960 C   0  0  0  0  0  0  0  0  0  0  0  0
   -5.0874    5.9585  -12.0837 O   0  0  0  0  0  0  0  0  0  0  0  0
   -5.4053    3.5115  -12.3272 N   0  0  0  0  0  0  0  0  0  0  0  0
   -4.4116    2.8150  -11.5372 C   0  0  0  0  0  0  0  0  0  0  0  0
   -4.3693    1.3169  -11.7982 C   0  0  0  0  0  0  0  0  0  0  0  0
   -3.7145    1.1021  -12.9718 F   0  0  0  0  0  0  0  0  0  0  0  0
   -5.6378    0.8523  -11.9425 F   0  0  0  0  0  0  0  0  0  0  0  0
   -8.1198    4.5515  -15.5033 C   0  0  0  0  0  0  0  0  0  0  0  0
   -8.1237    4.3649  -16.8867 C   0  0  0  0  0  0  0  0  0  0  0  0
   -9.5611    3.8568  -17.6758 Cl  0  0  0  0  0  0  0  0  0  0  0  0
   -6.9554    4.6365  -17.6013 C   0  0  0  0  0  0  0  0  0  0  0  0
   -6.6193    4.4243  -19.2676 S   0  0  0  0  0  0  0  0  0  0  0  0
   -5.1165    5.1773  -19.0800 C   0  0  0  0  0  0  0  0  0  0  0  0
   -4.7759    5.4824  -17.8517 N   0  0  0  0  0  0  0  0  0  0  0  0
   -5.8192    5.1577  -16.9792 C   0  0  0  0  0  0  0  0  0  0  0  0
  1  2  2  0
  2  3  1  0
  2  4  1  0
  4  5  1  0
  5  6  1  0
  6  7  2  0
  7  8  1  0
  8  9  1  1
  9 10  1  0
 10 11  2  0
 11 12  1  0
 12 13  2  0
 13 14  1  0
 14 15  2  0
 14 16  1  0
 16 17  1  0
 17 18  1  0
  8 19  1  0
 19 20  2  0
 19 21  1  0
 21 22  1  0
 22 23  1  0
 23 24  1  0
 23 25  1  0
  7 26  1  0
 26 27  2  0
 27 28  1  0
 27 29  1  0
 29 30  1  0
 30 31  1  0
 31 32  2  0
 32 33  1  0
 33  6  1  0
 15 10  1  0
 33 29  2  0
 18 13  1  0
M  END
>  <smiles>  (1845) 
C26658-P219

>  <fragmenstein_outcome>  (1845) 
acceptable

>  <inchikey>  (1845) 
ZSCQYMWGXZXNGT-UHFFFAOYSA-N

>  <fragmenstein_mode>  (1845) 
expansion

>  <HIPPO Pose ID>  (1845) 
23610

>  <Energy>  (1845) 
146.87932

>  <fragmenstein_error>  (1845) 


>  <tags>  (1845) 
{'openbind_xx01zvns2b_c1_fragmenstein', 'fragmenstein_placed'}

>  <ref_pdb>  (1845) 
175

>  <scratch_subdir>  (1845) 
/opt/xchem-fragalysis-2/maxwin/BulkDock/SCRATCH/511028/C26658-P219

>  <alias>  (1845) 
O=C(O)COc1c([C@@H](Nc2ccc3c(c2)CNC3)C(=O)NCC(F)F)cc(Cl)c2scnc12

>  <HIPPO Compound ID>  (1845) 
26658

>  <fragmenstein_runtime>  (1845) 
9.041331

$$$$
CN1CCC(c2c[nH]c3c(Cl)cc([C@H](Nc4ccc5c(c4)CNC5)C(=O)NCC(F)F)c(OCC(=O)O)c23)CC1
     RDKit          3D

 40 44  0  0  0  0  0  0  0  0999 V2000
   -3.4474    7.1478  -21.8446 C   0  0  0  0  0  0  0  0  0  0  0  0
   -2.7055    7.1655  -20.5878 N   0  0  0  0  0  0  0  0  0  0  0  0
   -3.1477    8.2324  -19.6888 C   0  0  0  0  0  0  0  0  0  0  0  0
   -4.3457    7.8649  -18.8298 C   0  0  0  0  0  0  0  0  0  0  0  0
   -4.0927    6.5682  -18.0330 C   0  0  0  0  0  0  0  0  0  0  0  0
   -5.3044    5.6821  -18.1034 C   0  0  0  0  0  0  0  0  0  0  0  0
   -5.9162    5.2709  -19.2706 C   0  0  0  0  0  0  0  0  0  0  0  0
   -7.1228    4.7273  -18.9584 N   0  0  0  0  0  0  0  0  0  0  0  0
   -7.2874    4.7218  -17.5993 C   0  0  0  0  0  0  0  0  0  0  0  0
   -8.4074    4.3793  -16.8567 C   0  0  0  0  0  0  0  0  0  0  0  0
   -9.8529    3.9518  -17.6521 Cl  0  0  0  0  0  0  0  0  0  0  0  0
   -8.3509    4.4922  -15.4725 C   0  0  0  0  0  0  0  0  0  0  0  0
   -7.1847    4.9211  -14.8201 C   0  0  0  0  0  0  0  0  0  0  0  0
   -7.1075    5.0470  -13.2953 C   0  0  2  0  0  0  0  0  0  0  0  0
   -8.3008    4.4455  -12.6461 N   0  0  0  0  0  0  0  0  0  0  0  0
   -8.3091    4.3082  -11.2456 C   0  0  0  0  0  0  0  0  0  0  0  0
   -8.2018    5.4143  -10.3807 C   0  0  0  0  0  0  0  0  0  0  0  0
   -8.2860    5.2809   -8.9911 C   0  0  0  0  0  0  0  0  0  0  0  0
   -8.5358    4.0283   -8.4719 C   0  0  0  0  0  0  0  0  0  0  0  0
   -8.6727    2.9301   -9.3047 C   0  0  0  0  0  0  0  0  0  0  0  0
   -8.5539    3.0476  -10.6817 C   0  0  0  0  0  0  0  0  0  0  0  0
   -8.9822    1.7216   -8.4919 C   0  0  0  0  0  0  0  0  0  0  0  0
   -9.0706    2.1742   -7.0763 N   0  0  0  0  0  0  0  0  0  0  0  0
   -8.7712    3.6219   -7.0602 C   0  0  0  0  0  0  0  0  0  0  0  0
   -6.8883    6.5638  -12.9082 C   0  0  0  0  0  0  0  0  0  0  0  0
   -7.5125    7.4397  -13.3727 O   0  0  0  0  0  0  0  0  0  0  0  0
   -5.7023    6.5951  -11.8898 N   0  0  0  0  0  0  0  0  0  0  0  0
   -5.1133    7.7015  -11.1699 C   0  0  0  0  0  0  0  0  0  0  0  0
   -3.7931    8.1747  -11.7639 C   0  0  0  0  0  0  0  0  0  0  0  0
   -2.8574    7.1968  -11.6103 F   0  0  0  0  0  0  0  0  0  0  0  0
   -3.3405    9.2457  -11.0601 F   0  0  0  0  0  0  0  0  0  0  0  0
   -6.0650    5.2907  -15.6045 C   0  0  0  0  0  0  0  0  0  0  0  0
   -4.9908    5.8757  -14.9618 O   0  0  0  0  0  0  0  0  0  0  0  0
   -3.8728    4.9930  -14.8873 C   0  0  0  0  0  0  0  0  0  0  0  0
   -2.6239    5.7873  -14.5601 C   0  0  0  0  0  0  0  0  0  0  0  0
   -2.4884    7.0004  -14.5637 O   0  0  0  0  0  0  0  0  0  0  0  0
   -1.5774    4.9916  -14.2510 O   0  0  0  0  0  0  0  0  0  0  0  0
   -6.1254    5.2265  -17.0196 C   0  0  0  0  0  0  0  0  0  0  0  0
   -2.8056    5.8461  -18.4544 C   0  0  0  0  0  0  0  0  0  0  0  0
   -2.6320    5.8396  -19.9698 C   0  0  0  0  0  0  0  0  0  0  0  0
  1  2  1  0
  2  3  1  0
  3  4  1  0
  4  5  1  0
  5  6  1  0
  6  7  2  0
  7  8  1  0
  8  9  1  0
  9 10  2  0
 10 11  1  0
 10 12  1  0
 12 13  2  0
 13 14  1  0
 14 15  1  1
 15 16  1  0
 16 17  2  0
 17 18  1  0
 18 19  2  0
 19 20  1  0
 20 21  2  0
 20 22  1  0
 22 23  1  0
 23 24  1  0
 14 25  1  0
 25 26  2  0
 25 27  1  0
 27 28  1  0
 28 29  1  0
 29 30  1  0
 29 31  1  0
 13 32  1  0
 32 33  1  0
 33 34  1  0
 34 35  1  0
 35 36  2  0
 35 37  1  0
 32 38  2  0
  5 39  1  0
 39 40  1  0
 40  2  1  0
 38  6  1  0
 38  9  1  0
 21 16  1  0
 24 19  1  0
M  END
>  <smiles>  (1846) 
C26668-P219

>  <fragmenstein_outcome>  (1846) 
acceptable

>  <inchikey>  (1846) 
WFCVJJYALIHWKA-UHFFFAOYSA-N

>  <fragmenstein_mode>  (1846) 
expansion

>  <HIPPO Pose ID>  (1846) 
23619

>  <Energy>  (1846) 
156.948241

>  <fragmenstein_error>  (1846) 


>  <tags>  (1846) 
{'openbind_xx01zvns2b_c1_fragmenstein', 'fragmenstein_placed'}

>  <ref_pdb>  (1846) 
175

>  <scratch_subdir>  (1846) 
/opt/xchem-fragalysis-2/maxwin/BulkDock/SCRATCH/511028/C26668-P219

>  <alias>  (1846) 
CN1CCC(c2c[nH]c3c(Cl)cc([C@H](Nc4ccc5c(c4)CNC5)C(=O)NCC(F)F)c(OCC(=O)O)c23)CC1

>  <HIPPO Compound ID>  (1846) 
31807

>  <fragmenstein_runtime>  (1846) 
9.474652

$$$$
O=C(O)CO[C@@H]1[C@@H]([C@H](Nc2cc3c(cc2F)CNC3)C(=O)NCC(F)F)C[C@H](Cl)C[C@]12CNN(C1CNC1)C2
     RDKit          3D

 39 43  0  0  0  0  0  0  0  0999 V2000
   -4.4011    7.9151  -15.0241 O   0  0  0  0  0  0  0  0  0  0  0  0
   -3.5511    7.1433  -15.4314 C   0  0  0  0  0  0  0  0  0  0  0  0
   -2.2841    7.5779  -15.6191 O   0  0  0  0  0  0  0  0  0  0  0  0
   -3.7125    5.6758  -15.8322 C   0  0  0  0  0  0  0  0  0  0  0  0
   -4.9077    4.9499  -15.6181 O   0  0  0  0  0  0  0  0  0  0  0  0
   -6.1625    5.4230  -16.1344 C   0  0  2  0  0  0  0  0  0  0  0  0
   -7.2409    4.6265  -15.3429 C   0  0  1  0  0  0  0  0  0  0  0  0
   -7.0893    4.8060  -13.7841 C   0  0  2  0  0  0  0  0  0  0  0  0
   -8.3209    4.3226  -13.0894 N   0  0  0  0  0  0  0  0  0  0  0  0
   -8.3400    4.3003  -11.6784 C   0  0  0  0  0  0  0  0  0  0  0  0
   -8.4621    3.0673  -11.0190 C   0  0  0  0  0  0  0  0  0  0  0  0
   -8.5889    3.0470   -9.6368 C   0  0  0  0  0  0  0  0  0  0  0  0
   -8.5202    4.2130   -8.8808 C   0  0  0  0  0  0  0  0  0  0  0  0
   -8.3659    5.4408   -9.4877 C   0  0  0  0  0  0  0  0  0  0  0  0
   -8.3238    5.4737  -10.8828 C   0  0  0  0  0  0  0  0  0  0  0  0
   -8.3947    6.6844  -11.4605 F   0  0  0  0  0  0  0  0  0  0  0  0
   -8.7089    3.8687   -7.4421 C   0  0  0  0  0  0  0  0  0  0  0  0
   -9.3037    2.5146   -7.4452 N   0  0  0  0  0  0  0  0  0  0  0  0
   -8.8673    1.8925   -8.7261 C   0  0  0  0  0  0  0  0  0  0  0  0
   -6.7566    6.2935  -13.4195 C   0  0  0  0  0  0  0  0  0  0  0  0
   -7.3061    7.2016  -13.9135 O   0  0  0  0  0  0  0  0  0  0  0  0
   -5.6566    6.2582  -12.3150 N   0  0  0  0  0  0  0  0  0  0  0  0
   -4.9449    7.3352  -11.6654 C   0  0  0  0  0  0  0  0  0  0  0  0
   -3.4638    7.0584  -11.4472 C   0  0  0  0  0  0  0  0  0  0  0  0
   -3.3014    5.9107  -10.7396 F   0  0  0  0  0  0  0  0  0  0  0  0
   -2.8265    6.8727  -12.6313 F   0  0  0  0  0  0  0  0  0  0  0  0
   -8.6583    4.8818  -15.8425 C   0  0  0  0  0  0  0  0  0  0  0  0
   -8.8340    4.5943  -17.3249 C   0  0  2  0  0  0  0  0  0  0  0  0
   -8.9635    2.8590  -17.6312 Cl  0  0  0  0  0  0  0  0  0  0  0  0
   -7.7597    5.1961  -18.2134 C   0  0  0  0  0  0  0  0  0  0  0  0
   -6.3192    5.4226  -17.6840 C   0  0  2  0  0  0  0  0  0  0  0  0
   -5.4337    4.5090  -18.5060 C   0  0  0  0  0  0  0  0  0  0  0  0
   -5.0631    5.2124  -19.7468 N   0  0  0  0  0  0  0  0  0  0  0  0
   -5.5199    6.5650  -19.6252 N   0  0  0  0  0  0  0  0  0  0  0  0
   -4.5796    7.5876  -20.1180 C   0  0  0  0  0  0  0  0  0  0  0  0
   -4.1927    7.4055  -21.5982 C   0  0  0  0  0  0  0  0  0  0  0  0
   -2.8024    7.8290  -21.2309 N   0  0  0  0  0  0  0  0  0  0  0  0
   -3.0829    7.3169  -19.8524 C   0  0  0  0  0  0  0  0  0  0  0  0
   -5.7848    6.7727  -18.2082 C   0  0  0  0  0  0  0  0  0  0  0  0
  1  2  2  0
  2  3  1  0
  2  4  1  0
  4  5  1  0
  6  5  1  6
  6  7  1  0
  7  8  1  0
  8  9  1  1
  9 10  1  0
 10 11  2  0
 11 12  1  0
 12 13  2  0
 13 14  1  0
 14 15  2  0
 15 16  1  0
 13 17  1  0
 17 18  1  0
 18 19  1  0
  8 20  1  0
 20 21  2  0
 20 22  1  0
 22 23  1  0
 23 24  1  0
 24 25  1  0
 24 26  1  0
  7 27  1  6
 27 28  1  0
 28 29  1  1
 28 30  1  0
 31 30  1  1
 31 32  1  0
 32 33  1  0
 33 34  1  0
 34 35  1  0
 35 36  1  0
 36 37  1  0
 37 38  1  0
 34 39  1  0
 31  6  1  0
 38 35  1  0
 15 10  1  0
 39 31  1  0
 19 12  1  0
M  END
>  <smiles>  (1847) 
C26696-P219

>  <fragmenstein_outcome>  (1847) 
acceptable

>  <inchikey>  (1847) 
WVOOEDMCTAJLSH-UHFFFAOYSA-N

>  <fragmenstein_mode>  (1847) 
expansion

>  <HIPPO Pose ID>  (1847) 
23643

>  <Energy>  (1847) 
247.324602

>  <fragmenstein_error>  (1847) 


>  <tags>  (1847) 
{'openbind_xx01zvns2b_c1_fragmenstein', 'fragmenstein_placed'}

>  <ref_pdb>  (1847) 
175

>  <scratch_subdir>  (1847) 
/opt/xchem-fragalysis-2/maxwin/BulkDock/SCRATCH/511028/C26696-P219

>  <alias>  (1847) 
O=C(O)CO[C@@H]1[C@@H]([C@H](Nc2cc3c(cc2F)CNC3)C(=O)NCC(F)F)C[C@H](Cl)C[C@]12CNN(C1CNC1)C2

>  <HIPPO Compound ID>  (1847) 
41960

>  <fragmenstein_runtime>  (1847) 
12.790044

$$$$
O=C(O)CO[C@@H]1[C@@H]([C@@H](Nc2cc3c(cc2F)CNC3)C(=O)NCC(F)F)C[C@H](Cl)C[C@@]12CNN(C1CNC1)C2
     RDKit          3D

 39 43  0  0  0  0  0  0  0  0999 V2000
   -1.5793    5.0708  -14.1453 O   0  0  0  0  0  0  0  0  0  0  0  0
   -2.6173    5.6681  -14.3938 C   0  0  0  0  0  0  0  0  0  0  0  0
   -2.8789    6.9079  -13.9195 O   0  0  0  0  0  0  0  0  0  0  0  0
   -3.7629    5.0716  -15.1986 C   0  0  0  0  0  0  0  0  0  0  0  0
   -4.6682    6.1105  -15.5574 O   0  0  0  0  0  0  0  0  0  0  0  0
   -5.9271    5.7648  -16.1440 C   0  0  2  0  0  0  0  0  0  0  0  0
   -6.8435    4.8243  -15.2985 C   0  0  1  0  0  0  0  0  0  0  0  0
   -7.2097    5.3386  -13.8506 C   0  0  1  0  0  0  0  0  0  0  0  0
   -7.8007    4.2097  -13.0783 N   0  0  0  0  0  0  0  0  0  0  0  0
   -8.2207    4.3057  -11.7431 C   0  0  0  0  0  0  0  0  0  0  0  0
   -8.3982    3.0918  -11.0558 C   0  0  0  0  0  0  0  0  0  0  0  0
   -8.6088    3.1057   -9.6869 C   0  0  0  0  0  0  0  0  0  0  0  0
   -8.6085    4.2959   -8.9685 C   0  0  0  0  0  0  0  0  0  0  0  0
   -8.4697    5.5123   -9.6120 C   0  0  0  0  0  0  0  0  0  0  0  0
   -8.3070    5.5055  -11.0002 C   0  0  0  0  0  0  0  0  0  0  0  0
   -8.2499    6.6909  -11.6314 F   0  0  0  0  0  0  0  0  0  0  0  0
   -8.7817    3.9776   -7.5203 C   0  0  0  0  0  0  0  0  0  0  0  0
   -9.2899    2.5890   -7.4820 N   0  0  0  0  0  0  0  0  0  0  0  0
   -8.8445    1.9602   -8.7544 C   0  0  0  0  0  0  0  0  0  0  0  0
   -5.9639    5.9481  -13.0989 C   0  0  0  0  0  0  0  0  0  0  0  0
   -5.6415    7.0649  -13.2368 O   0  0  0  0  0  0  0  0  0  0  0  0
   -5.3216    4.8116  -12.2551 N   0  0  0  0  0  0  0  0  0  0  0  0
   -4.2039    4.8412  -11.3310 C   0  0  0  0  0  0  0  0  0  0  0  0
   -3.3401    3.5873  -11.3339 C   0  0  0  0  0  0  0  0  0  0  0  0
   -2.3281    3.7260  -10.4393 F   0  0  0  0  0  0  0  0  0  0  0  0
   -4.0742    2.5231  -10.9197 F   0  0  0  0  0  0  0  0  0  0  0  0
   -8.1660    4.4643  -16.0347 C   0  0  0  0  0  0  0  0  0  0  0  0
   -8.1095    4.3857  -17.5586 C   0  0  2  0  0  0  0  0  0  0  0  0
   -9.0568    3.0080  -18.1370 Cl  0  0  0  0  0  0  0  0  0  0  0  0
   -6.7050    4.2984  -18.0961 C   0  0  0  0  0  0  0  0  0  0  0  0
   -5.8062    5.4691  -17.6785 C   0  0  1  0  0  0  0  0  0  0  0  0
   -6.1994    6.6996  -18.4826 C   0  0  0  0  0  0  0  0  0  0  0  0
   -5.6155    6.5653  -19.8131 N   0  0  0  0  0  0  0  0  0  0  0  0
   -4.5648    5.5762  -19.7042 N   0  0  0  0  0  0  0  0  0  0  0  0
   -3.3192    6.1299  -20.2700 C   0  0  0  0  0  0  0  0  0  0  0  0
   -3.4226    6.3141  -21.7985 C   0  0  0  0  0  0  0  0  0  0  0  0
   -2.1016    5.6367  -21.9449 N   0  0  0  0  0  0  0  0  0  0  0  0
   -2.3532    4.9815  -20.6283 C   0  0  0  0  0  0  0  0  0  0  0  0
   -4.3977    5.3153  -18.2653 C   0  0  0  0  0  0  0  0  0  0  0  0
  1  2  2  0
  2  3  1  0
  2  4  1  0
  4  5  1  0
  6  5  1  1
  6  7  1  0
  7  8  1  0
  8  9  1  1
  9 10  1  0
 10 11  2  0
 11 12  1  0
 12 13  2  0
 13 14  1  0
 14 15  2  0
 15 16  1  0
 13 17  1  0
 17 18  1  0
 18 19  1  0
  8 20  1  0
 20 21  2  0
 20 22  1  0
 22 23  1  0
 23 24  1  0
 24 25  1  0
 24 26  1  0
  7 27  1  6
 27 28  1  0
 28 29  1  1
 28 30  1  0
 31 30  1  6
 31 32  1  0
 32 33  1  0
 33 34  1  0
 34 35  1  0
 35 36  1  0
 36 37  1  0
 37 38  1  0
 34 39  1  0
 31  6  1  0
 38 35  1  0
 15 10  1  0
 39 31  1  0
 19 12  1  0
M  END
>  <smiles>  (1848) 
C26696-P88

>  <fragmenstein_outcome>  (1848) 
acceptable

>  <inchikey>  (1848) 
SZAOCEWDLFAGDS-UHFFFAOYSA-N

>  <fragmenstein_mode>  (1848) 
expansion

>  <HIPPO Pose ID>  (1848) 
23644

>  <Energy>  (1848) 
230.671744

>  <fragmenstein_error>  (1848) 


>  <tags>  (1848) 
{'openbind_xx01zvns2b_c1_fragmenstein', 'fragmenstein_placed'}

>  <ref_pdb>  (1848) 
175

>  <scratch_subdir>  (1848) 
/opt/xchem-fragalysis-2/maxwin/BulkDock/SCRATCH/511028/C26696-P88

>  <alias>  (1848) 
O=C(O)CO[C@@H]1[C@@H]([C@@H](Nc2cc3c(cc2F)CNC3)C(=O)NCC(F)F)C[C@H](Cl)C[C@@]12CNN(C1CNC1)C2

>  <HIPPO Compound ID>  (1848) 
26696

>  <fragmenstein_runtime>  (1848) 
10.570893

$$$$
Cc1c[nH]c2c(Cl)cc([C@@H](Nc3ccc4c(c3)CNC4)C(=O)NCC(F)F)c(OCC(=O)O)c12
     RDKit          3D

 34 37  0  0  0  0  0  0  0  0999 V2000
   -3.5260    5.5881  -18.0105 C   0  0  0  0  0  0  0  0  0  0  0  0
   -4.9764    5.3166  -18.1345 C   0  0  0  0  0  0  0  0  0  0  0  0
   -5.6771    5.2111  -19.3144 C   0  0  0  0  0  0  0  0  0  0  0  0
   -6.9676    4.8693  -19.0235 N   0  0  0  0  0  0  0  0  0  0  0  0
   -7.1343    4.7843  -17.6634 C   0  0  0  0  0  0  0  0  0  0  0  0
   -8.2564    4.4576  -16.9104 C   0  0  0  0  0  0  0  0  0  0  0  0
   -9.7218    4.0293  -17.6706 Cl  0  0  0  0  0  0  0  0  0  0  0  0
   -8.1666    4.5171  -15.5185 C   0  0  0  0  0  0  0  0  0  0  0  0
   -6.9738    4.8742  -14.8585 C   0  0  0  0  0  0  0  0  0  0  0  0
   -6.9705    5.0166  -13.3323 C   0  0  1  0  0  0  0  0  0  0  0  0
   -7.9829    4.1246  -12.7220 N   0  0  0  0  0  0  0  0  0  0  0  0
   -8.1423    4.1148  -11.3286 C   0  0  0  0  0  0  0  0  0  0  0  0
   -7.9834    5.2667  -10.5295 C   0  0  0  0  0  0  0  0  0  0  0  0
   -8.1763    5.2344   -9.1424 C   0  0  0  0  0  0  0  0  0  0  0  0
   -8.5637    4.0425   -8.5664 C   0  0  0  0  0  0  0  0  0  0  0  0
   -8.7441    2.9034   -9.3404 C   0  0  0  0  0  0  0  0  0  0  0  0
   -8.5524    2.9250  -10.7109 C   0  0  0  0  0  0  0  0  0  0  0  0
   -9.1200    1.7665   -8.4503 C   0  0  0  0  0  0  0  0  0  0  0  0
   -9.5652    2.4082   -7.1844 N   0  0  0  0  0  0  0  0  0  0  0  0
   -8.8554    3.7083   -7.1418 C   0  0  0  0  0  0  0  0  0  0  0  0
   -5.5702    4.8593  -12.6259 C   0  0  0  0  0  0  0  0  0  0  0  0
   -5.0302    5.7829  -12.1486 O   0  0  0  0  0  0  0  0  0  0  0  0
   -5.1849    3.3532  -12.6192 N   0  0  0  0  0  0  0  0  0  0  0  0
   -4.0080    2.6871  -12.1060 C   0  0  0  0  0  0  0  0  0  0  0  0
   -2.7002    3.4069  -12.4164 C   0  0  0  0  0  0  0  0  0  0  0  0
   -1.6712    2.7831  -11.7820 F   0  0  0  0  0  0  0  0  0  0  0  0
   -2.4252    3.3213  -13.7442 F   0  0  0  0  0  0  0  0  0  0  0  0
   -5.8625    5.2124  -15.6607 C   0  0  0  0  0  0  0  0  0  0  0  0
   -4.6878    5.6113  -15.0762 O   0  0  0  0  0  0  0  0  0  0  0  0
   -4.6174    7.0384  -15.0150 C   0  0  0  0  0  0  0  0  0  0  0  0
   -3.3083    7.5360  -14.4291 C   0  0  0  0  0  0  0  0  0  0  0  0
   -3.0957    8.6829  -14.0596 O   0  0  0  0  0  0  0  0  0  0  0  0
   -2.3188    6.6232  -14.3913 O   0  0  0  0  0  0  0  0  0  0  0  0
   -5.9213    5.1253  -17.0739 C   0  0  0  0  0  0  0  0  0  0  0  0
  1  2  1  0
  2  3  2  0
  3  4  1  0
  4  5  1  0
  5  6  2  0
  6  7  1  0
  6  8  1  0
  8  9  2  0
  9 10  1  0
 10 11  1  1
 11 12  1  0
 12 13  2  0
 13 14  1  0
 14 15  2  0
 15 16  1  0
 16 17  2  0
 16 18  1  0
 18 19  1  0
 19 20  1  0
 10 21  1  0
 21 22  2  0
 21 23  1  0
 23 24  1  0
 24 25  1  0
 25 26  1  0
 25 27  1  0
  9 28  1  0
 28 29  1  0
 29 30  1  0
 30 31  1  0
 31 32  2  0
 31 33  1  0
 28 34  2  0
 34  2  1  0
 34  5  1  0
 17 12  1  0
 20 15  1  0
M  END
>  <smiles>  (1849) 
C26705-P219

>  <fragmenstein_outcome>  (1849) 
acceptable

>  <inchikey>  (1849) 
KVJUDSSQABZMPP-UHFFFAOYSA-N

>  <fragmenstein_mode>  (1849) 
expansion

>  <HIPPO Pose ID>  (1849) 
23652

>  <Energy>  (1849) 
137.640523

>  <fragmenstein_error>  (1849) 


>  <tags>  (1849) 
{'openbind_xx01zvns2b_c1_fragmenstein', 'fragmenstein_placed'}

>  <ref_pdb>  (1849) 
175

>  <scratch_subdir>  (1849) 
/opt/xchem-fragalysis-2/maxwin/BulkDock/SCRATCH/511028/C26705-P219

>  <alias>  (1849) 
Cc1c[nH]c2c(Cl)cc([C@@H](Nc3ccc4c(c3)CNC4)C(=O)NCC(F)F)c(OCC(=O)O)c12

>  <HIPPO Compound ID>  (1849) 
31092

>  <fragmenstein_runtime>  (1849) 
7.618145

$$$$
NCc1c[nH]c2c(Cl)cc([C@H](Nc3ccc4c(c3)CNC4)C(=O)NCC(F)F)c(OCC(=O)O)c12
     RDKit          3D

 35 38  0  0  0  0  0  0  0  0999 V2000
   -2.7989    5.6224  -19.2758 N   0  0  0  0  0  0  0  0  0  0  0  0
   -3.4760    5.6068  -17.9744 C   0  0  0  0  0  0  0  0  0  0  0  0
   -4.9324    5.3220  -18.1370 C   0  0  0  0  0  0  0  0  0  0  0  0
   -5.6321    5.1680  -19.3166 C   0  0  0  0  0  0  0  0  0  0  0  0
   -6.9167    4.8213  -19.0285 N   0  0  0  0  0  0  0  0  0  0  0  0
   -7.0943    4.7768  -17.6683 C   0  0  0  0  0  0  0  0  0  0  0  0
   -8.2321    4.4697  -16.9343 C   0  0  0  0  0  0  0  0  0  0  0  0
   -9.6687    3.9706  -17.7192 Cl  0  0  0  0  0  0  0  0  0  0  0  0
   -8.1890    4.6400  -15.5514 C   0  0  0  0  0  0  0  0  0  0  0  0
   -7.0228    5.0789  -14.8875 C   0  0  0  0  0  0  0  0  0  0  0  0
   -7.0808    5.4256  -13.3943 C   0  0  2  0  0  0  0  0  0  0  0  0
   -8.1678    4.6556  -12.7022 N   0  0  0  0  0  0  0  0  0  0  0  0
   -8.0568    4.4608  -11.2993 C   0  0  0  0  0  0  0  0  0  0  0  0
   -7.5463    5.4428  -10.4242 C   0  0  0  0  0  0  0  0  0  0  0  0
   -7.6395    5.3195   -9.0338 C   0  0  0  0  0  0  0  0  0  0  0  0
   -8.2335    4.1900   -8.5169 C   0  0  0  0  0  0  0  0  0  0  0  0
   -8.7129    3.1927   -9.3524 C   0  0  0  0  0  0  0  0  0  0  0  0
   -8.6544    3.3200  -10.7340 C   0  0  0  0  0  0  0  0  0  0  0  0
   -9.3219    2.1156   -8.5204 C   0  0  0  0  0  0  0  0  0  0  0  0
   -8.9643    2.4277   -7.1113 N   0  0  0  0  0  0  0  0  0  0  0  0
   -8.5270    3.8394   -7.0996 C   0  0  0  0  0  0  0  0  0  0  0  0
   -7.2100    6.9990  -13.2442 C   0  0  0  0  0  0  0  0  0  0  0  0
   -6.3354    7.7240  -13.5146 O   0  0  0  0  0  0  0  0  0  0  0  0
   -8.6308    7.2982  -12.7054 N   0  0  0  0  0  0  0  0  0  0  0  0
   -9.3035    8.5602  -12.4771 C   0  0  0  0  0  0  0  0  0  0  0  0
   -9.1324    9.1000  -11.0588 C   0  0  0  0  0  0  0  0  0  0  0  0
   -9.8662   10.2347  -10.9187 F   0  0  0  0  0  0  0  0  0  0  0  0
   -7.8401    9.4513  -10.8366 F   0  0  0  0  0  0  0  0  0  0  0  0
   -5.8474    5.3083  -15.6576 C   0  0  0  0  0  0  0  0  0  0  0  0
   -4.7136    5.8812  -15.1297 O   0  0  0  0  0  0  0  0  0  0  0  0
   -4.0007    5.0905  -14.1869 C   0  0  0  0  0  0  0  0  0  0  0  0
   -2.5029    5.1089  -14.4326 C   0  0  0  0  0  0  0  0  0  0  0  0
   -1.8796    5.7362  -15.2726 O   0  0  0  0  0  0  0  0  0  0  0  0
   -1.8370    4.3243  -13.5552 O   0  0  0  0  0  0  0  0  0  0  0  0
   -5.8921    5.1564  -17.0720 C   0  0  0  0  0  0  0  0  0  0  0  0
  1  2  1  0
  2  3  1  0
  3  4  2  0
  4  5  1  0
  5  6  1  0
  6  7  2  0
  7  8  1  0
  7  9  1  0
  9 10  2  0
 10 11  1  0
 11 12  1  6
 12 13  1  0
 13 14  2  0
 14 15  1  0
 15 16  2  0
 16 17  1  0
 17 18  2  0
 17 19  1  0
 19 20  1  0
 20 21  1  0
 11 22  1  0
 22 23  2  0
 22 24  1  0
 24 25  1  0
 25 26  1  0
 26 27  1  0
 26 28  1  0
 10 29  1  0
 29 30  1  0
 30 31  1  0
 31 32  1  0
 32 33  2  0
 32 34  1  0
 29 35  2  0
 35  3  1  0
 35  6  1  0
 18 13  1  0
 21 16  1  0
M  END
>  <smiles>  (1850) 
C26707-P219

>  <fragmenstein_outcome>  (1850) 
acceptable

>  <inchikey>  (1850) 
RXZQKAJOJUZNKZ-UHFFFAOYSA-N

>  <fragmenstein_mode>  (1850) 
expansion

>  <HIPPO Pose ID>  (1850) 
23654

>  <Energy>  (1850) 
130.874584

>  <fragmenstein_error>  (1850) 


>  <tags>  (1850) 
{'openbind_xx01zvns2b_c1_fragmenstein', 'fragmenstein_placed'}

>  <ref_pdb>  (1850) 
175

>  <scratch_subdir>  (1850) 
/opt/xchem-fragalysis-2/maxwin/BulkDock/SCRATCH/511028/C26707-P219

>  <alias>  (1850) 
NCc1c[nH]c2c(Cl)cc([C@H](Nc3ccc4c(c3)CNC4)C(=O)NCC(F)F)c(OCC(=O)O)c12

>  <HIPPO Compound ID>  (1850) 
37627

>  <fragmenstein_runtime>  (1850) 
11.056845

$$$$
O=C(O)CO[C@@H]1[C@H]([C@H](Nc2ccc3c(c2)CNC3)C(=O)NCC(F)F)C[C@@H](Cl)C[C@@]12CNCS2
     RDKit          3D

 34 37  0  0  0  0  0  0  0  0999 V2000
   -2.7797    3.6094  -13.7769 O   0  0  0  0  0  0  0  0  0  0  0  0
   -3.1714    4.7356  -13.5280 C   0  0  0  0  0  0  0  0  0  0  0  0
   -2.6132    5.4208  -12.5013 O   0  0  0  0  0  0  0  0  0  0  0  0
   -4.2107    5.5736  -14.2627 C   0  0  0  0  0  0  0  0  0  0  0  0
   -5.2009    4.8576  -14.9943 O   0  0  0  0  0  0  0  0  0  0  0  0
   -6.0958    5.7226  -15.7125 C   0  0  2  0  0  0  0  0  0  0  0  0
   -7.5451    5.4968  -15.1914 C   0  0  2  0  0  0  0  0  0  0  0  0
   -7.7123    5.7276  -13.6428 C   0  0  2  0  0  0  0  0  0  0  0  0
   -7.8350    4.4652  -12.8833 N   0  0  0  0  0  0  0  0  0  0  0  0
   -7.9876    4.4042  -11.4939 C   0  0  0  0  0  0  0  0  0  0  0  0
   -7.6167    5.4328  -10.6114 C   0  0  0  0  0  0  0  0  0  0  0  0
   -7.8315    5.3346   -9.2286 C   0  0  0  0  0  0  0  0  0  0  0  0
   -8.3623    4.1635   -8.7284 C   0  0  0  0  0  0  0  0  0  0  0  0
   -8.6194    3.0894   -9.5676 C   0  0  0  0  0  0  0  0  0  0  0  0
   -8.4331    3.1907  -10.9367 C   0  0  0  0  0  0  0  0  0  0  0  0
   -9.0485    1.9219   -8.7420 C   0  0  0  0  0  0  0  0  0  0  0  0
   -9.4625    2.5107   -7.4399 N   0  0  0  0  0  0  0  0  0  0  0  0
   -8.7013    3.7764   -7.3276 C   0  0  0  0  0  0  0  0  0  0  0  0
   -9.0028    6.5931  -13.4677 C   0  0  0  0  0  0  0  0  0  0  0  0
  -10.0335    6.2467  -13.9002 O   0  0  0  0  0  0  0  0  0  0  0  0
   -8.6184    7.8864  -12.6920 N   0  0  0  0  0  0  0  0  0  0  0  0
   -9.4050    9.0614  -12.3736 C   0  0  0  0  0  0  0  0  0  0  0  0
   -9.3783    9.4327  -10.8955 C   0  0  0  0  0  0  0  0  0  0  0  0
   -8.0826    9.5860  -10.5018 F   0  0  0  0  0  0  0  0  0  0  0  0
   -9.9735   10.6388  -10.7171 F   0  0  0  0  0  0  0  0  0  0  0  0
   -8.1710    4.1786  -15.6551 C   0  0  0  0  0  0  0  0  0  0  0  0
   -8.0388    3.8756  -17.1327 C   0  0  1  0  0  0  0  0  0  0  0  0
   -9.3570    4.5420  -18.0848 Cl  0  0  0  0  0  0  0  0  0  0  0  0
   -6.6530    4.1914  -17.6836 C   0  0  0  0  0  0  0  0  0  0  0  0
   -5.9817    5.4861  -17.2529 C   0  0  1  0  0  0  0  0  0  0  0  0
   -6.4992    6.6310  -18.1023 C   0  0  0  0  0  0  0  0  0  0  0  0
   -6.0921    6.5191  -19.5060 N   0  0  0  0  0  0  0  0  0  0  0  0
   -4.7631    5.9229  -19.5500 C   0  0  0  0  0  0  0  0  0  0  0  0
   -4.2486    5.5087  -17.8702 S   0  0  0  0  0  0  0  0  0  0  0  0
  1  2  2  0
  2  3  1  0
  2  4  1  0
  4  5  1  0
  6  5  1  1
  6  7  1  0
  7  8  1  0
  8  9  1  1
  9 10  1  0
 10 11  2  0
 11 12  1  0
 12 13  2  0
 13 14  1  0
 14 15  2  0
 14 16  1  0
 16 17  1  0
 17 18  1  0
  8 19  1  0
 19 20  2  0
 19 21  1  0
 21 22  1  0
 22 23  1  0
 23 24  1  0
 23 25  1  0
  7 26  1  1
 26 27  1  0
 27 28  1  6
 27 29  1  0
 30 29  1  6
 30 31  1  0
 31 32  1  0
 32 33  1  0
 33 34  1  0
 30  6  1  0
 15 10  1  0
 34 30  1  0
 18 13  1  0
M  END
>  <smiles>  (1851) 
C26722-P219

>  <fragmenstein_outcome>  (1851) 
acceptable

>  <inchikey>  (1851) 
SJKIKHHEECIYBW-UHFFFAOYSA-N

>  <fragmenstein_mode>  (1851) 
expansion

>  <HIPPO Pose ID>  (1851) 
23663

>  <Energy>  (1851) 
153.014212

>  <fragmenstein_error>  (1851) 


>  <tags>  (1851) 
{'openbind_xx01zvns2b_c1_fragmenstein', 'fragmenstein_placed'}

>  <ref_pdb>  (1851) 
175

>  <scratch_subdir>  (1851) 
/opt/xchem-fragalysis-2/maxwin/BulkDock/SCRATCH/511028/C26722-P219

>  <alias>  (1851) 
O=C(O)CO[C@@H]1[C@H]([C@H](Nc2ccc3c(c2)CNC3)C(=O)NCC(F)F)C[C@@H](Cl)C[C@@]12CNCS2

>  <HIPPO Compound ID>  (1851) 
35740

>  <fragmenstein_runtime>  (1851) 
9.467696

$$$$
N#Cc1cc2c(c(C(=O)Nc3ccc4c(c3)CNC4=O)c1)CC(=O)N2
     RDKit          3D

 25 28  0  0  0  0  0  0  0  0999 V2000
  -11.3229    4.1019  -17.9841 N   0  0  0  0  0  0  0  0  0  0  0  0
  -10.2168    4.1808  -17.6629 C   0  0  0  0  0  0  0  0  0  0  0  0
   -8.8693    4.3044  -17.2343 C   0  0  0  0  0  0  0  0  0  0  0  0
   -7.8714    4.3680  -18.1973 C   0  0  0  0  0  0  0  0  0  0  0  0
   -6.6283    4.7424  -17.7705 C   0  0  0  0  0  0  0  0  0  0  0  0
   -6.3315    5.0012  -16.4320 C   0  0  0  0  0  0  0  0  0  0  0  0
   -7.3023    4.8498  -15.4525 C   0  0  0  0  0  0  0  0  0  0  0  0
   -7.0763    5.2136  -14.0252 C   0  0  0  0  0  0  0  0  0  0  0  0
   -6.5292    6.2211  -13.7951 O   0  0  0  0  0  0  0  0  0  0  0  0
   -7.7169    4.1738  -13.0649 N   0  0  0  0  0  0  0  0  0  0  0  0
   -7.8931    4.2064  -11.6786 C   0  0  0  0  0  0  0  0  0  0  0  0
   -7.6359    5.3733  -10.9365 C   0  0  0  0  0  0  0  0  0  0  0  0
   -7.8388    5.4024   -9.5512 C   0  0  0  0  0  0  0  0  0  0  0  0
   -8.2805    4.2436   -8.9434 C   0  0  0  0  0  0  0  0  0  0  0  0
   -8.5281    3.0737   -9.6547 C   0  0  0  0  0  0  0  0  0  0  0  0
   -8.3539    3.0465  -11.0317 C   0  0  0  0  0  0  0  0  0  0  0  0
   -8.9241    1.9874   -8.7083 C   0  0  0  0  0  0  0  0  0  0  0  0
   -8.9990    2.6822   -7.4399 N   0  0  0  0  0  0  0  0  0  0  0  0
   -8.5350    3.9768   -7.5226 C   0  0  0  0  0  0  0  0  0  0  0  0
   -8.3432    4.7604   -6.6121 O   0  0  0  0  0  0  0  0  0  0  0  0
   -8.5908    4.5030  -15.8690 C   0  0  0  0  0  0  0  0  0  0  0  0
   -4.9049    5.4374  -16.3529 C   0  0  0  0  0  0  0  0  0  0  0  0
   -4.4335    5.3350  -17.8148 C   0  0  0  0  0  0  0  0  0  0  0  0
   -3.3082    5.5504  -18.2362 O   0  0  0  0  0  0  0  0  0  0  0  0
   -5.5223    4.9512  -18.5727 N   0  0  0  0  0  0  0  0  0  0  0  0
  1  2  3  0
  2  3  1  0
  3  4  2  0
  4  5  1  0
  5  6  2  0
  6  7  1  0
  7  8  1  0
  8  9  2  0
  8 10  1  0
 10 11  1  0
 11 12  2  0
 12 13  1  0
 13 14  2  0
 14 15  1  0
 15 16  2  0
 15 17  1  0
 17 18  1  0
 18 19  1  0
 19 20  2  0
  7 21  2  0
  6 22  1  0
 22 23  1  0
 23 24  2  0
 23 25  1  0
 21  3  1  0
 25  5  1  0
 16 11  1  0
 19 14  1  0
M  END
>  <smiles>  (1852) 
C26749-P219

>  <fragmenstein_outcome>  (1852) 
acceptable

>  <inchikey>  (1852) 
FXUXWSYLJNQNMF-UHFFFAOYSA-N

>  <fragmenstein_mode>  (1852) 
expansion

>  <HIPPO Pose ID>  (1852) 
23674

>  <Energy>  (1852) 
27.860038

>  <fragmenstein_error>  (1852) 


>  <tags>  (1852) 
{'openbind_xx01zvns2b_c1_fragmenstein', 'fragmenstein_placed'}

>  <ref_pdb>  (1852) 
175

>  <scratch_subdir>  (1852) 
/opt/xchem-fragalysis-2/maxwin/BulkDock/SCRATCH/511028/C26749-P219

>  <alias>  (1852) 
N#Cc1cc2c(c(C(=O)Nc3ccc4c(c3)CNC4=O)c1)CC(=O)N2

>  <HIPPO Compound ID>  (1852) 
35172

>  <fragmenstein_runtime>  (1852) 
3.422894

$$$$
Cc1ccc(C(=O)Nc2ccc3c(c2)CNC3=O)c2c1NC(=O)C2
     RDKit          3D

 24 27  0  0  0  0  0  0  0  0999 V2000
   -6.9764    4.2917  -19.1735 C   0  0  0  0  0  0  0  0  0  0  0  0
   -7.0359    4.5389  -17.7085 C   0  0  0  0  0  0  0  0  0  0  0  0
   -8.2029    4.3274  -16.9652 C   0  0  0  0  0  0  0  0  0  0  0  0
   -8.2307    4.5976  -15.5869 C   0  0  0  0  0  0  0  0  0  0  0  0
   -7.0890    5.0901  -14.9362 C   0  0  0  0  0  0  0  0  0  0  0  0
   -7.1462    5.4747  -13.5078 C   0  0  0  0  0  0  0  0  0  0  0  0
   -6.7927    6.5456  -13.2056 O   0  0  0  0  0  0  0  0  0  0  0  0
   -7.6828    4.3140  -12.6389 N   0  0  0  0  0  0  0  0  0  0  0  0
   -7.9753    4.2629  -11.2780 C   0  0  0  0  0  0  0  0  0  0  0  0
   -7.8600    5.4113  -10.4717 C   0  0  0  0  0  0  0  0  0  0  0  0
   -8.1113    5.3506   -9.0985 C   0  0  0  0  0  0  0  0  0  0  0  0
   -8.4720    4.1264   -8.5736 C   0  0  0  0  0  0  0  0  0  0  0  0
   -8.5991    2.9815   -9.3558 C   0  0  0  0  0  0  0  0  0  0  0  0
   -8.3618    3.0363  -10.7201 C   0  0  0  0  0  0  0  0  0  0  0  0
   -8.9415    1.8171   -8.4885 C   0  0  0  0  0  0  0  0  0  0  0  0
   -9.0981    2.4239   -7.1811 N   0  0  0  0  0  0  0  0  0  0  0  0
   -8.7350    3.7549   -7.1791 C   0  0  0  0  0  0  0  0  0  0  0  0
   -8.6173    4.4864   -6.2143 O   0  0  0  0  0  0  0  0  0  0  0  0
   -5.9365    5.2977  -15.6750 C   0  0  0  0  0  0  0  0  0  0  0  0
   -5.9318    5.0228  -17.0359 C   0  0  0  0  0  0  0  0  0  0  0  0
   -4.6849    5.3015  -17.5729 N   0  0  0  0  0  0  0  0  0  0  0  0
   -3.8063    5.7388  -16.6007 C   0  0  0  0  0  0  0  0  0  0  0  0
   -2.6353    6.0293  -16.7792 O   0  0  0  0  0  0  0  0  0  0  0  0
   -4.5777    5.7883  -15.2712 C   0  0  0  0  0  0  0  0  0  0  0  0
  1  2  1  0
  2  3  2  0
  3  4  1  0
  4  5  2  0
  5  6  1  0
  6  7  2  0
  6  8  1  0
  8  9  1  0
  9 10  2  0
 10 11  1  0
 11 12  2  0
 12 13  1  0
 13 14  2  0
 13 15  1  0
 15 16  1  0
 16 17  1  0
 17 18  2  0
  5 19  1  0
 19 20  2  0
 20 21  1  0
 21 22  1  0
 22 23  2  0
 22 24  1  0
 20  2  1  0
 14  9  1  0
 24 19  1  0
 17 12  1  0
M  END
>  <smiles>  (1853) 
C26752-P219

>  <fragmenstein_outcome>  (1853) 
acceptable

>  <inchikey>  (1853) 
MLWXEHYUMYPBSR-UHFFFAOYSA-N

>  <fragmenstein_mode>  (1853) 
expansion

>  <HIPPO Pose ID>  (1853) 
23676

>  <Energy>  (1853) 
25.525194

>  <fragmenstein_error>  (1853) 


>  <tags>  (1853) 
{'openbind_xx01zvns2b_c1_fragmenstein', 'fragmenstein_placed'}

>  <ref_pdb>  (1853) 
175

>  <scratch_subdir>  (1853) 
/opt/xchem-fragalysis-2/maxwin/BulkDock/SCRATCH/511028/C26752-P219

>  <alias>  (1853) 
Cc1ccc(C(=O)Nc2ccc3c(c2)CNC3=O)c2c1NC(=O)C2

>  <HIPPO Compound ID>  (1853) 
40173

>  <fragmenstein_runtime>  (1853) 
3.609748

$$$$
O=C1Cc2c(cccc2C(=O)Nc2cc3c(cc2NCc2ccc(O)c(CNc4nc5ccccc5[nH]4)c2)C(=O)NC3)N1
     RDKit          3D

 43 49  0  0  0  0  0  0  0  0999 V2000
   -3.4654    5.7364  -18.2383 O   0  0  0  0  0  0  0  0  0  0  0  0
   -4.5863    5.4521  -17.8449 C   0  0  0  0  0  0  0  0  0  0  0  0
   -5.1042    5.5627  -16.4011 C   0  0  0  0  0  0  0  0  0  0  0  0
   -6.5018    5.0317  -16.5191 C   0  0  0  0  0  0  0  0  0  0  0  0
   -6.7450    4.7005  -17.8506 C   0  0  0  0  0  0  0  0  0  0  0  0
   -7.9419    4.1782  -18.2854 C   0  0  0  0  0  0  0  0  0  0  0  0
   -8.9478    4.0008  -17.3407 C   0  0  0  0  0  0  0  0  0  0  0  0
   -8.7249    4.3236  -15.9921 C   0  0  0  0  0  0  0  0  0  0  0  0
   -7.4896    4.8371  -15.5651 C   0  0  0  0  0  0  0  0  0  0  0  0
   -7.3021    5.2713  -14.1523 C   0  0  0  0  0  0  0  0  0  0  0  0
   -6.7781    6.3401  -13.9986 O   0  0  0  0  0  0  0  0  0  0  0  0
   -7.8391    4.3400  -13.1947 N   0  0  0  0  0  0  0  0  0  0  0  0
   -7.9982    4.4370  -11.7940 C   0  0  0  0  0  0  0  0  0  0  0  0
   -8.2864    3.2056  -11.1577 C   0  0  0  0  0  0  0  0  0  0  0  0
   -8.4711    3.1720   -9.7881 C   0  0  0  0  0  0  0  0  0  0  0  0
   -8.3842    4.3458   -9.0597 C   0  0  0  0  0  0  0  0  0  0  0  0
   -8.1416    5.5737   -9.6431 C   0  0  0  0  0  0  0  0  0  0  0  0
   -7.9258    5.6512  -11.0319 C   0  0  0  0  0  0  0  0  0  0  0  0
   -7.8396    6.8975  -11.6665 N   0  0  0  0  0  0  0  0  0  0  0  0
   -7.5839    8.1464  -10.9632 C   0  0  0  0  0  0  0  0  0  0  0  0
   -6.1888    8.2245  -10.3831 C   0  0  0  0  0  0  0  0  0  0  0  0
   -5.0583    8.0777  -11.1988 C   0  0  0  0  0  0  0  0  0  0  0  0
   -3.7778    8.1564  -10.6526 C   0  0  0  0  0  0  0  0  0  0  0  0
   -3.6182    8.3908   -9.2904 C   0  0  0  0  0  0  0  0  0  0  0  0
   -2.3340    8.4656   -8.8241 O   0  0  0  0  0  0  0  0  0  0  0  0
   -4.7227    8.5497   -8.4432 C   0  0  0  0  0  0  0  0  0  0  0  0
   -4.5930    8.7005   -6.9459 C   0  0  0  0  0  0  0  0  0  0  0  0
   -3.4587    9.5692   -6.6169 N   0  0  0  0  0  0  0  0  0  0  0  0
   -3.0609    9.6499   -5.3269 C   0  0  0  0  0  0  0  0  0  0  0  0
   -2.8309   10.7495   -4.6556 N   0  0  0  0  0  0  0  0  0  0  0  0
   -2.4185   10.3389   -3.4108 C   0  0  0  0  0  0  0  0  0  0  0  0
   -2.0535   11.0979   -2.2896 C   0  0  0  0  0  0  0  0  0  0  0  0
   -1.6590   10.4276   -1.1243 C   0  0  0  0  0  0  0  0  0  0  0  0
   -1.6270    9.0312   -1.0773 C   0  0  0  0  0  0  0  0  0  0  0  0
   -1.9865    8.2563   -2.1866 C   0  0  0  0  0  0  0  0  0  0  0  0
   -2.3784    8.9510   -3.3325 C   0  0  0  0  0  0  0  0  0  0  0  0
   -2.7810    8.5381   -4.5762 N   0  0  0  0  0  0  0  0  0  0  0  0
   -6.0067    8.4628   -9.0092 C   0  0  0  0  0  0  0  0  0  0  0  0
   -8.6098    4.0276   -7.6465 C   0  0  0  0  0  0  0  0  0  0  0  0
   -8.5037    4.8093   -6.7207 O   0  0  0  0  0  0  0  0  0  0  0  0
   -8.9224    2.6879   -7.5914 N   0  0  0  0  0  0  0  0  0  0  0  0
   -8.7705    2.0314   -8.8729 C   0  0  0  0  0  0  0  0  0  0  0  0
   -5.6279    4.9703  -18.6243 N   0  0  0  0  0  0  0  0  0  0  0  0
  1  2  2  0
  2  3  1  0
  3  4  1  0
  4  5  2  0
  5  6  1  0
  6  7  2  0
  7  8  1  0
  8  9  2  0
  9 10  1  0
 10 11  2  0
 10 12  1  0
 12 13  1  0
 13 14  2  0
 14 15  1  0
 15 16  2  0
 16 17  1  0
 17 18  2  0
 18 19  1  0
 19 20  1  0
 20 21  1  0
 21 22  2  0
 22 23  1  0
 23 24  2  0
 24 25  1  0
 24 26  1  0
 26 27  1  0
 27 28  1  0
 28 29  1  0
 29 30  2  0
 30 31  1  0
 31 32  2  0
 32 33  1  0
 33 34  2  0
 34 35  1  0
 35 36  2  0
 36 37  1  0
 26 38  2  0
 16 39  1  0
 39 40  2  0
 39 41  1  0
 41 42  1  0
  5 43  1  0
 43  2  1  0
  9  4  1  0
 18 13  1  0
 38 21  1  0
 42 15  1  0
 37 29  1  0
 36 31  1  0
M  END
>  <smiles>  (1854) 
C26764-P219

>  <fragmenstein_outcome>  (1854) 
acceptable

>  <inchikey>  (1854) 
ZVGMSMAHCHSHDI-UHFFFAOYSA-N

>  <fragmenstein_mode>  (1854) 
expansion

>  <HIPPO Pose ID>  (1854) 
23680

>  <Energy>  (1854) 
9.275347

>  <fragmenstein_error>  (1854) 


>  <tags>  (1854) 
{'openbind_xx01zvns2b_c1_fragmenstein', 'fragmenstein_placed'}

>  <ref_pdb>  (1854) 
175

>  <scratch_subdir>  (1854) 
/opt/xchem-fragalysis-2/maxwin/BulkDock/SCRATCH/511028/C26764-P219

>  <alias>  (1854) 
O=C1Cc2c(cccc2C(=O)Nc2cc3c(cc2NCc2ccc(O)c(CNc4nc5ccccc5[nH]4)c2)C(=O)NC3)N1

>  <HIPPO Compound ID>  (1854) 
26764

>  <fragmenstein_runtime>  (1854) 
15.013806

$$$$
N#Cc1cc2c(cc1NC(=O)c1cc(F)cc3c1CC(=O)N3)CNC2=O
     RDKit          3D

 26 29  0  0  0  0  0  0  0  0999 V2000
   -5.8514    6.5615  -12.1145 N   0  0  0  0  0  0  0  0  0  0  0  0
   -6.6645    5.9888  -11.5159 C   0  0  0  0  0  0  0  0  0  0  0  0
   -7.5832    5.1118  -10.8512 C   0  0  0  0  0  0  0  0  0  0  0  0
   -7.6806    5.1874   -9.4557 C   0  0  0  0  0  0  0  0  0  0  0  0
   -8.2600    4.1180   -8.8076 C   0  0  0  0  0  0  0  0  0  0  0  0
   -8.7112    2.9864   -9.4830 C   0  0  0  0  0  0  0  0  0  0  0  0
   -8.6759    2.9323  -10.8717 C   0  0  0  0  0  0  0  0  0  0  0  0
   -8.1532    4.0296  -11.5719 C   0  0  0  0  0  0  0  0  0  0  0  0
   -8.1634    4.0084  -12.9767 N   0  0  0  0  0  0  0  0  0  0  0  0
   -8.1045    5.1689  -14.0004 C   0  0  0  0  0  0  0  0  0  0  0  0
   -8.1161    6.3249  -13.8355 O   0  0  0  0  0  0  0  0  0  0  0  0
   -7.9278    4.7038  -15.3796 C   0  0  0  0  0  0  0  0  0  0  0  0
   -9.0225    4.1757  -16.0432 C   0  0  0  0  0  0  0  0  0  0  0  0
   -8.9618    3.9502  -17.4156 C   0  0  0  0  0  0  0  0  0  0  0  0
  -10.0599    3.4882  -18.0116 F   0  0  0  0  0  0  0  0  0  0  0  0
   -7.8206    4.2114  -18.1597 C   0  0  0  0  0  0  0  0  0  0  0  0
   -6.7402    4.7088  -17.4689 C   0  0  0  0  0  0  0  0  0  0  0  0
   -6.7719    4.9606  -16.0982 C   0  0  0  0  0  0  0  0  0  0  0  0
   -5.4402    5.4981  -15.6648 C   0  0  0  0  0  0  0  0  0  0  0  0
   -4.6294    5.4408  -16.9712 C   0  0  0  0  0  0  0  0  0  0  0  0
   -3.4454    5.7039  -17.1126 O   0  0  0  0  0  0  0  0  0  0  0  0
   -5.4912    5.0219  -17.9778 N   0  0  0  0  0  0  0  0  0  0  0  0
   -9.1365    1.9576   -8.4853 C   0  0  0  0  0  0  0  0  0  0  0  0
   -9.0356    2.6662   -7.2274 N   0  0  0  0  0  0  0  0  0  0  0  0
   -8.4168    3.8882   -7.3670 C   0  0  0  0  0  0  0  0  0  0  0  0
   -8.0368    4.6385   -6.4890 O   0  0  0  0  0  0  0  0  0  0  0  0
  1  2  3  0
  2  3  1  0
  3  4  2  0
  4  5  1  0
  5  6  2  0
  6  7  1  0
  7  8  2  0
  8  9  1  0
  9 10  1  0
 10 11  2  0
 10 12  1  0
 12 13  2  0
 13 14  1  0
 14 15  1  0
 14 16  2  0
 16 17  1  0
 17 18  2  0
 18 19  1  0
 19 20  1  0
 20 21  2  0
 20 22  1  0
  6 23  1  0
 23 24  1  0
 24 25  1  0
 25 26  2  0
  8  3  1  0
 18 12  1  0
 25  5  1  0
 22 17  1  0
M  END
>  <smiles>  (1855) 
C26851-P219

>  <fragmenstein_outcome>  (1855) 
acceptable

>  <inchikey>  (1855) 
BDODFFYAQXTJJG-UHFFFAOYSA-N

>  <fragmenstein_mode>  (1855) 
expansion

>  <HIPPO Pose ID>  (1855) 
23704

>  <Energy>  (1855) 
35.620004

>  <fragmenstein_error>  (1855) 


>  <tags>  (1855) 
{'openbind_xx01zvns2b_c1_fragmenstein', 'fragmenstein_placed'}

>  <ref_pdb>  (1855) 
175

>  <scratch_subdir>  (1855) 
/opt/xchem-fragalysis-2/maxwin/BulkDock/SCRATCH/511028/C26851-P219

>  <alias>  (1855) 
N#Cc1cc2c(cc1NC(=O)c1cc(F)cc3c1CC(=O)N3)CNC2=O

>  <HIPPO Compound ID>  (1855) 
26851

>  <fragmenstein_runtime>  (1855) 
3.394088

$$$$
NN=C1Cc2c(cc(Cl)cc2C(=O)Nc2ccc3c(c2)CNC3=O)N1
     RDKit          3D

 25 28  0  0  0  0  0  0  0  0999 V2000
   -4.1094    8.0375  -14.1542 N   0  0  0  0  0  0  0  0  0  0  0  0
   -4.3673    7.7550  -15.4483 N   0  0  0  0  0  0  0  0  0  0  0  0
   -5.0782    6.6877  -15.6612 C   0  0  0  0  0  0  0  0  0  0  0  0
   -5.6447    5.7256  -14.5935 C   0  0  0  0  0  0  0  0  0  0  0  0
   -6.7737    5.1139  -15.3695 C   0  0  0  0  0  0  0  0  0  0  0  0
   -6.6964    5.5428  -16.7093 C   0  0  0  0  0  0  0  0  0  0  0  0
   -7.6386    5.1736  -17.6458 C   0  0  0  0  0  0  0  0  0  0  0  0
   -8.7329    4.4392  -17.1977 C   0  0  0  0  0  0  0  0  0  0  0  0
  -10.0299    4.0974  -18.2682 Cl  0  0  0  0  0  0  0  0  0  0  0  0
   -8.8084    3.9929  -15.8738 C   0  0  0  0  0  0  0  0  0  0  0  0
   -7.7948    4.2871  -14.9603 C   0  0  0  0  0  0  0  0  0  0  0  0
   -7.8415    3.6533  -13.6265 C   0  0  0  0  0  0  0  0  0  0  0  0
   -7.7904    2.4898  -13.5689 O   0  0  0  0  0  0  0  0  0  0  0  0
   -8.0572    4.7016  -12.5146 N   0  0  0  0  0  0  0  0  0  0  0  0
   -8.1570    4.5483  -11.1346 C   0  0  0  0  0  0  0  0  0  0  0  0
   -8.1401    5.6971  -10.3185 C   0  0  0  0  0  0  0  0  0  0  0  0
   -8.3204    5.5897   -8.9354 C   0  0  0  0  0  0  0  0  0  0  0  0
   -8.5476    4.3271   -8.4200 C   0  0  0  0  0  0  0  0  0  0  0  0
   -8.5704    3.1849   -9.2141 C   0  0  0  0  0  0  0  0  0  0  0  0
   -8.3507    3.2778  -10.5772 C   0  0  0  0  0  0  0  0  0  0  0  0
   -8.8627    1.9857   -8.3760 C   0  0  0  0  0  0  0  0  0  0  0  0
   -9.0996    2.5688   -7.0694 N   0  0  0  0  0  0  0  0  0  0  0  0
   -8.8333    3.9206   -7.0391 C   0  0  0  0  0  0  0  0  0  0  0  0
   -8.8319    4.6580   -6.0717 O   0  0  0  0  0  0  0  0  0  0  0  0
   -5.5502    6.3184  -16.9089 N   0  0  0  0  0  0  0  0  0  0  0  0
  1  2  1  0
  2  3  2  3
  3  4  1  0
  4  5  1  0
  5  6  2  0
  6  7  1  0
  7  8  2  0
  8  9  1  0
  8 10  1  0
 10 11  2  0
 11 12  1  0
 12 13  2  0
 12 14  1  0
 14 15  1  0
 15 16  2  0
 16 17  1  0
 17 18  2  0
 18 19  1  0
 19 20  2  0
 19 21  1  0
 21 22  1  0
 22 23  1  0
 23 24  2  0
  6 25  1  0
 25  3  1  0
 11  5  1  0
 20 15  1  0
 23 18  1  0
M  END
>  <smiles>  (1856) 
C26876-P220

>  <fragmenstein_outcome>  (1856) 
acceptable

>  <inchikey>  (1856) 
QEWNWSPLGWZJQS-UHFFFAOYSA-N

>  <fragmenstein_mode>  (1856) 
expansion

>  <HIPPO Pose ID>  (1856) 
23714

>  <Energy>  (1856) 
58.081801

>  <fragmenstein_error>  (1856) 


>  <tags>  (1856) 
{'openbind_xx01zvns2b_c1_fragmenstein', 'fragmenstein_placed'}

>  <ref_pdb>  (1856) 
175

>  <scratch_subdir>  (1856) 
/opt/xchem-fragalysis-2/maxwin/BulkDock/SCRATCH/511028/C26876-P220

>  <alias>  (1856) 
NN=C1Cc2c(cc(Cl)cc2C(=O)Nc2ccc3c(c2)CNC3=O)N1

>  <HIPPO Compound ID>  (1856) 
26876

>  <fragmenstein_runtime>  (1856) 
2.540805

$$$$
CNC[C@H]1Cc2c(cc(F)cc2C(=O)Nc2ccc3c(c2)CNC3=O)N1
     RDKit          3D

 26 29  0  0  0  0  0  0  0  0999 V2000
   -2.9795    8.0306  -13.9475 C   0  0  0  0  0  0  0  0  0  0  0  0
   -4.4313    8.1290  -14.0289 N   0  0  0  0  0  0  0  0  0  0  0  0
   -4.9469    7.7273  -15.3437 C   0  0  0  0  0  0  0  0  0  0  0  0
   -4.7698    6.2357  -15.7487 C   0  0  1  0  0  0  0  0  0  0  0  0
   -5.4208    5.2628  -14.7419 C   0  0  0  0  0  0  0  0  0  0  0  0
   -6.7049    4.9610  -15.4280 C   0  0  0  0  0  0  0  0  0  0  0  0
   -6.6490    5.3977  -16.7501 C   0  0  0  0  0  0  0  0  0  0  0  0
   -7.6671    5.1132  -17.6453 C   0  0  0  0  0  0  0  0  0  0  0  0
   -8.7895    4.4421  -17.1691 C   0  0  0  0  0  0  0  0  0  0  0  0
   -9.8044    4.1568  -17.9990 F   0  0  0  0  0  0  0  0  0  0  0  0
   -8.8675    4.0263  -15.8406 C   0  0  0  0  0  0  0  0  0  0  0  0
   -7.7973    4.2468  -14.9731 C   0  0  0  0  0  0  0  0  0  0  0  0
   -7.8010    3.6057  -13.6413 C   0  0  0  0  0  0  0  0  0  0  0  0
   -7.7197    2.4442  -13.5749 O   0  0  0  0  0  0  0  0  0  0  0  0
   -7.9503    4.6638  -12.5271 N   0  0  0  0  0  0  0  0  0  0  0  0
   -8.1202    4.5127  -11.1535 C   0  0  0  0  0  0  0  0  0  0  0  0
   -8.0812    5.6622  -10.3378 C   0  0  0  0  0  0  0  0  0  0  0  0
   -8.2873    5.5642   -8.9579 C   0  0  0  0  0  0  0  0  0  0  0  0
   -8.5493    4.3090   -8.4425 C   0  0  0  0  0  0  0  0  0  0  0  0
   -8.5926    3.1658   -9.2350 C   0  0  0  0  0  0  0  0  0  0  0  0
   -8.3645    3.2508  -10.5978 C   0  0  0  0  0  0  0  0  0  0  0  0
   -8.8954    1.9728   -8.3919 C   0  0  0  0  0  0  0  0  0  0  0  0
   -9.1265    2.5624   -7.0872 N   0  0  0  0  0  0  0  0  0  0  0  0
   -8.8426    3.9107   -7.0608 C   0  0  0  0  0  0  0  0  0  0  0  0
   -8.8330    4.6506   -6.0953 O   0  0  0  0  0  0  0  0  0  0  0  0
   -5.4191    6.0326  -17.0829 N   0  0  0  0  0  0  0  0  0  0  0  0
  1  2  1  0
  2  3  1  0
  4  3  1  1
  4  5  1  0
  5  6  1  0
  6  7  2  0
  7  8  1  0
  8  9  2  0
  9 10  1  0
  9 11  1  0
 11 12  2  0
 12 13  1  0
 13 14  2  0
 13 15  1  0
 15 16  1  0
 16 17  2  0
 17 18  1  0
 18 19  2  0
 19 20  1  0
 20 21  2  0
 20 22  1  0
 22 23  1  0
 23 24  1  0
 24 25  2  0
  7 26  1  0
 26  4  1  0
 12  6  1  0
 21 16  1  0
 24 19  1  0
M  END
>  <smiles>  (1857) 
C26883-P220

>  <fragmenstein_outcome>  (1857) 
acceptable

>  <inchikey>  (1857) 
TYVBTNSNCIIXFO-UHFFFAOYSA-N

>  <fragmenstein_mode>  (1857) 
expansion

>  <HIPPO Pose ID>  (1857) 
23719

>  <Energy>  (1857) 
55.668697

>  <fragmenstein_error>  (1857) 


>  <tags>  (1857) 
{'openbind_xx01zvns2b_c1_fragmenstein', 'fragmenstein_placed'}

>  <ref_pdb>  (1857) 
175

>  <scratch_subdir>  (1857) 
/opt/xchem-fragalysis-2/maxwin/BulkDock/SCRATCH/511028/C26883-P220

>  <alias>  (1857) 
CNC[C@H]1Cc2c(cc(F)cc2C(=O)Nc2ccc3c(c2)CNC3=O)N1

>  <HIPPO Compound ID>  (1857) 
26883

>  <fragmenstein_runtime>  (1857) 
2.750812

$$$$
CCc1cc2c(c(C(=O)Oc3ccc4c(c3)CNC4)c1)CC(=O)N2
     RDKit          3D

 24 27  0  0  0  0  0  0  0  0999 V2000
  -10.7475    4.7627  -18.5202 C   0  0  0  0  0  0  0  0  0  0  0  0
  -10.0716    3.9000  -17.4947 C   0  0  0  0  0  0  0  0  0  0  0  0
   -8.7419    4.3722  -16.9909 C   0  0  0  0  0  0  0  0  0  0  0  0
   -7.7038    4.6607  -17.8776 C   0  0  0  0  0  0  0  0  0  0  0  0
   -6.4867    4.9975  -17.3363 C   0  0  0  0  0  0  0  0  0  0  0  0
   -6.2549    5.0681  -15.9611 C   0  0  0  0  0  0  0  0  0  0  0  0
   -7.2689    4.7883  -15.0562 C   0  0  0  0  0  0  0  0  0  0  0  0
   -7.0235    4.8578  -13.5846 C   0  0  0  0  0  0  0  0  0  0  0  0
   -5.9744    5.2425  -13.0928 O   0  0  0  0  0  0  0  0  0  0  0  0
   -8.1529    4.4269  -12.9075 O   0  0  0  0  0  0  0  0  0  0  0  0
   -8.1508    4.4187  -11.4987 C   0  0  0  0  0  0  0  0  0  0  0  0
   -7.8993    5.5824  -10.7557 C   0  0  0  0  0  0  0  0  0  0  0  0
   -8.0175    5.5578   -9.3617 C   0  0  0  0  0  0  0  0  0  0  0  0
   -8.3899    4.3694   -8.7516 C   0  0  0  0  0  0  0  0  0  0  0  0
   -8.6418    3.2240   -9.4981 C   0  0  0  0  0  0  0  0  0  0  0  0
   -8.5382    3.2296  -10.8792 C   0  0  0  0  0  0  0  0  0  0  0  0
   -9.0324    2.1081   -8.5908 C   0  0  0  0  0  0  0  0  0  0  0  0
   -8.9723    2.6486   -7.2067 N   0  0  0  0  0  0  0  0  0  0  0  0
   -8.6137    4.0815   -7.3068 C   0  0  0  0  0  0  0  0  0  0  0  0
   -8.5177    4.4324  -15.5921 C   0  0  0  0  0  0  0  0  0  0  0  0
   -4.8174    5.4366  -15.7378 C   0  0  0  0  0  0  0  0  0  0  0  0
   -4.2759    5.5500  -17.1670 C   0  0  0  0  0  0  0  0  0  0  0  0
   -3.1314    5.8265  -17.4864 O   0  0  0  0  0  0  0  0  0  0  0  0
   -5.3261    5.2867  -18.0326 N   0  0  0  0  0  0  0  0  0  0  0  0
  1  2  1  0
  2  3  1  0
  3  4  2  0
  4  5  1  0
  5  6  2  0
  6  7  1  0
  7  8  1  0
  8  9  2  0
  8 10  1  0
 10 11  1  0
 11 12  2  0
 12 13  1  0
 13 14  2  0
 14 15  1  0
 15 16  2  0
 15 17  1  0
 17 18  1  0
 18 19  1  0
  7 20  2  0
  6 21  1  0
 21 22  1  0
 22 23  2  0
 22 24  1  0
 20  3  1  0
 24  5  1  0
 16 11  1  0
 19 14  1  0
M  END
>  <smiles>  (1858) 
C26950-P220

>  <fragmenstein_outcome>  (1858) 
acceptable

>  <inchikey>  (1858) 
UUCYBDWWYLBZPL-UHFFFAOYSA-N

>  <fragmenstein_mode>  (1858) 
expansion

>  <HIPPO Pose ID>  (1858) 
23735

>  <Energy>  (1858) 
56.127569

>  <fragmenstein_error>  (1858) 


>  <tags>  (1858) 
{'openbind_xx01zvns2b_c1_fragmenstein', 'fragmenstein_placed'}

>  <ref_pdb>  (1858) 
175

>  <scratch_subdir>  (1858) 
/opt/xchem-fragalysis-2/maxwin/BulkDock/SCRATCH/511028/C26950-P220

>  <alias>  (1858) 
CCc1cc2c(c(C(=O)Oc3ccc4c(c3)CNC4)c1)CC(=O)N2

>  <HIPPO Compound ID>  (1858) 
26950

>  <fragmenstein_runtime>  (1858) 
2.486571

$$$$
Cc1cc2c(c(C(=O)Oc3ccc4c(c3)CNC4)c1)[C@H](CC(=O)O)C(=O)N2
     RDKit          3D

 27 30  0  0  0  0  0  0  0  0999 V2000
  -10.2847    4.3363  -17.7893 C   0  0  0  0  0  0  0  0  0  0  0  0
   -8.9389    4.4172  -17.1358 C   0  0  0  0  0  0  0  0  0  0  0  0
   -7.8301    4.6731  -17.9444 C   0  0  0  0  0  0  0  0  0  0  0  0
   -6.5973    4.7605  -17.3444 C   0  0  0  0  0  0  0  0  0  0  0  0
   -6.4038    4.6109  -15.9724 C   0  0  0  0  0  0  0  0  0  0  0  0
   -7.4897    4.3336  -15.1480 C   0  0  0  0  0  0  0  0  0  0  0  0
   -7.2889    4.0713  -13.6967 C   0  0  0  0  0  0  0  0  0  0  0  0
   -6.2363    3.6640  -13.2328 O   0  0  0  0  0  0  0  0  0  0  0  0
   -8.4325    4.4288  -13.0114 O   0  0  0  0  0  0  0  0  0  0  0  0
   -8.3450    4.3086  -11.6159 C   0  0  0  0  0  0  0  0  0  0  0  0
   -8.1289    5.4764  -10.8675 C   0  0  0  0  0  0  0  0  0  0  0  0
   -8.1986    5.4343   -9.4725 C   0  0  0  0  0  0  0  0  0  0  0  0
   -8.5009    4.2245   -8.8688 C   0  0  0  0  0  0  0  0  0  0  0  0
   -8.6921    3.0652   -9.6198 C   0  0  0  0  0  0  0  0  0  0  0  0
   -8.6200    3.0848  -11.0031 C   0  0  0  0  0  0  0  0  0  0  0  0
   -8.9605    1.9267   -8.6902 C   0  0  0  0  0  0  0  0  0  0  0  0
   -9.3005    2.5590   -7.3895 N   0  0  0  0  0  0  0  0  0  0  0  0
   -8.6842    3.9039   -7.4218 C   0  0  0  0  0  0  0  0  0  0  0  0
   -8.7667    4.2566  -15.7430 C   0  0  0  0  0  0  0  0  0  0  0  0
   -4.9263    4.7518  -15.6764 C   0  0  2  0  0  0  0  0  0  0  0  0
   -4.5985    5.9602  -14.8073 C   0  0  0  0  0  0  0  0  0  0  0  0
   -3.1385    6.0535  -14.4645 C   0  0  0  0  0  0  0  0  0  0  0  0
   -2.5148    7.0955  -14.3321 O   0  0  0  0  0  0  0  0  0  0  0  0
   -2.5506    4.8716  -14.2180 O   0  0  0  0  0  0  0  0  0  0  0  0
   -4.3393    4.9713  -17.0893 C   0  0  0  0  0  0  0  0  0  0  0  0
   -3.1649    5.1369  -17.3752 O   0  0  0  0  0  0  0  0  0  0  0  0
   -5.3925    4.9767  -17.9856 N   0  0  0  0  0  0  0  0  0  0  0  0
  1  2  1  0
  2  3  2  0
  3  4  1  0
  4  5  2  0
  5  6  1  0
  6  7  1  0
  7  8  2  0
  7  9  1  0
  9 10  1  0
 10 11  2  0
 11 12  1  0
 12 13  2  0
 13 14  1  0
 14 15  2  0
 14 16  1  0
 16 17  1  0
 17 18  1  0
  6 19  2  0
  5 20  1  0
 20 21  1  1
 21 22  1  0
 22 23  2  0
 22 24  1  0
 20 25  1  0
 25 26  2  0
 25 27  1  0
 19  2  1  0
 27  4  1  0
 15 10  1  0
 18 13  1  0
M  END
>  <smiles>  (1859) 
C26962-P220

>  <fragmenstein_outcome>  (1859) 
acceptable

>  <inchikey>  (1859) 
LXBZBTLOPXSLTC-UHFFFAOYSA-N

>  <fragmenstein_mode>  (1859) 
expansion

>  <HIPPO Pose ID>  (1859) 
23743

>  <Energy>  (1859) 
16.861593

>  <fragmenstein_error>  (1859) 


>  <tags>  (1859) 
{'openbind_xx01zvns2b_c1_fragmenstein', 'fragmenstein_placed'}

>  <ref_pdb>  (1859) 
175

>  <scratch_subdir>  (1859) 
/opt/xchem-fragalysis-2/maxwin/BulkDock/SCRATCH/511028/C26962-P220

>  <alias>  (1859) 
Cc1cc2c(c(C(=O)Oc3ccc4c(c3)CNC4)c1)[C@H](CC(=O)O)C(=O)N2

>  <HIPPO Compound ID>  (1859) 
26962

>  <fragmenstein_runtime>  (1859) 
3.974861

$$$$
COCCN=C1Cc2c(cccc2C(O)(O)Oc2ccc3c(c2)CNC3)N1
     RDKit          3D

 27 30  0  0  0  0  0  0  0  0999 V2000
   -0.7735    5.5007  -21.0090 C   0  0  0  0  0  0  0  0  0  0  0  0
   -1.5384    6.6190  -20.5771 O   0  0  0  0  0  0  0  0  0  0  0  0
   -1.9844    6.4707  -19.2258 C   0  0  0  0  0  0  0  0  0  0  0  0
   -3.3109    5.7091  -19.1464 C   0  0  0  0  0  0  0  0  0  0  0  0
   -3.6405    5.4935  -17.7386 N   0  0  0  0  0  0  0  0  0  0  0  0
   -4.8763    5.3097  -17.4457 C   0  0  0  0  0  0  0  0  0  0  0  0
   -5.2785    5.0856  -15.9695 C   0  0  0  0  0  0  0  0  0  0  0  0
   -6.7614    4.8320  -16.0830 C   0  0  0  0  0  0  0  0  0  0  0  0
   -7.1040    4.8974  -17.4516 C   0  0  0  0  0  0  0  0  0  0  0  0
   -8.3968    4.7021  -17.8825 C   0  0  0  0  0  0  0  0  0  0  0  0
   -9.3652    4.4177  -16.9271 C   0  0  0  0  0  0  0  0  0  0  0  0
   -9.0249    4.3390  -15.5648 C   0  0  0  0  0  0  0  0  0  0  0  0
   -7.7076    4.5407  -15.0999 C   0  0  0  0  0  0  0  0  0  0  0  0
   -7.3903    4.2816  -13.6242 C   0  0  0  0  0  0  0  0  0  0  0  0
   -6.0860    4.7190  -13.3204 O   0  0  0  0  0  0  0  0  0  0  0  0
   -7.4101    2.8757  -13.4577 O   0  0  0  0  0  0  0  0  0  0  0  0
   -8.3378    4.9931  -12.8166 O   0  0  0  0  0  0  0  0  0  0  0  0
   -8.3151    4.7160  -11.4708 C   0  0  0  0  0  0  0  0  0  0  0  0
   -8.1021    5.8043  -10.6064 C   0  0  0  0  0  0  0  0  0  0  0  0
   -8.1877    5.6462   -9.2177 C   0  0  0  0  0  0  0  0  0  0  0  0
   -8.5035    4.3939   -8.7204 C   0  0  0  0  0  0  0  0  0  0  0  0
   -8.6999    3.3115   -9.5724 C   0  0  0  0  0  0  0  0  0  0  0  0
   -8.6239    3.4556  -10.9495 C   0  0  0  0  0  0  0  0  0  0  0  0
   -8.9932    2.0944   -8.7563 C   0  0  0  0  0  0  0  0  0  0  0  0
   -9.3358    2.6075   -7.4053 N   0  0  0  0  0  0  0  0  0  0  0  0
   -8.7155    3.9484   -7.3107 C   0  0  0  0  0  0  0  0  0  0  0  0
   -6.0054    5.2570  -18.2308 N   0  0  0  0  0  0  0  0  0  0  0  0
  1  2  1  0
  2  3  1  0
  3  4  1  0
  4  5  1  0
  5  6  2  3
  6  7  1  0
  7  8  1  0
  8  9  2  0
  9 10  1  0
 10 11  2  0
 11 12  1  0
 12 13  2  0
 13 14  1  0
 14 15  1  0
 14 16  1  0
 14 17  1  0
 17 18  1  0
 18 19  2  0
 19 20  1  0
 20 21  2  0
 21 22  1  0
 22 23  2  0
 22 24  1  0
 24 25  1  0
 25 26  1  0
  9 27  1  0
 27  6  1  0
 13  8  1  0
 23 18  1  0
 26 21  1  0
M  END
>  <smiles>  (1860) 
C26984-P220

>  <fragmenstein_outcome>  (1860) 
acceptable

>  <inchikey>  (1860) 
VAFPOTHFGPXXOV-UHFFFAOYSA-N

>  <fragmenstein_mode>  (1860) 
expansion

>  <HIPPO Pose ID>  (1860) 
23757

>  <Energy>  (1860) 
14.576732

>  <fragmenstein_error>  (1860) 


>  <tags>  (1860) 
{'openbind_xx01zvns2b_c1_fragmenstein', 'fragmenstein_placed'}

>  <ref_pdb>  (1860) 
175

>  <scratch_subdir>  (1860) 
/opt/xchem-fragalysis-2/maxwin/BulkDock/SCRATCH/511028/C26984-P220

>  <alias>  (1860) 
COCCN=C1Cc2c(cccc2C(O)(O)Oc2ccc3c(c2)CNC3)N1

>  <HIPPO Compound ID>  (1860) 
36769

>  <fragmenstein_runtime>  (1860) 
6.659917

$$$$
Cc1cc2c(cc1OC(O)(O)c1cccc3c1CC(=O)N3)CNC2
     RDKit          3D

 24 27  0  0  0  0  0  0  0  0999 V2000
   -8.2107    6.5966  -11.6838 C   0  0  0  0  0  0  0  0  0  0  0  0
   -8.2854    5.3053  -10.9264 C   0  0  0  0  0  0  0  0  0  0  0  0
   -8.2891    5.3379   -9.5216 C   0  0  0  0  0  0  0  0  0  0  0  0
   -8.4910    4.1571   -8.8270 C   0  0  0  0  0  0  0  0  0  0  0  0
   -8.6636    2.9542   -9.4939 C   0  0  0  0  0  0  0  0  0  0  0  0
   -8.6157    2.8908  -10.8747 C   0  0  0  0  0  0  0  0  0  0  0  0
   -8.3958    4.0691  -11.5897 C   0  0  0  0  0  0  0  0  0  0  0  0
   -8.4698    4.0007  -12.9526 O   0  0  0  0  0  0  0  0  0  0  0  0
   -7.2324    4.0732  -13.6691 C   0  0  0  0  0  0  0  0  0  0  0  0
   -6.3744    5.1123  -13.2470 O   0  0  0  0  0  0  0  0  0  0  0  0
   -6.5072    2.8632  -13.5868 O   0  0  0  0  0  0  0  0  0  0  0  0
   -7.5392    4.3169  -15.1412 C   0  0  0  0  0  0  0  0  0  0  0  0
   -8.8508    4.2254  -15.6582 C   0  0  0  0  0  0  0  0  0  0  0  0
   -9.1341    4.3910  -17.0266 C   0  0  0  0  0  0  0  0  0  0  0  0
   -8.1109    4.6533  -17.9308 C   0  0  0  0  0  0  0  0  0  0  0  0
   -6.8349    4.7600  -17.4283 C   0  0  0  0  0  0  0  0  0  0  0  0
   -6.5409    4.6035  -16.0727 C   0  0  0  0  0  0  0  0  0  0  0  0
   -5.0598    4.7642  -15.8819 C   0  0  0  0  0  0  0  0  0  0  0  0
   -4.5650    5.0176  -17.3086 C   0  0  0  0  0  0  0  0  0  0  0  0
   -3.4053    5.2024  -17.6430 O   0  0  0  0  0  0  0  0  0  0  0  0
   -5.6734    5.0092  -18.1428 N   0  0  0  0  0  0  0  0  0  0  0  0
   -8.9192    1.8653   -8.5097 C   0  0  0  0  0  0  0  0  0  0  0  0
   -8.9828    2.5166   -7.1756 N   0  0  0  0  0  0  0  0  0  0  0  0
   -8.6205    3.9385   -7.3594 C   0  0  0  0  0  0  0  0  0  0  0  0
  1  2  1  0
  2  3  2  0
  3  4  1  0
  4  5  2  0
  5  6  1  0
  6  7  2  0
  7  8  1  0
  8  9  1  0
  9 10  1  0
  9 11  1  0
  9 12  1  0
 12 13  2  0
 13 14  1  0
 14 15  2  0
 15 16  1  0
 16 17  2  0
 17 18  1  0
 18 19  1  0
 19 20  2  0
 19 21  1  0
  5 22  1  0
 22 23  1  0
 23 24  1  0
  7  2  1  0
 17 12  1  0
 24  4  1  0
 21 16  1  0
M  END
>  <smiles>  (1861) 
C27019-P220

>  <fragmenstein_outcome>  (1861) 
acceptable

>  <inchikey>  (1861) 
XAMKNXFIWQPDEG-UHFFFAOYSA-N

>  <fragmenstein_mode>  (1861) 
expansion

>  <HIPPO Pose ID>  (1861) 
23771

>  <Energy>  (1861) 
-14.054173

>  <fragmenstein_error>  (1861) 


>  <tags>  (1861) 
{'openbind_xx01zvns2b_c1_fragmenstein', 'fragmenstein_placed'}

>  <ref_pdb>  (1861) 
175

>  <scratch_subdir>  (1861) 
/opt/xchem-fragalysis-2/maxwin/BulkDock/SCRATCH/511028/C27019-P220

>  <alias>  (1861) 
Cc1cc2c(cc1OC(O)(O)c1cccc3c1CC(=O)N3)CNC2

>  <HIPPO Compound ID>  (1861) 
23503

>  <fragmenstein_runtime>  (1861) 
2.61265

$$$$
O=C(Oc1ccc2c(c1)CNC2)c1cc(Cl)cc2c1C[C@H](N=COCc1ccccc1)N2
     RDKit          3D

 32 36  0  0  0  0  0  0  0  0999 V2000
   -6.2566    4.1373  -13.0374 O   0  0  0  0  0  0  0  0  0  0  0  0
   -7.3447    4.3758  -13.5395 C   0  0  0  0  0  0  0  0  0  0  0  0
   -8.5419    4.5781  -12.8898 O   0  0  0  0  0  0  0  0  0  0  0  0
   -8.4338    4.4445  -11.4976 C   0  0  0  0  0  0  0  0  0  0  0  0
   -8.2000    5.5917  -10.7191 C   0  0  0  0  0  0  0  0  0  0  0  0
   -8.2486    5.5103   -9.3238 C   0  0  0  0  0  0  0  0  0  0  0  0
   -8.5463    4.2838   -8.7513 C   0  0  0  0  0  0  0  0  0  0  0  0
   -8.7449    3.1459   -9.5336 C   0  0  0  0  0  0  0  0  0  0  0  0
   -8.6951    3.2037  -10.9154 C   0  0  0  0  0  0  0  0  0  0  0  0
   -8.9998    1.9792   -8.6362 C   0  0  0  0  0  0  0  0  0  0  0  0
   -9.3544    2.5777   -7.3220 N   0  0  0  0  0  0  0  0  0  0  0  0
   -8.7256    3.9185   -7.3139 C   0  0  0  0  0  0  0  0  0  0  0  0
   -7.5296    4.5561  -15.0048 C   0  0  0  0  0  0  0  0  0  0  0  0
   -8.7400    4.3006  -15.6684 C   0  0  0  0  0  0  0  0  0  0  0  0
   -8.8092    4.3937  -17.0715 C   0  0  0  0  0  0  0  0  0  0  0  0
  -10.2811    4.0850  -17.9043 Cl  0  0  0  0  0  0  0  0  0  0  0  0
   -7.6910    4.7269  -17.8303 C   0  0  0  0  0  0  0  0  0  0  0  0
   -6.5256    5.0317  -17.1641 C   0  0  0  0  0  0  0  0  0  0  0  0
   -6.4416    4.9475  -15.7757 C   0  0  0  0  0  0  0  0  0  0  0  0
   -5.0462    5.2787  -15.3621 C   0  0  0  0  0  0  0  0  0  0  0  0
   -4.4985    5.8975  -16.6754 C   0  0  2  0  0  0  0  0  0  0  0  0
   -4.5713    7.3653  -16.5548 N   0  0  0  0  0  0  0  0  0  0  0  0
   -4.7318    7.9728  -17.6686 C   0  0  0  0  0  0  0  0  0  0  0  0
   -4.8698    9.3161  -17.7741 O   0  0  0  0  0  0  0  0  0  0  0  0
   -4.8345   10.0695  -16.5514 C   0  0  0  0  0  0  0  0  0  0  0  0
   -5.4692   11.4197  -16.7930 C   0  0  0  0  0  0  0  0  0  0  0  0
   -5.1605   12.1691  -17.9382 C   0  0  0  0  0  0  0  0  0  0  0  0
   -5.7370   13.4238  -18.1438 C   0  0  0  0  0  0  0  0  0  0  0  0
   -6.6211   13.9478  -17.2030 C   0  0  0  0  0  0  0  0  0  0  0  0
   -6.9253   13.2207  -16.0541 C   0  0  0  0  0  0  0  0  0  0  0  0
   -6.3486   11.9662  -15.8469 C   0  0  0  0  0  0  0  0  0  0  0  0
   -5.2804    5.3241  -17.7926 N   0  0  0  0  0  0  0  0  0  0  0  0
  1  2  2  0
  2  3  1  0
  3  4  1  0
  4  5  2  0
  5  6  1  0
  6  7  2  0
  7  8  1  0
  8  9  2  0
  8 10  1  0
 10 11  1  0
 11 12  1  0
  2 13  1  0
 13 14  2  0
 14 15  1  0
 15 16  1  0
 15 17  2  0
 17 18  1  0
 18 19  2  0
 19 20  1  0
 21 20  1  1
 21 22  1  0
 22 23  2  3
 23 24  1  0
 24 25  1  0
 25 26  1  0
 26 27  2  0
 27 28  1  0
 28 29  2  0
 29 30  1  0
 30 31  2  0
 21 32  1  0
  9  4  1  0
 19 13  1  0
 31 26  1  0
 12  7  1  0
 32 18  1  0
M  END
>  <smiles>  (1862) 
C27024-P220

>  <fragmenstein_outcome>  (1862) 
acceptable

>  <inchikey>  (1862) 
NSJMDNSZMXGIAV-UHFFFAOYSA-N

>  <fragmenstein_mode>  (1862) 
expansion

>  <HIPPO Pose ID>  (1862) 
23775

>  <Energy>  (1862) 
47.250039

>  <fragmenstein_error>  (1862) 


>  <tags>  (1862) 
{'openbind_xx01zvns2b_c1_fragmenstein', 'fragmenstein_placed'}

>  <ref_pdb>  (1862) 
175

>  <scratch_subdir>  (1862) 
/opt/xchem-fragalysis-2/maxwin/BulkDock/SCRATCH/511028/C27024-P220

>  <alias>  (1862) 
O=C(Oc1ccc2c(c1)CNC2)c1cc(Cl)cc2c1C[C@H](N=COCc1ccccc1)N2

>  <HIPPO Compound ID>  (1862) 
27024

>  <fragmenstein_runtime>  (1862) 
8.215041

$$$$
O=C(Oc1ccc2c(c1)CNC2)c1cccc2c1Cc1cccn1-2
     RDKit          3D

 24 28  0  0  0  0  0  0  0  0999 V2000
   -6.2871    5.7391  -13.5105 O   0  0  0  0  0  0  0  0  0  0  0  0
   -7.2107    5.0577  -13.9253 C   0  0  0  0  0  0  0  0  0  0  0  0
   -8.1232    4.3253  -13.1806 O   0  0  0  0  0  0  0  0  0  0  0  0
   -8.1405    4.3627  -11.7694 C   0  0  0  0  0  0  0  0  0  0  0  0
   -7.9856    5.5553  -11.0501 C   0  0  0  0  0  0  0  0  0  0  0  0
   -8.1005    5.5467   -9.6561 C   0  0  0  0  0  0  0  0  0  0  0  0
   -8.3836    4.3468   -9.0214 C   0  0  0  0  0  0  0  0  0  0  0  0
   -8.5540    3.1724   -9.7440 C   0  0  0  0  0  0  0  0  0  0  0  0
   -8.4383    3.1594  -11.1245 C   0  0  0  0  0  0  0  0  0  0  0  0
   -8.8605    2.0506   -8.8096 C   0  0  0  0  0  0  0  0  0  0  0  0
   -8.9537    2.6489   -7.4505 N   0  0  0  0  0  0  0  0  0  0  0  0
   -8.5538    4.0680   -7.5665 C   0  0  0  0  0  0  0  0  0  0  0  0
   -7.5209    4.8846  -15.3704 C   0  0  0  0  0  0  0  0  0  0  0  0
   -8.7810    4.4219  -15.8054 C   0  0  0  0  0  0  0  0  0  0  0  0
   -9.0845    4.2776  -17.1740 C   0  0  0  0  0  0  0  0  0  0  0  0
   -8.1292    4.5559  -18.1470 C   0  0  0  0  0  0  0  0  0  0  0  0
   -6.9073    5.0104  -17.7050 C   0  0  0  0  0  0  0  0  0  0  0  0
   -6.5852    5.2068  -16.3446 C   0  0  0  0  0  0  0  0  0  0  0  0
   -5.1753    5.7679  -16.2309 C   0  0  0  0  0  0  0  0  0  0  0  0
   -4.7855    5.8596  -17.6769 C   0  0  0  0  0  0  0  0  0  0  0  0
   -3.7743    6.2857  -18.5045 C   0  0  0  0  0  0  0  0  0  0  0  0
   -4.2048    6.0087  -19.8347 C   0  0  0  0  0  0  0  0  0  0  0  0
   -5.4469    5.4033  -19.7624 C   0  0  0  0  0  0  0  0  0  0  0  0
   -5.8015    5.3817  -18.4558 N   0  0  0  0  0  0  0  0  0  0  0  0
  1  2  2  0
  2  3  1  0
  3  4  1  0
  4  5  2  0
  5  6  1  0
  6  7  2  0
  7  8  1  0
  8  9  2  0
  8 10  1  0
 10 11  1  0
 11 12  1  0
  2 13  1  0
 13 14  2  0
 14 15  1  0
 15 16  2  0
 16 17  1  0
 17 18  2  0
 18 19  1  0
 19 20  1  0
 20 21  2  0
 21 22  1  0
 22 23  2  0
 23 24  1  0
  9  4  1  0
 18 13  1  0
 24 20  1  0
 12  7  1  0
 24 17  1  0
M  END
>  <smiles>  (1863) 
C27075-P220

>  <fragmenstein_outcome>  (1863) 
acceptable

>  <inchikey>  (1863) 
PVHWVGCUJOCTSQ-UHFFFAOYSA-N

>  <fragmenstein_mode>  (1863) 
expansion

>  <HIPPO Pose ID>  (1863) 
23804

>  <Energy>  (1863) 
93.428054

>  <fragmenstein_error>  (1863) 


>  <tags>  (1863) 
{'openbind_xx01zvns2b_c1_fragmenstein', 'fragmenstein_placed'}

>  <ref_pdb>  (1863) 
175

>  <scratch_subdir>  (1863) 
/opt/xchem-fragalysis-2/maxwin/BulkDock/SCRATCH/511028/C27075-P220

>  <alias>  (1863) 
O=C(Oc1ccc2c(c1)CNC2)c1cccc2c1Cc1cccn1-2

>  <HIPPO Compound ID>  (1863) 
27075

>  <fragmenstein_runtime>  (1863) 
3.414521

$$$$
CNC[C@@H]1Cc2c(cc(F)cc2C(=O)Oc2ccc3c(c2)CNC3)N1
     RDKit          3D

 25 28  0  0  0  0  0  0  0  0999 V2000
   -2.4230    5.5519  -16.1462 C   0  0  0  0  0  0  0  0  0  0  0  0
   -2.4967    5.6433  -17.5963 N   0  0  0  0  0  0  0  0  0  0  0  0
   -3.7738    5.2144  -18.1781 C   0  0  0  0  0  0  0  0  0  0  0  0
   -5.0345    6.0017  -17.7776 C   0  0  2  0  0  0  0  0  0  0  0  0
   -5.4910    5.7607  -16.3187 C   0  0  0  0  0  0  0  0  0  0  0  0
   -6.8282    5.1285  -16.4801 C   0  0  0  0  0  0  0  0  0  0  0  0
   -7.1152    5.0218  -17.8391 C   0  0  0  0  0  0  0  0  0  0  0  0
   -8.3147    4.4959  -18.2641 C   0  0  0  0  0  0  0  0  0  0  0  0
   -9.2334    4.1167  -17.2993 C   0  0  0  0  0  0  0  0  0  0  0  0
  -10.4555    3.7337  -17.6898 F   0  0  0  0  0  0  0  0  0  0  0  0
   -8.9441    4.2062  -15.9325 C   0  0  0  0  0  0  0  0  0  0  0  0
   -7.7144    4.7028  -15.4967 C   0  0  0  0  0  0  0  0  0  0  0  0
   -7.3601    4.8512  -14.0535 C   0  0  0  0  0  0  0  0  0  0  0  0
   -6.3607    5.4354  -13.6618 O   0  0  0  0  0  0  0  0  0  0  0  0
   -8.3276    4.2533  -13.2632 O   0  0  0  0  0  0  0  0  0  0  0  0
   -8.2269    4.3422  -11.8575 C   0  0  0  0  0  0  0  0  0  0  0  0
   -7.9295    5.5487  -11.2049 C   0  0  0  0  0  0  0  0  0  0  0  0
   -7.9376    5.6102   -9.8084 C   0  0  0  0  0  0  0  0  0  0  0  0
   -8.2656    4.4656   -9.1002 C   0  0  0  0  0  0  0  0  0  0  0  0
   -8.5819    3.2797   -9.7525 C   0  0  0  0  0  0  0  0  0  0  0  0
   -8.5645    3.1958  -11.1350 C   0  0  0  0  0  0  0  0  0  0  0  0
   -8.9678    2.2469   -8.7486 C   0  0  0  0  0  0  0  0  0  0  0  0
   -8.6935    2.8418   -7.4117 N   0  0  0  0  0  0  0  0  0  0  0  0
   -8.3940    4.2727   -7.6289 C   0  0  0  0  0  0  0  0  0  0  0  0
   -6.1753    5.6704  -18.6498 N   0  0  0  0  0  0  0  0  0  0  0  0
  1  2  1  0
  2  3  1  0
  4  3  1  6
  4  5  1  0
  5  6  1  0
  6  7  2  0
  7  8  1  0
  8  9  2  0
  9 10  1  0
  9 11  1  0
 11 12  2  0
 12 13  1  0
 13 14  2  0
 13 15  1  0
 15 16  1  0
 16 17  2  0
 17 18  1  0
 18 19  2  0
 19 20  1  0
 20 21  2  0
 20 22  1  0
 22 23  1  0
 23 24  1  0
  7 25  1  0
 25  4  1  0
 12  6  1  0
 21 16  1  0
 24 19  1  0
M  END
>  <smiles>  (1864) 
C27098-P221

>  <fragmenstein_outcome>  (1864) 
acceptable

>  <inchikey>  (1864) 
NKGZAXVUVCBFJT-UHFFFAOYSA-N

>  <fragmenstein_mode>  (1864) 
expansion

>  <HIPPO Pose ID>  (1864) 
23814

>  <Energy>  (1864) 
92.297802

>  <fragmenstein_error>  (1864) 


>  <tags>  (1864) 
{'openbind_xx01zvns2b_c1_fragmenstein', 'fragmenstein_placed'}

>  <ref_pdb>  (1864) 
175

>  <scratch_subdir>  (1864) 
/opt/xchem-fragalysis-2/maxwin/BulkDock/SCRATCH/511028/C27098-P221

>  <alias>  (1864) 
CNC[C@@H]1Cc2c(cc(F)cc2C(=O)Oc2ccc3c(c2)CNC3)N1

>  <HIPPO Compound ID>  (1864) 
33428

>  <fragmenstein_runtime>  (1864) 
5.484198

$$$$
CNCN1C(=O)Cc2c(C(=O)Oc3ccc4c(c3)CNC4)cc(Br)cc21
     RDKit          3D

 26 29  0  0  0  0  0  0  0  0999 V2000
   -3.5924    6.4298  -21.2465 C   0  0  0  0  0  0  0  0  0  0  0  0
   -3.8130    5.4474  -20.1900 N   0  0  0  0  0  0  0  0  0  0  0  0
   -5.1754    5.5893  -19.6565 C   0  0  0  0  0  0  0  0  0  0  0  0
   -5.2165    5.1956  -18.2640 N   0  0  0  0  0  0  0  0  0  0  0  0
   -4.2462    5.5584  -17.3303 C   0  0  0  0  0  0  0  0  0  0  0  0
   -3.1341    6.0032  -17.5774 O   0  0  0  0  0  0  0  0  0  0  0  0
   -4.8130    5.3395  -15.9361 C   0  0  0  0  0  0  0  0  0  0  0  0
   -6.2234    4.9232  -16.2170 C   0  0  0  0  0  0  0  0  0  0  0  0
   -7.2599    4.6578  -15.3257 C   0  0  0  0  0  0  0  0  0  0  0  0
   -7.0268    4.7591  -13.8576 C   0  0  0  0  0  0  0  0  0  0  0  0
   -6.0098    5.2360  -13.3781 O   0  0  0  0  0  0  0  0  0  0  0  0
   -8.1224    4.2637  -13.1735 O   0  0  0  0  0  0  0  0  0  0  0  0
   -8.1140    4.3420  -11.7680 C   0  0  0  0  0  0  0  0  0  0  0  0
   -7.8435    5.5459  -11.0989 C   0  0  0  0  0  0  0  0  0  0  0  0
   -7.9127    5.6008   -9.7048 C   0  0  0  0  0  0  0  0  0  0  0  0
   -8.2707    4.4520   -9.0185 C   0  0  0  0  0  0  0  0  0  0  0  0
   -8.5687    3.2716   -9.6906 C   0  0  0  0  0  0  0  0  0  0  0  0
   -8.4971    3.1952  -11.0711 C   0  0  0  0  0  0  0  0  0  0  0  0
   -8.9892    2.2327   -8.7072 C   0  0  0  0  0  0  0  0  0  0  0  0
   -8.7296    2.8083   -7.3593 N   0  0  0  0  0  0  0  0  0  0  0  0
   -8.4426    4.2453   -7.5534 C   0  0  0  0  0  0  0  0  0  0  0  0
   -8.5145    4.3581  -15.8707 C   0  0  0  0  0  0  0  0  0  0  0  0
   -8.6871    4.3232  -17.2625 C   0  0  0  0  0  0  0  0  0  0  0  0
  -10.4070    4.1268  -17.9828 Br  0  0  0  0  0  0  0  0  0  0  0  0
   -7.6351    4.5485  -18.1437 C   0  0  0  0  0  0  0  0  0  0  0  0
   -6.4100    4.8595  -17.6017 C   0  0  0  0  0  0  0  0  0  0  0  0
  1  2  1  0
  2  3  1  0
  3  4  1  0
  4  5  1  0
  5  6  2  0
  5  7  1  0
  7  8  1  0
  8  9  2  0
  9 10  1  0
 10 11  2  0
 10 12  1  0
 12 13  1  0
 13 14  2  0
 14 15  1  0
 15 16  2  0
 16 17  1  0
 17 18  2  0
 17 19  1  0
 19 20  1  0
 20 21  1  0
  9 22  1  0
 22 23  2  0
 23 24  1  0
 23 25  1  0
 25 26  2  0
 26  4  1  0
 26  8  1  0
 18 13  1  0
 21 16  1  0
M  END
>  <smiles>  (1865) 
C27099-P221

>  <fragmenstein_outcome>  (1865) 
acceptable

>  <inchikey>  (1865) 
OKFXNIWYJOUUQN-UHFFFAOYSA-N

>  <fragmenstein_mode>  (1865) 
expansion

>  <HIPPO Pose ID>  (1865) 
23815

>  <Energy>  (1865) 
30.540066

>  <fragmenstein_error>  (1865) 


>  <tags>  (1865) 
{'openbind_xx01zvns2b_c1_fragmenstein', 'fragmenstein_placed'}

>  <ref_pdb>  (1865) 
175

>  <scratch_subdir>  (1865) 
/opt/xchem-fragalysis-2/maxwin/BulkDock/SCRATCH/511028/C27099-P221

>  <alias>  (1865) 
CNCN1C(=O)Cc2c(C(=O)Oc3ccc4c(c3)CNC4)cc(Br)cc21

>  <HIPPO Compound ID>  (1865) 
27099

>  <fragmenstein_runtime>  (1865) 
4.534305

$$$$
CNCN1C(=O)Cc2c(C(=O)Oc3ccc4c(c3)CNC4)cc(F)cc21
     RDKit          3D

 26 29  0  0  0  0  0  0  0  0999 V2000
   -7.2626    3.4316  -19.8181 C   0  0  0  0  0  0  0  0  0  0  0  0
   -6.0111    4.1351  -19.6409 N   0  0  0  0  0  0  0  0  0  0  0  0
   -6.0265    5.5206  -19.2833 C   0  0  0  0  0  0  0  0  0  0  0  0
   -5.8740    5.5495  -17.8610 N   0  0  0  0  0  0  0  0  0  0  0  0
   -4.6624    5.6871  -17.1910 C   0  0  0  0  0  0  0  0  0  0  0  0
   -3.5642    5.8847  -17.6862 O   0  0  0  0  0  0  0  0  0  0  0  0
   -4.9613    5.5221  -15.6962 C   0  0  0  0  0  0  0  0  0  0  0  0
   -6.4126    5.1450  -15.6939 C   0  0  0  0  0  0  0  0  0  0  0  0
   -7.2579    4.7739  -14.6658 C   0  0  0  0  0  0  0  0  0  0  0  0
   -6.8053    4.8200  -13.2600 C   0  0  0  0  0  0  0  0  0  0  0  0
   -5.8275    5.4303  -12.8659 O   0  0  0  0  0  0  0  0  0  0  0  0
   -7.7242    4.0979  -12.5322 O   0  0  0  0  0  0  0  0  0  0  0  0
   -7.8556    4.2133  -11.1436 C   0  0  0  0  0  0  0  0  0  0  0  0
   -7.6015    5.4026  -10.4497 C   0  0  0  0  0  0  0  0  0  0  0  0
   -7.8369    5.4600   -9.0768 C   0  0  0  0  0  0  0  0  0  0  0  0
   -8.3287    4.3270   -8.4502 C   0  0  0  0  0  0  0  0  0  0  0  0
   -8.6110    3.1667   -9.1629 C   0  0  0  0  0  0  0  0  0  0  0  0
   -8.3865    3.0894  -10.5182 C   0  0  0  0  0  0  0  0  0  0  0  0
   -9.1819    2.1412   -8.2502 C   0  0  0  0  0  0  0  0  0  0  0  0
   -8.9711    2.6663   -6.8751 N   0  0  0  0  0  0  0  0  0  0  0  0
   -8.6639    4.1076   -7.0162 C   0  0  0  0  0  0  0  0  0  0  0  0
   -8.5700    4.3879  -14.9937 C   0  0  0  0  0  0  0  0  0  0  0  0
   -8.9999    4.3839  -16.3113 C   0  0  0  0  0  0  0  0  0  0  0  0
  -10.2199    3.9557  -16.6267 F   0  0  0  0  0  0  0  0  0  0  0  0
   -8.1875    4.8386  -17.3163 C   0  0  0  0  0  0  0  0  0  0  0  0
   -6.8946    5.1814  -16.9925 C   0  0  0  0  0  0  0  0  0  0  0  0
  1  2  1  0
  2  3  1  0
  3  4  1  0
  4  5  1  0
  5  6  2  0
  5  7  1  0
  7  8  1  0
  8  9  2  0
  9 10  1  0
 10 11  2  0
 10 12  1  0
 12 13  1  0
 13 14  2  0
 14 15  1  0
 15 16  2  0
 16 17  1  0
 17 18  2  0
 17 19  1  0
 19 20  1  0
 20 21  1  0
  9 22  1  0
 22 23  2  0
 23 24  1  0
 23 25  1  0
 25 26  2  0
 26  4  1  0
 26  8  1  0
 18 13  1  0
 21 16  1  0
M  END
>  <smiles>  (1866) 
C27111-P221

>  <fragmenstein_outcome>  (1866) 
acceptable

>  <inchikey>  (1866) 
VOKHMAGDCRIRIF-UHFFFAOYSA-N

>  <fragmenstein_mode>  (1866) 
expansion

>  <HIPPO Pose ID>  (1866) 
23821

>  <Energy>  (1866) 
35.639147

>  <fragmenstein_error>  (1866) 


>  <tags>  (1866) 
{'openbind_xx01zvns2b_c1_fragmenstein', 'fragmenstein_placed'}

>  <ref_pdb>  (1866) 
175

>  <scratch_subdir>  (1866) 
/opt/xchem-fragalysis-2/maxwin/BulkDock/SCRATCH/511028/C27111-P221

>  <alias>  (1866) 
CNCN1C(=O)Cc2c(C(=O)Oc3ccc4c(c3)CNC4)cc(F)cc21

>  <HIPPO Compound ID>  (1866) 
27111

>  <fragmenstein_runtime>  (1866) 
3.721009

$$$$
O=C(Oc1ccc2c(c1)CNC2)c1cc(Cl)cc2c1CC1(CCNCC1)N2
     RDKit          3D

 27 31  0  0  0  0  0  0  0  0999 V2000
   -6.0595    5.6332  -13.6264 O   0  0  0  0  0  0  0  0  0  0  0  0
   -6.9953    4.9786  -14.0594 C   0  0  0  0  0  0  0  0  0  0  0  0
   -7.9700    4.3197  -13.3198 O   0  0  0  0  0  0  0  0  0  0  0  0
   -8.0031    4.4074  -11.9085 C   0  0  0  0  0  0  0  0  0  0  0  0
   -7.7611    5.6088  -11.2267 C   0  0  0  0  0  0  0  0  0  0  0  0
   -7.8624    5.6560   -9.8326 C   0  0  0  0  0  0  0  0  0  0  0  0
   -8.2213    4.5013   -9.1561 C   0  0  0  0  0  0  0  0  0  0  0  0
   -8.4939    3.3221   -9.8388 C   0  0  0  0  0  0  0  0  0  0  0  0
   -8.3921    3.2546  -11.2199 C   0  0  0  0  0  0  0  0  0  0  0  0
   -8.9110    2.2705   -8.8664 C   0  0  0  0  0  0  0  0  0  0  0  0
   -8.7137    2.8521   -7.5094 N   0  0  0  0  0  0  0  0  0  0  0  0
   -8.4064    4.2855   -7.6939 C   0  0  0  0  0  0  0  0  0  0  0  0
   -7.2601    4.7922  -15.5138 C   0  0  0  0  0  0  0  0  0  0  0  0
   -8.5300    4.4331  -15.9883 C   0  0  0  0  0  0  0  0  0  0  0  0
   -8.7559    4.2862  -17.3643 C   0  0  0  0  0  0  0  0  0  0  0  0
  -10.3446    4.0299  -17.9445 Cl  0  0  0  0  0  0  0  0  0  0  0  0
   -7.7321    4.4355  -18.2878 C   0  0  0  0  0  0  0  0  0  0  0  0
   -6.5018    4.8385  -17.8236 C   0  0  0  0  0  0  0  0  0  0  0  0
   -6.2636    5.0248  -16.4598 C   0  0  0  0  0  0  0  0  0  0  0  0
   -4.8372    5.4432  -16.2896 C   0  0  0  0  0  0  0  0  0  0  0  0
   -4.4275    5.7756  -17.7653 C   0  0  0  0  0  0  0  0  0  0  0  0
   -2.9847    5.3157  -18.0358 C   0  0  0  0  0  0  0  0  0  0  0  0
   -2.3097    6.1928  -19.0832 C   0  0  0  0  0  0  0  0  0  0  0  0
   -2.1987    7.5892  -18.6535 N   0  0  0  0  0  0  0  0  0  0  0  0
   -3.3093    8.0479  -17.8217 C   0  0  0  0  0  0  0  0  0  0  0  0
   -4.6032    7.2845  -18.0760 C   0  0  0  0  0  0  0  0  0  0  0  0
   -5.3533    5.0022  -18.6242 N   0  0  0  0  0  0  0  0  0  0  0  0
  1  2  2  0
  2  3  1  0
  3  4  1  0
  4  5  2  0
  5  6  1  0
  6  7  2  0
  7  8  1  0
  8  9  2  0
  8 10  1  0
 10 11  1  0
 11 12  1  0
  2 13  1  0
 13 14  2  0
 14 15  1  0
 15 16  1  0
 15 17  2  0
 17 18  1  0
 18 19  2  0
 19 20  1  0
 20 21  1  0
 21 22  1  0
 22 23  1  0
 23 24  1  0
 24 25  1  0
 25 26  1  0
 21 27  1  0
  9  4  1  0
 19 13  1  0
 26 21  1  0
 12  7  1  0
 27 18  1  0
M  END
>  <smiles>  (1867) 
C27114-P221

>  <fragmenstein_outcome>  (1867) 
acceptable

>  <inchikey>  (1867) 
XNLDSRGZWSDZTM-UHFFFAOYSA-N

>  <fragmenstein_mode>  (1867) 
expansion

>  <HIPPO Pose ID>  (1867) 
23823

>  <Energy>  (1867) 
65.861773

>  <fragmenstein_error>  (1867) 


>  <tags>  (1867) 
{'openbind_xx01zvns2b_c1_fragmenstein', 'fragmenstein_placed'}

>  <ref_pdb>  (1867) 
175

>  <scratch_subdir>  (1867) 
/opt/xchem-fragalysis-2/maxwin/BulkDock/SCRATCH/511028/C27114-P221

>  <alias>  (1867) 
O=C(Oc1ccc2c(c1)CNC2)c1cc(Cl)cc2c1CC1(CCNCC1)N2

>  <HIPPO Compound ID>  (1867) 
27114

>  <fragmenstein_runtime>  (1867) 
3.516807

$$$$
CNCN1C(=O)Cc2c(C(=O)Oc3ccc4c(c3)CNC4)cc(Cl)cc21
     RDKit          3D

 26 29  0  0  0  0  0  0  0  0999 V2000
   -5.2081    7.1536  -21.3165 C   0  0  0  0  0  0  0  0  0  0  0  0
   -5.7260    6.7634  -20.0108 N   0  0  0  0  0  0  0  0  0  0  0  0
   -5.2691    5.4159  -19.6747 C   0  0  0  0  0  0  0  0  0  0  0  0
   -5.3976    5.2526  -18.2624 N   0  0  0  0  0  0  0  0  0  0  0  0
   -4.3416    5.4295  -17.3785 C   0  0  0  0  0  0  0  0  0  0  0  0
   -3.1688    5.6192  -17.6662 O   0  0  0  0  0  0  0  0  0  0  0  0
   -4.9161    5.3276  -15.9663 C   0  0  0  0  0  0  0  0  0  0  0  0
   -6.3507    4.9550  -16.2157 C   0  0  0  0  0  0  0  0  0  0  0  0
   -7.3747    4.6742  -15.3182 C   0  0  0  0  0  0  0  0  0  0  0  0
   -7.1169    4.7696  -13.8550 C   0  0  0  0  0  0  0  0  0  0  0  0
   -6.0940    5.2515  -13.3926 O   0  0  0  0  0  0  0  0  0  0  0  0
   -8.1976    4.2683  -13.1545 O   0  0  0  0  0  0  0  0  0  0  0  0
   -8.1610    4.3418  -11.7494 C   0  0  0  0  0  0  0  0  0  0  0  0
   -7.8796    5.5437  -11.0809 C   0  0  0  0  0  0  0  0  0  0  0  0
   -7.9295    5.5953   -9.6861 C   0  0  0  0  0  0  0  0  0  0  0  0
   -8.2808    4.4453   -8.9983 C   0  0  0  0  0  0  0  0  0  0  0  0
   -8.5869    3.2664   -9.6693 C   0  0  0  0  0  0  0  0  0  0  0  0
   -8.5324    3.1927  -11.0505 C   0  0  0  0  0  0  0  0  0  0  0  0
   -8.9997    2.2263   -8.6842 C   0  0  0  0  0  0  0  0  0  0  0  0
   -8.7284    2.8001   -7.3376 N   0  0  0  0  0  0  0  0  0  0  0  0
   -8.4411    4.2368   -7.5323 C   0  0  0  0  0  0  0  0  0  0  0  0
   -8.6342    4.3540  -15.8523 C   0  0  0  0  0  0  0  0  0  0  0  0
   -8.8301    4.3179  -17.2424 C   0  0  0  0  0  0  0  0  0  0  0  0
  -10.3887    4.0647  -17.9023 Cl  0  0  0  0  0  0  0  0  0  0  0  0
   -7.7954    4.5831  -18.1268 C   0  0  0  0  0  0  0  0  0  0  0  0
   -6.5728    4.9159  -17.5921 C   0  0  0  0  0  0  0  0  0  0  0  0
  1  2  1  0
  2  3  1  0
  3  4  1  0
  4  5  1  0
  5  6  2  0
  5  7  1  0
  7  8  1  0
  8  9  2  0
  9 10  1  0
 10 11  2  0
 10 12  1  0
 12 13  1  0
 13 14  2  0
 14 15  1  0
 15 16  2  0
 16 17  1  0
 17 18  2  0
 17 19  1  0
 19 20  1  0
 20 21  1  0
  9 22  1  0
 22 23  2  0
 23 24  1  0
 23 25  1  0
 25 26  2  0
 26  4  1  0
 26  8  1  0
 18 13  1  0
 21 16  1  0
M  END
>  <smiles>  (1868) 
C27101-P221

>  <fragmenstein_outcome>  (1868) 
acceptable

>  <inchikey>  (1868) 
MFDIPNCNTFUHPG-UHFFFAOYSA-N

>  <fragmenstein_mode>  (1868) 
expansion

>  <HIPPO Pose ID>  (1868) 
23824

>  <Energy>  (1868) 
24.682464

>  <fragmenstein_error>  (1868) 


>  <tags>  (1868) 
{'openbind_xx01zvns2b_c1_fragmenstein', 'fragmenstein_placed'}

>  <ref_pdb>  (1868) 
175

>  <scratch_subdir>  (1868) 
/opt/xchem-fragalysis-2/maxwin/BulkDock/SCRATCH/511028/C27101-P221

>  <alias>  (1868) 
CNCN1C(=O)Cc2c(C(=O)Oc3ccc4c(c3)CNC4)cc(Cl)cc21

>  <HIPPO Compound ID>  (1868) 
33047

>  <fragmenstein_runtime>  (1868) 
2.20725

$$$$
CC(C)NC(=O)[C@@](O)(Oc1ccc2c(c1)CNC2)c1cc(Cl)cc2c1C[C@@](O)(F)N2F
     RDKit          3D

 31 34  0  0  0  0  0  0  0  0999 V2000
   -2.8965    6.7757  -12.3209 C   0  0  0  0  0  0  0  0  0  0  0  0
   -4.3142    7.3281  -12.3795 C   0  0  0  0  0  0  0  0  0  0  0  0
   -4.7479    7.8877  -11.0297 C   0  0  0  0  0  0  0  0  0  0  0  0
   -5.2380    6.3110  -12.8161 N   0  0  0  0  0  0  0  0  0  0  0  0
   -6.5875    6.4333  -13.5871 C   0  0  0  0  0  0  0  0  0  0  0  0
   -7.1894    7.3817  -13.9155 O   0  0  0  0  0  0  0  0  0  0  0  0
   -7.0776    4.9204  -13.8445 C   0  0  1  0  0  0  0  0  0  0  0  0
   -6.0401    4.0090  -13.4499 O   0  0  0  0  0  0  0  0  0  0  0  0
   -8.2956    4.6074  -13.1500 O   0  0  0  0  0  0  0  0  0  0  0  0
   -8.2163    4.5571  -11.7831 C   0  0  0  0  0  0  0  0  0  0  0  0
   -8.0755    5.7215  -11.0118 C   0  0  0  0  0  0  0  0  0  0  0  0
   -8.1004    5.6625   -9.6160 C   0  0  0  0  0  0  0  0  0  0  0  0
   -8.3226    4.4371   -9.0160 C   0  0  0  0  0  0  0  0  0  0  0  0
   -8.5122    3.2907   -9.7759 C   0  0  0  0  0  0  0  0  0  0  0  0
   -8.4552    3.3290  -11.1618 C   0  0  0  0  0  0  0  0  0  0  0  0
   -8.8144    2.1422   -8.8741 C   0  0  0  0  0  0  0  0  0  0  0  0
   -8.7633    2.6699   -7.4831 N   0  0  0  0  0  0  0  0  0  0  0  0
   -8.4606    4.1120   -7.5700 C   0  0  0  0  0  0  0  0  0  0  0  0
   -7.3152    4.7444  -15.3630 C   0  0  0  0  0  0  0  0  0  0  0  0
   -8.5817    4.4029  -15.8836 C   0  0  0  0  0  0  0  0  0  0  0  0
   -8.8013    4.2876  -17.2678 C   0  0  0  0  0  0  0  0  0  0  0  0
  -10.3787    4.0342  -17.8808 Cl  0  0  0  0  0  0  0  0  0  0  0  0
   -7.7726    4.4666  -18.1767 C   0  0  0  0  0  0  0  0  0  0  0  0
   -6.5290    4.8059  -17.6891 C   0  0  0  0  0  0  0  0  0  0  0  0
   -6.3037    4.9509  -16.3139 C   0  0  0  0  0  0  0  0  0  0  0  0
   -4.8875    5.3954  -16.1236 C   0  0  0  0  0  0  0  0  0  0  0  0
   -4.3470    5.4139  -17.5634 C   0  0  1  0  0  0  0  0  0  0  0  0
   -3.7839    6.6660  -17.9009 O   0  0  0  0  0  0  0  0  0  0  0  0
   -3.3342    4.5186  -17.6845 F   0  0  0  0  0  0  0  0  0  0  0  0
   -5.4002    5.0530  -18.5055 N   0  0  0  0  0  0  0  0  0  0  0  0
   -5.7964    6.2531  -19.2057 F   0  0  0  0  0  0  0  0  0  0  0  0
  1  2  1  0
  2  3  1  0
  2  4  1  0
  4  5  1  0
  5  6  2  0
  5  7  1  0
  7  8  1  1
  7  9  1  0
  9 10  1  0
 10 11  2  0
 11 12  1  0
 12 13  2  0
 13 14  1  0
 14 15  2  0
 14 16  1  0
 16 17  1  0
 17 18  1  0
  7 19  1  0
 19 20  2  0
 20 21  1  0
 21 22  1  0
 21 23  2  0
 23 24  1  0
 24 25  2  0
 25 26  1  0
 26 27  1  0
 27 28  1  6
 27 29  1  0
 27 30  1  0
 30 31  1  0
 15 10  1  0
 25 19  1  0
 18 13  1  0
 30 24  1  0
M  END
>  <smiles>  (1869) 
C27123-P221

>  <fragmenstein_outcome>  (1869) 
acceptable

>  <inchikey>  (1869) 
BWDPKFITUUDZKW-UHFFFAOYSA-N

>  <fragmenstein_mode>  (1869) 
expansion

>  <HIPPO Pose ID>  (1869) 
23828

>  <Energy>  (1869) 
108.32201

>  <fragmenstein_error>  (1869) 


>  <tags>  (1869) 
{'openbind_xx01zvns2b_c1_fragmenstein', 'fragmenstein_placed'}

>  <ref_pdb>  (1869) 
175

>  <scratch_subdir>  (1869) 
/opt/xchem-fragalysis-2/maxwin/BulkDock/SCRATCH/511028/C27123-P221

>  <alias>  (1869) 
CC(C)NC(=O)[C@@](O)(Oc1ccc2c(c1)CNC2)c1cc(Cl)cc2c1C[C@@](O)(F)N2F

>  <HIPPO Compound ID>  (1869) 
27123

>  <fragmenstein_runtime>  (1869) 
4.715135

$$$$
O=C(Oc1ccc2c(c1)CNC2)c1cc(Cl)cc2c1CC(=NC1CNC1)N2
     RDKit          3D

 27 31  0  0  0  0  0  0  0  0999 V2000
   -6.2255    5.4987  -13.7182 O   0  0  0  0  0  0  0  0  0  0  0  0
   -7.1963    4.8727  -14.1146 C   0  0  0  0  0  0  0  0  0  0  0  0
   -8.1695    4.2577  -13.3423 O   0  0  0  0  0  0  0  0  0  0  0  0
   -8.1273    4.3593  -11.9327 C   0  0  0  0  0  0  0  0  0  0  0  0
   -7.8486    5.5677  -11.2767 C   0  0  0  0  0  0  0  0  0  0  0  0
   -7.8934    5.6339   -9.8802 C   0  0  0  0  0  0  0  0  0  0  0  0
   -8.2357    4.4915   -9.1748 C   0  0  0  0  0  0  0  0  0  0  0  0
   -8.5385    3.3044   -9.8304 C   0  0  0  0  0  0  0  0  0  0  0  0
   -8.4893    3.2173  -11.2130 C   0  0  0  0  0  0  0  0  0  0  0  0
   -8.9352    2.2713   -8.8301 C   0  0  0  0  0  0  0  0  0  0  0  0
   -8.6929    2.8717   -7.4896 N   0  0  0  0  0  0  0  0  0  0  0  0
   -8.3818    4.3002   -7.7047 C   0  0  0  0  0  0  0  0  0  0  0  0
   -7.4972    4.6774  -15.5600 C   0  0  0  0  0  0  0  0  0  0  0  0
   -8.7752    4.3553  -16.0300 C   0  0  0  0  0  0  0  0  0  0  0  0
   -9.0217    4.2572  -17.4114 C   0  0  0  0  0  0  0  0  0  0  0  0
  -10.6216    4.1568  -17.9938 Cl  0  0  0  0  0  0  0  0  0  0  0  0
   -8.0124    4.3978  -18.3518 C   0  0  0  0  0  0  0  0  0  0  0  0
   -6.7642    4.7201  -17.8917 C   0  0  0  0  0  0  0  0  0  0  0  0
   -6.5125    4.8873  -16.5166 C   0  0  0  0  0  0  0  0  0  0  0  0
   -5.0761    5.3010  -16.3489 C   0  0  0  0  0  0  0  0  0  0  0  0
   -4.5750    5.2647  -17.8085 C   0  0  0  0  0  0  0  0  0  0  0  0
   -3.3241    5.4543  -18.0537 N   0  0  0  0  0  0  0  0  0  0  0  0
   -2.9324    5.4261  -19.4621 C   0  0  0  0  0  0  0  0  0  0  0  0
   -3.2720    6.7347  -20.2138 C   0  0  0  0  0  0  0  0  0  0  0  0
   -1.9527    7.2819  -19.8123 N   0  0  0  0  0  0  0  0  0  0  0  0
   -1.4688    5.8851  -19.6500 C   0  0  0  0  0  0  0  0  0  0  0  0
   -5.6357    5.0132  -18.6485 N   0  0  0  0  0  0  0  0  0  0  0  0
  1  2  2  0
  2  3  1  0
  3  4  1  0
  4  5  2  0
  5  6  1  0
  6  7  2  0
  7  8  1  0
  8  9  2  0
  8 10  1  0
 10 11  1  0
 11 12  1  0
  2 13  1  0
 13 14  2  0
 14 15  1  0
 15 16  1  0
 15 17  2  0
 17 18  1  0
 18 19  2  0
 19 20  1  0
 20 21  1  0
 21 22  2  3
 22 23  1  0
 23 24  1  0
 24 25  1  0
 25 26  1  0
 21 27  1  0
  9  4  1  0
 19 13  1  0
 26 23  1  0
 12  7  1  0
 27 18  1  0
M  END
>  <smiles>  (1870) 
C27126-P221

>  <fragmenstein_outcome>  (1870) 
acceptable

>  <inchikey>  (1870) 
WXEYETWJACHRFY-UHFFFAOYSA-N

>  <fragmenstein_mode>  (1870) 
expansion

>  <HIPPO Pose ID>  (1870) 
23829

>  <Energy>  (1870) 
94.687221

>  <fragmenstein_error>  (1870) 


>  <tags>  (1870) 
{'openbind_xx01zvns2b_c1_fragmenstein', 'fragmenstein_placed'}

>  <ref_pdb>  (1870) 
175

>  <scratch_subdir>  (1870) 
/opt/xchem-fragalysis-2/maxwin/BulkDock/SCRATCH/511028/C27126-P221

>  <alias>  (1870) 
O=C(Oc1ccc2c(c1)CNC2)c1cc(Cl)cc2c1CC(=NC1CNC1)N2

>  <HIPPO Compound ID>  (1870) 
27126

>  <fragmenstein_runtime>  (1870) 
2.68967

$$$$
CNCN1C(=O)Cc2c(C(=O)Oc3ccc4c(c3)CN(C)[C@H]4C)cc(Cl)cc21
     RDKit          3D

 28 31  0  0  0  0  0  0  0  0999 V2000
   -4.0541    6.3927  -21.4697 C   0  0  0  0  0  0  0  0  0  0  0  0
   -4.2950    5.4584  -20.3745 N   0  0  0  0  0  0  0  0  0  0  0  0
   -5.3230    6.0051  -19.5062 C   0  0  0  0  0  0  0  0  0  0  0  0
   -5.3104    5.3282  -18.2437 N   0  0  0  0  0  0  0  0  0  0  0  0
   -4.2959    5.6018  -17.3192 C   0  0  0  0  0  0  0  0  0  0  0  0
   -3.1908    6.0702  -17.5438 O   0  0  0  0  0  0  0  0  0  0  0  0
   -4.8385    5.2970  -15.9307 C   0  0  0  0  0  0  0  0  0  0  0  0
   -6.2576    4.9019  -16.2049 C   0  0  0  0  0  0  0  0  0  0  0  0
   -7.2817    4.6018  -15.3135 C   0  0  0  0  0  0  0  0  0  0  0  0
   -7.0284    4.6805  -13.8473 C   0  0  0  0  0  0  0  0  0  0  0  0
   -6.0106    5.1547  -13.3677 O   0  0  0  0  0  0  0  0  0  0  0  0
   -8.1161    4.1784  -13.1631 O   0  0  0  0  0  0  0  0  0  0  0  0
   -8.1186    4.3111  -11.7630 C   0  0  0  0  0  0  0  0  0  0  0  0
   -7.9376    5.5595  -11.1441 C   0  0  0  0  0  0  0  0  0  0  0  0
   -8.0860    5.6837   -9.7600 C   0  0  0  0  0  0  0  0  0  0  0  0
   -8.4366    4.5565   -9.0337 C   0  0  0  0  0  0  0  0  0  0  0  0
   -8.6130    3.3207   -9.6626 C   0  0  0  0  0  0  0  0  0  0  0  0
   -8.4525    3.1753  -11.0285 C   0  0  0  0  0  0  0  0  0  0  0  0
   -9.0097    2.2974   -8.6482 C   0  0  0  0  0  0  0  0  0  0  0  0
   -9.4174    3.0990   -7.4769 N   0  0  0  0  0  0  0  0  0  0  0  0
   -9.3043    2.3813   -6.2308 C   0  0  0  0  0  0  0  0  0  0  0  0
   -8.7700    4.4230   -7.5712 C   0  0  1  0  0  0  0  0  0  0  0  0
   -7.5690    4.7042   -6.6796 C   0  0  0  0  0  0  0  0  0  0  0  0
   -8.5414    4.3000  -15.8545 C   0  0  0  0  0  0  0  0  0  0  0  0
   -8.7340    4.2941  -17.2449 C   0  0  0  0  0  0  0  0  0  0  0  0
  -10.2939    4.0305  -17.8984 Cl  0  0  0  0  0  0  0  0  0  0  0  0
   -7.6991    4.5891  -18.1239 C   0  0  0  0  0  0  0  0  0  0  0  0
   -6.4749    4.9128  -17.5835 C   0  0  0  0  0  0  0  0  0  0  0  0
  1  2  1  0
  2  3  1  0
  3  4  1  0
  4  5  1  0
  5  6  2  0
  5  7  1  0
  7  8  1  0
  8  9  2  0
  9 10  1  0
 10 11  2  0
 10 12  1  0
 12 13  1  0
 13 14  2  0
 14 15  1  0
 15 16  2  0
 16 17  1  0
 17 18  2  0
 17 19  1  0
 19 20  1  0
 20 21  1  0
 20 22  1  0
 22 23  1  1
  9 24  1  0
 24 25  2  0
 25 26  1  0
 25 27  1  0
 27 28  2  0
 28  4  1  0
 28  8  1  0
 18 13  1  0
 22 16  1  0
M  END
>  <smiles>  (1871) 
C27131-P221

>  <fragmenstein_outcome>  (1871) 
acceptable

>  <inchikey>  (1871) 
ZCHBVEYSAUOOAJ-UHFFFAOYSA-N

>  <fragmenstein_mode>  (1871) 
expansion

>  <HIPPO Pose ID>  (1871) 
23831

>  <Energy>  (1871) 
45.947301

>  <fragmenstein_error>  (1871) 


>  <tags>  (1871) 
{'openbind_xx01zvns2b_c1_fragmenstein', 'fragmenstein_placed'}

>  <ref_pdb>  (1871) 
175

>  <scratch_subdir>  (1871) 
/opt/xchem-fragalysis-2/maxwin/BulkDock/SCRATCH/511028/C27131-P221

>  <alias>  (1871) 
CNCN1C(=O)Cc2c(C(=O)Oc3ccc4c(c3)CN(C)[C@H]4C)cc(Cl)cc21

>  <HIPPO Compound ID>  (1871) 
27131

>  <fragmenstein_runtime>  (1871) 
3.06217

$$$$
CNCN1C(=O)Cc2c(C(=O)Oc3cc4c(c5c3OC(C)(C)C5)CNC4)cc(Cl)cc21
     RDKit          3D

 31 35  0  0  0  0  0  0  0  0999 V2000
   -5.5388    7.7236  -19.5643 C   0  0  0  0  0  0  0  0  0  0  0  0
   -4.6071    6.7173  -20.0393 N   0  0  0  0  0  0  0  0  0  0  0  0
   -4.9907    5.3625  -19.6334 C   0  0  0  0  0  0  0  0  0  0  0  0
   -5.1884    5.2640  -18.2187 N   0  0  0  0  0  0  0  0  0  0  0  0
   -4.1539    5.3484  -17.2941 C   0  0  0  0  0  0  0  0  0  0  0  0
   -2.9613    5.4530  -17.5362 O   0  0  0  0  0  0  0  0  0  0  0  0
   -4.7847    5.2774  -15.9029 C   0  0  0  0  0  0  0  0  0  0  0  0
   -6.2213    4.9573  -16.2049 C   0  0  0  0  0  0  0  0  0  0  0  0
   -7.2779    4.6743  -15.3434 C   0  0  0  0  0  0  0  0  0  0  0  0
   -7.0638    4.6896  -13.8677 C   0  0  0  0  0  0  0  0  0  0  0  0
   -5.9993    4.9944  -13.3519 O   0  0  0  0  0  0  0  0  0  0  0  0
   -8.2333    4.3116  -13.2366 O   0  0  0  0  0  0  0  0  0  0  0  0
   -8.2025    4.3671  -11.8424 C   0  0  0  0  0  0  0  0  0  0  0  0
   -8.4622    3.1965  -11.1274 C   0  0  0  0  0  0  0  0  0  0  0  0
   -8.5241    3.2734   -9.7383 C   0  0  0  0  0  0  0  0  0  0  0  0
   -8.3165    4.4723   -9.0606 C   0  0  0  0  0  0  0  0  0  0  0  0
   -8.0822    5.6243   -9.7749 C   0  0  0  0  0  0  0  0  0  0  0  0
   -8.0472    5.5681  -11.1593 C   0  0  0  0  0  0  0  0  0  0  0  0
   -7.9053    6.7972  -11.7546 O   0  0  0  0  0  0  0  0  0  0  0  0
   -7.5732    7.7004  -10.6627 C   0  0  0  0  0  0  0  0  0  0  0  0
   -8.3797    8.9836  -10.8691 C   0  0  0  0  0  0  0  0  0  0  0  0
   -6.0725    8.0062  -10.7516 C   0  0  0  0  0  0  0  0  0  0  0  0
   -7.9405    7.0225   -9.3224 C   0  0  0  0  0  0  0  0  0  0  0  0
   -8.4598    4.2522   -7.5983 C   0  0  0  0  0  0  0  0  0  0  0  0
   -8.7064    2.8081   -7.4062 N   0  0  0  0  0  0  0  0  0  0  0  0
   -8.8669    2.2026   -8.7573 C   0  0  0  0  0  0  0  0  0  0  0  0
   -8.5221    4.3753  -15.9234 C   0  0  0  0  0  0  0  0  0  0  0  0
   -8.6661    4.3486  -17.3164 C   0  0  0  0  0  0  0  0  0  0  0  0
  -10.1826    4.0331  -18.0252 Cl  0  0  0  0  0  0  0  0  0  0  0  0
   -7.6048    4.6302  -18.1633 C   0  0  0  0  0  0  0  0  0  0  0  0
   -6.3960    4.9466  -17.5901 C   0  0  0  0  0  0  0  0  0  0  0  0
  1  2  1  0
  2  3  1  0
  3  4  1  0
  4  5  1  0
  5  6  2  0
  5  7  1  0
  7  8  1  0
  8  9  2  0
  9 10  1  0
 10 11  2  0
 10 12  1  0
 12 13  1  0
 13 14  2  0
 14 15  1  0
 15 16  2  0
 16 17  1  0
 17 18  2  0
 18 19  1  0
 19 20  1  0
 20 21  1  0
 20 22  1  0
 20 23  1  0
 16 24  1  0
 24 25  1  0
 25 26  1  0
  9 27  1  0
 27 28  2  0
 28 29  1  0
 28 30  1  0
 30 31  2  0
 31  4  1  0
 31  8  1  0
 18 13  1  0
 26 15  1  0
 23 17  1  0
M  END
>  <smiles>  (1872) 
C27132-P221

>  <fragmenstein_outcome>  (1872) 
acceptable

>  <inchikey>  (1872) 
HTCPRPSFBWTTIF-UHFFFAOYSA-N

>  <fragmenstein_mode>  (1872) 
expansion

>  <HIPPO Pose ID>  (1872) 
23832

>  <Energy>  (1872) 
51.913488

>  <fragmenstein_error>  (1872) 


>  <tags>  (1872) 
{'openbind_xx01zvns2b_c1_fragmenstein', 'fragmenstein_placed'}

>  <ref_pdb>  (1872) 
175

>  <scratch_subdir>  (1872) 
/opt/xchem-fragalysis-2/maxwin/BulkDock/SCRATCH/511028/C27132-P221

>  <alias>  (1872) 
CNCN1C(=O)Cc2c(C(=O)Oc3cc4c(c5c3OC(C)(C)C5)CNC4)cc(Cl)cc21

>  <HIPPO Compound ID>  (1872) 
27132

>  <fragmenstein_runtime>  (1872) 
3.895992

$$$$
CNCN1C(=O)Cc2c(C(=O)Oc3cc(F)c4c(c3)CNC4)cc(Cl)cc21
     RDKit          3D

 27 30  0  0  0  0  0  0  0  0999 V2000
   -4.2064    7.6110  -20.0412 C   0  0  0  0  0  0  0  0  0  0  0  0
   -5.5026    6.9481  -19.9782 N   0  0  0  0  0  0  0  0  0  0  0  0
   -5.3393    5.5380  -19.6331 C   0  0  0  0  0  0  0  0  0  0  0  0
   -5.4490    5.3603  -18.2207 N   0  0  0  0  0  0  0  0  0  0  0  0
   -4.3757    5.4550  -17.3452 C   0  0  0  0  0  0  0  0  0  0  0  0
   -3.2007    5.6138  -17.6395 O   0  0  0  0  0  0  0  0  0  0  0  0
   -4.9353    5.3199  -15.9307 C   0  0  0  0  0  0  0  0  0  0  0  0
   -6.3752    4.9690  -16.1767 C   0  0  0  0  0  0  0  0  0  0  0  0
   -7.3890    4.6540  -15.2797 C   0  0  0  0  0  0  0  0  0  0  0  0
   -7.1199    4.7061  -13.8161 C   0  0  0  0  0  0  0  0  0  0  0  0
   -6.0794    5.1355  -13.3427 O   0  0  0  0  0  0  0  0  0  0  0  0
   -8.2200    4.2389  -13.1220 O   0  0  0  0  0  0  0  0  0  0  0  0
   -8.1742    4.3072  -11.7180 C   0  0  0  0  0  0  0  0  0  0  0  0
   -7.8931    5.5082  -11.0514 C   0  0  0  0  0  0  0  0  0  0  0  0
   -7.9462    5.5418   -9.6619 C   0  0  0  0  0  0  0  0  0  0  0  0
   -7.6843    6.6816   -9.0090 F   0  0  0  0  0  0  0  0  0  0  0  0
   -8.2910    4.4014   -8.9667 C   0  0  0  0  0  0  0  0  0  0  0  0
   -8.5930    3.2230   -9.6370 C   0  0  0  0  0  0  0  0  0  0  0  0
   -8.5405    3.1544  -11.0191 C   0  0  0  0  0  0  0  0  0  0  0  0
   -8.9958    2.1820   -8.6497 C   0  0  0  0  0  0  0  0  0  0  0  0
   -8.7513    2.7698   -7.3040 N   0  0  0  0  0  0  0  0  0  0  0  0
   -8.4478    4.2050   -7.5043 C   0  0  0  0  0  0  0  0  0  0  0  0
   -8.6501    4.3371  -15.8129 C   0  0  0  0  0  0  0  0  0  0  0  0
   -8.8593    4.3430  -17.2003 C   0  0  0  0  0  0  0  0  0  0  0  0
  -10.4129    4.0577  -17.8597 Cl  0  0  0  0  0  0  0  0  0  0  0  0
   -7.8408    4.6683  -18.0822 C   0  0  0  0  0  0  0  0  0  0  0  0
   -6.6146    4.9921  -17.5503 C   0  0  0  0  0  0  0  0  0  0  0  0
  1  2  1  0
  2  3  1  0
  3  4  1  0
  4  5  1  0
  5  6  2  0
  5  7  1  0
  7  8  1  0
  8  9  2  0
  9 10  1  0
 10 11  2  0
 10 12  1  0
 12 13  1  0
 13 14  2  0
 14 15  1  0
 15 16  1  0
 15 17  2  0
 17 18  1  0
 18 19  2  0
 18 20  1  0
 20 21  1  0
 21 22  1  0
  9 23  1  0
 23 24  2  0
 24 25  1  0
 24 26  1  0
 26 27  2  0
 27  4  1  0
 27  8  1  0
 19 13  1  0
 22 17  1  0
M  END
>  <smiles>  (1873) 
C27134-P221

>  <fragmenstein_outcome>  (1873) 
acceptable

>  <inchikey>  (1873) 
PWRKCVYLOBXUEM-UHFFFAOYSA-N

>  <fragmenstein_mode>  (1873) 
expansion

>  <HIPPO Pose ID>  (1873) 
23834

>  <Energy>  (1873) 
16.021896

>  <fragmenstein_error>  (1873) 


>  <tags>  (1873) 
{'openbind_xx01zvns2b_c1_fragmenstein', 'fragmenstein_placed'}

>  <ref_pdb>  (1873) 
175

>  <scratch_subdir>  (1873) 
/opt/xchem-fragalysis-2/maxwin/BulkDock/SCRATCH/511028/C27134-P221

>  <alias>  (1873) 
CNCN1C(=O)Cc2c(C(=O)Oc3cc(F)c4c(c3)CNC4)cc(Cl)cc21

>  <HIPPO Compound ID>  (1873) 
36274

>  <fragmenstein_runtime>  (1873) 
4.922665

$$$$
CNCN1C(=O)Cc2c(C(=O)Oc3cc(F)c4c(c3)CNC43CCCC3)cc(Cl)cc21
     RDKit          3D

 31 35  0  0  0  0  0  0  0  0999 V2000
   -6.1620    4.0652  -19.6590 C   0  0  0  0  0  0  0  0  0  0  0  0
   -5.0128    4.9593  -19.6505 N   0  0  0  0  0  0  0  0  0  0  0  0
   -5.3402    6.2059  -18.9931 C   0  0  0  0  0  0  0  0  0  0  0  0
   -5.4880    5.9451  -17.5941 N   0  0  0  0  0  0  0  0  0  0  0  0
   -4.3985    5.8346  -16.7375 C   0  0  0  0  0  0  0  0  0  0  0  0
   -3.2253    5.9838  -17.0424 O   0  0  0  0  0  0  0  0  0  0  0  0
   -4.9461    5.4478  -15.3629 C   0  0  0  0  0  0  0  0  0  0  0  0
   -6.3865    5.1444  -15.6602 C   0  0  0  0  0  0  0  0  0  0  0  0
   -7.3944    4.6261  -14.8598 C   0  0  0  0  0  0  0  0  0  0  0  0
   -7.1593    4.4701  -13.4025 C   0  0  0  0  0  0  0  0  0  0  0  0
   -6.0898    4.7062  -12.8639 O   0  0  0  0  0  0  0  0  0  0  0  0
   -8.3480    4.1212  -12.7981 O   0  0  0  0  0  0  0  0  0  0  0  0
   -8.3435    4.2238  -11.4054 C   0  0  0  0  0  0  0  0  0  0  0  0
   -8.1655    5.4684  -10.7913 C   0  0  0  0  0  0  0  0  0  0  0  0
   -8.2406    5.5526   -9.4080 C   0  0  0  0  0  0  0  0  0  0  0  0
   -8.0858    6.7385   -8.8132 F   0  0  0  0  0  0  0  0  0  0  0  0
   -8.4868    4.4205   -8.6573 C   0  0  0  0  0  0  0  0  0  0  0  0
   -8.7080    3.2014   -9.2927 C   0  0  0  0  0  0  0  0  0  0  0  0
   -8.6463    3.0807  -10.6706 C   0  0  0  0  0  0  0  0  0  0  0  0
   -9.0181    2.1613   -8.2759 C   0  0  0  0  0  0  0  0  0  0  0  0
   -8.6523    2.7610   -6.9657 N   0  0  0  0  0  0  0  0  0  0  0  0
   -8.4892    4.2290   -7.1772 C   0  0  0  0  0  0  0  0  0  0  0  0
   -7.2107    4.7806   -6.5281 C   0  0  0  0  0  0  0  0  0  0  0  0
   -7.4935    4.7539   -5.0313 C   0  0  0  0  0  0  0  0  0  0  0  0
   -8.9897    5.0217   -4.9126 C   0  0  0  0  0  0  0  0  0  0  0  0
   -9.5476    4.9616   -6.3392 C   0  0  0  0  0  0  0  0  0  0  0  0
   -8.6234    4.3049  -15.4708 C   0  0  0  0  0  0  0  0  0  0  0  0
   -8.8238    4.5295  -16.8307 C   0  0  0  0  0  0  0  0  0  0  0  0
  -10.2603    4.0861  -17.6491 Cl  0  0  0  0  0  0  0  0  0  0  0  0
   -7.8598    5.1832  -17.5695 C   0  0  0  0  0  0  0  0  0  0  0  0
   -6.6432    5.4506  -16.9863 C   0  0  0  0  0  0  0  0  0  0  0  0
  1  2  1  0
  2  3  1  0
  3  4  1  0
  4  5  1  0
  5  6  2  0
  5  7  1  0
  7  8  1  0
  8  9  2  0
  9 10  1  0
 10 11  2  0
 10 12  1  0
 12 13  1  0
 13 14  2  0
 14 15  1  0
 15 16  1  0
 15 17  2  0
 17 18  1  0
 18 19  2  0
 18 20  1  0
 20 21  1  0
 21 22  1  0
 22 23  1  0
 23 24  1  0
 24 25  1  0
 25 26  1  0
  9 27  1  0
 27 28  2  0
 28 29  1  0
 28 30  1  0
 30 31  2  0
 31  4  1  0
 31  8  1  0
 19 13  1  0
 26 22  1  0
 22 17  1  0
M  END
>  <smiles>  (1874) 
C27136-P221

>  <fragmenstein_outcome>  (1874) 
acceptable

>  <inchikey>  (1874) 
FFZSWCXOJBABTF-UHFFFAOYSA-N

>  <fragmenstein_mode>  (1874) 
expansion

>  <HIPPO Pose ID>  (1874) 
23835

>  <Energy>  (1874) 
39.387178

>  <fragmenstein_error>  (1874) 


>  <tags>  (1874) 
{'openbind_xx01zvns2b_c1_fragmenstein', 'fragmenstein_placed'}

>  <ref_pdb>  (1874) 
175

>  <scratch_subdir>  (1874) 
/opt/xchem-fragalysis-2/maxwin/BulkDock/SCRATCH/511028/C27136-P221

>  <alias>  (1874) 
CNCN1C(=O)Cc2c(C(=O)Oc3cc(F)c4c(c3)CNC43CCCC3)cc(Cl)cc21

>  <HIPPO Compound ID>  (1874) 
27136

>  <fragmenstein_runtime>  (1874) 
5.984758

$$$$
CCNN1C(=O)Cc2c(C(=O)Oc3ccc4c(c3)CNC4)cccc21
     RDKit          3D

 25 28  0  0  0  0  0  0  0  0999 V2000
   -4.7043    6.5858  -21.7244 C   0  0  0  0  0  0  0  0  0  0  0  0
   -4.9660    6.5446  -20.2273 C   0  0  0  0  0  0  0  0  0  0  0  0
   -5.2790    5.1966  -19.7530 N   0  0  0  0  0  0  0  0  0  0  0  0
   -5.4721    5.1666  -18.3745 N   0  0  0  0  0  0  0  0  0  0  0  0
   -4.4192    5.3971  -17.4685 C   0  0  0  0  0  0  0  0  0  0  0  0
   -3.2443    5.6290  -17.7175 O   0  0  0  0  0  0  0  0  0  0  0  0
   -5.0252    5.3451  -16.0732 C   0  0  0  0  0  0  0  0  0  0  0  0
   -6.4491    4.9432  -16.3299 C   0  0  0  0  0  0  0  0  0  0  0  0
   -7.4627    4.6769  -15.4159 C   0  0  0  0  0  0  0  0  0  0  0  0
   -7.2095    4.8578  -13.9590 C   0  0  0  0  0  0  0  0  0  0  0  0
   -6.2464    5.4748  -13.5291 O   0  0  0  0  0  0  0  0  0  0  0  0
   -8.2147    4.2578  -13.2220 O   0  0  0  0  0  0  0  0  0  0  0  0
   -8.1769    4.3481  -11.8146 C   0  0  0  0  0  0  0  0  0  0  0  0
   -7.9140    5.5553  -11.1485 C   0  0  0  0  0  0  0  0  0  0  0  0
   -7.9562    5.6085   -9.7526 C   0  0  0  0  0  0  0  0  0  0  0  0
   -8.2842    4.4550   -9.0593 C   0  0  0  0  0  0  0  0  0  0  0  0
   -8.5736    3.2703   -9.7260 C   0  0  0  0  0  0  0  0  0  0  0  0
   -8.5233    3.1949  -11.1080 C   0  0  0  0  0  0  0  0  0  0  0  0
   -8.9595    2.2235   -8.7371 C   0  0  0  0  0  0  0  0  0  0  0  0
   -8.7204    2.8127   -7.3908 N   0  0  0  0  0  0  0  0  0  0  0  0
   -8.4285    4.2474   -7.5916 C   0  0  0  0  0  0  0  0  0  0  0  0
   -8.7041    4.2763  -15.9312 C   0  0  0  0  0  0  0  0  0  0  0  0
   -8.9074    4.1458  -17.3179 C   0  0  0  0  0  0  0  0  0  0  0  0
   -7.8780    4.4276  -18.2199 C   0  0  0  0  0  0  0  0  0  0  0  0
   -6.6589    4.8318  -17.7094 C   0  0  0  0  0  0  0  0  0  0  0  0
  1  2  1  0
  2  3  1  0
  3  4  1  0
  4  5  1  0
  5  6  2  0
  5  7  1  0
  7  8  1  0
  8  9  2  0
  9 10  1  0
 10 11  2  0
 10 12  1  0
 12 13  1  0
 13 14  2  0
 14 15  1  0
 15 16  2  0
 16 17  1  0
 17 18  2  0
 17 19  1  0
 19 20  1  0
 20 21  1  0
  9 22  1  0
 22 23  2  0
 23 24  1  0
 24 25  2  0
 25  4  1  0
 25  8  1  0
 18 13  1  0
 21 16  1  0
M  END
>  <smiles>  (1875) 
C27145-P221

>  <fragmenstein_outcome>  (1875) 
acceptable

>  <inchikey>  (1875) 
KYSSRXPYYMABFA-UHFFFAOYSA-N

>  <fragmenstein_mode>  (1875) 
expansion

>  <HIPPO Pose ID>  (1875) 
23837

>  <Energy>  (1875) 
107.82808

>  <fragmenstein_error>  (1875) 


>  <tags>  (1875) 
{'openbind_xx01zvns2b_c1_fragmenstein', 'fragmenstein_placed'}

>  <ref_pdb>  (1875) 
175

>  <scratch_subdir>  (1875) 
/opt/xchem-fragalysis-2/maxwin/BulkDock/SCRATCH/511028/C27145-P221

>  <alias>  (1875) 
CCNN1C(=O)Cc2c(C(=O)Oc3ccc4c(c3)CNC4)cccc21

>  <HIPPO Compound ID>  (1875) 
25699

>  <fragmenstein_runtime>  (1875) 
5.835898

$$$$
CNC[C@@H]1Cc2c(cc(Cl)cc2C(=O)Oc2ccc3c(c2)CNC3)N1
     RDKit          3D

 25 28  0  0  0  0  0  0  0  0999 V2000
   -2.0059    6.3692  -15.6020 C   0  0  0  0  0  0  0  0  0  0  0  0
   -2.1859    6.5609  -17.0282 N   0  0  0  0  0  0  0  0  0  0  0  0
   -3.1527    5.6638  -17.6740 C   0  0  0  0  0  0  0  0  0  0  0  0
   -4.6272    5.9784  -17.3831 C   0  0  2  0  0  0  0  0  0  0  0  0
   -5.0829    5.5431  -15.9795 C   0  0  0  0  0  0  0  0  0  0  0  0
   -6.4693    5.0740  -16.2446 C   0  0  0  0  0  0  0  0  0  0  0  0
   -6.6515    4.9722  -17.6223 C   0  0  0  0  0  0  0  0  0  0  0  0
   -7.8400    4.5308  -18.1520 C   0  0  0  0  0  0  0  0  0  0  0  0
   -8.8789    4.2641  -17.2714 C   0  0  0  0  0  0  0  0  0  0  0  0
  -10.4352    3.9942  -17.9258 Cl  0  0  0  0  0  0  0  0  0  0  0  0
   -8.7026    4.3350  -15.8802 C   0  0  0  0  0  0  0  0  0  0  0  0
   -7.4709    4.7288  -15.3438 C   0  0  0  0  0  0  0  0  0  0  0  0
   -7.2212    4.8423  -13.8775 C   0  0  0  0  0  0  0  0  0  0  0  0
   -6.2379    5.3913  -13.4038 O   0  0  0  0  0  0  0  0  0  0  0  0
   -8.2585    4.2549  -13.1776 O   0  0  0  0  0  0  0  0  0  0  0  0
   -8.2198    4.3055  -11.7700 C   0  0  0  0  0  0  0  0  0  0  0  0
   -8.0120    5.5091  -11.0757 C   0  0  0  0  0  0  0  0  0  0  0  0
   -8.0792    5.5327   -9.6797 C   0  0  0  0  0  0  0  0  0  0  0  0
   -8.3871    4.3550   -9.0193 C   0  0  0  0  0  0  0  0  0  0  0  0
   -8.6007    3.1675   -9.7157 C   0  0  0  0  0  0  0  0  0  0  0  0
   -8.5162    3.1208  -11.0954 C   0  0  0  0  0  0  0  0  0  0  0  0
   -8.9092    2.0772   -8.7418 C   0  0  0  0  0  0  0  0  0  0  0  0
   -9.2221    2.7777   -7.4658 N   0  0  0  0  0  0  0  0  0  0  0  0
   -8.5483    4.0913   -7.5596 C   0  0  0  0  0  0  0  0  0  0  0  0
   -5.5378    5.3863  -18.3830 N   0  0  0  0  0  0  0  0  0  0  0  0
  1  2  1  0
  2  3  1  0
  4  3  1  6
  4  5  1  0
  5  6  1  0
  6  7  2  0
  7  8  1  0
  8  9  2  0
  9 10  1  0
  9 11  1  0
 11 12  2  0
 12 13  1  0
 13 14  2  0
 13 15  1  0
 15 16  1  0
 16 17  2  0
 17 18  1  0
 18 19  2  0
 19 20  1  0
 20 21  2  0
 20 22  1  0
 22 23  1  0
 23 24  1  0
  7 25  1  0
 25  4  1  0
 12  6  1  0
 21 16  1  0
 24 19  1  0
M  END
>  <smiles>  (1876) 
C27146-P221

>  <fragmenstein_outcome>  (1876) 
acceptable

>  <inchikey>  (1876) 
WUVCUBOQEWEPNR-UHFFFAOYSA-N

>  <fragmenstein_mode>  (1876) 
expansion

>  <HIPPO Pose ID>  (1876) 
23838

>  <Energy>  (1876) 
93.654454

>  <fragmenstein_error>  (1876) 


>  <tags>  (1876) 
{'openbind_xx01zvns2b_c1_fragmenstein', 'fragmenstein_placed'}

>  <ref_pdb>  (1876) 
175

>  <scratch_subdir>  (1876) 
/opt/xchem-fragalysis-2/maxwin/BulkDock/SCRATCH/511028/C27146-P221

>  <alias>  (1876) 
CNC[C@@H]1Cc2c(cc(Cl)cc2C(=O)Oc2ccc3c(c2)CNC3)N1

>  <HIPPO Compound ID>  (1876) 
42698

>  <fragmenstein_runtime>  (1876) 
2.717212

$$$$
O=C(Oc1ccc2c(c1)CNC2)c1cc(F)cc2c1C[C@@]1(O)COCN21
     RDKit          3D

 26 30  0  0  0  0  0  0  0  0999 V2000
   -5.9860    5.3105  -13.4798 O   0  0  0  0  0  0  0  0  0  0  0  0
   -6.9848    4.7660  -13.9239 C   0  0  0  0  0  0  0  0  0  0  0  0
   -8.0095    4.1798  -13.1995 O   0  0  0  0  0  0  0  0  0  0  0  0
   -8.0310    4.2594  -11.7925 C   0  0  0  0  0  0  0  0  0  0  0  0
   -7.8264    5.4697  -11.1132 C   0  0  0  0  0  0  0  0  0  0  0  0
   -7.9623    5.5197   -9.7220 C   0  0  0  0  0  0  0  0  0  0  0  0
   -8.3244    4.3604   -9.0546 C   0  0  0  0  0  0  0  0  0  0  0  0
   -8.5351    3.1665   -9.7396 C   0  0  0  0  0  0  0  0  0  0  0  0
   -8.3933    3.0957  -11.1131 C   0  0  0  0  0  0  0  0  0  0  0  0
   -8.8950    2.0948   -8.7631 C   0  0  0  0  0  0  0  0  0  0  0  0
   -9.2226    2.8143   -7.5014 N   0  0  0  0  0  0  0  0  0  0  0  0
   -8.5367    4.1212   -7.5973 C   0  0  0  0  0  0  0  0  0  0  0  0
   -7.3022    4.6764  -15.3795 C   0  0  0  0  0  0  0  0  0  0  0  0
   -8.5286    4.1778  -15.8416 C   0  0  0  0  0  0  0  0  0  0  0  0
   -8.8013    4.1212  -17.2081 C   0  0  0  0  0  0  0  0  0  0  0  0
   -9.9677    3.6181  -17.6269 F   0  0  0  0  0  0  0  0  0  0  0  0
   -7.9043    4.6104  -18.1438 C   0  0  0  0  0  0  0  0  0  0  0  0
   -6.7117    5.1506  -17.6974 C   0  0  0  0  0  0  0  0  0  0  0  0
   -6.3968    5.1388  -16.3340 C   0  0  0  0  0  0  0  0  0  0  0  0
   -5.0125    5.6867  -16.1536 C   0  0  0  0  0  0  0  0  0  0  0  0
   -4.5989    6.0004  -17.6077 C   0  0  1  0  0  0  0  0  0  0  0  0
   -4.1691    7.3435  -17.7309 O   0  0  0  0  0  0  0  0  0  0  0  0
   -3.5512    5.0924  -18.2412 C   0  0  0  0  0  0  0  0  0  0  0  0
   -3.8873    5.0343  -19.6422 O   0  0  0  0  0  0  0  0  0  0  0  0
   -5.3229    5.2159  -19.7083 C   0  0  0  0  0  0  0  0  0  0  0  0
   -5.7553    5.8239  -18.4670 N   0  0  0  0  0  0  0  0  0  0  0  0
  1  2  2  0
  2  3  1  0
  3  4  1  0
  4  5  2  0
  5  6  1  0
  6  7  2  0
  7  8  1  0
  8  9  2  0
  8 10  1  0
 10 11  1  0
 11 12  1  0
  2 13  1  0
 13 14  2  0
 14 15  1  0
 15 16  1  0
 15 17  2  0
 17 18  1  0
 18 19  2  0
 19 20  1  0
 20 21  1  0
 21 22  1  1
 21 23  1  0
 23 24  1  0
 24 25  1  0
 25 26  1  0
  9  4  1  0
 19 13  1  0
 26 21  1  0
 12  7  1  0
 26 18  1  0
M  END
>  <smiles>  (1877) 
C27153-P221

>  <fragmenstein_outcome>  (1877) 
acceptable

>  <inchikey>  (1877) 
FAIPFNQEBLYXJM-UHFFFAOYSA-N

>  <fragmenstein_mode>  (1877) 
expansion

>  <HIPPO Pose ID>  (1877) 
23841

>  <Energy>  (1877) 
64.541842

>  <fragmenstein_error>  (1877) 


>  <tags>  (1877) 
{'openbind_xx01zvns2b_c1_fragmenstein', 'fragmenstein_placed'}

>  <ref_pdb>  (1877) 
175

>  <scratch_subdir>  (1877) 
/opt/xchem-fragalysis-2/maxwin/BulkDock/SCRATCH/511028/C27153-P221

>  <alias>  (1877) 
O=C(Oc1ccc2c(c1)CNC2)c1cc(F)cc2c1C[C@@]1(O)COCN21

>  <HIPPO Compound ID>  (1877) 
34558

>  <fragmenstein_runtime>  (1877) 
3.011305

$$$$
NCc1ccc([C@@H](N=O)Oc2ccc3c(c2)CNC3)c2c1NC(=O)C2
     RDKit          3D

 25 28  0  0  0  0  0  0  0  0999 V2000
   -7.9829    3.4908  -19.8971 N   0  0  0  0  0  0  0  0  0  0  0  0
   -8.9616    3.8583  -18.8788 C   0  0  0  0  0  0  0  0  0  0  0  0
   -8.3600    4.2864  -17.5932 C   0  0  0  0  0  0  0  0  0  0  0  0
   -9.1959    4.2436  -16.4825 C   0  0  0  0  0  0  0  0  0  0  0  0
   -8.7228    4.5473  -15.2111 C   0  0  0  0  0  0  0  0  0  0  0  0
   -7.3861    4.9204  -14.9762 C   0  0  0  0  0  0  0  0  0  0  0  0
   -7.0121    5.2645  -13.5383 C   0  0  1  0  0  0  0  0  0  0  0  0
   -7.5121    4.2212  -12.5628 N   0  0  0  0  0  0  0  0  0  0  0  0
   -8.3553    4.6600  -11.7720 O   0  0  0  0  0  0  0  0  0  0  0  0
   -5.7042    5.8435  -13.3996 O   0  0  0  0  0  0  0  0  0  0  0  0
   -4.6101    5.1222  -13.0203 C   0  0  0  0  0  0  0  0  0  0  0  0
   -3.4479    5.8992  -12.8395 C   0  0  0  0  0  0  0  0  0  0  0  0
   -2.2237    5.3177  -12.4905 C   0  0  0  0  0  0  0  0  0  0  0  0
   -2.1798    3.9473  -12.3243 C   0  0  0  0  0  0  0  0  0  0  0  0
   -3.3215    3.1750  -12.4909 C   0  0  0  0  0  0  0  0  0  0  0  0
   -4.5374    3.7436  -12.8484 C   0  0  0  0  0  0  0  0  0  0  0  0
   -3.0034    1.7431  -12.2079 C   0  0  0  0  0  0  0  0  0  0  0  0
   -1.5226    1.6802  -12.1234 N   0  0  0  0  0  0  0  0  0  0  0  0
   -1.0372    3.0677  -11.9469 C   0  0  0  0  0  0  0  0  0  0  0  0
   -6.5635    5.0095  -16.0997 C   0  0  0  0  0  0  0  0  0  0  0  0
   -7.0629    4.7084  -17.3751 C   0  0  0  0  0  0  0  0  0  0  0  0
   -6.0618    4.8742  -18.3229 N   0  0  0  0  0  0  0  0  0  0  0  0
   -4.8611    5.2347  -17.7481 C   0  0  0  0  0  0  0  0  0  0  0  0
   -3.8000    5.4025  -18.3293 O   0  0  0  0  0  0  0  0  0  0  0  0
   -5.1117    5.3820  -16.2481 C   0  0  0  0  0  0  0  0  0  0  0  0
  1  2  1  0
  2  3  1  0
  3  4  2  0
  4  5  1  0
  5  6  2  0
  6  7  1  0
  7  8  1  0
  8  9  2  0
  7 10  1  6
 10 11  1  0
 11 12  2  0
 12 13  1  0
 13 14  2  0
 14 15  1  0
 15 16  2  0
 15 17  1  0
 17 18  1  0
 18 19  1  0
  6 20  1  0
 20 21  2  0
 21 22  1  0
 22 23  1  0
 23 24  2  0
 23 25  1  0
 21  3  1  0
 16 11  1  0
 25 20  1  0
 19 14  1  0
M  END
>  <smiles>  (1878) 
C27154-P221

>  <fragmenstein_outcome>  (1878) 
acceptable

>  <inchikey>  (1878) 
GSSRWDSUEPGDHK-UHFFFAOYSA-N

>  <fragmenstein_mode>  (1878) 
expansion

>  <HIPPO Pose ID>  (1878) 
23842

>  <Energy>  (1878) 
70.960327

>  <fragmenstein_error>  (1878) 


>  <tags>  (1878) 
{'openbind_xx01zvns2b_c1_fragmenstein', 'fragmenstein_placed'}

>  <ref_pdb>  (1878) 
175

>  <scratch_subdir>  (1878) 
/opt/xchem-fragalysis-2/maxwin/BulkDock/SCRATCH/511028/C27154-P221

>  <alias>  (1878) 
NCc1ccc([C@@H](N=O)Oc2ccc3c(c2)CNC3)c2c1NC(=O)C2

>  <HIPPO Compound ID>  (1878) 
27154

>  <fragmenstein_runtime>  (1878) 
2.477028

$$$$
NN1C(=O)Cc2c(C(=O)Oc3ccc4c(c3)CNC4)cc(Br)cc21
     RDKit          3D

 24 27  0  0  0  0  0  0  0  0999 V2000
   -5.5003    5.4696  -19.8670 N   0  0  0  0  0  0  0  0  0  0  0  0
   -5.4831    5.1539  -18.5151 N   0  0  0  0  0  0  0  0  0  0  0  0
   -4.3769    5.4028  -17.6853 C   0  0  0  0  0  0  0  0  0  0  0  0
   -3.2287    5.6597  -18.0190 O   0  0  0  0  0  0  0  0  0  0  0  0
   -4.8835    5.2946  -16.2405 C   0  0  0  0  0  0  0  0  0  0  0  0
   -6.3264    4.9056  -16.4071 C   0  0  0  0  0  0  0  0  0  0  0  0
   -7.3120    4.6579  -15.4553 C   0  0  0  0  0  0  0  0  0  0  0  0
   -7.0066    4.7789  -14.0019 C   0  0  0  0  0  0  0  0  0  0  0  0
   -5.9899    5.3060  -13.5789 O   0  0  0  0  0  0  0  0  0  0  0  0
   -8.0432    4.2319  -13.2630 O   0  0  0  0  0  0  0  0  0  0  0  0
   -8.0360    4.3312  -11.8556 C   0  0  0  0  0  0  0  0  0  0  0  0
   -7.7469    5.5360  -11.1981 C   0  0  0  0  0  0  0  0  0  0  0  0
   -7.8297    5.6085   -9.8044 C   0  0  0  0  0  0  0  0  0  0  0  0
   -8.2151    4.4754   -9.1063 C   0  0  0  0  0  0  0  0  0  0  0  0
   -8.5289    3.2930   -9.7665 C   0  0  0  0  0  0  0  0  0  0  0  0
   -8.4481    3.2007  -11.1463 C   0  0  0  0  0  0  0  0  0  0  0  0
   -8.9724    2.2725   -8.7732 C   0  0  0  0  0  0  0  0  0  0  0  0
   -8.7114    2.8594   -7.4305 N   0  0  0  0  0  0  0  0  0  0  0  0
   -8.3998    4.2890   -7.6396 C   0  0  0  0  0  0  0  0  0  0  0  0
   -8.6026    4.3627  -15.9240 C   0  0  0  0  0  0  0  0  0  0  0  0
   -8.8605    4.3109  -17.3020 C   0  0  0  0  0  0  0  0  0  0  0  0
  -10.6094    4.1527  -17.9516 Br  0  0  0  0  0  0  0  0  0  0  0  0
   -7.8642    4.5133  -18.2412 C   0  0  0  0  0  0  0  0  0  0  0  0
   -6.6160    4.8354  -17.7721 C   0  0  0  0  0  0  0  0  0  0  0  0
  1  2  1  0
  2  3  1  0
  3  4  2  0
  3  5  1  0
  5  6  1  0
  6  7  2  0
  7  8  1  0
  8  9  2  0
  8 10  1  0
 10 11  1  0
 11 12  2  0
 12 13  1  0
 13 14  2  0
 14 15  1  0
 15 16  2  0
 15 17  1  0
 17 18  1  0
 18 19  1  0
  7 20  1  0
 20 21  2  0
 21 22  1  0
 21 23  1  0
 23 24  2  0
 24  2  1  0
 24  6  1  0
 16 11  1  0
 19 14  1  0
M  END
>  <smiles>  (1879) 
C27156-P221

>  <fragmenstein_outcome>  (1879) 
acceptable

>  <inchikey>  (1879) 
PDNHLWMOIXSQND-UHFFFAOYSA-N

>  <fragmenstein_mode>  (1879) 
expansion

>  <HIPPO Pose ID>  (1879) 
23843

>  <Energy>  (1879) 
105.850617

>  <fragmenstein_error>  (1879) 


>  <tags>  (1879) 
{'openbind_xx01zvns2b_c1_fragmenstein', 'fragmenstein_placed'}

>  <ref_pdb>  (1879) 
175

>  <scratch_subdir>  (1879) 
/opt/xchem-fragalysis-2/maxwin/BulkDock/SCRATCH/511028/C27156-P221

>  <alias>  (1879) 
NN1C(=O)Cc2c(C(=O)Oc3ccc4c(c3)CNC4)cc(Br)cc21

>  <HIPPO Compound ID>  (1879) 
27156

>  <fragmenstein_runtime>  (1879) 
1.693032

$$$$
O=C(Oc1ccc2c(c1)CNC2)[C@H]1C[C@H](Cl)C[C@H]2[C@@H]1C[C@@H]1OCCCNCN12
     RDKit          3D

 28 32  0  0  0  0  0  0  0  0999 V2000
   -8.4983    6.1212  -13.7662 O   0  0  0  0  0  0  0  0  0  0  0  0
   -7.9523    5.0557  -14.0311 C   0  0  0  0  0  0  0  0  0  0  0  0
   -7.5949    4.0601  -13.1294 O   0  0  0  0  0  0  0  0  0  0  0  0
   -7.8451    4.2464  -11.7550 C   0  0  0  0  0  0  0  0  0  0  0  0
   -7.5283    5.4416  -11.0921 C   0  0  0  0  0  0  0  0  0  0  0  0
   -7.7166    5.5468   -9.7112 C   0  0  0  0  0  0  0  0  0  0  0  0
   -8.1930    4.4415   -9.0261 C   0  0  0  0  0  0  0  0  0  0  0  0
   -8.5100    3.2613   -9.6901 C   0  0  0  0  0  0  0  0  0  0  0  0
   -8.3405    3.1420  -11.0588 C   0  0  0  0  0  0  0  0  0  0  0  0
   -9.0337    2.2678   -8.7087 C   0  0  0  0  0  0  0  0  0  0  0  0
   -8.7630    2.8423   -7.3617 N   0  0  0  0  0  0  0  0  0  0  0  0
   -8.4542    4.2736   -7.5688 C   0  0  0  0  0  0  0  0  0  0  0  0
   -7.6249    4.6083  -15.4496 C   0  0  1  0  0  0  0  0  0  0  0  0
   -8.9575    4.4690  -16.1860 C   0  0  0  0  0  0  0  0  0  0  0  0
   -8.8302    4.2186  -17.6865 C   0  0  2  0  0  0  0  0  0  0  0  0
   -9.3224    2.5665  -18.0848 Cl  0  0  0  0  0  0  0  0  0  0  0  0
   -7.4266    4.4169  -18.2317 C   0  0  0  0  0  0  0  0  0  0  0  0
   -6.7706    5.6679  -17.6677 C   0  0  1  0  0  0  0  0  0  0  0  0
   -6.6556    5.5891  -16.1346 C   0  0  2  0  0  0  0  0  0  0  0  0
   -5.1792    5.2944  -15.8701 C   0  0  0  0  0  0  0  0  0  0  0  0
   -4.5121    5.2472  -17.2464 C   0  0  2  0  0  0  0  0  0  0  0  0
   -3.1806    5.7267  -17.1433 O   0  0  0  0  0  0  0  0  0  0  0  0
   -3.0278    7.1386  -17.1907 C   0  0  0  0  0  0  0  0  0  0  0  0
   -2.5396    7.6090  -18.5574 C   0  0  0  0  0  0  0  0  0  0  0  0
   -3.5719    7.5294  -19.6843 C   0  0  0  0  0  0  0  0  0  0  0  0
   -3.9029    6.1515  -20.0357 N   0  0  0  0  0  0  0  0  0  0  0  0
   -5.2039    5.7176  -19.5384 C   0  0  0  0  0  0  0  0  0  0  0  0
   -5.4062    5.9868  -18.1234 N   0  0  0  0  0  0  0  0  0  0  0  0
  1  2  2  0
  2  3  1  0
  3  4  1  0
  4  5  2  0
  5  6  1  0
  6  7  2  0
  7  8  1  0
  8  9  2  0
  8 10  1  0
 10 11  1  0
 11 12  1  0
 13  2  1  1
 13 14  1  0
 14 15  1  0
 15 16  1  1
 15 17  1  0
 18 17  1  6
 18 19  1  0
 19 20  1  6
 21 20  1  1
 21 22  1  0
 22 23  1  0
 23 24  1  0
 24 25  1  0
 25 26  1  0
 26 27  1  0
 27 28  1  0
  9  4  1  0
 19 13  1  0
 28 21  1  0
 12  7  1  0
 28 18  1  0
M  END
>  <smiles>  (1880) 
C27157-P221

>  <fragmenstein_outcome>  (1880) 
acceptable

>  <inchikey>  (1880) 
FTMPVUPOCIMBHZ-UHFFFAOYSA-N

>  <fragmenstein_mode>  (1880) 
expansion

>  <HIPPO Pose ID>  (1880) 
23844

>  <Energy>  (1880) 
0.011357

>  <fragmenstein_error>  (1880) 


>  <tags>  (1880) 
{'openbind_xx01zvns2b_c1_fragmenstein', 'fragmenstein_placed'}

>  <ref_pdb>  (1880) 
175

>  <scratch_subdir>  (1880) 
/opt/xchem-fragalysis-2/maxwin/BulkDock/SCRATCH/511028/C27157-P221

>  <alias>  (1880) 
O=C(Oc1ccc2c(c1)CNC2)[C@H]1C[C@H](Cl)C[C@H]2[C@@H]1C[C@@H]1OCCCNCN12

>  <HIPPO Compound ID>  (1880) 
21657

>  <fragmenstein_runtime>  (1880) 
3.854306

$$$$
O=C(Oc1ccc2c(c1)CNC2)c1cc(Cl)cc2c1CC(=O)[C@]21CCNC1
     RDKit          3D

 27 31  0  0  0  0  0  0  0  0999 V2000
   -6.0568    5.1410  -13.2952 O   0  0  0  0  0  0  0  0  0  0  0  0
   -7.0906    4.7258  -13.7968 C   0  0  0  0  0  0  0  0  0  0  0  0
   -8.2129    4.2722  -13.1305 O   0  0  0  0  0  0  0  0  0  0  0  0
   -8.1816    4.3362  -11.7262 C   0  0  0  0  0  0  0  0  0  0  0  0
   -7.9091    5.5395  -11.0551 C   0  0  0  0  0  0  0  0  0  0  0  0
   -7.9573    5.5878   -9.6605 C   0  0  0  0  0  0  0  0  0  0  0  0
   -8.2994    4.4335   -8.9757 C   0  0  0  0  0  0  0  0  0  0  0  0
   -8.5979    3.2537   -9.6494 C   0  0  0  0  0  0  0  0  0  0  0  0
   -8.5441    3.1829  -11.0308 C   0  0  0  0  0  0  0  0  0  0  0  0
   -9.0030    2.2090   -8.6662 C   0  0  0  0  0  0  0  0  0  0  0  0
   -8.7347    2.7814   -7.3188 N   0  0  0  0  0  0  0  0  0  0  0  0
   -8.4575    4.2206   -7.5100 C   0  0  0  0  0  0  0  0  0  0  0  0
   -7.3192    4.6911  -15.2721 C   0  0  0  0  0  0  0  0  0  0  0  0
   -8.5452    4.3107  -15.8369 C   0  0  0  0  0  0  0  0  0  0  0  0
   -8.7171    4.3167  -17.2272 C   0  0  0  0  0  0  0  0  0  0  0  0
  -10.2474    3.9762  -17.9094 Cl  0  0  0  0  0  0  0  0  0  0  0  0
   -7.6916    4.6989  -18.0836 C   0  0  0  0  0  0  0  0  0  0  0  0
   -6.4947    5.1215  -17.5359 C   0  0  0  0  0  0  0  0  0  0  0  0
   -6.3032    5.0968  -16.1421 C   0  0  0  0  0  0  0  0  0  0  0  0
   -4.9186    5.5560  -15.7815 C   0  0  0  0  0  0  0  0  0  0  0  0
   -4.2921    5.8493  -17.1293 C   0  0  0  0  0  0  0  0  0  0  0  0
   -3.1224    6.1810  -17.2784 O   0  0  0  0  0  0  0  0  0  0  0  0
   -5.3043    5.6909  -18.2633 C   0  0  2  0  0  0  0  0  0  0  0  0
   -5.5838    7.0148  -18.9521 C   0  0  0  0  0  0  0  0  0  0  0  0
   -4.5090    7.0893  -20.0212 C   0  0  0  0  0  0  0  0  0  0  0  0
   -4.3205    5.7202  -20.4869 N   0  0  0  0  0  0  0  0  0  0  0  0
   -4.6921    4.8424  -19.3553 C   0  0  0  0  0  0  0  0  0  0  0  0
  1  2  2  0
  2  3  1  0
  3  4  1  0
  4  5  2  0
  5  6  1  0
  6  7  2  0
  7  8  1  0
  8  9  2  0
  8 10  1  0
 10 11  1  0
 11 12  1  0
  2 13  1  0
 13 14  2  0
 14 15  1  0
 15 16  1  0
 15 17  2  0
 17 18  1  0
 18 19  2  0
 19 20  1  0
 20 21  1  0
 21 22  2  0
 21 23  1  0
 23 24  1  6
 24 25  1  0
 25 26  1  0
 26 27  1  0
  9  4  1  0
 19 13  1  0
 27 23  1  0
 12  7  1  0
 23 18  1  0
M  END
>  <smiles>  (1881) 
C27160-P221

>  <fragmenstein_outcome>  (1881) 
acceptable

>  <inchikey>  (1881) 
XJDFENRJAJOBKR-UHFFFAOYSA-N

>  <fragmenstein_mode>  (1881) 
expansion

>  <HIPPO Pose ID>  (1881) 
23845

>  <Energy>  (1881) 
100.917291

>  <fragmenstein_error>  (1881) 


>  <tags>  (1881) 
{'openbind_xx01zvns2b_c1_fragmenstein', 'fragmenstein_placed'}

>  <ref_pdb>  (1881) 
175

>  <scratch_subdir>  (1881) 
/opt/xchem-fragalysis-2/maxwin/BulkDock/SCRATCH/511028/C27160-P221

>  <alias>  (1881) 
O=C(Oc1ccc2c(c1)CNC2)c1cc(Cl)cc2c1CC(=O)[C@]21CCNC1

>  <HIPPO Compound ID>  (1881) 
35377

>  <fragmenstein_runtime>  (1881) 
2.707873

$$$$
CCC(C)=C1Cc2c(C(=O)Nc3cnc4c(c3)CNC4)cccc2N1CC#N
     RDKit          3D

 28 31  0  0  0  0  0  0  0  0999 V2000
   -1.8846    6.3812  -19.4969 C   0  0  0  0  0  0  0  0  0  0  0  0
   -2.3170    5.2054  -18.6341 C   0  0  0  0  0  0  0  0  0  0  0  0
   -3.1829    5.5915  -17.4513 C   0  0  0  0  0  0  0  0  0  0  0  0
   -2.3672    6.1451  -16.2991 C   0  0  0  0  0  0  0  0  0  0  0  0
   -4.5187    5.3943  -17.3432 C   0  0  0  0  0  0  0  0  0  0  0  0
   -5.2652    5.5791  -16.0018 C   0  0  0  0  0  0  0  0  0  0  0  0
   -6.6300    5.0424  -16.3094 C   0  0  0  0  0  0  0  0  0  0  0  0
   -7.7119    4.8622  -15.4635 C   0  0  0  0  0  0  0  0  0  0  0  0
   -7.6548    5.3318  -14.0573 C   0  0  0  0  0  0  0  0  0  0  0  0
   -7.3394    6.4378  -13.8592 O   0  0  0  0  0  0  0  0  0  0  0  0
   -8.1080    4.2291  -13.0759 N   0  0  0  0  0  0  0  0  0  0  0  0
   -8.1748    4.2278  -11.6844 C   0  0  0  0  0  0  0  0  0  0  0  0
   -7.9058    5.3713  -10.9195 C   0  0  0  0  0  0  0  0  0  0  0  0
   -7.9948    5.4344   -9.5634 N   0  0  0  0  0  0  0  0  0  0  0  0
   -8.3552    4.2787   -8.9770 C   0  0  0  0  0  0  0  0  0  0  0  0
   -8.6269    3.0979   -9.6441 C   0  0  0  0  0  0  0  0  0  0  0  0
   -8.5379    3.0571  -11.0217 C   0  0  0  0  0  0  0  0  0  0  0  0
   -8.9738    2.0361   -8.6580 C   0  0  0  0  0  0  0  0  0  0  0  0
   -9.2656    2.7528   -7.3858 N   0  0  0  0  0  0  0  0  0  0  0  0
   -8.5537    4.0519   -7.5035 C   0  0  0  0  0  0  0  0  0  0  0  0
   -8.8887    4.3331  -15.9970 C   0  0  0  0  0  0  0  0  0  0  0  0
   -8.9781    4.0310  -17.3617 C   0  0  0  0  0  0  0  0  0  0  0  0
   -7.8824    4.2318  -18.2050 C   0  0  0  0  0  0  0  0  0  0  0  0
   -6.6996    4.7252  -17.6717 C   0  0  0  0  0  0  0  0  0  0  0  0
   -5.4512    4.9396  -18.2900 N   0  0  0  0  0  0  0  0  0  0  0  0
   -5.4483    5.2284  -19.7220 C   0  0  0  0  0  0  0  0  0  0  0  0
   -5.5044    6.6680  -20.0302 C   0  0  0  0  0  0  0  0  0  0  0  0
   -5.5259    7.8088  -20.2642 N   0  0  0  0  0  0  0  0  0  0  0  0
  1  2  1  0
  2  3  1  0
  3  4  1  0
  3  5  2  3
  5  6  1  0
  6  7  1  0
  7  8  2  0
  8  9  1  0
  9 10  2  0
  9 11  1  0
 11 12  1  0
 12 13  2  0
 13 14  1  0
 14 15  2  0
 15 16  1  0
 16 17  2  0
 16 18  1  0
 18 19  1  0
 19 20  1  0
  8 21  1  0
 21 22  2  0
 22 23  1  0
 23 24  2  0
 24 25  1  0
 25 26  1  0
 26 27  1  0
 27 28  3  0
 25  5  1  0
 24  7  1  0
 17 12  1  0
 20 15  1  0
M  END
>  <smiles>  (1882) 
C27162-P221

>  <fragmenstein_outcome>  (1882) 
acceptable

>  <inchikey>  (1882) 
VFJFSVSNHZQQRN-UHFFFAOYSA-N

>  <fragmenstein_mode>  (1882) 
expansion

>  <HIPPO Pose ID>  (1882) 
23846

>  <Energy>  (1882) 
125.806623

>  <fragmenstein_error>  (1882) 


>  <tags>  (1882) 
{'openbind_xx01zvns2b_c1_fragmenstein', 'fragmenstein_placed'}

>  <ref_pdb>  (1882) 
175

>  <scratch_subdir>  (1882) 
/opt/xchem-fragalysis-2/maxwin/BulkDock/SCRATCH/511028/C27162-P221

>  <alias>  (1882) 
CCC(C)=C1Cc2c(C(=O)Nc3cnc4c(c3)CNC4)cccc2N1CC#N

>  <HIPPO Compound ID>  (1882) 
21036

>  <fragmenstein_runtime>  (1882) 
4.723286

$$$$
NN1C(=O)Cc2c([C@H](Nc3cnc4c(c3)CNC4)C(F)(F)F)cccc21
     RDKit          3D

 26 29  0  0  0  0  0  0  0  0999 V2000
   -5.7247    5.4140  -19.8555 N   0  0  0  0  0  0  0  0  0  0  0  0
   -5.7017    5.0357  -18.5214 N   0  0  0  0  0  0  0  0  0  0  0  0
   -4.5789    5.2667  -17.7107 C   0  0  0  0  0  0  0  0  0  0  0  0
   -3.4287    5.5065  -18.0542 O   0  0  0  0  0  0  0  0  0  0  0  0
   -5.0646    5.1798  -16.2645 C   0  0  0  0  0  0  0  0  0  0  0  0
   -6.5316    4.8543  -16.3956 C   0  0  0  0  0  0  0  0  0  0  0  0
   -7.5166    4.6986  -15.4123 C   0  0  0  0  0  0  0  0  0  0  0  0
   -7.2304    4.9409  -13.9186 C   0  0  2  0  0  0  0  0  0  0  0  0
   -8.3048    4.2866  -13.0929 N   0  0  0  0  0  0  0  0  0  0  0  0
   -8.2502    4.2691  -11.6886 C   0  0  0  0  0  0  0  0  0  0  0  0
   -8.0745    5.3969  -10.8655 C   0  0  0  0  0  0  0  0  0  0  0  0
   -8.0917    5.4177   -9.5047 N   0  0  0  0  0  0  0  0  0  0  0  0
   -8.3562    4.2343   -8.9364 C   0  0  0  0  0  0  0  0  0  0  0  0
   -8.5895    3.0693   -9.6289 C   0  0  0  0  0  0  0  0  0  0  0  0
   -8.5342    3.0741  -11.0137 C   0  0  0  0  0  0  0  0  0  0  0  0
   -8.9039    1.9693   -8.6797 C   0  0  0  0  0  0  0  0  0  0  0  0
   -8.8736    2.5539   -7.3097 N   0  0  0  0  0  0  0  0  0  0  0  0
   -8.5037    3.9819   -7.4664 C   0  0  0  0  0  0  0  0  0  0  0  0
   -7.0242    6.4621  -13.6621 C   0  0  0  0  0  0  0  0  0  0  0  0
   -8.1936    7.1056  -13.4215 F   0  0  0  0  0  0  0  0  0  0  0  0
   -6.4469    7.1208  -14.6937 F   0  0  0  0  0  0  0  0  0  0  0  0
   -6.2083    6.6761  -12.6003 F   0  0  0  0  0  0  0  0  0  0  0  0
   -8.8045    4.3709  -15.8806 C   0  0  0  0  0  0  0  0  0  0  0  0
   -9.0924    4.2115  -17.2472 C   0  0  0  0  0  0  0  0  0  0  0  0
   -8.1056    4.4174  -18.2042 C   0  0  0  0  0  0  0  0  0  0  0  0
   -6.8407    4.7513  -17.7610 C   0  0  0  0  0  0  0  0  0  0  0  0
  1  2  1  0
  2  3  1  0
  3  4  2  0
  3  5  1  0
  5  6  1  0
  6  7  2  0
  7  8  1  0
  8  9  1  1
  9 10  1  0
 10 11  2  0
 11 12  1  0
 12 13  2  0
 13 14  1  0
 14 15  2  0
 14 16  1  0
 16 17  1  0
 17 18  1  0
  8 19  1  0
 19 20  1  0
 19 21  1  0
 19 22  1  0
  7 23  1  0
 23 24  2  0
 24 25  1  0
 25 26  2  0
 26  2  1  0
 26  6  1  0
 15 10  1  0
 18 13  1  0
M  END
>  <smiles>  (1883) 
C27163-P221

>  <fragmenstein_outcome>  (1883) 
acceptable

>  <inchikey>  (1883) 
QBSPMPYKGLYEPQ-UHFFFAOYSA-N

>  <fragmenstein_mode>  (1883) 
expansion

>  <HIPPO Pose ID>  (1883) 
23847

>  <Energy>  (1883) 
229.140272

>  <fragmenstein_error>  (1883) 


>  <tags>  (1883) 
{'openbind_xx01zvns2b_c1_fragmenstein', 'fragmenstein_placed'}

>  <ref_pdb>  (1883) 
175

>  <scratch_subdir>  (1883) 
/opt/xchem-fragalysis-2/maxwin/BulkDock/SCRATCH/511028/C27163-P221

>  <alias>  (1883) 
NN1C(=O)Cc2c([C@H](Nc3cnc4c(c3)CNC4)C(F)(F)F)cccc21

>  <HIPPO Compound ID>  (1883) 
26096

>  <fragmenstein_runtime>  (1883) 
2.24926

$$$$
CN=C1Cc2c(cc(N)cc2C(=O)Nc2cnc3c(c2)CNC3)N1
     RDKit          3D

 24 27  0  0  0  0  0  0  0  0999 V2000
   -2.4619    5.8528  -17.4026 C   0  0  0  0  0  0  0  0  0  0  0  0
   -3.4563    5.4427  -18.3850 N   0  0  0  0  0  0  0  0  0  0  0  0
   -4.6527    5.2461  -17.9421 C   0  0  0  0  0  0  0  0  0  0  0  0
   -5.1252    5.3878  -16.4685 C   0  0  0  0  0  0  0  0  0  0  0  0
   -6.5643    4.9635  -16.5776 C   0  0  0  0  0  0  0  0  0  0  0  0
   -6.8495    4.6872  -17.9252 C   0  0  0  0  0  0  0  0  0  0  0  0
   -8.1112    4.3080  -18.3268 C   0  0  0  0  0  0  0  0  0  0  0  0
   -9.1273    4.2724  -17.3724 C   0  0  0  0  0  0  0  0  0  0  0  0
  -10.4385    3.9671  -17.7599 N   0  0  0  0  0  0  0  0  0  0  0  0
   -8.8185    4.4358  -16.0111 C   0  0  0  0  0  0  0  0  0  0  0  0
   -7.5365    4.8211  -15.6036 C   0  0  0  0  0  0  0  0  0  0  0  0
   -7.2959    5.2209  -14.1908 C   0  0  0  0  0  0  0  0  0  0  0  0
   -6.7616    6.2393  -13.9884 O   0  0  0  0  0  0  0  0  0  0  0  0
   -7.8763    4.1798  -13.2046 N   0  0  0  0  0  0  0  0  0  0  0  0
   -8.0005    4.2184  -11.8161 C   0  0  0  0  0  0  0  0  0  0  0  0
   -7.7240    5.3680  -11.0649 C   0  0  0  0  0  0  0  0  0  0  0  0
   -7.8642    5.4629   -9.7141 N   0  0  0  0  0  0  0  0  0  0  0  0
   -8.2741    4.3294   -9.1150 C   0  0  0  0  0  0  0  0  0  0  0  0
   -8.5575    3.1439   -9.7669 C   0  0  0  0  0  0  0  0  0  0  0  0
   -8.4317    3.0764  -11.1414 C   0  0  0  0  0  0  0  0  0  0  0  0
   -8.9374    2.1026   -8.7704 C   0  0  0  0  0  0  0  0  0  0  0  0
   -9.2162    2.8378   -7.5063 N   0  0  0  0  0  0  0  0  0  0  0  0
   -8.4946    4.1295   -7.6405 C   0  0  0  0  0  0  0  0  0  0  0  0
   -5.7236    4.8724  -18.7174 N   0  0  0  0  0  0  0  0  0  0  0  0
  1  2  1  0
  2  3  2  3
  3  4  1  0
  4  5  1  0
  5  6  2  0
  6  7  1  0
  7  8  2  0
  8  9  1  0
  8 10  1  0
 10 11  2  0
 11 12  1  0
 12 13  2  0
 12 14  1  0
 14 15  1  0
 15 16  2  0
 16 17  1  0
 17 18  2  0
 18 19  1  0
 19 20  2  0
 19 21  1  0
 21 22  1  0
 22 23  1  0
  6 24  1  0
 24  3  1  0
 11  5  1  0
 20 15  1  0
 23 18  1  0
M  END
>  <smiles>  (1884) 
C27166-P221

>  <fragmenstein_outcome>  (1884) 
acceptable

>  <inchikey>  (1884) 
HNUAXQBAAZEEMH-UHFFFAOYSA-N

>  <fragmenstein_mode>  (1884) 
expansion

>  <HIPPO Pose ID>  (1884) 
23848

>  <Energy>  (1884) 
70.234213

>  <fragmenstein_error>  (1884) 


>  <tags>  (1884) 
{'openbind_xx01zvns2b_c1_fragmenstein', 'fragmenstein_placed'}

>  <ref_pdb>  (1884) 
175

>  <scratch_subdir>  (1884) 
/opt/xchem-fragalysis-2/maxwin/BulkDock/SCRATCH/511028/C27166-P221

>  <alias>  (1884) 
CN=C1Cc2c(cc(N)cc2C(=O)Nc2cnc3c(c2)CNC3)N1

>  <HIPPO Compound ID>  (1884) 
27166

>  <fragmenstein_runtime>  (1884) 
2.480544

$$$$
CS(=O)(=O)c1nc2c(cc1NC(=O)c1cccc3c1CC(=O)N3)CNC2
     RDKit          3D

 26 29  0  0  0  0  0  0  0  0999 V2000
   -8.2040    8.0202  -11.5347 C   0  0  0  0  0  0  0  0  0  0  0  0
   -6.9198    6.8739  -11.0977 S   0  0  0  0  0  0  0  0  0  0  0  0
   -6.0062    6.6717  -12.2097 O   0  0  0  0  0  0  0  0  0  0  0  0
   -6.3478    7.3621   -9.8480 O   0  0  0  0  0  0  0  0  0  0  0  0
   -7.8063    5.3632  -10.7759 C   0  0  0  0  0  0  0  0  0  0  0  0
   -8.1311    5.3421   -9.4412 N   0  0  0  0  0  0  0  0  0  0  0  0
   -8.4772    4.1505   -8.9527 C   0  0  0  0  0  0  0  0  0  0  0  0
   -8.5585    3.0003   -9.7012 C   0  0  0  0  0  0  0  0  0  0  0  0
   -8.2606    3.0434  -11.0555 C   0  0  0  0  0  0  0  0  0  0  0  0
   -7.8923    4.2647  -11.6516 C   0  0  0  0  0  0  0  0  0  0  0  0
   -7.7275    4.2031  -13.0542 N   0  0  0  0  0  0  0  0  0  0  0  0
   -7.7995    5.3164  -14.1231 C   0  0  0  0  0  0  0  0  0  0  0  0
   -7.9295    6.4698  -14.0060 O   0  0  0  0  0  0  0  0  0  0  0  0
   -7.7899    4.7689  -15.5034 C   0  0  0  0  0  0  0  0  0  0  0  0
   -8.9842    4.2289  -15.9985 C   0  0  0  0  0  0  0  0  0  0  0  0
   -9.1483    3.9388  -17.3656 C   0  0  0  0  0  0  0  0  0  0  0  0
   -8.1100    4.1636  -18.2614 C   0  0  0  0  0  0  0  0  0  0  0  0
   -6.9345    4.6656  -17.7468 C   0  0  0  0  0  0  0  0  0  0  0  0
   -6.7521    4.9705  -16.3949 C   0  0  0  0  0  0  0  0  0  0  0  0
   -5.3652    5.5050  -16.2027 C   0  0  0  0  0  0  0  0  0  0  0  0
   -4.7760    5.4011  -17.6241 C   0  0  0  0  0  0  0  0  0  0  0  0
   -3.6330    5.6625  -17.9661 O   0  0  0  0  0  0  0  0  0  0  0  0
   -5.7842    4.9487  -18.4620 N   0  0  0  0  0  0  0  0  0  0  0  0
   -8.9693    1.8744   -8.8121 C   0  0  0  0  0  0  0  0  0  0  0  0
   -9.4538    2.5066   -7.5529 N   0  0  0  0  0  0  0  0  0  0  0  0
   -8.7934    3.8325   -7.5188 C   0  0  0  0  0  0  0  0  0  0  0  0
  1  2  1  0
  2  3  2  0
  2  4  2  0
  2  5  1  0
  5  6  2  0
  6  7  1  0
  7  8  2  0
  8  9  1  0
  9 10  2  0
 10 11  1  0
 11 12  1  0
 12 13  2  0
 12 14  1  0
 14 15  2  0
 15 16  1  0
 16 17  2  0
 17 18  1  0
 18 19  2  0
 19 20  1  0
 20 21  1  0
 21 22  2  0
 21 23  1  0
  8 24  1  0
 24 25  1  0
 25 26  1  0
 10  5  1  0
 19 14  1  0
 26  7  1  0
 23 18  1  0
M  END
>  <smiles>  (1885) 
C27173-P221

>  <fragmenstein_outcome>  (1885) 
acceptable

>  <inchikey>  (1885) 
APBMIEAOCLHSRH-UHFFFAOYSA-N

>  <fragmenstein_mode>  (1885) 
expansion

>  <HIPPO Pose ID>  (1885) 
23849

>  <Energy>  (1885) 
149.725847

>  <fragmenstein_error>  (1885) 


>  <tags>  (1885) 
{'openbind_xx01zvns2b_c1_fragmenstein', 'fragmenstein_placed'}

>  <ref_pdb>  (1885) 
175

>  <scratch_subdir>  (1885) 
/opt/xchem-fragalysis-2/maxwin/BulkDock/SCRATCH/511028/C27173-P221

>  <alias>  (1885) 
CS(=O)(=O)c1nc2c(cc1NC(=O)c1cccc3c1CC(=O)N3)CNC2

>  <HIPPO Compound ID>  (1885) 
27173

>  <fragmenstein_runtime>  (1885) 
5.935798

$$$$
O=C(Nc1cnc2c(c1)CNC2)c1cc(O)cc2c1C[C@H](O)N2
     RDKit          3D

 23 26  0  0  0  0  0  0  0  0999 V2000
   -6.8568    6.2588  -14.0086 O   0  0  0  0  0  0  0  0  0  0  0  0
   -7.4127    5.2471  -14.1872 C   0  0  0  0  0  0  0  0  0  0  0  0
   -8.0628    4.2679  -13.1792 N   0  0  0  0  0  0  0  0  0  0  0  0
   -8.0803    4.2828  -11.7850 C   0  0  0  0  0  0  0  0  0  0  0  0
   -7.6644    5.4015  -11.0514 C   0  0  0  0  0  0  0  0  0  0  0  0
   -7.7076    5.4981   -9.6959 N   0  0  0  0  0  0  0  0  0  0  0  0
   -8.1745    4.4010   -9.0741 C   0  0  0  0  0  0  0  0  0  0  0  0
   -8.5975    3.2480   -9.7061 C   0  0  0  0  0  0  0  0  0  0  0  0
   -8.5611    3.1752  -11.0872 C   0  0  0  0  0  0  0  0  0  0  0  0
   -9.0818    2.2682   -8.6961 C   0  0  0  0  0  0  0  0  0  0  0  0
   -8.7343    2.8266   -7.3595 N   0  0  0  0  0  0  0  0  0  0  0  0
   -8.3530    4.2425   -7.5923 C   0  0  0  0  0  0  0  0  0  0  0  0
   -7.6532    4.8194  -15.5924 C   0  0  0  0  0  0  0  0  0  0  0  0
   -8.9399    4.4504  -15.9960 C   0  0  0  0  0  0  0  0  0  0  0  0
   -9.2149    4.2084  -17.3440 C   0  0  0  0  0  0  0  0  0  0  0  0
  -10.5007    4.0023  -17.7564 O   0  0  0  0  0  0  0  0  0  0  0  0
   -8.2063    4.2470  -18.2990 C   0  0  0  0  0  0  0  0  0  0  0  0
   -6.9331    4.6117  -17.8917 C   0  0  0  0  0  0  0  0  0  0  0  0
   -6.6627    4.9130  -16.5589 C   0  0  0  0  0  0  0  0  0  0  0  0
   -5.2373    5.3246  -16.4284 C   0  0  0  0  0  0  0  0  0  0  0  0
   -4.7190    5.1454  -17.8744 C   0  0  2  0  0  0  0  0  0  0  0  0
   -4.2421    6.3600  -18.4169 O   0  0  0  0  0  0  0  0  0  0  0  0
   -5.7958    4.6647  -18.7204 N   0  0  0  0  0  0  0  0  0  0  0  0
  1  2  2  0
  2  3  1  0
  3  4  1  0
  4  5  2  0
  5  6  1  0
  6  7  2  0
  7  8  1  0
  8  9  2  0
  8 10  1  0
 10 11  1  0
 11 12  1  0
  2 13  1  0
 13 14  2  0
 14 15  1  0
 15 16  1  0
 15 17  2  0
 17 18  1  0
 18 19  2  0
 19 20  1  0
 20 21  1  0
 21 22  1  6
 21 23  1  0
  9  4  1  0
 19 13  1  0
 12  7  1  0
 23 18  1  0
M  END
>  <smiles>  (1886) 
C27176-P221

>  <fragmenstein_outcome>  (1886) 
acceptable

>  <inchikey>  (1886) 
UBUGXPYOUBPVQP-UHFFFAOYSA-N

>  <fragmenstein_mode>  (1886) 
expansion

>  <HIPPO Pose ID>  (1886) 
23850

>  <Energy>  (1886) 
41.379854

>  <fragmenstein_error>  (1886) 


>  <tags>  (1886) 
{'openbind_xx01zvns2b_c1_fragmenstein', 'fragmenstein_placed'}

>  <ref_pdb>  (1886) 
175

>  <scratch_subdir>  (1886) 
/opt/xchem-fragalysis-2/maxwin/BulkDock/SCRATCH/511028/C27176-P221

>  <alias>  (1886) 
O=C(Nc1cnc2c(c1)CNC2)c1cc(O)cc2c1C[C@H](O)N2

>  <HIPPO Compound ID>  (1886) 
27176

>  <fragmenstein_runtime>  (1886) 
4.011995

$$$$
CC(CN)=C1Cc2c(cccc2C(=O)Nc2cnc3c(c2)CNC3)N1
     RDKit          3D

 25 28  0  0  0  0  0  0  0  0999 V2000
   -3.2044    5.7286  -19.7863 C   0  0  0  0  0  0  0  0  0  0  0  0
   -3.6807    5.8778  -18.3670 C   0  0  0  0  0  0  0  0  0  0  0  0
   -2.6979    6.5124  -17.4185 C   0  0  0  0  0  0  0  0  0  0  0  0
   -2.2583    7.8254  -17.8741 N   0  0  0  0  0  0  0  0  0  0  0  0
   -4.8860    5.4270  -17.9647 C   0  0  0  0  0  0  0  0  0  0  0  0
   -5.4079    5.5090  -16.5119 C   0  0  0  0  0  0  0  0  0  0  0  0
   -6.8012    4.9588  -16.6408 C   0  0  0  0  0  0  0  0  0  0  0  0
   -7.0268    4.6442  -17.9894 C   0  0  0  0  0  0  0  0  0  0  0  0
   -8.2246    4.1133  -18.4137 C   0  0  0  0  0  0  0  0  0  0  0  0
   -9.2283    3.9265  -17.4674 C   0  0  0  0  0  0  0  0  0  0  0  0
   -9.0046    4.2373  -16.1136 C   0  0  0  0  0  0  0  0  0  0  0  0
   -7.7824    4.7656  -15.6839 C   0  0  0  0  0  0  0  0  0  0  0  0
   -7.5865    5.2359  -14.2820 C   0  0  0  0  0  0  0  0  0  0  0  0
   -7.0776    6.2755  -14.1244 O   0  0  0  0  0  0  0  0  0  0  0  0
   -8.1694    4.2378  -13.2521 N   0  0  0  0  0  0  0  0  0  0  0  0
   -8.1620    4.2675  -11.8565 C   0  0  0  0  0  0  0  0  0  0  0  0
   -7.7568    5.4027  -11.1417 C   0  0  0  0  0  0  0  0  0  0  0  0
   -7.7688    5.5106   -9.7857 N   0  0  0  0  0  0  0  0  0  0  0  0
   -8.1974    4.4101   -9.1427 C   0  0  0  0  0  0  0  0  0  0  0  0
   -8.6073    3.2421   -9.7544 C   0  0  0  0  0  0  0  0  0  0  0  0
   -8.5965    3.1555  -11.1357 C   0  0  0  0  0  0  0  0  0  0  0  0
   -9.0529    2.2632   -8.7257 C   0  0  0  0  0  0  0  0  0  0  0  0
   -8.7105    2.8493   -7.3998 N   0  0  0  0  0  0  0  0  0  0  0  0
   -8.3430    4.2646   -7.6560 C   0  0  0  0  0  0  0  0  0  0  0  0
   -5.8708    4.8419  -18.7446 N   0  0  0  0  0  0  0  0  0  0  0  0
  1  2  1  0
  2  3  1  0
  3  4  1  0
  2  5  2  3
  5  6  1  0
  6  7  1  0
  7  8  2  0
  8  9  1  0
  9 10  2  0
 10 11  1  0
 11 12  2  0
 12 13  1  0
 13 14  2  0
 13 15  1  0
 15 16  1  0
 16 17  2  0
 17 18  1  0
 18 19  2  0
 19 20  1  0
 20 21  2  0
 20 22  1  0
 22 23  1  0
 23 24  1  0
  8 25  1  0
 25  5  1  0
 12  7  1  0
 21 16  1  0
 24 19  1  0
M  END
>  <smiles>  (1887) 
C27177-P221

>  <fragmenstein_outcome>  (1887) 
acceptable

>  <inchikey>  (1887) 
ZKLSIZZTHLIKHK-UHFFFAOYSA-N

>  <fragmenstein_mode>  (1887) 
expansion

>  <HIPPO Pose ID>  (1887) 
23851

>  <Energy>  (1887) 
77.579462

>  <fragmenstein_error>  (1887) 


>  <tags>  (1887) 
{'openbind_xx01zvns2b_c1_fragmenstein', 'fragmenstein_placed'}

>  <ref_pdb>  (1887) 
175

>  <scratch_subdir>  (1887) 
/opt/xchem-fragalysis-2/maxwin/BulkDock/SCRATCH/511028/C27177-P221

>  <alias>  (1887) 
CC(CN)=C1Cc2c(cccc2C(=O)Nc2cnc3c(c2)CNC3)N1

>  <HIPPO Compound ID>  (1887) 
33141

>  <fragmenstein_runtime>  (1887) 
3.726513

$$$$
C=CN1C(=O)Cc2c(C(=O)Nc3cnc4c(c3)CNC4)cccc21
     RDKit          3D

 24 27  0  0  0  0  0  0  0  0999 V2000
   -4.3435    6.1329  -20.2702 C   0  0  0  0  0  0  0  0  0  0  0  0
   -5.3625    5.5207  -19.6550 C   0  0  0  0  0  0  0  0  0  0  0  0
   -5.5054    5.3179  -18.3028 N   0  0  0  0  0  0  0  0  0  0  0  0
   -4.5155    5.6007  -17.3371 C   0  0  0  0  0  0  0  0  0  0  0  0
   -3.3341    5.8699  -17.5159 O   0  0  0  0  0  0  0  0  0  0  0  0
   -5.1706    5.5189  -15.9651 C   0  0  0  0  0  0  0  0  0  0  0  0
   -6.5503    5.0434  -16.2808 C   0  0  0  0  0  0  0  0  0  0  0  0
   -7.6130    4.8060  -15.4202 C   0  0  0  0  0  0  0  0  0  0  0  0
   -7.5193    5.2527  -14.0063 C   0  0  0  0  0  0  0  0  0  0  0  0
   -7.0574    6.3053  -13.8075 O   0  0  0  0  0  0  0  0  0  0  0  0
   -8.0228    4.1802  -13.0206 N   0  0  0  0  0  0  0  0  0  0  0  0
   -8.1476    4.2132  -11.6344 C   0  0  0  0  0  0  0  0  0  0  0  0
   -7.8321    5.3615  -10.8936 C   0  0  0  0  0  0  0  0  0  0  0  0
   -7.9117    5.4570   -9.5411 N   0  0  0  0  0  0  0  0  0  0  0  0
   -8.3133    4.3297   -8.9296 C   0  0  0  0  0  0  0  0  0  0  0  0
   -8.6496    3.1532   -9.5712 C   0  0  0  0  0  0  0  0  0  0  0  0
   -8.5755    3.0795  -10.9499 C   0  0  0  0  0  0  0  0  0  0  0  0
   -9.0802    2.1392   -8.5723 C   0  0  0  0  0  0  0  0  0  0  0  0
   -8.7939    2.7148   -7.2292 N   0  0  0  0  0  0  0  0  0  0  0  0
   -8.4877    4.1505   -7.4502 C   0  0  0  0  0  0  0  0  0  0  0  0
   -8.8045    4.3102  -15.9563 C   0  0  0  0  0  0  0  0  0  0  0  0
   -8.9261    4.0973  -17.3391 C   0  0  0  0  0  0  0  0  0  0  0  0
   -7.8674    4.4024  -18.2010 C   0  0  0  0  0  0  0  0  0  0  0  0
   -6.6855    4.8807  -17.6564 C   0  0  0  0  0  0  0  0  0  0  0  0
  1  2  2  0
  2  3  1  0
  3  4  1  0
  4  5  2  0
  4  6  1  0
  6  7  1  0
  7  8  2  0
  8  9  1  0
  9 10  2  0
  9 11  1  0
 11 12  1  0
 12 13  2  0
 13 14  1  0
 14 15  2  0
 15 16  1  0
 16 17  2  0
 16 18  1  0
 18 19  1  0
 19 20  1  0
  8 21  1  0
 21 22  2  0
 22 23  1  0
 23 24  2  0
 24  3  1  0
 24  7  1  0
 17 12  1  0
 20 15  1  0
M  END
>  <smiles>  (1888) 
C27179-P221

>  <fragmenstein_outcome>  (1888) 
acceptable

>  <inchikey>  (1888) 
MOGOJHZFPDPWAG-UHFFFAOYSA-N

>  <fragmenstein_mode>  (1888) 
expansion

>  <HIPPO Pose ID>  (1888) 
23852

>  <Energy>  (1888) 
101.415894

>  <fragmenstein_error>  (1888) 


>  <tags>  (1888) 
{'openbind_xx01zvns2b_c1_fragmenstein', 'fragmenstein_placed'}

>  <ref_pdb>  (1888) 
175

>  <scratch_subdir>  (1888) 
/opt/xchem-fragalysis-2/maxwin/BulkDock/SCRATCH/511028/C27179-P221

>  <alias>  (1888) 
C=CN1C(=O)Cc2c(C(=O)Nc3cnc4c(c3)CNC4)cccc21

>  <HIPPO Compound ID>  (1888) 
27179

>  <fragmenstein_runtime>  (1888) 
2.163962

$$$$
Cc1cc2c(c(C(=O)Nc3cnc4c(c3)CNC4)c1)[C@H](CC(=O)O)C(=O)N2
     RDKit          3D

 27 30  0  0  0  0  0  0  0  0999 V2000
  -10.2529    3.9079  -17.9653 C   0  0  0  0  0  0  0  0  0  0  0  0
   -8.9045    4.2456  -17.4312 C   0  0  0  0  0  0  0  0  0  0  0  0
   -7.8522    4.3355  -18.3361 C   0  0  0  0  0  0  0  0  0  0  0  0
   -6.6378    4.7549  -17.8561 C   0  0  0  0  0  0  0  0  0  0  0  0
   -6.4037    5.0909  -16.5209 C   0  0  0  0  0  0  0  0  0  0  0  0
   -7.4334    4.9446  -15.5974 C   0  0  0  0  0  0  0  0  0  0  0  0
   -7.3257    5.3643  -14.1700 C   0  0  0  0  0  0  0  0  0  0  0  0
   -6.9034    6.4279  -13.9439 O   0  0  0  0  0  0  0  0  0  0  0  0
   -7.9125    4.2962  -13.2186 N   0  0  0  0  0  0  0  0  0  0  0  0
   -8.0110    4.2784  -11.8256 C   0  0  0  0  0  0  0  0  0  0  0  0
   -7.7675    5.4185  -11.0471 C   0  0  0  0  0  0  0  0  0  0  0  0
   -7.9029    5.4786   -9.6945 N   0  0  0  0  0  0  0  0  0  0  0  0
   -8.2843    4.3232   -9.1214 C   0  0  0  0  0  0  0  0  0  0  0  0
   -8.5383    3.1453   -9.8000 C   0  0  0  0  0  0  0  0  0  0  0  0
   -8.4050    3.1084  -11.1762 C   0  0  0  0  0  0  0  0  0  0  0  0
   -8.9131    2.0813   -8.8249 C   0  0  0  0  0  0  0  0  0  0  0  0
   -9.2264    2.7912   -7.5546 N   0  0  0  0  0  0  0  0  0  0  0  0
   -8.5143    4.0912   -7.6530 C   0  0  0  0  0  0  0  0  0  0  0  0
   -8.6888    4.5135  -16.0660 C   0  0  0  0  0  0  0  0  0  0  0  0
   -4.9540    5.5042  -16.3832 C   0  0  2  0  0  0  0  0  0  0  0  0
   -4.7261    6.9902  -16.1148 C   0  0  0  0  0  0  0  0  0  0  0  0
   -3.3244    7.2237  -15.6262 C   0  0  0  0  0  0  0  0  0  0  0  0
   -2.5750    6.4187  -15.1014 O   0  0  0  0  0  0  0  0  0  0  0  0
   -2.9402    8.5063  -15.7897 O   0  0  0  0  0  0  0  0  0  0  0  0
   -4.4165    5.2383  -17.8150 C   0  0  0  0  0  0  0  0  0  0  0  0
   -3.2662    5.3625  -18.2049 O   0  0  0  0  0  0  0  0  0  0  0  0
   -5.4887    4.8831  -18.6089 N   0  0  0  0  0  0  0  0  0  0  0  0
  1  2  1  0
  2  3  2  0
  3  4  1  0
  4  5  2  0
  5  6  1  0
  6  7  1  0
  7  8  2  0
  7  9  1  0
  9 10  1  0
 10 11  2  0
 11 12  1  0
 12 13  2  0
 13 14  1  0
 14 15  2  0
 14 16  1  0
 16 17  1  0
 17 18  1  0
  6 19  2  0
  5 20  1  0
 20 21  1  6
 21 22  1  0
 22 23  2  0
 22 24  1  0
 20 25  1  0
 25 26  2  0
 25 27  1  0
 19  2  1  0
 27  4  1  0
 15 10  1  0
 18 13  1  0
M  END
>  <smiles>  (1889) 
C27187-P221

>  <fragmenstein_outcome>  (1889) 
acceptable

>  <inchikey>  (1889) 
DULOSDWLPOFMFA-UHFFFAOYSA-N

>  <fragmenstein_mode>  (1889) 
expansion

>  <HIPPO Pose ID>  (1889) 
23853

>  <Energy>  (1889) 
31.716425

>  <fragmenstein_error>  (1889) 


>  <tags>  (1889) 
{'openbind_xx01zvns2b_c1_fragmenstein', 'fragmenstein_placed'}

>  <ref_pdb>  (1889) 
175

>  <scratch_subdir>  (1889) 
/opt/xchem-fragalysis-2/maxwin/BulkDock/SCRATCH/511028/C27187-P221

>  <alias>  (1889) 
Cc1cc2c(c(C(=O)Nc3cnc4c(c3)CNC4)c1)[C@H](CC(=O)O)C(=O)N2

>  <HIPPO Compound ID>  (1889) 
27187

>  <fragmenstein_runtime>  (1889) 
2.371481

$$$$
CC(=O)N[C@](O)(Nc1cnc2c(c1)CNC2)c1cccc2c1CC(=O)N2
     RDKit          3D

 26 29  0  0  0  0  0  0  0  0999 V2000
   -3.9315    3.5445  -12.5963 C   0  0  0  0  0  0  0  0  0  0  0  0
   -4.8604    4.7154  -12.8343 C   0  0  0  0  0  0  0  0  0  0  0  0
   -4.6264    5.7857  -12.4381 O   0  0  0  0  0  0  0  0  0  0  0  0
   -6.0606    4.1915  -13.6480 N   0  0  0  0  0  0  0  0  0  0  0  0
   -7.2510    4.8435  -14.0564 C   0  0  2  0  0  0  0  0  0  0  0  0
   -7.1122    6.2280  -13.8975 O   0  0  0  0  0  0  0  0  0  0  0  0
   -8.3036    4.3177  -13.2062 N   0  0  0  0  0  0  0  0  0  0  0  0
   -8.2423    4.3538  -11.8066 C   0  0  0  0  0  0  0  0  0  0  0  0
   -7.9029    5.4899  -11.0524 C   0  0  0  0  0  0  0  0  0  0  0  0
   -7.8816    5.5659   -9.6932 N   0  0  0  0  0  0  0  0  0  0  0  0
   -8.2471    4.4378   -9.0645 C   0  0  0  0  0  0  0  0  0  0  0  0
   -8.6243    3.2725   -9.6935 C   0  0  0  0  0  0  0  0  0  0  0  0
   -8.6288    3.2194  -11.0759 C   0  0  0  0  0  0  0  0  0  0  0  0
   -9.0384    2.2609   -8.6846 C   0  0  0  0  0  0  0  0  0  0  0  0
   -8.7093    2.8319   -7.3491 N   0  0  0  0  0  0  0  0  0  0  0  0
   -8.3752    4.2600   -7.5801 C   0  0  0  0  0  0  0  0  0  0  0  0
   -7.5636    4.6221  -15.5351 C   0  0  0  0  0  0  0  0  0  0  0  0
   -8.8551    4.2602  -15.9836 C   0  0  0  0  0  0  0  0  0  0  0  0
   -9.1720    4.0741  -17.3440 C   0  0  0  0  0  0  0  0  0  0  0  0
   -8.2067    4.2574  -18.3222 C   0  0  0  0  0  0  0  0  0  0  0  0
   -6.9591    4.6517  -17.8999 C   0  0  0  0  0  0  0  0  0  0  0  0
   -6.6271    4.8368  -16.5511 C   0  0  0  0  0  0  0  0  0  0  0  0
   -5.1958    5.2932  -16.4823 C   0  0  0  0  0  0  0  0  0  0  0  0
   -4.7579    5.2616  -17.9544 C   0  0  0  0  0  0  0  0  0  0  0  0
   -3.6346    5.4913  -18.3767 O   0  0  0  0  0  0  0  0  0  0  0  0
   -5.8665    4.9170  -18.7104 N   0  0  0  0  0  0  0  0  0  0  0  0
  1  2  1  0
  2  3  2  0
  2  4  1  0
  4  5  1  0
  5  6  1  6
  5  7  1  0
  7  8  1  0
  8  9  2  0
  9 10  1  0
 10 11  2  0
 11 12  1  0
 12 13  2  0
 12 14  1  0
 14 15  1  0
 15 16  1  0
  5 17  1  0
 17 18  2  0
 18 19  1  0
 19 20  2  0
 20 21  1  0
 21 22  2  0
 22 23  1  0
 23 24  1  0
 24 25  2  0
 24 26  1  0
 13  8  1  0
 22 17  1  0
 16 11  1  0
 26 21  1  0
M  END
>  <smiles>  (1890) 
C27188-P221

>  <fragmenstein_outcome>  (1890) 
acceptable

>  <inchikey>  (1890) 
PHGPPSKWKDEVAB-UHFFFAOYSA-N

>  <fragmenstein_mode>  (1890) 
expansion

>  <HIPPO Pose ID>  (1890) 
23854

>  <Energy>  (1890) 
-66.725464

>  <fragmenstein_error>  (1890) 


>  <tags>  (1890) 
{'openbind_xx01zvns2b_c1_fragmenstein', 'fragmenstein_placed'}

>  <ref_pdb>  (1890) 
175

>  <scratch_subdir>  (1890) 
/opt/xchem-fragalysis-2/maxwin/BulkDock/SCRATCH/511028/C27188-P221

>  <alias>  (1890) 
CC(=O)N[C@](O)(Nc1cnc2c(c1)CNC2)c1cccc2c1CC(=O)N2

>  <HIPPO Compound ID>  (1890) 
27262

>  <fragmenstein_runtime>  (1890) 
4.885758

$$$$
CO[C@H]1CC[C@@]2(N1)C(=O)Nc1cccc(C(=O)N[C@H]3C[C@@H]4CNC[C@@H]4N(C)C3)c12
     RDKit          3D

 29 33  0  0  0  0  0  0  0  0999 V2000
   -2.6227    9.1335  -15.1154 C   0  0  0  0  0  0  0  0  0  0  0  0
   -3.8955    8.6981  -15.5663 O   0  0  0  0  0  0  0  0  0  0  0  0
   -3.8910    7.3645  -16.0371 C   0  0  1  0  0  0  0  0  0  0  0  0
   -3.6572    6.3231  -14.9560 C   0  0  0  0  0  0  0  0  0  0  0  0
   -4.2674    5.0488  -15.5319 C   0  0  0  0  0  0  0  0  0  0  0  0
   -5.2301    5.5322  -16.6159 C   0  0  1  0  0  0  0  0  0  0  0  0
   -5.2132    7.0114  -16.5234 N   0  0  0  0  0  0  0  0  0  0  0  0
   -4.7098    5.1720  -18.0659 C   0  0  0  0  0  0  0  0  0  0  0  0
   -3.5668    5.2788  -18.4900 O   0  0  0  0  0  0  0  0  0  0  0  0
   -5.8177    4.7946  -18.8068 N   0  0  0  0  0  0  0  0  0  0  0  0
   -6.9265    4.6319  -17.9882 C   0  0  0  0  0  0  0  0  0  0  0  0
   -8.1515    4.1563  -18.4084 C   0  0  0  0  0  0  0  0  0  0  0  0
   -9.1402    4.0077  -17.4489 C   0  0  0  0  0  0  0  0  0  0  0  0
   -8.8679    4.3061  -16.1032 C   0  0  0  0  0  0  0  0  0  0  0  0
   -7.6083    4.7781  -15.6778 C   0  0  0  0  0  0  0  0  0  0  0  0
   -7.4175    5.1510  -14.2311 C   0  0  0  0  0  0  0  0  0  0  0  0
   -6.7883    6.1036  -13.9961 O   0  0  0  0  0  0  0  0  0  0  0  0
   -8.2080    4.2145  -13.2877 N   0  0  0  0  0  0  0  0  0  0  0  0
   -8.3103    4.2024  -11.8355 C   0  0  1  0  0  0  0  0  0  0  0  0
   -7.6059    3.0170  -11.1977 C   0  0  0  0  0  0  0  0  0  0  0  0
   -7.7446    3.0195   -9.6727 C   0  0  2  0  0  0  0  0  0  0  0  0
   -9.0499    2.4743   -9.1157 C   0  0  0  0  0  0  0  0  0  0  0  0
   -9.0149    2.8678   -7.7084 N   0  0  0  0  0  0  0  0  0  0  0  0
   -8.3977    4.1905   -7.6658 C   0  0  0  0  0  0  0  0  0  0  0  0
   -7.6214    4.3964   -8.9946 C   0  0  2  0  0  0  0  0  0  0  0  0
   -8.1894    5.5414   -9.7419 N   0  0  0  0  0  0  0  0  0  0  0  0
   -7.7740    6.8209   -9.1643 C   0  0  0  0  0  0  0  0  0  0  0  0
   -7.8488    5.5091  -11.1722 C   0  0  0  0  0  0  0  0  0  0  0  0
   -6.6339    4.9760  -16.6563 C   0  0  0  0  0  0  0  0  0  0  0  0
  1  2  1  0
  3  2  1  1
  3  4  1  0
  4  5  1  0
  6  5  1  1
  6  7  1  0
  6  8  1  0
  8  9  2  0
  8 10  1  0
 10 11  1  0
 11 12  2  0
 12 13  1  0
 13 14  2  0
 14 15  1  0
 15 16  1  0
 16 17  2  0
 16 18  1  0
 19 18  1  6
 19 20  1  0
 21 20  1  6
 21 22  1  0
 22 23  1  0
 23 24  1  0
 25 24  1  1
 25 26  1  0
 26 27  1  0
 26 28  1  0
 15 29  2  0
  7  3  1  0
 29 11  1  0
 29  6  1  0
 28 19  1  0
 25 21  1  0
M  END
>  <smiles>  (1891) 
C27216-P221

>  <fragmenstein_outcome>  (1891) 
acceptable

>  <inchikey>  (1891) 
ASXKQLNUDYSZQN-UHFFFAOYSA-N

>  <fragmenstein_mode>  (1891) 
expansion

>  <HIPPO Pose ID>  (1891) 
23859

>  <Energy>  (1891) 
85.651638

>  <fragmenstein_error>  (1891) 


>  <tags>  (1891) 
{'openbind_xx01zvns2b_c1_fragmenstein', 'fragmenstein_placed'}

>  <ref_pdb>  (1891) 
175

>  <scratch_subdir>  (1891) 
/opt/xchem-fragalysis-2/maxwin/BulkDock/SCRATCH/511028/C27216-P221

>  <alias>  (1891) 
CO[C@H]1CC[C@@]2(N1)C(=O)Nc1cccc(C(=O)N[C@H]3C[C@@H]4CNC[C@@H]4N(C)C3)c12

>  <HIPPO Compound ID>  (1891) 
42691

>  <fragmenstein_runtime>  (1891) 
5.495511

$$$$
Cc1cc(NC(=O)c2cccc3c2[C@@H](C)C(=O)N3)cc2c1CNC2
     RDKit          3D

 24 27  0  0  0  0  0  0  0  0999 V2000
   -7.7715    6.8090   -8.9766 C   0  0  0  0  0  0  0  0  0  0  0  0
   -7.9814    5.5406   -9.7405 C   0  0  0  0  0  0  0  0  0  0  0  0
   -7.8755    5.5104  -11.1441 C   0  0  0  0  0  0  0  0  0  0  0  0
   -8.1105    4.3284  -11.8649 C   0  0  0  0  0  0  0  0  0  0  0  0
   -8.0592    4.2951  -13.2606 N   0  0  0  0  0  0  0  0  0  0  0  0
   -7.5546    5.3532  -14.2751 C   0  0  0  0  0  0  0  0  0  0  0  0
   -7.1757    6.4459  -14.1047 O   0  0  0  0  0  0  0  0  0  0  0  0
   -7.6664    4.8517  -15.6750 C   0  0  0  0  0  0  0  0  0  0  0  0
   -8.8722    4.2687  -16.1040 C   0  0  0  0  0  0  0  0  0  0  0  0
   -9.0815    3.9273  -17.4513 C   0  0  0  0  0  0  0  0  0  0  0  0
   -8.0823    4.1416  -18.3927 C   0  0  0  0  0  0  0  0  0  0  0  0
   -6.9052    4.7076  -17.9506 C   0  0  0  0  0  0  0  0  0  0  0  0
   -6.6746    5.0713  -16.6201 C   0  0  0  0  0  0  0  0  0  0  0  0
   -5.3315    5.7500  -16.5379 C   0  0  1  0  0  0  0  0  0  0  0  0
   -4.3522    5.2664  -15.4858 C   0  0  0  0  0  0  0  0  0  0  0  0
   -4.7699    5.5201  -17.9625 C   0  0  0  0  0  0  0  0  0  0  0  0
   -3.6379    5.7616  -18.3538 O   0  0  0  0  0  0  0  0  0  0  0  0
   -5.7991    4.9993  -18.7318 N   0  0  0  0  0  0  0  0  0  0  0  0
   -8.4454    3.1521  -11.1863 C   0  0  0  0  0  0  0  0  0  0  0  0
   -8.5602    3.1891   -9.8064 C   0  0  0  0  0  0  0  0  0  0  0  0
   -8.3430    4.3649   -9.0951 C   0  0  0  0  0  0  0  0  0  0  0  0
   -8.5475    4.0854   -7.6411 C   0  0  0  0  0  0  0  0  0  0  0  0
   -9.2321    2.7768   -7.5746 N   0  0  0  0  0  0  0  0  0  0  0  0
   -8.8967    2.0905   -8.8503 C   0  0  0  0  0  0  0  0  0  0  0  0
  1  2  1  0
  2  3  2  0
  3  4  1  0
  4  5  1  0
  5  6  1  0
  6  7  2  0
  6  8  1  0
  8  9  2  0
  9 10  1  0
 10 11  2  0
 11 12  1  0
 12 13  2  0
 13 14  1  0
 14 15  1  1
 14 16  1  0
 16 17  2  0
 16 18  1  0
  4 19  2  0
 19 20  1  0
 20 21  2  0
 21 22  1  0
 22 23  1  0
 23 24  1  0
 21  2  1  0
 13  8  1  0
 24 20  1  0
 18 12  1  0
M  END
>  <smiles>  (1892) 
C27219-P221

>  <fragmenstein_outcome>  (1892) 
acceptable

>  <inchikey>  (1892) 
WIDKYFVSFYUVQE-UHFFFAOYSA-N

>  <fragmenstein_mode>  (1892) 
expansion

>  <HIPPO Pose ID>  (1892) 
23860

>  <Energy>  (1892) 
44.781265

>  <fragmenstein_error>  (1892) 


>  <tags>  (1892) 
{'openbind_xx01zvns2b_c1_fragmenstein', 'fragmenstein_placed'}

>  <ref_pdb>  (1892) 
175

>  <scratch_subdir>  (1892) 
/opt/xchem-fragalysis-2/maxwin/BulkDock/SCRATCH/511028/C27219-P221

>  <alias>  (1892) 
Cc1cc(NC(=O)c2cccc3c2[C@@H](C)C(=O)N3)cc2c1CNC2

>  <HIPPO Compound ID>  (1892) 
31407

>  <fragmenstein_runtime>  (1892) 
5.510289

$$$$
Cc1nc2c(c(N)c1NC(=O)c1cccc3c1CC(=O)N3)CNC2
     RDKit          3D

 24 27  0  0  0  0  0  0  0  0999 V2000
   -7.9620    7.0752  -11.3783 C   0  0  0  0  0  0  0  0  0  0  0  0
   -8.0239    5.6862  -10.8352 C   0  0  0  0  0  0  0  0  0  0  0  0
   -8.1354    5.6357   -9.4691 N   0  0  0  0  0  0  0  0  0  0  0  0
   -8.3424    4.4228   -8.9261 C   0  0  0  0  0  0  0  0  0  0  0  0
   -8.4399    3.2530   -9.6354 C   0  0  0  0  0  0  0  0  0  0  0  0
   -8.2321    3.2906  -11.0002 C   0  0  0  0  0  0  0  0  0  0  0  0
   -8.4078    2.1339  -11.7948 N   0  0  0  0  0  0  0  0  0  0  0  0
   -8.0525    4.5390  -11.6414 C   0  0  0  0  0  0  0  0  0  0  0  0
   -7.9967    4.4430  -13.0468 N   0  0  0  0  0  0  0  0  0  0  0  0
   -7.4739    5.4443  -14.1022 C   0  0  0  0  0  0  0  0  0  0  0  0
   -7.0786    6.5361  -13.9792 O   0  0  0  0  0  0  0  0  0  0  0  0
   -7.6151    4.8955  -15.4821 C   0  0  0  0  0  0  0  0  0  0  0  0
   -8.8477    4.3705  -15.9026 C   0  0  0  0  0  0  0  0  0  0  0  0
   -9.0829    4.0462  -17.2524 C   0  0  0  0  0  0  0  0  0  0  0  0
   -8.0853    4.2246  -18.2054 C   0  0  0  0  0  0  0  0  0  0  0  0
   -6.8752    4.7130  -17.7642 C   0  0  0  0  0  0  0  0  0  0  0  0
   -6.6221    5.0454  -16.4327 C   0  0  0  0  0  0  0  0  0  0  0  0
   -5.2122    5.5376  -16.3126 C   0  0  0  0  0  0  0  0  0  0  0  0
   -4.6936    5.3919  -17.7532 C   0  0  0  0  0  0  0  0  0  0  0  0
   -3.5596    5.6173  -18.1474 O   0  0  0  0  0  0  0  0  0  0  0  0
   -5.7509    4.9512  -18.5360 N   0  0  0  0  0  0  0  0  0  0  0  0
   -8.7972    2.1346   -8.7218 C   0  0  0  0  0  0  0  0  0  0  0  0
   -8.7759    2.6788   -7.3361 N   0  0  0  0  0  0  0  0  0  0  0  0
   -8.5486    4.1394   -7.4663 C   0  0  0  0  0  0  0  0  0  0  0  0
  1  2  1  0
  2  3  2  0
  3  4  1  0
  4  5  2  0
  5  6  1  0
  6  7  1  0
  6  8  2  0
  8  9  1  0
  9 10  1  0
 10 11  2  0
 10 12  1  0
 12 13  2  0
 13 14  1  0
 14 15  2  0
 15 16  1  0
 16 17  2  0
 17 18  1  0
 18 19  1  0
 19 20  2  0
 19 21  1  0
  5 22  1  0
 22 23  1  0
 23 24  1  0
  8  2  1  0
 17 12  1  0
 24  4  1  0
 21 16  1  0
M  END
>  <smiles>  (1893) 
C27227-P221

>  <fragmenstein_outcome>  (1893) 
acceptable

>  <inchikey>  (1893) 
KSCJUMODTOECTF-UHFFFAOYSA-N

>  <fragmenstein_mode>  (1893) 
expansion

>  <HIPPO Pose ID>  (1893) 
23862

>  <Energy>  (1893) 
86.394986

>  <fragmenstein_error>  (1893) 


>  <tags>  (1893) 
{'openbind_xx01zvns2b_c1_fragmenstein', 'fragmenstein_placed'}

>  <ref_pdb>  (1893) 
175

>  <scratch_subdir>  (1893) 
/opt/xchem-fragalysis-2/maxwin/BulkDock/SCRATCH/511028/C27227-P221

>  <alias>  (1893) 
Cc1nc2c(c(N)c1NC(=O)c1cccc3c1CC(=O)N3)CNC2

>  <HIPPO Compound ID>  (1893) 
27227

>  <fragmenstein_runtime>  (1893) 
2.947674

$$$$
Nc1cc2c(c(C(=O)Nc3cnc4c(c3)CNC4)c1)CC(=O)N2
     RDKit          3D

 23 26  0  0  0  0  0  0  0  0999 V2000
  -10.5246    4.0578  -17.6638 N   0  0  0  0  0  0  0  0  0  0  0  0
   -9.1881    4.3051  -17.3169 C   0  0  0  0  0  0  0  0  0  0  0  0
   -8.1964    4.3183  -18.2950 C   0  0  0  0  0  0  0  0  0  0  0  0
   -6.9229    4.6697  -17.9028 C   0  0  0  0  0  0  0  0  0  0  0  0
   -6.5826    4.9337  -16.5775 C   0  0  0  0  0  0  0  0  0  0  0  0
   -7.5355    4.8020  -15.5847 C   0  0  0  0  0  0  0  0  0  0  0  0
   -7.2764    5.2024  -14.1774 C   0  0  0  0  0  0  0  0  0  0  0  0
   -6.7921    6.2474  -13.9836 O   0  0  0  0  0  0  0  0  0  0  0  0
   -7.8134    4.1457  -13.1822 N   0  0  0  0  0  0  0  0  0  0  0  0
   -7.9482    4.1939  -11.7946 C   0  0  0  0  0  0  0  0  0  0  0  0
   -7.6564    5.3397  -11.0439 C   0  0  0  0  0  0  0  0  0  0  0  0
   -7.8122    5.4414   -9.6950 N   0  0  0  0  0  0  0  0  0  0  0  0
   -8.2496    4.3175   -9.0974 C   0  0  0  0  0  0  0  0  0  0  0  0
   -8.5470    3.1356   -9.7490 C   0  0  0  0  0  0  0  0  0  0  0  0
   -8.4104    3.0630  -11.1219 C   0  0  0  0  0  0  0  0  0  0  0  0
   -8.9466    2.1012   -8.7536 C   0  0  0  0  0  0  0  0  0  0  0  0
   -9.2233    2.8412   -7.4921 N   0  0  0  0  0  0  0  0  0  0  0  0
   -8.4859    4.1247   -7.6243 C   0  0  0  0  0  0  0  0  0  0  0  0
   -8.8373    4.4501  -15.9636 C   0  0  0  0  0  0  0  0  0  0  0  0
   -5.1418    5.3374  -16.5137 C   0  0  0  0  0  0  0  0  0  0  0  0
   -4.7005    5.2028  -17.9812 C   0  0  0  0  0  0  0  0  0  0  0  0
   -3.5737    5.3804  -18.4186 O   0  0  0  0  0  0  0  0  0  0  0  0
   -5.8186    4.8441  -18.7226 N   0  0  0  0  0  0  0  0  0  0  0  0
  1  2  1  0
  2  3  2  0
  3  4  1  0
  4  5  2  0
  5  6  1  0
  6  7  1  0
  7  8  2  0
  7  9  1  0
  9 10  1  0
 10 11  2  0
 11 12  1  0
 12 13  2  0
 13 14  1  0
 14 15  2  0
 14 16  1  0
 16 17  1  0
 17 18  1  0
  6 19  2  0
  5 20  1  0
 20 21  1  0
 21 22  2  0
 21 23  1  0
 19  2  1  0
 23  4  1  0
 15 10  1  0
 18 13  1  0
M  END
>  <smiles>  (1894) 
C27228-P221

>  <fragmenstein_outcome>  (1894) 
acceptable

>  <inchikey>  (1894) 
KQRMWQJNYINGNH-UHFFFAOYSA-N

>  <fragmenstein_mode>  (1894) 
expansion

>  <HIPPO Pose ID>  (1894) 
23863

>  <Energy>  (1894) 
57.322202

>  <fragmenstein_error>  (1894) 


>  <tags>  (1894) 
{'openbind_xx01zvns2b_c1_fragmenstein', 'fragmenstein_placed'}

>  <ref_pdb>  (1894) 
175

>  <scratch_subdir>  (1894) 
/opt/xchem-fragalysis-2/maxwin/BulkDock/SCRATCH/511028/C27228-P221

>  <alias>  (1894) 
Nc1cc2c(c(C(=O)Nc3cnc4c(c3)CNC4)c1)CC(=O)N2

>  <HIPPO Compound ID>  (1894) 
27228

>  <fragmenstein_runtime>  (1894) 
2.32448

$$$$
O=C1Cc2c(cccc2C(=O)C(=O)c2cnc3c(c2)CNC3)N1
     RDKit          3D

 23 26  0  0  0  0  0  0  0  0999 V2000
   -3.6470    5.5254  -18.3302 O   0  0  0  0  0  0  0  0  0  0  0  0
   -4.7706    5.3249  -17.8947 C   0  0  0  0  0  0  0  0  0  0  0  0
   -5.2042    5.3978  -16.4205 C   0  0  0  0  0  0  0  0  0  0  0  0
   -6.6426    4.9788  -16.4863 C   0  0  0  0  0  0  0  0  0  0  0  0
   -6.9827    4.7543  -17.8230 C   0  0  0  0  0  0  0  0  0  0  0  0
   -8.2307    4.3309  -18.2221 C   0  0  0  0  0  0  0  0  0  0  0  0
   -9.1789    4.1224  -17.2260 C   0  0  0  0  0  0  0  0  0  0  0  0
   -8.8516    4.3266  -15.8714 C   0  0  0  0  0  0  0  0  0  0  0  0
   -7.5747    4.7593  -15.4833 C   0  0  0  0  0  0  0  0  0  0  0  0
   -7.2465    4.9758  -14.0466 C   0  0  0  0  0  0  0  0  0  0  0  0
   -6.5579    5.9249  -13.6999 O   0  0  0  0  0  0  0  0  0  0  0  0
   -7.7509    3.9769  -13.0262 C   0  0  0  0  0  0  0  0  0  0  0  0
   -7.9662    2.8403  -13.4267 O   0  0  0  0  0  0  0  0  0  0  0  0
   -7.9661    4.2318  -11.5950 C   0  0  0  0  0  0  0  0  0  0  0  0
   -7.6759    5.4286  -10.9452 C   0  0  0  0  0  0  0  0  0  0  0  0
   -7.8167    5.6193   -9.6022 N   0  0  0  0  0  0  0  0  0  0  0  0
   -8.2552    4.5447   -8.9134 C   0  0  0  0  0  0  0  0  0  0  0  0
   -8.5964    3.3330   -9.4712 C   0  0  0  0  0  0  0  0  0  0  0  0
   -8.4604    3.1629  -10.8281 C   0  0  0  0  0  0  0  0  0  0  0  0
   -9.0827    2.3925   -8.4292 C   0  0  0  0  0  0  0  0  0  0  0  0
   -8.7496    3.0273   -7.1237 N   0  0  0  0  0  0  0  0  0  0  0  0
   -8.4433    4.4518   -7.4251 C   0  0  0  0  0  0  0  0  0  0  0  0
   -5.8908    4.9910  -18.6427 N   0  0  0  0  0  0  0  0  0  0  0  0
  1  2  2  0
  2  3  1  0
  3  4  1  0
  4  5  2  0
  5  6  1  0
  6  7  2  0
  7  8  1  0
  8  9  2  0
  9 10  1  0
 10 11  2  0
 10 12  1  0
 12 13  2  0
 12 14  1  0
 14 15  2  0
 15 16  1  0
 16 17  2  0
 17 18  1  0
 18 19  2  0
 18 20  1  0
 20 21  1  0
 21 22  1  0
  5 23  1  0
 23  2  1  0
  9  4  1  0
 19 14  1  0
 22 17  1  0
M  END
>  <smiles>  (1895) 
C27234-P221

>  <fragmenstein_outcome>  (1895) 
acceptable

>  <inchikey>  (1895) 
NMNKWWRIYAQFKO-UHFFFAOYSA-N

>  <fragmenstein_mode>  (1895) 
expansion

>  <HIPPO Pose ID>  (1895) 
23864

>  <Energy>  (1895) 
100.227332

>  <fragmenstein_error>  (1895) 


>  <tags>  (1895) 
{'openbind_xx01zvns2b_c1_fragmenstein', 'fragmenstein_placed'}

>  <ref_pdb>  (1895) 
175

>  <scratch_subdir>  (1895) 
/opt/xchem-fragalysis-2/maxwin/BulkDock/SCRATCH/511028/C27234-P221

>  <alias>  (1895) 
O=C1Cc2c(cccc2C(=O)C(=O)c2cnc3c(c2)CNC3)N1

>  <HIPPO Compound ID>  (1895) 
19560

>  <fragmenstein_runtime>  (1895) 
1.895771

$$$$
C[C@H]1C(=O)N(CO)c2cccc(C(=O)C(=O)c3cnc4c(c3)CNC4)c21
     RDKit          3D

 26 29  0  0  0  0  0  0  0  0999 V2000
   -4.0206    5.1364  -15.3406 C   0  0  0  0  0  0  0  0  0  0  0  0
   -5.0756    5.8334  -16.1767 C   0  0  1  0  0  0  0  0  0  0  0  0
   -4.5017    5.9747  -17.5870 C   0  0  0  0  0  0  0  0  0  0  0  0
   -3.3966    6.3998  -17.8948 O   0  0  0  0  0  0  0  0  0  0  0  0
   -5.4649    5.5480  -18.4792 N   0  0  0  0  0  0  0  0  0  0  0  0
   -5.2717    5.6521  -19.8864 C   0  0  0  0  0  0  0  0  0  0  0  0
   -5.1284    7.0292  -20.2137 O   0  0  0  0  0  0  0  0  0  0  0  0
   -6.5594    4.9854  -17.8199 C   0  0  0  0  0  0  0  0  0  0  0  0
   -7.6816    4.3913  -18.3679 C   0  0  0  0  0  0  0  0  0  0  0  0
   -8.6827    3.9589  -17.5083 C   0  0  0  0  0  0  0  0  0  0  0  0
   -8.5450    4.1331  -16.1248 C   0  0  0  0  0  0  0  0  0  0  0  0
   -7.4057    4.7418  -15.5637 C   0  0  0  0  0  0  0  0  0  0  0  0
   -7.3353    5.0759  -14.1120 C   0  0  0  0  0  0  0  0  0  0  0  0
   -6.3802    5.6656  -13.6212 O   0  0  0  0  0  0  0  0  0  0  0  0
   -8.5129    4.8329  -13.2088 C   0  0  0  0  0  0  0  0  0  0  0  0
   -9.6388    5.0444  -13.6475 O   0  0  0  0  0  0  0  0  0  0  0  0
   -8.3019    4.5533  -11.7817 C   0  0  0  0  0  0  0  0  0  0  0  0
   -7.9791    5.6280  -10.9467 C   0  0  0  0  0  0  0  0  0  0  0  0
   -7.9592    5.5644   -9.5915 N   0  0  0  0  0  0  0  0  0  0  0  0
   -8.2814    4.3588   -9.0860 C   0  0  0  0  0  0  0  0  0  0  0  0
   -8.5891    3.2329   -9.8348 C   0  0  0  0  0  0  0  0  0  0  0  0
   -8.6011    3.3123  -11.2167 C   0  0  0  0  0  0  0  0  0  0  0  0
   -8.9089    2.1054   -8.9103 C   0  0  0  0  0  0  0  0  0  0  0  0
   -9.1817    2.7382   -7.5913 N   0  0  0  0  0  0  0  0  0  0  0  0
   -8.4542    4.0310   -7.6273 C   0  0  0  0  0  0  0  0  0  0  0  0
   -6.3872    5.1263  -16.4338 C   0  0  0  0  0  0  0  0  0  0  0  0
  2  1  1  1
  2  3  1  0
  3  4  2  0
  3  5  1  0
  5  6  1  0
  6  7  1  0
  5  8  1  0
  8  9  2  0
  9 10  1  0
 10 11  2  0
 11 12  1  0
 12 13  1  0
 13 14  2  0
 13 15  1  0
 15 16  2  0
 15 17  1  0
 17 18  2  0
 18 19  1  0
 19 20  2  0
 20 21  1  0
 21 22  2  0
 21 23  1  0
 23 24  1  0
 24 25  1  0
 12 26  2  0
 26  2  1  0
 26  8  1  0
 22 17  1  0
 25 20  1  0
M  END
>  <smiles>  (1896) 
C27237-P221

>  <fragmenstein_outcome>  (1896) 
acceptable

>  <inchikey>  (1896) 
RYZFBPOFDXXTCY-UHFFFAOYSA-N

>  <fragmenstein_mode>  (1896) 
expansion

>  <HIPPO Pose ID>  (1896) 
23865

>  <Energy>  (1896) 
97.839762

>  <fragmenstein_error>  (1896) 


>  <tags>  (1896) 
{'openbind_xx01zvns2b_c1_fragmenstein', 'fragmenstein_placed'}

>  <ref_pdb>  (1896) 
175

>  <scratch_subdir>  (1896) 
/opt/xchem-fragalysis-2/maxwin/BulkDock/SCRATCH/511028/C27237-P221

>  <alias>  (1896) 
C[C@H]1C(=O)N(CO)c2cccc(C(=O)C(=O)c3cnc4c(c3)CNC4)c21

>  <HIPPO Compound ID>  (1896) 
18114

>  <fragmenstein_runtime>  (1896) 
2.362245

$$$$
O=C1Cc2c(cc(Br)cc2C(=O)Nc2cnc3c(c2)CNC3)N1
     RDKit          3D

 23 26  0  0  0  0  0  0  0  0999 V2000
   -3.2649    5.4508  -18.2005 O   0  0  0  0  0  0  0  0  0  0  0  0
   -4.4082    5.2706  -17.8124 C   0  0  0  0  0  0  0  0  0  0  0  0
   -4.9201    5.3871  -16.3652 C   0  0  0  0  0  0  0  0  0  0  0  0
   -6.3580    4.9858  -16.5038 C   0  0  0  0  0  0  0  0  0  0  0  0
   -6.6224    4.7287  -17.8488 C   0  0  0  0  0  0  0  0  0  0  0  0
   -7.8593    4.3699  -18.3155 C   0  0  0  0  0  0  0  0  0  0  0  0
   -8.8772    4.3022  -17.3769 C   0  0  0  0  0  0  0  0  0  0  0  0
  -10.6347    4.1628  -18.0031 Br  0  0  0  0  0  0  0  0  0  0  0  0
   -8.6452    4.5109  -16.0086 C   0  0  0  0  0  0  0  0  0  0  0  0
   -7.3665    4.8629  -15.5613 C   0  0  0  0  0  0  0  0  0  0  0  0
   -7.1686    5.2600  -14.1422 C   0  0  0  0  0  0  0  0  0  0  0  0
   -6.6404    6.2770  -13.9194 O   0  0  0  0  0  0  0  0  0  0  0  0
   -7.7769    4.2140  -13.1785 N   0  0  0  0  0  0  0  0  0  0  0  0
   -7.9405    4.2453  -11.7939 C   0  0  0  0  0  0  0  0  0  0  0  0
   -7.6847    5.3898  -11.0282 C   0  0  0  0  0  0  0  0  0  0  0  0
   -7.8537    5.4730   -9.6800 N   0  0  0  0  0  0  0  0  0  0  0  0
   -8.2722    4.3333   -9.0987 C   0  0  0  0  0  0  0  0  0  0  0  0
   -8.5407    3.1530   -9.7662 C   0  0  0  0  0  0  0  0  0  0  0  0
   -8.3865    3.0972  -11.1384 C   0  0  0  0  0  0  0  0  0  0  0  0
   -8.9347    2.1017   -8.7857 C   0  0  0  0  0  0  0  0  0  0  0  0
   -9.2334    2.8234   -7.5185 N   0  0  0  0  0  0  0  0  0  0  0  0
   -8.5144    4.1186   -7.6297 C   0  0  0  0  0  0  0  0  0  0  0  0
   -5.4847    4.9182  -18.6109 N   0  0  0  0  0  0  0  0  0  0  0  0
  1  2  2  0
  2  3  1  0
  3  4  1  0
  4  5  2  0
  5  6  1  0
  6  7  2  0
  7  8  1  0
  7  9  1  0
  9 10  2  0
 10 11  1  0
 11 12  2  0
 11 13  1  0
 13 14  1  0
 14 15  2  0
 15 16  1  0
 16 17  2  0
 17 18  1  0
 18 19  2  0
 18 20  1  0
 20 21  1  0
 21 22  1  0
  5 23  1  0
 23  2  1  0
 10  4  1  0
 19 14  1  0
 22 17  1  0
M  END
>  <smiles>  (1897) 
C27180-P221

>  <fragmenstein_outcome>  (1897) 
acceptable

>  <inchikey>  (1897) 
GGCAPZUMABTACZ-UHFFFAOYSA-N

>  <fragmenstein_mode>  (1897) 
expansion

>  <HIPPO Pose ID>  (1897) 
23868

>  <Energy>  (1897) 
58.626364

>  <fragmenstein_error>  (1897) 


>  <tags>  (1897) 
{'openbind_xx01zvns2b_c1_fragmenstein', 'fragmenstein_placed'}

>  <ref_pdb>  (1897) 
175

>  <scratch_subdir>  (1897) 
/opt/xchem-fragalysis-2/maxwin/BulkDock/SCRATCH/511028/C27180-P221

>  <alias>  (1897) 
O=C1Cc2c(cc(Br)cc2C(=O)Nc2cnc3c(c2)CNC3)N1

>  <HIPPO Compound ID>  (1897) 
38684

>  <fragmenstein_runtime>  (1897) 
2.371929

$$$$
O=C1Cc2c(cc(Cl)cc2[C@](O)(Nc2cnc3c(c2)CNC3)C(=O)NCC(F)F)N1
     RDKit          3D

 30 33  0  0  0  0  0  0  0  0999 V2000
   -3.3357    5.5313  -17.6867 O   0  0  0  0  0  0  0  0  0  0  0  0
   -4.4919    5.3114  -17.3629 C   0  0  0  0  0  0  0  0  0  0  0  0
   -5.0826    5.3446  -15.9413 C   0  0  0  0  0  0  0  0  0  0  0  0
   -6.5175    4.9331  -16.1579 C   0  0  0  0  0  0  0  0  0  0  0  0
   -6.6903    4.7472  -17.5427 C   0  0  0  0  0  0  0  0  0  0  0  0
   -7.8779    4.3997  -18.1246 C   0  0  0  0  0  0  0  0  0  0  0  0
   -8.9432    4.2359  -17.2648 C   0  0  0  0  0  0  0  0  0  0  0  0
  -10.4953    4.0347  -17.9484 Cl  0  0  0  0  0  0  0  0  0  0  0  0
   -8.7982    4.3678  -15.8696 C   0  0  0  0  0  0  0  0  0  0  0  0
   -7.5814    4.7550  -15.2633 C   0  0  0  0  0  0  0  0  0  0  0  0
   -7.5618    5.0823  -13.7575 C   0  0  2  0  0  0  0  0  0  0  0  0
   -6.2409    5.3988  -13.3633 O   0  0  0  0  0  0  0  0  0  0  0  0
   -7.9438    3.9330  -12.9262 N   0  0  0  0  0  0  0  0  0  0  0  0
   -8.1364    4.0091  -11.5319 C   0  0  0  0  0  0  0  0  0  0  0  0
   -7.7720    5.0815  -10.6935 C   0  0  0  0  0  0  0  0  0  0  0  0
   -7.9267    5.1490   -9.3408 N   0  0  0  0  0  0  0  0  0  0  0  0
   -8.4056    4.0276   -8.7843 C   0  0  0  0  0  0  0  0  0  0  0  0
   -8.7235    2.8840   -9.4850 C   0  0  0  0  0  0  0  0  0  0  0  0
   -8.5990    2.8687  -10.8653 C   0  0  0  0  0  0  0  0  0  0  0  0
   -9.1103    1.8133   -8.5248 C   0  0  0  0  0  0  0  0  0  0  0  0
   -9.4213    2.5117   -7.2483 N   0  0  0  0  0  0  0  0  0  0  0  0
   -8.6678    3.7903   -7.3213 C   0  0  0  0  0  0  0  0  0  0  0  0
   -8.5885    6.3116  -13.5076 C   0  0  0  0  0  0  0  0  0  0  0  0
   -9.7465    6.2288  -13.6639 O   0  0  0  0  0  0  0  0  0  0  0  0
   -7.7134    7.5240  -13.0669 N   0  0  0  0  0  0  0  0  0  0  0  0
   -8.0963    8.8523  -12.6376 C   0  0  0  0  0  0  0  0  0  0  0  0
   -8.1627    9.0125  -11.1222 C   0  0  0  0  0  0  0  0  0  0  0  0
   -6.9095    8.8909  -10.6081 F   0  0  0  0  0  0  0  0  0  0  0  0
   -8.5766   10.2713  -10.8238 F   0  0  0  0  0  0  0  0  0  0  0  0
   -5.5168    4.9914  -18.2302 N   0  0  0  0  0  0  0  0  0  0  0  0
  1  2  2  0
  2  3  1  0
  3  4  1  0
  4  5  2  0
  5  6  1  0
  6  7  2  0
  7  8  1  0
  7  9  1  0
  9 10  2  0
 10 11  1  0
 11 12  1  1
 11 13  1  0
 13 14  1  0
 14 15  2  0
 15 16  1  0
 16 17  2  0
 17 18  1  0
 18 19  2  0
 18 20  1  0
 20 21  1  0
 21 22  1  0
 11 23  1  0
 23 24  2  0
 23 25  1  0
 25 26  1  0
 26 27  1  0
 27 28  1  0
 27 29  1  0
  5 30  1  0
 30  2  1  0
 10  4  1  0
 19 14  1  0
 22 17  1  0
M  END
>  <smiles>  (1898) 
C27260-P221

>  <fragmenstein_outcome>  (1898) 
acceptable

>  <inchikey>  (1898) 
WQWALHJBOZOFHZ-UHFFFAOYSA-N

>  <fragmenstein_mode>  (1898) 
expansion

>  <HIPPO Pose ID>  (1898) 
23869

>  <Energy>  (1898) 
141.305781

>  <fragmenstein_error>  (1898) 


>  <tags>  (1898) 
{'openbind_xx01zvns2b_c1_fragmenstein', 'fragmenstein_placed'}

>  <ref_pdb>  (1898) 
175

>  <scratch_subdir>  (1898) 
/opt/xchem-fragalysis-2/maxwin/BulkDock/SCRATCH/511028/C27260-P221

>  <alias>  (1898) 
O=C1Cc2c(cc(Cl)cc2[C@](O)(Nc2cnc3c(c2)CNC3)C(=O)NCC(F)F)N1

>  <HIPPO Compound ID>  (1898) 
35184

>  <fragmenstein_runtime>  (1898) 
4.947669

$$$$
CNC(=O)[C@@](O)(Nc1cnc2c(c1)CNC2)c1cc(Cl)cc2c1CC(=O)N2
     RDKit          3D

 27 30  0  0  0  0  0  0  0  0999 V2000
   -9.3453    8.2591  -12.6688 C   0  0  0  0  0  0  0  0  0  0  0  0
   -8.7343    7.0114  -13.0245 N   0  0  0  0  0  0  0  0  0  0  0  0
   -7.2711    6.6866  -13.4468 C   0  0  0  0  0  0  0  0  0  0  0  0
   -6.3631    7.3986  -13.6431 O   0  0  0  0  0  0  0  0  0  0  0  0
   -7.1832    5.0784  -13.6491 C   0  0  1  0  0  0  0  0  0  0  0  0
   -5.9361    4.5269  -13.2988 O   0  0  0  0  0  0  0  0  0  0  0  0
   -8.2160    4.3454  -12.8693 N   0  0  0  0  0  0  0  0  0  0  0  0
   -8.1786    4.2428  -11.4602 C   0  0  0  0  0  0  0  0  0  0  0  0
   -7.8798    5.2971  -10.5733 C   0  0  0  0  0  0  0  0  0  0  0  0
   -7.9888    5.2653   -9.2166 N   0  0  0  0  0  0  0  0  0  0  0  0
   -8.4036    4.0922   -8.7178 C   0  0  0  0  0  0  0  0  0  0  0  0
   -8.7062    2.9820   -9.4775 C   0  0  0  0  0  0  0  0  0  0  0  0
   -8.6163    3.0523  -10.8585 C   0  0  0  0  0  0  0  0  0  0  0  0
   -9.0819    1.8593   -8.5727 C   0  0  0  0  0  0  0  0  0  0  0  0
   -9.4088    2.4918   -7.2666 N   0  0  0  0  0  0  0  0  0  0  0  0
   -8.6644    3.7774   -7.2691 C   0  0  0  0  0  0  0  0  0  0  0  0
   -7.3818    4.8243  -15.1630 C   0  0  0  0  0  0  0  0  0  0  0  0
   -8.6371    4.4833  -15.7222 C   0  0  0  0  0  0  0  0  0  0  0  0
   -8.8176    4.3301  -17.1163 C   0  0  0  0  0  0  0  0  0  0  0  0
  -10.3711    4.0506  -17.7808 Cl  0  0  0  0  0  0  0  0  0  0  0  0
   -7.7735    4.4968  -18.0072 C   0  0  0  0  0  0  0  0  0  0  0  0
   -6.5649    4.8369  -17.4653 C   0  0  0  0  0  0  0  0  0  0  0  0
   -6.3473    5.0018  -16.0912 C   0  0  0  0  0  0  0  0  0  0  0  0
   -4.8970    5.3740  -15.8994 C   0  0  0  0  0  0  0  0  0  0  0  0
   -4.3505    5.3559  -17.3362 C   0  0  0  0  0  0  0  0  0  0  0  0
   -3.2007    5.5501  -17.6972 O   0  0  0  0  0  0  0  0  0  0  0  0
   -5.4066    5.0696  -18.1799 N   0  0  0  0  0  0  0  0  0  0  0  0
  1  2  1  0
  2  3  1  0
  3  4  2  0
  3  5  1  0
  5  6  1  1
  5  7  1  0
  7  8  1  0
  8  9  2  0
  9 10  1  0
 10 11  2  0
 11 12  1  0
 12 13  2  0
 12 14  1  0
 14 15  1  0
 15 16  1  0
  5 17  1  0
 17 18  2  0
 18 19  1  0
 19 20  1  0
 19 21  2  0
 21 22  1  0
 22 23  2  0
 23 24  1  0
 24 25  1  0
 25 26  2  0
 25 27  1  0
 13  8  1  0
 23 17  1  0
 16 11  1  0
 27 22  1  0
M  END
>  <smiles>  (1899) 
C27263-P221

>  <fragmenstein_outcome>  (1899) 
acceptable

>  <inchikey>  (1899) 
JGPBJKMGUTUIMM-UHFFFAOYSA-N

>  <fragmenstein_mode>  (1899) 
expansion

>  <HIPPO Pose ID>  (1899) 
23870

>  <Energy>  (1899) 
112.187229

>  <fragmenstein_error>  (1899) 


>  <tags>  (1899) 
{'openbind_xx01zvns2b_c1_fragmenstein', 'fragmenstein_placed'}

>  <ref_pdb>  (1899) 
175

>  <scratch_subdir>  (1899) 
/opt/xchem-fragalysis-2/maxwin/BulkDock/SCRATCH/511028/C27263-P221

>  <alias>  (1899) 
CNC(=O)[C@@](O)(Nc1cnc2c(c1)CNC2)c1cc(Cl)cc2c1CC(=O)N2

>  <HIPPO Compound ID>  (1899) 
27263

>  <fragmenstein_runtime>  (1899) 
7.317486

$$$$
O=C(Nc1cnc2c(c1)CNC2)c1cc(Cl)cc2c1[C@]1(CNCN1)C(=O)N2
     RDKit          3D

 27 31  0  0  0  0  0  0  0  0999 V2000
   -6.8197    6.3527  -13.9814 O   0  0  0  0  0  0  0  0  0  0  0  0
   -7.2781    5.2999  -14.1929 C   0  0  0  0  0  0  0  0  0  0  0  0
   -7.8871    4.2576  -13.2234 N   0  0  0  0  0  0  0  0  0  0  0  0
   -7.9691    4.2551  -11.8305 C   0  0  0  0  0  0  0  0  0  0  0  0
   -7.6639    5.3841  -11.0589 C   0  0  0  0  0  0  0  0  0  0  0  0
   -7.7958    5.4576   -9.7066 N   0  0  0  0  0  0  0  0  0  0  0  0
   -8.2287    4.3235   -9.1257 C   0  0  0  0  0  0  0  0  0  0  0  0
   -8.5342    3.1542   -9.7969 C   0  0  0  0  0  0  0  0  0  0  0  0
   -8.4170    3.1086  -11.1738 C   0  0  0  0  0  0  0  0  0  0  0  0
   -8.9312    2.1052   -8.8146 C   0  0  0  0  0  0  0  0  0  0  0  0
   -9.2070    2.8280   -7.5430 N   0  0  0  0  0  0  0  0  0  0  0  0
   -8.4646    4.1095   -7.6554 C   0  0  0  0  0  0  0  0  0  0  0  0
   -7.4142    4.8766  -15.6140 C   0  0  0  0  0  0  0  0  0  0  0  0
   -8.6886    4.4944  -16.0641 C   0  0  0  0  0  0  0  0  0  0  0  0
   -8.9236    4.2528  -17.4240 C   0  0  0  0  0  0  0  0  0  0  0  0
  -10.5264    4.0449  -17.9750 Cl  0  0  0  0  0  0  0  0  0  0  0  0
   -7.9015    4.3150  -18.3545 C   0  0  0  0  0  0  0  0  0  0  0  0
   -6.6652    4.7021  -17.8928 C   0  0  0  0  0  0  0  0  0  0  0  0
   -6.3957    5.0116  -16.5527 C   0  0  0  0  0  0  0  0  0  0  0  0
   -4.9617    5.4810  -16.4535 C   0  0  1  0  0  0  0  0  0  0  0  0
   -4.7645    6.9699  -16.1662 C   0  0  0  0  0  0  0  0  0  0  0  0
   -4.0102    7.0075  -14.8980 N   0  0  0  0  0  0  0  0  0  0  0  0
   -3.2204    5.7926  -14.9569 C   0  0  0  0  0  0  0  0  0  0  0  0
   -4.1390    4.7811  -15.4441 N   0  0  0  0  0  0  0  0  0  0  0  0
   -4.4371    5.2142  -17.9103 C   0  0  0  0  0  0  0  0  0  0  0  0
   -3.2996    5.3357  -18.3424 O   0  0  0  0  0  0  0  0  0  0  0  0
   -5.5360    4.8523  -18.6775 N   0  0  0  0  0  0  0  0  0  0  0  0
  1  2  2  0
  2  3  1  0
  3  4  1  0
  4  5  2  0
  5  6  1  0
  6  7  2  0
  7  8  1  0
  8  9  2  0
  8 10  1  0
 10 11  1  0
 11 12  1  0
  2 13  1  0
 13 14  2  0
 14 15  1  0
 15 16  1  0
 15 17  2  0
 17 18  1  0
 18 19  2  0
 19 20  1  0
 20 21  1  1
 21 22  1  0
 22 23  1  0
 23 24  1  0
 20 25  1  0
 25 26  2  0
 25 27  1  0
  9  4  1  0
 19 13  1  0
 24 20  1  0
 12  7  1  0
 27 18  1  0
M  END
>  <smiles>  (1900) 
C27272-P221

>  <fragmenstein_outcome>  (1900) 
acceptable

>  <inchikey>  (1900) 
PXVQQNLULIRFPW-UHFFFAOYSA-N

>  <fragmenstein_mode>  (1900) 
expansion

>  <HIPPO Pose ID>  (1900) 
23872

>  <Energy>  (1900) 
79.6268

>  <fragmenstein_error>  (1900) 


>  <tags>  (1900) 
{'openbind_xx01zvns2b_c1_fragmenstein', 'fragmenstein_placed'}

>  <ref_pdb>  (1900) 
175

>  <scratch_subdir>  (1900) 
/opt/xchem-fragalysis-2/maxwin/BulkDock/SCRATCH/511028/C27272-P221

>  <alias>  (1900) 
O=C(Nc1cnc2c(c1)CNC2)c1cc(Cl)cc2c1[C@]1(CNCN1)C(=O)N2

>  <HIPPO Compound ID>  (1900) 
27272

>  <fragmenstein_runtime>  (1900) 
3.929143

$$$$
CCc1cc(C(=O)Nc2cnc3c(c2)CNC3)c2c(c1)N(C)C(=O)C2
     RDKit          3D

 25 28  0  0  0  0  0  0  0  0999 V2000
  -10.7929    4.6586  -18.5462 C   0  0  0  0  0  0  0  0  0  0  0  0
  -10.0468    3.7881  -17.5857 C   0  0  0  0  0  0  0  0  0  0  0  0
   -8.7256    4.2964  -17.1162 C   0  0  0  0  0  0  0  0  0  0  0  0
   -8.5191    4.5353  -15.7412 C   0  0  0  0  0  0  0  0  0  0  0  0
   -7.2828    4.9820  -15.2654 C   0  0  0  0  0  0  0  0  0  0  0  0
   -7.1249    5.3687  -13.8439 C   0  0  0  0  0  0  0  0  0  0  0  0
   -6.6837    6.4229  -13.6073 O   0  0  0  0  0  0  0  0  0  0  0  0
   -7.6752    4.2782  -12.8982 N   0  0  0  0  0  0  0  0  0  0  0  0
   -7.8778    4.2940  -11.5220 C   0  0  0  0  0  0  0  0  0  0  0  0
   -7.5636    5.4104  -10.7374 C   0  0  0  0  0  0  0  0  0  0  0  0
   -7.7389    5.4806   -9.3929 N   0  0  0  0  0  0  0  0  0  0  0  0
   -8.2314    4.3600   -8.8372 C   0  0  0  0  0  0  0  0  0  0  0  0
   -8.5751    3.2133   -9.5274 C   0  0  0  0  0  0  0  0  0  0  0  0
   -8.4129    3.1680  -10.8986 C   0  0  0  0  0  0  0  0  0  0  0  0
   -9.1051    2.1960   -8.5807 C   0  0  0  0  0  0  0  0  0  0  0  0
   -8.8402    2.7148   -7.2107 N   0  0  0  0  0  0  0  0  0  0  0  0
   -8.5002    4.1512   -7.3754 C   0  0  0  0  0  0  0  0  0  0  0  0
   -6.2634    5.1704  -16.1773 C   0  0  0  0  0  0  0  0  0  0  0  0
   -6.4876    4.9518  -17.5336 C   0  0  0  0  0  0  0  0  0  0  0  0
   -7.6984    4.5186  -18.0278 C   0  0  0  0  0  0  0  0  0  0  0  0
   -5.3225    5.2204  -18.2418 N   0  0  0  0  0  0  0  0  0  0  0  0
   -5.2347    5.1837  -19.6678 C   0  0  0  0  0  0  0  0  0  0  0  0
   -4.2789    5.5649  -17.3951 C   0  0  0  0  0  0  0  0  0  0  0  0
   -3.1274    5.7989  -17.7277 O   0  0  0  0  0  0  0  0  0  0  0  0
   -4.8416    5.5962  -15.9703 C   0  0  0  0  0  0  0  0  0  0  0  0
  1  2  1  0
  2  3  1  0
  3  4  2  0
  4  5  1  0
  5  6  1  0
  6  7  2  0
  6  8  1  0
  8  9  1  0
  9 10  2  0
 10 11  1  0
 11 12  2  0
 12 13  1  0
 13 14  2  0
 13 15  1  0
 15 16  1  0
 16 17  1  0
  5 18  2  0
 18 19  1  0
 19 20  2  0
 19 21  1  0
 21 22  1  0
 21 23  1  0
 23 24  2  0
 23 25  1  0
 20  3  1  0
 14  9  1  0
 25 18  1  0
 17 12  1  0
M  END
>  <smiles>  (1901) 
C27284-P221

>  <fragmenstein_outcome>  (1901) 
acceptable

>  <inchikey>  (1901) 
KBRXHOJGMLLOAF-UHFFFAOYSA-N

>  <fragmenstein_mode>  (1901) 
expansion

>  <HIPPO Pose ID>  (1901) 
23874

>  <Energy>  (1901) 
79.193168

>  <fragmenstein_error>  (1901) 


>  <tags>  (1901) 
{'openbind_xx01zvns2b_c1_fragmenstein', 'fragmenstein_placed'}

>  <ref_pdb>  (1901) 
175

>  <scratch_subdir>  (1901) 
/opt/xchem-fragalysis-2/maxwin/BulkDock/SCRATCH/511028/C27284-P221

>  <alias>  (1901) 
CCc1cc(C(=O)Nc2cnc3c(c2)CNC3)c2c(c1)N(C)C(=O)C2

>  <HIPPO Compound ID>  (1901) 
31822

>  <fragmenstein_runtime>  (1901) 
4.572177

$$$$
O=C1Cc2c(cc(F)cc2C(=O)N[C@@H]2CC3=C(CNC3)C3(CCS(=O)(=O)CC3)C2)N1
     RDKit          3D

 30 34  0  0  0  0  0  0  0  0999 V2000
   -3.6287    5.3905  -18.6855 O   0  0  0  0  0  0  0  0  0  0  0  0
   -4.7502    5.2093  -18.2364 C   0  0  0  0  0  0  0  0  0  0  0  0
   -5.1691    5.3538  -16.7680 C   0  0  0  0  0  0  0  0  0  0  0  0
   -6.6042    4.9152  -16.7976 C   0  0  0  0  0  0  0  0  0  0  0  0
   -6.9604    4.6303  -18.1149 C   0  0  0  0  0  0  0  0  0  0  0  0
   -8.2167    4.2009  -18.4670 C   0  0  0  0  0  0  0  0  0  0  0  0
   -9.1404    4.0665  -17.4411 C   0  0  0  0  0  0  0  0  0  0  0  0
  -10.3903    3.7038  -17.7509 F   0  0  0  0  0  0  0  0  0  0  0  0
   -8.8112    4.3328  -16.1011 C   0  0  0  0  0  0  0  0  0  0  0  0
   -7.5237    4.7675  -15.7661 C   0  0  0  0  0  0  0  0  0  0  0  0
   -7.1440    5.1609  -14.3774 C   0  0  0  0  0  0  0  0  0  0  0  0
   -6.4566    6.0951  -14.2607 O   0  0  0  0  0  0  0  0  0  0  0  0
   -7.7344    4.2167  -13.3133 N   0  0  0  0  0  0  0  0  0  0  0  0
   -7.5244    4.1653  -11.8736 C   0  0  2  0  0  0  0  0  0  0  0  0
   -8.3415    3.0551  -11.1896 C   0  0  0  0  0  0  0  0  0  0  0  0
   -8.4732    3.2786   -9.7218 C   0  0  0  0  0  0  0  0  0  0  0  0
   -8.1104    4.3853   -9.0672 C   0  0  0  0  0  0  0  0  0  0  0  0
   -8.3674    4.2149   -7.6092 C   0  0  0  0  0  0  0  0  0  0  0  0
   -8.8593    2.8395   -7.4345 N   0  0  0  0  0  0  0  0  0  0  0  0
   -9.0167    2.2606   -8.7870 C   0  0  0  0  0  0  0  0  0  0  0  0
   -7.4939    5.6052   -9.7124 C   0  0  0  0  0  0  0  0  0  0  0  0
   -5.9645    5.5588   -9.4227 C   0  0  0  0  0  0  0  0  0  0  0  0
   -5.1661    6.7341   -9.9732 C   0  0  0  0  0  0  0  0  0  0  0  0
   -5.7525    8.2817   -9.3241 S   0  0  0  0  0  0  0  0  0  0  0  0
   -5.1917    9.3517  -10.1259 O   0  0  0  0  0  0  0  0  0  0  0  0
   -5.5712    8.2669   -7.8843 O   0  0  0  0  0  0  0  0  0  0  0  0
   -7.4949    8.1954   -9.6630 C   0  0  0  0  0  0  0  0  0  0  0  0
   -8.1065    6.9069   -9.1268 C   0  0  0  0  0  0  0  0  0  0  0  0
   -7.7916    5.5446  -11.2419 C   0  0  0  0  0  0  0  0  0  0  0  0
   -5.8767    4.8321  -18.9562 N   0  0  0  0  0  0  0  0  0  0  0  0
  1  2  2  0
  2  3  1  0
  3  4  1  0
  4  5  2  0
  5  6  1  0
  6  7  2  0
  7  8  1  0
  7  9  1  0
  9 10  2  0
 10 11  1  0
 11 12  2  0
 11 13  1  0
 14 13  1  6
 14 15  1  0
 15 16  1  0
 16 17  2  0
 17 18  1  0
 18 19  1  0
 19 20  1  0
 17 21  1  0
 21 22  1  0
 22 23  1  0
 23 24  1  0
 24 25  2  0
 24 26  2  0
 24 27  1  0
 27 28  1  0
 21 29  1  0
  5 30  1  0
 30  2  1  0
 10  4  1  0
 29 14  1  0
 20 16  1  0
 28 21  1  0
M  END
>  <smiles>  (1902) 
C27287-P221

>  <fragmenstein_outcome>  (1902) 
acceptable

>  <inchikey>  (1902) 
LWIYEHPRPKYIBS-UHFFFAOYSA-N

>  <fragmenstein_mode>  (1902) 
expansion

>  <HIPPO Pose ID>  (1902) 
23875

>  <Energy>  (1902) 
13.028851

>  <fragmenstein_error>  (1902) 


>  <tags>  (1902) 
{'openbind_xx01zvns2b_c1_fragmenstein', 'fragmenstein_placed'}

>  <ref_pdb>  (1902) 
175

>  <scratch_subdir>  (1902) 
/opt/xchem-fragalysis-2/maxwin/BulkDock/SCRATCH/511028/C27287-P221

>  <alias>  (1902) 
O=C1Cc2c(cc(F)cc2C(=O)N[C@@H]2CC3=C(CNC3)C3(CCS(=O)(=O)CC3)C2)N1

>  <HIPPO Compound ID>  (1902) 
27287

>  <fragmenstein_runtime>  (1902) 
4.665634

$$$$
O=C1C[C@@H]2[C@@H]3[C@H]1[C@H](O)N[C@H]3CC[C@H]2C(=O)Nc1cnc2c(c1)CNC2
     RDKit          3D

 25 29  0  0  0  0  0  0  0  0999 V2000
   -7.1662    6.8316  -13.1280 O   0  0  0  0  0  0  0  0  0  0  0  0
   -7.4359    5.7462  -13.4757 C   0  0  0  0  0  0  0  0  0  0  0  0
   -7.9148    4.5140  -12.6540 N   0  0  0  0  0  0  0  0  0  0  0  0
   -8.0626    4.3453  -11.2760 C   0  0  0  0  0  0  0  0  0  0  0  0
   -7.9275    5.4102  -10.3754 C   0  0  0  0  0  0  0  0  0  0  0  0
   -8.1229    5.3208   -9.0317 N   0  0  0  0  0  0  0  0  0  0  0  0
   -8.4720    4.0964   -8.5999 C   0  0  0  0  0  0  0  0  0  0  0  0
   -8.6339    2.9856   -9.4084 C   0  0  0  0  0  0  0  0  0  0  0  0
   -8.4198    3.0935  -10.7712 C   0  0  0  0  0  0  0  0  0  0  0  0
   -9.0307    1.8205   -8.5684 C   0  0  0  0  0  0  0  0  0  0  0  0
   -9.4652    2.3909   -7.2650 N   0  0  0  0  0  0  0  0  0  0  0  0
   -8.7888    3.7108   -7.1801 C   0  0  0  0  0  0  0  0  0  0  0  0
   -7.4405    5.4214  -14.9906 C   0  0  2  0  0  0  0  0  0  0  0  0
   -8.4148    4.3236  -15.4932 C   0  0  0  0  0  0  0  0  0  0  0  0
   -8.5311    4.2345  -17.0336 C   0  0  0  0  0  0  0  0  0  0  0  0
   -7.3654    4.9479  -17.7001 C   0  0  2  0  0  0  0  0  0  0  0  0
   -6.9387    4.5364  -19.0241 N   0  0  0  0  0  0  0  0  0  0  0  0
   -5.6796    5.2636  -19.2076 C   0  0  1  0  0  0  0  0  0  0  0  0
   -5.9923    6.5897  -19.5713 O   0  0  0  0  0  0  0  0  0  0  0  0
   -4.9782    5.1337  -17.8589 C   0  0  1  0  0  0  0  0  0  0  0  0
   -4.5081    6.3563  -17.1361 C   0  0  0  0  0  0  0  0  0  0  0  0
   -3.6055    7.0879  -17.5275 O   0  0  0  0  0  0  0  0  0  0  0  0
   -5.2281    6.5687  -15.8179 C   0  0  0  0  0  0  0  0  0  0  0  0
   -6.0118    5.2727  -15.5750 C   0  0  2  0  0  0  0  0  0  0  0  0
   -6.0922    4.6520  -16.9493 C   0  0  1  0  0  0  0  0  0  0  0  0
  1  2  2  0
  2  3  1  0
  3  4  1  0
  4  5  2  0
  5  6  1  0
  6  7  2  0
  7  8  1  0
  8  9  2  0
  8 10  1  0
 10 11  1  0
 11 12  1  0
 13  2  1  1
 13 14  1  0
 14 15  1  0
 16 15  1  1
 16 17  1  0
 17 18  1  0
 18 19  1  1
 18 20  1  0
 20 21  1  1
 21 22  2  0
 21 23  1  0
 24 23  1  6
 24 25  1  0
  9  4  1  0
 24 13  1  0
 12  7  1  0
 25 16  1  6
 25 20  1  0
M  END
>  <smiles>  (1903) 
C27291-P221

>  <fragmenstein_outcome>  (1903) 
acceptable

>  <inchikey>  (1903) 
GRGZLECXJCWSPQ-UHFFFAOYSA-N

>  <fragmenstein_mode>  (1903) 
expansion

>  <HIPPO Pose ID>  (1903) 
23876

>  <Energy>  (1903) 
49.005668

>  <fragmenstein_error>  (1903) 


>  <tags>  (1903) 
{'openbind_xx01zvns2b_c1_fragmenstein', 'fragmenstein_placed'}

>  <ref_pdb>  (1903) 
175

>  <scratch_subdir>  (1903) 
/opt/xchem-fragalysis-2/maxwin/BulkDock/SCRATCH/511028/C27291-P221

>  <alias>  (1903) 
O=C1C[C@@H]2[C@@H]3[C@H]1[C@H](O)N[C@H]3CC[C@H]2C(=O)Nc1cnc2c(c1)CNC2

>  <HIPPO Compound ID>  (1903) 
40618

>  <fragmenstein_runtime>  (1903) 
8.051574

$$$$
CO[C@H]1C[C@@]2(CCN1)C[C@H](NC(=O)c1cc(F)cc3c1CC(=O)N3)CC1=C2CNC1
     RDKit          3D

 30 34  0  0  0  0  0  0  0  0999 V2000
   -3.1587    7.8080   -9.7506 C   0  0  0  0  0  0  0  0  0  0  0  0
   -3.9568    6.8174   -9.1148 O   0  0  0  0  0  0  0  0  0  0  0  0
   -5.3420    6.9608   -9.4195 C   0  0  1  0  0  0  0  0  0  0  0  0
   -5.9759    5.5667   -9.3501 C   0  0  0  0  0  0  0  0  0  0  0  0
   -7.4950    5.5985   -9.6749 C   0  0  1  0  0  0  0  0  0  0  0  0
   -8.0995    6.9299   -9.1540 C   0  0  0  0  0  0  0  0  0  0  0  0
   -7.2712    7.5385   -8.0260 C   0  0  0  0  0  0  0  0  0  0  0  0
   -5.9241    7.8949   -8.4640 N   0  0  0  0  0  0  0  0  0  0  0  0
   -7.7379    5.5470  -11.2162 C   0  0  0  0  0  0  0  0  0  0  0  0
   -7.4521    4.1755  -11.8567 C   0  0  2  0  0  0  0  0  0  0  0  0
   -7.6668    4.2250  -13.2980 N   0  0  0  0  0  0  0  0  0  0  0  0
   -7.0978    5.1821  -14.3619 C   0  0  0  0  0  0  0  0  0  0  0  0
   -6.4286    6.1293  -14.2454 O   0  0  0  0  0  0  0  0  0  0  0  0
   -7.4835    4.7841  -15.7463 C   0  0  0  0  0  0  0  0  0  0  0  0
   -8.7714    4.3407  -16.0674 C   0  0  0  0  0  0  0  0  0  0  0  0
   -9.1089    4.0637  -17.4022 C   0  0  0  0  0  0  0  0  0  0  0  0
  -10.3571    3.6832  -17.6944 F   0  0  0  0  0  0  0  0  0  0  0  0
   -8.1966    4.2025  -18.4382 C   0  0  0  0  0  0  0  0  0  0  0  0
   -6.9394    4.6399  -18.0983 C   0  0  0  0  0  0  0  0  0  0  0  0
   -6.5734    4.9311  -16.7850 C   0  0  0  0  0  0  0  0  0  0  0  0
   -5.1388    5.3704  -16.7664 C   0  0  0  0  0  0  0  0  0  0  0  0
   -4.7314    5.2225  -18.2378 C   0  0  0  0  0  0  0  0  0  0  0  0
   -3.6138    5.4038  -18.6964 O   0  0  0  0  0  0  0  0  0  0  0  0
   -5.8628    4.8419  -18.9484 N   0  0  0  0  0  0  0  0  0  0  0  0
   -8.2581    3.0453  -11.1905 C   0  0  0  0  0  0  0  0  0  0  0  0
   -8.4473    3.2628   -9.7305 C   0  0  0  0  0  0  0  0  0  0  0  0
   -8.1374    4.3763   -9.0591 C   0  0  0  0  0  0  0  0  0  0  0  0
   -8.4375    4.1831   -7.6113 C   0  0  0  0  0  0  0  0  0  0  0  0
   -9.1570    2.9041   -7.5201 N   0  0  0  0  0  0  0  0  0  0  0  0
   -8.9554    2.2121   -8.8084 C   0  0  0  0  0  0  0  0  0  0  0  0
  1  2  1  0
  3  2  1  1
  3  4  1  0
  5  4  1  6
  5  6  1  0
  6  7  1  0
  7  8  1  0
  5  9  1  0
  9 10  1  0
 10 11  1  6
 11 12  1  0
 12 13  2  0
 12 14  1  0
 14 15  2  0
 15 16  1  0
 16 17  1  0
 16 18  2  0
 18 19  1  0
 19 20  2  0
 20 21  1  0
 21 22  1  0
 22 23  2  0
 22 24  1  0
 10 25  1  0
 25 26  1  0
 26 27  2  0
 27 28  1  0
 28 29  1  0
 29 30  1  0
  8  3  1  0
 20 14  1  0
 30 26  1  0
 27  5  1  0
 24 19  1  0
M  END
>  <smiles>  (1904) 
C27294-P221

>  <fragmenstein_outcome>  (1904) 
acceptable

>  <inchikey>  (1904) 
LRIHUJUCEWYXNP-UHFFFAOYSA-N

>  <fragmenstein_mode>  (1904) 
expansion

>  <HIPPO Pose ID>  (1904) 
23877

>  <Energy>  (1904) 
-12.386387

>  <fragmenstein_error>  (1904) 


>  <tags>  (1904) 
{'openbind_xx01zvns2b_c1_fragmenstein', 'fragmenstein_placed'}

>  <ref_pdb>  (1904) 
175

>  <scratch_subdir>  (1904) 
/opt/xchem-fragalysis-2/maxwin/BulkDock/SCRATCH/511028/C27294-P221

>  <alias>  (1904) 
CO[C@H]1C[C@@]2(CCN1)C[C@H](NC(=O)c1cc(F)cc3c1CC(=O)N3)CC1=C2CNC1

>  <HIPPO Compound ID>  (1904) 
21049

>  <fragmenstein_runtime>  (1904) 
5.900453

$$$$
N#Cc1nc2c(cc1NC(=O)c1cc(F)cc3c1CC(=O)N3)CNC2
     RDKit          3D

 25 28  0  0  0  0  0  0  0  0999 V2000
   -7.9717    7.8825  -12.1061 N   0  0  0  0  0  0  0  0  0  0  0  0
   -7.9278    6.7937  -11.6960 C   0  0  0  0  0  0  0  0  0  0  0  0
   -7.9834    5.4712  -11.1280 C   0  0  0  0  0  0  0  0  0  0  0  0
   -8.0638    5.5066   -9.7598 N   0  0  0  0  0  0  0  0  0  0  0  0
   -8.3474    4.3365   -9.1660 C   0  0  0  0  0  0  0  0  0  0  0  0
   -8.5718    3.1508   -9.8317 C   0  0  0  0  0  0  0  0  0  0  0  0
   -8.4714    3.1169  -11.2102 C   0  0  0  0  0  0  0  0  0  0  0  0
   -8.1548    4.2986  -11.8974 C   0  0  0  0  0  0  0  0  0  0  0  0
   -8.0612    4.1955  -13.2973 N   0  0  0  0  0  0  0  0  0  0  0  0
   -7.3748    5.1233  -14.3308 C   0  0  0  0  0  0  0  0  0  0  0  0
   -6.7162    6.0741  -14.1734 O   0  0  0  0  0  0  0  0  0  0  0  0
   -7.6437    4.7135  -15.7423 C   0  0  0  0  0  0  0  0  0  0  0  0
   -8.9078    4.2721  -16.1513 C   0  0  0  0  0  0  0  0  0  0  0  0
   -9.1715    4.0202  -17.5072 C   0  0  0  0  0  0  0  0  0  0  0  0
  -10.4026    3.6493  -17.8768 F   0  0  0  0  0  0  0  0  0  0  0  0
   -8.2021    4.1759  -18.4837 C   0  0  0  0  0  0  0  0  0  0  0  0
   -6.9702    4.6156  -18.0641 C   0  0  0  0  0  0  0  0  0  0  0  0
   -6.6772    4.8871  -16.7264 C   0  0  0  0  0  0  0  0  0  0  0  0
   -5.2522    5.3527  -16.6315 C   0  0  0  0  0  0  0  0  0  0  0  0
   -4.7688    5.2348  -18.0853 C   0  0  0  0  0  0  0  0  0  0  0  0
   -3.6352    5.4405  -18.4915 O   0  0  0  0  0  0  0  0  0  0  0  0
   -5.8564    4.8459  -18.8558 N   0  0  0  0  0  0  0  0  0  0  0  0
   -8.8879    2.0774   -8.8441 C   0  0  0  0  0  0  0  0  0  0  0  0
   -9.1935    2.7859   -7.5716 N   0  0  0  0  0  0  0  0  0  0  0  0
   -8.5258    4.1049   -7.6902 C   0  0  0  0  0  0  0  0  0  0  0  0
  1  2  3  0
  2  3  1  0
  3  4  2  0
  4  5  1  0
  5  6  2  0
  6  7  1  0
  7  8  2  0
  8  9  1  0
  9 10  1  0
 10 11  2  0
 10 12  1  0
 12 13  2  0
 13 14  1  0
 14 15  1  0
 14 16  2  0
 16 17  1  0
 17 18  2  0
 18 19  1  0
 19 20  1  0
 20 21  2  0
 20 22  1  0
  6 23  1  0
 23 24  1  0
 24 25  1  0
  8  3  1  0
 18 12  1  0
 25  5  1  0
 22 17  1  0
M  END
>  <smiles>  (1905) 
C27286-P221

>  <fragmenstein_outcome>  (1905) 
acceptable

>  <inchikey>  (1905) 
IZOAMVDXRRGPSA-UHFFFAOYSA-N

>  <fragmenstein_mode>  (1905) 
expansion

>  <HIPPO Pose ID>  (1905) 
23878

>  <Energy>  (1905) 
96.249704

>  <fragmenstein_error>  (1905) 


>  <tags>  (1905) 
{'openbind_xx01zvns2b_c1_fragmenstein', 'fragmenstein_placed'}

>  <ref_pdb>  (1905) 
175

>  <scratch_subdir>  (1905) 
/opt/xchem-fragalysis-2/maxwin/BulkDock/SCRATCH/511028/C27286-P221

>  <alias>  (1905) 
N#Cc1nc2c(cc1NC(=O)c1cc(F)cc3c1CC(=O)N3)CNC2

>  <HIPPO Compound ID>  (1905) 
36802

>  <fragmenstein_runtime>  (1905) 
3.820009

$$$$
O=C1Cc2c(cc(Br)cc2[C@@](O)(Nc2cnc3c(c2)CNC3)C(=O)NCC(F)F)N1
     RDKit          3D

 30 33  0  0  0  0  0  0  0  0999 V2000
   -3.1924    5.4693  -18.2986 O   0  0  0  0  0  0  0  0  0  0  0  0
   -4.3206    5.2787  -17.8737 C   0  0  0  0  0  0  0  0  0  0  0  0
   -4.7736    5.3445  -16.4082 C   0  0  0  0  0  0  0  0  0  0  0  0
   -6.2253    4.9482  -16.4790 C   0  0  0  0  0  0  0  0  0  0  0  0
   -6.5328    4.7439  -17.8344 C   0  0  0  0  0  0  0  0  0  0  0  0
   -7.7753    4.4037  -18.2935 C   0  0  0  0  0  0  0  0  0  0  0  0
   -8.7704    4.3071  -17.3435 C   0  0  0  0  0  0  0  0  0  0  0  0
  -10.5315    4.1398  -17.9591 Br  0  0  0  0  0  0  0  0  0  0  0  0
   -8.5007    4.4768  -15.9730 C   0  0  0  0  0  0  0  0  0  0  0  0
   -7.2018    4.7946  -15.4908 C   0  0  0  0  0  0  0  0  0  0  0  0
   -7.0081    5.0869  -13.9964 C   0  0  1  0  0  0  0  0  0  0  0  0
   -7.4809    6.4150  -13.8546 O   0  0  0  0  0  0  0  0  0  0  0  0
   -7.9035    4.2364  -13.1987 N   0  0  0  0  0  0  0  0  0  0  0  0
   -7.9555    4.2677  -11.7943 C   0  0  0  0  0  0  0  0  0  0  0  0
   -7.7518    5.4057  -10.9909 C   0  0  0  0  0  0  0  0  0  0  0  0
   -7.8978    5.4715   -9.6391 N   0  0  0  0  0  0  0  0  0  0  0  0
   -8.2848    4.3202   -9.0659 C   0  0  0  0  0  0  0  0  0  0  0  0
   -8.5391    3.1487   -9.7464 C   0  0  0  0  0  0  0  0  0  0  0  0
   -8.3928    3.1168  -11.1213 C   0  0  0  0  0  0  0  0  0  0  0  0
   -8.9335    2.0829   -8.7820 C   0  0  0  0  0  0  0  0  0  0  0  0
   -9.2423    2.7887   -7.5074 N   0  0  0  0  0  0  0  0  0  0  0  0
   -8.5312    4.0885   -7.6005 C   0  0  0  0  0  0  0  0  0  0  0  0
   -5.4991    4.9295  -13.4699 C   0  0  0  0  0  0  0  0  0  0  0  0
   -4.9181    3.9160  -13.4391 O   0  0  0  0  0  0  0  0  0  0  0  0
   -5.0452    6.3645  -13.0699 N   0  0  0  0  0  0  0  0  0  0  0  0
   -3.8171    6.8247  -12.4623 C   0  0  0  0  0  0  0  0  0  0  0  0
   -2.5554    6.2776  -13.1231 C   0  0  0  0  0  0  0  0  0  0  0  0
   -1.4626    6.7526  -12.4700 F   0  0  0  0  0  0  0  0  0  0  0  0
   -2.4701    6.7448  -14.3978 F   0  0  0  0  0  0  0  0  0  0  0  0
   -5.4258    4.9566  -18.6349 N   0  0  0  0  0  0  0  0  0  0  0  0
  1  2  2  0
  2  3  1  0
  3  4  1  0
  4  5  2  0
  5  6  1  0
  6  7  2  0
  7  8  1  0
  7  9  1  0
  9 10  2  0
 10 11  1  0
 11 12  1  6
 11 13  1  0
 13 14  1  0
 14 15  2  0
 15 16  1  0
 16 17  2  0
 17 18  1  0
 18 19  2  0
 18 20  1  0
 20 21  1  0
 21 22  1  0
 11 23  1  0
 23 24  2  0
 23 25  1  0
 25 26  1  0
 26 27  1  0
 27 28  1  0
 27 29  1  0
  5 30  1  0
 30  2  1  0
 10  4  1  0
 19 14  1  0
 22 17  1  0
M  END
>  <smiles>  (1906) 
C27298-P221

>  <fragmenstein_outcome>  (1906) 
acceptable

>  <inchikey>  (1906) 
IWFVRDJKOVOZHU-UHFFFAOYSA-N

>  <fragmenstein_mode>  (1906) 
expansion

>  <HIPPO Pose ID>  (1906) 
23880

>  <Energy>  (1906) 
141.782172

>  <fragmenstein_error>  (1906) 


>  <tags>  (1906) 
{'openbind_xx01zvns2b_c1_fragmenstein', 'fragmenstein_placed'}

>  <ref_pdb>  (1906) 
175

>  <scratch_subdir>  (1906) 
/opt/xchem-fragalysis-2/maxwin/BulkDock/SCRATCH/511028/C27298-P221

>  <alias>  (1906) 
O=C1Cc2c(cc(Br)cc2[C@@](O)(Nc2cnc3c(c2)CNC3)C(=O)NCC(F)F)N1

>  <HIPPO Compound ID>  (1906) 
41168

>  <fragmenstein_runtime>  (1906) 
7.26461

$$$$
CC[C@@H]1C(=O)Nc2cc(Br)cc([C@@](O)(Nc3cnc4c(c3)CNC4)C(=O)NCC(F)F)c21
     RDKit          3D

 32 35  0  0  0  0  0  0  0  0999 V2000
   -3.1446    7.2283  -15.6926 C   0  0  0  0  0  0  0  0  0  0  0  0
   -4.5915    6.9060  -16.0430 C   0  0  0  0  0  0  0  0  0  0  0  0
   -4.7794    5.4361  -16.4356 C   0  0  2  0  0  0  0  0  0  0  0  0
   -4.3339    5.2466  -17.9074 C   0  0  0  0  0  0  0  0  0  0  0  0
   -3.2067    5.3749  -18.3590 O   0  0  0  0  0  0  0  0  0  0  0  0
   -5.4533    4.9286  -18.6430 N   0  0  0  0  0  0  0  0  0  0  0  0
   -6.5535    4.7615  -17.8256 C   0  0  0  0  0  0  0  0  0  0  0  0
   -7.7938    4.4026  -18.2771 C   0  0  0  0  0  0  0  0  0  0  0  0
   -8.7887    4.3250  -17.3280 C   0  0  0  0  0  0  0  0  0  0  0  0
  -10.5451    4.1376  -17.9500 Br  0  0  0  0  0  0  0  0  0  0  0  0
   -8.5183    4.5253  -15.9624 C   0  0  0  0  0  0  0  0  0  0  0  0
   -7.2196    4.8583  -15.4821 C   0  0  0  0  0  0  0  0  0  0  0  0
   -7.0562    5.1484  -13.9675 C   0  0  1  0  0  0  0  0  0  0  0  0
   -7.5078    6.4912  -13.7839 O   0  0  0  0  0  0  0  0  0  0  0  0
   -7.9466    4.2485  -13.2101 N   0  0  0  0  0  0  0  0  0  0  0  0
   -8.0628    4.2924  -11.8119 C   0  0  0  0  0  0  0  0  0  0  0  0
   -8.0363    5.4581  -11.0250 C   0  0  0  0  0  0  0  0  0  0  0  0
   -8.1625    5.5192   -9.6689 N   0  0  0  0  0  0  0  0  0  0  0  0
   -8.4079    4.3358   -9.0853 C   0  0  0  0  0  0  0  0  0  0  0  0
   -8.5478    3.1397   -9.7569 C   0  0  0  0  0  0  0  0  0  0  0  0
   -8.3739    3.1071  -11.1288 C   0  0  0  0  0  0  0  0  0  0  0  0
   -8.8808    2.0560   -8.7891 C   0  0  0  0  0  0  0  0  0  0  0  0
   -9.2514    2.7489   -7.5214 N   0  0  0  0  0  0  0  0  0  0  0  0
   -8.6195    4.0886   -7.6177 C   0  0  0  0  0  0  0  0  0  0  0  0
   -5.5497    4.9596  -13.4115 C   0  0  0  0  0  0  0  0  0  0  0  0
   -4.8757    4.0355  -13.6510 O   0  0  0  0  0  0  0  0  0  0  0  0
   -5.2661    6.2139  -12.5333 N   0  0  0  0  0  0  0  0  0  0  0  0
   -4.1318    6.5369  -11.6969 C   0  0  0  0  0  0  0  0  0  0  0  0
   -3.8315    8.0281  -11.6243 C   0  0  0  0  0  0  0  0  0  0  0  0
   -4.9431    8.7108  -11.2476 F   0  0  0  0  0  0  0  0  0  0  0  0
   -3.4918    8.4989  -12.8517 F   0  0  0  0  0  0  0  0  0  0  0  0
   -6.2415    5.0179  -16.4762 C   0  0  0  0  0  0  0  0  0  0  0  0
  1  2  1  0
  3  2  1  6
  3  4  1  0
  4  5  2  0
  4  6  1  0
  6  7  1  0
  7  8  2  0
  8  9  1  0
  9 10  1  0
  9 11  2  0
 11 12  1  0
 12 13  1  0
 13 14  1  6
 13 15  1  0
 15 16  1  0
 16 17  2  0
 17 18  1  0
 18 19  2  0
 19 20  1  0
 20 21  2  0
 20 22  1  0
 22 23  1  0
 23 24  1  0
 13 25  1  0
 25 26  2  0
 25 27  1  0
 27 28  1  0
 28 29  1  0
 29 30  1  0
 29 31  1  0
 12 32  2  0
 32  3  1  0
 32  7  1  0
 21 16  1  0
 24 19  1  0
M  END
>  <smiles>  (1907) 
C27301-P221

>  <fragmenstein_outcome>  (1907) 
acceptable

>  <inchikey>  (1907) 
TUQGHRYMIHWJAZ-UHFFFAOYSA-N

>  <fragmenstein_mode>  (1907) 
expansion

>  <HIPPO Pose ID>  (1907) 
23883

>  <Energy>  (1907) 
151.023835

>  <fragmenstein_error>  (1907) 


>  <tags>  (1907) 
{'openbind_xx01zvns2b_c1_fragmenstein', 'fragmenstein_placed'}

>  <ref_pdb>  (1907) 
175

>  <scratch_subdir>  (1907) 
/opt/xchem-fragalysis-2/maxwin/BulkDock/SCRATCH/511028/C27301-P221

>  <alias>  (1907) 
CC[C@@H]1C(=O)Nc2cc(Br)cc([C@@](O)(Nc3cnc4c(c3)CNC4)C(=O)NCC(F)F)c21

>  <HIPPO Compound ID>  (1907) 
27301

>  <fragmenstein_runtime>  (1907) 
6.940876

$$$$
O=C1Cc2c(cc(F)cc2C(=O)Nc2cnc3c(c2)CNC3)N1
     RDKit          3D

 23 26  0  0  0  0  0  0  0  0999 V2000
   -3.4856    5.5888  -18.0295 O   0  0  0  0  0  0  0  0  0  0  0  0
   -4.6253    5.3661  -17.6522 C   0  0  0  0  0  0  0  0  0  0  0  0
   -5.1561    5.4574  -16.2088 C   0  0  0  0  0  0  0  0  0  0  0  0
   -6.5742    4.9893  -16.3585 C   0  0  0  0  0  0  0  0  0  0  0  0
   -6.8154    4.7265  -17.7095 C   0  0  0  0  0  0  0  0  0  0  0  0
   -8.0216    4.2749  -18.1855 C   0  0  0  0  0  0  0  0  0  0  0  0
   -9.0195    4.0772  -17.2465 C   0  0  0  0  0  0  0  0  0  0  0  0
  -10.2218    3.6676  -17.6631 F   0  0  0  0  0  0  0  0  0  0  0  0
   -8.8156    4.3268  -15.8815 C   0  0  0  0  0  0  0  0  0  0  0  0
   -7.5798    4.7962  -15.4215 C   0  0  0  0  0  0  0  0  0  0  0  0
   -7.4163    5.2064  -13.9978 C   0  0  0  0  0  0  0  0  0  0  0  0
   -6.9901    6.2734  -13.7864 O   0  0  0  0  0  0  0  0  0  0  0  0
   -7.9133    4.1119  -13.0203 N   0  0  0  0  0  0  0  0  0  0  0  0
   -8.0723    4.1391  -11.6303 C   0  0  0  0  0  0  0  0  0  0  0  0
   -7.8254    5.2773  -10.8519 C   0  0  0  0  0  0  0  0  0  0  0  0
   -7.9837    5.3445   -9.4988 N   0  0  0  0  0  0  0  0  0  0  0  0
   -8.3797    4.1938   -8.9231 C   0  0  0  0  0  0  0  0  0  0  0  0
   -8.6372    3.0179   -9.6013 C   0  0  0  0  0  0  0  0  0  0  0  0
   -8.4950    2.9803  -10.9769 C   0  0  0  0  0  0  0  0  0  0  0  0
   -9.0049    1.9508   -8.6272 C   0  0  0  0  0  0  0  0  0  0  0  0
   -9.3219    2.6579   -7.3561 N   0  0  0  0  0  0  0  0  0  0  0  0
   -8.6140    3.9611   -7.4542 C   0  0  0  0  0  0  0  0  0  0  0  0
   -5.6816    4.9774  -18.4616 N   0  0  0  0  0  0  0  0  0  0  0  0
  1  2  2  0
  2  3  1  0
  3  4  1  0
  4  5  2  0
  5  6  1  0
  6  7  2  0
  7  8  1  0
  7  9  1  0
  9 10  2  0
 10 11  1  0
 11 12  2  0
 11 13  1  0
 13 14  1  0
 14 15  2  0
 15 16  1  0
 16 17  2  0
 17 18  1  0
 18 19  2  0
 18 20  1  0
 20 21  1  0
 21 22  1  0
  5 23  1  0
 23  2  1  0
 10  4  1  0
 19 14  1  0
 22 17  1  0
M  END
>  <smiles>  (1908) 
C27262-P221

>  <fragmenstein_outcome>  (1908) 
acceptable

>  <inchikey>  (1908) 
WIWSPYXZSJIOMS-UHFFFAOYSA-N

>  <fragmenstein_mode>  (1908) 
expansion

>  <HIPPO Pose ID>  (1908) 
23884

>  <Energy>  (1908) 
53.52385

>  <fragmenstein_error>  (1908) 


>  <tags>  (1908) 
{'openbind_xx01zvns2b_c1_fragmenstein', 'fragmenstein_placed'}

>  <ref_pdb>  (1908) 
175

>  <scratch_subdir>  (1908) 
/opt/xchem-fragalysis-2/maxwin/BulkDock/SCRATCH/511028/C27262-P221

>  <alias>  (1908) 
O=C1Cc2c(cc(F)cc2C(=O)Nc2cnc3c(c2)CNC3)N1

>  <HIPPO Compound ID>  (1908) 
38878

>  <fragmenstein_runtime>  (1908) 
2.061901

$$$$
O=C(O)C[C@@H]1NCc2cc(NC(=O)c3cc(Cl)cc4c3CC(=O)N4)cnc21
     RDKit          3D

 27 30  0  0  0  0  0  0  0  0999 V2000
   -6.3215    6.9098   -6.6605 O   0  0  0  0  0  0  0  0  0  0  0  0
   -7.3489    6.2487   -6.6991 C   0  0  0  0  0  0  0  0  0  0  0  0
   -8.5471    6.8584   -6.6457 O   0  0  0  0  0  0  0  0  0  0  0  0
   -7.4135    4.7481   -6.6982 C   0  0  0  0  0  0  0  0  0  0  0  0
   -8.5297    4.2030   -7.5805 C   0  0  2  0  0  0  0  0  0  0  0  0
   -8.7166    2.7301   -7.3944 N   0  0  0  0  0  0  0  0  0  0  0  0
   -8.9758    2.1715   -8.7480 C   0  0  0  0  0  0  0  0  0  0  0  0
   -8.5490    3.2120   -9.7223 C   0  0  0  0  0  0  0  0  0  0  0  0
   -8.4423    3.1626  -11.1012 C   0  0  0  0  0  0  0  0  0  0  0  0
   -8.0332    4.3186  -11.7651 C   0  0  0  0  0  0  0  0  0  0  0  0
   -7.9382    4.3175  -13.1562 N   0  0  0  0  0  0  0  0  0  0  0  0
   -7.2981    5.3441  -14.1203 C   0  0  0  0  0  0  0  0  0  0  0  0
   -6.8190    6.3869  -13.9059 O   0  0  0  0  0  0  0  0  0  0  0  0
   -7.4318    4.9178  -15.5374 C   0  0  0  0  0  0  0  0  0  0  0  0
   -8.6790    4.5045  -16.0201 C   0  0  0  0  0  0  0  0  0  0  0  0
   -8.8679    4.2812  -17.3926 C   0  0  0  0  0  0  0  0  0  0  0  0
  -10.4477    4.0125  -17.9814 Cl  0  0  0  0  0  0  0  0  0  0  0  0
   -7.8294    4.4065  -18.3029 C   0  0  0  0  0  0  0  0  0  0  0  0
   -6.6209    4.8201  -17.8021 C   0  0  0  0  0  0  0  0  0  0  0  0
   -6.4035    5.0851  -16.4504 C   0  0  0  0  0  0  0  0  0  0  0  0
   -4.9853    5.5392  -16.2689 C   0  0  0  0  0  0  0  0  0  0  0  0
   -4.4274    5.4385  -17.6994 C   0  0  0  0  0  0  0  0  0  0  0  0
   -3.2790    5.6459  -18.0563 O   0  0  0  0  0  0  0  0  0  0  0  0
   -5.4688    5.0535  -18.5291 N   0  0  0  0  0  0  0  0  0  0  0  0
   -7.7683    5.4627  -11.0034 C   0  0  0  0  0  0  0  0  0  0  0  0
   -7.8932    5.5366   -9.6518 N   0  0  0  0  0  0  0  0  0  0  0  0
   -8.2730    4.3920   -9.0577 C   0  0  0  0  0  0  0  0  0  0  0  0
  1  2  2  0
  2  3  1  0
  2  4  1  0
  5  4  1  1
  5  6  1  0
  6  7  1  0
  7  8  1  0
  8  9  2  0
  9 10  1  0
 10 11  1  0
 11 12  1  0
 12 13  2  0
 12 14  1  0
 14 15  2  0
 15 16  1  0
 16 17  1  0
 16 18  2  0
 18 19  1  0
 19 20  2  0
 20 21  1  0
 21 22  1  0
 22 23  2  0
 22 24  1  0
 10 25  2  0
 25 26  1  0
 26 27  2  0
 27  5  1  0
 27  8  1  0
 20 14  1  0
 24 19  1  0
M  END
>  <smiles>  (1909) 
C27311-P221

>  <fragmenstein_outcome>  (1909) 
acceptable

>  <inchikey>  (1909) 
BSZUDAPISCFBRA-UHFFFAOYSA-N

>  <fragmenstein_mode>  (1909) 
expansion

>  <HIPPO Pose ID>  (1909) 
23885

>  <Energy>  (1909) 
22.141021

>  <fragmenstein_error>  (1909) 


>  <tags>  (1909) 
{'openbind_xx01zvns2b_c1_fragmenstein', 'fragmenstein_placed'}

>  <ref_pdb>  (1909) 
175

>  <scratch_subdir>  (1909) 
/opt/xchem-fragalysis-2/maxwin/BulkDock/SCRATCH/511028/C27311-P221

>  <alias>  (1909) 
O=C(O)C[C@@H]1NCc2cc(NC(=O)c3cc(Cl)cc4c3CC(=O)N4)cnc21

>  <HIPPO Compound ID>  (1909) 
27311

>  <fragmenstein_runtime>  (1909) 
5.249668

$$$$
CC[C@@H]1NCc2cc(NC(=O)c3cc(F)cc4c3CC(=O)N4)cnc21
     RDKit          3D

 25 28  0  0  0  0  0  0  0  0999 V2000
   -7.8345    4.7343   -5.2637 C   0  0  0  0  0  0  0  0  0  0  0  0
   -7.5108    4.8856   -6.7444 C   0  0  0  0  0  0  0  0  0  0  0  0
   -8.5664    4.2647   -7.6573 C   0  0  2  0  0  0  0  0  0  0  0  0
   -8.7568    2.8060   -7.4239 N   0  0  0  0  0  0  0  0  0  0  0  0
   -9.0115    2.2084   -8.7606 C   0  0  0  0  0  0  0  0  0  0  0  0
   -8.5624    3.2132   -9.7631 C   0  0  0  0  0  0  0  0  0  0  0  0
   -8.4535    3.1176  -11.1400 C   0  0  0  0  0  0  0  0  0  0  0  0
   -8.0148    4.2384  -11.8452 C   0  0  0  0  0  0  0  0  0  0  0  0
   -7.8996    4.1663  -13.2367 N   0  0  0  0  0  0  0  0  0  0  0  0
   -7.4278    5.2258  -14.2631 C   0  0  0  0  0  0  0  0  0  0  0  0
   -6.9898    6.2961  -14.0990 O   0  0  0  0  0  0  0  0  0  0  0  0
   -7.6361    4.7747  -15.6673 C   0  0  0  0  0  0  0  0  0  0  0  0
   -8.8830    4.2942  -16.0804 C   0  0  0  0  0  0  0  0  0  0  0  0
   -9.1246    4.0183  -17.4341 C   0  0  0  0  0  0  0  0  0  0  0  0
  -10.3410    3.6081  -17.8056 F   0  0  0  0  0  0  0  0  0  0  0  0
   -8.1509    4.1897  -18.4043 C   0  0  0  0  0  0  0  0  0  0  0  0
   -6.9317    4.6553  -17.9742 C   0  0  0  0  0  0  0  0  0  0  0  0
   -6.6584    4.9491  -16.6364 C   0  0  0  0  0  0  0  0  0  0  0  0
   -5.2404    5.4270  -16.5266 C   0  0  0  0  0  0  0  0  0  0  0  0
   -4.7396    5.3039  -17.9761 C   0  0  0  0  0  0  0  0  0  0  0  0
   -3.6055    5.5218  -18.3735 O   0  0  0  0  0  0  0  0  0  0  0  0
   -5.8129    4.8937  -18.7553 N   0  0  0  0  0  0  0  0  0  0  0  0
   -7.7183    5.3975  -11.1172 C   0  0  0  0  0  0  0  0  0  0  0  0
   -7.8512    5.5219   -9.7662 N   0  0  0  0  0  0  0  0  0  0  0  0
   -8.2634    4.4072   -9.1333 C   0  0  0  0  0  0  0  0  0  0  0  0
  1  2  1  0
  3  2  1  1
  3  4  1  0
  4  5  1  0
  5  6  1  0
  6  7  2  0
  7  8  1  0
  8  9  1  0
  9 10  1  0
 10 11  2  0
 10 12  1  0
 12 13  2  0
 13 14  1  0
 14 15  1  0
 14 16  2  0
 16 17  1  0
 17 18  2  0
 18 19  1  0
 19 20  1  0
 20 21  2  0
 20 22  1  0
  8 23  2  0
 23 24  1  0
 24 25  2  0
 25  3  1  0
 25  6  1  0
 18 12  1  0
 22 17  1  0
M  END
>  <smiles>  (1910) 
C27323-P221

>  <fragmenstein_outcome>  (1910) 
acceptable

>  <inchikey>  (1910) 
KYHPNYLXOLFKTH-UHFFFAOYSA-N

>  <fragmenstein_mode>  (1910) 
expansion

>  <HIPPO Pose ID>  (1910) 
23887

>  <Energy>  (1910) 
51.794225

>  <fragmenstein_error>  (1910) 


>  <tags>  (1910) 
{'openbind_xx01zvns2b_c1_fragmenstein', 'fragmenstein_placed'}

>  <ref_pdb>  (1910) 
175

>  <scratch_subdir>  (1910) 
/opt/xchem-fragalysis-2/maxwin/BulkDock/SCRATCH/511028/C27323-P221

>  <alias>  (1910) 
CC[C@@H]1NCc2cc(NC(=O)c3cc(F)cc4c3CC(=O)N4)cnc21

>  <HIPPO Compound ID>  (1910) 
27323

>  <fragmenstein_runtime>  (1910) 
4.067698

$$$$
NCN1C(=O)Cc2c(C(=O)Nc3cnc4c(c3)CNC4)cc(Cl)cc21
     RDKit          3D

 25 28  0  0  0  0  0  0  0  0999 V2000
   -5.5565    6.4477  -20.1879 N   0  0  0  0  0  0  0  0  0  0  0  0
   -5.1755    5.1633  -19.6256 C   0  0  0  0  0  0  0  0  0  0  0  0
   -5.3893    5.1964  -18.2220 N   0  0  0  0  0  0  0  0  0  0  0  0
   -4.3790    5.4688  -17.3074 C   0  0  0  0  0  0  0  0  0  0  0  0
   -3.1943    5.6359  -17.5555 O   0  0  0  0  0  0  0  0  0  0  0  0
   -5.0237    5.4963  -15.9212 C   0  0  0  0  0  0  0  0  0  0  0  0
   -6.4371    5.0824  -16.2115 C   0  0  0  0  0  0  0  0  0  0  0  0
   -7.5057    4.8939  -15.3492 C   0  0  0  0  0  0  0  0  0  0  0  0
   -7.3865    5.3027  -13.9294 C   0  0  0  0  0  0  0  0  0  0  0  0
   -6.8810    6.3298  -13.7060 O   0  0  0  0  0  0  0  0  0  0  0  0
   -7.9514    4.2368  -12.9692 N   0  0  0  0  0  0  0  0  0  0  0  0
   -8.0941    4.2519  -11.5851 C   0  0  0  0  0  0  0  0  0  0  0  0
   -7.7686    5.3837  -10.8242 C   0  0  0  0  0  0  0  0  0  0  0  0
   -7.8689    5.4621   -9.4725 N   0  0  0  0  0  0  0  0  0  0  0  0
   -8.2985    4.3332   -8.8833 C   0  0  0  0  0  0  0  0  0  0  0  0
   -8.6453    3.1713   -9.5462 C   0  0  0  0  0  0  0  0  0  0  0  0
   -8.5551    3.1164  -10.9245 C   0  0  0  0  0  0  0  0  0  0  0  0
   -9.1032    2.1506   -8.5663 C   0  0  0  0  0  0  0  0  0  0  0  0
   -8.8119    2.6987   -7.2129 N   0  0  0  0  0  0  0  0  0  0  0  0
   -8.4960    4.1360   -7.4091 C   0  0  0  0  0  0  0  0  0  0  0  0
   -8.7299    4.4841  -15.8852 C   0  0  0  0  0  0  0  0  0  0  0  0
   -8.8630    4.3146  -17.2713 C   0  0  0  0  0  0  0  0  0  0  0  0
  -10.4022    4.0185  -17.9555 Cl  0  0  0  0  0  0  0  0  0  0  0  0
   -7.7927    4.5121  -18.1355 C   0  0  0  0  0  0  0  0  0  0  0  0
   -6.5933    4.9040  -17.5824 C   0  0  0  0  0  0  0  0  0  0  0  0
  1  2  1  0
  2  3  1  0
  3  4  1  0
  4  5  2  0
  4  6  1  0
  6  7  1  0
  7  8  2  0
  8  9  1  0
  9 10  2  0
  9 11  1  0
 11 12  1  0
 12 13  2  0
 13 14  1  0
 14 15  2  0
 15 16  1  0
 16 17  2  0
 16 18  1  0
 18 19  1  0
 19 20  1  0
  8 21  1  0
 21 22  2  0
 22 23  1  0
 22 24  1  0
 24 25  2  0
 25  3  1  0
 25  7  1  0
 17 12  1  0
 20 15  1  0
M  END
>  <smiles>  (1911) 
C27318-P221

>  <fragmenstein_outcome>  (1911) 
acceptable

>  <inchikey>  (1911) 
VJKNRTFYJGKDJO-UHFFFAOYSA-N

>  <fragmenstein_mode>  (1911) 
expansion

>  <HIPPO Pose ID>  (1911) 
23888

>  <Energy>  (1911) 
33.376337

>  <fragmenstein_error>  (1911) 


>  <tags>  (1911) 
{'openbind_xx01zvns2b_c1_fragmenstein', 'fragmenstein_placed'}

>  <ref_pdb>  (1911) 
175

>  <scratch_subdir>  (1911) 
/opt/xchem-fragalysis-2/maxwin/BulkDock/SCRATCH/511028/C27318-P221

>  <alias>  (1911) 
NCN1C(=O)Cc2c(C(=O)Nc3cnc4c(c3)CNC4)cc(Cl)cc21

>  <HIPPO Compound ID>  (1911) 
24772

>  <fragmenstein_runtime>  (1911) 
3.236289

$$$$
CNC[C@@H]1Cc2c(cc(F)cc2C(=O)Nc2cnc3c(c2)CNC3)N1
     RDKit          3D

 25 28  0  0  0  0  0  0  0  0999 V2000
   -2.0310    6.1775  -16.0306 C   0  0  0  0  0  0  0  0  0  0  0  0
   -2.2094    6.0497  -17.4686 N   0  0  0  0  0  0  0  0  0  0  0  0
   -3.4390    5.3350  -17.8511 C   0  0  0  0  0  0  0  0  0  0  0  0
   -4.7752    6.0498  -17.5506 C   0  0  2  0  0  0  0  0  0  0  0  0
   -5.2903    5.8767  -16.0904 C   0  0  0  0  0  0  0  0  0  0  0  0
   -6.6279    5.2332  -16.2778 C   0  0  0  0  0  0  0  0  0  0  0  0
   -6.8263    5.0075  -17.6410 C   0  0  0  0  0  0  0  0  0  0  0  0
   -7.9928    4.4424  -18.1107 C   0  0  0  0  0  0  0  0  0  0  0  0
   -8.9699    4.1112  -17.1872 C   0  0  0  0  0  0  0  0  0  0  0  0
  -10.1410    3.6375  -17.6258 F   0  0  0  0  0  0  0  0  0  0  0  0
   -8.7914    4.3306  -15.8181 C   0  0  0  0  0  0  0  0  0  0  0  0
   -7.6042    4.8963  -15.3412 C   0  0  0  0  0  0  0  0  0  0  0  0
   -7.4810    5.2921  -13.9012 C   0  0  0  0  0  0  0  0  0  0  0  0
   -7.0146    6.3368  -13.6642 O   0  0  0  0  0  0  0  0  0  0  0  0
   -8.1021    4.2316  -12.9561 N   0  0  0  0  0  0  0  0  0  0  0  0
   -8.1883    4.1981  -11.5609 C   0  0  0  0  0  0  0  0  0  0  0  0
   -7.9288    5.3228  -10.7651 C   0  0  0  0  0  0  0  0  0  0  0  0
   -8.0444    5.3597   -9.4077 N   0  0  0  0  0  0  0  0  0  0  0  0
   -8.4218    4.1960   -8.8481 C   0  0  0  0  0  0  0  0  0  0  0  0
   -8.6890    3.0316   -9.5444 C   0  0  0  0  0  0  0  0  0  0  0  0
   -8.5808    3.0203  -10.9241 C   0  0  0  0  0  0  0  0  0  0  0  0
   -9.0440    1.9495   -8.5826 C   0  0  0  0  0  0  0  0  0  0  0  0
   -9.3477    2.6361   -7.2976 N   0  0  0  0  0  0  0  0  0  0  0  0
   -8.6417    3.9410   -7.3811 C   0  0  0  0  0  0  0  0  0  0  0  0
   -5.8410    5.5812  -18.4466 N   0  0  0  0  0  0  0  0  0  0  0  0
  1  2  1  0
  2  3  1  0
  4  3  1  1
  4  5  1  0
  5  6  1  0
  6  7  2  0
  7  8  1  0
  8  9  2  0
  9 10  1  0
  9 11  1  0
 11 12  2  0
 12 13  1  0
 13 14  2  0
 13 15  1  0
 15 16  1  0
 16 17  2  0
 17 18  1  0
 18 19  2  0
 19 20  1  0
 20 21  2  0
 20 22  1  0
 22 23  1  0
 23 24  1  0
  7 25  1  0
 25  4  1  0
 12  6  1  0
 21 16  1  0
 24 19  1  0
M  END
>  <smiles>  (1912) 
C27325-P221

>  <fragmenstein_outcome>  (1912) 
acceptable

>  <inchikey>  (1912) 
GVUMASCPPWACIK-UHFFFAOYSA-N

>  <fragmenstein_mode>  (1912) 
expansion

>  <HIPPO Pose ID>  (1912) 
23889

>  <Energy>  (1912) 
105.562155

>  <fragmenstein_error>  (1912) 


>  <tags>  (1912) 
{'openbind_xx01zvns2b_c1_fragmenstein', 'fragmenstein_placed'}

>  <ref_pdb>  (1912) 
175

>  <scratch_subdir>  (1912) 
/opt/xchem-fragalysis-2/maxwin/BulkDock/SCRATCH/511028/C27325-P221

>  <alias>  (1912) 
CNC[C@@H]1Cc2c(cc(F)cc2C(=O)Nc2cnc3c(c2)CNC3)N1

>  <HIPPO Compound ID>  (1912) 
27325

>  <fragmenstein_runtime>  (1912) 
3.46025

$$$$
O=C1Cc2c(C(=O)Nc3cnc4c(c3)CNC4)cccc2C1=O
     RDKit          3D

 23 26  0  0  0  0  0  0  0  0999 V2000
   -3.3054    5.6351  -17.4814 O   0  0  0  0  0  0  0  0  0  0  0  0
   -4.4916    5.4312  -17.3056 C   0  0  0  0  0  0  0  0  0  0  0  0
   -5.2643    5.5035  -16.0097 C   0  0  0  0  0  0  0  0  0  0  0  0
   -6.6256    4.9972  -16.4032 C   0  0  0  0  0  0  0  0  0  0  0  0
   -7.7263    4.7881  -15.5817 C   0  0  0  0  0  0  0  0  0  0  0  0
   -7.7001    5.2686  -14.1759 C   0  0  0  0  0  0  0  0  0  0  0  0
   -7.3741    6.3746  -13.9963 O   0  0  0  0  0  0  0  0  0  0  0  0
   -8.1524    4.1841  -13.1758 N   0  0  0  0  0  0  0  0  0  0  0  0
   -8.2060    4.2026  -11.7821 C   0  0  0  0  0  0  0  0  0  0  0  0
   -7.9220    5.3563  -11.0369 C   0  0  0  0  0  0  0  0  0  0  0  0
   -7.9895    5.4405   -9.6808 N   0  0  0  0  0  0  0  0  0  0  0  0
   -8.3425    4.2951   -9.0705 C   0  0  0  0  0  0  0  0  0  0  0  0
   -8.6263    3.1051   -9.7154 C   0  0  0  0  0  0  0  0  0  0  0  0
   -8.5601    3.0438  -11.0944 C   0  0  0  0  0  0  0  0  0  0  0  0
   -8.9565    2.0581   -8.7071 C   0  0  0  0  0  0  0  0  0  0  0  0
   -9.2246    2.7938   -7.4408 N   0  0  0  0  0  0  0  0  0  0  0  0
   -8.5156    4.0907   -7.5903 C   0  0  0  0  0  0  0  0  0  0  0  0
   -8.8951    4.2643  -16.1480 C   0  0  0  0  0  0  0  0  0  0  0  0
   -8.9687    3.9873  -17.5260 C   0  0  0  0  0  0  0  0  0  0  0  0
   -7.8733    4.2242  -18.3566 C   0  0  0  0  0  0  0  0  0  0  0  0
   -6.7221    4.7196  -17.7732 C   0  0  0  0  0  0  0  0  0  0  0  0
   -5.4431    5.0386  -18.4146 C   0  0  0  0  0  0  0  0  0  0  0  0
   -5.1367    5.0328  -19.5820 O   0  0  0  0  0  0  0  0  0  0  0  0
  1  2  2  0
  2  3  1  0
  3  4  1  0
  4  5  2  0
  5  6  1  0
  6  7  2  0
  6  8  1  0
  8  9  1  0
  9 10  2  0
 10 11  1  0
 11 12  2  0
 12 13  1  0
 13 14  2  0
 13 15  1  0
 15 16  1  0
 16 17  1  0
  5 18  1  0
 18 19  2  0
 19 20  1  0
 20 21  2  0
 21 22  1  0
 22 23  2  0
 22  2  1  0
 21  4  1  0
 14  9  1  0
 17 12  1  0
M  END
>  <smiles>  (1913) 
C27264-P221

>  <fragmenstein_outcome>  (1913) 
acceptable

>  <inchikey>  (1913) 
UGZMRPJZPUFQQJ-UHFFFAOYSA-N

>  <fragmenstein_mode>  (1913) 
expansion

>  <HIPPO Pose ID>  (1913) 
23891

>  <Energy>  (1913) 
122.102219

>  <fragmenstein_error>  (1913) 


>  <tags>  (1913) 
{'openbind_xx01zvns2b_c1_fragmenstein', 'fragmenstein_placed'}

>  <ref_pdb>  (1913) 
175

>  <scratch_subdir>  (1913) 
/opt/xchem-fragalysis-2/maxwin/BulkDock/SCRATCH/511028/C27264-P221

>  <alias>  (1913) 
O=C1Cc2c(C(=O)Nc3cnc4c(c3)CNC4)cccc2C1=O

>  <HIPPO Compound ID>  (1913) 
27264

>  <fragmenstein_runtime>  (1913) 
2.116521

$$$$
CNCN1C(=O)Cc2c(C(=O)Nc3cnc4c(c3)CNC4)cccc21
     RDKit          3D

 25 28  0  0  0  0  0  0  0  0999 V2000
   -5.2085    7.4976  -19.4881 C   0  0  0  0  0  0  0  0  0  0  0  0
   -5.6889    6.2197  -19.9656 N   0  0  0  0  0  0  0  0  0  0  0  0
   -5.1876    5.0719  -19.2517 C   0  0  0  0  0  0  0  0  0  0  0  0
   -5.4308    5.1595  -17.8475 N   0  0  0  0  0  0  0  0  0  0  0  0
   -4.4261    5.4254  -16.9140 C   0  0  0  0  0  0  0  0  0  0  0  0
   -3.2383    5.6005  -17.1444 O   0  0  0  0  0  0  0  0  0  0  0  0
   -5.0849    5.4612  -15.5344 C   0  0  0  0  0  0  0  0  0  0  0  0
   -6.5012    5.0877  -15.8465 C   0  0  0  0  0  0  0  0  0  0  0  0
   -7.5747    4.8977  -14.9977 C   0  0  0  0  0  0  0  0  0  0  0  0
   -7.4867    5.2672  -13.5652 C   0  0  0  0  0  0  0  0  0  0  0  0
   -7.0892    6.3290  -13.2925 O   0  0  0  0  0  0  0  0  0  0  0  0
   -8.0580    4.1531  -12.6666 N   0  0  0  0  0  0  0  0  0  0  0  0
   -8.1691    4.0767  -11.2813 C   0  0  0  0  0  0  0  0  0  0  0  0
   -7.9655    5.1859  -10.4485 C   0  0  0  0  0  0  0  0  0  0  0  0
   -8.1376    5.1803   -9.0996 N   0  0  0  0  0  0  0  0  0  0  0  0
   -8.5158    3.9931   -8.5939 C   0  0  0  0  0  0  0  0  0  0  0  0
   -8.7260    2.8437   -9.3352 C   0  0  0  0  0  0  0  0  0  0  0  0
   -8.5485    2.8683  -10.7030 C   0  0  0  0  0  0  0  0  0  0  0  0
   -9.1279    1.7356   -8.4273 C   0  0  0  0  0  0  0  0  0  0  0  0
   -9.5600    2.3958   -7.1668 N   0  0  0  0  0  0  0  0  0  0  0  0
   -8.8362    3.6952   -7.1533 C   0  0  0  0  0  0  0  0  0  0  0  0
   -8.7929    4.4774  -15.5460 C   0  0  0  0  0  0  0  0  0  0  0  0
   -8.9348    4.2976  -16.9307 C   0  0  0  0  0  0  0  0  0  0  0  0
   -7.8577    4.5327  -17.7853 C   0  0  0  0  0  0  0  0  0  0  0  0
   -6.6522    4.9110  -17.2205 C   0  0  0  0  0  0  0  0  0  0  0  0
  1  2  1  0
  2  3  1  0
  3  4  1  0
  4  5  1  0
  5  6  2  0
  5  7  1  0
  7  8  1  0
  8  9  2  0
  9 10  1  0
 10 11  2  0
 10 12  1  0
 12 13  1  0
 13 14  2  0
 14 15  1  0
 15 16  2  0
 16 17  1  0
 17 18  2  0
 17 19  1  0
 19 20  1  0
 20 21  1  0
  9 22  1  0
 22 23  2  0
 23 24  1  0
 24 25  2  0
 25  4  1  0
 25  8  1  0
 18 13  1  0
 21 16  1  0
M  END
>  <smiles>  (1914) 
C27320-P222

>  <fragmenstein_outcome>  (1914) 
acceptable

>  <inchikey>  (1914) 
SXICVAULCYXFOU-UHFFFAOYSA-N

>  <fragmenstein_mode>  (1914) 
expansion

>  <HIPPO Pose ID>  (1914) 
23892

>  <Energy>  (1914) 
50.47879

>  <fragmenstein_error>  (1914) 


>  <tags>  (1914) 
{'openbind_xx01zvns2b_c1_fragmenstein', 'fragmenstein_placed'}

>  <ref_pdb>  (1914) 
175

>  <scratch_subdir>  (1914) 
/opt/xchem-fragalysis-2/maxwin/BulkDock/SCRATCH/511028/C27320-P222

>  <alias>  (1914) 
CNCN1C(=O)Cc2c(C(=O)Nc3cnc4c(c3)CNC4)cccc21

>  <HIPPO Compound ID>  (1914) 
35583

>  <fragmenstein_runtime>  (1914) 
3.782284

$$$$
CNCN1C(=O)Cc2c(C(=O)Nc3cc(Br)c4c(c3)CNC4)cccc21
     RDKit          3D

 26 29  0  0  0  0  0  0  0  0999 V2000
   -5.1784    7.3294  -20.8967 C   0  0  0  0  0  0  0  0  0  0  0  0
   -5.8371    6.7283  -19.7484 N   0  0  0  0  0  0  0  0  0  0  0  0
   -5.3249    5.3889  -19.4736 C   0  0  0  0  0  0  0  0  0  0  0  0
   -5.4532    5.1850  -18.0590 N   0  0  0  0  0  0  0  0  0  0  0  0
   -4.4163    5.4505  -17.1596 C   0  0  0  0  0  0  0  0  0  0  0  0
   -3.2440    5.6726  -17.4270 O   0  0  0  0  0  0  0  0  0  0  0  0
   -5.0105    5.4127  -15.7514 C   0  0  0  0  0  0  0  0  0  0  0  0
   -6.4390    5.0472  -16.0112 C   0  0  0  0  0  0  0  0  0  0  0  0
   -7.4824    4.8645  -15.1196 C   0  0  0  0  0  0  0  0  0  0  0  0
   -7.3288    5.2364  -13.6917 C   0  0  0  0  0  0  0  0  0  0  0  0
   -6.8620    6.2768  -13.4428 O   0  0  0  0  0  0  0  0  0  0  0  0
   -7.8807    4.1376  -12.7577 N   0  0  0  0  0  0  0  0  0  0  0  0
   -8.0548    4.1283  -11.3762 C   0  0  0  0  0  0  0  0  0  0  0  0
   -7.8133    5.2760  -10.6060 C   0  0  0  0  0  0  0  0  0  0  0  0
   -7.9988    5.2507   -9.2206 C   0  0  0  0  0  0  0  0  0  0  0  0
   -7.6565    6.8057   -8.2046 Br  0  0  0  0  0  0  0  0  0  0  0  0
   -8.4197    4.0781   -8.6219 C   0  0  0  0  0  0  0  0  0  0  0  0
   -8.6515    2.9427   -9.3880 C   0  0  0  0  0  0  0  0  0  0  0  0
   -8.4806    2.9485  -10.7640 C   0  0  0  0  0  0  0  0  0  0  0  0
   -9.0452    1.8111   -8.5037 C   0  0  0  0  0  0  0  0  0  0  0  0
   -9.1761    2.3737   -7.1352 N   0  0  0  0  0  0  0  0  0  0  0  0
   -8.6798    3.7672   -7.1890 C   0  0  0  0  0  0  0  0  0  0  0  0
   -8.7288    4.4709  -15.6214 C   0  0  0  0  0  0  0  0  0  0  0  0
   -8.9234    4.3083  -17.0023 C   0  0  0  0  0  0  0  0  0  0  0  0
   -7.8785    4.5476  -17.8984 C   0  0  0  0  0  0  0  0  0  0  0  0
   -6.6458    4.9062  -17.3826 C   0  0  0  0  0  0  0  0  0  0  0  0
  1  2  1  0
  2  3  1  0
  3  4  1  0
  4  5  1  0
  5  6  2  0
  5  7  1  0
  7  8  1  0
  8  9  2  0
  9 10  1  0
 10 11  2  0
 10 12  1  0
 12 13  1  0
 13 14  2  0
 14 15  1  0
 15 16  1  0
 15 17  2  0
 17 18  1  0
 18 19  2  0
 18 20  1  0
 20 21  1  0
 21 22  1  0
  9 23  1  0
 23 24  2  0
 24 25  1  0
 25 26  2  0
 26  4  1  0
 26  8  1  0
 19 13  1  0
 22 17  1  0
M  END
>  <smiles>  (1915) 
C27333-P222

>  <fragmenstein_outcome>  (1915) 
acceptable

>  <inchikey>  (1915) 
HLQQYNBFTFMVLI-UHFFFAOYSA-N

>  <fragmenstein_mode>  (1915) 
expansion

>  <HIPPO Pose ID>  (1915) 
23893

>  <Energy>  (1915) 
18.546131

>  <fragmenstein_error>  (1915) 


>  <tags>  (1915) 
{'openbind_xx01zvns2b_c1_fragmenstein', 'fragmenstein_placed'}

>  <ref_pdb>  (1915) 
175

>  <scratch_subdir>  (1915) 
/opt/xchem-fragalysis-2/maxwin/BulkDock/SCRATCH/511028/C27333-P222

>  <alias>  (1915) 
CNCN1C(=O)Cc2c(C(=O)Nc3cc(Br)c4c(c3)CNC4)cccc21

>  <HIPPO Compound ID>  (1915) 
24210

>  <fragmenstein_runtime>  (1915) 
3.742716

$$$$
CNCN1C(=O)Cc2c(C(=O)Nc3cnc4c(c3)CNC4)cc(F)cc21
     RDKit          3D

 26 29  0  0  0  0  0  0  0  0999 V2000
   -5.6085    4.5175  -20.0678 C   0  0  0  0  0  0  0  0  0  0  0  0
   -6.0014    5.8572  -19.7612 N   0  0  0  0  0  0  0  0  0  0  0  0
   -5.3963    6.3750  -18.5804 C   0  0  0  0  0  0  0  0  0  0  0  0
   -5.4389    5.5056  -17.4478 N   0  0  0  0  0  0  0  0  0  0  0  0
   -4.4016    5.6121  -16.5086 C   0  0  0  0  0  0  0  0  0  0  0  0
   -3.2413    5.9229  -16.7374 O   0  0  0  0  0  0  0  0  0  0  0  0
   -4.9923    5.3216  -15.1355 C   0  0  0  0  0  0  0  0  0  0  0  0
   -6.4256    5.0398  -15.4585 C   0  0  0  0  0  0  0  0  0  0  0  0
   -7.4920    4.8005  -14.6127 C   0  0  0  0  0  0  0  0  0  0  0  0
   -7.3732    5.1293  -13.1788 C   0  0  0  0  0  0  0  0  0  0  0  0
   -6.9001    6.1542  -12.8919 O   0  0  0  0  0  0  0  0  0  0  0  0
   -7.9674    4.0250  -12.2943 N   0  0  0  0  0  0  0  0  0  0  0  0
   -8.1849    3.9866  -10.9268 C   0  0  0  0  0  0  0  0  0  0  0  0
   -7.9626    5.1024  -10.1080 C   0  0  0  0  0  0  0  0  0  0  0  0
   -8.1522    5.1192   -8.7645 N   0  0  0  0  0  0  0  0  0  0  0  0
   -8.5701    3.9485   -8.2532 C   0  0  0  0  0  0  0  0  0  0  0  0
   -8.8169    2.8031   -8.9851 C   0  0  0  0  0  0  0  0  0  0  0  0
   -8.6327    2.8063  -10.3507 C   0  0  0  0  0  0  0  0  0  0  0  0
   -9.1986    1.6944   -8.0766 C   0  0  0  0  0  0  0  0  0  0  0  0
   -9.3921    2.2937   -6.7300 N   0  0  0  0  0  0  0  0  0  0  0  0
   -8.8240    3.6638   -6.8012 C   0  0  0  0  0  0  0  0  0  0  0  0
   -8.7261    4.4479  -15.1632 C   0  0  0  0  0  0  0  0  0  0  0  0
   -8.8741    4.3947  -16.5479 C   0  0  0  0  0  0  0  0  0  0  0  0
  -10.0451    4.0235  -17.0768 F   0  0  0  0  0  0  0  0  0  0  0  0
   -7.8429    4.7621  -17.3986 C   0  0  0  0  0  0  0  0  0  0  0  0
   -6.6252    5.0894  -16.8314 C   0  0  0  0  0  0  0  0  0  0  0  0
  1  2  1  0
  2  3  1  0
  3  4  1  0
  4  5  1  0
  5  6  2  0
  5  7  1  0
  7  8  1  0
  8  9  2  0
  9 10  1  0
 10 11  2  0
 10 12  1  0
 12 13  1  0
 13 14  2  0
 14 15  1  0
 15 16  2  0
 16 17  1  0
 17 18  2  0
 17 19  1  0
 19 20  1  0
 20 21  1  0
  9 22  1  0
 22 23  2  0
 23 24  1  0
 23 25  1  0
 25 26  2  0
 26  4  1  0
 26  8  1  0
 18 13  1  0
 21 16  1  0
M  END
>  <smiles>  (1916) 
C27335-P222

>  <fragmenstein_outcome>  (1916) 
acceptable

>  <inchikey>  (1916) 
NRPYGYKGGGOHMK-UHFFFAOYSA-N

>  <fragmenstein_mode>  (1916) 
expansion

>  <HIPPO Pose ID>  (1916) 
23895

>  <Energy>  (1916) 
49.298877

>  <fragmenstein_error>  (1916) 


>  <tags>  (1916) 
{'openbind_xx01zvns2b_c1_fragmenstein', 'fragmenstein_placed'}

>  <ref_pdb>  (1916) 
175

>  <scratch_subdir>  (1916) 
/opt/xchem-fragalysis-2/maxwin/BulkDock/SCRATCH/511028/C27335-P222

>  <alias>  (1916) 
CNCN1C(=O)Cc2c(C(=O)Nc3cnc4c(c3)CNC4)cc(F)cc21

>  <HIPPO Compound ID>  (1916) 
27335

>  <fragmenstein_runtime>  (1916) 
4.518105

$$$$
CNC[C@@H]1Cc2c(cc(Br)cc2C(=O)Nc2cnc3c(c2)CNC3)N1
     RDKit          3D

 25 28  0  0  0  0  0  0  0  0999 V2000
   -1.5744    5.9427  -14.8567 C   0  0  0  0  0  0  0  0  0  0  0  0
   -1.5948    5.9636  -16.3112 N   0  0  0  0  0  0  0  0  0  0  0  0
   -2.8008    5.3530  -16.8960 C   0  0  0  0  0  0  0  0  0  0  0  0
   -4.0980    6.1798  -16.7674 C   0  0  2  0  0  0  0  0  0  0  0  0
   -4.8109    6.0302  -15.3965 C   0  0  0  0  0  0  0  0  0  0  0  0
   -6.1338    5.4623  -15.7796 C   0  0  0  0  0  0  0  0  0  0  0  0
   -6.1817    5.3029  -17.1598 C   0  0  0  0  0  0  0  0  0  0  0  0
   -7.3104    4.8212  -17.7810 C   0  0  0  0  0  0  0  0  0  0  0  0
   -8.3985    4.4864  -16.9842 C   0  0  0  0  0  0  0  0  0  0  0  0
   -9.9822    3.9651  -17.8295 Br  0  0  0  0  0  0  0  0  0  0  0  0
   -8.3682    4.6233  -15.5927 C   0  0  0  0  0  0  0  0  0  0  0  0
   -7.2182    5.1262  -14.9789 C   0  0  0  0  0  0  0  0  0  0  0  0
   -7.2412    5.4603  -13.5303 C   0  0  0  0  0  0  0  0  0  0  0  0
   -6.9136    6.5319  -13.2051 O   0  0  0  0  0  0  0  0  0  0  0  0
   -7.8167    4.2937  -12.6980 N   0  0  0  0  0  0  0  0  0  0  0  0
   -8.0139    4.1734  -11.3239 C   0  0  0  0  0  0  0  0  0  0  0  0
   -7.8799    5.2645  -10.4531 C   0  0  0  0  0  0  0  0  0  0  0  0
   -8.1106    5.2195   -9.1134 N   0  0  0  0  0  0  0  0  0  0  0  0
   -8.4880    4.0131   -8.6566 C   0  0  0  0  0  0  0  0  0  0  0  0
   -8.6464    2.8813   -9.4371 C   0  0  0  0  0  0  0  0  0  0  0  0
   -8.4021    2.9439  -10.7954 C   0  0  0  0  0  0  0  0  0  0  0  0
   -9.0742    1.7449   -8.5756 C   0  0  0  0  0  0  0  0  0  0  0  0
   -9.5520    2.3620   -7.3086 N   0  0  0  0  0  0  0  0  0  0  0  0
   -8.8494    3.6700   -7.2363 C   0  0  0  0  0  0  0  0  0  0  0  0
   -5.0619    5.8156  -17.8289 N   0  0  0  0  0  0  0  0  0  0  0  0
  1  2  1  0
  2  3  1  0
  4  3  1  1
  4  5  1  0
  5  6  1  0
  6  7  2  0
  7  8  1  0
  8  9  2  0
  9 10  1  0
  9 11  1  0
 11 12  2  0
 12 13  1  0
 13 14  2  0
 13 15  1  0
 15 16  1  0
 16 17  2  0
 17 18  1  0
 18 19  2  0
 19 20  1  0
 20 21  2  0
 20 22  1  0
 22 23  1  0
 23 24  1  0
  7 25  1  0
 25  4  1  0
 12  6  1  0
 21 16  1  0
 24 19  1  0
M  END
>  <smiles>  (1917) 
C27340-P222

>  <fragmenstein_outcome>  (1917) 
acceptable

>  <inchikey>  (1917) 
DAALQJFHZUWTDW-UHFFFAOYSA-N

>  <fragmenstein_mode>  (1917) 
expansion

>  <HIPPO Pose ID>  (1917) 
23900

>  <Energy>  (1917) 
108.73117

>  <fragmenstein_error>  (1917) 


>  <tags>  (1917) 
{'openbind_xx01zvns2b_c1_fragmenstein', 'fragmenstein_placed'}

>  <ref_pdb>  (1917) 
175

>  <scratch_subdir>  (1917) 
/opt/xchem-fragalysis-2/maxwin/BulkDock/SCRATCH/511028/C27340-P222

>  <alias>  (1917) 
CNC[C@@H]1Cc2c(cc(Br)cc2C(=O)Nc2cnc3c(c2)CNC3)N1

>  <HIPPO Compound ID>  (1917) 
27340

>  <fragmenstein_runtime>  (1917) 
3.828959

$$$$
O=C(Nc1cnc2c(c1)CNC2)c1cc(Cl)cc2c1CC(=NC1CNC1)N2
     RDKit          3D

 27 31  0  0  0  0  0  0  0  0999 V2000
   -7.0000    6.4631  -13.4142 O   0  0  0  0  0  0  0  0  0  0  0  0
   -7.3794    5.3977  -13.7003 C   0  0  0  0  0  0  0  0  0  0  0  0
   -7.8635    4.2355  -12.8085 N   0  0  0  0  0  0  0  0  0  0  0  0
   -8.0651    4.1749  -11.4314 C   0  0  0  0  0  0  0  0  0  0  0  0
   -7.8871    5.2874  -10.5982 C   0  0  0  0  0  0  0  0  0  0  0  0
   -8.0599    5.2795   -9.2495 N   0  0  0  0  0  0  0  0  0  0  0  0
   -8.4247    4.0888   -8.7412 C   0  0  0  0  0  0  0  0  0  0  0  0
   -8.6266    2.9406   -9.4798 C   0  0  0  0  0  0  0  0  0  0  0  0
   -8.4489    2.9678  -10.8510 C   0  0  0  0  0  0  0  0  0  0  0  0
   -9.0009    1.8170   -8.5822 C   0  0  0  0  0  0  0  0  0  0  0  0
   -9.1008    2.3744   -7.2047 N   0  0  0  0  0  0  0  0  0  0  0  0
   -8.6711    3.7936   -7.2907 C   0  0  0  0  0  0  0  0  0  0  0  0
   -7.4233    5.0315  -15.1344 C   0  0  0  0  0  0  0  0  0  0  0  0
   -8.6131    4.6116  -15.7319 C   0  0  0  0  0  0  0  0  0  0  0  0
   -8.6634    4.4138  -17.1211 C   0  0  0  0  0  0  0  0  0  0  0  0
  -10.1567    4.0261  -17.8655 Cl  0  0  0  0  0  0  0  0  0  0  0  0
   -7.5408    4.5864  -17.9286 C   0  0  0  0  0  0  0  0  0  0  0  0
   -6.3736    4.9877  -17.3233 C   0  0  0  0  0  0  0  0  0  0  0  0
   -6.3124    5.2116  -15.9390 C   0  0  0  0  0  0  0  0  0  0  0  0
   -4.9181    5.6454  -15.5796 C   0  0  0  0  0  0  0  0  0  0  0  0
   -4.2350    5.6266  -16.9659 C   0  0  0  0  0  0  0  0  0  0  0  0
   -3.0408    6.0358  -17.2521 N   0  0  0  0  0  0  0  0  0  0  0  0
   -2.2739    6.6650  -16.1802 C   0  0  0  0  0  0  0  0  0  0  0  0
   -1.7524    5.7254  -15.0751 C   0  0  0  0  0  0  0  0  0  0  0  0
   -0.4255    6.3859  -15.1714 N   0  0  0  0  0  0  0  0  0  0  0  0
   -0.7792    6.7821  -16.5603 C   0  0  0  0  0  0  0  0  0  0  0  0
   -5.1183    5.1399  -17.9011 N   0  0  0  0  0  0  0  0  0  0  0  0
  1  2  2  0
  2  3  1  0
  3  4  1  0
  4  5  2  0
  5  6  1  0
  6  7  2  0
  7  8  1  0
  8  9  2  0
  8 10  1  0
 10 11  1  0
 11 12  1  0
  2 13  1  0
 13 14  2  0
 14 15  1  0
 15 16  1  0
 15 17  2  0
 17 18  1  0
 18 19  2  0
 19 20  1  0
 20 21  1  0
 21 22  2  3
 22 23  1  0
 23 24  1  0
 24 25  1  0
 25 26  1  0
 21 27  1  0
  9  4  1  0
 19 13  1  0
 26 23  1  0
 12  7  1  0
 27 18  1  0
M  END
>  <smiles>  (1918) 
C27346-P222

>  <fragmenstein_outcome>  (1918) 
acceptable

>  <inchikey>  (1918) 
QWUIIAWSHDJHFV-UHFFFAOYSA-N

>  <fragmenstein_mode>  (1918) 
expansion

>  <HIPPO Pose ID>  (1918) 
23906

>  <Energy>  (1918) 
107.445272

>  <fragmenstein_error>  (1918) 


>  <tags>  (1918) 
{'openbind_xx01zvns2b_c1_fragmenstein', 'fragmenstein_placed'}

>  <ref_pdb>  (1918) 
175

>  <scratch_subdir>  (1918) 
/opt/xchem-fragalysis-2/maxwin/BulkDock/SCRATCH/511028/C27346-P222

>  <alias>  (1918) 
O=C(Nc1cnc2c(c1)CNC2)c1cc(Cl)cc2c1CC(=NC1CNC1)N2

>  <HIPPO Compound ID>  (1918) 
27346

>  <fragmenstein_runtime>  (1918) 
4.068512

$$$$
CNCN1C(=O)Cc2c(C(=O)Nc3cnc4c(c3)CN(C)[C@H]4C)cc(Cl)cc21
     RDKit          3D

 28 31  0  0  0  0  0  0  0  0999 V2000
   -2.9921    6.3348  -20.5606 C   0  0  0  0  0  0  0  0  0  0  0  0
   -3.5054    5.0967  -19.9689 N   0  0  0  0  0  0  0  0  0  0  0  0
   -4.8851    5.3022  -19.4969 C   0  0  0  0  0  0  0  0  0  0  0  0
   -5.0070    5.1356  -18.0600 N   0  0  0  0  0  0  0  0  0  0  0  0
   -4.0571    5.5055  -17.1030 C   0  0  0  0  0  0  0  0  0  0  0  0
   -2.8871    5.7979  -17.3034 O   0  0  0  0  0  0  0  0  0  0  0  0
   -4.7211    5.4750  -15.7289 C   0  0  0  0  0  0  0  0  0  0  0  0
   -6.1295    5.1107  -16.0625 C   0  0  0  0  0  0  0  0  0  0  0  0
   -7.2250    4.9791  -15.2255 C   0  0  0  0  0  0  0  0  0  0  0  0
   -7.1426    5.3921  -13.8113 C   0  0  0  0  0  0  0  0  0  0  0  0
   -6.8149    6.4870  -13.5798 O   0  0  0  0  0  0  0  0  0  0  0  0
   -7.6103    4.2685  -12.8666 N   0  0  0  0  0  0  0  0  0  0  0  0
   -7.8557    4.2827  -11.4974 C   0  0  0  0  0  0  0  0  0  0  0  0
   -7.6746    5.4399  -10.7257 C   0  0  0  0  0  0  0  0  0  0  0  0
   -7.9369    5.5341   -9.3979 N   0  0  0  0  0  0  0  0  0  0  0  0
   -8.3937    4.3995   -8.8427 C   0  0  0  0  0  0  0  0  0  0  0  0
   -8.5951    3.2067   -9.5233 C   0  0  0  0  0  0  0  0  0  0  0  0
   -8.3207    3.1281  -10.8742 C   0  0  0  0  0  0  0  0  0  0  0  0
   -9.1100    2.1734   -8.5839 C   0  0  0  0  0  0  0  0  0  0  0  0
   -9.5629    2.9431   -7.4051 N   0  0  0  0  0  0  0  0  0  0  0  0
   -9.5182    2.1686   -6.1924 C   0  0  0  0  0  0  0  0  0  0  0  0
   -8.8453    4.2407   -7.4064 C   0  0  1  0  0  0  0  0  0  0  0  0
   -7.6819    4.4609   -6.4434 C   0  0  0  0  0  0  0  0  0  0  0  0
   -8.4565    4.6173  -15.7722 C   0  0  0  0  0  0  0  0  0  0  0  0
   -8.5657    4.4325  -17.1550 C   0  0  0  0  0  0  0  0  0  0  0  0
  -10.0994    4.0664  -17.8228 Cl  0  0  0  0  0  0  0  0  0  0  0  0
   -7.4704    4.5966  -18.0053 C   0  0  0  0  0  0  0  0  0  0  0  0
   -6.2534    4.9225  -17.4375 C   0  0  0  0  0  0  0  0  0  0  0  0
  1  2  1  0
  2  3  1  0
  3  4  1  0
  4  5  1  0
  5  6  2  0
  5  7  1  0
  7  8  1  0
  8  9  2  0
  9 10  1  0
 10 11  2  0
 10 12  1  0
 12 13  1  0
 13 14  2  0
 14 15  1  0
 15 16  2  0
 16 17  1  0
 17 18  2  0
 17 19  1  0
 19 20  1  0
 20 21  1  0
 20 22  1  0
 22 23  1  1
  9 24  1  0
 24 25  2  0
 25 26  1  0
 25 27  1  0
 27 28  2  0
 28  4  1  0
 28  8  1  0
 18 13  1  0
 22 16  1  0
M  END
>  <smiles>  (1919) 
C27351-P222

>  <fragmenstein_outcome>  (1919) 
acceptable

>  <inchikey>  (1919) 
SJRPBNJMVZZICA-UHFFFAOYSA-N

>  <fragmenstein_mode>  (1919) 
expansion

>  <HIPPO Pose ID>  (1919) 
23909

>  <Energy>  (1919) 
55.380997

>  <fragmenstein_error>  (1919) 


>  <tags>  (1919) 
{'openbind_xx01zvns2b_c1_fragmenstein', 'fragmenstein_placed'}

>  <ref_pdb>  (1919) 
175

>  <scratch_subdir>  (1919) 
/opt/xchem-fragalysis-2/maxwin/BulkDock/SCRATCH/511028/C27351-P222

>  <alias>  (1919) 
CNCN1C(=O)Cc2c(C(=O)Nc3cnc4c(c3)CN(C)[C@H]4C)cc(Cl)cc21

>  <HIPPO Compound ID>  (1919) 
27351

>  <fragmenstein_runtime>  (1919) 
7.15211

$$$$
CNCN1C(=O)Cc2c(C(=O)Nc3cnc4c(c3)CN(C)C4)cc(Cl)cc21
     RDKit          3D

 27 30  0  0  0  0  0  0  0  0999 V2000
   -5.5144    4.6699  -20.2058 C   0  0  0  0  0  0  0  0  0  0  0  0
   -4.3431    5.2895  -19.6208 N   0  0  0  0  0  0  0  0  0  0  0  0
   -4.7890    6.3202  -18.6922 C   0  0  0  0  0  0  0  0  0  0  0  0
   -5.0322    5.7582  -17.4014 N   0  0  0  0  0  0  0  0  0  0  0  0
   -4.0529    5.7847  -16.4087 C   0  0  0  0  0  0  0  0  0  0  0  0
   -2.8738    6.0702  -16.5480 O   0  0  0  0  0  0  0  0  0  0  0  0
   -4.7336    5.4384  -15.0897 C   0  0  0  0  0  0  0  0  0  0  0  0
   -6.1442    5.1650  -15.5153 C   0  0  0  0  0  0  0  0  0  0  0  0
   -7.2557    4.8600  -14.7433 C   0  0  0  0  0  0  0  0  0  0  0  0
   -7.2333    5.2026  -13.3057 C   0  0  0  0  0  0  0  0  0  0  0  0
   -6.8262    6.2587  -13.0270 O   0  0  0  0  0  0  0  0  0  0  0  0
   -7.8015    4.0871  -12.4154 N   0  0  0  0  0  0  0  0  0  0  0  0
   -8.0689    4.0684  -11.0520 C   0  0  0  0  0  0  0  0  0  0  0  0
   -7.8954    5.2179  -10.2651 C   0  0  0  0  0  0  0  0  0  0  0  0
   -8.1192    5.2838   -8.9298 N   0  0  0  0  0  0  0  0  0  0  0  0
   -8.5151    4.1234   -8.3818 C   0  0  0  0  0  0  0  0  0  0  0  0
   -8.7253    2.9451   -9.0766 C   0  0  0  0  0  0  0  0  0  0  0  0
   -8.5078    2.9003  -10.4413 C   0  0  0  0  0  0  0  0  0  0  0  0
   -9.1827    1.8815   -8.1386 C   0  0  0  0  0  0  0  0  0  0  0  0
   -9.1547    2.4839   -6.7861 N   0  0  0  0  0  0  0  0  0  0  0  0
  -10.3505    2.2280   -6.0096 C   0  0  0  0  0  0  0  0  0  0  0  0
   -8.8328    3.9141   -6.9278 C   0  0  0  0  0  0  0  0  0  0  0  0
   -8.4478    4.5041  -15.3812 C   0  0  0  0  0  0  0  0  0  0  0  0
   -8.5155    4.5702  -16.7768 C   0  0  0  0  0  0  0  0  0  0  0  0
   -9.9318    4.0877  -17.6147 Cl  0  0  0  0  0  0  0  0  0  0  0  0
   -7.4564    5.0758  -17.5285 C   0  0  0  0  0  0  0  0  0  0  0  0
   -6.2594    5.3205  -16.8901 C   0  0  0  0  0  0  0  0  0  0  0  0
  1  2  1  0
  2  3  1  0
  3  4  1  0
  4  5  1  0
  5  6  2  0
  5  7  1  0
  7  8  1  0
  8  9  2  0
  9 10  1  0
 10 11  2  0
 10 12  1  0
 12 13  1  0
 13 14  2  0
 14 15  1  0
 15 16  2  0
 16 17  1  0
 17 18  2  0
 17 19  1  0
 19 20  1  0
 20 21  1  0
 20 22  1  0
  9 23  1  0
 23 24  2  0
 24 25  1  0
 24 26  1  0
 26 27  2  0
 27  4  1  0
 27  8  1  0
 18 13  1  0
 22 16  1  0
M  END
>  <smiles>  (1920) 
C27353-P222

>  <fragmenstein_outcome>  (1920) 
acceptable

>  <inchikey>  (1920) 
DQZJREGFBAYAID-UHFFFAOYSA-N

>  <fragmenstein_mode>  (1920) 
expansion

>  <HIPPO Pose ID>  (1920) 
23910

>  <Energy>  (1920) 
60.174184

>  <fragmenstein_error>  (1920) 


>  <tags>  (1920) 
{'openbind_xx01zvns2b_c1_fragmenstein', 'fragmenstein_placed'}

>  <ref_pdb>  (1920) 
175

>  <scratch_subdir>  (1920) 
/opt/xchem-fragalysis-2/maxwin/BulkDock/SCRATCH/511028/C27353-P222

>  <alias>  (1920) 
CNCN1C(=O)Cc2c(C(=O)Nc3cnc4c(c3)CN(C)C4)cc(Cl)cc21

>  <HIPPO Compound ID>  (1920) 
25185

>  <fragmenstein_runtime>  (1920) 
5.063112

$$$$
CNCN1C(=O)Cc2c(C(=O)Nc3cc4c(nc3F)CNC4)cc(Cl)cc21
     RDKit          3D

 27 30  0  0  0  0  0  0  0  0999 V2000
   -5.6572    4.4672  -20.2961 C   0  0  0  0  0  0  0  0  0  0  0  0
   -4.5031    5.1394  -19.7307 N   0  0  0  0  0  0  0  0  0  0  0  0
   -5.0007    6.1533  -18.8123 C   0  0  0  0  0  0  0  0  0  0  0  0
   -5.1817    5.6108  -17.5059 N   0  0  0  0  0  0  0  0  0  0  0  0
   -4.1845    5.6815  -16.5329 C   0  0  0  0  0  0  0  0  0  0  0  0
   -3.0084    5.9649  -16.7052 O   0  0  0  0  0  0  0  0  0  0  0  0
   -4.8445    5.3837  -15.1878 C   0  0  0  0  0  0  0  0  0  0  0  0
   -6.2631    5.1012  -15.5800 C   0  0  0  0  0  0  0  0  0  0  0  0
   -7.3686    4.8328  -14.7898 C   0  0  0  0  0  0  0  0  0  0  0  0
   -7.3195    5.1765  -13.3549 C   0  0  0  0  0  0  0  0  0  0  0  0
   -6.9520    6.2470  -13.0788 O   0  0  0  0  0  0  0  0  0  0  0  0
   -7.8424    4.0407  -12.4610 N   0  0  0  0  0  0  0  0  0  0  0  0
   -8.1060    4.0131  -11.0882 C   0  0  0  0  0  0  0  0  0  0  0  0
   -8.5253    2.7991  -10.5481 C   0  0  0  0  0  0  0  0  0  0  0  0
   -8.7838    2.7554   -9.1951 C   0  0  0  0  0  0  0  0  0  0  0  0
   -8.6239    3.8924   -8.4242 C   0  0  0  0  0  0  0  0  0  0  0  0
   -8.2387    5.0894   -8.8873 N   0  0  0  0  0  0  0  0  0  0  0  0
   -7.9804    5.1180  -10.2197 C   0  0  0  0  0  0  0  0  0  0  0  0
   -7.6201    6.3163  -10.6981 F   0  0  0  0  0  0  0  0  0  0  0  0
   -8.9917    3.5621   -7.0028 C   0  0  0  0  0  0  0  0  0  0  0  0
   -9.7016    2.2590   -7.0751 N   0  0  0  0  0  0  0  0  0  0  0  0
   -9.2007    1.6261   -8.3223 C   0  0  0  0  0  0  0  0  0  0  0  0
   -8.5795    4.4925  -15.4039 C   0  0  0  0  0  0  0  0  0  0  0  0
   -8.6713    4.5253  -16.7989 C   0  0  0  0  0  0  0  0  0  0  0  0
  -10.1247    4.1063  -17.6056 Cl  0  0  0  0  0  0  0  0  0  0  0  0
   -7.6063    4.9646  -17.5772 C   0  0  0  0  0  0  0  0  0  0  0  0
   -6.3998    5.2072  -16.9563 C   0  0  0  0  0  0  0  0  0  0  0  0
  1  2  1  0
  2  3  1  0
  3  4  1  0
  4  5  1  0
  5  6  2  0
  5  7  1  0
  7  8  1  0
  8  9  2  0
  9 10  1  0
 10 11  2  0
 10 12  1  0
 12 13  1  0
 13 14  2  0
 14 15  1  0
 15 16  2  0
 16 17  1  0
 17 18  2  0
 18 19  1  0
 16 20  1  0
 20 21  1  0
 21 22  1  0
  9 23  1  0
 23 24  2  0
 24 25  1  0
 24 26  1  0
 26 27  2  0
 27  4  1  0
 27  8  1  0
 18 13  1  0
 22 15  1  0
M  END
>  <smiles>  (1921) 
C27355-P222

>  <fragmenstein_outcome>  (1921) 
acceptable

>  <inchikey>  (1921) 
GNKILSANWVVMMA-UHFFFAOYSA-N

>  <fragmenstein_mode>  (1921) 
expansion

>  <HIPPO Pose ID>  (1921) 
23911

>  <Energy>  (1921) 
63.043732

>  <fragmenstein_error>  (1921) 


>  <tags>  (1921) 
{'openbind_xx01zvns2b_c1_fragmenstein', 'fragmenstein_placed'}

>  <ref_pdb>  (1921) 
175

>  <scratch_subdir>  (1921) 
/opt/xchem-fragalysis-2/maxwin/BulkDock/SCRATCH/511028/C27355-P222

>  <alias>  (1921) 
CNCN1C(=O)Cc2c(C(=O)Nc3cc4c(nc3F)CNC4)cc(Cl)cc21

>  <HIPPO Compound ID>  (1921) 
21870

>  <fragmenstein_runtime>  (1921) 
4.339537

$$$$
O=C1Cc2c(cc(Cl)cc2C(=O)Nc2cnc3c(c2)CNC3)N1
     RDKit          3D

 23 26  0  0  0  0  0  0  0  0999 V2000
   -2.8461    5.5902  -17.1902 O   0  0  0  0  0  0  0  0  0  0  0  0
   -4.0322    5.4428  -16.9452 C   0  0  0  0  0  0  0  0  0  0  0  0
   -4.7116    5.5054  -15.5673 C   0  0  0  0  0  0  0  0  0  0  0  0
   -6.1321    5.1600  -15.9025 C   0  0  0  0  0  0  0  0  0  0  0  0
   -6.2414    4.9788  -17.2794 C   0  0  0  0  0  0  0  0  0  0  0  0
   -7.4136    4.6306  -17.9011 C   0  0  0  0  0  0  0  0  0  0  0  0
   -8.5166    4.4305  -17.0814 C   0  0  0  0  0  0  0  0  0  0  0  0
   -9.9932    3.9819  -17.8067 Cl  0  0  0  0  0  0  0  0  0  0  0  0
   -8.4500    4.6111  -15.6911 C   0  0  0  0  0  0  0  0  0  0  0  0
   -7.2426    4.9939  -15.0931 C   0  0  0  0  0  0  0  0  0  0  0  0
   -7.2079    5.3439  -13.6526 C   0  0  0  0  0  0  0  0  0  0  0  0
   -6.7947    6.3926  -13.3515 O   0  0  0  0  0  0  0  0  0  0  0  0
   -7.8471    4.2345  -12.7897 N   0  0  0  0  0  0  0  0  0  0  0  0
   -8.0195    4.1476  -11.4092 C   0  0  0  0  0  0  0  0  0  0  0  0
   -7.8386    5.2483  -10.5600 C   0  0  0  0  0  0  0  0  0  0  0  0
   -8.0510    5.2325   -9.2163 N   0  0  0  0  0  0  0  0  0  0  0  0
   -8.4489    4.0435   -8.7308 C   0  0  0  0  0  0  0  0  0  0  0  0
   -8.6446    2.9014   -9.4870 C   0  0  0  0  0  0  0  0  0  0  0  0
   -8.4296    2.9378  -10.8510 C   0  0  0  0  0  0  0  0  0  0  0  0
   -9.0671    1.7855   -8.5963 C   0  0  0  0  0  0  0  0  0  0  0  0
   -9.5085    2.4312   -7.3305 N   0  0  0  0  0  0  0  0  0  0  0  0
   -8.7900    3.7328   -7.2981 C   0  0  0  0  0  0  0  0  0  0  0  0
   -5.0154    5.1762  -17.8851 N   0  0  0  0  0  0  0  0  0  0  0  0
  1  2  2  0
  2  3  1  0
  3  4  1  0
  4  5  2  0
  5  6  1  0
  6  7  2  0
  7  8  1  0
  7  9  1  0
  9 10  2  0
 10 11  1  0
 11 12  2  0
 11 13  1  0
 13 14  1  0
 14 15  2  0
 15 16  1  0
 16 17  2  0
 17 18  1  0
 18 19  2  0
 18 20  1  0
 20 21  1  0
 21 22  1  0
  5 23  1  0
 23  2  1  0
 10  4  1  0
 19 14  1  0
 22 17  1  0
M  END
>  <smiles>  (1922) 
C27261-P222

>  <fragmenstein_outcome>  (1922) 
acceptable

>  <inchikey>  (1922) 
ZBSCYNWSJUTFFV-UHFFFAOYSA-N

>  <fragmenstein_mode>  (1922) 
expansion

>  <HIPPO Pose ID>  (1922) 
23914

>  <Energy>  (1922) 
54.849514

>  <fragmenstein_error>  (1922) 


>  <tags>  (1922) 
{'openbind_xx01zvns2b_c1_fragmenstein', 'fragmenstein_placed'}

>  <ref_pdb>  (1922) 
175

>  <scratch_subdir>  (1922) 
/opt/xchem-fragalysis-2/maxwin/BulkDock/SCRATCH/511028/C27261-P222

>  <alias>  (1922) 
O=C1Cc2c(cc(Cl)cc2C(=O)Nc2cnc3c(c2)CNC3)N1

>  <HIPPO Compound ID>  (1922) 
30800

>  <fragmenstein_runtime>  (1922) 
3.246191

$$$$
CN=C1Cc2c(cc(Cl)cc2C(=O)Nc2cnc3c(c2)CNC3)N1
     RDKit          3D

 24 27  0  0  0  0  0  0  0  0999 V2000
   -2.5400    5.9813  -18.6438 C   0  0  0  0  0  0  0  0  0  0  0  0
   -3.0009    5.9152  -17.2664 N   0  0  0  0  0  0  0  0  0  0  0  0
   -4.2186    5.5432  -17.0949 C   0  0  0  0  0  0  0  0  0  0  0  0
   -4.8296    5.4960  -15.6701 C   0  0  0  0  0  0  0  0  0  0  0  0
   -6.2573    5.1322  -15.9762 C   0  0  0  0  0  0  0  0  0  0  0  0
   -6.3931    4.9824  -17.3665 C   0  0  0  0  0  0  0  0  0  0  0  0
   -7.5844    4.6059  -17.9383 C   0  0  0  0  0  0  0  0  0  0  0  0
   -8.6697    4.4057  -17.0937 C   0  0  0  0  0  0  0  0  0  0  0  0
  -10.1799    4.0163  -17.7919 Cl  0  0  0  0  0  0  0  0  0  0  0  0
   -8.5644    4.5724  -15.7057 C   0  0  0  0  0  0  0  0  0  0  0  0
   -7.3431    4.9513  -15.1366 C   0  0  0  0  0  0  0  0  0  0  0  0
   -7.2853    5.3136  -13.6990 C   0  0  0  0  0  0  0  0  0  0  0  0
   -6.8768    6.3682  -13.4127 O   0  0  0  0  0  0  0  0  0  0  0  0
   -7.8985    4.2046  -12.8171 N   0  0  0  0  0  0  0  0  0  0  0  0
   -8.0454    4.1259  -11.4331 C   0  0  0  0  0  0  0  0  0  0  0  0
   -7.8556    5.2331  -10.5943 C   0  0  0  0  0  0  0  0  0  0  0  0
   -8.0545    5.2281   -9.2482 N   0  0  0  0  0  0  0  0  0  0  0  0
   -8.4466    4.0425   -8.7496 C   0  0  0  0  0  0  0  0  0  0  0  0
   -8.6480    2.8942   -9.4946 C   0  0  0  0  0  0  0  0  0  0  0  0
   -8.4462    2.9199  -10.8608 C   0  0  0  0  0  0  0  0  0  0  0  0
   -9.0639    1.7855   -8.5918 C   0  0  0  0  0  0  0  0  0  0  0  0
   -9.4966    2.4423   -7.3284 N   0  0  0  0  0  0  0  0  0  0  0  0
   -8.7769    3.7435   -7.3119 C   0  0  0  0  0  0  0  0  0  0  0  0
   -5.1763    5.1718  -18.0126 N   0  0  0  0  0  0  0  0  0  0  0  0
  1  2  1  0
  2  3  2  3
  3  4  1  0
  4  5  1  0
  5  6  2  0
  6  7  1  0
  7  8  2  0
  8  9  1  0
  8 10  1  0
 10 11  2  0
 11 12  1  0
 12 13  2  0
 12 14  1  0
 14 15  1  0
 15 16  2  0
 16 17  1  0
 17 18  2  0
 18 19  1  0
 19 20  2  0
 19 21  1  0
 21 22  1  0
 22 23  1  0
  6 24  1  0
 24  3  1  0
 11  5  1  0
 20 15  1  0
 23 18  1  0
M  END
>  <smiles>  (1923) 
C27362-P222

>  <fragmenstein_outcome>  (1923) 
acceptable

>  <inchikey>  (1923) 
INENIVAZMOMTSX-UHFFFAOYSA-N

>  <fragmenstein_mode>  (1923) 
expansion

>  <HIPPO Pose ID>  (1923) 
23916

>  <Energy>  (1923) 
69.56335

>  <fragmenstein_error>  (1923) 


>  <tags>  (1923) 
{'openbind_xx01zvns2b_c1_fragmenstein', 'fragmenstein_placed'}

>  <ref_pdb>  (1923) 
175

>  <scratch_subdir>  (1923) 
/opt/xchem-fragalysis-2/maxwin/BulkDock/SCRATCH/511028/C27362-P222

>  <alias>  (1923) 
CN=C1Cc2c(cc(Cl)cc2C(=O)Nc2cnc3c(c2)CNC3)N1

>  <HIPPO Compound ID>  (1923) 
27362

>  <fragmenstein_runtime>  (1923) 
3.486

$$$$
O=C(Nc1cnc2c(c1)CNC2)c1cc(Cl)cc2c1C[C@@]1(CCNC1)N2
     RDKit          3D

 26 30  0  0  0  0  0  0  0  0999 V2000
   -6.9815    6.4486  -13.4037 O   0  0  0  0  0  0  0  0  0  0  0  0
   -7.3255    5.3723  -13.6954 C   0  0  0  0  0  0  0  0  0  0  0  0
   -7.8892    4.2308  -12.8224 N   0  0  0  0  0  0  0  0  0  0  0  0
   -8.0536    4.1442  -11.4404 C   0  0  0  0  0  0  0  0  0  0  0  0
   -7.8930    5.2523  -10.5961 C   0  0  0  0  0  0  0  0  0  0  0  0
   -8.0932    5.2374   -9.2504 N   0  0  0  0  0  0  0  0  0  0  0  0
   -8.4649    4.0428   -8.7583 C   0  0  0  0  0  0  0  0  0  0  0  0
   -8.6442    2.8945   -9.5092 C   0  0  0  0  0  0  0  0  0  0  0  0
   -8.4323    2.9281  -10.8742 C   0  0  0  0  0  0  0  0  0  0  0  0
   -9.0532    1.7775   -8.6132 C   0  0  0  0  0  0  0  0  0  0  0  0
   -9.4979    2.4233   -7.3482 N   0  0  0  0  0  0  0  0  0  0  0  0
   -8.7932    3.7320   -7.3228 C   0  0  0  0  0  0  0  0  0  0  0  0
   -7.3400    5.0067  -15.1329 C   0  0  0  0  0  0  0  0  0  0  0  0
   -8.5335    4.5909  -15.7318 C   0  0  0  0  0  0  0  0  0  0  0  0
   -8.5866    4.4063  -17.1194 C   0  0  0  0  0  0  0  0  0  0  0  0
  -10.0623    3.9540  -17.8581 Cl  0  0  0  0  0  0  0  0  0  0  0  0
   -7.4745    4.6258  -17.9251 C   0  0  0  0  0  0  0  0  0  0  0  0
   -6.3078    5.0382  -17.3199 C   0  0  0  0  0  0  0  0  0  0  0  0
   -6.2298    5.2102  -15.9377 C   0  0  0  0  0  0  0  0  0  0  0  0
   -4.8278    5.5748  -15.5730 C   0  0  0  0  0  0  0  0  0  0  0  0
   -4.2491    5.9281  -16.9624 C   0  0  2  0  0  0  0  0  0  0  0  0
   -2.7917    5.5505  -17.1622 C   0  0  0  0  0  0  0  0  0  0  0  0
   -2.2993    6.5064  -18.2475 C   0  0  0  0  0  0  0  0  0  0  0  0
   -3.2843    7.5912  -18.3653 N   0  0  0  0  0  0  0  0  0  0  0  0
   -4.2045    7.4437  -17.2291 C   0  0  0  0  0  0  0  0  0  0  0  0
   -5.0755    5.2256  -17.9726 N   0  0  0  0  0  0  0  0  0  0  0  0
  1  2  2  0
  2  3  1  0
  3  4  1  0
  4  5  2  0
  5  6  1  0
  6  7  2  0
  7  8  1  0
  8  9  2  0
  8 10  1  0
 10 11  1  0
 11 12  1  0
  2 13  1  0
 13 14  2  0
 14 15  1  0
 15 16  1  0
 15 17  2  0
 17 18  1  0
 18 19  2  0
 19 20  1  0
 21 20  1  1
 21 22  1  0
 22 23  1  0
 23 24  1  0
 24 25  1  0
 21 26  1  0
  9  4  1  0
 19 13  1  0
 25 21  1  0
 12  7  1  0
 26 18  1  0
M  END
>  <smiles>  (1924) 
C27368-P222

>  <fragmenstein_outcome>  (1924) 
acceptable

>  <inchikey>  (1924) 
WXNSAJNJUJFUTR-UHFFFAOYSA-N

>  <fragmenstein_mode>  (1924) 
expansion

>  <HIPPO Pose ID>  (1924) 
23918

>  <Energy>  (1924) 
102.804069

>  <fragmenstein_error>  (1924) 


>  <tags>  (1924) 
{'openbind_xx01zvns2b_c1_fragmenstein', 'fragmenstein_placed'}

>  <ref_pdb>  (1924) 
175

>  <scratch_subdir>  (1924) 
/opt/xchem-fragalysis-2/maxwin/BulkDock/SCRATCH/511028/C27368-P222

>  <alias>  (1924) 
O=C(Nc1cnc2c(c1)CNC2)c1cc(Cl)cc2c1C[C@@]1(CCNC1)N2

>  <HIPPO Compound ID>  (1924) 
33361

>  <fragmenstein_runtime>  (1924) 
3.572375

$$$$
O=C(Nc1cnc2c(c1)CNC2)c1cc(Cl)cc2c1CC(=O)[C@]21CCCNC1
     RDKit          3D

 28 32  0  0  0  0  0  0  0  0999 V2000
   -7.1757    6.5460  -13.3233 O   0  0  0  0  0  0  0  0  0  0  0  0
   -7.3656    5.4319  -13.6124 C   0  0  0  0  0  0  0  0  0  0  0  0
   -7.8262    4.2405  -12.7503 N   0  0  0  0  0  0  0  0  0  0  0  0
   -8.0515    4.1497  -11.3785 C   0  0  0  0  0  0  0  0  0  0  0  0
   -7.9106    5.2564  -10.5286 C   0  0  0  0  0  0  0  0  0  0  0  0
   -8.1045    5.2309   -9.1836 N   0  0  0  0  0  0  0  0  0  0  0  0
   -8.4569    4.0287   -8.6963 C   0  0  0  0  0  0  0  0  0  0  0  0
   -8.6266    2.8860   -9.4525 C   0  0  0  0  0  0  0  0  0  0  0  0
   -8.4232    2.9298  -10.8201 C   0  0  0  0  0  0  0  0  0  0  0  0
   -8.9946    1.7465   -8.5723 C   0  0  0  0  0  0  0  0  0  0  0  0
   -9.1562    2.2936   -7.1966 N   0  0  0  0  0  0  0  0  0  0  0  0
   -8.7194    3.7115   -7.2532 C   0  0  0  0  0  0  0  0  0  0  0  0
   -7.2290    5.0721  -15.0432 C   0  0  0  0  0  0  0  0  0  0  0  0
   -8.3180    4.5764  -15.7535 C   0  0  0  0  0  0  0  0  0  0  0  0
   -8.2259    4.4655  -17.1449 C   0  0  0  0  0  0  0  0  0  0  0  0
   -9.5590    3.8485  -18.0161 Cl  0  0  0  0  0  0  0  0  0  0  0  0
   -7.0907    4.8780  -17.8527 C   0  0  0  0  0  0  0  0  0  0  0  0
   -6.0043    5.3612  -17.1446 C   0  0  0  0  0  0  0  0  0  0  0  0
   -6.0687    5.4115  -15.7368 C   0  0  0  0  0  0  0  0  0  0  0  0
   -4.7697    5.8554  -15.1341 C   0  0  0  0  0  0  0  0  0  0  0  0
   -3.8758    5.9704  -16.3531 C   0  0  0  0  0  0  0  0  0  0  0  0
   -2.6593    6.1046  -16.3017 O   0  0  0  0  0  0  0  0  0  0  0  0
   -4.6923    5.9376  -17.6537 C   0  0  2  0  0  0  0  0  0  0  0  0
   -4.8537    7.3969  -18.1274 C   0  0  0  0  0  0  0  0  0  0  0  0
   -5.2681    7.4831  -19.5929 C   0  0  0  0  0  0  0  0  0  0  0  0
   -4.3440    6.6551  -20.4814 C   0  0  0  0  0  0  0  0  0  0  0  0
   -4.3228    5.2432  -20.0766 N   0  0  0  0  0  0  0  0  0  0  0  0
   -3.8851    5.1243  -18.6767 C   0  0  0  0  0  0  0  0  0  0  0  0
  1  2  2  0
  2  3  1  0
  3  4  1  0
  4  5  2  0
  5  6  1  0
  6  7  2  0
  7  8  1  0
  8  9  2  0
  8 10  1  0
 10 11  1  0
 11 12  1  0
  2 13  1  0
 13 14  2  0
 14 15  1  0
 15 16  1  0
 15 17  2  0
 17 18  1  0
 18 19  2  0
 19 20  1  0
 20 21  1  0
 21 22  2  0
 21 23  1  0
 23 24  1  6
 24 25  1  0
 25 26  1  0
 26 27  1  0
 27 28  1  0
  9  4  1  0
 19 13  1  0
 28 23  1  0
 12  7  1  0
 23 18  1  0
M  END
>  <smiles>  (1925) 
C27369-P222

>  <fragmenstein_outcome>  (1925) 
acceptable

>  <inchikey>  (1925) 
HPCPLIBPHNDZNB-UHFFFAOYSA-N

>  <fragmenstein_mode>  (1925) 
expansion

>  <HIPPO Pose ID>  (1925) 
23919

>  <Energy>  (1925) 
118.034029

>  <fragmenstein_error>  (1925) 


>  <tags>  (1925) 
{'openbind_xx01zvns2b_c1_fragmenstein', 'fragmenstein_placed'}

>  <ref_pdb>  (1925) 
175

>  <scratch_subdir>  (1925) 
/opt/xchem-fragalysis-2/maxwin/BulkDock/SCRATCH/511028/C27369-P222

>  <alias>  (1925) 
O=C(Nc1cnc2c(c1)CNC2)c1cc(Cl)cc2c1CC(=O)[C@]21CCCNC1

>  <HIPPO Compound ID>  (1925) 
32992

>  <fragmenstein_runtime>  (1925) 
4.249879

$$$$
O=C(Nc1cnc2c(c1)CNC2)[C@@H]1C[C@H](F)C[C@@H]2C3=C(CNC3)C[C@H]21
     RDKit          3D

 25 29  0  0  0  0  0  0  0  0999 V2000
   -6.7330    6.7414  -13.2551 O   0  0  0  0  0  0  0  0  0  0  0  0
   -7.1959    5.7345  -13.6326 C   0  0  0  0  0  0  0  0  0  0  0  0
   -7.6842    4.4911  -12.8393 N   0  0  0  0  0  0  0  0  0  0  0  0
   -7.7880    4.2770  -11.4634 C   0  0  0  0  0  0  0  0  0  0  0  0
   -7.5784    5.3267  -10.5551 C   0  0  0  0  0  0  0  0  0  0  0  0
   -7.8018    5.2571   -9.2171 N   0  0  0  0  0  0  0  0  0  0  0  0
   -8.2485    4.0648   -8.7903 C   0  0  0  0  0  0  0  0  0  0  0  0
   -8.4643    2.9650   -9.5973 C   0  0  0  0  0  0  0  0  0  0  0  0
   -8.2385    3.0562  -10.9633 C   0  0  0  0  0  0  0  0  0  0  0  0
   -8.9344    1.8227   -8.7682 C   0  0  0  0  0  0  0  0  0  0  0  0
   -9.0684    2.3169   -7.3686 N   0  0  0  0  0  0  0  0  0  0  0  0
   -8.6108    3.7285   -7.3742 C   0  0  0  0  0  0  0  0  0  0  0  0
   -7.4936    5.5748  -15.1334 C   0  0  2  0  0  0  0  0  0  0  0  0
   -8.9334    5.1075  -15.4574 C   0  0  0  0  0  0  0  0  0  0  0  0
   -9.1800    4.4283  -16.8184 C   0  0  2  0  0  0  0  0  0  0  0  0
   -9.2720    3.0902  -16.5691 F   0  0  0  0  0  0  0  0  0  0  0  0
   -8.1541    4.5993  -17.9378 C   0  0  0  0  0  0  0  0  0  0  0  0
   -6.9169    5.3455  -17.4973 C   0  0  2  0  0  0  0  0  0  0  0  0
   -5.6577    5.1970  -18.2358 C   0  0  0  0  0  0  0  0  0  0  0  0
   -4.6080    5.2269  -17.4262 C   0  0  0  0  0  0  0  0  0  0  0  0
   -3.3594    5.2705  -18.2017 C   0  0  0  0  0  0  0  0  0  0  0  0
   -3.7971    5.2685  -19.6419 N   0  0  0  0  0  0  0  0  0  0  0  0
   -5.2930    5.2656  -19.6536 C   0  0  0  0  0  0  0  0  0  0  0  0
   -4.9828    5.3450  -15.9866 C   0  0  0  0  0  0  0  0  0  0  0  0
   -6.4774    4.9423  -16.0624 C   0  0  1  0  0  0  0  0  0  0  0  0
  1  2  2  0
  2  3  1  0
  3  4  1  0
  4  5  2  0
  5  6  1  0
  6  7  2  0
  7  8  1  0
  8  9  2  0
  8 10  1  0
 10 11  1  0
 11 12  1  0
 13  2  1  1
 13 14  1  0
 14 15  1  0
 15 16  1  1
 15 17  1  0
 18 17  1  6
 18 19  1  0
 19 20  2  0
 20 21  1  0
 21 22  1  0
 22 23  1  0
 20 24  1  0
 25 24  1  1
  9  4  1  0
 25 13  1  0
 12  7  1  0
 25 18  1  0
 23 19  1  0
M  END
>  <smiles>  (1926) 
C27371-P222

>  <fragmenstein_outcome>  (1926) 
acceptable

>  <inchikey>  (1926) 
GUNZXYOHEURSEN-UHFFFAOYSA-N

>  <fragmenstein_mode>  (1926) 
expansion

>  <HIPPO Pose ID>  (1926) 
23920

>  <Energy>  (1926) 
78.948218

>  <fragmenstein_error>  (1926) 


>  <tags>  (1926) 
{'openbind_xx01zvns2b_c1_fragmenstein', 'fragmenstein_placed'}

>  <ref_pdb>  (1926) 
175

>  <scratch_subdir>  (1926) 
/opt/xchem-fragalysis-2/maxwin/BulkDock/SCRATCH/511028/C27371-P222

>  <alias>  (1926) 
O=C(Nc1cnc2c(c1)CNC2)[C@@H]1C[C@H](F)C[C@@H]2C3=C(CNC3)C[C@H]21

>  <HIPPO Compound ID>  (1926) 
30465

>  <fragmenstein_runtime>  (1926) 
3.115962

$$$$
C[C@@H]1CCNC[C@]12C(=O)Cc1c(C(=O)Nc3cnc4c(c3)CNC4)cc(Cl)cc12
     RDKit          3D

 29 33  0  0  0  0  0  0  0  0999 V2000
   -5.2754    4.7294  -19.8972 C   0  0  0  0  0  0  0  0  0  0  0  0
   -5.1394    6.1358  -19.3845 C   0  0  2  0  0  0  0  0  0  0  0  0
   -3.8653    6.7953  -19.9559 C   0  0  0  0  0  0  0  0  0  0  0  0
   -3.3910    8.0128  -19.1592 C   0  0  0  0  0  0  0  0  0  0  0  0
   -4.5129    8.7259  -18.5612 N   0  0  0  0  0  0  0  0  0  0  0  0
   -5.2813    7.8592  -17.6425 C   0  0  0  0  0  0  0  0  0  0  0  0
   -5.2325    6.3086  -17.8689 C   0  0  2  0  0  0  0  0  0  0  0  0
   -4.1167    5.7526  -16.9543 C   0  0  0  0  0  0  0  0  0  0  0  0
   -2.9638    5.5124  -17.2862 O   0  0  0  0  0  0  0  0  0  0  0  0
   -4.6761    5.5440  -15.5380 C   0  0  0  0  0  0  0  0  0  0  0  0
   -6.1418    5.3679  -15.8320 C   0  0  0  0  0  0  0  0  0  0  0  0
   -7.1447    4.9309  -14.9698 C   0  0  0  0  0  0  0  0  0  0  0  0
   -7.0138    5.1758  -13.5066 C   0  0  0  0  0  0  0  0  0  0  0  0
   -6.5223    6.1838  -13.1841 O   0  0  0  0  0  0  0  0  0  0  0  0
   -7.6602    4.0634  -12.6586 N   0  0  0  0  0  0  0  0  0  0  0  0
   -7.9148    4.0007  -11.2914 C   0  0  0  0  0  0  0  0  0  0  0  0
   -7.7467    5.1121  -10.4512 C   0  0  0  0  0  0  0  0  0  0  0  0
   -8.0266    5.1283   -9.1205 N   0  0  0  0  0  0  0  0  0  0  0  0
   -8.4706    3.9562   -8.6358 C   0  0  0  0  0  0  0  0  0  0  0  0
   -8.6606    2.8077   -9.3845 C   0  0  0  0  0  0  0  0  0  0  0  0
   -8.3887    2.8157  -10.7384 C   0  0  0  0  0  0  0  0  0  0  0  0
   -9.1235    1.7103   -8.4924 C   0  0  0  0  0  0  0  0  0  0  0  0
   -9.5993    2.3782   -7.2514 N   0  0  0  0  0  0  0  0  0  0  0  0
   -8.8603    3.6678   -7.2106 C   0  0  0  0  0  0  0  0  0  0  0  0
   -8.3636    4.5167  -15.5208 C   0  0  0  0  0  0  0  0  0  0  0  0
   -8.5527    4.5891  -16.9041 C   0  0  0  0  0  0  0  0  0  0  0  0
   -9.9945    4.0113  -17.6235 Cl  0  0  0  0  0  0  0  0  0  0  0  0
   -7.6114    5.2003  -17.7297 C   0  0  0  0  0  0  0  0  0  0  0  0
   -6.4147    5.6285  -17.1851 C   0  0  0  0  0  0  0  0  0  0  0  0
  2  1  1  1
  2  3  1  0
  3  4  1  0
  4  5  1  0
  5  6  1  0
  7  6  1  6
  7  8  1  0
  8  9  2  0
  8 10  1  0
 10 11  1  0
 11 12  2  0
 12 13  1  0
 13 14  2  0
 13 15  1  0
 15 16  1  0
 16 17  2  0
 17 18  1  0
 18 19  2  0
 19 20  1  0
 20 21  2  0
 20 22  1  0
 22 23  1  0
 23 24  1  0
 12 25  1  0
 25 26  2  0
 26 27  1  0
 26 28  1  0
 28 29  2  0
  7  2  1  0
 29 11  1  0
 29  7  1  0
 21 16  1  0
 24 19  1  0
M  END
>  <smiles>  (1927) 
C27374-P222

>  <fragmenstein_outcome>  (1927) 
acceptable

>  <inchikey>  (1927) 
DSZNYJHHXBVHFU-UHFFFAOYSA-N

>  <fragmenstein_mode>  (1927) 
expansion

>  <HIPPO Pose ID>  (1927) 
23922

>  <Energy>  (1927) 
144.997086

>  <fragmenstein_error>  (1927) 


>  <tags>  (1927) 
{'openbind_xx01zvns2b_c1_fragmenstein', 'fragmenstein_placed'}

>  <ref_pdb>  (1927) 
175

>  <scratch_subdir>  (1927) 
/opt/xchem-fragalysis-2/maxwin/BulkDock/SCRATCH/511028/C27374-P222

>  <alias>  (1927) 
C[C@@H]1CCNC[C@]12C(=O)Cc1c(C(=O)Nc3cnc4c(c3)CNC4)cc(Cl)cc12

>  <HIPPO Compound ID>  (1927) 
34246

>  <fragmenstein_runtime>  (1927) 
4.644561

$$$$
C[C@H]1CCNC[C@]12C(=O)Cc1c(C(=O)Nc3cnc4c(c3)CNC4)cc(Cl)cc12
     RDKit          3D

 29 33  0  0  0  0  0  0  0  0999 V2000
   -5.7941    4.5445  -19.6768 C   0  0  0  0  0  0  0  0  0  0  0  0
   -4.6877    5.2409  -18.8999 C   0  0  1  0  0  0  0  0  0  0  0  0
   -3.9221    6.1870  -19.8357 C   0  0  0  0  0  0  0  0  0  0  0  0
   -4.7526    7.4166  -20.2329 C   0  0  0  0  0  0  0  0  0  0  0  0
   -5.5333    8.0146  -19.1402 N   0  0  0  0  0  0  0  0  0  0  0  0
   -5.0675    7.5529  -17.8293 C   0  0  0  0  0  0  0  0  0  0  0  0
   -5.1430    6.0105  -17.6387 C   0  0  2  0  0  0  0  0  0  0  0  0
   -4.1414    5.7395  -16.4912 C   0  0  0  0  0  0  0  0  0  0  0  0
   -2.9239    5.6715  -16.6291 O   0  0  0  0  0  0  0  0  0  0  0  0
   -4.8627    5.6292  -15.1544 C   0  0  0  0  0  0  0  0  0  0  0  0
   -6.2784    5.3999  -15.5896 C   0  0  0  0  0  0  0  0  0  0  0  0
   -7.3714    5.0696  -14.7924 C   0  0  0  0  0  0  0  0  0  0  0  0
   -7.3422    5.4255  -13.3529 C   0  0  0  0  0  0  0  0  0  0  0  0
   -6.9358    6.4841  -13.0813 O   0  0  0  0  0  0  0  0  0  0  0  0
   -7.9634    4.3378  -12.4623 N   0  0  0  0  0  0  0  0  0  0  0  0
   -8.1249    4.2836  -11.0847 C   0  0  0  0  0  0  0  0  0  0  0  0
   -7.8492    5.3750  -10.2519 C   0  0  0  0  0  0  0  0  0  0  0  0
   -7.9862    5.3670   -8.8997 N   0  0  0  0  0  0  0  0  0  0  0  0
   -8.3850    4.1890   -8.3909 C   0  0  0  0  0  0  0  0  0  0  0  0
   -8.6735    3.0592   -9.1336 C   0  0  0  0  0  0  0  0  0  0  0  0
   -8.5704    3.1039  -10.5083 C   0  0  0  0  0  0  0  0  0  0  0  0
   -9.0071    1.9378   -8.2143 C   0  0  0  0  0  0  0  0  0  0  0  0
   -9.3302    2.5781   -6.9112 N   0  0  0  0  0  0  0  0  0  0  0  0
   -8.6041    3.8748   -6.9363 C   0  0  0  0  0  0  0  0  0  0  0  0
   -8.5561    4.6438  -15.4029 C   0  0  0  0  0  0  0  0  0  0  0  0
   -8.6576    4.6886  -16.7912 C   0  0  0  0  0  0  0  0  0  0  0  0
  -10.0422    4.1295  -17.6282 Cl  0  0  0  0  0  0  0  0  0  0  0  0
   -7.6422    5.2475  -17.5556 C   0  0  0  0  0  0  0  0  0  0  0  0
   -6.4236    5.5450  -16.9729 C   0  0  0  0  0  0  0  0  0  0  0  0
  2  1  1  6
  2  3  1  0
  3  4  1  0
  4  5  1  0
  5  6  1  0
  7  6  1  6
  7  8  1  0
  8  9  2  0
  8 10  1  0
 10 11  1  0
 11 12  2  0
 12 13  1  0
 13 14  2  0
 13 15  1  0
 15 16  1  0
 16 17  2  0
 17 18  1  0
 18 19  2  0
 19 20  1  0
 20 21  2  0
 20 22  1  0
 22 23  1  0
 23 24  1  0
 12 25  1  0
 25 26  2  0
 26 27  1  0
 26 28  1  0
 28 29  2  0
  7  2  1  0
 29 11  1  0
 29  7  1  0
 21 16  1  0
 24 19  1  0
M  END
>  <smiles>  (1928) 
C27374-P89

>  <fragmenstein_outcome>  (1928) 
acceptable

>  <inchikey>  (1928) 
KVMPYBHFZGZGLK-UHFFFAOYSA-N

>  <fragmenstein_mode>  (1928) 
expansion

>  <HIPPO Pose ID>  (1928) 
23923

>  <Energy>  (1928) 
139.533429

>  <fragmenstein_error>  (1928) 


>  <tags>  (1928) 
{'openbind_xx01zvns2b_c1_fragmenstein', 'fragmenstein_placed'}

>  <ref_pdb>  (1928) 
175

>  <scratch_subdir>  (1928) 
/opt/xchem-fragalysis-2/maxwin/BulkDock/SCRATCH/511028/C27374-P89

>  <alias>  (1928) 
C[C@H]1CCNC[C@]12C(=O)Cc1c(C(=O)Nc3cnc4c(c3)CNC4)cc(Cl)cc12

>  <HIPPO Compound ID>  (1928) 
27374

>  <fragmenstein_runtime>  (1928) 
5.369077

$$$$
O=C(Nc1cnc2c(c1)CNC2)c1cc(Cl)cc2c1CC(=O)N2NC1CNC1
     RDKit          3D

 28 32  0  0  0  0  0  0  0  0999 V2000
   -7.1385    6.2511  -12.8768 O   0  0  0  0  0  0  0  0  0  0  0  0
   -7.5180    5.1910  -13.1719 C   0  0  0  0  0  0  0  0  0  0  0  0
   -8.0304    4.0410  -12.3000 N   0  0  0  0  0  0  0  0  0  0  0  0
   -8.2671    3.9815  -10.9362 C   0  0  0  0  0  0  0  0  0  0  0  0
   -8.0859    5.0992  -10.1075 C   0  0  0  0  0  0  0  0  0  0  0  0
   -8.2639    5.0975   -8.7627 N   0  0  0  0  0  0  0  0  0  0  0  0
   -8.6347    3.9080   -8.2604 C   0  0  0  0  0  0  0  0  0  0  0  0
   -8.8450    2.7613   -9.0022 C   0  0  0  0  0  0  0  0  0  0  0  0
   -8.6640    2.7805  -10.3686 C   0  0  0  0  0  0  0  0  0  0  0  0
   -9.1865    1.6336   -8.1012 C   0  0  0  0  0  0  0  0  0  0  0  0
   -9.4026    2.2173   -6.7512 N   0  0  0  0  0  0  0  0  0  0  0  0
   -8.8717    3.6023   -6.8099 C   0  0  0  0  0  0  0  0  0  0  0  0
   -7.4865    4.8319  -14.5997 C   0  0  0  0  0  0  0  0  0  0  0  0
   -8.6527    4.4910  -15.2924 C   0  0  0  0  0  0  0  0  0  0  0  0
   -8.6440    4.4904  -16.6919 C   0  0  0  0  0  0  0  0  0  0  0  0
  -10.0354    4.0554  -17.5912 Cl  0  0  0  0  0  0  0  0  0  0  0  0
   -7.5208    4.8961  -17.4008 C   0  0  0  0  0  0  0  0  0  0  0  0
   -6.3725    5.1663  -16.6864 C   0  0  0  0  0  0  0  0  0  0  0  0
   -6.3245    5.0698  -15.3070 C   0  0  0  0  0  0  0  0  0  0  0  0
   -4.9309    5.3368  -14.8205 C   0  0  0  0  0  0  0  0  0  0  0  0
   -4.1785    5.6388  -16.1114 C   0  0  0  0  0  0  0  0  0  0  0  0
   -2.9863    5.8924  -16.2177 O   0  0  0  0  0  0  0  0  0  0  0  0
   -5.1264    5.5816  -17.1490 N   0  0  0  0  0  0  0  0  0  0  0  0
   -4.9974    6.4727  -18.1985 N   0  0  0  0  0  0  0  0  0  0  0  0
   -4.2144    5.8644  -19.2654 C   0  0  0  0  0  0  0  0  0  0  0  0
   -5.2310    5.3085  -20.2527 C   0  0  0  0  0  0  0  0  0  0  0  0
   -5.1850    6.5875  -20.9930 N   0  0  0  0  0  0  0  0  0  0  0  0
   -3.8942    6.9023  -20.3579 C   0  0  0  0  0  0  0  0  0  0  0  0
  1  2  2  0
  2  3  1  0
  3  4  1  0
  4  5  2  0
  5  6  1  0
  6  7  2  0
  7  8  1  0
  8  9  2  0
  8 10  1  0
 10 11  1  0
 11 12  1  0
  2 13  1  0
 13 14  2  0
 14 15  1  0
 15 16  1  0
 15 17  2  0
 17 18  1  0
 18 19  2  0
 19 20  1  0
 20 21  1  0
 21 22  2  0
 21 23  1  0
 23 24  1  0
 24 25  1  0
 25 26  1  0
 26 27  1  0
 27 28  1  0
  9  4  1  0
 19 13  1  0
 28 25  1  0
 12  7  1  0
 23 18  1  0
M  END
>  <smiles>  (1929) 
C27376-P222

>  <fragmenstein_outcome>  (1929) 
acceptable

>  <inchikey>  (1929) 
FRYPYPDVGDLANX-UHFFFAOYSA-N

>  <fragmenstein_mode>  (1929) 
expansion

>  <HIPPO Pose ID>  (1929) 
23924

>  <Energy>  (1929) 
156.782872

>  <fragmenstein_error>  (1929) 


>  <tags>  (1929) 
{'openbind_xx01zvns2b_c1_fragmenstein', 'fragmenstein_placed'}

>  <ref_pdb>  (1929) 
175

>  <scratch_subdir>  (1929) 
/opt/xchem-fragalysis-2/maxwin/BulkDock/SCRATCH/511028/C27376-P222

>  <alias>  (1929) 
O=C(Nc1cnc2c(c1)CNC2)c1cc(Cl)cc2c1CC(=O)N2NC1CNC1

>  <HIPPO Compound ID>  (1929) 
27376

>  <fragmenstein_runtime>  (1929) 
4.393704

$$$$
O=C(Nc1cnc2c(c1)CNC2)c1cc(Cl)cc2c1CC(=O)[C@]21CCNC1
     RDKit          3D

 27 31  0  0  0  0  0  0  0  0999 V2000
   -6.8381    6.3064  -13.3107 O   0  0  0  0  0  0  0  0  0  0  0  0
   -7.2702    5.2612  -13.5966 C   0  0  0  0  0  0  0  0  0  0  0  0
   -7.9181    4.1733  -12.7177 N   0  0  0  0  0  0  0  0  0  0  0  0
   -8.0797    4.1040  -11.3364 C   0  0  0  0  0  0  0  0  0  0  0  0
   -7.8550    5.2116  -10.5069 C   0  0  0  0  0  0  0  0  0  0  0  0
   -8.0203    5.2142   -9.1581 N   0  0  0  0  0  0  0  0  0  0  0  0
   -8.4201    4.0371   -8.6455 C   0  0  0  0  0  0  0  0  0  0  0  0
   -8.6605    2.8934   -9.3803 C   0  0  0  0  0  0  0  0  0  0  0  0
   -8.4976    2.9117  -10.7529 C   0  0  0  0  0  0  0  0  0  0  0  0
   -9.0493    1.7810   -8.4757 C   0  0  0  0  0  0  0  0  0  0  0  0
   -9.1649    2.3547   -7.1066 N   0  0  0  0  0  0  0  0  0  0  0  0
   -8.6756    3.7544   -7.1939 C   0  0  0  0  0  0  0  0  0  0  0  0
   -7.3146    4.9145  -15.0400 C   0  0  0  0  0  0  0  0  0  0  0  0
   -8.5196    4.5213  -15.6315 C   0  0  0  0  0  0  0  0  0  0  0  0
   -8.6125    4.4402  -17.0249 C   0  0  0  0  0  0  0  0  0  0  0  0
  -10.0893    4.0004  -17.7655 Cl  0  0  0  0  0  0  0  0  0  0  0  0
   -7.5439    4.7862  -17.8468 C   0  0  0  0  0  0  0  0  0  0  0  0
   -6.3518    5.1683  -17.2586 C   0  0  0  0  0  0  0  0  0  0  0  0
   -6.2208    5.1808  -15.8589 C   0  0  0  0  0  0  0  0  0  0  0  0
   -4.8102    5.4957  -15.4427 C   0  0  0  0  0  0  0  0  0  0  0  0
   -4.0844    5.5506  -16.7852 C   0  0  0  0  0  0  0  0  0  0  0  0
   -2.8662    5.5485  -16.9146 O   0  0  0  0  0  0  0  0  0  0  0  0
   -5.0937    5.6603  -17.9321 C   0  0  2  0  0  0  0  0  0  0  0  0
   -5.2180    7.1203  -18.3553 C   0  0  0  0  0  0  0  0  0  0  0  0
   -5.4560    7.0434  -19.8426 C   0  0  0  0  0  0  0  0  0  0  0  0
   -4.5923    5.9537  -20.2800 N   0  0  0  0  0  0  0  0  0  0  0  0
   -4.6777    4.9457  -19.2112 C   0  0  0  0  0  0  0  0  0  0  0  0
  1  2  2  0
  2  3  1  0
  3  4  1  0
  4  5  2  0
  5  6  1  0
  6  7  2  0
  7  8  1  0
  8  9  2  0
  8 10  1  0
 10 11  1  0
 11 12  1  0
  2 13  1  0
 13 14  2  0
 14 15  1  0
 15 16  1  0
 15 17  2  0
 17 18  1  0
 18 19  2  0
 19 20  1  0
 20 21  1  0
 21 22  2  0
 21 23  1  0
 23 24  1  6
 24 25  1  0
 25 26  1  0
 26 27  1  0
  9  4  1  0
 19 13  1  0
 27 23  1  0
 12  7  1  0
 23 18  1  0
M  END
>  <smiles>  (1930) 
C27377-P222

>  <fragmenstein_outcome>  (1930) 
acceptable

>  <inchikey>  (1930) 
NGHBHUTYBQCRHS-UHFFFAOYSA-N

>  <fragmenstein_mode>  (1930) 
expansion

>  <HIPPO Pose ID>  (1930) 
23925

>  <Energy>  (1930) 
116.046677

>  <fragmenstein_error>  (1930) 


>  <tags>  (1930) 
{'openbind_xx01zvns2b_c1_fragmenstein', 'fragmenstein_placed'}

>  <ref_pdb>  (1930) 
175

>  <scratch_subdir>  (1930) 
/opt/xchem-fragalysis-2/maxwin/BulkDock/SCRATCH/511028/C27377-P222

>  <alias>  (1930) 
O=C(Nc1cnc2c(c1)CNC2)c1cc(Cl)cc2c1CC(=O)[C@]21CCNC1

>  <HIPPO Compound ID>  (1930) 
36744

>  <fragmenstein_runtime>  (1930) 
6.456166

$$$$
O=C1N=c2c(F)cc(C(=O)Nc3cnc4c(c3)CNC4)c3c2=C1N=N3
     RDKit          3D

 25 29  0  0  0  0  0  0  0  0999 V2000
   -9.3160    2.7987  -18.5916 O   0  0  0  0  0  0  0  0  0  0  0  0
   -8.6977    3.7331  -18.1174 C   0  0  0  0  0  0  0  0  0  0  0  0
   -7.4091    4.1680  -18.4801 N   0  0  0  0  0  0  0  0  0  0  0  0
   -6.9743    4.8036  -17.4522 C   0  0  0  0  0  0  0  0  0  0  0  0
   -5.7084    5.3372  -16.9036 C   0  0  0  0  0  0  0  0  0  0  0  0
   -4.6796    5.4652  -17.7542 F   0  0  0  0  0  0  0  0  0  0  0  0
   -5.6191    5.6228  -15.5765 C   0  0  0  0  0  0  0  0  0  0  0  0
   -6.7375    5.3701  -14.6217 C   0  0  0  0  0  0  0  0  0  0  0  0
   -6.6277    5.5778  -13.1473 C   0  0  0  0  0  0  0  0  0  0  0  0
   -6.1316    6.5473  -12.7247 O   0  0  0  0  0  0  0  0  0  0  0  0
   -7.3379    4.4099  -12.4135 N   0  0  0  0  0  0  0  0  0  0  0  0
   -7.6549    4.2480  -11.0694 C   0  0  0  0  0  0  0  0  0  0  0  0
   -7.5388    5.2882  -10.1395 C   0  0  0  0  0  0  0  0  0  0  0  0
   -7.9141    5.2020   -8.8359 N   0  0  0  0  0  0  0  0  0  0  0  0
   -8.4064    4.0031   -8.4766 C   0  0  0  0  0  0  0  0  0  0  0  0
   -8.5541    2.9188   -9.3227 C   0  0  0  0  0  0  0  0  0  0  0  0
   -8.1831    3.0281  -10.6476 C   0  0  0  0  0  0  0  0  0  0  0  0
   -9.0966    1.7639   -8.5575 C   0  0  0  0  0  0  0  0  0  0  0  0
   -9.6360    2.3353   -7.2950 N   0  0  0  0  0  0  0  0  0  0  0  0
   -8.8977    3.6123   -7.1082 C   0  0  0  0  0  0  0  0  0  0  0  0
   -7.9243    5.0394  -15.1406 C   0  0  0  0  0  0  0  0  0  0  0  0
   -8.0141    4.9935  -16.5199 C   0  0  0  0  0  0  0  0  0  0  0  0
   -9.1034    4.3689  -16.8559 C   0  0  0  0  0  0  0  0  0  0  0  0
   -9.7633    4.0223  -15.7085 N   0  0  0  0  0  0  0  0  0  0  0  0
   -9.1243    4.5262  -14.6968 N   0  0  0  0  0  0  0  0  0  0  0  0
  1  2  2  0
  2  3  1  0
  3  4  2  0
  4  5  1  0
  5  6  1  0
  5  7  2  0
  7  8  1  0
  8  9  1  0
  9 10  2  0
  9 11  1  0
 11 12  1  0
 12 13  2  0
 13 14  1  0
 14 15  2  0
 15 16  1  0
 16 17  2  0
 16 18  1  0
 18 19  1  0
 19 20  1  0
  8 21  2  0
 21 22  1  0
 22 23  2  0
 23 24  1  0
 24 25  2  0
 23  2  1  0
 22  4  1  0
 17 12  1  0
 25 21  1  0
 20 15  1  0
M  END
>  <smiles>  (1931) 
C27480-P222

>  <fragmenstein_outcome>  (1931) 
acceptable

>  <inchikey>  (1931) 
HZXUXJGVDQXCHB-UHFFFAOYSA-N

>  <fragmenstein_mode>  (1931) 
expansion

>  <HIPPO Pose ID>  (1931) 
23954

>  <Energy>  (1931) 
128.435289

>  <fragmenstein_error>  (1931) 


>  <tags>  (1931) 
{'openbind_xx01zvns2b_c1_fragmenstein', 'fragmenstein_placed'}

>  <ref_pdb>  (1931) 
175

>  <scratch_subdir>  (1931) 
/opt/xchem-fragalysis-2/maxwin/BulkDock/SCRATCH/511028/C27480-P222

>  <alias>  (1931) 
O=C1N=c2c(F)cc(C(=O)Nc3cnc4c(c3)CNC4)c3c2=C1N=N3

>  <HIPPO Compound ID>  (1931) 
21585

>  <fragmenstein_runtime>  (1931) 
3.794716

$$$$
CCc1c([C@@](O)(Nc2cnc3c(c2)CNC3)C(=O)NCC(F)F)cc(Br)c2c1CC(=O)N2
     RDKit          3D

 32 35  0  0  0  0  0  0  0  0999 V2000
   -4.9033    7.2856  -15.7065 C   0  0  0  0  0  0  0  0  0  0  0  0
   -4.8765    5.7721  -15.8557 C   0  0  0  0  0  0  0  0  0  0  0  0
   -6.2313    5.1926  -16.1797 C   0  0  0  0  0  0  0  0  0  0  0  0
   -7.2983    5.0106  -15.2506 C   0  0  0  0  0  0  0  0  0  0  0  0
   -7.2453    5.3441  -13.7416 C   0  0  1  0  0  0  0  0  0  0  0  0
   -7.7472    6.6632  -13.6992 O   0  0  0  0  0  0  0  0  0  0  0  0
   -8.2403    4.5205  -13.0078 N   0  0  0  0  0  0  0  0  0  0  0  0
   -8.2091    4.4687  -11.5997 C   0  0  0  0  0  0  0  0  0  0  0  0
   -7.8755    5.5559  -10.7656 C   0  0  0  0  0  0  0  0  0  0  0  0
   -7.8953    5.5483   -9.4110 N   0  0  0  0  0  0  0  0  0  0  0  0
   -8.2813    4.3866   -8.8661 C   0  0  0  0  0  0  0  0  0  0  0  0
   -8.6460    3.2641   -9.5764 C   0  0  0  0  0  0  0  0  0  0  0  0
   -8.6282    3.2957  -10.9586 C   0  0  0  0  0  0  0  0  0  0  0  0
   -9.0558    2.1833   -8.6424 C   0  0  0  0  0  0  0  0  0  0  0  0
   -8.8607    2.7075   -7.2644 N   0  0  0  0  0  0  0  0  0  0  0  0
   -8.4342    4.1212   -7.3992 C   0  0  0  0  0  0  0  0  0  0  0  0
   -5.7942    5.1355  -13.0408 C   0  0  0  0  0  0  0  0  0  0  0  0
   -5.1687    6.0431  -12.6427 O   0  0  0  0  0  0  0  0  0  0  0  0
   -5.5202    3.6010  -12.9489 N   0  0  0  0  0  0  0  0  0  0  0  0
   -4.4724    2.8736  -12.2668 C   0  0  0  0  0  0  0  0  0  0  0  0
   -3.0713    3.4169  -12.5187 C   0  0  0  0  0  0  0  0  0  0  0  0
   -2.7605    3.2943  -13.8374 F   0  0  0  0  0  0  0  0  0  0  0  0
   -2.1621    2.6611  -11.8467 F   0  0  0  0  0  0  0  0  0  0  0  0
   -8.5833    4.6354  -15.7661 C   0  0  0  0  0  0  0  0  0  0  0  0
   -8.7940    4.3548  -17.1044 C   0  0  0  0  0  0  0  0  0  0  0  0
  -10.4932    4.1091  -17.8206 Br  0  0  0  0  0  0  0  0  0  0  0  0
   -7.7165    4.3955  -17.9314 C   0  0  0  0  0  0  0  0  0  0  0  0
   -6.4742    4.8500  -17.5135 C   0  0  0  0  0  0  0  0  0  0  0  0
   -5.5728    4.8890  -18.7183 C   0  0  0  0  0  0  0  0  0  0  0  0
   -6.4121    4.1639  -19.7687 C   0  0  0  0  0  0  0  0  0  0  0  0
   -6.0493    3.7577  -20.8576 O   0  0  0  0  0  0  0  0  0  0  0  0
   -7.6681    3.9836  -19.2439 N   0  0  0  0  0  0  0  0  0  0  0  0
  1  2  1  0
  2  3  1  0
  3  4  2  0
  4  5  1  0
  5  6  1  6
  5  7  1  0
  7  8  1  0
  8  9  2  0
  9 10  1  0
 10 11  2  0
 11 12  1  0
 12 13  2  0
 12 14  1  0
 14 15  1  0
 15 16  1  0
  5 17  1  0
 17 18  2  0
 17 19  1  0
 19 20  1  0
 20 21  1  0
 21 22  1  0
 21 23  1  0
  4 24  1  0
 24 25  2  0
 25 26  1  0
 25 27  1  0
 27 28  2  0
 28 29  1  0
 29 30  1  0
 30 31  2  0
 30 32  1  0
 28  3  1  0
 13  8  1  0
 32 27  1  0
 16 11  1  0
M  END
>  <smiles>  (1932) 
C27516-P222

>  <fragmenstein_outcome>  (1932) 
acceptable

>  <inchikey>  (1932) 
YJPKEUAAXXVNKK-UHFFFAOYSA-N

>  <fragmenstein_mode>  (1932) 
expansion

>  <HIPPO Pose ID>  (1932) 
23960

>  <Energy>  (1932) 
178.460271

>  <fragmenstein_error>  (1932) 


>  <tags>  (1932) 
{'openbind_xx01zvns2b_c1_fragmenstein', 'fragmenstein_placed'}

>  <ref_pdb>  (1932) 
175

>  <scratch_subdir>  (1932) 
/opt/xchem-fragalysis-2/maxwin/BulkDock/SCRATCH/511028/C27516-P222

>  <alias>  (1932) 
CCc1c([C@@](O)(Nc2cnc3c(c2)CNC3)C(=O)NCC(F)F)cc(Br)c2c1CC(=O)N2

>  <HIPPO Compound ID>  (1932) 
27516

>  <fragmenstein_runtime>  (1932) 
7.363412

$$$$
O=C(Nc1cnc2c(c1)CNC2)c1cc(F)c2c3c(n(C4CNC4)cc13)C(=O)N2
     RDKit          3D

 29 34  0  0  0  0  0  0  0  0999 V2000
   -7.4785    6.4737  -12.9856 O   0  0  0  0  0  0  0  0  0  0  0  0
   -7.7570    5.3819  -13.2837 C   0  0  0  0  0  0  0  0  0  0  0  0
   -8.1233    4.1707  -12.4073 N   0  0  0  0  0  0  0  0  0  0  0  0
   -8.3103    4.0737  -11.0313 C   0  0  0  0  0  0  0  0  0  0  0  0
   -8.1570    5.1735  -10.1752 C   0  0  0  0  0  0  0  0  0  0  0  0
   -8.3048    5.1292   -8.8238 N   0  0  0  0  0  0  0  0  0  0  0  0
   -8.6279    3.9178   -8.3396 C   0  0  0  0  0  0  0  0  0  0  0  0
   -8.8046    2.7818   -9.1041 C   0  0  0  0  0  0  0  0  0  0  0  0
   -8.6383    2.8415  -10.4747 C   0  0  0  0  0  0  0  0  0  0  0  0
   -9.1242    1.6277   -8.2263 C   0  0  0  0  0  0  0  0  0  0  0  0
   -9.3314    2.1716   -6.8576 N   0  0  0  0  0  0  0  0  0  0  0  0
   -8.8601    3.5799   -6.8946 C   0  0  0  0  0  0  0  0  0  0  0  0
   -7.6774    5.0117  -14.6989 C   0  0  0  0  0  0  0  0  0  0  0  0
   -8.7375    4.4626  -15.5110 C   0  0  0  0  0  0  0  0  0  0  0  0
   -8.6648    4.2637  -16.9675 C   0  0  0  0  0  0  0  0  0  0  0  0
   -9.7369    3.7581  -17.5934 F   0  0  0  0  0  0  0  0  0  0  0  0
   -7.5210    4.5662  -17.6918 C   0  0  0  0  0  0  0  0  0  0  0  0
   -6.5839    5.0076  -16.8343 C   0  0  0  0  0  0  0  0  0  0  0  0
   -5.4712    5.3488  -17.5074 C   0  0  0  0  0  0  0  0  0  0  0  0
   -4.6466    5.8177  -16.5346 N   0  0  0  0  0  0  0  0  0  0  0  0
   -3.3306    6.3972  -16.7434 C   0  0  0  0  0  0  0  0  0  0  0  0
   -2.4168    5.6190  -17.7046 C   0  0  0  0  0  0  0  0  0  0  0  0
   -1.3000    5.8584  -16.7499 N   0  0  0  0  0  0  0  0  0  0  0  0
   -2.3162    5.9583  -15.6720 C   0  0  0  0  0  0  0  0  0  0  0  0
   -5.3136    5.8123  -15.2918 C   0  0  0  0  0  0  0  0  0  0  0  0
   -6.5612    5.2636  -15.4902 C   0  0  0  0  0  0  0  0  0  0  0  0
   -5.6485    5.1088  -18.9098 C   0  0  0  0  0  0  0  0  0  0  0  0
   -4.8553    5.2745  -19.8208 O   0  0  0  0  0  0  0  0  0  0  0  0
   -6.9784    4.6215  -18.9810 N   0  0  0  0  0  0  0  0  0  0  0  0
  1  2  2  0
  2  3  1  0
  3  4  1  0
  4  5  2  0
  5  6  1  0
  6  7  2  0
  7  8  1  0
  8  9  2  0
  8 10  1  0
 10 11  1  0
 11 12  1  0
  2 13  1  0
 13 14  2  0
 14 15  1  0
 15 16  1  0
 15 17  2  0
 17 18  1  0
 18 19  2  0
 19 20  1  0
 20 21  1  0
 21 22  1  0
 22 23  1  0
 23 24  1  0
 20 25  1  0
 25 26  2  0
 19 27  1  0
 27 28  2  0
 27 29  1  0
  9  4  1  0
 26 13  1  0
 12  7  1  0
 29 17  1  0
 26 18  1  0
 24 21  1  0
M  END
>  <smiles>  (1933) 
C27542-P222

>  <fragmenstein_outcome>  (1933) 
acceptable

>  <inchikey>  (1933) 
HUXUQJQVJIZCFO-UHFFFAOYSA-N

>  <fragmenstein_mode>  (1933) 
expansion

>  <HIPPO Pose ID>  (1933) 
23965

>  <Energy>  (1933) 
119.744403

>  <fragmenstein_error>  (1933) 


>  <tags>  (1933) 
{'openbind_xx01zvns2b_c1_fragmenstein', 'fragmenstein_placed'}

>  <ref_pdb>  (1933) 
175

>  <scratch_subdir>  (1933) 
/opt/xchem-fragalysis-2/maxwin/BulkDock/SCRATCH/511028/C27542-P222

>  <alias>  (1933) 
O=C(Nc1cnc2c(c1)CNC2)c1cc(F)c2c3c(n(C4CNC4)cc13)C(=O)N2

>  <HIPPO Compound ID>  (1933) 
27542

>  <fragmenstein_runtime>  (1933) 
5.243253

$$$$
O=Cc1cc(C(=O)Nc2cnc3c(c2)CNC3)c2c3c1=NC(=O)C=3C(c1ccccc1)=N2
     RDKit          3D

 32 37  0  0  0  0  0  0  0  0999 V2000
  -10.1017    4.4646  -18.7169 O   0  0  0  0  0  0  0  0  0  0  0  0
   -9.9194    4.1430  -17.5553 C   0  0  0  0  0  0  0  0  0  0  0  0
   -8.6045    4.2581  -16.9146 C   0  0  0  0  0  0  0  0  0  0  0  0
   -8.5576    4.4357  -15.5651 C   0  0  0  0  0  0  0  0  0  0  0  0
   -7.3370    4.8800  -14.8301 C   0  0  0  0  0  0  0  0  0  0  0  0
   -7.4401    5.3594  -13.4253 C   0  0  0  0  0  0  0  0  0  0  0  0
   -7.3007    6.4826  -13.1448 O   0  0  0  0  0  0  0  0  0  0  0  0
   -7.8438    4.1507  -12.5501 N   0  0  0  0  0  0  0  0  0  0  0  0
   -8.0596    4.0604  -11.1789 C   0  0  0  0  0  0  0  0  0  0  0  0
   -8.0097    5.1822  -10.3394 C   0  0  0  0  0  0  0  0  0  0  0  0
   -8.2402    5.1560   -9.0007 N   0  0  0  0  0  0  0  0  0  0  0  0
   -8.5444    3.9393   -8.5164 C   0  0  0  0  0  0  0  0  0  0  0  0
   -8.6364    2.7816   -9.2700 C   0  0  0  0  0  0  0  0  0  0  0  0
   -8.3747    2.8224  -10.6242 C   0  0  0  0  0  0  0  0  0  0  0  0
   -9.0219    1.6459   -8.3885 C   0  0  0  0  0  0  0  0  0  0  0  0
   -9.5214    2.2680   -7.1347 N   0  0  0  0  0  0  0  0  0  0  0  0
   -8.8769    3.6058   -7.0872 C   0  0  0  0  0  0  0  0  0  0  0  0
   -6.2036    5.0610  -15.5152 C   0  0  0  0  0  0  0  0  0  0  0  0
   -6.2782    4.8216  -16.8747 C   0  0  0  0  0  0  0  0  0  0  0  0
   -7.3608    4.4512  -17.7004 C   0  0  0  0  0  0  0  0  0  0  0  0
   -6.9646    4.3925  -18.9266 N   0  0  0  0  0  0  0  0  0  0  0  0
   -5.6418    4.8654  -18.9484 C   0  0  0  0  0  0  0  0  0  0  0  0
   -4.9441    5.1163  -19.9153 O   0  0  0  0  0  0  0  0  0  0  0  0
   -5.2214    5.0812  -17.5874 C   0  0  0  0  0  0  0  0  0  0  0  0
   -4.3422    5.4964  -16.5140 C   0  0  0  0  0  0  0  0  0  0  0  0
   -2.9390    5.8798  -16.7521 C   0  0  0  0  0  0  0  0  0  0  0  0
   -2.2699    5.5925  -17.9463 C   0  0  0  0  0  0  0  0  0  0  0  0
   -0.9319    5.9644  -18.1056 C   0  0  0  0  0  0  0  0  0  0  0  0
   -0.2564    6.6203  -17.0782 C   0  0  0  0  0  0  0  0  0  0  0  0
   -0.9148    6.9043  -15.8843 C   0  0  0  0  0  0  0  0  0  0  0  0
   -2.2505    6.5327  -15.7198 C   0  0  0  0  0  0  0  0  0  0  0  0
   -4.9179    5.5013  -15.3090 N   0  0  0  0  0  0  0  0  0  0  0  0
  1  2  2  0
  2  3  1  0
  3  4  2  0
  4  5  1  0
  5  6  1  0
  6  7  2  0
  6  8  1  0
  8  9  1  0
  9 10  2  0
 10 11  1  0
 11 12  2  0
 12 13  1  0
 13 14  2  0
 13 15  1  0
 15 16  1  0
 16 17  1  0
  5 18  2  0
 18 19  1  0
 19 20  1  0
 20 21  2  0
 21 22  1  0
 22 23  2  0
 22 24  1  0
 24 25  1  0
 25 26  1  0
 26 27  2  0
 27 28  1  0
 28 29  2  0
 29 30  1  0
 30 31  2  0
 25 32  2  0
 20  3  1  0
 31 26  1  0
 14  9  1  0
 32 18  1  0
 17 12  1  0
 24 19  2  0
M  END
>  <smiles>  (1934) 
C27578-P223

>  <fragmenstein_outcome>  (1934) 
acceptable

>  <inchikey>  (1934) 
UXJBOWKKUDHLQU-UHFFFAOYSA-N

>  <fragmenstein_mode>  (1934) 
expansion

>  <HIPPO Pose ID>  (1934) 
23988

>  <Energy>  (1934) 
130.826006

>  <fragmenstein_error>  (1934) 


>  <tags>  (1934) 
{'openbind_xx01zvns2b_c1_fragmenstein', 'fragmenstein_placed'}

>  <ref_pdb>  (1934) 
175

>  <scratch_subdir>  (1934) 
/opt/xchem-fragalysis-2/maxwin/BulkDock/SCRATCH/511028/C27578-P223

>  <alias>  (1934) 
O=Cc1cc(C(=O)Nc2cnc3c(c2)CNC3)c2c3c1=NC(=O)C=3C(c1ccccc1)=N2

>  <HIPPO Compound ID>  (1934) 
28281

>  <fragmenstein_runtime>  (1934) 
4.503818

$$$$
Cc1[nH]c2c(C(=O)C(=O)c3ccc4c(c3)CNC4)cc(Cl)cc2c1CN
     RDKit          3D

 26 29  0  0  0  0  0  0  0  0999 V2000
   -2.9703    5.8893  -17.0610 C   0  0  0  0  0  0  0  0  0  0  0  0
   -4.4069    5.5282  -17.0050 C   0  0  0  0  0  0  0  0  0  0  0  0
   -5.0771    5.3986  -15.8150 N   0  0  0  0  0  0  0  0  0  0  0  0
   -6.3790    5.0085  -16.0314 C   0  0  0  0  0  0  0  0  0  0  0  0
   -7.4106    4.7197  -15.1190 C   0  0  0  0  0  0  0  0  0  0  0  0
   -7.1697    4.8182  -13.6552 C   0  0  0  0  0  0  0  0  0  0  0  0
   -6.3478    5.6150  -13.2184 O   0  0  0  0  0  0  0  0  0  0  0  0
   -7.8748    3.8519  -12.7268 C   0  0  0  0  0  0  0  0  0  0  0  0
   -8.2708    2.8047  -13.2201 O   0  0  0  0  0  0  0  0  0  0  0  0
   -8.0585    4.0474  -11.2763 C   0  0  0  0  0  0  0  0  0  0  0  0
   -7.8448    5.2696  -10.6208 C   0  0  0  0  0  0  0  0  0  0  0  0
   -8.0117    5.3636   -9.2323 C   0  0  0  0  0  0  0  0  0  0  0  0
   -8.3908    4.2310   -8.5287 C   0  0  0  0  0  0  0  0  0  0  0  0
   -8.6331    3.0318   -9.1787 C   0  0  0  0  0  0  0  0  0  0  0  0
   -8.4748    2.9212  -10.5438 C   0  0  0  0  0  0  0  0  0  0  0  0
   -9.0822    2.0006   -8.2049 C   0  0  0  0  0  0  0  0  0  0  0  0
   -8.8932    2.6066   -6.8606 N   0  0  0  0  0  0  0  0  0  0  0  0
   -8.6326    4.0486   -7.0699 C   0  0  0  0  0  0  0  0  0  0  0  0
   -8.6490    4.3470  -15.6525 C   0  0  0  0  0  0  0  0  0  0  0  0
   -8.8215    4.2539  -17.0285 C   0  0  0  0  0  0  0  0  0  0  0  0
  -10.3783    3.9906  -17.6774 Cl  0  0  0  0  0  0  0  0  0  0  0  0
   -7.7793    4.4928  -17.9188 C   0  0  0  0  0  0  0  0  0  0  0  0
   -6.5365    4.8992  -17.4125 C   0  0  0  0  0  0  0  0  0  0  0  0
   -5.3021    5.2715  -18.0306 C   0  0  0  0  0  0  0  0  0  0  0  0
   -5.0334    5.3259  -19.4961 C   0  0  0  0  0  0  0  0  0  0  0  0
   -5.6136    6.5567  -20.0352 N   0  0  0  0  0  0  0  0  0  0  0  0
  1  2  1  0
  2  3  1  0
  3  4  1  0
  4  5  2  0
  5  6  1  0
  6  7  2  0
  6  8  1  0
  8  9  2  0
  8 10  1  0
 10 11  2  0
 11 12  1  0
 12 13  2  0
 13 14  1  0
 14 15  2  0
 14 16  1  0
 16 17  1  0
 17 18  1  0
  5 19  1  0
 19 20  2  0
 20 21  1  0
 20 22  1  0
 22 23  2  0
 23 24  1  0
 24 25  1  0
 25 26  1  0
 24  2  2  0
 23  4  1  0
 15 10  1  0
 18 13  1  0
M  END
>  <smiles>  (1935) 
C27676-P223

>  <fragmenstein_outcome>  (1935) 
acceptable

>  <inchikey>  (1935) 
NVURVWBIDBWWCB-UHFFFAOYSA-N

>  <fragmenstein_mode>  (1935) 
expansion

>  <HIPPO Pose ID>  (1935) 
24045

>  <Energy>  (1935) 
85.750541

>  <fragmenstein_error>  (1935) 


>  <tags>  (1935) 
{'openbind_xx01zvns2b_c1_fragmenstein', 'fragmenstein_placed'}

>  <ref_pdb>  (1935) 
175

>  <scratch_subdir>  (1935) 
/opt/xchem-fragalysis-2/maxwin/BulkDock/SCRATCH/511028/C27676-P223

>  <alias>  (1935) 
Cc1[nH]c2c(C(=O)C(=O)c3ccc4c(c3)CNC4)cc(Cl)cc2c1CN

>  <HIPPO Compound ID>  (1935) 
36201

>  <fragmenstein_runtime>  (1935) 
4.392075

$$$$
NCC1=c2cc(Cl)cc(C(=O)Nc3ccc4c(c3)CNC4)c2=NC1=O
     RDKit          3D

 25 28  0  0  0  0  0  0  0  0999 V2000
   -5.6652    5.1303  -20.2897 N   0  0  0  0  0  0  0  0  0  0  0  0
   -4.7783    5.3436  -19.1844 C   0  0  0  0  0  0  0  0  0  0  0  0
   -5.3100    5.1300  -17.8283 C   0  0  0  0  0  0  0  0  0  0  0  0
   -6.4774    4.7646  -17.3053 C   0  0  0  0  0  0  0  0  0  0  0  0
   -7.7364    4.3726  -17.8472 C   0  0  0  0  0  0  0  0  0  0  0  0
   -8.7663    4.1980  -17.0092 C   0  0  0  0  0  0  0  0  0  0  0  0
  -10.3327    3.9857  -17.6618 Cl  0  0  0  0  0  0  0  0  0  0  0  0
   -8.6369    4.3982  -15.5779 C   0  0  0  0  0  0  0  0  0  0  0  0
   -7.4772    4.7706  -15.0019 C   0  0  0  0  0  0  0  0  0  0  0  0
   -7.5114    5.2710  -13.6050 C   0  0  0  0  0  0  0  0  0  0  0  0
   -7.3741    6.4080  -13.3763 O   0  0  0  0  0  0  0  0  0  0  0  0
   -7.7927    4.0828  -12.6533 N   0  0  0  0  0  0  0  0  0  0  0  0
   -8.0483    4.0613  -11.2844 C   0  0  0  0  0  0  0  0  0  0  0  0
   -7.9440    5.2279  -10.5109 C   0  0  0  0  0  0  0  0  0  0  0  0
   -8.1639    5.1938   -9.1307 C   0  0  0  0  0  0  0  0  0  0  0  0
   -8.4955    3.9840   -8.5497 C   0  0  0  0  0  0  0  0  0  0  0  0
   -8.6153    2.8318   -9.3154 C   0  0  0  0  0  0  0  0  0  0  0  0
   -8.3910    2.8481  -10.6831 C   0  0  0  0  0  0  0  0  0  0  0  0
   -8.9587    1.6820   -8.4313 C   0  0  0  0  0  0  0  0  0  0  0  0
   -9.2219    2.2582   -7.0869 N   0  0  0  0  0  0  0  0  0  0  0  0
   -8.7487    3.6580   -7.1181 C   0  0  0  0  0  0  0  0  0  0  0  0
   -6.2877    4.9513  -15.8594 C   0  0  0  0  0  0  0  0  0  0  0  0
   -5.0885    5.2853  -15.5204 N   0  0  0  0  0  0  0  0  0  0  0  0
   -4.3894    5.3707  -16.6949 C   0  0  0  0  0  0  0  0  0  0  0  0
   -3.2002    5.6020  -16.8371 O   0  0  0  0  0  0  0  0  0  0  0  0
  1  2  1  0
  2  3  1  0
  3  4  2  0
  4  5  1  0
  5  6  2  0
  6  7  1  0
  6  8  1  0
  8  9  2  0
  9 10  1  0
 10 11  2  0
 10 12  1  0
 12 13  1  0
 13 14  2  0
 14 15  1  0
 15 16  2  0
 16 17  1  0
 17 18  2  0
 17 19  1  0
 19 20  1  0
 20 21  1  0
  9 22  1  0
 22 23  2  0
 23 24  1  0
 24 25  2  0
 24  3  1  0
 22  4  1  0
 18 13  1  0
 21 16  1  0
M  END
>  <smiles>  (1936) 
C27703-P223

>  <fragmenstein_outcome>  (1936) 
acceptable

>  <inchikey>  (1936) 
CWJQJBJLVPAWJR-UHFFFAOYSA-N

>  <fragmenstein_mode>  (1936) 
expansion

>  <HIPPO Pose ID>  (1936) 
24052

>  <Energy>  (1936) 
14.708555

>  <fragmenstein_error>  (1936) 


>  <tags>  (1936) 
{'openbind_xx01zvns2b_c1_fragmenstein', 'fragmenstein_placed'}

>  <ref_pdb>  (1936) 
175

>  <scratch_subdir>  (1936) 
/opt/xchem-fragalysis-2/maxwin/BulkDock/SCRATCH/511028/C27703-P223

>  <alias>  (1936) 
NCC1=c2cc(Cl)cc(C(=O)Nc3ccc4c(c3)CNC4)c2=NC1=O

>  <HIPPO Compound ID>  (1936) 
27703

>  <fragmenstein_runtime>  (1936) 
3.509967

$$$$
NCc1cn(N)c2c(C(=O)Nc3ccc4c(c3)CNC4)cc(Cl)cc12
     RDKit          3D

 25 28  0  0  0  0  0  0  0  0999 V2000
   -5.1954    6.5571  -20.2237 N   0  0  0  0  0  0  0  0  0  0  0  0
   -4.9940    5.1929  -19.7428 C   0  0  0  0  0  0  0  0  0  0  0  0
   -5.2494    5.1701  -18.2785 C   0  0  0  0  0  0  0  0  0  0  0  0
   -4.3329    5.4960  -17.3039 C   0  0  0  0  0  0  0  0  0  0  0  0
   -4.9354    5.3747  -16.0953 N   0  0  0  0  0  0  0  0  0  0  0  0
   -4.2333    5.5988  -14.9162 N   0  0  0  0  0  0  0  0  0  0  0  0
   -6.2522    5.0016  -16.2201 C   0  0  0  0  0  0  0  0  0  0  0  0
   -7.2883    4.8031  -15.2786 C   0  0  0  0  0  0  0  0  0  0  0  0
   -7.1422    5.1846  -13.8480 C   0  0  0  0  0  0  0  0  0  0  0  0
   -6.6274    6.2056  -13.6045 O   0  0  0  0  0  0  0  0  0  0  0  0
   -7.7608    4.1220  -12.9054 N   0  0  0  0  0  0  0  0  0  0  0  0
   -7.9526    4.1383  -11.5235 C   0  0  0  0  0  0  0  0  0  0  0  0
   -7.6949    5.2956  -10.7723 C   0  0  0  0  0  0  0  0  0  0  0  0
   -7.8816    5.3089   -9.3860 C   0  0  0  0  0  0  0  0  0  0  0  0
   -8.3060    4.1468   -8.7694 C   0  0  0  0  0  0  0  0  0  0  0  0
   -8.5659    2.9999   -9.5072 C   0  0  0  0  0  0  0  0  0  0  0  0
   -8.4122    2.9803  -10.8868 C   0  0  0  0  0  0  0  0  0  0  0  0
   -9.0049    1.9100   -8.5896 C   0  0  0  0  0  0  0  0  0  0  0  0
   -8.8812    2.4465   -7.2073 N   0  0  0  0  0  0  0  0  0  0  0  0
   -8.5715    3.8872   -7.3277 C   0  0  0  0  0  0  0  0  0  0  0  0
   -8.5433    4.4060  -15.7533 C   0  0  0  0  0  0  0  0  0  0  0  0
   -8.7469    4.2279  -17.1137 C   0  0  0  0  0  0  0  0  0  0  0  0
  -10.3302    3.9744  -17.6965 Cl  0  0  0  0  0  0  0  0  0  0  0  0
   -7.7240    4.4050  -18.0411 C   0  0  0  0  0  0  0  0  0  0  0  0
   -6.4586    4.8201  -17.5961 C   0  0  0  0  0  0  0  0  0  0  0  0
  1  2  1  0
  2  3  1  0
  3  4  2  0
  4  5  1  0
  5  6  1  0
  5  7  1  0
  7  8  2  0
  8  9  1  0
  9 10  2  0
  9 11  1  0
 11 12  1  0
 12 13  2  0
 13 14  1  0
 14 15  2  0
 15 16  1  0
 16 17  2  0
 16 18  1  0
 18 19  1  0
 19 20  1  0
  8 21  1  0
 21 22  2  0
 22 23  1  0
 22 24  1  0
 24 25  2  0
 25  3  1  0
 25  7  1  0
 17 12  1  0
 20 15  1  0
M  END
>  <smiles>  (1937) 
C27704-P223

>  <fragmenstein_outcome>  (1937) 
acceptable

>  <inchikey>  (1937) 
CSRFJBKHCFFLFN-UHFFFAOYSA-N

>  <fragmenstein_mode>  (1937) 
expansion

>  <HIPPO Pose ID>  (1937) 
24053

>  <Energy>  (1937) 
-2.578937

>  <fragmenstein_error>  (1937) 


>  <tags>  (1937) 
{'openbind_xx01zvns2b_c1_fragmenstein', 'fragmenstein_placed'}

>  <ref_pdb>  (1937) 
175

>  <scratch_subdir>  (1937) 
/opt/xchem-fragalysis-2/maxwin/BulkDock/SCRATCH/511028/C27704-P223

>  <alias>  (1937) 
NCc1cn(N)c2c(C(=O)Nc3ccc4c(c3)CNC4)cc(Cl)cc12

>  <HIPPO Compound ID>  (1937) 
19765

>  <fragmenstein_runtime>  (1937) 
5.863105

$$$$
CC(C)O[C@@]1(C)C(=O)[C@@H](CN)c2cc(Cl)cc(C(=O)Nc3ccc4c(c3)CNC4)c21
     RDKit          3D

 30 33  0  0  0  0  0  0  0  0999 V2000
   -3.7399    5.6976  -12.4959 C   0  0  0  0  0  0  0  0  0  0  0  0
   -3.3300    4.9314  -13.7489 C   0  0  0  0  0  0  0  0  0  0  0  0
   -2.0341    5.4515  -14.3532 C   0  0  0  0  0  0  0  0  0  0  0  0
   -4.3999    4.7318  -14.6643 O   0  0  0  0  0  0  0  0  0  0  0  0
   -4.9198    5.7261  -15.5240 C   0  0  1  0  0  0  0  0  0  0  0  0
   -4.9192    7.1746  -15.0306 C   0  0  0  0  0  0  0  0  0  0  0  0
   -4.2569    5.7562  -16.9448 C   0  0  0  0  0  0  0  0  0  0  0  0
   -3.0557    5.8293  -17.1785 O   0  0  0  0  0  0  0  0  0  0  0  0
   -5.3350    5.7664  -18.0251 C   0  0  1  0  0  0  0  0  0  0  0  0
   -4.8855    5.1734  -19.3526 C   0  0  0  0  0  0  0  0  0  0  0  0
   -4.4358    6.2318  -20.2771 N   0  0  0  0  0  0  0  0  0  0  0  0
   -6.4745    5.1157  -17.2952 C   0  0  0  0  0  0  0  0  0  0  0  0
   -7.6368    4.6135  -17.8550 C   0  0  0  0  0  0  0  0  0  0  0  0
   -8.6793    4.2566  -17.0087 C   0  0  0  0  0  0  0  0  0  0  0  0
  -10.1935    3.9003  -17.7144 Cl  0  0  0  0  0  0  0  0  0  0  0  0
   -8.5666    4.3772  -15.6224 C   0  0  0  0  0  0  0  0  0  0  0  0
   -7.3855    4.8827  -15.0618 C   0  0  0  0  0  0  0  0  0  0  0  0
   -7.4377    5.2937  -13.6415 C   0  0  0  0  0  0  0  0  0  0  0  0
   -7.3917    6.4364  -13.4114 O   0  0  0  0  0  0  0  0  0  0  0  0
   -7.6493    4.0926  -12.6995 N   0  0  0  0  0  0  0  0  0  0  0  0
   -7.9340    4.0506  -11.3355 C   0  0  0  0  0  0  0  0  0  0  0  0
   -7.8917    5.2210  -10.5598 C   0  0  0  0  0  0  0  0  0  0  0  0
   -8.1498    5.1839   -9.1865 C   0  0  0  0  0  0  0  0  0  0  0  0
   -8.4653    3.9668   -8.6134 C   0  0  0  0  0  0  0  0  0  0  0  0
   -8.5344    2.8122   -9.3816 C   0  0  0  0  0  0  0  0  0  0  0  0
   -8.2619    2.8304  -10.7421 C   0  0  0  0  0  0  0  0  0  0  0  0
   -8.9008    1.6590   -8.5116 C   0  0  0  0  0  0  0  0  0  0  0  0
   -9.1603    2.2184   -7.1579 N   0  0  0  0  0  0  0  0  0  0  0  0
   -8.7532    3.6385   -7.1897 C   0  0  0  0  0  0  0  0  0  0  0  0
   -6.3210    5.2307  -15.8960 C   0  0  0  0  0  0  0  0  0  0  0  0
  1  2  1  0
  2  3  1  0
  2  4  1  0
  4  5  1  0
  5  6  1  1
  5  7  1  0
  7  8  2  0
  7  9  1  0
  9 10  1  6
 10 11  1  0
  9 12  1  0
 12 13  2  0
 13 14  1  0
 14 15  1  0
 14 16  2  0
 16 17  1  0
 17 18  1  0
 18 19  2  0
 18 20  1  0
 20 21  1  0
 21 22  2  0
 22 23  1  0
 23 24  2  0
 24 25  1  0
 25 26  2  0
 25 27  1  0
 27 28  1  0
 28 29  1  0
 17 30  2  0
 30  5  1  0
 30 12  1  0
 26 21  1  0
 29 24  1  0
M  END
>  <smiles>  (1938) 
C27742-P223

>  <fragmenstein_outcome>  (1938) 
acceptable

>  <inchikey>  (1938) 
MWGXULNAURETQU-UHFFFAOYSA-N

>  <fragmenstein_mode>  (1938) 
expansion

>  <HIPPO Pose ID>  (1938) 
24065

>  <Energy>  (1938) 
123.247435

>  <fragmenstein_error>  (1938) 


>  <tags>  (1938) 
{'openbind_xx01zvns2b_c1_fragmenstein', 'fragmenstein_placed'}

>  <ref_pdb>  (1938) 
175

>  <scratch_subdir>  (1938) 
/opt/xchem-fragalysis-2/maxwin/BulkDock/SCRATCH/511028/C27742-P223

>  <alias>  (1938) 
CC(C)O[C@@]1(C)C(=O)[C@@H](CN)c2cc(Cl)cc(C(=O)Nc3ccc4c(c3)CNC4)c21

>  <HIPPO Compound ID>  (1938) 
27742

>  <fragmenstein_runtime>  (1938) 
4.935318

$$$$
O=C(Nc1ccc2c(c1)CNC2)[C@H]1C[C@@H](Cl)[C@H]2N[C@@H](O)[C@H]3CN[C@@H]1[C@H]32
     RDKit          3D

 25 29  0  0  0  0  0  0  0  0999 V2000
   -6.8764    6.3480  -13.3114 O   0  0  0  0  0  0  0  0  0  0  0  0
   -7.3582    5.3098  -13.5598 C   0  0  0  0  0  0  0  0  0  0  0  0
   -8.0633    4.2706  -12.6262 N   0  0  0  0  0  0  0  0  0  0  0  0
   -8.2230    4.2613  -11.2477 C   0  0  0  0  0  0  0  0  0  0  0  0
   -7.9867    5.4039  -10.4713 C   0  0  0  0  0  0  0  0  0  0  0  0
   -8.1532    5.3631   -9.0834 C   0  0  0  0  0  0  0  0  0  0  0  0
   -8.5463    4.1690   -8.5060 C   0  0  0  0  0  0  0  0  0  0  0  0
   -8.7585    3.0309   -9.2775 C   0  0  0  0  0  0  0  0  0  0  0  0
   -8.6121    3.0593  -10.6501 C   0  0  0  0  0  0  0  0  0  0  0  0
   -9.1053    1.8898   -8.3820 C   0  0  0  0  0  0  0  0  0  0  0  0
   -9.4988    2.5250   -7.0977 N   0  0  0  0  0  0  0  0  0  0  0  0
   -8.7963    3.8286   -7.0748 C   0  0  0  0  0  0  0  0  0  0  0  0
   -7.3792    4.6818  -14.9574 C   0  0  1  0  0  0  0  0  0  0  0  0
   -8.7350    4.8577  -15.6417 C   0  0  0  0  0  0  0  0  0  0  0  0
   -8.7935    4.0676  -16.9456 C   0  0  1  0  0  0  0  0  0  0  0  0
  -10.3228    4.3063  -17.8235 Cl  0  0  0  0  0  0  0  0  0  0  0  0
   -7.5980    4.2464  -17.8836 C   0  0  1  0  0  0  0  0  0  0  0  0
   -7.5395    5.3230  -18.8686 N   0  0  0  0  0  0  0  0  0  0  0  0
   -6.1868    5.2074  -19.3792 C   0  0  1  0  0  0  0  0  0  0  0  0
   -5.8654    6.2296  -20.2702 O   0  0  0  0  0  0  0  0  0  0  0  0
   -5.3740    5.2378  -18.1065 C   0  0  1  0  0  0  0  0  0  0  0  0
   -5.2272    6.5765  -17.3862 C   0  0  0  0  0  0  0  0  0  0  0  0
   -6.0768    6.5028  -16.1938 N   0  0  0  0  0  0  0  0  0  0  0  0
   -6.1955    5.1041  -15.8272 C   0  0  2  0  0  0  0  0  0  0  0  0
   -6.2555    4.4195  -17.1741 C   0  0  1  0  0  0  0  0  0  0  0  0
  1  2  2  0
  2  3  1  0
  3  4  1  0
  4  5  2  0
  5  6  1  0
  6  7  2  0
  7  8  1  0
  8  9  2  0
  8 10  1  0
 10 11  1  0
 11 12  1  0
 13  2  1  1
 13 14  1  0
 14 15  1  0
 15 16  1  6
 15 17  1  0
 17 18  1  1
 18 19  1  0
 19 20  1  6
 19 21  1  0
 21 22  1  1
 22 23  1  0
 24 23  1  6
 25 24  1  1
  9  4  1  0
 24 13  1  0
 12  7  1  0
 25 17  1  0
 25 21  1  0
M  END
>  <smiles>  (1939) 
C27774-P224

>  <fragmenstein_outcome>  (1939) 
acceptable

>  <inchikey>  (1939) 
GASFJBAEFOWLLE-UHFFFAOYSA-N

>  <fragmenstein_mode>  (1939) 
expansion

>  <HIPPO Pose ID>  (1939) 
24087

>  <Energy>  (1939) 
38.727448

>  <fragmenstein_error>  (1939) 


>  <tags>  (1939) 
{'openbind_xx01zvns2b_c1_fragmenstein', 'fragmenstein_placed'}

>  <ref_pdb>  (1939) 
175

>  <scratch_subdir>  (1939) 
/opt/xchem-fragalysis-2/maxwin/BulkDock/SCRATCH/511028/C27774-P224

>  <alias>  (1939) 
O=C(Nc1ccc2c(c1)CNC2)[C@H]1C[C@@H](Cl)[C@H]2N[C@@H](O)[C@H]3CN[C@@H]1[C@H]32

>  <HIPPO Compound ID>  (1939) 
27774

>  <fragmenstein_runtime>  (1939) 
4.260216

$$$$
O=C(Nc1ccc2c(c1)CNC2)c1ccc2c(c1)C1(CCCC1)CS2
     RDKit          3D

 25 29  0  0  0  0  0  0  0  0999 V2000
   -7.9396    6.5754  -13.5557 O   0  0  0  0  0  0  0  0  0  0  0  0
   -8.0423    5.4328  -13.7725 C   0  0  0  0  0  0  0  0  0  0  0  0
   -8.2825    4.2497  -12.8112 N   0  0  0  0  0  0  0  0  0  0  0  0
   -8.3497    4.2132  -11.4213 C   0  0  0  0  0  0  0  0  0  0  0  0
   -8.1654    5.3757  -10.6537 C   0  0  0  0  0  0  0  0  0  0  0  0
   -8.2631    5.3378   -9.2592 C   0  0  0  0  0  0  0  0  0  0  0  0
   -8.5630    4.1292   -8.6613 C   0  0  0  0  0  0  0  0  0  0  0  0
   -8.7276    2.9730   -9.4189 C   0  0  0  0  0  0  0  0  0  0  0  0
   -8.6110    2.9918  -10.7977 C   0  0  0  0  0  0  0  0  0  0  0  0
   -9.0242    1.8320   -8.5035 C   0  0  0  0  0  0  0  0  0  0  0  0
   -9.4271    2.4695   -7.2210 N   0  0  0  0  0  0  0  0  0  0  0  0
   -8.7686    3.7949   -7.2220 C   0  0  0  0  0  0  0  0  0  0  0  0
   -7.8951    4.9695  -15.1744 C   0  0  0  0  0  0  0  0  0  0  0  0
   -8.8616    4.1896  -15.8098 C   0  0  0  0  0  0  0  0  0  0  0  0
   -8.6943    3.8407  -17.1494 C   0  0  0  0  0  0  0  0  0  0  0  0
   -7.5616    4.2787  -17.8274 C   0  0  0  0  0  0  0  0  0  0  0  0
   -6.6003    5.0843  -17.2161 C   0  0  0  0  0  0  0  0  0  0  0  0
   -6.7703    5.4151  -15.8740 C   0  0  0  0  0  0  0  0  0  0  0  0
   -5.4550    5.5250  -18.1103 C   0  0  0  0  0  0  0  0  0  0  0  0
   -5.3263    7.0535  -18.2262 C   0  0  0  0  0  0  0  0  0  0  0  0
   -4.4849    7.5144  -17.0408 C   0  0  0  0  0  0  0  0  0  0  0  0
   -3.6647    6.3095  -16.6124 C   0  0  0  0  0  0  0  0  0  0  0  0
   -4.0695    5.1685  -17.5422 C   0  0  0  0  0  0  0  0  0  0  0  0
   -5.7033    4.9147  -19.5139 C   0  0  0  0  0  0  0  0  0  0  0  0
   -7.1721    3.8630  -19.4869 S   0  0  0  0  0  0  0  0  0  0  0  0
  1  2  2  0
  2  3  1  0
  3  4  1  0
  4  5  2  0
  5  6  1  0
  6  7  2  0
  7  8  1  0
  8  9  2  0
  8 10  1  0
 10 11  1  0
 11 12  1  0
  2 13  1  0
 13 14  2  0
 14 15  1  0
 15 16  2  0
 16 17  1  0
 17 18  2  0
 17 19  1  0
 19 20  1  0
 20 21  1  0
 21 22  1  0
 22 23  1  0
 19 24  1  0
 24 25  1  0
  9  4  1  0
 18 13  1  0
 23 19  1  0
 12  7  1  0
 25 16  1  0
M  END
>  <smiles>  (1940) 
C27816-P224

>  <fragmenstein_outcome>  (1940) 
acceptable

>  <inchikey>  (1940) 
ROJSONNSMZCBKO-UHFFFAOYSA-N

>  <fragmenstein_mode>  (1940) 
expansion

>  <HIPPO Pose ID>  (1940) 
24118

>  <Energy>  (1940) 
76.595774

>  <fragmenstein_error>  (1940) 


>  <tags>  (1940) 
{'openbind_xx01zvns2b_c1_fragmenstein', 'fragmenstein_placed'}

>  <ref_pdb>  (1940) 
175

>  <scratch_subdir>  (1940) 
/opt/xchem-fragalysis-2/maxwin/BulkDock/SCRATCH/511028/C27816-P224

>  <alias>  (1940) 
O=C(Nc1ccc2c(c1)CNC2)c1ccc2c(c1)C1(CCCC1)CS2

>  <HIPPO Compound ID>  (1940) 
27816

>  <fragmenstein_runtime>  (1940) 
6.027526

$$$$
C[C@@H](CN)c1csc2ccc(C(=O)Nc3ccc4c(c3)CNC4)cc12
     RDKit          3D

 25 28  0  0  0  0  0  0  0  0999 V2000
   -4.4771    7.4528  -17.4873 C   0  0  0  0  0  0  0  0  0  0  0  0
   -4.2404    5.9454  -17.6444 C   0  0  1  0  0  0  0  0  0  0  0  0
   -3.5740    5.3141  -16.3959 C   0  0  0  0  0  0  0  0  0  0  0  0
   -2.3096    5.9414  -16.0165 N   0  0  0  0  0  0  0  0  0  0  0  0
   -5.5232    5.2292  -18.0385 C   0  0  0  0  0  0  0  0  0  0  0  0
   -5.7701    4.7282  -19.3022 C   0  0  0  0  0  0  0  0  0  0  0  0
   -7.2548    3.9081  -19.4134 S   0  0  0  0  0  0  0  0  0  0  0  0
   -7.6549    4.2468  -17.7851 C   0  0  0  0  0  0  0  0  0  0  0  0
   -8.8231    3.8558  -17.1041 C   0  0  0  0  0  0  0  0  0  0  0  0
   -8.9700    4.2059  -15.7600 C   0  0  0  0  0  0  0  0  0  0  0  0
   -8.0060    4.9732  -15.1289 C   0  0  0  0  0  0  0  0  0  0  0  0
   -8.1353    5.4443  -13.7292 C   0  0  0  0  0  0  0  0  0  0  0  0
   -7.9658    6.5775  -13.5078 O   0  0  0  0  0  0  0  0  0  0  0  0
   -8.4013    4.2669  -12.7693 N   0  0  0  0  0  0  0  0  0  0  0  0
   -8.4200    4.2208  -11.3781 C   0  0  0  0  0  0  0  0  0  0  0  0
   -8.2314    5.3817  -10.6094 C   0  0  0  0  0  0  0  0  0  0  0  0
   -8.2978    5.3351   -9.2137 C   0  0  0  0  0  0  0  0  0  0  0  0
   -8.5782    4.1211   -8.6171 C   0  0  0  0  0  0  0  0  0  0  0  0
   -8.7447    2.9666   -9.3770 C   0  0  0  0  0  0  0  0  0  0  0  0
   -8.6502    2.9923  -10.7567 C   0  0  0  0  0  0  0  0  0  0  0  0
   -9.0284    1.8211   -8.4636 C   0  0  0  0  0  0  0  0  0  0  0  0
   -9.4225    2.4528   -7.1758 N   0  0  0  0  0  0  0  0  0  0  0  0
   -8.7687    3.7806   -7.1774 C   0  0  0  0  0  0  0  0  0  0  0  0
   -6.8678    5.3791  -15.8218 C   0  0  0  0  0  0  0  0  0  0  0  0
   -6.6504    4.9894  -17.1619 C   0  0  0  0  0  0  0  0  0  0  0  0
  2  1  1  1
  2  3  1  0
  3  4  1  0
  2  5  1  0
  5  6  2  0
  6  7  1  0
  7  8  1  0
  8  9  2  0
  9 10  1  0
 10 11  2  0
 11 12  1  0
 12 13  2  0
 12 14  1  0
 14 15  1  0
 15 16  2  0
 16 17  1  0
 17 18  2  0
 18 19  1  0
 19 20  2  0
 19 21  1  0
 21 22  1  0
 22 23  1  0
 11 24  1  0
 24 25  2  0
 25  5  1  0
 25  8  1  0
 20 15  1  0
 23 18  1  0
M  END
>  <smiles>  (1941) 
C27824-P224

>  <fragmenstein_outcome>  (1941) 
acceptable

>  <inchikey>  (1941) 
GEVZCSAWDOHYLB-UHFFFAOYSA-N

>  <fragmenstein_mode>  (1941) 
expansion

>  <HIPPO Pose ID>  (1941) 
24123

>  <Energy>  (1941) 
70.943703

>  <fragmenstein_error>  (1941) 


>  <tags>  (1941) 
{'openbind_xx01zvns2b_c1_fragmenstein', 'fragmenstein_placed'}

>  <ref_pdb>  (1941) 
175

>  <scratch_subdir>  (1941) 
/opt/xchem-fragalysis-2/maxwin/BulkDock/SCRATCH/511028/C27824-P224

>  <alias>  (1941) 
C[C@@H](CN)c1csc2ccc(C(=O)Nc3ccc4c(c3)CNC4)cc12

>  <HIPPO Compound ID>  (1941) 
21528

>  <fragmenstein_runtime>  (1941) 
3.872184

$$$$
Cc1sc2ccc(C(=O)Nc3ccc4c(c3)CNC4)cc2c1N
     RDKit          3D

 23 26  0  0  0  0  0  0  0  0999 V2000
   -5.3075    4.6830  -20.8021 C   0  0  0  0  0  0  0  0  0  0  0  0
   -5.9954    4.6111  -19.4861 C   0  0  0  0  0  0  0  0  0  0  0  0
   -7.5220    3.8601  -19.3912 S   0  0  0  0  0  0  0  0  0  0  0  0
   -7.7088    4.2328  -17.7357 C   0  0  0  0  0  0  0  0  0  0  0  0
   -8.8326    3.9501  -16.9416 C   0  0  0  0  0  0  0  0  0  0  0  0
   -8.8021    4.3024  -15.5946 C   0  0  0  0  0  0  0  0  0  0  0  0
   -7.6852    4.9303  -15.0559 C   0  0  0  0  0  0  0  0  0  0  0  0
   -7.6761    5.3919  -13.6448 C   0  0  0  0  0  0  0  0  0  0  0  0
   -7.3291    6.4831  -13.4153 O   0  0  0  0  0  0  0  0  0  0  0  0
   -8.1802    4.2808  -12.6966 N   0  0  0  0  0  0  0  0  0  0  0  0
   -8.2698    4.2491  -11.3091 C   0  0  0  0  0  0  0  0  0  0  0  0
   -8.0545    5.4006  -10.5377 C   0  0  0  0  0  0  0  0  0  0  0  0
   -8.1673    5.3561   -9.1449 C   0  0  0  0  0  0  0  0  0  0  0  0
   -8.4972    4.1507   -8.5518 C   0  0  0  0  0  0  0  0  0  0  0  0
   -8.7052    3.0097   -9.3151 C   0  0  0  0  0  0  0  0  0  0  0  0
   -8.5952    3.0379  -10.6947 C   0  0  0  0  0  0  0  0  0  0  0  0
   -9.0112    1.8590   -8.4202 C   0  0  0  0  0  0  0  0  0  0  0  0
   -9.1861    2.4326   -7.0596 N   0  0  0  0  0  0  0  0  0  0  0  0
   -8.6768    3.8196   -7.1106 C   0  0  0  0  0  0  0  0  0  0  0  0
   -6.5753    5.2198  -15.8551 C   0  0  0  0  0  0  0  0  0  0  0  0
   -6.5762    4.8686  -17.2258 C   0  0  0  0  0  0  0  0  0  0  0  0
   -5.5930    5.0701  -18.2534 C   0  0  0  0  0  0  0  0  0  0  0  0
   -4.3989    5.6644  -18.0283 N   0  0  0  0  0  0  0  0  0  0  0  0
  1  2  1  0
  2  3  1  0
  3  4  1  0
  4  5  2  0
  5  6  1  0
  6  7  2  0
  7  8  1  0
  8  9  2  0
  8 10  1  0
 10 11  1  0
 11 12  2  0
 12 13  1  0
 13 14  2  0
 14 15  1  0
 15 16  2  0
 15 17  1  0
 17 18  1  0
 18 19  1  0
  7 20  1  0
 20 21  2  0
 21 22  1  0
 22 23  1  0
 22  2  2  0
 21  4  1  0
 16 11  1  0
 19 14  1  0
M  END
>  <smiles>  (1942) 
C27831-P224

>  <fragmenstein_outcome>  (1942) 
acceptable

>  <inchikey>  (1942) 
ZROZSXVMNNEPHO-UHFFFAOYSA-N

>  <fragmenstein_mode>  (1942) 
expansion

>  <HIPPO Pose ID>  (1942) 
24127

>  <Energy>  (1942) 
47.291165

>  <fragmenstein_error>  (1942) 


>  <tags>  (1942) 
{'openbind_xx01zvns2b_c1_fragmenstein', 'fragmenstein_placed'}

>  <ref_pdb>  (1942) 
175

>  <scratch_subdir>  (1942) 
/opt/xchem-fragalysis-2/maxwin/BulkDock/SCRATCH/511028/C27831-P224

>  <alias>  (1942) 
Cc1sc2ccc(C(=O)Nc3ccc4c(c3)CNC4)cc2c1N

>  <HIPPO Compound ID>  (1942) 
27831

>  <fragmenstein_runtime>  (1942) 
2.16138

$$$$
C[C@@H]1C2=C(S[C@@H](O)N2)C(=O)C[C@H]1C(=O)Nc1ccc2c(c1)CNC2
     RDKit          3D

 24 27  0  0  0  0  0  0  0  0999 V2000
   -5.4892    6.1108  -15.3106 C   0  0  0  0  0  0  0  0  0  0  0  0
   -6.4143    4.9655  -15.7097 C   0  0  2  0  0  0  0  0  0  0  0  0
   -6.4317    4.7296  -17.2097 C   0  0  0  0  0  0  0  0  0  0  0  0
   -7.4568    4.1298  -17.8332 C   0  0  0  0  0  0  0  0  0  0  0  0
   -7.2242    3.9234  -19.5197 S   0  0  0  0  0  0  0  0  0  0  0  0
   -5.6303    4.7645  -19.4502 C   0  0  1  0  0  0  0  0  0  0  0  0
   -5.5597    5.9245  -20.2305 O   0  0  0  0  0  0  0  0  0  0  0  0
   -5.3903    5.1294  -18.0606 N   0  0  0  0  0  0  0  0  0  0  0  0
   -8.6421    3.6315  -17.1154 C   0  0  0  0  0  0  0  0  0  0  0  0
   -9.4611    2.8887  -17.6472 O   0  0  0  0  0  0  0  0  0  0  0  0
   -8.7366    3.9516  -15.6411 C   0  0  0  0  0  0  0  0  0  0  0  0
   -7.8702    5.1464  -15.2392 C   0  0  1  0  0  0  0  0  0  0  0  0
   -8.0079    5.6138  -13.7777 C   0  0  0  0  0  0  0  0  0  0  0  0
   -8.0236    6.7609  -13.5434 O   0  0  0  0  0  0  0  0  0  0  0  0
   -8.1356    4.3901  -12.8280 N   0  0  0  0  0  0  0  0  0  0  0  0
   -8.2106    4.3276  -11.4390 C   0  0  0  0  0  0  0  0  0  0  0  0
   -8.1307    5.4866  -10.6524 C   0  0  0  0  0  0  0  0  0  0  0  0
   -8.2505    5.4148   -9.2610 C   0  0  0  0  0  0  0  0  0  0  0  0
   -8.4831    4.1790   -8.6850 C   0  0  0  0  0  0  0  0  0  0  0  0
   -8.5783    3.0338   -9.4632 C   0  0  0  0  0  0  0  0  0  0  0  0
   -8.4211    3.0830  -10.8393 C   0  0  0  0  0  0  0  0  0  0  0  0
   -8.8768    1.8608   -8.5936 C   0  0  0  0  0  0  0  0  0  0  0  0
   -9.0419    2.3930   -7.2143 N   0  0  0  0  0  0  0  0  0  0  0  0
   -8.6816    3.8254   -7.2520 C   0  0  0  0  0  0  0  0  0  0  0  0
  2  1  1  6
  2  3  1  0
  3  4  2  0
  4  5  1  0
  5  6  1  0
  6  7  1  6
  6  8  1  0
  4  9  1  0
  9 10  2  0
  9 11  1  0
 11 12  1  0
 12 13  1  1
 13 14  2  0
 13 15  1  0
 15 16  1  0
 16 17  2  0
 17 18  1  0
 18 19  2  0
 19 20  1  0
 20 21  2  0
 20 22  1  0
 22 23  1  0
 23 24  1  0
 12  2  1  0
 21 16  1  0
  8  3  1  0
 24 19  1  0
M  END
>  <smiles>  (1943) 
C27832-P224

>  <fragmenstein_outcome>  (1943) 
acceptable

>  <inchikey>  (1943) 
DQOLZJYUJUUZOL-UHFFFAOYSA-N

>  <fragmenstein_mode>  (1943) 
expansion

>  <HIPPO Pose ID>  (1943) 
24128

>  <Energy>  (1943) 
6.381105

>  <fragmenstein_error>  (1943) 


>  <tags>  (1943) 
{'openbind_xx01zvns2b_c1_fragmenstein', 'fragmenstein_placed'}

>  <ref_pdb>  (1943) 
175

>  <scratch_subdir>  (1943) 
/opt/xchem-fragalysis-2/maxwin/BulkDock/SCRATCH/511028/C27832-P224

>  <alias>  (1943) 
C[C@@H]1C2=C(S[C@@H](O)N2)C(=O)C[C@H]1C(=O)Nc1ccc2c(c1)CNC2

>  <HIPPO Compound ID>  (1943) 
27832

>  <fragmenstein_runtime>  (1943) 
6.562358

$$$$
N#Cc1csc2ccc(C(=O)Nc3ccc4c(c3)CNC4)cc12
     RDKit          3D

 23 26  0  0  0  0  0  0  0  0999 V2000
   -3.2334    5.8007  -17.1860 N   0  0  0  0  0  0  0  0  0  0  0  0
   -4.2486    5.4558  -17.6281 C   0  0  0  0  0  0  0  0  0  0  0  0
   -5.5315    4.9845  -18.0418 C   0  0  0  0  0  0  0  0  0  0  0  0
   -5.8479    4.5891  -19.3183 C   0  0  0  0  0  0  0  0  0  0  0  0
   -7.4104    3.9089  -19.3871 S   0  0  0  0  0  0  0  0  0  0  0  0
   -7.7184    4.2326  -17.7325 C   0  0  0  0  0  0  0  0  0  0  0  0
   -8.8890    3.9399  -17.0138 C   0  0  0  0  0  0  0  0  0  0  0  0
   -8.9379    4.2658  -15.6564 C   0  0  0  0  0  0  0  0  0  0  0  0
   -7.8693    4.9029  -15.0424 C   0  0  0  0  0  0  0  0  0  0  0  0
   -7.9352    5.3796  -13.6421 C   0  0  0  0  0  0  0  0  0  0  0  0
   -7.6579    6.4916  -13.4226 O   0  0  0  0  0  0  0  0  0  0  0  0
   -8.3374    4.2416  -12.6827 N   0  0  0  0  0  0  0  0  0  0  0  0
   -8.3897    4.2072  -11.2931 C   0  0  0  0  0  0  0  0  0  0  0  0
   -8.1722    5.3645  -10.5291 C   0  0  0  0  0  0  0  0  0  0  0  0
   -8.2423    5.3219   -9.1338 C   0  0  0  0  0  0  0  0  0  0  0  0
   -8.5397    4.1137   -8.5308 C   0  0  0  0  0  0  0  0  0  0  0  0
   -8.7468    2.9669   -9.2865 C   0  0  0  0  0  0  0  0  0  0  0  0
   -8.6684    2.9911  -10.6682 C   0  0  0  0  0  0  0  0  0  0  0  0
   -9.0193    1.8162   -8.3807 C   0  0  0  0  0  0  0  0  0  0  0  0
   -9.1957    2.3982   -7.0243 N   0  0  0  0  0  0  0  0  0  0  0  0
   -8.6875    3.7849   -7.0855 C   0  0  0  0  0  0  0  0  0  0  0  0
   -6.7087    5.1853  -15.7585 C   0  0  0  0  0  0  0  0  0  0  0  0
   -6.6189    4.8378  -17.1244 C   0  0  0  0  0  0  0  0  0  0  0  0
  1  2  3  0
  2  3  1  0
  3  4  2  0
  4  5  1  0
  5  6  1  0
  6  7  2  0
  7  8  1  0
  8  9  2  0
  9 10  1  0
 10 11  2  0
 10 12  1  0
 12 13  1  0
 13 14  2  0
 14 15  1  0
 15 16  2  0
 16 17  1  0
 17 18  2  0
 17 19  1  0
 19 20  1  0
 20 21  1  0
  9 22  1  0
 22 23  2  0
 23  3  1  0
 23  6  1  0
 18 13  1  0
 21 16  1  0
M  END
>  <smiles>  (1944) 
C27833-P224

>  <fragmenstein_outcome>  (1944) 
acceptable

>  <inchikey>  (1944) 
AAOWTMGLVHBFNB-UHFFFAOYSA-N

>  <fragmenstein_mode>  (1944) 
expansion

>  <HIPPO Pose ID>  (1944) 
24129

>  <Energy>  (1944) 
61.317238

>  <fragmenstein_error>  (1944) 


>  <tags>  (1944) 
{'openbind_xx01zvns2b_c1_fragmenstein', 'fragmenstein_placed'}

>  <ref_pdb>  (1944) 
175

>  <scratch_subdir>  (1944) 
/opt/xchem-fragalysis-2/maxwin/BulkDock/SCRATCH/511028/C27833-P224

>  <alias>  (1944) 
N#Cc1csc2ccc(C(=O)Nc3ccc4c(c3)CNC4)cc12

>  <HIPPO Compound ID>  (1944) 
27833

>  <fragmenstein_runtime>  (1944) 
1.961145

$$$$
CNc1csc2ccc(C(=O)Nc3ccc4c(c3)CNC4)cc12
     RDKit          3D

 23 26  0  0  0  0  0  0  0  0999 V2000
   -3.5416    5.7894  -16.9163 C   0  0  0  0  0  0  0  0  0  0  0  0
   -4.2600    5.6751  -18.1654 N   0  0  0  0  0  0  0  0  0  0  0  0
   -5.4916    5.0990  -18.2856 C   0  0  0  0  0  0  0  0  0  0  0  0
   -5.9015    4.6240  -19.5100 C   0  0  0  0  0  0  0  0  0  0  0  0
   -7.4133    3.8586  -19.4424 S   0  0  0  0  0  0  0  0  0  0  0  0
   -7.6226    4.2483  -17.7908 C   0  0  0  0  0  0  0  0  0  0  0  0
   -8.7597    3.9479  -17.0164 C   0  0  0  0  0  0  0  0  0  0  0  0
   -8.7728    4.3074  -15.6720 C   0  0  0  0  0  0  0  0  0  0  0  0
   -7.6858    4.9689  -15.1185 C   0  0  0  0  0  0  0  0  0  0  0  0
   -7.7064    5.4340  -13.7069 C   0  0  0  0  0  0  0  0  0  0  0  0
   -7.3800    6.5313  -13.4756 O   0  0  0  0  0  0  0  0  0  0  0  0
   -8.1874    4.3108  -12.7598 N   0  0  0  0  0  0  0  0  0  0  0  0
   -8.2736    4.2744  -11.3711 C   0  0  0  0  0  0  0  0  0  0  0  0
   -8.0664    5.4264  -10.5979 C   0  0  0  0  0  0  0  0  0  0  0  0
   -8.1709    5.3783   -9.2043 C   0  0  0  0  0  0  0  0  0  0  0  0
   -8.4856    4.1690   -8.6111 C   0  0  0  0  0  0  0  0  0  0  0  0
   -8.6867    3.0276   -9.3752 C   0  0  0  0  0  0  0  0  0  0  0  0
   -8.5835    3.0590  -10.7560 C   0  0  0  0  0  0  0  0  0  0  0  0
   -8.9848    1.8739   -8.4812 C   0  0  0  0  0  0  0  0  0  0  0  0
   -9.1357    2.4387   -7.1138 N   0  0  0  0  0  0  0  0  0  0  0  0
   -8.6585    3.8366   -7.1696 C   0  0  0  0  0  0  0  0  0  0  0  0
   -6.5674    5.2826  -15.9011 C   0  0  0  0  0  0  0  0  0  0  0  0
   -6.5051    4.9124  -17.2680 C   0  0  0  0  0  0  0  0  0  0  0  0
  1  2  1  0
  2  3  1  0
  3  4  2  0
  4  5  1  0
  5  6  1  0
  6  7  2  0
  7  8  1  0
  8  9  2  0
  9 10  1  0
 10 11  2  0
 10 12  1  0
 12 13  1  0
 13 14  2  0
 14 15  1  0
 15 16  2  0
 16 17  1  0
 17 18  2  0
 17 19  1  0
 19 20  1  0
 20 21  1  0
  9 22  1  0
 22 23  2  0
 23  3  1  0
 23  6  1  0
 18 13  1  0
 21 16  1  0
M  END
>  <smiles>  (1945) 
C27836-P224

>  <fragmenstein_outcome>  (1945) 
acceptable

>  <inchikey>  (1945) 
HOTLWBBYPAKMHG-UHFFFAOYSA-N

>  <fragmenstein_mode>  (1945) 
expansion

>  <HIPPO Pose ID>  (1945) 
24130

>  <Energy>  (1945) 
54.087766

>  <fragmenstein_error>  (1945) 


>  <tags>  (1945) 
{'openbind_xx01zvns2b_c1_fragmenstein', 'fragmenstein_placed'}

>  <ref_pdb>  (1945) 
175

>  <scratch_subdir>  (1945) 
/opt/xchem-fragalysis-2/maxwin/BulkDock/SCRATCH/511028/C27836-P224

>  <alias>  (1945) 
CNc1csc2ccc(C(=O)Nc3ccc4c(c3)CNC4)cc12

>  <HIPPO Compound ID>  (1945) 
27836

>  <fragmenstein_runtime>  (1945) 
2.185144

$$$$
CN1Cc2cc(NC(=O)c3cc(Cl)c4sc(NC(C)(C)CO)c(O)c4c3)cc(O)c2C1
     RDKit          3D

 31 34  0  0  0  0  0  0  0  0999 V2000
  -10.2710    2.2538   -6.2338 C   0  0  0  0  0  0  0  0  0  0  0  0
   -9.0630    2.5562   -6.9767 N   0  0  0  0  0  0  0  0  0  0  0  0
   -9.0497    1.9692   -8.3361 C   0  0  0  0  0  0  0  0  0  0  0  0
   -8.6947    3.0882   -9.2621 C   0  0  0  0  0  0  0  0  0  0  0  0
   -8.5275    3.0659  -10.6392 C   0  0  0  0  0  0  0  0  0  0  0  0
   -8.1792    4.2563  -11.2827 C   0  0  0  0  0  0  0  0  0  0  0  0
   -7.9791    4.2440  -12.6609 N   0  0  0  0  0  0  0  0  0  0  0  0
   -7.5012    5.3597  -13.6150 C   0  0  0  0  0  0  0  0  0  0  0  0
   -7.1264    6.4417  -13.3868 O   0  0  0  0  0  0  0  0  0  0  0  0
   -7.5001    4.9116  -15.0256 C   0  0  0  0  0  0  0  0  0  0  0  0
   -8.6661    4.4705  -15.6301 C   0  0  0  0  0  0  0  0  0  0  0  0
   -8.6796    4.2343  -17.0036 C   0  0  0  0  0  0  0  0  0  0  0  0
  -10.1727    3.9203  -17.7827 Cl  0  0  0  0  0  0  0  0  0  0  0  0
   -7.4995    4.3853  -17.7534 C   0  0  0  0  0  0  0  0  0  0  0  0
   -7.2467    4.0509  -19.4159 S   0  0  0  0  0  0  0  0  0  0  0  0
   -5.7124    4.8070  -19.4426 C   0  0  0  0  0  0  0  0  0  0  0  0
   -5.1136    5.0162  -20.6551 N   0  0  0  0  0  0  0  0  0  0  0  0
   -4.3545    6.2429  -21.0269 C   0  0  0  0  0  0  0  0  0  0  0  0
   -4.7865    6.6325  -22.4609 C   0  0  0  0  0  0  0  0  0  0  0  0
   -4.6455    7.4682  -20.1455 C   0  0  0  0  0  0  0  0  0  0  0  0
   -2.8361    5.9072  -21.0910 C   0  0  0  0  0  0  0  0  0  0  0  0
   -2.2391    5.6698  -19.8206 O   0  0  0  0  0  0  0  0  0  0  0  0
   -5.2953    5.0182  -18.1458 C   0  0  0  0  0  0  0  0  0  0  0  0
   -4.0319    5.3949  -17.8606 O   0  0  0  0  0  0  0  0  0  0  0  0
   -6.3232    4.8468  -17.1624 C   0  0  0  0  0  0  0  0  0  0  0  0
   -6.3330    5.1077  -15.7722 C   0  0  0  0  0  0  0  0  0  0  0  0
   -8.0195    5.4415  -10.5465 C   0  0  0  0  0  0  0  0  0  0  0  0
   -8.2033    5.4404   -9.1644 C   0  0  0  0  0  0  0  0  0  0  0  0
   -8.0691    6.5792   -8.4283 O   0  0  0  0  0  0  0  0  0  0  0  0
   -8.5338    4.2615   -8.5335 C   0  0  0  0  0  0  0  0  0  0  0  0
   -8.7823    3.9981   -7.0874 C   0  0  0  0  0  0  0  0  0  0  0  0
  1  2  1  0
  2  3  1  0
  3  4  1  0
  4  5  2  0
  5  6  1  0
  6  7  1  0
  7  8  1  0
  8  9  2  0
  8 10  1  0
 10 11  2  0
 11 12  1  0
 12 13  1  0
 12 14  2  0
 14 15  1  0
 15 16  1  0
 16 17  1  0
 17 18  1  0
 18 19  1  0
 18 20  1  0
 18 21  1  0
 21 22  1  0
 16 23  2  0
 23 24  1  0
 23 25  1  0
 25 26  2  0
  6 27  2  0
 27 28  1  0
 28 29  1  0
 28 30  2  0
 30 31  1  0
 31  2  1  0
 30  4  1  0
 26 10  1  0
 25 14  1  0
M  END
>  <smiles>  (1946) 
C27866-P224

>  <fragmenstein_outcome>  (1946) 
acceptable

>  <inchikey>  (1946) 
VYCSXADUWXUQGL-UHFFFAOYSA-N

>  <fragmenstein_mode>  (1946) 
expansion

>  <HIPPO Pose ID>  (1946) 
24139

>  <Energy>  (1946) 
90.030505

>  <fragmenstein_error>  (1946) 


>  <tags>  (1946) 
{'openbind_xx01zvns2b_c1_fragmenstein', 'fragmenstein_placed'}

>  <ref_pdb>  (1946) 
175

>  <scratch_subdir>  (1946) 
/opt/xchem-fragalysis-2/maxwin/BulkDock/SCRATCH/511028/C27866-P224

>  <alias>  (1946) 
CN1Cc2cc(NC(=O)c3cc(Cl)c4sc(NC(C)(C)CO)c(O)c4c3)cc(O)c2C1

>  <HIPPO Compound ID>  (1946) 
27866

>  <fragmenstein_runtime>  (1946) 
10.083026

$$$$
C[C@H]1NCc2cc(NC(=O)c3cc(Cl)c4scc(C(=O)OCc5ccccc5)c4c3)ccc21
     RDKit          3D

 33 37  0  0  0  0  0  0  0  0999 V2000
   -9.2043    4.8310   -6.1674 C   0  0  0  0  0  0  0  0  0  0  0  0
   -8.5150    3.8433   -7.0972 C   0  0  1  0  0  0  0  0  0  0  0  0
   -9.1967    2.5277   -7.0642 N   0  0  0  0  0  0  0  0  0  0  0  0
   -9.0114    1.9339   -8.4147 C   0  0  0  0  0  0  0  0  0  0  0  0
   -8.7015    3.0834   -9.3158 C   0  0  0  0  0  0  0  0  0  0  0  0
   -8.5858    3.1020  -10.6987 C   0  0  0  0  0  0  0  0  0  0  0  0
   -8.2094    4.2970  -11.3165 C   0  0  0  0  0  0  0  0  0  0  0  0
   -8.0082    4.3060  -12.6959 N   0  0  0  0  0  0  0  0  0  0  0  0
   -7.4956    5.4276  -13.6290 C   0  0  0  0  0  0  0  0  0  0  0  0
   -7.0891    6.4937  -13.3789 O   0  0  0  0  0  0  0  0  0  0  0  0
   -7.4828    4.9945  -15.0492 C   0  0  0  0  0  0  0  0  0  0  0  0
   -8.6283    4.5161  -15.6609 C   0  0  0  0  0  0  0  0  0  0  0  0
   -8.6137    4.2549  -17.0296 C   0  0  0  0  0  0  0  0  0  0  0  0
  -10.0898    3.8835  -17.8189 Cl  0  0  0  0  0  0  0  0  0  0  0  0
   -7.4248    4.4085  -17.7704 C   0  0  0  0  0  0  0  0  0  0  0  0
   -7.1673    4.0370  -19.4257 S   0  0  0  0  0  0  0  0  0  0  0  0
   -5.6147    4.7075  -19.4198 C   0  0  0  0  0  0  0  0  0  0  0  0
   -5.1935    5.0828  -18.1583 C   0  0  0  0  0  0  0  0  0  0  0  0
   -3.8400    5.5958  -17.9504 C   0  0  0  0  0  0  0  0  0  0  0  0
   -3.1177    5.9548  -18.8733 O   0  0  0  0  0  0  0  0  0  0  0  0
   -3.4745    5.6068  -16.6410 O   0  0  0  0  0  0  0  0  0  0  0  0
   -2.2099    6.2091  -16.3502 C   0  0  0  0  0  0  0  0  0  0  0  0
   -2.4180    7.6715  -16.0546 C   0  0  0  0  0  0  0  0  0  0  0  0
   -1.9587    8.6515  -16.9445 C   0  0  0  0  0  0  0  0  0  0  0  0
   -2.1729   10.0048  -16.6773 C   0  0  0  0  0  0  0  0  0  0  0  0
   -2.8541   10.3901  -15.5238 C   0  0  0  0  0  0  0  0  0  0  0  0
   -3.3248    9.4232  -14.6375 C   0  0  0  0  0  0  0  0  0  0  0  0
   -3.1090    8.0701  -14.9009 C   0  0  0  0  0  0  0  0  0  0  0  0
   -6.2579    4.9119  -17.1810 C   0  0  0  0  0  0  0  0  0  0  0  0
   -6.3160    5.2122  -15.7944 C   0  0  0  0  0  0  0  0  0  0  0  0
   -7.9911    5.4491  -10.5447 C   0  0  0  0  0  0  0  0  0  0  0  0
   -8.1089    5.4149   -9.1501 C   0  0  0  0  0  0  0  0  0  0  0  0
   -8.4525    4.2186   -8.5466 C   0  0  0  0  0  0  0  0  0  0  0  0
  2  1  1  1
  2  3  1  0
  3  4  1  0
  4  5  1  0
  5  6  2  0
  6  7  1  0
  7  8  1  0
  8  9  1  0
  9 10  2  0
  9 11  1  0
 11 12  2  0
 12 13  1  0
 13 14  1  0
 13 15  2  0
 15 16  1  0
 16 17  1  0
 17 18  2  0
 18 19  1  0
 19 20  2  0
 19 21  1  0
 21 22  1  0
 22 23  1  0
 23 24  2  0
 24 25  1  0
 25 26  2  0
 26 27  1  0
 27 28  2  0
 18 29  1  0
 29 30  2  0
  7 31  2  0
 31 32  1  0
 32 33  2  0
 33  2  1  0
 33  5  1  0
 30 11  1  0
 29 15  1  0
 28 23  1  0
M  END
>  <smiles>  (1947) 
C27899-P224

>  <fragmenstein_outcome>  (1947) 
acceptable

>  <inchikey>  (1947) 
JQDYTNSMZCAEPB-UHFFFAOYSA-N

>  <fragmenstein_mode>  (1947) 
expansion

>  <HIPPO Pose ID>  (1947) 
24145

>  <Energy>  (1947) 
66.253419

>  <fragmenstein_error>  (1947) 


>  <tags>  (1947) 
{'openbind_xx01zvns2b_c1_fragmenstein', 'fragmenstein_placed'}

>  <ref_pdb>  (1947) 
175

>  <scratch_subdir>  (1947) 
/opt/xchem-fragalysis-2/maxwin/BulkDock/SCRATCH/511028/C27899-P224

>  <alias>  (1947) 
C[C@H]1NCc2cc(NC(=O)c3cc(Cl)c4scc(C(=O)OCc5ccccc5)c4c3)ccc21

>  <HIPPO Compound ID>  (1947) 
42267

>  <fragmenstein_runtime>  (1947) 
4.694422

$$$$
CC(=O)c1csc2ccc(C(=O)Nc3ccc4c(c3)CNC4)cc12
     RDKit          3D

 24 27  0  0  0  0  0  0  0  0999 V2000
   -3.7547    5.5152  -16.2102 C   0  0  0  0  0  0  0  0  0  0  0  0
   -4.1270    5.2452  -17.6426 C   0  0  0  0  0  0  0  0  0  0  0  0
   -3.2413    5.2848  -18.4997 O   0  0  0  0  0  0  0  0  0  0  0  0
   -5.5075    4.8989  -17.9955 C   0  0  0  0  0  0  0  0  0  0  0  0
   -5.8458    4.5514  -19.2903 C   0  0  0  0  0  0  0  0  0  0  0  0
   -7.4070    3.9008  -19.4094 S   0  0  0  0  0  0  0  0  0  0  0  0
   -7.7427    4.2076  -17.7634 C   0  0  0  0  0  0  0  0  0  0  0  0
   -8.9362    3.8994  -17.0874 C   0  0  0  0  0  0  0  0  0  0  0  0
   -9.0415    4.2114  -15.7332 C   0  0  0  0  0  0  0  0  0  0  0  0
   -8.0170    4.8786  -15.0909 C   0  0  0  0  0  0  0  0  0  0  0  0
   -8.1268    5.3625  -13.6973 C   0  0  0  0  0  0  0  0  0  0  0  0
   -7.9542    6.4986  -13.4941 O   0  0  0  0  0  0  0  0  0  0  0  0
   -8.4023    4.2031  -12.7198 N   0  0  0  0  0  0  0  0  0  0  0  0
   -8.4286    4.1803  -11.3292 C   0  0  0  0  0  0  0  0  0  0  0  0
   -8.1903    5.3427  -10.5782 C   0  0  0  0  0  0  0  0  0  0  0  0
   -8.2380    5.3133   -9.1814 C   0  0  0  0  0  0  0  0  0  0  0  0
   -8.5316    4.1122   -8.5628 C   0  0  0  0  0  0  0  0  0  0  0  0
   -8.7534    2.9594   -9.3049 C   0  0  0  0  0  0  0  0  0  0  0  0
   -8.6973    2.9709  -10.6881 C   0  0  0  0  0  0  0  0  0  0  0  0
   -9.0180    1.8183   -8.3846 C   0  0  0  0  0  0  0  0  0  0  0  0
   -9.1746    2.4138   -7.0319 N   0  0  0  0  0  0  0  0  0  0  0  0
   -8.6638    3.7983   -7.1126 C   0  0  0  0  0  0  0  0  0  0  0  0
   -6.8383    5.1820  -15.7690 C   0  0  0  0  0  0  0  0  0  0  0  0
   -6.6573    4.8114  -17.1213 C   0  0  0  0  0  0  0  0  0  0  0  0
  1  2  1  0
  2  3  2  0
  2  4  1  0
  4  5  2  0
  5  6  1  0
  6  7  1  0
  7  8  2  0
  8  9  1  0
  9 10  2  0
 10 11  1  0
 11 12  2  0
 11 13  1  0
 13 14  1  0
 14 15  2  0
 15 16  1  0
 16 17  2  0
 17 18  1  0
 18 19  2  0
 18 20  1  0
 20 21  1  0
 21 22  1  0
 10 23  1  0
 23 24  2  0
 24  4  1  0
 24  7  1  0
 19 14  1  0
 22 17  1  0
M  END
>  <smiles>  (1948) 
C27917-P224

>  <fragmenstein_outcome>  (1948) 
acceptable

>  <inchikey>  (1948) 
BHGOALZCCRBHNI-UHFFFAOYSA-N

>  <fragmenstein_mode>  (1948) 
expansion

>  <HIPPO Pose ID>  (1948) 
24147

>  <Energy>  (1948) 
69.184459

>  <fragmenstein_error>  (1948) 


>  <tags>  (1948) 
{'openbind_xx01zvns2b_c1_fragmenstein', 'fragmenstein_placed'}

>  <ref_pdb>  (1948) 
175

>  <scratch_subdir>  (1948) 
/opt/xchem-fragalysis-2/maxwin/BulkDock/SCRATCH/511028/C27917-P224

>  <alias>  (1948) 
CC(=O)c1csc2ccc(C(=O)Nc3ccc4c(c3)CNC4)cc12

>  <HIPPO Compound ID>  (1948) 
27917

>  <fragmenstein_runtime>  (1948) 
3.457888

$$$$
Cc1csc2ccc(C(=O)Nc3ccc4c(c3)CNC4)cc12
     RDKit          3D

 22 25  0  0  0  0  0  0  0  0999 V2000
   -4.2411    5.8085  -17.9101 C   0  0  0  0  0  0  0  0  0  0  0  0
   -5.5334    5.1320  -18.2092 C   0  0  0  0  0  0  0  0  0  0  0  0
   -5.8991    4.6399  -19.4440 C   0  0  0  0  0  0  0  0  0  0  0  0
   -7.4138    3.8697  -19.4172 S   0  0  0  0  0  0  0  0  0  0  0  0
   -7.6660    4.2431  -17.7678 C   0  0  0  0  0  0  0  0  0  0  0  0
   -8.8031    3.9340  -17.0017 C   0  0  0  0  0  0  0  0  0  0  0  0
   -8.8172    4.2900  -15.6536 C   0  0  0  0  0  0  0  0  0  0  0  0
   -7.7340    4.9533  -15.0896 C   0  0  0  0  0  0  0  0  0  0  0  0
   -7.7616    5.4159  -13.6798 C   0  0  0  0  0  0  0  0  0  0  0  0
   -7.4693    6.5221  -13.4475 O   0  0  0  0  0  0  0  0  0  0  0  0
   -8.2049    4.2779  -12.7348 N   0  0  0  0  0  0  0  0  0  0  0  0
   -8.2873    4.2366  -11.3467 C   0  0  0  0  0  0  0  0  0  0  0  0
   -8.0967    5.3900  -10.5692 C   0  0  0  0  0  0  0  0  0  0  0  0
   -8.2243    5.3425   -9.1775 C   0  0  0  0  0  0  0  0  0  0  0  0
   -8.5549    4.1339   -8.5945 C   0  0  0  0  0  0  0  0  0  0  0  0
   -8.7260    2.9866   -9.3636 C   0  0  0  0  0  0  0  0  0  0  0  0
   -8.5891    3.0157  -10.7393 C   0  0  0  0  0  0  0  0  0  0  0  0
   -9.0471    1.8409   -8.4632 C   0  0  0  0  0  0  0  0  0  0  0  0
   -9.4601    2.4716   -7.1810 N   0  0  0  0  0  0  0  0  0  0  0  0
   -8.7864    3.7898   -7.1614 C   0  0  0  0  0  0  0  0  0  0  0  0
   -6.6136    5.2708  -15.8606 C   0  0  0  0  0  0  0  0  0  0  0  0
   -6.5664    4.9109  -17.2266 C   0  0  0  0  0  0  0  0  0  0  0  0
  1  2  1  0
  2  3  2  0
  3  4  1  0
  4  5  1  0
  5  6  2  0
  6  7  1  0
  7  8  2  0
  8  9  1  0
  9 10  2  0
  9 11  1  0
 11 12  1  0
 12 13  2  0
 13 14  1  0
 14 15  2  0
 15 16  1  0
 16 17  2  0
 16 18  1  0
 18 19  1  0
 19 20  1  0
  8 21  1  0
 21 22  2  0
 22  2  1  0
 22  5  1  0
 17 12  1  0
 20 15  1  0
M  END
>  <smiles>  (1949) 
C27919-P224

>  <fragmenstein_outcome>  (1949) 
acceptable

>  <inchikey>  (1949) 
OQKHXNIPODPCTQ-UHFFFAOYSA-N

>  <fragmenstein_mode>  (1949) 
expansion

>  <HIPPO Pose ID>  (1949) 
24148

>  <Energy>  (1949) 
54.171898

>  <fragmenstein_error>  (1949) 


>  <tags>  (1949) 
{'openbind_xx01zvns2b_c1_fragmenstein', 'fragmenstein_placed'}

>  <ref_pdb>  (1949) 
175

>  <scratch_subdir>  (1949) 
/opt/xchem-fragalysis-2/maxwin/BulkDock/SCRATCH/511028/C27919-P224

>  <alias>  (1949) 
Cc1csc2ccc(C(=O)Nc3ccc4c(c3)CNC4)cc12

>  <HIPPO Compound ID>  (1949) 
42529

>  <fragmenstein_runtime>  (1949) 
2.979615

$$$$
Cc1csc2c(Cl)cc([C@@](O)(Nc3ccc4c(c3)CNC4)C(=O)NCC(F)F)cc12
     RDKit          3D

 30 33  0  0  0  0  0  0  0  0999 V2000
   -3.8531    5.4964  -17.8496 C   0  0  0  0  0  0  0  0  0  0  0  0
   -5.2157    4.9968  -18.1804 C   0  0  0  0  0  0  0  0  0  0  0  0
   -5.6423    4.6645  -19.4478 C   0  0  0  0  0  0  0  0  0  0  0  0
   -7.2151    4.0310  -19.4544 S   0  0  0  0  0  0  0  0  0  0  0  0
   -7.4467    4.3583  -17.7871 C   0  0  0  0  0  0  0  0  0  0  0  0
   -8.6178    4.2278  -17.0276 C   0  0  0  0  0  0  0  0  0  0  0  0
  -10.1303    3.9398  -17.7879 Cl  0  0  0  0  0  0  0  0  0  0  0  0
   -8.5604    4.4189  -15.6433 C   0  0  0  0  0  0  0  0  0  0  0  0
   -7.3640    4.7538  -14.9923 C   0  0  0  0  0  0  0  0  0  0  0  0
   -7.3188    5.0402  -13.4914 C   0  0  1  0  0  0  0  0  0  0  0  0
   -7.6716    6.4170  -13.4258 O   0  0  0  0  0  0  0  0  0  0  0  0
   -8.3256    4.2508  -12.7766 N   0  0  0  0  0  0  0  0  0  0  0  0
   -8.3788    4.2257  -11.3808 C   0  0  0  0  0  0  0  0  0  0  0  0
   -8.1795    5.3715  -10.5853 C   0  0  0  0  0  0  0  0  0  0  0  0
   -8.2358    5.3216   -9.1877 C   0  0  0  0  0  0  0  0  0  0  0  0
   -8.5141    4.1109   -8.5886 C   0  0  0  0  0  0  0  0  0  0  0  0
   -8.7261    2.9746   -9.3523 C   0  0  0  0  0  0  0  0  0  0  0  0
   -8.6676    3.0145  -10.7365 C   0  0  0  0  0  0  0  0  0  0  0  0
   -8.9890    1.8137   -8.4565 C   0  0  0  0  0  0  0  0  0  0  0  0
   -9.1354    2.3773   -7.0877 N   0  0  0  0  0  0  0  0  0  0  0  0
   -8.6588    3.7745   -7.1454 C   0  0  0  0  0  0  0  0  0  0  0  0
   -5.8514    4.8523  -12.8354 C   0  0  0  0  0  0  0  0  0  0  0  0
   -5.2018    5.7921  -12.5725 O   0  0  0  0  0  0  0  0  0  0  0  0
   -5.5812    3.3421  -12.5925 N   0  0  0  0  0  0  0  0  0  0  0  0
   -4.5000    2.6807  -11.8904 C   0  0  0  0  0  0  0  0  0  0  0  0
   -4.7726    2.4887  -10.3983 C   0  0  0  0  0  0  0  0  0  0  0  0
   -3.5927    2.3213   -9.7411 F   0  0  0  0  0  0  0  0  0  0  0  0
   -5.4869    1.3538  -10.2066 F   0  0  0  0  0  0  0  0  0  0  0  0
   -6.2339    4.9821  -15.7955 C   0  0  0  0  0  0  0  0  0  0  0  0
   -6.2563    4.7891  -17.2005 C   0  0  0  0  0  0  0  0  0  0  0  0
  1  2  1  0
  2  3  2  0
  3  4  1  0
  4  5  1  0
  5  6  2  0
  6  7  1  0
  6  8  1  0
  8  9  2  0
  9 10  1  0
 10 11  1  6
 10 12  1  0
 12 13  1  0
 13 14  2  0
 14 15  1  0
 15 16  2  0
 16 17  1  0
 17 18  2  0
 17 19  1  0
 19 20  1  0
 20 21  1  0
 10 22  1  0
 22 23  2  0
 22 24  1  0
 24 25  1  0
 25 26  1  0
 26 27  1  0
 26 28  1  0
  9 29  1  0
 29 30  2  0
 30  2  1  0
 30  5  1  0
 18 13  1  0
 21 16  1  0
M  END
>  <smiles>  (1950) 
C27951-P224

>  <fragmenstein_outcome>  (1950) 
acceptable

>  <inchikey>  (1950) 
MMWWWFQPWJSRTK-UHFFFAOYSA-N

>  <fragmenstein_mode>  (1950) 
expansion

>  <HIPPO Pose ID>  (1950) 
24160

>  <Energy>  (1950) 
133.925121

>  <fragmenstein_error>  (1950) 


>  <tags>  (1950) 
{'openbind_xx01zvns2b_c1_fragmenstein', 'fragmenstein_placed'}

>  <ref_pdb>  (1950) 
175

>  <scratch_subdir>  (1950) 
/opt/xchem-fragalysis-2/maxwin/BulkDock/SCRATCH/511028/C27951-P224

>  <alias>  (1950) 
Cc1csc2c(Cl)cc([C@@](O)(Nc3ccc4c(c3)CNC4)C(=O)NCC(F)F)cc12

>  <HIPPO Compound ID>  (1950) 
19657

>  <fragmenstein_runtime>  (1950) 
6.96534

$$$$
CNCc1csc2c(Br)cc(C(=O)Nc3ccc4c(c3)CNC4)cc12
     RDKit          3D

 25 28  0  0  0  0  0  0  0  0999 V2000
   -2.8522    7.4033  -16.4281 C   0  0  0  0  0  0  0  0  0  0  0  0
   -4.0873    6.9009  -17.0108 N   0  0  0  0  0  0  0  0  0  0  0  0
   -3.9310    5.5211  -17.4582 C   0  0  0  0  0  0  0  0  0  0  0  0
   -5.2651    5.0205  -17.9051 C   0  0  0  0  0  0  0  0  0  0  0  0
   -5.6083    4.7128  -19.2046 C   0  0  0  0  0  0  0  0  0  0  0  0
   -7.1861    4.1020  -19.3280 S   0  0  0  0  0  0  0  0  0  0  0  0
   -7.5223    4.3959  -17.6708 C   0  0  0  0  0  0  0  0  0  0  0  0
   -8.7419    4.2800  -16.9837 C   0  0  0  0  0  0  0  0  0  0  0  0
  -10.3610    4.0891  -17.9159 Br  0  0  0  0  0  0  0  0  0  0  0  0
   -8.7888    4.4839  -15.6060 C   0  0  0  0  0  0  0  0  0  0  0  0
   -7.6457    4.8664  -14.9322 C   0  0  0  0  0  0  0  0  0  0  0  0
   -7.7083    5.3211  -13.5316 C   0  0  0  0  0  0  0  0  0  0  0  0
   -7.4383    6.4311  -13.2964 O   0  0  0  0  0  0  0  0  0  0  0  0
   -8.1647    4.1857  -12.5982 N   0  0  0  0  0  0  0  0  0  0  0  0
   -8.2901    4.1497  -11.2160 C   0  0  0  0  0  0  0  0  0  0  0  0
   -8.0744    5.2988  -10.4372 C   0  0  0  0  0  0  0  0  0  0  0  0
   -8.2267    5.2596   -9.0491 C   0  0  0  0  0  0  0  0  0  0  0  0
   -8.5961    4.0607   -8.4716 C   0  0  0  0  0  0  0  0  0  0  0  0
   -8.7861    2.9170   -9.2428 C   0  0  0  0  0  0  0  0  0  0  0  0
   -8.6387    2.9408  -10.6161 C   0  0  0  0  0  0  0  0  0  0  0  0
   -9.1211    1.7764   -8.3430 C   0  0  0  0  0  0  0  0  0  0  0  0
   -9.5454    2.4145   -7.0693 N   0  0  0  0  0  0  0  0  0  0  0  0
   -8.8491    3.7210   -7.0411 C   0  0  0  0  0  0  0  0  0  0  0  0
   -6.4388    5.0145  -15.6044 C   0  0  0  0  0  0  0  0  0  0  0  0
   -6.3676    4.8010  -17.0003 C   0  0  0  0  0  0  0  0  0  0  0  0
  1  2  1  0
  2  3  1  0
  3  4  1  0
  4  5  2  0
  5  6  1  0
  6  7  1  0
  7  8  2  0
  8  9  1  0
  8 10  1  0
 10 11  2  0
 11 12  1  0
 12 13  2  0
 12 14  1  0
 14 15  1  0
 15 16  2  0
 16 17  1  0
 17 18  2  0
 18 19  1  0
 19 20  2  0
 19 21  1  0
 21 22  1  0
 22 23  1  0
 11 24  1  0
 24 25  2  0
 25  4  1  0
 25  7  1  0
 20 15  1  0
 23 18  1  0
M  END
>  <smiles>  (1951) 
C27990-P224

>  <fragmenstein_outcome>  (1951) 
acceptable

>  <inchikey>  (1951) 
QALFBBSQNIHQBX-UHFFFAOYSA-N

>  <fragmenstein_mode>  (1951) 
expansion

>  <HIPPO Pose ID>  (1951) 
24171

>  <Energy>  (1951) 
50.141458

>  <fragmenstein_error>  (1951) 


>  <tags>  (1951) 
{'openbind_xx01zvns2b_c1_fragmenstein', 'fragmenstein_placed'}

>  <ref_pdb>  (1951) 
175

>  <scratch_subdir>  (1951) 
/opt/xchem-fragalysis-2/maxwin/BulkDock/SCRATCH/511028/C27990-P224

>  <alias>  (1951) 
CNCc1csc2c(Br)cc(C(=O)Nc3ccc4c(c3)CNC4)cc12

>  <HIPPO Compound ID>  (1951) 
27990

>  <fragmenstein_runtime>  (1951) 
3.403184

$$$$
CC[C@H]1NCc2cc(NC(=O)[C@@H](CCNN)C3=CC4=CC(C#N)=C[S@]4=C3)ccc21
     RDKit          3D

 29 32  0  0  0  0  0  0  0  0999 V2000
   -8.7707    4.2060   -5.0445 C   0  0  0  0  0  0  0  0  0  0  0  0
   -8.8929    4.7746   -6.4546 C   0  0  0  0  0  0  0  0  0  0  0  0
   -8.3160    3.8394   -7.4978 C   0  0  1  0  0  0  0  0  0  0  0  0
   -8.9993    2.5261   -7.4661 N   0  0  0  0  0  0  0  0  0  0  0  0
   -8.8999    1.9747   -8.8330 C   0  0  0  0  0  0  0  0  0  0  0  0
   -8.5832    3.1409   -9.7085 C   0  0  0  0  0  0  0  0  0  0  0  0
   -8.4343    3.1674  -11.0803 C   0  0  0  0  0  0  0  0  0  0  0  0
   -7.9979    4.3521  -11.6780 C   0  0  0  0  0  0  0  0  0  0  0  0
   -7.7373    4.2998  -13.0399 N   0  0  0  0  0  0  0  0  0  0  0  0
   -7.1600    5.3909  -14.0086 C   0  0  0  0  0  0  0  0  0  0  0  0
   -6.7487    6.4655  -13.7830 O   0  0  0  0  0  0  0  0  0  0  0  0
   -7.2848    4.7785  -15.4258 C   0  0  1  0  0  0  0  0  0  0  0  0
   -8.7977    4.8009  -15.7676 C   0  0  0  0  0  0  0  0  0  0  0  0
   -9.3224    4.0792  -17.0107 C   0  0  0  0  0  0  0  0  0  0  0  0
   -8.9812    4.7021  -18.2739 N   0  0  0  0  0  0  0  0  0  0  0  0
   -8.0346    3.9310  -19.0171 N   0  0  0  0  0  0  0  0  0  0  0  0
   -6.2599    5.3453  -16.3743 C   0  0  0  0  0  0  0  0  0  0  0  0
   -6.3889    5.9800  -17.5533 C   0  0  0  0  0  0  0  0  0  0  0  0
   -5.2434    5.8569  -18.3912 C   0  0  0  0  0  0  0  0  0  0  0  0
   -4.7063    6.5992  -19.3546 C   0  0  0  0  0  0  0  0  0  0  0  0
   -3.2625    6.4093  -19.3724 C   0  0  0  0  0  0  0  0  0  0  0  0
   -2.4425    7.0605  -20.3253 C   0  0  0  0  0  0  0  0  0  0  0  0
   -1.7753    7.5882  -21.1148 N   0  0  0  0  0  0  0  0  0  0  0  0
   -2.7900    5.6386  -18.3673 C   0  0  0  0  0  0  0  0  0  0  0  0
   -4.1152    4.6082  -17.8129 S   0  0  0  0  0  0  0  0  0  0  0  0
   -4.8073    5.0194  -16.2353 C   0  0  0  0  0  0  0  0  0  0  0  0
   -7.8010    5.5075  -10.9117 C   0  0  0  0  0  0  0  0  0  0  0  0
   -7.9640    5.4681   -9.5205 C   0  0  0  0  0  0  0  0  0  0  0  0
   -8.3245    4.2664   -8.9318 C   0  0  0  0  0  0  0  0  0  0  0  0
  1  2  1  0
  3  2  1  1
  3  4  1  0
  4  5  1  0
  5  6  1  0
  6  7  2  0
  7  8  1  0
  8  9  1  0
  9 10  1  0
 10 11  2  0
 10 12  1  0
 12 13  1  6
 13 14  1  0
 14 15  1  0
 15 16  1  0
 12 17  1  0
 17 18  2  0
 18 19  1  0
 19 20  2  0
 20 21  1  0
 21 22  1  0
 22 23  3  0
 21 24  2  0
 25 24  1  1
 25 26  2  0
  8 27  2  0
 27 28  1  0
 28 29  2  0
 29  3  1  0
 29  6  1  0
 26 17  1  0
 25 19  1  0
M  END
>  <smiles>  (1952) 
C28214-P225

>  <fragmenstein_outcome>  (1952) 
acceptable

>  <inchikey>  (1952) 
LFMFZPBWWIRKSH-UHFFFAOYSA-N

>  <fragmenstein_mode>  (1952) 
expansion

>  <HIPPO Pose ID>  (1952) 
24237

>  <Energy>  (1952) 
154.213206

>  <fragmenstein_error>  (1952) 


>  <tags>  (1952) 
{'openbind_xx01zvns2b_c1_fragmenstein', 'fragmenstein_placed'}

>  <ref_pdb>  (1952) 
175

>  <scratch_subdir>  (1952) 
/opt/xchem-fragalysis-2/maxwin/BulkDock/SCRATCH/511028/C28214-P225

>  <alias>  (1952) 
CC[C@H]1NCc2cc(NC(=O)[C@@H](CCNN)C3=CC4=CC(C#N)=C[S@]4=C3)ccc21

>  <HIPPO Compound ID>  (1952) 
28214

>  <fragmenstein_runtime>  (1952) 
6.541458

$$$$
N#Cc1csc2cc(C(=O)Nc3ccc4c(c3)CNC4)c3n[nH]c(C4CCNCC4)c3c12
     RDKit          3D

 32 37  0  0  0  0  0  0  0  0999 V2000
   -6.1124    3.7495  -20.5192 N   0  0  0  0  0  0  0  0  0  0  0  0
   -6.8170    4.0474  -19.6527 C   0  0  0  0  0  0  0  0  0  0  0  0
   -7.7836    4.3059  -18.6635 C   0  0  0  0  0  0  0  0  0  0  0  0
   -9.1096    4.0731  -18.9487 C   0  0  0  0  0  0  0  0  0  0  0  0
  -10.1017    4.1668  -17.5843 S   0  0  0  0  0  0  0  0  0  0  0  0
   -8.7568    4.5485  -16.5703 C   0  0  0  0  0  0  0  0  0  0  0  0
   -8.8014    4.7473  -15.1820 C   0  0  0  0  0  0  0  0  0  0  0  0
   -7.6422    5.1301  -14.5089 C   0  0  0  0  0  0  0  0  0  0  0  0
   -7.6949    5.5256  -13.1030 C   0  0  0  0  0  0  0  0  0  0  0  0
   -7.4502    6.6270  -12.8089 O   0  0  0  0  0  0  0  0  0  0  0  0
   -8.0733    4.3187  -12.2256 N   0  0  0  0  0  0  0  0  0  0  0  0
   -8.3137    4.2363  -10.8654 C   0  0  0  0  0  0  0  0  0  0  0  0
   -8.1853    5.3689  -10.0463 C   0  0  0  0  0  0  0  0  0  0  0  0
   -8.3796    5.2744   -8.6690 C   0  0  0  0  0  0  0  0  0  0  0  0
   -8.7190    4.0420   -8.1459 C   0  0  0  0  0  0  0  0  0  0  0  0
   -8.8632    2.9275   -8.9641 C   0  0  0  0  0  0  0  0  0  0  0  0
   -8.6565    2.9990  -10.3277 C   0  0  0  0  0  0  0  0  0  0  0  0
   -9.1824    1.7397   -8.1284 C   0  0  0  0  0  0  0  0  0  0  0  0
   -9.4836    2.2663   -6.7727 N   0  0  0  0  0  0  0  0  0  0  0  0
   -8.9553    3.6451   -6.7298 C   0  0  0  0  0  0  0  0  0  0  0  0
   -6.4631    5.2736  -15.2512 C   0  0  0  0  0  0  0  0  0  0  0  0
   -5.2329    5.5536  -14.7938 N   0  0  0  0  0  0  0  0  0  0  0  0
   -4.4752    5.6792  -15.8741 N   0  0  0  0  0  0  0  0  0  0  0  0
   -5.1407    5.5829  -17.0753 C   0  0  0  0  0  0  0  0  0  0  0  0
   -4.3407    6.0210  -18.2652 C   0  0  0  0  0  0  0  0  0  0  0  0
   -5.0674    6.8327  -19.3336 C   0  0  0  0  0  0  0  0  0  0  0  0
   -4.1027    7.2139  -20.4617 C   0  0  0  0  0  0  0  0  0  0  0  0
   -3.3879    6.0489  -20.9975 N   0  0  0  0  0  0  0  0  0  0  0  0
   -2.5936    5.3981  -19.9576 C   0  0  0  0  0  0  0  0  0  0  0  0
   -3.4540    4.9075  -18.8039 C   0  0  0  0  0  0  0  0  0  0  0  0
   -6.3840    5.1378  -16.6764 C   0  0  0  0  0  0  0  0  0  0  0  0
   -7.6068    4.6996  -17.3398 C   0  0  0  0  0  0  0  0  0  0  0  0
  1  2  3  0
  2  3  1  0
  3  4  2  0
  4  5  1  0
  5  6  1  0
  6  7  1  0
  7  8  2  0
  8  9  1  0
  9 10  2  0
  9 11  1  0
 11 12  1  0
 12 13  2  0
 13 14  1  0
 14 15  2  0
 15 16  1  0
 16 17  2  0
 16 18  1  0
 18 19  1  0
 19 20  1  0
  8 21  1  0
 21 22  2  0
 22 23  1  0
 23 24  1  0
 24 25  1  0
 25 26  1  0
 26 27  1  0
 27 28  1  0
 28 29  1  0
 29 30  1  0
 24 31  2  0
 31 32  1  0
 32  3  1  0
 32  6  2  0
 17 12  1  0
 31 21  1  0
 20 15  1  0
 30 25  1  0
M  END
>  <smiles>  (1953) 
C28216-P225

>  <fragmenstein_outcome>  (1953) 
acceptable

>  <inchikey>  (1953) 
BRTHLZRECLJKOI-UHFFFAOYSA-N

>  <fragmenstein_mode>  (1953) 
expansion

>  <HIPPO Pose ID>  (1953) 
24238

>  <Energy>  (1953) 
98.54392

>  <fragmenstein_error>  (1953) 


>  <tags>  (1953) 
{'openbind_xx01zvns2b_c1_fragmenstein', 'fragmenstein_placed'}

>  <ref_pdb>  (1953) 
175

>  <scratch_subdir>  (1953) 
/opt/xchem-fragalysis-2/maxwin/BulkDock/SCRATCH/511028/C28216-P225

>  <alias>  (1953) 
N#Cc1csc2cc(C(=O)Nc3ccc4c(c3)CNC4)c3n[nH]c(C4CCNCC4)c3c12

>  <HIPPO Compound ID>  (1953) 
28216

>  <fragmenstein_runtime>  (1953) 
7.912996

$$$$
N#C[C@]12CS[C@@H]3C[C@@H](C(=O)Nc4ccc5c(c4)CNC5)C[C@@H]([C@H](CC4CNC4)C1)[C@@H]32
     RDKit          3D

 30 35  0  0  0  0  0  0  0  0999 V2000
   -7.1234    2.3454  -20.6635 N   0  0  0  0  0  0  0  0  0  0  0  0
   -7.3179    3.1763  -19.8832 C   0  0  0  0  0  0  0  0  0  0  0  0
   -7.5357    4.2980  -18.9884 C   0  0  2  0  0  0  0  0  0  0  0  0
   -8.9733    4.7326  -19.1905 C   0  0  0  0  0  0  0  0  0  0  0  0
   -9.9667    4.3239  -17.7358 S   0  0  0  0  0  0  0  0  0  0  0  0
   -8.6281    3.6550  -16.7713 C   0  0  2  0  0  0  0  0  0  0  0  0
   -8.5960    3.9707  -15.2715 C   0  0  0  0  0  0  0  0  0  0  0  0
   -7.7883    5.1970  -14.8390 C   0  0  1  0  0  0  0  0  0  0  0  0
   -7.7144    5.5804  -13.3409 C   0  0  0  0  0  0  0  0  0  0  0  0
   -7.4739    6.6910  -13.0528 O   0  0  0  0  0  0  0  0  0  0  0  0
   -7.9807    4.3392  -12.4388 N   0  0  0  0  0  0  0  0  0  0  0  0
   -8.0952    4.2349  -11.0540 C   0  0  0  0  0  0  0  0  0  0  0  0
   -7.8879    5.3418  -10.2177 C   0  0  0  0  0  0  0  0  0  0  0  0
   -8.0397    5.2290   -8.8311 C   0  0  0  0  0  0  0  0  0  0  0  0
   -8.4028    4.0015   -8.3068 C   0  0  0  0  0  0  0  0  0  0  0  0
   -8.5989    2.9014   -9.1320 C   0  0  0  0  0  0  0  0  0  0  0  0
   -8.4469    2.9967  -10.5064 C   0  0  0  0  0  0  0  0  0  0  0  0
   -8.9383    1.7121   -8.2990 C   0  0  0  0  0  0  0  0  0  0  0  0
   -9.1848    2.2325   -6.9290 N   0  0  0  0  0  0  0  0  0  0  0  0
   -8.6306    3.6025   -6.8886 C   0  0  0  0  0  0  0  0  0  0  0  0
   -6.3861    5.1969  -15.4835 C   0  0  0  0  0  0  0  0  0  0  0  0
   -6.6233    5.2625  -16.9761 C   0  0  1  0  0  0  0  0  0  0  0  0
   -5.5028    5.2773  -18.0002 C   0  0  2  0  0  0  0  0  0  0  0  0
   -4.4430    6.3527  -17.8657 C   0  0  0  0  0  0  0  0  0  0  0  0
   -3.5506    6.3504  -19.1051 C   0  0  0  0  0  0  0  0  0  0  0  0
   -2.8599    5.0163  -19.4910 C   0  0  0  0  0  0  0  0  0  0  0  0
   -1.7527    5.8290  -20.0397 N   0  0  0  0  0  0  0  0  0  0  0  0
   -2.0891    6.8671  -19.0248 C   0  0  0  0  0  0  0  0  0  0  0  0
   -6.3903    5.3317  -19.2723 C   0  0  0  0  0  0  0  0  0  0  0  0
   -7.3649    4.0375  -17.4922 C   0  0  2  0  0  0  0  0  0  0  0  0
  1  2  3  0
  3  2  1  6
  3  4  1  0
  4  5  1  0
  5  6  1  0
  6  7  1  1
  7  8  1  0
  8  9  1  1
  9 10  2  0
  9 11  1  0
 11 12  1  0
 12 13  2  0
 13 14  1  0
 14 15  2  0
 15 16  1  0
 16 17  2  0
 16 18  1  0
 18 19  1  0
 19 20  1  0
  8 21  1  0
 22 21  1  1
 22 23  1  0
 23 24  1  1
 24 25  1  0
 25 26  1  0
 26 27  1  0
 27 28  1  0
 23 29  1  0
 22 30  1  0
 29  3  1  0
 30  3  1  0
 30  6  1  1
 17 12  1  0
 28 25  1  0
 20 15  1  0
M  END
>  <smiles>  (1954) 
C28241-P226

>  <fragmenstein_outcome>  (1954) 
acceptable

>  <inchikey>  (1954) 
XJIYRTPREVPRND-UHFFFAOYSA-N

>  <fragmenstein_mode>  (1954) 
expansion

>  <HIPPO Pose ID>  (1954) 
24263

>  <Energy>  (1954) 
97.808676

>  <fragmenstein_error>  (1954) 


>  <tags>  (1954) 
{'openbind_xx01zvns2b_c1_fragmenstein', 'fragmenstein_placed'}

>  <ref_pdb>  (1954) 
175

>  <scratch_subdir>  (1954) 
/opt/xchem-fragalysis-2/maxwin/BulkDock/SCRATCH/511028/C28241-P226

>  <alias>  (1954) 
N#C[C@]12CS[C@@H]3C[C@@H](C(=O)Nc4ccc5c(c4)CNC5)C[C@@H]([C@H](CC4CNC4)C1)[C@@H]32

>  <HIPPO Compound ID>  (1954) 
28241

>  <fragmenstein_runtime>  (1954) 
14.655607

$$$$
CCN[C@@H]1C[C@H]2C[C@H](C(=O)Nc3ccc4c(c3)CNC4)C[C@H]3SC[C@]1(C#N)[C@@H]23
     RDKit          3D

 28 32  0  0  0  0  0  0  0  0999 V2000
   -2.8676    5.2361  -17.6648 C   0  0  0  0  0  0  0  0  0  0  0  0
   -3.4868    5.4998  -19.0344 C   0  0  0  0  0  0  0  0  0  0  0  0
   -4.7061    4.7303  -19.2858 N   0  0  0  0  0  0  0  0  0  0  0  0
   -6.0275    5.3952  -19.0919 C   0  0  2  0  0  0  0  0  0  0  0  0
   -6.0943    6.1257  -17.7543 C   0  0  0  0  0  0  0  0  0  0  0  0
   -6.2168    5.0105  -16.7336 C   0  0  1  0  0  0  0  0  0  0  0  0
   -6.5294    5.4088  -15.3012 C   0  0  0  0  0  0  0  0  0  0  0  0
   -7.9989    5.3198  -14.9232 C   0  0  2  0  0  0  0  0  0  0  0  0
   -8.1510    5.7417  -13.4355 C   0  0  0  0  0  0  0  0  0  0  0  0
   -8.1444    6.8797  -13.1540 O   0  0  0  0  0  0  0  0  0  0  0  0
   -8.2463    4.4764  -12.5274 N   0  0  0  0  0  0  0  0  0  0  0  0
   -8.2564    4.3580  -11.1402 C   0  0  0  0  0  0  0  0  0  0  0  0
   -8.1097    5.4683  -10.2975 C   0  0  0  0  0  0  0  0  0  0  0  0
   -8.1927    5.3225   -8.9075 C   0  0  0  0  0  0  0  0  0  0  0  0
   -8.4651    4.0670   -8.3938 C   0  0  0  0  0  0  0  0  0  0  0  0
   -8.6021    2.9629   -9.2289 C   0  0  0  0  0  0  0  0  0  0  0  0
   -8.4728    3.0831  -10.6011 C   0  0  0  0  0  0  0  0  0  0  0  0
   -8.9137    1.7593   -8.4028 C   0  0  0  0  0  0  0  0  0  0  0  0
   -9.3170    2.2981   -7.0780 N   0  0  0  0  0  0  0  0  0  0  0  0
   -8.6851    3.6339   -6.9828 C   0  0  0  0  0  0  0  0  0  0  0  0
   -8.5810    3.9773  -15.3356 C   0  0  0  0  0  0  0  0  0  0  0  0
   -8.4652    3.6523  -16.8118 C   0  0  1  0  0  0  0  0  0  0  0  0
   -9.7422    4.3831  -17.8018 S   0  0  0  0  0  0  0  0  0  0  0  0
   -8.6472    4.8755  -19.1363 C   0  0  0  0  0  0  0  0  0  0  0  0
   -7.2245    4.3675  -18.9219 C   0  0  1  0  0  0  0  0  0  0  0  0
   -7.0983    3.2987  -19.9010 C   0  0  0  0  0  0  0  0  0  0  0  0
   -7.0500    2.5314  -20.7670 N   0  0  0  0  0  0  0  0  0  0  0  0
   -7.1243    3.9954  -17.4327 C   0  0  1  0  0  0  0  0  0  0  0  0
  1  2  1  0
  2  3  1  0
  4  3  1  1
  4  5  1  0
  6  5  1  6
  6  7  1  0
  7  8  1  0
  8  9  1  1
  9 10  2  0
  9 11  1  0
 11 12  1  0
 12 13  2  0
 13 14  1  0
 14 15  2  0
 15 16  1  0
 16 17  2  0
 16 18  1  0
 18 19  1  0
 19 20  1  0
  8 21  1  0
 22 21  1  1
 22 23  1  0
 23 24  1  0
 24 25  1  0
 25 26  1  6
 26 27  3  0
 25 28  1  0
 25  4  1  0
 28  6  1  1
 17 12  1  0
 28 22  1  0
 20 15  1  0
M  END
>  <smiles>  (1955) 
C28264-P226

>  <fragmenstein_outcome>  (1955) 
acceptable

>  <inchikey>  (1955) 
BPVGHZUXHMLAEZ-UHFFFAOYSA-N

>  <fragmenstein_mode>  (1955) 
expansion

>  <HIPPO Pose ID>  (1955) 
24273

>  <Energy>  (1955) 
89.629591

>  <fragmenstein_error>  (1955) 


>  <tags>  (1955) 
{'openbind_xx01zvns2b_c1_fragmenstein', 'fragmenstein_placed'}

>  <ref_pdb>  (1955) 
175

>  <scratch_subdir>  (1955) 
/opt/xchem-fragalysis-2/maxwin/BulkDock/SCRATCH/511028/C28264-P226

>  <alias>  (1955) 
CCN[C@@H]1C[C@H]2C[C@H](C(=O)Nc3ccc4c(c3)CNC4)C[C@H]3SC[C@]1(C#N)[C@@H]23

>  <HIPPO Compound ID>  (1955) 
28264

>  <fragmenstein_runtime>  (1955) 
5.579238

$$$$
Nn1nc2c(C(=NC(F)F)Nc3ccc4c(c3)CNC4)cccc2c1C1CNC1
     RDKit          3D

 29 33  0  0  0  0  0  0  0  0999 V2000
   -2.7943    5.9502  -16.5242 N   0  0  0  0  0  0  0  0  0  0  0  0
   -4.1298    5.5619  -16.4223 N   0  0  0  0  0  0  0  0  0  0  0  0
   -4.6425    5.2459  -15.2521 N   0  0  0  0  0  0  0  0  0  0  0  0
   -5.9436    4.9954  -15.4817 C   0  0  0  0  0  0  0  0  0  0  0  0
   -7.0031    4.7243  -14.5893 C   0  0  0  0  0  0  0  0  0  0  0  0
   -6.8155    4.8244  -13.1084 C   0  0  0  0  0  0  0  0  0  0  0  0
   -5.9332    5.5627  -12.7342 N   0  0  0  0  0  0  0  0  0  0  0  0
   -5.4123    5.7028  -11.4107 C   0  0  0  0  0  0  0  0  0  0  0  0
   -4.0626    5.8718  -11.4984 F   0  0  0  0  0  0  0  0  0  0  0  0
   -5.8800    6.8519  -10.8579 F   0  0  0  0  0  0  0  0  0  0  0  0
   -7.8902    4.0107  -12.2853 N   0  0  0  0  0  0  0  0  0  0  0  0
   -8.1651    3.9980  -10.9291 C   0  0  0  0  0  0  0  0  0  0  0  0
   -8.1554    5.1705  -10.1535 C   0  0  0  0  0  0  0  0  0  0  0  0
   -8.3478    5.1343   -8.7720 C   0  0  0  0  0  0  0  0  0  0  0  0
   -8.6240    3.9126   -8.1955 C   0  0  0  0  0  0  0  0  0  0  0  0
   -8.6882    2.7548   -8.9626 C   0  0  0  0  0  0  0  0  0  0  0  0
   -8.4409    2.7764  -10.3187 C   0  0  0  0  0  0  0  0  0  0  0  0
   -9.0267    1.6017   -8.0818 C   0  0  0  0  0  0  0  0  0  0  0  0
   -9.5336    2.2194   -6.8298 N   0  0  0  0  0  0  0  0  0  0  0  0
   -8.9105    3.5603   -6.7748 C   0  0  0  0  0  0  0  0  0  0  0  0
   -8.2423    4.4530  -15.2250 C   0  0  0  0  0  0  0  0  0  0  0  0
   -8.4193    4.4530  -16.6384 C   0  0  0  0  0  0  0  0  0  0  0  0
   -7.3966    4.7787  -17.5486 C   0  0  0  0  0  0  0  0  0  0  0  0
   -6.1854    5.0467  -16.9065 C   0  0  0  0  0  0  0  0  0  0  0  0
   -5.0211    5.5281  -17.4492 C   0  0  0  0  0  0  0  0  0  0  0  0
   -4.6934    6.0471  -18.8555 C   0  0  0  0  0  0  0  0  0  0  0  0
   -5.0637    5.1633  -20.0296 C   0  0  0  0  0  0  0  0  0  0  0  0
   -5.4626    6.3917  -20.7673 N   0  0  0  0  0  0  0  0  0  0  0  0
   -5.6650    7.0624  -19.4691 C   0  0  0  0  0  0  0  0  0  0  0  0
  1  2  1  0
  2  3  1  0
  3  4  2  0
  4  5  1  0
  5  6  1  0
  6  7  2  3
  7  8  1  0
  8  9  1  0
  8 10  1  0
  6 11  1  0
 11 12  1  0
 12 13  2  0
 13 14  1  0
 14 15  2  0
 15 16  1  0
 16 17  2  0
 16 18  1  0
 18 19  1  0
 19 20  1  0
  5 21  2  0
 21 22  1  0
 22 23  2  0
 23 24  1  0
 24 25  2  0
 25 26  1  0
 26 27  1  0
 27 28  1  0
 28 29  1  0
 25  2  1  0
 29 26  1  0
 24  4  1  0
 17 12  1  0
 20 15  1  0
M  END
>  <smiles>  (1956) 
C28292-P226

>  <fragmenstein_outcome>  (1956) 
acceptable

>  <inchikey>  (1956) 
LLMYHBHHEPTMAI-UHFFFAOYSA-N

>  <fragmenstein_mode>  (1956) 
expansion

>  <HIPPO Pose ID>  (1956) 
24300

>  <Energy>  (1956) 
30.863861

>  <fragmenstein_error>  (1956) 


>  <tags>  (1956) 
{'openbind_xx01zvns2b_c1_fragmenstein', 'fragmenstein_placed'}

>  <ref_pdb>  (1956) 
175

>  <scratch_subdir>  (1956) 
/opt/xchem-fragalysis-2/maxwin/BulkDock/SCRATCH/511028/C28292-P226

>  <alias>  (1956) 
Nn1nc2c(C(=NC(F)F)Nc3ccc4c(c3)CNC4)cccc2c1C1CNC1

>  <HIPPO Compound ID>  (1956) 
28292

>  <fragmenstein_runtime>  (1956) 
4.786309

$$$$
CC(=O)N[C@](O)(Nc1ccc2c(c1)CNC2)c1cccc2c(C3CNC3)[nH]nc12
     RDKit          3D

 29 33  0  0  0  0  0  0  0  0999 V2000
   -4.7711    7.4719  -12.5201 C   0  0  0  0  0  0  0  0  0  0  0  0
   -6.1156    7.3419  -13.2013 C   0  0  0  0  0  0  0  0  0  0  0  0
   -6.6430    8.2219  -13.7533 O   0  0  0  0  0  0  0  0  0  0  0  0
   -6.5733    5.8879  -12.9736 N   0  0  0  0  0  0  0  0  0  0  0  0
   -7.7069    5.2012  -13.4478 C   0  0  2  0  0  0  0  0  0  0  0  0
   -8.8347    6.0368  -13.3152 O   0  0  0  0  0  0  0  0  0  0  0  0
   -7.8762    4.0366  -12.6128 N   0  0  0  0  0  0  0  0  0  0  0  0
   -8.1363    4.0673  -11.2350 C   0  0  0  0  0  0  0  0  0  0  0  0
   -7.9941    5.2055  -10.4129 C   0  0  0  0  0  0  0  0  0  0  0  0
   -8.1760    5.1554   -9.0229 C   0  0  0  0  0  0  0  0  0  0  0  0
   -8.5135    3.9469   -8.4535 C   0  0  0  0  0  0  0  0  0  0  0  0
   -8.6446    2.8088   -9.2365 C   0  0  0  0  0  0  0  0  0  0  0  0
   -8.4406    2.8486  -10.6070 C   0  0  0  0  0  0  0  0  0  0  0  0
   -8.9840    1.6523   -8.3579 C   0  0  0  0  0  0  0  0  0  0  0  0
   -9.4322    2.2617   -7.0772 N   0  0  0  0  0  0  0  0  0  0  0  0
   -8.7817    3.5911   -7.0304 C   0  0  0  0  0  0  0  0  0  0  0  0
   -7.6027    4.8128  -14.9005 C   0  0  0  0  0  0  0  0  0  0  0  0
   -8.7398    4.3124  -15.6077 C   0  0  0  0  0  0  0  0  0  0  0  0
   -8.8157    4.0706  -17.0112 C   0  0  0  0  0  0  0  0  0  0  0  0
   -7.7456    4.2912  -17.8826 C   0  0  0  0  0  0  0  0  0  0  0  0
   -6.6232    4.7180  -17.1864 C   0  0  0  0  0  0  0  0  0  0  0  0
   -5.4340    5.0670  -17.7567 C   0  0  0  0  0  0  0  0  0  0  0  0
   -5.1080    5.1392  -19.2765 C   0  0  0  0  0  0  0  0  0  0  0  0
   -5.6584    6.3998  -19.9716 C   0  0  0  0  0  0  0  0  0  0  0  0
   -4.3530    7.0763  -19.7032 N   0  0  0  0  0  0  0  0  0  0  0  0
   -3.7321    5.7291  -19.6502 C   0  0  0  0  0  0  0  0  0  0  0  0
   -4.6230    5.3870  -16.7140 N   0  0  0  0  0  0  0  0  0  0  0  0
   -5.2278    5.3680  -15.5163 N   0  0  0  0  0  0  0  0  0  0  0  0
   -6.4938    4.9663  -15.7633 C   0  0  0  0  0  0  0  0  0  0  0  0
  1  2  1  0
  2  3  2  0
  2  4  1  0
  4  5  1  0
  5  6  1  6
  5  7  1  0
  7  8  1  0
  8  9  2  0
  9 10  1  0
 10 11  2  0
 11 12  1  0
 12 13  2  0
 12 14  1  0
 14 15  1  0
 15 16  1  0
  5 17  1  0
 17 18  2  0
 18 19  1  0
 19 20  2  0
 20 21  1  0
 21 22  2  0
 22 23  1  0
 23 24  1  0
 24 25  1  0
 25 26  1  0
 22 27  1  0
 27 28  1  0
 28 29  2  0
 13  8  1  0
 29 17  1  0
 16 11  1  0
 29 21  1  0
 26 23  1  0
M  END
>  <smiles>  (1957) 
C28316-P226

>  <fragmenstein_outcome>  (1957) 
acceptable

>  <inchikey>  (1957) 
DVTBFLICCNPPHE-UHFFFAOYSA-N

>  <fragmenstein_mode>  (1957) 
expansion

>  <HIPPO Pose ID>  (1957) 
24313

>  <Energy>  (1957) 
-69.615315

>  <fragmenstein_error>  (1957) 


>  <tags>  (1957) 
{'openbind_xx01zvns2b_c1_fragmenstein', 'fragmenstein_placed'}

>  <ref_pdb>  (1957) 
175

>  <scratch_subdir>  (1957) 
/opt/xchem-fragalysis-2/maxwin/BulkDock/SCRATCH/511028/C28316-P226

>  <alias>  (1957) 
CC(=O)N[C@](O)(Nc1ccc2c(c1)CNC2)c1cccc2c(C3CNC3)[nH]nc12

>  <HIPPO Compound ID>  (1957) 
23259

>  <fragmenstein_runtime>  (1957) 
10.703634

$$$$
CS(=O)(=O)N[C@H]1NC[C@@H]1c1n[nH]c2c(C(=O)Nc3ccc4c(c3)CNC4)cccc12
     RDKit          3D

 30 34  0  0  0  0  0  0  0  0999 V2000
   -1.1579    6.5002  -17.6549 C   0  0  0  0  0  0  0  0  0  0  0  0
   -1.1717    7.0984  -19.3300 S   0  0  0  0  0  0  0  0  0  0  0  0
   -0.0730    6.4835  -20.0481 O   0  0  0  0  0  0  0  0  0  0  0  0
   -1.3622    8.5305  -19.3283 O   0  0  0  0  0  0  0  0  0  0  0  0
   -2.5467    6.4063  -19.9692 N   0  0  0  0  0  0  0  0  0  0  0  0
   -3.9176    6.6055  -19.4862 C   0  0  1  0  0  0  0  0  0  0  0  0
   -4.7571    6.6381  -20.6920 N   0  0  0  0  0  0  0  0  0  0  0  0
   -5.8038    5.8905  -19.9594 C   0  0  0  0  0  0  0  0  0  0  0  0
   -4.7152    5.3578  -19.0245 C   0  0  2  0  0  0  0  0  0  0  0  0
   -5.1099    5.3257  -17.5333 C   0  0  0  0  0  0  0  0  0  0  0  0
   -4.2872    5.7479  -16.5694 N   0  0  0  0  0  0  0  0  0  0  0  0
   -5.0304    5.6170  -15.4554 N   0  0  0  0  0  0  0  0  0  0  0  0
   -6.2818    5.1019  -15.6752 C   0  0  0  0  0  0  0  0  0  0  0  0
   -7.3359    4.8291  -14.7957 C   0  0  0  0  0  0  0  0  0  0  0  0
   -7.1994    5.1617  -13.3549 C   0  0  0  0  0  0  0  0  0  0  0  0
   -6.6040    6.1283  -13.0765 O   0  0  0  0  0  0  0  0  0  0  0  0
   -7.8836    4.1098  -12.4501 N   0  0  0  0  0  0  0  0  0  0  0  0
   -8.0537    4.0788  -11.0682 C   0  0  0  0  0  0  0  0  0  0  0  0
   -7.7547    5.1962  -10.2732 C   0  0  0  0  0  0  0  0  0  0  0  0
   -7.9234    5.1532   -8.8846 C   0  0  0  0  0  0  0  0  0  0  0  0
   -8.3713    3.9757   -8.3144 C   0  0  0  0  0  0  0  0  0  0  0  0
   -8.6535    2.8643   -9.0989 C   0  0  0  0  0  0  0  0  0  0  0  0
   -8.5207    2.9021  -10.4781 C   0  0  0  0  0  0  0  0  0  0  0  0
   -9.0217    1.7204   -8.2163 C   0  0  0  0  0  0  0  0  0  0  0  0
   -9.2305    2.3019   -6.8666 N   0  0  0  0  0  0  0  0  0  0  0  0
   -8.6007    3.6395   -6.8796 C   0  0  0  0  0  0  0  0  0  0  0  0
   -8.5215    4.3366  -15.3548 C   0  0  0  0  0  0  0  0  0  0  0  0
   -8.6312    4.1075  -16.7260 C   0  0  0  0  0  0  0  0  0  0  0  0
   -7.5562    4.3676  -17.5828 C   0  0  0  0  0  0  0  0  0  0  0  0
   -6.3630    4.8844  -17.0437 C   0  0  0  0  0  0  0  0  0  0  0  0
  1  2  1  0
  2  3  2  0
  2  4  2  0
  2  5  1  0
  6  5  1  6
  6  7  1  0
  7  8  1  0
  8  9  1  0
  9 10  1  1
 10 11  2  0
 11 12  1  0
 12 13  1  0
 13 14  2  0
 14 15  1  0
 15 16  2  0
 15 17  1  0
 17 18  1  0
 18 19  2  0
 19 20  1  0
 20 21  2  0
 21 22  1  0
 22 23  2  0
 22 24  1  0
 24 25  1  0
 25 26  1  0
 14 27  1  0
 27 28  2  0
 28 29  1  0
 29 30  2  0
  9  6  1  0
 30 10  1  0
 30 13  1  0
 23 18  1  0
 26 21  1  0
M  END
>  <smiles>  (1958) 
C28323-P226

>  <fragmenstein_outcome>  (1958) 
acceptable

>  <inchikey>  (1958) 
NEQJBDOGLFFGNU-UHFFFAOYSA-N

>  <fragmenstein_mode>  (1958) 
expansion

>  <HIPPO Pose ID>  (1958) 
24315

>  <Energy>  (1958) 
-38.235187

>  <fragmenstein_error>  (1958) 


>  <tags>  (1958) 
{'openbind_xx01zvns2b_c1_fragmenstein', 'fragmenstein_placed'}

>  <ref_pdb>  (1958) 
175

>  <scratch_subdir>  (1958) 
/opt/xchem-fragalysis-2/maxwin/BulkDock/SCRATCH/511028/C28323-P226

>  <alias>  (1958) 
CS(=O)(=O)N[C@H]1NC[C@@H]1c1n[nH]c2c(C(=O)Nc3ccc4c(c3)CNC4)cccc12

>  <HIPPO Compound ID>  (1958) 
34279

>  <fragmenstein_runtime>  (1958) 
6.44878

$$$$
CC(=O)NCC(=O)[C@H](Nc1ccc2c(c1)CN[C@H]2C)c1ccc(Cl)c2c(C3CNC3)n[nH]c12
     RDKit          3D

 33 37  0  0  0  0  0  0  0  0999 V2000
   -1.0432    3.6423  -12.0196 C   0  0  0  0  0  0  0  0  0  0  0  0
   -2.3261    2.9420  -12.4095 C   0  0  0  0  0  0  0  0  0  0  0  0
   -2.3553    1.8887  -12.9074 O   0  0  0  0  0  0  0  0  0  0  0  0
   -3.4750    3.9140  -12.0526 N   0  0  0  0  0  0  0  0  0  0  0  0
   -4.9105    3.7488  -12.1489 C   0  0  0  0  0  0  0  0  0  0  0  0
   -5.5262    5.0078  -12.7503 C   0  0  0  0  0  0  0  0  0  0  0  0
   -4.8336    6.0229  -12.9380 O   0  0  0  0  0  0  0  0  0  0  0  0
   -6.9991    4.9869  -13.1924 C   0  0  2  0  0  0  0  0  0  0  0  0
   -7.7983    4.0044  -12.4554 N   0  0  0  0  0  0  0  0  0  0  0  0
   -8.0060    4.0708  -11.0827 C   0  0  0  0  0  0  0  0  0  0  0  0
   -7.8977    5.2571  -10.3324 C   0  0  0  0  0  0  0  0  0  0  0  0
   -8.1107    5.2728   -8.9469 C   0  0  0  0  0  0  0  0  0  0  0  0
   -8.4519    4.0904   -8.3184 C   0  0  0  0  0  0  0  0  0  0  0  0
   -8.6072    2.9252   -9.0551 C   0  0  0  0  0  0  0  0  0  0  0  0
   -8.4124    2.9040  -10.4245 C   0  0  0  0  0  0  0  0  0  0  0  0
   -9.0052    1.8070   -8.1578 C   0  0  0  0  0  0  0  0  0  0  0  0
   -8.8441    2.3261   -6.7751 N   0  0  0  0  0  0  0  0  0  0  0  0
   -8.7760    3.8049   -6.8854 C   0  0  1  0  0  0  0  0  0  0  0  0
   -7.7767    4.3920   -5.8957 C   0  0  0  0  0  0  0  0  0  0  0  0
   -7.1936    4.7696  -14.6986 C   0  0  0  0  0  0  0  0  0  0  0  0
   -8.4737    4.3800  -15.1655 C   0  0  0  0  0  0  0  0  0  0  0  0
   -8.7562    4.1503  -16.5045 C   0  0  0  0  0  0  0  0  0  0  0  0
   -7.7592    4.3285  -17.4494 C   0  0  0  0  0  0  0  0  0  0  0  0
   -8.0619    3.9739  -19.0840 Cl  0  0  0  0  0  0  0  0  0  0  0  0
   -6.4863    4.7968  -17.0812 C   0  0  0  0  0  0  0  0  0  0  0  0
   -5.2746    5.1749  -17.7198 C   0  0  0  0  0  0  0  0  0  0  0  0
   -5.0557    5.2141  -19.2527 C   0  0  0  0  0  0  0  0  0  0  0  0
   -3.6194    5.4323  -19.7710 C   0  0  0  0  0  0  0  0  0  0  0  0
   -4.2072    6.2743  -20.8655 N   0  0  0  0  0  0  0  0  0  0  0  0
   -5.3015    6.5947  -19.8984 C   0  0  0  0  0  0  0  0  0  0  0  0
   -4.3382    5.5674  -16.8551 N   0  0  0  0  0  0  0  0  0  0  0  0
   -4.9432    5.4651  -15.6670 N   0  0  0  0  0  0  0  0  0  0  0  0
   -6.2380    5.0045  -15.7175 C   0  0  0  0  0  0  0  0  0  0  0  0
  1  2  1  0
  2  3  2  0
  2  4  1  0
  4  5  1  0
  5  6  1  0
  6  7  2  0
  6  8  1  0
  8  9  1  1
  9 10  1  0
 10 11  2  0
 11 12  1  0
 12 13  2  0
 13 14  1  0
 14 15  2  0
 14 16  1  0
 16 17  1  0
 17 18  1  0
 18 19  1  1
  8 20  1  0
 20 21  2  0
 21 22  1  0
 22 23  2  0
 23 24  1  0
 23 25  1  0
 25 26  1  0
 26 27  1  0
 27 28  1  0
 28 29  1  0
 29 30  1  0
 26 31  2  0
 31 32  1  0
 32 33  1  0
 15 10  1  0
 33 20  1  0
 18 13  1  0
 33 25  2  0
 30 27  1  0
M  END
>  <smiles>  (1959) 
C28362-P226

>  <fragmenstein_outcome>  (1959) 
acceptable

>  <inchikey>  (1959) 
YDQMMCVSSOTGLO-UHFFFAOYSA-N

>  <fragmenstein_mode>  (1959) 
expansion

>  <HIPPO Pose ID>  (1959) 
24329

>  <Energy>  (1959) 
125.535525

>  <fragmenstein_error>  (1959) 


>  <tags>  (1959) 
{'openbind_xx01zvns2b_c1_fragmenstein', 'fragmenstein_placed'}

>  <ref_pdb>  (1959) 
175

>  <scratch_subdir>  (1959) 
/opt/xchem-fragalysis-2/maxwin/BulkDock/SCRATCH/511028/C28362-P226

>  <alias>  (1959) 
CC(=O)NCC(=O)[C@H](Nc1ccc2c(c1)CN[C@H]2C)c1ccc(Cl)c2c(C3CNC3)n[nH]c12

>  <HIPPO Compound ID>  (1959) 
28362

>  <fragmenstein_runtime>  (1959) 
8.292964

$$$$
Cn1nc2c(C(=O)C(=O)c3ccc4c(c3)CNC4)cccc2c1C1(C)CNC1
     RDKit          3D

 28 32  0  0  0  0  0  0  0  0999 V2000
   -2.7015    6.0153  -16.6250 C   0  0  0  0  0  0  0  0  0  0  0  0
   -4.1178    5.7622  -16.7244 N   0  0  0  0  0  0  0  0  0  0  0  0
   -4.7881    5.5447  -15.5874 N   0  0  0  0  0  0  0  0  0  0  0  0
   -6.0056    5.1132  -15.9591 C   0  0  0  0  0  0  0  0  0  0  0  0
   -7.1128    4.6970  -15.1890 C   0  0  0  0  0  0  0  0  0  0  0  0
   -7.0861    4.7948  -13.7069 C   0  0  0  0  0  0  0  0  0  0  0  0
   -6.0966    5.1521  -13.0793 O   0  0  0  0  0  0  0  0  0  0  0  0
   -8.3363    4.5496  -12.9044 C   0  0  0  0  0  0  0  0  0  0  0  0
   -9.4198    4.6886  -13.4579 O   0  0  0  0  0  0  0  0  0  0  0  0
   -8.2523    4.3138  -11.4426 C   0  0  0  0  0  0  0  0  0  0  0  0
   -7.9569    5.4111  -10.6079 C   0  0  0  0  0  0  0  0  0  0  0  0
   -8.0171    5.2859   -9.2167 C   0  0  0  0  0  0  0  0  0  0  0  0
   -8.3812    4.0607   -8.6881 C   0  0  0  0  0  0  0  0  0  0  0  0
   -8.6369    2.9629   -9.5102 C   0  0  0  0  0  0  0  0  0  0  0  0
   -8.5863    3.0691  -10.8945 C   0  0  0  0  0  0  0  0  0  0  0  0
   -8.9529    1.7865   -8.6416 C   0  0  0  0  0  0  0  0  0  0  0  0
   -9.3028    2.3685   -7.3188 N   0  0  0  0  0  0  0  0  0  0  0  0
   -8.5887    3.6630   -7.2626 C   0  0  0  0  0  0  0  0  0  0  0  0
   -8.2066    4.2542  -15.9827 C   0  0  0  0  0  0  0  0  0  0  0  0
   -8.2146    4.2601  -17.4120 C   0  0  0  0  0  0  0  0  0  0  0  0
   -7.1435    4.7212  -18.1974 C   0  0  0  0  0  0  0  0  0  0  0  0
   -6.0723    5.1409  -17.4114 C   0  0  0  0  0  0  0  0  0  0  0  0
   -4.9062    5.7316  -17.8405 C   0  0  0  0  0  0  0  0  0  0  0  0
   -4.5093    6.2784  -19.2730 C   0  0  0  0  0  0  0  0  0  0  0  0
   -3.7418    5.2548  -20.0830 C   0  0  0  0  0  0  0  0  0  0  0  0
   -3.8451    7.6995  -19.2545 C   0  0  0  0  0  0  0  0  0  0  0  0
   -5.1975    8.3034  -19.3507 N   0  0  0  0  0  0  0  0  0  0  0  0
   -5.6392    7.0512  -20.0235 C   0  0  0  0  0  0  0  0  0  0  0  0
  1  2  1  0
  2  3  1  0
  3  4  2  0
  4  5  1  0
  5  6  1  0
  6  7  2  0
  6  8  1  0
  8  9  2  0
  8 10  1  0
 10 11  2  0
 11 12  1  0
 12 13  2  0
 13 14  1  0
 14 15  2  0
 14 16  1  0
 16 17  1  0
 17 18  1  0
  5 19  2  0
 19 20  1  0
 20 21  2  0
 21 22  1  0
 22 23  2  0
 23 24  1  0
 24 25  1  0
 24 26  1  0
 26 27  1  0
 27 28  1  0
 23  2  1  0
 28 24  1  0
 22  4  1  0
 15 10  1  0
 18 13  1  0
M  END
>  <smiles>  (1960) 
C28366-P226

>  <fragmenstein_outcome>  (1960) 
acceptable

>  <inchikey>  (1960) 
ZNTZGPMSWQJPKJ-UHFFFAOYSA-N

>  <fragmenstein_mode>  (1960) 
expansion

>  <HIPPO Pose ID>  (1960) 
24333

>  <Energy>  (1960) 
154.566855

>  <fragmenstein_error>  (1960) 


>  <tags>  (1960) 
{'openbind_xx01zvns2b_c1_fragmenstein', 'fragmenstein_placed'}

>  <ref_pdb>  (1960) 
175

>  <scratch_subdir>  (1960) 
/opt/xchem-fragalysis-2/maxwin/BulkDock/SCRATCH/511028/C28366-P226

>  <alias>  (1960) 
Cn1nc2c(C(=O)C(=O)c3ccc4c(c3)CNC4)cccc2c1C1(C)CNC1

>  <HIPPO Compound ID>  (1960) 
28366

>  <fragmenstein_runtime>  (1960) 
2.781318

$$$$
Cn1nc2c(C(=O)C(=O)c3ccc4c(c3)CNC4)cccc2c1C1CNC1
     RDKit          3D

 27 31  0  0  0  0  0  0  0  0999 V2000
   -3.2598    5.8734  -16.8820 C   0  0  0  0  0  0  0  0  0  0  0  0
   -4.6497    5.4952  -16.8696 N   0  0  0  0  0  0  0  0  0  0  0  0
   -5.2330    5.3644  -15.6637 N   0  0  0  0  0  0  0  0  0  0  0  0
   -6.4874    4.9552  -15.9086 C   0  0  0  0  0  0  0  0  0  0  0  0
   -7.5497    4.6700  -15.0329 C   0  0  0  0  0  0  0  0  0  0  0  0
   -7.4497    4.9140  -13.5836 C   0  0  0  0  0  0  0  0  0  0  0  0
   -7.0342    5.9880  -13.1720 O   0  0  0  0  0  0  0  0  0  0  0  0
   -7.8925    3.8340  -12.6177 C   0  0  0  0  0  0  0  0  0  0  0  0
   -8.0896    2.7180  -13.0844 O   0  0  0  0  0  0  0  0  0  0  0  0
   -8.0801    4.0093  -11.1539 C   0  0  0  0  0  0  0  0  0  0  0  0
   -7.8950    5.2140  -10.4544 C   0  0  0  0  0  0  0  0  0  0  0  0
   -8.0759    5.2692   -9.0622 C   0  0  0  0  0  0  0  0  0  0  0  0
   -8.4562    4.1173   -8.3940 C   0  0  0  0  0  0  0  0  0  0  0  0
   -8.6467    2.9261   -9.0779 C   0  0  0  0  0  0  0  0  0  0  0  0
   -8.4612    2.8554  -10.4429 C   0  0  0  0  0  0  0  0  0  0  0  0
   -9.0194    1.8471   -8.1190 C   0  0  0  0  0  0  0  0  0  0  0  0
   -9.4008    2.5658   -6.8748 N   0  0  0  0  0  0  0  0  0  0  0  0
   -8.7079    3.8738   -6.9434 C   0  0  0  0  0  0  0  0  0  0  0  0
   -8.7200    4.2176  -15.6824 C   0  0  0  0  0  0  0  0  0  0  0  0
   -8.8427    4.0901  -17.1016 C   0  0  0  0  0  0  0  0  0  0  0  0
   -7.8092    4.4014  -18.0066 C   0  0  0  0  0  0  0  0  0  0  0  0
   -6.6567    4.8182  -17.3411 C   0  0  0  0  0  0  0  0  0  0  0  0
   -5.4800    5.2257  -17.9234 C   0  0  0  0  0  0  0  0  0  0  0  0
   -5.2363    5.3850  -19.4678 C   0  0  0  0  0  0  0  0  0  0  0  0
   -5.5709    6.8007  -20.0016 C   0  0  0  0  0  0  0  0  0  0  0  0
   -4.1317    7.1457  -19.8803 N   0  0  0  0  0  0  0  0  0  0  0  0
   -3.8254    5.7039  -20.0044 C   0  0  0  0  0  0  0  0  0  0  0  0
  1  2  1  0
  2  3  1  0
  3  4  2  0
  4  5  1  0
  5  6  1  0
  6  7  2  0
  6  8  1  0
  8  9  2  0
  8 10  1  0
 10 11  2  0
 11 12  1  0
 12 13  2  0
 13 14  1  0
 14 15  2  0
 14 16  1  0
 16 17  1  0
 17 18  1  0
  5 19  2  0
 19 20  1  0
 20 21  2  0
 21 22  1  0
 22 23  2  0
 23 24  1  0
 24 25  1  0
 25 26  1  0
 26 27  1  0
 23  2  1  0
 27 24  1  0
 22  4  1  0
 15 10  1  0
 18 13  1  0
M  END
>  <smiles>  (1961) 
C28367-P226

>  <fragmenstein_outcome>  (1961) 
acceptable

>  <inchikey>  (1961) 
RGENPVDJTVRZBE-UHFFFAOYSA-N

>  <fragmenstein_mode>  (1961) 
expansion

>  <HIPPO Pose ID>  (1961) 
24334

>  <Energy>  (1961) 
143.806547

>  <fragmenstein_error>  (1961) 


>  <tags>  (1961) 
{'openbind_xx01zvns2b_c1_fragmenstein', 'fragmenstein_placed'}

>  <ref_pdb>  (1961) 
175

>  <scratch_subdir>  (1961) 
/opt/xchem-fragalysis-2/maxwin/BulkDock/SCRATCH/511028/C28367-P226

>  <alias>  (1961) 
Cn1nc2c(C(=O)C(=O)c3ccc4c(c3)CNC4)cccc2c1C1CNC1

>  <HIPPO Compound ID>  (1961) 
28367

>  <fragmenstein_runtime>  (1961) 
4.777971

$$$$
O=C([O-])c1c(-c2cccc3c(C4CNC4)[nH]nc23)[nH]c2cc3c(cc12)CNC3
     RDKit          3D

 28 33  0  0  0  0  0  0  0  0999 V2000
   -5.9626    7.2730  -11.4363 O   0  0  0  0  0  0  0  0  0  0  0  0
   -6.7077    6.8484  -12.3770 C   0  0  0  0  0  0  0  0  0  0  0  0
   -7.0561    7.5118  -13.4080 O   0  0  0  0  0  0  0  0  0  0  0  0
   -7.3083    5.3943  -12.2195 C   0  0  0  0  0  0  0  0  0  0  0  0
   -7.6547    4.5255  -13.2484 C   0  0  0  0  0  0  0  0  0  0  0  0
   -7.5746    4.5752  -14.6986 C   0  0  0  0  0  0  0  0  0  0  0  0
   -8.6957    4.2716  -15.5097 C   0  0  0  0  0  0  0  0  0  0  0  0
   -8.7061    4.3103  -16.9253 C   0  0  0  0  0  0  0  0  0  0  0  0
   -7.5965    4.7015  -17.6848 C   0  0  0  0  0  0  0  0  0  0  0  0
   -6.4809    4.9813  -16.8938 C   0  0  0  0  0  0  0  0  0  0  0  0
   -5.2883    5.5213  -17.2990 C   0  0  0  0  0  0  0  0  0  0  0  0
   -4.8519    6.1731  -18.6251 C   0  0  0  0  0  0  0  0  0  0  0  0
   -5.6642    5.9653  -19.9049 C   0  0  0  0  0  0  0  0  0  0  0  0
   -4.3711    6.0237  -20.6518 N   0  0  0  0  0  0  0  0  0  0  0  0
   -3.7293    5.4777  -19.4224 C   0  0  0  0  0  0  0  0  0  0  0  0
   -4.5441    5.6100  -16.1560 N   0  0  0  0  0  0  0  0  0  0  0  0
   -5.1383    5.1342  -15.0607 N   0  0  0  0  0  0  0  0  0  0  0  0
   -6.4117    4.8964  -15.4344 C   0  0  0  0  0  0  0  0  0  0  0  0
   -8.3001    3.4769  -12.6425 N   0  0  0  0  0  0  0  0  0  0  0  0
   -8.2783    3.5686  -11.2794 C   0  0  0  0  0  0  0  0  0  0  0  0
   -8.7837    2.6690  -10.3352 C   0  0  0  0  0  0  0  0  0  0  0  0
   -8.6565    3.0398   -9.0127 C   0  0  0  0  0  0  0  0  0  0  0  0
   -8.0866    4.2513   -8.6485 C   0  0  0  0  0  0  0  0  0  0  0  0
   -7.5879    5.1483   -9.5957 C   0  0  0  0  0  0  0  0  0  0  0  0
   -7.6734    4.7875  -10.9638 C   0  0  0  0  0  0  0  0  0  0  0  0
   -8.0952    4.3483   -7.1616 C   0  0  0  0  0  0  0  0  0  0  0  0
   -9.0144    3.2782   -6.6863 N   0  0  0  0  0  0  0  0  0  0  0  0
   -9.0525    2.2805   -7.7922 C   0  0  0  0  0  0  0  0  0  0  0  0
  1  2  2  0
  2  3  1  0
  2  4  1  0
  4  5  2  0
  5  6  1  0
  6  7  2  0
  7  8  1  0
  8  9  2  0
  9 10  1  0
 10 11  2  0
 11 12  1  0
 12 13  1  0
 13 14  1  0
 14 15  1  0
 11 16  1  0
 16 17  1  0
 17 18  2  0
  5 19  1  0
 19 20  1  0
 20 21  2  0
 21 22  1  0
 22 23  2  0
 23 24  1  0
 24 25  2  0
 23 26  1  0
 26 27  1  0
 27 28  1  0
 25  4  1  0
 18  6  1  0
 25 20  1  0
 18 10  1  0
 28 22  1  0
 15 12  1  0
M  CHG  1   3  -1
M  END
>  <smiles>  (1962) 
C28369-P226

>  <fragmenstein_outcome>  (1962) 
acceptable

>  <inchikey>  (1962) 
AEUQMUKSRUCNMR-UHFFFAOYSA-M

>  <fragmenstein_mode>  (1962) 
expansion

>  <HIPPO Pose ID>  (1962) 
24336

>  <Energy>  (1962) 
129.447291

>  <fragmenstein_error>  (1962) 


>  <tags>  (1962) 
{'openbind_xx01zvns2b_c1_fragmenstein', 'fragmenstein_placed'}

>  <ref_pdb>  (1962) 
175

>  <scratch_subdir>  (1962) 
/opt/xchem-fragalysis-2/maxwin/BulkDock/SCRATCH/511028/C28369-P226

>  <alias>  (1962) 
O=C([O-])c1c(-c2cccc3c(C4CNC4)[nH]nc23)[nH]c2cc3c(cc12)CNC3

>  <HIPPO Compound ID>  (1962) 
28369

>  <fragmenstein_runtime>  (1962) 
5.76563

$$$$
O=C(Nc1ccc2c(c1)CNC2)c1ccc2c3c([nH]nc13)C1(CNC1)C(=O)N2
     RDKit          3D

 28 33  0  0  0  0  0  0  0  0999 V2000
   -8.3038    6.2902  -13.4845 O   0  0  0  0  0  0  0  0  0  0  0  0
   -8.0511    5.1628  -13.6439 C   0  0  0  0  0  0  0  0  0  0  0  0
   -8.0069    3.9989  -12.6396 N   0  0  0  0  0  0  0  0  0  0  0  0
   -8.1659    3.9910  -11.2565 C   0  0  0  0  0  0  0  0  0  0  0  0
   -8.1287    5.1854  -10.5169 C   0  0  0  0  0  0  0  0  0  0  0  0
   -8.2749    5.1728   -9.1255 C   0  0  0  0  0  0  0  0  0  0  0  0
   -8.5225    3.9612   -8.5089 C   0  0  0  0  0  0  0  0  0  0  0  0
   -8.5854    2.7819   -9.2449 C   0  0  0  0  0  0  0  0  0  0  0  0
   -8.3679    2.7723  -10.6119 C   0  0  0  0  0  0  0  0  0  0  0  0
   -8.9143    1.6516   -8.3282 C   0  0  0  0  0  0  0  0  0  0  0  0
   -9.3734    2.2947   -7.0684 N   0  0  0  0  0  0  0  0  0  0  0  0
   -8.7697    3.6463   -7.0721 C   0  0  0  0  0  0  0  0  0  0  0  0
   -7.6559    4.7368  -14.9877 C   0  0  0  0  0  0  0  0  0  0  0  0
   -8.5914    4.3915  -16.0009 C   0  0  0  0  0  0  0  0  0  0  0  0
   -8.2787    4.4002  -17.4079 C   0  0  0  0  0  0  0  0  0  0  0  0
   -7.0185    4.7845  -17.8922 C   0  0  0  0  0  0  0  0  0  0  0  0
   -6.1263    4.9951  -16.8596 C   0  0  0  0  0  0  0  0  0  0  0  0
   -4.8650    5.4424  -17.0666 C   0  0  0  0  0  0  0  0  0  0  0  0
   -4.3317    5.6054  -15.8304 N   0  0  0  0  0  0  0  0  0  0  0  0
   -5.2089    5.3525  -14.8363 N   0  0  0  0  0  0  0  0  0  0  0  0
   -6.3577    5.0004  -15.4532 C   0  0  0  0  0  0  0  0  0  0  0  0
   -4.3188    5.7538  -18.4839 C   0  0  0  0  0  0  0  0  0  0  0  0
   -3.3695    6.9827  -18.5306 C   0  0  0  0  0  0  0  0  0  0  0  0
   -2.2026    6.0824  -18.4855 N   0  0  0  0  0  0  0  0  0  0  0  0
   -3.0584    4.9464  -18.8768 C   0  0  0  0  0  0  0  0  0  0  0  0
   -5.5028    5.7590  -19.5468 C   0  0  0  0  0  0  0  0  0  0  0  0
   -5.4195    6.3493  -20.6314 O   0  0  0  0  0  0  0  0  0  0  0  0
   -6.6972    5.1079  -19.2156 N   0  0  0  0  0  0  0  0  0  0  0  0
  1  2  2  0
  2  3  1  0
  3  4  1  0
  4  5  2  0
  5  6  1  0
  6  7  2  0
  7  8  1  0
  8  9  2  0
  8 10  1  0
 10 11  1  0
 11 12  1  0
  2 13  1  0
 13 14  2  0
 14 15  1  0
 15 16  2  0
 16 17  1  0
 17 18  2  0
 18 19  1  0
 19 20  1  0
 20 21  2  0
 18 22  1  0
 22 23  1  0
 23 24  1  0
 24 25  1  0
 22 26  1  0
 26 27  2  0
 26 28  1  0
  9  4  1  0
 21 13  1  0
 25 22  1  0
 12  7  1  0
 28 16  1  0
 21 17  1  0
M  END
>  <smiles>  (1963) 
C28427-P226

>  <fragmenstein_outcome>  (1963) 
acceptable

>  <inchikey>  (1963) 
BPXWFINXIKBDRU-UHFFFAOYSA-N

>  <fragmenstein_mode>  (1963) 
expansion

>  <HIPPO Pose ID>  (1963) 
24348

>  <Energy>  (1963) 
101.358777

>  <fragmenstein_error>  (1963) 


>  <tags>  (1963) 
{'openbind_xx01zvns2b_c1_fragmenstein', 'fragmenstein_placed'}

>  <ref_pdb>  (1963) 
175

>  <scratch_subdir>  (1963) 
/opt/xchem-fragalysis-2/maxwin/BulkDock/SCRATCH/511028/C28427-P226

>  <alias>  (1963) 
O=C(Nc1ccc2c(c1)CNC2)c1ccc2c3c([nH]nc13)C1(CNC1)C(=O)N2

>  <HIPPO Compound ID>  (1963) 
28427

>  <fragmenstein_runtime>  (1963) 
6.363891

$$$$
CNCn1nc2c(C(=O)Nc3ccc4c(c3)CNC4)cc(Br)cc2c1C1CNC1
     RDKit          3D

 29 33  0  0  0  0  0  0  0  0999 V2000
   -1.0529    5.6416  -14.3720 C   0  0  0  0  0  0  0  0  0  0  0  0
   -2.3136    5.1132  -14.8641 N   0  0  0  0  0  0  0  0  0  0  0  0
   -2.8531    5.9642  -15.9335 C   0  0  0  0  0  0  0  0  0  0  0  0
   -4.2730    5.6262  -16.0990 N   0  0  0  0  0  0  0  0  0  0  0  0
   -5.0357    5.5074  -14.9857 N   0  0  0  0  0  0  0  0  0  0  0  0
   -6.2546    5.1653  -15.4285 C   0  0  0  0  0  0  0  0  0  0  0  0
   -7.4537    4.9196  -14.7385 C   0  0  0  0  0  0  0  0  0  0  0  0
   -7.6124    5.3275  -13.3402 C   0  0  0  0  0  0  0  0  0  0  0  0
   -7.5052    6.4608  -13.0851 O   0  0  0  0  0  0  0  0  0  0  0  0
   -7.9577    4.1285  -12.4365 N   0  0  0  0  0  0  0  0  0  0  0  0
   -8.1444    4.0587  -11.0594 C   0  0  0  0  0  0  0  0  0  0  0  0
   -7.9747    5.1943  -10.2479 C   0  0  0  0  0  0  0  0  0  0  0  0
   -8.1571    5.1233   -8.8633 C   0  0  0  0  0  0  0  0  0  0  0  0
   -8.5257    3.9090   -8.3196 C   0  0  0  0  0  0  0  0  0  0  0  0
   -8.6860    2.7824   -9.1220 C   0  0  0  0  0  0  0  0  0  0  0  0
   -8.4940    2.8348  -10.4913 C   0  0  0  0  0  0  0  0  0  0  0  0
   -9.0408    1.6213   -8.2567 C   0  0  0  0  0  0  0  0  0  0  0  0
   -9.4879    2.2231   -6.9751 N   0  0  0  0  0  0  0  0  0  0  0  0
   -8.8054    3.5356   -6.9021 C   0  0  0  0  0  0  0  0  0  0  0  0
   -8.5359    4.4999  -15.5376 C   0  0  0  0  0  0  0  0  0  0  0  0
   -8.4382    4.4187  -16.9536 C   0  0  0  0  0  0  0  0  0  0  0  0
   -9.9733    3.9775  -17.9604 Br  0  0  0  0  0  0  0  0  0  0  0  0
   -7.2909    4.7446  -17.6951 C   0  0  0  0  0  0  0  0  0  0  0  0
   -6.2261    5.0889  -16.8716 C   0  0  0  0  0  0  0  0  0  0  0  0
   -4.9927    5.5388  -17.2637 C   0  0  0  0  0  0  0  0  0  0  0  0
   -4.4803    5.9634  -18.6612 C   0  0  0  0  0  0  0  0  0  0  0  0
   -4.6868    5.0210  -19.8441 C   0  0  0  0  0  0  0  0  0  0  0  0
   -4.9421    6.2187  -20.6848 N   0  0  0  0  0  0  0  0  0  0  0  0
   -5.3643    6.9409  -19.4656 C   0  0  0  0  0  0  0  0  0  0  0  0
  1  2  1  0
  2  3  1  0
  3  4  1  0
  4  5  1  0
  5  6  2  0
  6  7  1  0
  7  8  1  0
  8  9  2  0
  8 10  1  0
 10 11  1  0
 11 12  2  0
 12 13  1  0
 13 14  2  0
 14 15  1  0
 15 16  2  0
 15 17  1  0
 17 18  1  0
 18 19  1  0
  7 20  2  0
 20 21  1  0
 21 22  1  0
 21 23  2  0
 23 24  1  0
 24 25  2  0
 25 26  1  0
 26 27  1  0
 27 28  1  0
 28 29  1  0
 25  4  1  0
 29 26  1  0
 24  6  1  0
 16 11  1  0
 19 14  1  0
M  END
>  <smiles>  (1964) 
C28468-P226

>  <fragmenstein_outcome>  (1964) 
acceptable

>  <inchikey>  (1964) 
RPTRFZQZDXEOMU-UHFFFAOYSA-N

>  <fragmenstein_mode>  (1964) 
expansion

>  <HIPPO Pose ID>  (1964) 
24361

>  <Energy>  (1964) 
117.469615

>  <fragmenstein_error>  (1964) 


>  <tags>  (1964) 
{'openbind_xx01zvns2b_c1_fragmenstein', 'fragmenstein_placed'}

>  <ref_pdb>  (1964) 
175

>  <scratch_subdir>  (1964) 
/opt/xchem-fragalysis-2/maxwin/BulkDock/SCRATCH/511028/C28468-P226

>  <alias>  (1964) 
CNCn1nc2c(C(=O)Nc3ccc4c(c3)CNC4)cc(Br)cc2c1C1CNC1

>  <HIPPO Compound ID>  (1964) 
41318

>  <fragmenstein_runtime>  (1964) 
8.316977

$$$$
CCCN1CC(c2n[nH]c3c(C(=O)Nc4ccc5c(c4)CNC5)cccc23)C1
     RDKit          3D

 28 32  0  0  0  0  0  0  0  0999 V2000
   -2.7589    5.7694  -24.0746 C   0  0  0  0  0  0  0  0  0  0  0  0
   -3.6124    6.7707  -23.3103 C   0  0  0  0  0  0  0  0  0  0  0  0
   -4.8199    6.1517  -22.5879 C   0  0  0  0  0  0  0  0  0  0  0  0
   -4.4160    5.1322  -21.6014 N   0  0  0  0  0  0  0  0  0  0  0  0
   -3.9565    5.7742  -20.3290 C   0  0  0  0  0  0  0  0  0  0  0  0
   -5.4138    5.7667  -19.8181 C   0  0  0  0  0  0  0  0  0  0  0  0
   -5.6101    5.4613  -18.3057 C   0  0  0  0  0  0  0  0  0  0  0  0
   -4.7775    5.9270  -17.3672 N   0  0  0  0  0  0  0  0  0  0  0  0
   -5.4126    5.6428  -16.2146 N   0  0  0  0  0  0  0  0  0  0  0  0
   -6.6280    5.0302  -16.3784 C   0  0  0  0  0  0  0  0  0  0  0  0
   -7.6107    4.6611  -15.4430 C   0  0  0  0  0  0  0  0  0  0  0  0
   -7.4590    5.0555  -14.0067 C   0  0  0  0  0  0  0  0  0  0  0  0
   -6.9511    6.0919  -13.8088 O   0  0  0  0  0  0  0  0  0  0  0  0
   -8.0976    4.0422  -13.0172 N   0  0  0  0  0  0  0  0  0  0  0  0
   -8.1560    4.0509  -11.6174 C   0  0  0  0  0  0  0  0  0  0  0  0
   -7.8120    5.1975  -10.8812 C   0  0  0  0  0  0  0  0  0  0  0  0
   -7.9231    5.2221   -9.4829 C   0  0  0  0  0  0  0  0  0  0  0  0
   -8.3568    4.0798   -8.8368 C   0  0  0  0  0  0  0  0  0  0  0  0
   -8.6591    2.9283   -9.5544 C   0  0  0  0  0  0  0  0  0  0  0  0
   -8.5851    2.9029  -10.9416 C   0  0  0  0  0  0  0  0  0  0  0  0
   -9.0014    1.8385   -8.5904 C   0  0  0  0  0  0  0  0  0  0  0  0
   -9.2840    2.5294   -7.3062 N   0  0  0  0  0  0  0  0  0  0  0  0
   -8.5612    3.8183   -7.3812 C   0  0  0  0  0  0  0  0  0  0  0  0
   -8.7814    4.0977  -15.9671 C   0  0  0  0  0  0  0  0  0  0  0  0
   -8.9520    3.9176  -17.3438 C   0  0  0  0  0  0  0  0  0  0  0  0
   -7.9595    4.3032  -18.2509 C   0  0  0  0  0  0  0  0  0  0  0  0
   -6.7746    4.8713  -17.7542 C   0  0  0  0  0  0  0  0  0  0  0  0
   -5.5962    4.6322  -20.8398 C   0  0  0  0  0  0  0  0  0  0  0  0
  1  2  1  0
  2  3  1  0
  3  4  1  0
  4  5  1  0
  5  6  1  0
  6  7  1  0
  7  8  2  0
  8  9  1  0
  9 10  1  0
 10 11  2  0
 11 12  1  0
 12 13  2  0
 12 14  1  0
 14 15  1  0
 15 16  2  0
 16 17  1  0
 17 18  2  0
 18 19  1  0
 19 20  2  0
 19 21  1  0
 21 22  1  0
 22 23  1  0
 11 24  1  0
 24 25  2  0
 25 26  1  0
 26 27  2  0
  6 28  1  0
 28  4  1  0
 27  7  1  0
 27 10  1  0
 20 15  1  0
 23 18  1  0
M  END
>  <smiles>  (1965) 
C28489-P227

>  <fragmenstein_outcome>  (1965) 
acceptable

>  <inchikey>  (1965) 
CFDWEUAIGJEOPA-UHFFFAOYSA-N

>  <fragmenstein_mode>  (1965) 
expansion

>  <HIPPO Pose ID>  (1965) 
24368

>  <Energy>  (1965) 
77.260359

>  <fragmenstein_error>  (1965) 


>  <tags>  (1965) 
{'openbind_xx01zvns2b_c1_fragmenstein', 'fragmenstein_placed'}

>  <ref_pdb>  (1965) 
175

>  <scratch_subdir>  (1965) 
/opt/xchem-fragalysis-2/maxwin/BulkDock/SCRATCH/511028/C28489-P227

>  <alias>  (1965) 
CCCN1CC(c2n[nH]c3c(C(=O)Nc4ccc5c(c4)CNC5)cccc23)C1

>  <HIPPO Compound ID>  (1965) 
28489

>  <fragmenstein_runtime>  (1965) 
6.193947

$$$$
CC1(C)CC(c2[nH]nc3c(C(=O)Nc4ccc5c(c4)CNC5)cccc23)C1
     RDKit          3D

 27 31  0  0  0  0  0  0  0  0999 V2000
   -3.2116    6.3342  -21.4748 C   0  0  0  0  0  0  0  0  0  0  0  0
   -4.4309    5.7117  -20.7952 C   0  0  0  0  0  0  0  0  0  0  0  0
   -5.2683    4.9117  -21.7784 C   0  0  0  0  0  0  0  0  0  0  0  0
   -4.1108    4.8831  -19.5259 C   0  0  0  0  0  0  0  0  0  0  0  0
   -4.3742    6.1397  -18.6905 C   0  0  0  0  0  0  0  0  0  0  0  0
   -5.0687    5.9036  -17.3291 C   0  0  0  0  0  0  0  0  0  0  0  0
   -4.5125    6.3409  -16.1616 N   0  0  0  0  0  0  0  0  0  0  0  0
   -5.2563    6.1231  -15.0758 N   0  0  0  0  0  0  0  0  0  0  0  0
   -6.3624    5.5026  -15.5238 C   0  0  0  0  0  0  0  0  0  0  0  0
   -7.5229    5.0865  -14.8429 C   0  0  0  0  0  0  0  0  0  0  0  0
   -7.7635    5.4876  -13.4482 C   0  0  0  0  0  0  0  0  0  0  0  0
   -7.7180    6.6231  -13.1814 O   0  0  0  0  0  0  0  0  0  0  0  0
   -8.0373    4.2590  -12.5530 N   0  0  0  0  0  0  0  0  0  0  0  0
   -8.2123    4.1651  -11.1731 C   0  0  0  0  0  0  0  0  0  0  0  0
   -8.1054    5.3041  -10.3560 C   0  0  0  0  0  0  0  0  0  0  0  0
   -8.2694    5.2150   -8.9702 C   0  0  0  0  0  0  0  0  0  0  0  0
   -8.5736    3.9812   -8.4301 C   0  0  0  0  0  0  0  0  0  0  0  0
   -8.6840    2.8518   -9.2364 C   0  0  0  0  0  0  0  0  0  0  0  0
   -8.4892    2.9194  -10.6068 C   0  0  0  0  0  0  0  0  0  0  0  0
   -9.0107    1.6762   -8.3769 C   0  0  0  0  0  0  0  0  0  0  0  0
   -9.4521    2.2536   -7.0811 N   0  0  0  0  0  0  0  0  0  0  0  0
   -8.8312    3.5943   -7.0126 C   0  0  0  0  0  0  0  0  0  0  0  0
   -8.4779    4.4154  -15.6365 C   0  0  0  0  0  0  0  0  0  0  0  0
   -8.3040    4.2069  -17.0378 C   0  0  0  0  0  0  0  0  0  0  0  0
   -7.1773    4.6493  -17.7686 C   0  0  0  0  0  0  0  0  0  0  0  0
   -6.2378    5.2881  -16.9558 C   0  0  0  0  0  0  0  0  0  0  0  0
   -5.2204    6.6836  -19.8618 C   0  0  0  0  0  0  0  0  0  0  0  0
  1  2  1  0
  2  3  1  0
  2  4  1  0
  4  5  1  0
  5  6  1  0
  6  7  1  0
  7  8  1  0
  8  9  2  0
  9 10  1  0
 10 11  1  0
 11 12  2  0
 11 13  1  0
 13 14  1  0
 14 15  2  0
 15 16  1  0
 16 17  2  0
 17 18  1  0
 18 19  2  0
 18 20  1  0
 20 21  1  0
 21 22  1  0
 10 23  2  0
 23 24  1  0
 24 25  2  0
 25 26  1  0
  5 27  1  0
 27  2  1  0
 26  6  2  0
 26  9  1  0
 19 14  1  0
 22 17  1  0
M  END
>  <smiles>  (1966) 
C28494-P227

>  <fragmenstein_outcome>  (1966) 
acceptable

>  <inchikey>  (1966) 
MAKUWCPKQUUOPV-UHFFFAOYSA-N

>  <fragmenstein_mode>  (1966) 
expansion

>  <HIPPO Pose ID>  (1966) 
24374

>  <Energy>  (1966) 
90.979225

>  <fragmenstein_error>  (1966) 


>  <tags>  (1966) 
{'openbind_xx01zvns2b_c1_fragmenstein', 'fragmenstein_placed'}

>  <ref_pdb>  (1966) 
175

>  <scratch_subdir>  (1966) 
/opt/xchem-fragalysis-2/maxwin/BulkDock/SCRATCH/511028/C28494-P227

>  <alias>  (1966) 
CC1(C)CC(c2[nH]nc3c(C(=O)Nc4ccc5c(c4)CNC5)cccc23)C1

>  <HIPPO Compound ID>  (1966) 
28494

>  <fragmenstein_runtime>  (1966) 
3.975325

$$$$
NCn1nc2c(C(=O)Nc3ccc4c(c3)CNC4)cccc2c1C1CNC1
     RDKit          3D

 27 31  0  0  0  0  0  0  0  0999 V2000
   -2.7285    6.5161  -16.0517 N   0  0  0  0  0  0  0  0  0  0  0  0
   -3.2505    5.9106  -17.2853 C   0  0  0  0  0  0  0  0  0  0  0  0
   -4.6515    5.5142  -17.0937 N   0  0  0  0  0  0  0  0  0  0  0  0
   -5.1357    5.4468  -15.8255 N   0  0  0  0  0  0  0  0  0  0  0  0
   -6.4048    5.0205  -15.9403 C   0  0  0  0  0  0  0  0  0  0  0  0
   -7.4150    4.8029  -14.9820 C   0  0  0  0  0  0  0  0  0  0  0  0
   -7.2980    5.2128  -13.5708 C   0  0  0  0  0  0  0  0  0  0  0  0
   -6.9677    6.3072  -13.3298 O   0  0  0  0  0  0  0  0  0  0  0  0
   -7.7560    4.0718  -12.6283 N   0  0  0  0  0  0  0  0  0  0  0  0
   -7.9851    4.0703  -11.2524 C   0  0  0  0  0  0  0  0  0  0  0  0
   -7.7882    5.2211  -10.4727 C   0  0  0  0  0  0  0  0  0  0  0  0
   -8.0278    5.2033   -9.0930 C   0  0  0  0  0  0  0  0  0  0  0  0
   -8.4584    4.0223   -8.5179 C   0  0  0  0  0  0  0  0  0  0  0  0
   -8.6426    2.8779   -9.2862 C   0  0  0  0  0  0  0  0  0  0  0  0
   -8.4204    2.8851  -10.6533 C   0  0  0  0  0  0  0  0  0  0  0  0
   -9.0394    1.7509   -8.3917 C   0  0  0  0  0  0  0  0  0  0  0  0
   -9.4542    2.3941   -7.1192 N   0  0  0  0  0  0  0  0  0  0  0  0
   -8.7656    3.7039   -7.0925 C   0  0  0  0  0  0  0  0  0  0  0  0
   -8.6367    4.3234  -15.5100 C   0  0  0  0  0  0  0  0  0  0  0  0
   -8.8569    4.0985  -16.8985 C   0  0  0  0  0  0  0  0  0  0  0  0
   -7.8848    4.3311  -17.8869 C   0  0  0  0  0  0  0  0  0  0  0  0
   -6.6836    4.7843  -17.3423 C   0  0  0  0  0  0  0  0  0  0  0  0
   -5.5778    5.1807  -18.0529 C   0  0  0  0  0  0  0  0  0  0  0  0
   -5.5038    5.3064  -19.6095 C   0  0  0  0  0  0  0  0  0  0  0  0
   -5.2913    6.7458  -20.1205 C   0  0  0  0  0  0  0  0  0  0  0  0
   -4.3445    6.2321  -21.1301 N   0  0  0  0  0  0  0  0  0  0  0  0
   -4.1959    4.9846  -20.3493 C   0  0  0  0  0  0  0  0  0  0  0  0
  1  2  1  0
  2  3  1  0
  3  4  1  0
  4  5  2  0
  5  6  1  0
  6  7  1  0
  7  8  2  0
  7  9  1  0
  9 10  1  0
 10 11  2  0
 11 12  1  0
 12 13  2  0
 13 14  1  0
 14 15  2  0
 14 16  1  0
 16 17  1  0
 17 18  1  0
  6 19  2  0
 19 20  1  0
 20 21  2  0
 21 22  1  0
 22 23  2  0
 23 24  1  0
 24 25  1  0
 25 26  1  0
 26 27  1  0
 23  3  1  0
 27 24  1  0
 22  5  1  0
 15 10  1  0
 18 13  1  0
M  END
>  <smiles>  (1967) 
C28497-P227

>  <fragmenstein_outcome>  (1967) 
acceptable

>  <inchikey>  (1967) 
HCXXPNYJARGNPI-UHFFFAOYSA-N

>  <fragmenstein_mode>  (1967) 
expansion

>  <HIPPO Pose ID>  (1967) 
24376

>  <Energy>  (1967) 
123.889903

>  <fragmenstein_error>  (1967) 


>  <tags>  (1967) 
{'openbind_xx01zvns2b_c1_fragmenstein', 'fragmenstein_placed'}

>  <ref_pdb>  (1967) 
175

>  <scratch_subdir>  (1967) 
/opt/xchem-fragalysis-2/maxwin/BulkDock/SCRATCH/511028/C28497-P227

>  <alias>  (1967) 
NCn1nc2c(C(=O)Nc3ccc4c(c3)CNC4)cccc2c1C1CNC1

>  <HIPPO Compound ID>  (1967) 
18603

>  <fragmenstein_runtime>  (1967) 
7.760528

$$$$
O=C(Nc1ccc2c(c1)CNC2)c1cc(Br)cc2c(C3CNC3)[nH]nc12
     RDKit          3D

 26 30  0  0  0  0  0  0  0  0999 V2000
   -7.5046    6.6480  -13.1536 O   0  0  0  0  0  0  0  0  0  0  0  0
   -7.5950    5.5188  -13.4374 C   0  0  0  0  0  0  0  0  0  0  0  0
   -7.8423    4.2786  -12.5476 N   0  0  0  0  0  0  0  0  0  0  0  0
   -8.1149    4.1823  -11.1824 C   0  0  0  0  0  0  0  0  0  0  0  0
   -8.0506    5.3209  -10.3608 C   0  0  0  0  0  0  0  0  0  0  0  0
   -8.2503    5.2268   -8.9798 C   0  0  0  0  0  0  0  0  0  0  0  0
   -8.5395    3.9866   -8.4439 C   0  0  0  0  0  0  0  0  0  0  0  0
   -8.6272    2.8611   -9.2540 C   0  0  0  0  0  0  0  0  0  0  0  0
   -8.4071    2.9359  -10.6235 C   0  0  0  0  0  0  0  0  0  0  0  0
   -8.9427    1.6726   -8.4089 C   0  0  0  0  0  0  0  0  0  0  0  0
   -9.2403    2.1979   -7.0524 N   0  0  0  0  0  0  0  0  0  0  0  0
   -8.7844    3.6014   -7.0250 C   0  0  0  0  0  0  0  0  0  0  0  0
   -7.3692    5.1408  -14.8429 C   0  0  0  0  0  0  0  0  0  0  0  0
   -8.3551    4.5314  -15.6494 C   0  0  0  0  0  0  0  0  0  0  0  0
   -8.1865    4.3751  -17.0576 C   0  0  0  0  0  0  0  0  0  0  0  0
   -9.6440    3.7071  -18.0748 Br  0  0  0  0  0  0  0  0  0  0  0  0
   -7.0414    4.7749  -17.7808 C   0  0  0  0  0  0  0  0  0  0  0  0
   -6.0883    5.3786  -16.9603 C   0  0  0  0  0  0  0  0  0  0  0  0
   -4.9276    6.0114  -17.3362 C   0  0  0  0  0  0  0  0  0  0  0  0
   -4.2570    6.2960  -18.7218 C   0  0  0  0  0  0  0  0  0  0  0  0
   -5.1351    6.3997  -19.9806 C   0  0  0  0  0  0  0  0  0  0  0  0
   -4.7848    5.0043  -20.3060 N   0  0  0  0  0  0  0  0  0  0  0  0
   -3.6091    5.0883  -19.4256 C   0  0  0  0  0  0  0  0  0  0  0  0
   -4.3644    6.4306  -16.1604 N   0  0  0  0  0  0  0  0  0  0  0  0
   -5.0930    6.1727  -15.0708 N   0  0  0  0  0  0  0  0  0  0  0  0
   -6.2044    5.5625  -15.5221 C   0  0  0  0  0  0  0  0  0  0  0  0
  1  2  2  0
  2  3  1  0
  3  4  1  0
  4  5  2  0
  5  6  1  0
  6  7  2  0
  7  8  1  0
  8  9  2  0
  8 10  1  0
 10 11  1  0
 11 12  1  0
  2 13  1  0
 13 14  2  0
 14 15  1  0
 15 16  1  0
 15 17  2  0
 17 18  1  0
 18 19  2  0
 19 20  1  0
 20 21  1  0
 21 22  1  0
 22 23  1  0
 19 24  1  0
 24 25  1  0
 25 26  2  0
  9  4  1  0
 26 13  1  0
 12  7  1  0
 26 18  1  0
 23 20  1  0
M  END
>  <smiles>  (1968) 
C28310-P227

>  <fragmenstein_outcome>  (1968) 
acceptable

>  <inchikey>  (1968) 
GRAOAVAPFANLFK-UHFFFAOYSA-N

>  <fragmenstein_mode>  (1968) 
expansion

>  <HIPPO Pose ID>  (1968) 
24384

>  <Energy>  (1968) 
89.76223

>  <fragmenstein_error>  (1968) 


>  <tags>  (1968) 
{'openbind_xx01zvns2b_c1_fragmenstein', 'fragmenstein_placed'}

>  <ref_pdb>  (1968) 
175

>  <scratch_subdir>  (1968) 
/opt/xchem-fragalysis-2/maxwin/BulkDock/SCRATCH/511028/C28310-P227

>  <alias>  (1968) 
O=C(Nc1ccc2c(c1)CNC2)c1cc(Br)cc2c(C3CNC3)[nH]nc12

>  <HIPPO Compound ID>  (1968) 
37605

>  <fragmenstein_runtime>  (1968) 
4.35985

$$$$
C[C@@H]1NC[C@H]1c1[nH]nc2c(C(=O)Nc3ccc4c(c3)CNC4)cc(Cl)cc12
     RDKit          3D

 27 31  0  0  0  0  0  0  0  0999 V2000
   -5.0718    6.3682  -20.7260 C   0  0  0  0  0  0  0  0  0  0  0  0
   -4.0076    6.0790  -19.6931 C   0  0  2  0  0  0  0  0  0  0  0  0
   -2.7986    5.4236  -20.2560 N   0  0  0  0  0  0  0  0  0  0  0  0
   -2.7489    4.5666  -19.0409 C   0  0  0  0  0  0  0  0  0  0  0  0
   -4.2621    4.8109  -18.8661 C   0  0  1  0  0  0  0  0  0  0  0  0
   -4.8287    5.0314  -17.4453 C   0  0  0  0  0  0  0  0  0  0  0  0
   -4.1551    5.4488  -16.3369 N   0  0  0  0  0  0  0  0  0  0  0  0
   -4.9123    5.5085  -15.2262 N   0  0  0  0  0  0  0  0  0  0  0  0
   -6.1471    5.1312  -15.6117 C   0  0  0  0  0  0  0  0  0  0  0  0
   -7.3602    4.9954  -14.9051 C   0  0  0  0  0  0  0  0  0  0  0  0
   -7.4964    5.4200  -13.5070 C   0  0  0  0  0  0  0  0  0  0  0  0
   -7.3748    6.5537  -13.2555 O   0  0  0  0  0  0  0  0  0  0  0  0
   -7.7799    4.2127  -12.5824 N   0  0  0  0  0  0  0  0  0  0  0  0
   -8.0574    4.1633  -11.2151 C   0  0  0  0  0  0  0  0  0  0  0  0
   -7.9413    5.3093  -10.4122 C   0  0  0  0  0  0  0  0  0  0  0  0
   -8.1542    5.2442   -9.0305 C   0  0  0  0  0  0  0  0  0  0  0  0
   -8.4918    4.0240   -8.4747 C   0  0  0  0  0  0  0  0  0  0  0  0
   -8.6229    2.8905   -9.2668 C   0  0  0  0  0  0  0  0  0  0  0  0
   -8.4085    2.9395  -10.6374 C   0  0  0  0  0  0  0  0  0  0  0  0
   -8.9630    1.7225   -8.4030 C   0  0  0  0  0  0  0  0  0  0  0  0
   -9.2396    2.2761   -7.0538 N   0  0  0  0  0  0  0  0  0  0  0  0
   -8.7431    3.6668   -7.0492 C   0  0  0  0  0  0  0  0  0  0  0  0
   -8.4609    4.5437  -15.6700 C   0  0  0  0  0  0  0  0  0  0  0  0
   -8.3663    4.2852  -17.0688 C   0  0  0  0  0  0  0  0  0  0  0  0
   -9.7936    3.8306  -17.9301 Cl  0  0  0  0  0  0  0  0  0  0  0  0
   -7.1840    4.4196  -17.8196 C   0  0  0  0  0  0  0  0  0  0  0  0
   -6.1159    4.8318  -17.0268 C   0  0  0  0  0  0  0  0  0  0  0  0
  2  1  1  6
  2  3  1  0
  3  4  1  0
  4  5  1  0
  5  6  1  1
  6  7  1  0
  7  8  1  0
  8  9  2  0
  9 10  1  0
 10 11  1  0
 11 12  2  0
 11 13  1  0
 13 14  1  0
 14 15  2  0
 15 16  1  0
 16 17  2  0
 17 18  1  0
 18 19  2  0
 18 20  1  0
 20 21  1  0
 21 22  1  0
 10 23  2  0
 23 24  1  0
 24 25  1  0
 24 26  2  0
 26 27  1  0
  5  2  1  0
 27  6  2  0
 27  9  1  0
 19 14  1  0
 22 17  1  0
M  END
>  <smiles>  (1969) 
C28504-P227

>  <fragmenstein_outcome>  (1969) 
acceptable

>  <inchikey>  (1969) 
YELJAZGYCPJSAD-UHFFFAOYSA-N

>  <fragmenstein_mode>  (1969) 
expansion

>  <HIPPO Pose ID>  (1969) 
24387

>  <Energy>  (1969) 
84.807683

>  <fragmenstein_error>  (1969) 


>  <tags>  (1969) 
{'openbind_xx01zvns2b_c1_fragmenstein', 'fragmenstein_placed'}

>  <ref_pdb>  (1969) 
175

>  <scratch_subdir>  (1969) 
/opt/xchem-fragalysis-2/maxwin/BulkDock/SCRATCH/511028/C28504-P227

>  <alias>  (1969) 
C[C@@H]1NC[C@H]1c1[nH]nc2c(C(=O)Nc3ccc4c(c3)CNC4)cc(Cl)cc12

>  <HIPPO Compound ID>  (1969) 
28504

>  <fragmenstein_runtime>  (1969) 
7.050303

$$$$
CN(C)Cc1cc(NC(=O)c2cc(Cl)cc3c2C[C@](O)(NC(C)(C)CO)N3)cn1Cc1ccncc1
     RDKit          3D

 36 39  0  0  0  0  0  0  0  0999 V2000
   -9.1104    2.2415   -5.9768 C   0  0  0  0  0  0  0  0  0  0  0  0
   -8.8355    3.2402   -6.9808 N   0  0  0  0  0  0  0  0  0  0  0  0
   -9.5841    4.4349   -6.6378 C   0  0  0  0  0  0  0  0  0  0  0  0
   -9.0747    2.6470   -8.2975 C   0  0  0  0  0  0  0  0  0  0  0  0
   -8.5211    3.4118   -9.4613 C   0  0  0  0  0  0  0  0  0  0  0  0
   -8.7294    3.1176  -10.8048 C   0  0  0  0  0  0  0  0  0  0  0  0
   -8.1270    4.1267  -11.5745 C   0  0  0  0  0  0  0  0  0  0  0  0
   -8.0411    4.2197  -12.9311 N   0  0  0  0  0  0  0  0  0  0  0  0
   -7.4704    5.3414  -13.8251 C   0  0  0  0  0  0  0  0  0  0  0  0
   -7.0543    6.3956  -13.5439 O   0  0  0  0  0  0  0  0  0  0  0  0
   -7.4032    4.9330  -15.2478 C   0  0  0  0  0  0  0  0  0  0  0  0
   -8.5181    4.4382  -15.9290 C   0  0  0  0  0  0  0  0  0  0  0  0
   -8.4370    4.2124  -17.3097 C   0  0  0  0  0  0  0  0  0  0  0  0
   -9.8378    3.7205  -18.1788 Cl  0  0  0  0  0  0  0  0  0  0  0  0
   -7.2547    4.4443  -18.0139 C   0  0  0  0  0  0  0  0  0  0  0  0
   -6.1522    4.9005  -17.3160 C   0  0  0  0  0  0  0  0  0  0  0  0
   -6.2277    5.1518  -15.9564 C   0  0  0  0  0  0  0  0  0  0  0  0
   -4.9187    5.7092  -15.4964 C   0  0  0  0  0  0  0  0  0  0  0  0
   -4.0152    5.5554  -16.7826 C   0  0  2  0  0  0  0  0  0  0  0  0
   -3.2175    4.4167  -16.5791 O   0  0  0  0  0  0  0  0  0  0  0  0
   -3.1492    6.7189  -16.8718 N   0  0  0  0  0  0  0  0  0  0  0  0
   -2.3007    6.9327  -18.0670 C   0  0  0  0  0  0  0  0  0  0  0  0
   -1.5059    8.2194  -17.7324 C   0  0  0  0  0  0  0  0  0  0  0  0
   -3.1302    7.2254  -19.3330 C   0  0  0  0  0  0  0  0  0  0  0  0
   -1.2456    5.8257  -18.3608 C   0  0  0  0  0  0  0  0  0  0  0  0
   -1.8396    4.6082  -18.8225 O   0  0  0  0  0  0  0  0  0  0  0  0
   -4.9163    5.2559  -17.8850 N   0  0  0  0  0  0  0  0  0  0  0  0
   -7.5722    5.0215  -10.6980 C   0  0  0  0  0  0  0  0  0  0  0  0
   -7.6546    4.4874   -9.4309 N   0  0  0  0  0  0  0  0  0  0  0  0
   -6.8977    5.0100   -8.2975 C   0  0  0  0  0  0  0  0  0  0  0  0
   -5.4402    5.2659   -8.6263 C   0  0  0  0  0  0  0  0  0  0  0  0
   -4.9065    6.5567   -8.5971 C   0  0  0  0  0  0  0  0  0  0  0  0
   -3.5590    6.7222   -8.8800 C   0  0  0  0  0  0  0  0  0  0  0  0
   -2.7183    5.7074   -9.1767 N   0  0  0  0  0  0  0  0  0  0  0  0
   -3.2587    4.4700   -9.2142 C   0  0  0  0  0  0  0  0  0  0  0  0
   -4.5903    4.2010   -8.9457 C   0  0  0  0  0  0  0  0  0  0  0  0
  1  2  1  0
  2  3  1  0
  2  4  1  0
  4  5  1  0
  5  6  2  0
  6  7  1  0
  7  8  1  0
  8  9  1  0
  9 10  2  0
  9 11  1  0
 11 12  2  0
 12 13  1  0
 13 14  1  0
 13 15  2  0
 15 16  1  0
 16 17  2  0
 17 18  1  0
 18 19  1  0
 19 20  1  1
 19 21  1  0
 21 22  1  0
 22 23  1  0
 22 24  1  0
 22 25  1  0
 25 26  1  0
 19 27  1  0
  7 28  2  0
 28 29  1  0
 29 30  1  0
 30 31  1  0
 31 32  2  0
 32 33  1  0
 33 34  2  0
 34 35  1  0
 35 36  2  0
 29  5  1  0
 36 31  1  0
 17 11  1  0
 27 16  1  0
M  END
>  <smiles>  (1970) 
C28566-P227

>  <fragmenstein_outcome>  (1970) 
acceptable

>  <inchikey>  (1970) 
NMVBKXDXDLTFSD-UHFFFAOYSA-N

>  <fragmenstein_mode>  (1970) 
expansion

>  <HIPPO Pose ID>  (1970) 
24422

>  <Energy>  (1970) 
-28.77448

>  <fragmenstein_error>  (1970) 


>  <tags>  (1970) 
{'openbind_xx01zvns2b_c1_fragmenstein', 'fragmenstein_placed'}

>  <ref_pdb>  (1970) 
175

>  <scratch_subdir>  (1970) 
/opt/xchem-fragalysis-2/maxwin/BulkDock/SCRATCH/511028/C28566-P227

>  <alias>  (1970) 
CN(C)Cc1cc(NC(=O)c2cc(Cl)cc3c2C[C@](O)(NC(C)(C)CO)N3)cn1Cc1ccncc1

>  <HIPPO Compound ID>  (1970) 
36852

>  <fragmenstein_runtime>  (1970) 
12.162334

$$$$
N[C@](O)(Oc1ccc2c(c1)CNC2)c1ccc2c(c1)CC(=O)N2
     RDKit          3D

 23 26  0  0  0  0  0  0  0  0999 V2000
   -6.0761    4.8276  -12.8681 N   0  0  0  0  0  0  0  0  0  0  0  0
   -7.3691    5.0300  -13.5011 C   0  0  2  0  0  0  0  0  0  0  0  0
   -7.6805    6.4134  -13.4404 O   0  0  0  0  0  0  0  0  0  0  0  0
   -8.4013    4.2640  -12.8757 O   0  0  0  0  0  0  0  0  0  0  0  0
   -8.4127    4.3449  -11.4995 C   0  0  0  0  0  0  0  0  0  0  0  0
   -8.4231    3.1256  -10.8121 C   0  0  0  0  0  0  0  0  0  0  0  0
   -8.2977    3.1004   -9.4213 C   0  0  0  0  0  0  0  0  0  0  0  0
   -8.1893    4.3030   -8.7428 C   0  0  0  0  0  0  0  0  0  0  0  0
   -8.2250    5.5131   -9.4155 C   0  0  0  0  0  0  0  0  0  0  0  0
   -8.3521    5.5556  -10.7910 C   0  0  0  0  0  0  0  0  0  0  0  0
   -8.0871    6.6241   -8.4327 C   0  0  0  0  0  0  0  0  0  0  0  0
   -8.2808    6.0025   -7.0920 N   0  0  0  0  0  0  0  0  0  0  0  0
   -8.0175    4.5477   -7.2855 C   0  0  0  0  0  0  0  0  0  0  0  0
   -7.2416    4.7388  -15.0002 C   0  0  0  0  0  0  0  0  0  0  0  0
   -8.3204    4.3292  -15.8238 C   0  0  0  0  0  0  0  0  0  0  0  0
   -8.1881    4.2906  -17.2274 C   0  0  0  0  0  0  0  0  0  0  0  0
   -6.9700    4.6583  -17.7676 C   0  0  0  0  0  0  0  0  0  0  0  0
   -5.9003    5.0255  -16.9708 C   0  0  0  0  0  0  0  0  0  0  0  0
   -6.0166    5.0785  -15.6088 C   0  0  0  0  0  0  0  0  0  0  0  0
   -4.7222    5.4031  -17.7961 C   0  0  0  0  0  0  0  0  0  0  0  0
   -5.2932    5.3282  -19.1974 C   0  0  0  0  0  0  0  0  0  0  0  0
   -4.6967    5.6897  -20.1982 O   0  0  0  0  0  0  0  0  0  0  0  0
   -6.5846    4.8165  -19.0911 N   0  0  0  0  0  0  0  0  0  0  0  0
  2  1  1  1
  2  3  1  0
  2  4  1  0
  4  5  1  0
  5  6  2  0
  6  7  1  0
  7  8  2  0
  8  9  1  0
  9 10  2  0
  9 11  1  0
 11 12  1  0
 12 13  1  0
  2 14  1  0
 14 15  2  0
 15 16  1  0
 16 17  2  0
 17 18  1  0
 18 19  2  0
 18 20  1  0
 20 21  1  0
 21 22  2  0
 21 23  1  0
 10  5  1  0
 19 14  1  0
 13  8  1  0
 23 17  1  0
M  END
>  <smiles>  (1971) 
C28771-P228

>  <fragmenstein_outcome>  (1971) 
acceptable

>  <inchikey>  (1971) 
IOLQURIPHVQRPQ-UHFFFAOYSA-N

>  <fragmenstein_mode>  (1971) 
expansion

>  <HIPPO Pose ID>  (1971) 
24499

>  <Energy>  (1971) 
-35.533856

>  <fragmenstein_error>  (1971) 


>  <tags>  (1971) 
{'openbind_xx01zvns2b_c1_fragmenstein', 'fragmenstein_placed'}

>  <ref_pdb>  (1971) 
175

>  <scratch_subdir>  (1971) 
/opt/xchem-fragalysis-2/maxwin/BulkDock/SCRATCH/511028/C28771-P228

>  <alias>  (1971) 
N[C@](O)(Oc1ccc2c(c1)CNC2)c1ccc2c(c1)CC(=O)N2

>  <HIPPO Compound ID>  (1971) 
28771

>  <fragmenstein_runtime>  (1971) 
7.218396

$$$$
CS(=O)(=O)c1cc2c(cc1OC(=O)c1ccc3c(c1)CC(=O)N3)CNC2
     RDKit          3D

 26 29  0  0  0  0  0  0  0  0999 V2000
   -7.8287    8.2301  -10.9167 C   0  0  0  0  0  0  0  0  0  0  0  0
   -7.9397    6.8328  -11.9765 S   0  0  0  0  0  0  0  0  0  0  0  0
   -6.6457    6.7256  -12.6247 O   0  0  0  0  0  0  0  0  0  0  0  0
   -9.1448    7.0063  -12.7696 O   0  0  0  0  0  0  0  0  0  0  0  0
   -8.1782    5.3837  -10.9758 C   0  0  0  0  0  0  0  0  0  0  0  0
   -8.1979    5.4363   -9.5763 C   0  0  0  0  0  0  0  0  0  0  0  0
   -8.4806    4.2612   -8.8874 C   0  0  0  0  0  0  0  0  0  0  0  0
   -8.7144    3.0579   -9.5533 C   0  0  0  0  0  0  0  0  0  0  0  0
   -8.6821    2.9849  -10.9316 C   0  0  0  0  0  0  0  0  0  0  0  0
   -8.4116    4.1600  -11.6368 C   0  0  0  0  0  0  0  0  0  0  0  0
   -8.4450    4.1055  -13.0307 O   0  0  0  0  0  0  0  0  0  0  0  0
   -7.1701    3.9686  -13.5283 C   0  0  0  0  0  0  0  0  0  0  0  0
   -6.1556    3.6781  -12.9085 O   0  0  0  0  0  0  0  0  0  0  0  0
   -7.1668    4.3296  -14.9664 C   0  0  0  0  0  0  0  0  0  0  0  0
   -8.2804    4.1498  -15.8213 C   0  0  0  0  0  0  0  0  0  0  0  0
   -8.1663    4.4010  -17.1980 C   0  0  0  0  0  0  0  0  0  0  0  0
   -6.9460    4.8532  -17.6613 C   0  0  0  0  0  0  0  0  0  0  0  0
   -5.8620    5.0586  -16.8172 C   0  0  0  0  0  0  0  0  0  0  0  0
   -5.9520    4.8084  -15.4681 C   0  0  0  0  0  0  0  0  0  0  0  0
   -4.6855    5.5414  -17.5975 C   0  0  0  0  0  0  0  0  0  0  0  0
   -5.2533    5.6361  -19.0073 C   0  0  0  0  0  0  0  0  0  0  0  0
   -4.6447    6.0510  -19.9800 O   0  0  0  0  0  0  0  0  0  0  0  0
   -6.5684    5.1924  -18.9497 N   0  0  0  0  0  0  0  0  0  0  0  0
   -8.9683    1.9763   -8.5534 C   0  0  0  0  0  0  0  0  0  0  0  0
   -9.2374    2.6941   -7.2800 N   0  0  0  0  0  0  0  0  0  0  0  0
   -8.5974    4.0180   -7.4168 C   0  0  0  0  0  0  0  0  0  0  0  0
  1  2  1  0
  2  3  2  0
  2  4  2  0
  2  5  1  0
  5  6  2  0
  6  7  1  0
  7  8  2  0
  8  9  1  0
  9 10  2  0
 10 11  1  0
 11 12  1  0
 12 13  2  0
 12 14  1  0
 14 15  2  0
 15 16  1  0
 16 17  2  0
 17 18  1  0
 18 19  2  0
 18 20  1  0
 20 21  1  0
 21 22  2  0
 21 23  1  0
  8 24  1  0
 24 25  1  0
 25 26  1  0
 10  5  1  0
 19 14  1  0
 26  7  1  0
 23 17  1  0
M  END
>  <smiles>  (1972) 
C28753-P228

>  <fragmenstein_outcome>  (1972) 
acceptable

>  <inchikey>  (1972) 
MDKMMZZVSHXNOY-UHFFFAOYSA-N

>  <fragmenstein_mode>  (1972) 
expansion

>  <HIPPO Pose ID>  (1972) 
24515

>  <Energy>  (1972) 
84.012885

>  <fragmenstein_error>  (1972) 


>  <tags>  (1972) 
{'openbind_xx01zvns2b_c1_fragmenstein', 'fragmenstein_placed'}

>  <ref_pdb>  (1972) 
175

>  <scratch_subdir>  (1972) 
/opt/xchem-fragalysis-2/maxwin/BulkDock/SCRATCH/511028/C28753-P228

>  <alias>  (1972) 
CS(=O)(=O)c1cc2c(cc1OC(=O)c1ccc3c(c1)CC(=O)N3)CNC2

>  <HIPPO Compound ID>  (1972) 
37225

>  <fragmenstein_runtime>  (1972) 
7.043192

$$$$
CC(=O)[C@H]1C(=O)Nc2ccc(C(=O)Oc3ccc4c(c3)CNC4)cc21
     RDKit          3D

 25 28  0  0  0  0  0  0  0  0999 V2000
   -3.7540    5.1677  -15.3682 C   0  0  0  0  0  0  0  0  0  0  0  0
   -3.9403    5.2492  -16.8598 C   0  0  0  0  0  0  0  0  0  0  0  0
   -3.0256    4.9077  -17.6093 O   0  0  0  0  0  0  0  0  0  0  0  0
   -5.2300    5.8236  -17.3635 C   0  0  1  0  0  0  0  0  0  0  0  0
   -5.4264    5.6768  -18.8715 C   0  0  0  0  0  0  0  0  0  0  0  0
   -4.7405    6.1826  -19.7455 O   0  0  0  0  0  0  0  0  0  0  0  0
   -6.5861    4.9382  -19.0575 N   0  0  0  0  0  0  0  0  0  0  0  0
   -7.2360    4.6807  -17.8639 C   0  0  0  0  0  0  0  0  0  0  0  0
   -8.4910    4.1409  -17.6794 C   0  0  0  0  0  0  0  0  0  0  0  0
   -8.9816    4.1046  -16.3719 C   0  0  0  0  0  0  0  0  0  0  0  0
   -8.1987    4.5711  -15.3023 C   0  0  0  0  0  0  0  0  0  0  0  0
   -8.7741    4.6647  -13.9580 C   0  0  0  0  0  0  0  0  0  0  0  0
   -9.7966    5.2942  -13.7439 O   0  0  0  0  0  0  0  0  0  0  0  0
   -7.9437    3.9984  -13.0822 O   0  0  0  0  0  0  0  0  0  0  0  0
   -8.2278    4.0893  -11.7087 C   0  0  0  0  0  0  0  0  0  0  0  0
   -8.0728    5.3060  -11.0289 C   0  0  0  0  0  0  0  0  0  0  0  0
   -8.2032    5.3462   -9.6362 C   0  0  0  0  0  0  0  0  0  0  0  0
   -8.4832    4.1657   -8.9635 C   0  0  0  0  0  0  0  0  0  0  0  0
   -8.6454    2.9679   -9.6494 C   0  0  0  0  0  0  0  0  0  0  0  0
   -8.5067    2.9058  -11.0259 C   0  0  0  0  0  0  0  0  0  0  0  0
   -8.9203    1.8678   -8.6808 C   0  0  0  0  0  0  0  0  0  0  0  0
   -9.0431    2.5114   -7.3456 N   0  0  0  0  0  0  0  0  0  0  0  0
   -8.6255    3.9194   -7.4999 C   0  0  0  0  0  0  0  0  0  0  0  0
   -6.9346    5.1190  -15.5158 C   0  0  0  0  0  0  0  0  0  0  0  0
   -6.4659    5.1667  -16.8135 C   0  0  0  0  0  0  0  0  0  0  0  0
  1  2  1  0
  2  3  2  0
  4  2  1  1
  4  5  1  0
  5  6  2  0
  5  7  1  0
  7  8  1  0
  8  9  2  0
  9 10  1  0
 10 11  2  0
 11 12  1  0
 12 13  2  0
 12 14  1  0
 14 15  1  0
 15 16  2  0
 16 17  1  0
 17 18  2  0
 18 19  1  0
 19 20  2  0
 19 21  1  0
 21 22  1  0
 22 23  1  0
 11 24  1  0
 24 25  2  0
 25  4  1  0
 25  8  1  0
 20 15  1  0
 23 18  1  0
M  END
>  <smiles>  (1973) 
C28845-P228

>  <fragmenstein_outcome>  (1973) 
acceptable

>  <inchikey>  (1973) 
SEHIYXJCXQOHNS-UHFFFAOYSA-N

>  <fragmenstein_mode>  (1973) 
expansion

>  <HIPPO Pose ID>  (1973) 
24538

>  <Energy>  (1973) 
76.335565

>  <fragmenstein_error>  (1973) 


>  <tags>  (1973) 
{'openbind_xx01zvns2b_c1_fragmenstein', 'fragmenstein_placed'}

>  <ref_pdb>  (1973) 
175

>  <scratch_subdir>  (1973) 
/opt/xchem-fragalysis-2/maxwin/BulkDock/SCRATCH/511028/C28845-P228

>  <alias>  (1973) 
CC(=O)[C@H]1C(=O)Nc2ccc(C(=O)Oc3ccc4c(c3)CNC4)cc21

>  <HIPPO Compound ID>  (1973) 
35500

>  <fragmenstein_runtime>  (1973) 
8.785357

$$$$
N[C@@H]1C(=O)Nc2ccc(C(=O)Oc3ccc4c(c3)CNC4)cc21
     RDKit          3D

 23 26  0  0  0  0  0  0  0  0999 V2000
   -4.1680    6.5960  -17.2101 N   0  0  0  0  0  0  0  0  0  0  0  0
   -4.7806    5.3329  -17.6214 C   0  0  2  0  0  0  0  0  0  0  0  0
   -5.4295    5.4628  -19.0137 C   0  0  0  0  0  0  0  0  0  0  0  0
   -4.8774    5.9210  -20.0023 O   0  0  0  0  0  0  0  0  0  0  0  0
   -6.7477    5.0316  -18.8848 N   0  0  0  0  0  0  0  0  0  0  0  0
   -7.0735    4.7523  -17.5656 C   0  0  0  0  0  0  0  0  0  0  0  0
   -8.2853    4.3725  -17.0233 C   0  0  0  0  0  0  0  0  0  0  0  0
   -8.3534    4.2260  -15.6249 C   0  0  0  0  0  0  0  0  0  0  0  0
   -7.2115    4.4469  -14.8167 C   0  0  0  0  0  0  0  0  0  0  0  0
   -7.1728    4.2627  -13.3427 C   0  0  0  0  0  0  0  0  0  0  0  0
   -6.1184    4.1961  -12.7250 O   0  0  0  0  0  0  0  0  0  0  0  0
   -8.4497    4.2533  -12.8349 O   0  0  0  0  0  0  0  0  0  0  0  0
   -8.4301    4.1928  -11.4394 C   0  0  0  0  0  0  0  0  0  0  0  0
   -8.1892    5.3656  -10.7024 C   0  0  0  0  0  0  0  0  0  0  0  0
   -8.2395    5.3336   -9.3085 C   0  0  0  0  0  0  0  0  0  0  0  0
   -8.5559    4.1320   -8.6973 C   0  0  0  0  0  0  0  0  0  0  0  0
   -8.7826    2.9725   -9.4400 C   0  0  0  0  0  0  0  0  0  0  0  0
   -8.7256    2.9799  -10.8202 C   0  0  0  0  0  0  0  0  0  0  0  0
   -9.0532    1.8420   -8.5033 C   0  0  0  0  0  0  0  0  0  0  0  0
   -9.3864    2.4934   -7.2093 N   0  0  0  0  0  0  0  0  0  0  0  0
   -8.7221    3.8142   -7.2482 C   0  0  0  0  0  0  0  0  0  0  0  0
   -6.0021    4.8269  -15.4049 C   0  0  0  0  0  0  0  0  0  0  0  0
   -5.9518    4.9674  -16.7739 C   0  0  0  0  0  0  0  0  0  0  0  0
  2  1  1  1
  2  3  1  0
  3  4  2  0
  3  5  1  0
  5  6  1  0
  6  7  2  0
  7  8  1  0
  8  9  2  0
  9 10  1  0
 10 11  2  0
 10 12  1  0
 12 13  1  0
 13 14  2  0
 14 15  1  0
 15 16  2  0
 16 17  1  0
 17 18  2  0
 17 19  1  0
 19 20  1  0
 20 21  1  0
  9 22  1  0
 22 23  2  0
 23  2  1  0
 23  6  1  0
 18 13  1  0
 21 16  1  0
M  END
>  <smiles>  (1974) 
C28847-P228

>  <fragmenstein_outcome>  (1974) 
acceptable

>  <inchikey>  (1974) 
ZCQNDSAGNBUFOZ-UHFFFAOYSA-N

>  <fragmenstein_mode>  (1974) 
expansion

>  <HIPPO Pose ID>  (1974) 
24539

>  <Energy>  (1974) 
97.109593

>  <fragmenstein_error>  (1974) 


>  <tags>  (1974) 
{'openbind_xx01zvns2b_c1_fragmenstein', 'fragmenstein_placed'}

>  <ref_pdb>  (1974) 
175

>  <scratch_subdir>  (1974) 
/opt/xchem-fragalysis-2/maxwin/BulkDock/SCRATCH/511028/C28847-P228

>  <alias>  (1974) 
N[C@@H]1C(=O)Nc2ccc(C(=O)Oc3ccc4c(c3)CNC4)cc21

>  <HIPPO Compound ID>  (1974) 
28847

>  <fragmenstein_runtime>  (1974) 
4.406583

$$$$
O=C1NC2=C(C[C@]3(CC2)N=C3Oc2ccc3c(c2)CNC3)C1=O
     RDKit          3D

 23 27  0  0  0  0  0  0  0  0999 V2000
   -4.4184    5.5838  -19.9960 O   0  0  0  0  0  0  0  0  0  0  0  0
   -5.2049    5.2130  -19.1545 C   0  0  0  0  0  0  0  0  0  0  0  0
   -6.4870    4.7333  -19.2535 N   0  0  0  0  0  0  0  0  0  0  0  0
   -7.0832    4.5886  -18.0305 C   0  0  0  0  0  0  0  0  0  0  0  0
   -6.2538    4.8938  -17.0339 C   0  0  0  0  0  0  0  0  0  0  0  0
   -6.5648    4.9490  -15.6105 C   0  0  0  0  0  0  0  0  0  0  0  0
   -8.0113    4.6713  -15.3081 C   0  0  2  0  0  0  0  0  0  0  0  0
   -8.8860    3.9925  -16.3457 C   0  0  0  0  0  0  0  0  0  0  0  0
   -8.5065    4.1993  -17.8293 C   0  0  0  0  0  0  0  0  0  0  0  0
   -8.7678    5.7080  -14.2189 N   0  0  0  0  0  0  0  0  0  0  0  0
   -8.3262    4.5659  -13.9531 C   0  0  0  0  0  0  0  0  0  0  0  0
   -8.0876    3.6194  -13.0526 O   0  0  0  0  0  0  0  0  0  0  0  0
   -8.2878    3.9023  -11.6947 C   0  0  0  0  0  0  0  0  0  0  0  0
   -8.0532    5.1510  -11.1003 C   0  0  0  0  0  0  0  0  0  0  0  0
   -8.1475    5.2847   -9.7077 C   0  0  0  0  0  0  0  0  0  0  0  0
   -8.4716    4.1640   -8.9559 C   0  0  0  0  0  0  0  0  0  0  0  0
   -8.7044    2.9354   -9.5636 C   0  0  0  0  0  0  0  0  0  0  0  0
   -8.6121    2.7855  -10.9289 C   0  0  0  0  0  0  0  0  0  0  0  0
   -8.9820    1.9013   -8.5268 C   0  0  0  0  0  0  0  0  0  0  0  0
   -9.2577    2.6712   -7.2885 N   0  0  0  0  0  0  0  0  0  0  0  0
   -8.5951    3.9823   -7.4771 C   0  0  0  0  0  0  0  0  0  0  0  0
   -4.9709    5.2484  -17.6396 C   0  0  0  0  0  0  0  0  0  0  0  0
   -3.9450    5.5184  -17.0582 O   0  0  0  0  0  0  0  0  0  0  0  0
  1  2  2  0
  2  3  1  0
  3  4  1  0
  4  5  2  0
  5  6  1  0
  7  6  1  1
  7  8  1  0
  8  9  1  0
  7 10  1  0
 10 11  2  0
 11 12  1  0
 12 13  1  0
 13 14  2  0
 14 15  1  0
 15 16  2  0
 16 17  1  0
 17 18  2  0
 17 19  1  0
 19 20  1  0
 20 21  1  0
  5 22  1  0
 22 23  2  0
 22  2  1  0
  9  4  1  0
 18 13  1  0
 11  7  1  0
 21 16  1  0
M  END
>  <smiles>  (1975) 
C28878-P228

>  <fragmenstein_outcome>  (1975) 
acceptable

>  <inchikey>  (1975) 
FNJDQGWFKBLKTM-UHFFFAOYSA-N

>  <fragmenstein_mode>  (1975) 
expansion

>  <HIPPO Pose ID>  (1975) 
24552

>  <Energy>  (1975) 
113.894081

>  <fragmenstein_error>  (1975) 


>  <tags>  (1975) 
{'openbind_xx01zvns2b_c1_fragmenstein', 'fragmenstein_placed'}

>  <ref_pdb>  (1975) 
175

>  <scratch_subdir>  (1975) 
/opt/xchem-fragalysis-2/maxwin/BulkDock/SCRATCH/511028/C28878-P228

>  <alias>  (1975) 
O=C1NC2=C(C[C@]3(CC2)N=C3Oc2ccc3c(c2)CNC3)C1=O

>  <HIPPO Compound ID>  (1975) 
20360

>  <fragmenstein_runtime>  (1975) 
3.903148

$$$$
CNC[C@@]1(O)Cc2cc(C(=O)Oc3cc4c(cc3F)CNC4)cc(Cl)c2N1
     RDKit          3D

 27 30  0  0  0  0  0  0  0  0999 V2000
   -3.8023    7.7453  -20.9753 C   0  0  0  0  0  0  0  0  0  0  0  0
   -4.5963    7.4467  -19.7861 N   0  0  0  0  0  0  0  0  0  0  0  0
   -4.9209    6.0151  -19.8078 C   0  0  0  0  0  0  0  0  0  0  0  0
   -5.5670    5.3781  -18.5715 C   0  0  1  0  0  0  0  0  0  0  0  0
   -5.4182    3.9982  -18.8022 O   0  0  0  0  0  0  0  0  0  0  0  0
   -4.9213    5.7384  -17.2137 C   0  0  0  0  0  0  0  0  0  0  0  0
   -6.0430    5.3080  -16.3184 C   0  0  0  0  0  0  0  0  0  0  0  0
   -6.0154    5.0596  -14.9657 C   0  0  0  0  0  0  0  0  0  0  0  0
   -7.1780    4.5607  -14.3700 C   0  0  0  0  0  0  0  0  0  0  0  0
   -7.1132    4.3052  -12.9109 C   0  0  0  0  0  0  0  0  0  0  0  0
   -6.0613    4.2672  -12.2903 O   0  0  0  0  0  0  0  0  0  0  0  0
   -8.3930    4.1854  -12.4269 O   0  0  0  0  0  0  0  0  0  0  0  0
   -8.4077    4.1115  -11.0366 C   0  0  0  0  0  0  0  0  0  0  0  0
   -8.7205    2.8908  -10.4489 C   0  0  0  0  0  0  0  0  0  0  0  0
   -8.8321    2.8701   -9.0731 C   0  0  0  0  0  0  0  0  0  0  0  0
   -8.6353    4.0176   -8.3003 C   0  0  0  0  0  0  0  0  0  0  0  0
   -8.3008    5.2285   -8.8801 C   0  0  0  0  0  0  0  0  0  0  0  0
   -8.2053    5.2685  -10.2670 C   0  0  0  0  0  0  0  0  0  0  0  0
   -7.9478    6.4391  -10.8714 F   0  0  0  0  0  0  0  0  0  0  0  0
   -8.8604    3.6721   -6.8658 C   0  0  0  0  0  0  0  0  0  0  0  0
   -9.5286    2.3529   -6.8836 N   0  0  0  0  0  0  0  0  0  0  0  0
   -9.1367    1.7242   -8.1699 C   0  0  0  0  0  0  0  0  0  0  0  0
   -8.3251    4.2844  -15.1499 C   0  0  0  0  0  0  0  0  0  0  0  0
   -8.3220    4.5365  -16.5223 C   0  0  0  0  0  0  0  0  0  0  0  0
   -9.6368    4.0466  -17.5126 Cl  0  0  0  0  0  0  0  0  0  0  0  0
   -7.1955    5.1038  -17.0870 C   0  0  0  0  0  0  0  0  0  0  0  0
   -6.9953    5.5714  -18.4095 N   0  0  0  0  0  0  0  0  0  0  0  0
  1  2  1  0
  2  3  1  0
  3  4  1  0
  4  5  1  6
  4  6  1  0
  6  7  1  0
  7  8  2  0
  8  9  1  0
  9 10  1  0
 10 11  2  0
 10 12  1  0
 12 13  1  0
 13 14  2  0
 14 15  1  0
 15 16  2  0
 16 17  1  0
 17 18  2  0
 18 19  1  0
 16 20  1  0
 20 21  1  0
 21 22  1  0
  9 23  2  0
 23 24  1  0
 24 25  1  0
 24 26  2  0
 26 27  1  0
 27  4  1  0
 26  7  1  0
 18 13  1  0
 22 15  1  0
M  END
>  <smiles>  (1976) 
C28934-P228

>  <fragmenstein_outcome>  (1976) 
acceptable

>  <inchikey>  (1976) 
QUJVBQYCUFRQAS-UHFFFAOYSA-N

>  <fragmenstein_mode>  (1976) 
expansion

>  <HIPPO Pose ID>  (1976) 
24577

>  <Energy>  (1976) 
120.217977

>  <fragmenstein_error>  (1976) 


>  <tags>  (1976) 
{'openbind_xx01zvns2b_c1_fragmenstein', 'fragmenstein_placed'}

>  <ref_pdb>  (1976) 
175

>  <scratch_subdir>  (1976) 
/opt/xchem-fragalysis-2/maxwin/BulkDock/SCRATCH/511028/C28934-P228

>  <alias>  (1976) 
CNC[C@@]1(O)Cc2cc(C(=O)Oc3cc4c(cc3F)CNC4)cc(Cl)c2N1

>  <HIPPO Compound ID>  (1976) 
28934

>  <fragmenstein_runtime>  (1976) 
3.911538

$$$$
C[C@]1(OCCCO)C(=O)[C@H](C2CNC2)c2cc(F)cc(C(=O)N[C@@H]3CC[C@@H]4CNC[C@@H]4C3)c21
     RDKit          3D

 33 37  0  0  0  0  0  0  0  0999 V2000
   -4.8919    7.1659  -16.2580 C   0  0  0  0  0  0  0  0  0  0  0  0
   -5.0155    5.6635  -16.5412 C   0  0  2  0  0  0  0  0  0  0  0  0
   -4.4771    4.9022  -15.4737 O   0  0  0  0  0  0  0  0  0  0  0  0
   -3.0919    5.0867  -15.1990 C   0  0  0  0  0  0  0  0  0  0  0  0
   -2.8674    4.7608  -13.7282 C   0  0  0  0  0  0  0  0  0  0  0  0
   -1.4290    5.0054  -13.3035 C   0  0  0  0  0  0  0  0  0  0  0  0
   -1.2653    4.7321  -11.9173 O   0  0  0  0  0  0  0  0  0  0  0  0
   -4.4237    5.3972  -17.9653 C   0  0  0  0  0  0  0  0  0  0  0  0
   -3.2342    5.3815  -18.2640 O   0  0  0  0  0  0  0  0  0  0  0  0
   -5.5331    5.2551  -18.9949 C   0  0  2  0  0  0  0  0  0  0  0  0
   -5.7806    6.5448  -19.7752 C   0  0  0  0  0  0  0  0  0  0  0  0
   -5.0019    7.8683  -19.4980 C   0  0  0  0  0  0  0  0  0  0  0  0
   -4.9954    8.1091  -20.9553 N   0  0  0  0  0  0  0  0  0  0  0  0
   -5.0766    6.6424  -21.1533 C   0  0  0  0  0  0  0  0  0  0  0  0
   -6.7031    4.9050  -18.1119 C   0  0  0  0  0  0  0  0  0  0  0  0
   -7.8985    4.3168  -18.5134 C   0  0  0  0  0  0  0  0  0  0  0  0
   -8.8574    4.0397  -17.5469 C   0  0  0  0  0  0  0  0  0  0  0  0
  -10.0148    3.4799  -17.9151 F   0  0  0  0  0  0  0  0  0  0  0  0
   -8.6575    4.3811  -16.2107 C   0  0  0  0  0  0  0  0  0  0  0  0
   -7.4532    4.9850  -15.8164 C   0  0  0  0  0  0  0  0  0  0  0  0
   -7.4217    5.6581  -14.5030 C   0  0  0  0  0  0  0  0  0  0  0  0
   -7.2007    6.8001  -14.5051 O   0  0  0  0  0  0  0  0  0  0  0  0
   -7.7933    4.7212  -13.3510 N   0  0  0  0  0  0  0  0  0  0  0  0
   -8.0669    5.0040  -11.9665 C   0  0  2  0  0  0  0  0  0  0  0  0
   -7.3526    6.2530  -11.4542 C   0  0  0  0  0  0  0  0  0  0  0  0
   -7.9434    6.6764  -10.1215 C   0  0  0  0  0  0  0  0  0  0  0  0
   -7.9958    5.5576   -9.0996 C   0  0  2  0  0  0  0  0  0  0  0  0
   -6.6933    5.3651   -8.3515 C   0  0  0  0  0  0  0  0  0  0  0  0
   -6.9746    4.1449   -7.6075 N   0  0  0  0  0  0  0  0  0  0  0  0
   -7.6625    3.2414   -8.5697 C   0  0  0  0  0  0  0  0  0  0  0  0
   -8.3086    4.1463   -9.6148 C   0  0  2  0  0  0  0  0  0  0  0  0
   -7.8018    3.8337  -11.0331 C   0  0  0  0  0  0  0  0  0  0  0  0
   -6.4501    5.2006  -16.7583 C   0  0  0  0  0  0  0  0  0  0  0  0
  2  1  1  1
  2  3  1  0
  3  4  1  0
  4  5  1  0
  5  6  1  0
  6  7  1  0
  2  8  1  0
  8  9  2  0
  8 10  1  0
 10 11  1  1
 11 12  1  0
 12 13  1  0
 13 14  1  0
 10 15  1  0
 15 16  2  0
 16 17  1  0
 17 18  1  0
 17 19  2  0
 19 20  1  0
 20 21  1  0
 21 22  2  0
 21 23  1  0
 24 23  1  6
 24 25  1  0
 25 26  1  0
 27 26  1  6
 27 28  1  0
 28 29  1  0
 29 30  1  0
 31 30  1  1
 31 32  1  0
 20 33  2  0
 33  2  1  0
 14 11  1  0
 33 15  1  0
 32 24  1  0
 31 27  1  0
M  END
>  <smiles>  (1977) 
C29097-P230

>  <fragmenstein_outcome>  (1977) 
acceptable

>  <inchikey>  (1977) 
KXNKMAQQYPIXTC-UHFFFAOYSA-N

>  <fragmenstein_mode>  (1977) 
expansion

>  <HIPPO Pose ID>  (1977) 
24650

>  <Energy>  (1977) 
102.449085

>  <fragmenstein_error>  (1977) 


>  <tags>  (1977) 
{'openbind_xx01zvns2b_c1_fragmenstein', 'fragmenstein_placed'}

>  <ref_pdb>  (1977) 
175

>  <scratch_subdir>  (1977) 
/opt/xchem-fragalysis-2/maxwin/BulkDock/SCRATCH/511028/C29097-P230

>  <alias>  (1977) 
C[C@]1(OCCCO)C(=O)[C@H](C2CNC2)c2cc(F)cc(C(=O)N[C@@H]3CC[C@@H]4CNC[C@@H]4C3)c21

>  <HIPPO Compound ID>  (1977) 
39590

>  <fragmenstein_runtime>  (1977) 
8.94715

$$$$
O=C(Nc1ccc(F)c(F)c1)c1cccc2c(C3CNC3)n[nH]c12
     RDKit          3D

 24 27  0  0  0  0  0  0  0  0999 V2000
   -7.2011    6.4373  -13.3877 O   0  0  0  0  0  0  0  0  0  0  0  0
   -7.6033    5.3684  -13.6348 C   0  0  0  0  0  0  0  0  0  0  0  0
   -8.0696    4.2340  -12.6987 N   0  0  0  0  0  0  0  0  0  0  0  0
   -8.2239    4.2089  -11.3132 C   0  0  0  0  0  0  0  0  0  0  0  0
   -7.8852    5.3361  -10.5525 C   0  0  0  0  0  0  0  0  0  0  0  0
   -8.0179    5.3232   -9.1639 C   0  0  0  0  0  0  0  0  0  0  0  0
   -8.4892    4.1791   -8.5359 C   0  0  0  0  0  0  0  0  0  0  0  0
   -8.6560    4.1932   -7.2058 F   0  0  0  0  0  0  0  0  0  0  0  0
   -8.8287    3.0585   -9.2852 C   0  0  0  0  0  0  0  0  0  0  0  0
   -9.3270    1.9754   -8.6746 F   0  0  0  0  0  0  0  0  0  0  0  0
   -8.6972    3.0651  -10.6748 C   0  0  0  0  0  0  0  0  0  0  0  0
   -7.5953    4.9848  -15.0697 C   0  0  0  0  0  0  0  0  0  0  0  0
   -8.6539    4.3693  -15.7421 C   0  0  0  0  0  0  0  0  0  0  0  0
   -8.6167    4.2170  -17.1330 C   0  0  0  0  0  0  0  0  0  0  0  0
   -7.5375    4.7058  -17.8921 C   0  0  0  0  0  0  0  0  0  0  0  0
   -6.4601    5.3238  -17.2276 C   0  0  0  0  0  0  0  0  0  0  0  0
   -5.2663    6.0212  -17.5622 C   0  0  0  0  0  0  0  0  0  0  0  0
   -4.8438    6.4709  -18.9895 C   0  0  0  0  0  0  0  0  0  0  0  0
   -4.8157    5.3957  -20.0573 C   0  0  0  0  0  0  0  0  0  0  0  0
   -3.3492    5.2574  -19.9037 N   0  0  0  0  0  0  0  0  0  0  0  0
   -3.3283    6.5857  -19.2489 C   0  0  0  0  0  0  0  0  0  0  0  0
   -4.5890    6.4415  -16.4885 N   0  0  0  0  0  0  0  0  0  0  0  0
   -5.3640    6.0626  -15.4669 N   0  0  0  0  0  0  0  0  0  0  0  0
   -6.5124    5.4193  -15.8442 C   0  0  0  0  0  0  0  0  0  0  0  0
  1  2  2  0
  2  3  1  0
  3  4  1  0
  4  5  2  0
  5  6  1  0
  6  7  2  0
  7  8  1  0
  7  9  1  0
  9 10  1  0
  9 11  2  0
  2 12  1  0
 12 13  2  0
 13 14  1  0
 14 15  2  0
 15 16  1  0
 16 17  1  0
 17 18  1  0
 18 19  1  0
 19 20  1  0
 20 21  1  0
 17 22  2  0
 22 23  1  0
 23 24  1  0
 11  4  1  0
 24 12  1  0
 24 16  2  0
 21 18  1  0
M  END
>  <smiles>  (1978) 
C29129-P230

>  <fragmenstein_outcome>  (1978) 
acceptable

>  <inchikey>  (1978) 
MHCWQVCZBVBTBB-UHFFFAOYSA-N

>  <fragmenstein_mode>  (1978) 
expansion

>  <HIPPO Pose ID>  (1978) 
24665

>  <Energy>  (1978) 
75.779951

>  <fragmenstein_error>  (1978) 


>  <tags>  (1978) 
{'openbind_xx01zvns2b_c1_fragmenstein', 'fragmenstein_placed'}

>  <ref_pdb>  (1978) 
175

>  <scratch_subdir>  (1978) 
/opt/xchem-fragalysis-2/maxwin/BulkDock/SCRATCH/511028/C29129-P230

>  <alias>  (1978) 
O=C(Nc1ccc(F)c(F)c1)c1cccc2c(C3CNC3)n[nH]c12

>  <HIPPO Compound ID>  (1978) 
22387

>  <fragmenstein_runtime>  (1978) 
3.348633

$$$$
O=C(Nc1ccc2c(c1)CNC2)c1cc2scnc2c2c(C3CCNCC3)n[nH]c12
     RDKit          3D

 30 35  0  0  0  0  0  0  0  0999 V2000
   -6.8878    6.5377  -12.9053 O   0  0  0  0  0  0  0  0  0  0  0  0
   -7.3109    5.4868  -13.1885 C   0  0  0  0  0  0  0  0  0  0  0  0
   -7.9524    4.3952  -12.3057 N   0  0  0  0  0  0  0  0  0  0  0  0
   -8.1160    4.3296  -10.9275 C   0  0  0  0  0  0  0  0  0  0  0  0
   -7.8445    5.4372  -10.1066 C   0  0  0  0  0  0  0  0  0  0  0  0
   -8.0496    5.3702   -8.7248 C   0  0  0  0  0  0  0  0  0  0  0  0
   -8.5139    4.1824   -8.1934 C   0  0  0  0  0  0  0  0  0  0  0  0
   -8.7563    3.0790   -9.0061 C   0  0  0  0  0  0  0  0  0  0  0  0
   -8.5773    3.1356  -10.3755 C   0  0  0  0  0  0  0  0  0  0  0  0
   -9.1654    1.9271   -8.1531 C   0  0  0  0  0  0  0  0  0  0  0  0
   -9.5558    2.5331   -6.8548 N   0  0  0  0  0  0  0  0  0  0  0  0
   -8.8187    3.8149   -6.7795 C   0  0  0  0  0  0  0  0  0  0  0  0
   -7.3385    5.1267  -14.6245 C   0  0  0  0  0  0  0  0  0  0  0  0
   -8.4754    4.5767  -15.2391 C   0  0  0  0  0  0  0  0  0  0  0  0
   -8.4931    4.4456  -16.6376 C   0  0  0  0  0  0  0  0  0  0  0  0
   -9.7786    3.9661  -17.6741 S   0  0  0  0  0  0  0  0  0  0  0  0
   -8.7726    4.1846  -19.0299 C   0  0  0  0  0  0  0  0  0  0  0  0
   -7.5488    4.5885  -18.7925 N   0  0  0  0  0  0  0  0  0  0  0  0
   -7.4173    4.7729  -17.4502 C   0  0  0  0  0  0  0  0  0  0  0  0
   -6.2848    5.3360  -16.8056 C   0  0  0  0  0  0  0  0  0  0  0  0
   -5.1244    5.9011  -17.3381 C   0  0  0  0  0  0  0  0  0  0  0  0
   -4.6808    6.1562  -18.7499 C   0  0  0  0  0  0  0  0  0  0  0  0
   -4.4656    4.9044  -19.5917 C   0  0  0  0  0  0  0  0  0  0  0  0
   -4.0139    5.2503  -21.0136 C   0  0  0  0  0  0  0  0  0  0  0  0
   -3.9159    6.6874  -21.2821 N   0  0  0  0  0  0  0  0  0  0  0  0
   -5.1751    7.3456  -20.9510 C   0  0  0  0  0  0  0  0  0  0  0  0
   -5.5585    7.1841  -19.4780 C   0  0  0  0  0  0  0  0  0  0  0  0
   -4.3614    6.3630  -16.3243 N   0  0  0  0  0  0  0  0  0  0  0  0
   -5.0893    6.1320  -15.2104 N   0  0  0  0  0  0  0  0  0  0  0  0
   -6.2785    5.4989  -15.4460 C   0  0  0  0  0  0  0  0  0  0  0  0
  1  2  2  0
  2  3  1  0
  3  4  1  0
  4  5  2  0
  5  6  1  0
  6  7  2  0
  7  8  1  0
  8  9  2  0
  8 10  1  0
 10 11  1  0
 11 12  1  0
  2 13  1  0
 13 14  2  0
 14 15  1  0
 15 16  1  0
 16 17  1  0
 17 18  2  0
 18 19  1  0
 19 20  1  0
 20 21  1  0
 21 22  1  0
 22 23  1  0
 23 24  1  0
 24 25  1  0
 25 26  1  0
 26 27  1  0
 21 28  2  0
 28 29  1  0
 29 30  1  0
  9  4  1  0
 30 13  1  0
 12  7  1  0
 19 15  2  0
 30 20  2  0
 27 22  1  0
M  END
>  <smiles>  (1979) 
C29282-P232

>  <fragmenstein_outcome>  (1979) 
acceptable

>  <inchikey>  (1979) 
DKRPCYMEHNIVIG-UHFFFAOYSA-N

>  <fragmenstein_mode>  (1979) 
expansion

>  <HIPPO Pose ID>  (1979) 
24742

>  <Energy>  (1979) 
69.204389

>  <fragmenstein_error>  (1979) 


>  <tags>  (1979) 
{'openbind_xx01zvns2b_c1_fragmenstein', 'fragmenstein_placed'}

>  <ref_pdb>  (1979) 
175

>  <scratch_subdir>  (1979) 
/opt/xchem-fragalysis-2/maxwin/BulkDock/SCRATCH/511028/C29282-P232

>  <alias>  (1979) 
O=C(Nc1ccc2c(c1)CNC2)c1cc2scnc2c2c(C3CCNCC3)n[nH]c12

>  <HIPPO Compound ID>  (1979) 
29282

>  <fragmenstein_runtime>  (1979) 
7.283943

$$$$
O=C(Nc1ccc2c(c1)CNC2)c1cc(F)c2c3c(n[nH]c13)C=N2
     RDKit          3D

 24 28  0  0  0  0  0  0  0  0999 V2000
   -6.7039    6.4289  -13.2749 O   0  0  0  0  0  0  0  0  0  0  0  0
   -7.2839    5.4443  -13.5206 C   0  0  0  0  0  0  0  0  0  0  0  0
   -7.9331    4.4016  -12.5800 N   0  0  0  0  0  0  0  0  0  0  0  0
   -8.0815    4.4009  -11.1948 C   0  0  0  0  0  0  0  0  0  0  0  0
   -7.7370    5.5250  -10.4259 C   0  0  0  0  0  0  0  0  0  0  0  0
   -7.8798    5.5141   -9.0343 C   0  0  0  0  0  0  0  0  0  0  0  0
   -8.3478    4.3605   -8.4346 C   0  0  0  0  0  0  0  0  0  0  0  0
   -8.6891    3.2472   -9.1930 C   0  0  0  0  0  0  0  0  0  0  0  0
   -8.5768    3.2517  -10.5745 C   0  0  0  0  0  0  0  0  0  0  0  0
   -9.1884    2.1706   -8.2913 C   0  0  0  0  0  0  0  0  0  0  0  0
   -8.8952    2.6287   -6.9066 N   0  0  0  0  0  0  0  0  0  0  0  0
   -8.6091    4.0768   -6.9957 C   0  0  0  0  0  0  0  0  0  0  0  0
   -7.3981    5.0627  -14.9427 C   0  0  0  0  0  0  0  0  0  0  0  0
   -8.5610    4.4726  -15.5403 C   0  0  0  0  0  0  0  0  0  0  0  0
   -8.6505    4.1759  -16.9319 C   0  0  0  0  0  0  0  0  0  0  0  0
   -9.7784    3.6641  -17.4314 F   0  0  0  0  0  0  0  0  0  0  0  0
   -7.5790    4.4313  -17.7500 C   0  0  0  0  0  0  0  0  0  0  0  0
   -6.5296    5.0000  -17.1157 C   0  0  0  0  0  0  0  0  0  0  0  0
   -5.4603    5.3071  -17.8738 C   0  0  0  0  0  0  0  0  0  0  0  0
   -4.5084    5.8859  -17.1433 N   0  0  0  0  0  0  0  0  0  0  0  0
   -5.0962    5.9021  -15.8659 N   0  0  0  0  0  0  0  0  0  0  0  0
   -6.3565    5.3423  -15.8255 C   0  0  0  0  0  0  0  0  0  0  0  0
   -5.8983    4.8493  -19.1777 C   0  0  0  0  0  0  0  0  0  0  0  0
   -7.1279    4.3320  -19.1058 N   0  0  0  0  0  0  0  0  0  0  0  0
  1  2  2  0
  2  3  1  0
  3  4  1  0
  4  5  2  0
  5  6  1  0
  6  7  2  0
  7  8  1  0
  8  9  2  0
  8 10  1  0
 10 11  1  0
 11 12  1  0
  2 13  1  0
 13 14  2  0
 14 15  1  0
 15 16  1  0
 15 17  2  0
 17 18  1  0
 18 19  1  0
 19 20  2  0
 20 21  1  0
 21 22  1  0
 19 23  1  0
 23 24  2  0
  9  4  1  0
 22 13  1  0
 12  7  1  0
 24 17  1  0
 22 18  2  0
M  END
>  <smiles>  (1980) 
C29284-P232

>  <fragmenstein_outcome>  (1980) 
acceptable

>  <inchikey>  (1980) 
YLQNOVFCYXVNAJ-UHFFFAOYSA-N

>  <fragmenstein_mode>  (1980) 
expansion

>  <HIPPO Pose ID>  (1980) 
24744

>  <Energy>  (1980) 
138.99821

>  <fragmenstein_error>  (1980) 


>  <tags>  (1980) 
{'openbind_xx01zvns2b_c1_fragmenstein', 'fragmenstein_placed'}

>  <ref_pdb>  (1980) 
175

>  <scratch_subdir>  (1980) 
/opt/xchem-fragalysis-2/maxwin/BulkDock/SCRATCH/511028/C29284-P232

>  <alias>  (1980) 
O=C(Nc1ccc2c(c1)CNC2)c1cc(F)c2c3c(n[nH]c13)C=N2

>  <HIPPO Compound ID>  (1980) 
29284

>  <fragmenstein_runtime>  (1980) 
2.94971

$$$$
CSc1cc(C(=O)Nc2ccc3c(c2)CNC3)c2c3c(c(CCN(C)CN)[nH]c13)N=N2
     RDKit          3D

 31 35  0  0  0  0  0  0  0  0999 V2000
   -9.7331    3.1338  -18.2362 C   0  0  0  0  0  0  0  0  0  0  0  0
   -9.9834    4.6826  -17.4616 S   0  0  0  0  0  0  0  0  0  0  0  0
   -8.4115    4.8200  -16.7244 C   0  0  0  0  0  0  0  0  0  0  0  0
   -8.1843    4.9338  -15.3254 C   0  0  0  0  0  0  0  0  0  0  0  0
   -6.8797    5.1166  -14.7706 C   0  0  0  0  0  0  0  0  0  0  0  0
   -6.7522    5.4058  -13.3279 C   0  0  0  0  0  0  0  0  0  0  0  0
   -6.1783    6.3683  -12.9992 O   0  0  0  0  0  0  0  0  0  0  0  0
   -7.5240    4.3598  -12.4849 N   0  0  0  0  0  0  0  0  0  0  0  0
   -7.8187    4.3344  -11.1233 C   0  0  0  0  0  0  0  0  0  0  0  0
   -7.5908    5.4514  -10.3031 C   0  0  0  0  0  0  0  0  0  0  0  0
   -7.8955    5.4122   -8.9368 C   0  0  0  0  0  0  0  0  0  0  0  0
   -8.4090    4.2399   -8.4140 C   0  0  0  0  0  0  0  0  0  0  0  0
   -8.6244    3.1303   -9.2239 C   0  0  0  0  0  0  0  0  0  0  0  0
   -8.3576    3.1644  -10.5827 C   0  0  0  0  0  0  0  0  0  0  0  0
   -9.0877    1.9917   -8.3778 C   0  0  0  0  0  0  0  0  0  0  0  0
   -9.4936    2.6034   -7.0859 N   0  0  0  0  0  0  0  0  0  0  0  0
   -8.7713    3.8928   -7.0084 C   0  0  0  0  0  0  0  0  0  0  0  0
   -5.7932    5.1648  -15.6197 C   0  0  0  0  0  0  0  0  0  0  0  0
   -6.0947    5.0401  -16.9254 C   0  0  0  0  0  0  0  0  0  0  0  0
   -5.0647    5.1540  -17.7740 C   0  0  0  0  0  0  0  0  0  0  0  0
   -5.5705    5.0728  -19.0417 C   0  0  0  0  0  0  0  0  0  0  0  0
   -4.9728    5.1423  -20.4041 C   0  0  0  0  0  0  0  0  0  0  0  0
   -4.9500    6.5899  -20.9332 C   0  0  0  0  0  0  0  0  0  0  0  0
   -4.6787    6.6688  -22.3863 N   0  0  0  0  0  0  0  0  0  0  0  0
   -3.2578    6.3904  -22.6455 C   0  0  0  0  0  0  0  0  0  0  0  0
   -5.0494    7.9768  -22.8957 C   0  0  0  0  0  0  0  0  0  0  0  0
   -5.4568    7.7675  -24.2652 N   0  0  0  0  0  0  0  0  0  0  0  0
   -6.9696    4.9378  -18.8761 N   0  0  0  0  0  0  0  0  0  0  0  0
   -7.2898    4.9038  -17.5322 C   0  0  0  0  0  0  0  0  0  0  0  0
   -3.9565    5.3468  -16.9269 N   0  0  0  0  0  0  0  0  0  0  0  0
   -4.3773    5.3601  -15.6602 N   0  0  0  0  0  0  0  0  0  0  0  0
  1  2  1  0
  2  3  1  0
  3  4  2  0
  4  5  1  0
  5  6  1  0
  6  7  2  0
  6  8  1  0
  8  9  1  0
  9 10  2  0
 10 11  1  0
 11 12  2  0
 12 13  1  0
 13 14  2  0
 13 15  1  0
 15 16  1  0
 16 17  1  0
  5 18  2  0
 18 19  1  0
 19 20  1  0
 20 21  2  0
 21 22  1  0
 22 23  1  0
 23 24  1  0
 24 25  1  0
 24 26  1  0
 26 27  1  0
 21 28  1  0
 28 29  1  0
 20 30  1  0
 30 31  2  0
 29  3  1  0
 14  9  1  0
 31 18  1  0
 17 12  1  0
 29 19  2  0
M  END
>  <smiles>  (1981) 
C29317-P232

>  <fragmenstein_outcome>  (1981) 
acceptable

>  <inchikey>  (1981) 
BAZLBFYYOQVXCC-UHFFFAOYSA-N

>  <fragmenstein_mode>  (1981) 
expansion

>  <HIPPO Pose ID>  (1981) 
24756

>  <Energy>  (1981) 
68.18965

>  <fragmenstein_error>  (1981) 


>  <tags>  (1981) 
{'openbind_xx01zvns2b_c1_fragmenstein', 'fragmenstein_placed'}

>  <ref_pdb>  (1981) 
175

>  <scratch_subdir>  (1981) 
/opt/xchem-fragalysis-2/maxwin/BulkDock/SCRATCH/511028/C29317-P232

>  <alias>  (1981) 
CSc1cc(C(=O)Nc2ccc3c(c2)CNC3)c2c3c(c(CCN(C)CN)[nH]c13)N=N2

>  <HIPPO Compound ID>  (1981) 
29317

>  <fragmenstein_runtime>  (1981) 
5.361406

$$$$
CC1=Nc2c(C(=O)Nc3ccc4c(c3)CNC4)cc(Cl)c3c2c1c(O)n3N
     RDKit          3D

 27 31  0  0  0  0  0  0  0  0999 V2000
   -2.8564    5.7723  -17.1634 C   0  0  0  0  0  0  0  0  0  0  0  0
   -4.2697    5.4394  -16.8506 C   0  0  0  0  0  0  0  0  0  0  0  0
   -4.8168    5.5255  -15.6327 N   0  0  0  0  0  0  0  0  0  0  0  0
   -6.2016    5.1536  -15.7239 C   0  0  0  0  0  0  0  0  0  0  0  0
   -7.3494    5.0455  -14.9671 C   0  0  0  0  0  0  0  0  0  0  0  0
   -7.3722    5.4892  -13.5582 C   0  0  0  0  0  0  0  0  0  0  0  0
   -7.0158    6.5728  -13.3084 O   0  0  0  0  0  0  0  0  0  0  0  0
   -7.9521    4.3869  -12.6391 N   0  0  0  0  0  0  0  0  0  0  0  0
   -8.1195    4.3573  -11.2544 C   0  0  0  0  0  0  0  0  0  0  0  0
   -7.9085    5.5020  -10.4671 C   0  0  0  0  0  0  0  0  0  0  0  0
   -8.0859    5.4622   -9.0786 C   0  0  0  0  0  0  0  0  0  0  0  0
   -8.4777    4.2678   -8.5036 C   0  0  0  0  0  0  0  0  0  0  0  0
   -8.6785    3.1312   -9.2800 C   0  0  0  0  0  0  0  0  0  0  0  0
   -8.5082    3.1568  -10.6548 C   0  0  0  0  0  0  0  0  0  0  0  0
   -9.0457    1.9907   -8.3892 C   0  0  0  0  0  0  0  0  0  0  0  0
   -9.4149    2.6151   -7.0912 N   0  0  0  0  0  0  0  0  0  0  0  0
   -8.7362    3.9298   -7.0733 C   0  0  0  0  0  0  0  0  0  0  0  0
   -8.5594    4.6349  -15.6034 C   0  0  0  0  0  0  0  0  0  0  0  0
   -8.6409    4.3539  -16.9989 C   0  0  0  0  0  0  0  0  0  0  0  0
  -10.1165    4.0122  -17.7825 Cl  0  0  0  0  0  0  0  0  0  0  0  0
   -7.4598    4.4684  -17.7171 C   0  0  0  0  0  0  0  0  0  0  0  0
   -6.3513    4.8531  -17.0428 C   0  0  0  0  0  0  0  0  0  0  0  0
   -5.2467    5.0120  -17.8230 C   0  0  0  0  0  0  0  0  0  0  0  0
   -5.6391    4.7115  -19.0979 C   0  0  0  0  0  0  0  0  0  0  0  0
   -5.0232    4.7250  -20.2766 O   0  0  0  0  0  0  0  0  0  0  0  0
   -6.9850    4.3039  -18.9973 N   0  0  0  0  0  0  0  0  0  0  0  0
   -7.7324    3.8163  -20.0873 N   0  0  0  0  0  0  0  0  0  0  0  0
  1  2  1  0
  2  3  2  0
  3  4  1  0
  4  5  2  0
  5  6  1  0
  6  7  2  0
  6  8  1  0
  8  9  1  0
  9 10  2  0
 10 11  1  0
 11 12  2  0
 12 13  1  0
 13 14  2  0
 13 15  1  0
 15 16  1  0
 16 17  1  0
  5 18  1  0
 18 19  2  0
 19 20  1  0
 19 21  1  0
 21 22  2  0
 22 23  1  0
 23 24  2  0
 24 25  1  0
 24 26  1  0
 26 27  1  0
 23  2  1  0
 22  4  1  0
 14  9  1  0
 26 21  1  0
 17 12  1  0
M  END
>  <smiles>  (1982) 
C29392-P232

>  <fragmenstein_outcome>  (1982) 
acceptable

>  <inchikey>  (1982) 
WJDZBJPEKVIYMU-UHFFFAOYSA-N

>  <fragmenstein_mode>  (1982) 
expansion

>  <HIPPO Pose ID>  (1982) 
24777

>  <Energy>  (1982) 
109.522434

>  <fragmenstein_error>  (1982) 


>  <tags>  (1982) 
{'openbind_xx01zvns2b_c1_fragmenstein', 'fragmenstein_placed'}

>  <ref_pdb>  (1982) 
175

>  <scratch_subdir>  (1982) 
/opt/xchem-fragalysis-2/maxwin/BulkDock/SCRATCH/511028/C29392-P232

>  <alias>  (1982) 
CC1=Nc2c(C(=O)Nc3ccc4c(c3)CNC4)cc(Cl)c3c2c1c(O)n3N

>  <HIPPO Compound ID>  (1982) 
29392

>  <fragmenstein_runtime>  (1982) 
2.521929

$$$$
NC[C@@](N)(O)c1c[nH]c2c(C(=O)Nc3ccc4c(c3)CNC4)cc(Cl)cc12
     RDKit          3D

 27 30  0  0  0  0  0  0  0  0999 V2000
   -4.2464    6.4113  -21.5115 N   0  0  0  0  0  0  0  0  0  0  0  0
   -5.1411    6.1537  -20.3527 C   0  0  0  0  0  0  0  0  0  0  0  0
   -4.2641    5.9664  -19.1000 C   0  0  1  0  0  0  0  0  0  0  0  0
   -3.2631    4.9365  -19.3503 N   0  0  0  0  0  0  0  0  0  0  0  0
   -3.5000    7.1637  -18.9794 O   0  0  0  0  0  0  0  0  0  0  0  0
   -4.9197    5.6876  -17.7794 C   0  0  0  0  0  0  0  0  0  0  0  0
   -4.2601    5.9771  -16.5895 C   0  0  0  0  0  0  0  0  0  0  0  0
   -5.1068    5.7963  -15.5519 N   0  0  0  0  0  0  0  0  0  0  0  0
   -6.3027    5.3044  -16.0071 C   0  0  0  0  0  0  0  0  0  0  0  0
   -7.4497    5.0142  -15.2558 C   0  0  0  0  0  0  0  0  0  0  0  0
   -7.4937    5.4514  -13.8407 C   0  0  0  0  0  0  0  0  0  0  0  0
   -7.1023    6.5265  -13.6084 O   0  0  0  0  0  0  0  0  0  0  0  0
   -7.9824    4.3395  -12.8925 N   0  0  0  0  0  0  0  0  0  0  0  0
   -8.1756    4.3468  -11.5146 C   0  0  0  0  0  0  0  0  0  0  0  0
   -7.9941    5.5337  -10.7815 C   0  0  0  0  0  0  0  0  0  0  0  0
   -8.1399    5.5508   -9.3932 C   0  0  0  0  0  0  0  0  0  0  0  0
   -8.4717    4.3681   -8.7630 C   0  0  0  0  0  0  0  0  0  0  0  0
   -8.6572    3.1921   -9.4845 C   0  0  0  0  0  0  0  0  0  0  0  0
   -8.5146    3.1617  -10.8626 C   0  0  0  0  0  0  0  0  0  0  0  0
   -8.9743    2.0858   -8.5311 C   0  0  0  0  0  0  0  0  0  0  0  0
   -9.3333    2.7639   -7.2530 N   0  0  0  0  0  0  0  0  0  0  0  0
   -8.6656    4.0851   -7.3126 C   0  0  0  0  0  0  0  0  0  0  0  0
   -8.5587    4.5118  -15.9171 C   0  0  0  0  0  0  0  0  0  0  0  0
   -8.5166    4.3756  -17.3000 C   0  0  0  0  0  0  0  0  0  0  0  0
   -9.9867    3.9933  -18.0955 Cl  0  0  0  0  0  0  0  0  0  0  0  0
   -7.3710    4.6921  -18.0583 C   0  0  0  0  0  0  0  0  0  0  0  0
   -6.2190    5.1785  -17.3985 C   0  0  0  0  0  0  0  0  0  0  0  0
  1  2  1  0
  2  3  1  0
  3  4  1  6
  3  5  1  0
  3  6  1  0
  6  7  2  0
  7  8  1  0
  8  9  1  0
  9 10  2  0
 10 11  1  0
 11 12  2  0
 11 13  1  0
 13 14  1  0
 14 15  2  0
 15 16  1  0
 16 17  2  0
 17 18  1  0
 18 19  2  0
 18 20  1  0
 20 21  1  0
 21 22  1  0
 10 23  1  0
 23 24  2  0
 24 25  1  0
 24 26  1  0
 26 27  2  0
 27  6  1  0
 27  9  1  0
 19 14  1  0
 22 17  1  0
M  END
>  <smiles>  (1983) 
C29406-P233

>  <fragmenstein_outcome>  (1983) 
acceptable

>  <inchikey>  (1983) 
OCBGJSZLBIWUKB-UHFFFAOYSA-N

>  <fragmenstein_mode>  (1983) 
expansion

>  <HIPPO Pose ID>  (1983) 
24785

>  <Energy>  (1983) 
42.561939

>  <fragmenstein_error>  (1983) 


>  <tags>  (1983) 
{'openbind_xx01zvns2b_c1_fragmenstein', 'fragmenstein_placed'}

>  <ref_pdb>  (1983) 
175

>  <scratch_subdir>  (1983) 
/opt/xchem-fragalysis-2/maxwin/BulkDock/SCRATCH/511028/C29406-P233

>  <alias>  (1983) 
NC[C@@](N)(O)c1c[nH]c2c(C(=O)Nc3ccc4c(c3)CNC4)cc(Cl)cc12

>  <HIPPO Compound ID>  (1983) 
29406

>  <fragmenstein_runtime>  (1983) 
8.731139

$$$$
O=C(Cc1c[nH]c2c(C(=O)Nc3ccc4c(c3)CNC4)cc(Cl)c(O)c12)c1ccncc1
     RDKit          3D

 32 36  0  0  0  0  0  0  0  0999 V2000
   -5.3663    7.5305  -20.2923 O   0  0  0  0  0  0  0  0  0  0  0  0
   -4.6330    6.5501  -20.4179 C   0  0  0  0  0  0  0  0  0  0  0  0
   -4.9040    5.1920  -19.7987 C   0  0  0  0  0  0  0  0  0  0  0  0
   -5.2303    5.2766  -18.3470 C   0  0  0  0  0  0  0  0  0  0  0  0
   -4.4029    5.7300  -17.3362 C   0  0  0  0  0  0  0  0  0  0  0  0
   -5.0981    5.6864  -16.1585 N   0  0  0  0  0  0  0  0  0  0  0  0
   -6.3626    5.1889  -16.3731 C   0  0  0  0  0  0  0  0  0  0  0  0
   -7.4207    4.9874  -15.4733 C   0  0  0  0  0  0  0  0  0  0  0  0
   -7.3188    5.4436  -14.0669 C   0  0  0  0  0  0  0  0  0  0  0  0
   -6.8816    6.5107  -13.8755 O   0  0  0  0  0  0  0  0  0  0  0  0
   -7.9266    4.4163  -13.0807 N   0  0  0  0  0  0  0  0  0  0  0  0
   -8.0323    4.4484  -11.6925 C   0  0  0  0  0  0  0  0  0  0  0  0
   -7.7531    5.6242  -10.9772 C   0  0  0  0  0  0  0  0  0  0  0  0
   -7.8853    5.6655   -9.5860 C   0  0  0  0  0  0  0  0  0  0  0  0
   -8.2833    4.5142   -8.9338 C   0  0  0  0  0  0  0  0  0  0  0  0
   -8.5481    3.3437   -9.6366 C   0  0  0  0  0  0  0  0  0  0  0  0
   -8.4400    3.2945  -11.0176 C   0  0  0  0  0  0  0  0  0  0  0  0
   -8.8970    2.2624   -8.6664 C   0  0  0  0  0  0  0  0  0  0  0  0
   -9.1726    2.9634   -7.3807 N   0  0  0  0  0  0  0  0  0  0  0  0
   -8.4672    4.2614   -7.4764 C   0  0  0  0  0  0  0  0  0  0  0  0
   -8.6377    4.5377  -15.9873 C   0  0  0  0  0  0  0  0  0  0  0  0
   -8.7733    4.2774  -17.3452 C   0  0  0  0  0  0  0  0  0  0  0  0
  -10.3493    4.0127  -17.9618 Cl  0  0  0  0  0  0  0  0  0  0  0  0
   -7.6887    4.3907  -18.2165 C   0  0  0  0  0  0  0  0  0  0  0  0
   -7.8228    4.0205  -19.5315 O   0  0  0  0  0  0  0  0  0  0  0  0
   -6.4692    4.9054  -17.7362 C   0  0  0  0  0  0  0  0  0  0  0  0
   -3.4273    6.6644  -21.2703 C   0  0  0  0  0  0  0  0  0  0  0  0
   -2.2239    6.0610  -20.9091 C   0  0  0  0  0  0  0  0  0  0  0  0
   -1.1569    6.1963  -21.7793 C   0  0  0  0  0  0  0  0  0  0  0  0
   -1.2242    6.8616  -22.9531 N   0  0  0  0  0  0  0  0  0  0  0  0
   -2.4004    7.4499  -23.2623 C   0  0  0  0  0  0  0  0  0  0  0  0
   -3.5201    7.3895  -22.4566 C   0  0  0  0  0  0  0  0  0  0  0  0
  1  2  2  0
  2  3  1  0
  3  4  1  0
  4  5  2  0
  5  6  1  0
  6  7  1  0
  7  8  2  0
  8  9  1  0
  9 10  2  0
  9 11  1  0
 11 12  1  0
 12 13  2  0
 13 14  1  0
 14 15  2  0
 15 16  1  0
 16 17  2  0
 16 18  1  0
 18 19  1  0
 19 20  1  0
  8 21  1  0
 21 22  2  0
 22 23  1  0
 22 24  1  0
 24 25  1  0
 24 26  2  0
  2 27  1  0
 27 28  2  0
 28 29  1  0
 29 30  2  0
 30 31  1  0
 31 32  2  0
 26  4  1  0
 32 27  1  0
 26  7  1  0
 17 12  1  0
 20 15  1  0
M  END
>  <smiles>  (1984) 
C29422-P233

>  <fragmenstein_outcome>  (1984) 
acceptable

>  <inchikey>  (1984) 
XMWXOPBQRVKXDU-UHFFFAOYSA-N

>  <fragmenstein_mode>  (1984) 
expansion

>  <HIPPO Pose ID>  (1984) 
24796

>  <Energy>  (1984) 
95.90991

>  <fragmenstein_error>  (1984) 


>  <tags>  (1984) 
{'openbind_xx01zvns2b_c1_fragmenstein', 'fragmenstein_placed'}

>  <ref_pdb>  (1984) 
175

>  <scratch_subdir>  (1984) 
/opt/xchem-fragalysis-2/maxwin/BulkDock/SCRATCH/511028/C29422-P233

>  <alias>  (1984) 
O=C(Cc1c[nH]c2c(C(=O)Nc3ccc4c(c3)CNC4)cc(Cl)c(O)c12)c1ccncc1

>  <HIPPO Compound ID>  (1984) 
18588

>  <fragmenstein_runtime>  (1984) 
8.201201

$$$$
CCN[C@H](N)c1c[nH]c([C@@H](C[C@H](C)Cl)C(=O)Nc2ccc3c(c2)CNC3)c1
     RDKit          3D

 27 29  0  0  0  0  0  0  0  0999 V2000
   -4.8671    7.9969  -22.1966 C   0  0  0  0  0  0  0  0  0  0  0  0
   -3.9724    7.1600  -21.2931 C   0  0  0  0  0  0  0  0  0  0  0  0
   -4.7697    6.6016  -20.2023 N   0  0  0  0  0  0  0  0  0  0  0  0
   -3.9691    5.8063  -19.3067 C   0  0  2  0  0  0  0  0  0  0  0  0
   -3.6218    4.6193  -20.0342 N   0  0  0  0  0  0  0  0  0  0  0  0
   -4.7547    5.4233  -18.0780 C   0  0  0  0  0  0  0  0  0  0  0  0
   -4.2133    5.1884  -16.8270 C   0  0  0  0  0  0  0  0  0  0  0  0
   -5.2241    4.9611  -15.9308 N   0  0  0  0  0  0  0  0  0  0  0  0
   -6.4421    5.1078  -16.5533 C   0  0  0  0  0  0  0  0  0  0  0  0
   -7.7063    5.3736  -15.7892 C   0  0  1  0  0  0  0  0  0  0  0  0
   -9.0725    4.7261  -16.0174 C   0  0  0  0  0  0  0  0  0  0  0  0
   -9.5948    4.0886  -17.3090 C   0  0  2  0  0  0  0  0  0  0  0  0
   -8.8439    2.8508  -17.5767 C   0  0  0  0  0  0  0  0  0  0  0  0
   -9.5601    4.8994  -18.8333 Cl  0  0  0  0  0  0  0  0  0  0  0  0
   -7.4585    5.8201  -14.3102 C   0  0  0  0  0  0  0  0  0  0  0  0
   -7.1571    6.9303  -14.0809 O   0  0  0  0  0  0  0  0  0  0  0  0
   -7.7763    4.6377  -13.3410 N   0  0  0  0  0  0  0  0  0  0  0  0
   -7.8766    4.6090  -11.9481 C   0  0  0  0  0  0  0  0  0  0  0  0
   -7.7299    5.7939  -11.2045 C   0  0  0  0  0  0  0  0  0  0  0  0
   -7.8920    5.8032   -9.8157 C   0  0  0  0  0  0  0  0  0  0  0  0
   -8.2116    4.6155   -9.1904 C   0  0  0  0  0  0  0  0  0  0  0  0
   -8.3636    3.4387   -9.9173 C   0  0  0  0  0  0  0  0  0  0  0  0
   -8.1938    3.4127  -11.2963 C   0  0  0  0  0  0  0  0  0  0  0  0
   -8.6997    2.3312   -8.9705 C   0  0  0  0  0  0  0  0  0  0  0  0
   -9.0514    2.9991   -7.6862 N   0  0  0  0  0  0  0  0  0  0  0  0
   -8.4170    4.3318   -7.7416 C   0  0  0  0  0  0  0  0  0  0  0  0
   -6.1675    5.2883  -17.9050 C   0  0  0  0  0  0  0  0  0  0  0  0
  1  2  1  0
  2  3  1  0
  3  4  1  0
  4  5  1  6
  4  6  1  0
  6  7  2  0
  7  8  1  0
  8  9  1  0
  9 10  1  0
 10 11  1  1
 11 12  1  0
 12 13  1  6
 12 14  1  0
 10 15  1  0
 15 16  2  0
 15 17  1  0
 17 18  1  0
 18 19  2  0
 19 20  1  0
 20 21  2  0
 21 22  1  0
 22 23  2  0
 22 24  1  0
 24 25  1  0
 25 26  1  0
  9 27  2  0
 27  6  1  0
 23 18  1  0
 26 21  1  0
M  END
>  <smiles>  (1985) 
C29428-P233

>  <fragmenstein_outcome>  (1985) 
acceptable

>  <inchikey>  (1985) 
KKSMGRRAHNXIMW-UHFFFAOYSA-N

>  <fragmenstein_mode>  (1985) 
expansion

>  <HIPPO Pose ID>  (1985) 
24798

>  <Energy>  (1985) 
5.897151

>  <fragmenstein_error>  (1985) 


>  <tags>  (1985) 
{'openbind_xx01zvns2b_c1_fragmenstein', 'fragmenstein_placed'}

>  <ref_pdb>  (1985) 
175

>  <scratch_subdir>  (1985) 
/opt/xchem-fragalysis-2/maxwin/BulkDock/SCRATCH/511028/C29428-P233

>  <alias>  (1985) 
CCN[C@H](N)c1c[nH]c([C@@H](C[C@H](C)Cl)C(=O)Nc2ccc3c(c2)CNC3)c1

>  <HIPPO Compound ID>  (1985) 
29428

>  <fragmenstein_runtime>  (1985) 
7.948791

$$$$
CN[C@@H]1NCc2c(O)cc(NC(=O)c3cc(Cl)cc4c(C(O)(O)N[C@@H](C)CO)c[nH]c34)cc21
     RDKit          3D

 33 36  0  0  0  0  0  0  0  0999 V2000
   -9.4287    1.2513   -7.2526 C   0  0  0  0  0  0  0  0  0  0  0  0
   -9.3023    2.0649   -8.4572 N   0  0  0  0  0  0  0  0  0  0  0  0
   -8.2366    3.0312   -8.3180 C   0  0  2  0  0  0  0  0  0  0  0  0
   -8.5522    3.8468   -7.1313 N   0  0  0  0  0  0  0  0  0  0  0  0
   -8.0989    5.2075   -7.4335 C   0  0  0  0  0  0  0  0  0  0  0  0
   -8.0827    5.2852   -8.9148 C   0  0  0  0  0  0  0  0  0  0  0  0
   -7.9766    6.4001   -9.7045 C   0  0  0  0  0  0  0  0  0  0  0  0
   -7.9039    7.6262   -9.1220 O   0  0  0  0  0  0  0  0  0  0  0  0
   -7.9405    6.2352  -11.0790 C   0  0  0  0  0  0  0  0  0  0  0  0
   -8.0217    4.9520  -11.6527 C   0  0  0  0  0  0  0  0  0  0  0  0
   -7.9186    4.8424  -13.0387 N   0  0  0  0  0  0  0  0  0  0  0  0
   -7.5814    5.9077  -14.1082 C   0  0  0  0  0  0  0  0  0  0  0  0
   -7.4130    7.0597  -14.0035 O   0  0  0  0  0  0  0  0  0  0  0  0
   -7.4516    5.3481  -15.4639 C   0  0  0  0  0  0  0  0  0  0  0  0
   -8.5202    4.7270  -16.0941 C   0  0  0  0  0  0  0  0  0  0  0  0
   -8.4294    4.4511  -17.4506 C   0  0  0  0  0  0  0  0  0  0  0  0
   -9.8029    3.8615  -18.2506 Cl  0  0  0  0  0  0  0  0  0  0  0  0
   -7.2828    4.7252  -18.2053 C   0  0  0  0  0  0  0  0  0  0  0  0
   -6.1895    5.3472  -17.5774 C   0  0  0  0  0  0  0  0  0  0  0  0
   -4.9138    5.8440  -18.0221 C   0  0  0  0  0  0  0  0  0  0  0  0
   -4.3275    5.8084  -19.4038 C   0  0  0  0  0  0  0  0  0  0  0  0
   -4.5003    4.5649  -19.9974 O   0  0  0  0  0  0  0  0  0  0  0  0
   -2.9266    5.9882  -19.3730 O   0  0  0  0  0  0  0  0  0  0  0  0
   -4.9647    6.8374  -20.1860 N   0  0  0  0  0  0  0  0  0  0  0  0
   -4.1940    7.2828  -21.3487 C   0  0  1  0  0  0  0  0  0  0  0  0
   -5.1587    7.7402  -22.4537 C   0  0  0  0  0  0  0  0  0  0  0  0
   -3.2680    8.4670  -20.9827 C   0  0  0  0  0  0  0  0  0  0  0  0
   -2.3488    8.7319  -22.0429 O   0  0  0  0  0  0  0  0  0  0  0  0
   -4.3160    6.4160  -16.9085 C   0  0  0  0  0  0  0  0  0  0  0  0
   -5.1603    6.3031  -15.8455 N   0  0  0  0  0  0  0  0  0  0  0  0
   -6.3074    5.6470  -16.2202 C   0  0  0  0  0  0  0  0  0  0  0  0
   -8.1618    3.8171  -10.8431 C   0  0  0  0  0  0  0  0  0  0  0  0
   -8.1787    4.0043   -9.4625 C   0  0  0  0  0  0  0  0  0  0  0  0
  1  2  1  0
  3  2  1  6
  3  4  1  0
  4  5  1  0
  5  6  1  0
  6  7  2  0
  7  8  1  0
  7  9  1  0
  9 10  2  0
 10 11  1  0
 11 12  1  0
 12 13  2  0
 12 14  1  0
 14 15  2  0
 15 16  1  0
 16 17  1  0
 16 18  2  0
 18 19  1  0
 19 20  1  0
 20 21  1  0
 21 22  1  0
 21 23  1  0
 21 24  1  0
 24 25  1  0
 25 26  1  6
 25 27  1  0
 27 28  1  0
 20 29  2  0
 29 30  1  0
 30 31  1  0
 10 32  1  0
 32 33  2  0
 33  3  1  0
 33  6  1  0
 31 14  1  0
 31 19  2  0
M  END
>  <smiles>  (1986) 
C29440-P52

>  <fragmenstein_outcome>  (1986) 
acceptable

>  <inchikey>  (1986) 
YBXOGOGJCMEVGE-UHFFFAOYSA-N

>  <fragmenstein_mode>  (1986) 
expansion

>  <HIPPO Pose ID>  (1986) 
24803

>  <Energy>  (1986) 
-135.076505

>  <fragmenstein_error>  (1986) 


>  <tags>  (1986) 
{'openbind_xx01zvns2b_c1_fragmenstein', 'fragmenstein_placed'}

>  <ref_pdb>  (1986) 
175

>  <scratch_subdir>  (1986) 
/opt/xchem-fragalysis-2/maxwin/BulkDock/SCRATCH/511028/C29440-P52

>  <alias>  (1986) 
CN[C@@H]1NCc2c(O)cc(NC(=O)c3cc(Cl)cc4c(C(O)(O)N[C@@H](C)CO)c[nH]c34)cc21

>  <HIPPO Compound ID>  (1986) 
29440

>  <fragmenstein_runtime>  (1986) 
8.771907

$$$$
N#CC(=O)c1c[nH]c2c(C(=O)Nc3ccc4c(c3)CNC4)cc(Cl)cc12
     RDKit          3D

 26 29  0  0  0  0  0  0  0  0999 V2000
   -4.8565    7.3872  -21.2413 N   0  0  0  0  0  0  0  0  0  0  0  0
   -4.7550    6.4469  -20.5644 C   0  0  0  0  0  0  0  0  0  0  0  0
   -4.4890    5.3339  -19.6710 C   0  0  0  0  0  0  0  0  0  0  0  0
   -3.7013    4.4622  -20.0304 O   0  0  0  0  0  0  0  0  0  0  0  0
   -4.9845    5.3975  -18.3007 C   0  0  0  0  0  0  0  0  0  0  0  0
   -4.2144    5.8464  -17.2410 C   0  0  0  0  0  0  0  0  0  0  0  0
   -4.9715    5.8048  -16.1051 N   0  0  0  0  0  0  0  0  0  0  0  0
   -6.2141    5.2857  -16.3854 C   0  0  0  0  0  0  0  0  0  0  0  0
   -7.2956    5.0423  -15.5231 C   0  0  0  0  0  0  0  0  0  0  0  0
   -7.2515    5.4932  -14.1117 C   0  0  0  0  0  0  0  0  0  0  0  0
   -6.8618    6.5751  -13.9034 O   0  0  0  0  0  0  0  0  0  0  0  0
   -7.8457    4.4388  -13.1486 N   0  0  0  0  0  0  0  0  0  0  0  0
   -7.9914    4.4589  -11.7643 C   0  0  0  0  0  0  0  0  0  0  0  0
   -7.7531    5.6291  -11.0253 C   0  0  0  0  0  0  0  0  0  0  0  0
   -7.9087    5.6434   -9.6351 C   0  0  0  0  0  0  0  0  0  0  0  0
   -8.2912    4.4723   -9.0092 C   0  0  0  0  0  0  0  0  0  0  0  0
   -8.5220    3.3112   -9.7384 C   0  0  0  0  0  0  0  0  0  0  0  0
   -8.3883    3.2872  -11.1164 C   0  0  0  0  0  0  0  0  0  0  0  0
   -8.8612    2.2028   -8.7983 C   0  0  0  0  0  0  0  0  0  0  0  0
   -9.1621    2.8645   -7.5036 N   0  0  0  0  0  0  0  0  0  0  0  0
   -8.4837    4.1804   -7.5600 C   0  0  0  0  0  0  0  0  0  0  0  0
   -8.4696    4.5383  -16.0743 C   0  0  0  0  0  0  0  0  0  0  0  0
   -8.5437    4.3104  -17.4415 C   0  0  0  0  0  0  0  0  0  0  0  0
  -10.0676    3.9179  -18.0977 Cl  0  0  0  0  0  0  0  0  0  0  0  0
   -7.4570    4.5224  -18.2984 C   0  0  0  0  0  0  0  0  0  0  0  0
   -6.2592    5.0305  -17.7607 C   0  0  0  0  0  0  0  0  0  0  0  0
  1  2  3  0
  2  3  1  0
  3  4  2  0
  3  5  1  0
  5  6  2  0
  6  7  1  0
  7  8  1  0
  8  9  2  0
  9 10  1  0
 10 11  2  0
 10 12  1  0
 12 13  1  0
 13 14  2  0
 14 15  1  0
 15 16  2  0
 16 17  1  0
 17 18  2  0
 17 19  1  0
 19 20  1  0
 20 21  1  0
  9 22  1  0
 22 23  2  0
 23 24  1  0
 23 25  1  0
 25 26  2  0
 26  5  1  0
 26  8  1  0
 18 13  1  0
 21 16  1  0
M  END
>  <smiles>  (1987) 
C29531-P233

>  <fragmenstein_outcome>  (1987) 
acceptable

>  <inchikey>  (1987) 
QVTSZFHGHGFIQG-UHFFFAOYSA-N

>  <fragmenstein_mode>  (1987) 
expansion

>  <HIPPO Pose ID>  (1987) 
24846

>  <Energy>  (1987) 
98.873176

>  <fragmenstein_error>  (1987) 


>  <tags>  (1987) 
{'openbind_xx01zvns2b_c1_fragmenstein', 'fragmenstein_placed'}

>  <ref_pdb>  (1987) 
175

>  <scratch_subdir>  (1987) 
/opt/xchem-fragalysis-2/maxwin/BulkDock/SCRATCH/511028/C29531-P233

>  <alias>  (1987) 
N#CC(=O)c1c[nH]c2c(C(=O)Nc3ccc4c(c3)CNC4)cc(Cl)cc12

>  <HIPPO Compound ID>  (1987) 
30267

>  <fragmenstein_runtime>  (1987) 
3.432595

$$$$
CNC[C@]1(C)CNc2c(C(=O)Nc3cc(Br)c4c(c3)CNC4)cc(Cl)cc21
     RDKit          3D

 27 30  0  0  0  0  0  0  0  0999 V2000
   -2.8368    6.0076  -20.5811 C   0  0  0  0  0  0  0  0  0  0  0  0
   -4.2850    5.9431  -20.6251 N   0  0  0  0  0  0  0  0  0  0  0  0
   -4.8499    5.1043  -19.5569 C   0  0  0  0  0  0  0  0  0  0  0  0
   -5.2091    5.8367  -18.2389 C   0  0  2  0  0  0  0  0  0  0  0  0
   -5.4933    7.3314  -18.4903 C   0  0  0  0  0  0  0  0  0  0  0  0
   -4.1500    5.6890  -17.1126 C   0  0  0  0  0  0  0  0  0  0  0  0
   -4.8757    5.8162  -15.8313 N   0  0  0  0  0  0  0  0  0  0  0  0
   -6.1580    5.2770  -16.1128 C   0  0  0  0  0  0  0  0  0  0  0  0
   -7.1969    4.9803  -15.2229 C   0  0  0  0  0  0  0  0  0  0  0  0
   -7.1553    5.3814  -13.7802 C   0  0  0  0  0  0  0  0  0  0  0  0
   -6.7291    6.4392  -13.5232 O   0  0  0  0  0  0  0  0  0  0  0  0
   -7.8049    4.3092  -12.8644 N   0  0  0  0  0  0  0  0  0  0  0  0
   -7.9712    4.2808  -11.4760 C   0  0  0  0  0  0  0  0  0  0  0  0
   -7.7578    5.4339  -10.7038 C   0  0  0  0  0  0  0  0  0  0  0  0
   -7.9668    5.4161   -9.3197 C   0  0  0  0  0  0  0  0  0  0  0  0
   -7.6730    6.9855   -8.3101 Br  0  0  0  0  0  0  0  0  0  0  0  0
   -8.3864    4.2446   -8.7196 C   0  0  0  0  0  0  0  0  0  0  0  0
   -8.5864    3.0975   -9.4815 C   0  0  0  0  0  0  0  0  0  0  0  0
   -8.3924    3.0996  -10.8579 C   0  0  0  0  0  0  0  0  0  0  0  0
   -8.9740    1.9744   -8.5737 C   0  0  0  0  0  0  0  0  0  0  0  0
   -9.3447    2.6171   -7.2866 N   0  0  0  0  0  0  0  0  0  0  0  0
   -8.6628    3.9300   -7.2877 C   0  0  0  0  0  0  0  0  0  0  0  0
   -8.4146    4.5147  -15.7501 C   0  0  0  0  0  0  0  0  0  0  0  0
   -8.5826    4.3948  -17.1346 C   0  0  0  0  0  0  0  0  0  0  0  0
  -10.1082    3.9802  -17.7942 Cl  0  0  0  0  0  0  0  0  0  0  0  0
   -7.5741    4.7544  -18.0190 C   0  0  0  0  0  0  0  0  0  0  0  0
   -6.3794    5.2183  -17.4991 C   0  0  0  0  0  0  0  0  0  0  0  0
  1  2  1  0
  2  3  1  0
  3  4  1  0
  4  5  1  6
  4  6  1  0
  6  7  1  0
  7  8  1  0
  8  9  2  0
  9 10  1  0
 10 11  2  0
 10 12  1  0
 12 13  1  0
 13 14  2  0
 14 15  1  0
 15 16  1  0
 15 17  2  0
 17 18  1  0
 18 19  2  0
 18 20  1  0
 20 21  1  0
 21 22  1  0
  9 23  1  0
 23 24  2  0
 24 25  1  0
 24 26  1  0
 26 27  2  0
 27  4  1  0
 27  8  1  0
 19 13  1  0
 22 17  1  0
M  END
>  <smiles>  (1988) 
C29544-P233

>  <fragmenstein_outcome>  (1988) 
acceptable

>  <inchikey>  (1988) 
UTYWSZOLIJKECN-UHFFFAOYSA-N

>  <fragmenstein_mode>  (1988) 
expansion

>  <HIPPO Pose ID>  (1988) 
24854

>  <Energy>  (1988) 
100.29534

>  <fragmenstein_error>  (1988) 


>  <tags>  (1988) 
{'openbind_xx01zvns2b_c1_fragmenstein', 'fragmenstein_placed'}

>  <ref_pdb>  (1988) 
175

>  <scratch_subdir>  (1988) 
/opt/xchem-fragalysis-2/maxwin/BulkDock/SCRATCH/511028/C29544-P233

>  <alias>  (1988) 
CNC[C@]1(C)CNc2c(C(=O)Nc3cc(Br)c4c(c3)CNC4)cc(Cl)cc21

>  <HIPPO Compound ID>  (1988) 
29544

>  <fragmenstein_runtime>  (1988) 
6.018096

$$$$
CN(Cc1c[nH]c2c(C(=O)Nc3ccc4c(c3)CNC4)cc(Cl)cc12)C1CCOCC1
     RDKit          3D

 31 35  0  0  0  0  0  0  0  0999 V2000
   -5.3308    7.5524  -20.1248 C   0  0  0  0  0  0  0  0  0  0  0  0
   -4.3925    6.4624  -20.3638 N   0  0  0  0  0  0  0  0  0  0  0  0
   -4.8656    5.2072  -19.7657 C   0  0  0  0  0  0  0  0  0  0  0  0
   -5.1781    5.2867  -18.2976 C   0  0  0  0  0  0  0  0  0  0  0  0
   -4.3464    5.6742  -17.2620 C   0  0  0  0  0  0  0  0  0  0  0  0
   -5.0592    5.6484  -16.0960 N   0  0  0  0  0  0  0  0  0  0  0  0
   -6.3260    5.1641  -16.3227 C   0  0  0  0  0  0  0  0  0  0  0  0
   -7.3818    4.9400  -15.4220 C   0  0  0  0  0  0  0  0  0  0  0  0
   -7.2536    5.3916  -14.0155 C   0  0  0  0  0  0  0  0  0  0  0  0
   -6.7721    6.4440  -13.8456 O   0  0  0  0  0  0  0  0  0  0  0  0
   -7.8150    4.3680  -12.9970 N   0  0  0  0  0  0  0  0  0  0  0  0
   -7.9816    4.4630  -11.6144 C   0  0  0  0  0  0  0  0  0  0  0  0
   -7.6609    5.6605  -10.9526 C   0  0  0  0  0  0  0  0  0  0  0  0
   -7.7847    5.7738   -9.5674 C   0  0  0  0  0  0  0  0  0  0  0  0
   -8.2080    4.6671   -8.8594 C   0  0  0  0  0  0  0  0  0  0  0  0
   -8.5416    3.4809   -9.5035 C   0  0  0  0  0  0  0  0  0  0  0  0
   -8.4488    3.3634  -10.8860 C   0  0  0  0  0  0  0  0  0  0  0  0
   -8.9951    2.4879   -8.4805 C   0  0  0  0  0  0  0  0  0  0  0  0
   -8.6810    3.0887   -7.1534 N   0  0  0  0  0  0  0  0  0  0  0  0
   -8.4027    4.5179   -7.3917 C   0  0  0  0  0  0  0  0  0  0  0  0
   -8.5894    4.4722  -15.9381 C   0  0  0  0  0  0  0  0  0  0  0  0
   -8.7215    4.2652  -17.3069 C   0  0  0  0  0  0  0  0  0  0  0  0
  -10.2689    3.9237  -17.9490 Cl  0  0  0  0  0  0  0  0  0  0  0  0
   -7.6609    4.4634  -18.1930 C   0  0  0  0  0  0  0  0  0  0  0  0
   -6.4321    4.9313  -17.6928 C   0  0  0  0  0  0  0  0  0  0  0  0
   -2.9950    6.8491  -20.1154 C   0  0  0  0  0  0  0  0  0  0  0  0
   -1.9699    5.7068  -20.1616 C   0  0  0  0  0  0  0  0  0  0  0  0
   -0.5665    6.2343  -19.8362 C   0  0  0  0  0  0  0  0  0  0  0  0
   -0.4183    7.6360  -20.0714 O   0  0  0  0  0  0  0  0  0  0  0  0
   -1.0504    8.0305  -21.2809 C   0  0  0  0  0  0  0  0  0  0  0  0
   -2.5635    7.9300  -21.1348 C   0  0  0  0  0  0  0  0  0  0  0  0
  1  2  1  0
  2  3  1  0
  3  4  1  0
  4  5  2  0
  5  6  1  0
  6  7  1  0
  7  8  2  0
  8  9  1  0
  9 10  2  0
  9 11  1  0
 11 12  1  0
 12 13  2  0
 13 14  1  0
 14 15  2  0
 15 16  1  0
 16 17  2  0
 16 18  1  0
 18 19  1  0
 19 20  1  0
  8 21  1  0
 21 22  2  0
 22 23  1  0
 22 24  1  0
 24 25  2  0
  2 26  1  0
 26 27  1  0
 27 28  1  0
 28 29  1  0
 29 30  1  0
 30 31  1  0
 25  4  1  0
 31 26  1  0
 25  7  1  0
 17 12  1  0
 20 15  1  0
M  END
>  <smiles>  (1989) 
C27766-P233

>  <fragmenstein_outcome>  (1989) 
acceptable

>  <inchikey>  (1989) 
SPZFUXFTFKRXPS-UHFFFAOYSA-N

>  <fragmenstein_mode>  (1989) 
expansion

>  <HIPPO Pose ID>  (1989) 
24858

>  <Energy>  (1989) 
60.932446

>  <fragmenstein_error>  (1989) 


>  <tags>  (1989) 
{'openbind_xx01zvns2b_c1_fragmenstein', 'fragmenstein_placed'}

>  <ref_pdb>  (1989) 
175

>  <scratch_subdir>  (1989) 
/opt/xchem-fragalysis-2/maxwin/BulkDock/SCRATCH/511028/C27766-P233

>  <alias>  (1989) 
CN(Cc1c[nH]c2c(C(=O)Nc3ccc4c(c3)CNC4)cc(Cl)cc12)C1CCOCC1

>  <HIPPO Compound ID>  (1989) 
27766

>  <fragmenstein_runtime>  (1989) 
11.340054

$$$$
NCNCc1c[nH]c2c(C(=O)Nc3cc(F)c4c(c3)CNC4=O)cc(Cl)cc12
     RDKit          3D

 28 31  0  0  0  0  0  0  0  0999 V2000
   -2.7738    5.7570  -21.3402 N   0  0  0  0  0  0  0  0  0  0  0  0
   -3.6435    6.8794  -21.0924 C   0  0  0  0  0  0  0  0  0  0  0  0
   -4.0737    6.7348  -19.7381 N   0  0  0  0  0  0  0  0  0  0  0  0
   -5.0171    5.6368  -19.5363 C   0  0  0  0  0  0  0  0  0  0  0  0
   -5.3420    5.5548  -18.0778 C   0  0  0  0  0  0  0  0  0  0  0  0
   -4.5506    5.9163  -17.0003 C   0  0  0  0  0  0  0  0  0  0  0  0
   -5.2826    5.7701  -15.8590 N   0  0  0  0  0  0  0  0  0  0  0  0
   -6.5208    5.2510  -16.1547 C   0  0  0  0  0  0  0  0  0  0  0  0
   -7.6016    4.9649  -15.3083 C   0  0  0  0  0  0  0  0  0  0  0  0
   -7.5328    5.3751  -13.8851 C   0  0  0  0  0  0  0  0  0  0  0  0
   -7.0191    6.3991  -13.6559 O   0  0  0  0  0  0  0  0  0  0  0  0
   -8.1933    4.3512  -12.9352 N   0  0  0  0  0  0  0  0  0  0  0  0
   -8.2736    4.3279  -11.5455 C   0  0  0  0  0  0  0  0  0  0  0  0
   -7.9341    5.4787  -10.8090 C   0  0  0  0  0  0  0  0  0  0  0  0
   -8.0100    5.4762   -9.4198 C   0  0  0  0  0  0  0  0  0  0  0  0
   -7.6939    6.5817   -8.7342 F   0  0  0  0  0  0  0  0  0  0  0  0
   -8.4162    4.3241   -8.7929 C   0  0  0  0  0  0  0  0  0  0  0  0
   -8.7514    3.1744   -9.5076 C   0  0  0  0  0  0  0  0  0  0  0  0
   -8.6905    3.1624  -10.8937 C   0  0  0  0  0  0  0  0  0  0  0  0
   -9.1213    2.0864   -8.5554 C   0  0  0  0  0  0  0  0  0  0  0  0
   -9.1184    2.7696   -7.2785 N   0  0  0  0  0  0  0  0  0  0  0  0
   -8.5814    4.0387   -7.3675 C   0  0  0  0  0  0  0  0  0  0  0  0
   -8.2835    4.7704   -6.4433 O   0  0  0  0  0  0  0  0  0  0  0  0
   -8.7722    4.4838  -15.8937 C   0  0  0  0  0  0  0  0  0  0  0  0
   -8.8471    4.3290  -17.2736 C   0  0  0  0  0  0  0  0  0  0  0  0
  -10.3541    3.9866  -18.0047 Cl  0  0  0  0  0  0  0  0  0  0  0  0
   -7.7575    4.5837  -18.1026 C   0  0  0  0  0  0  0  0  0  0  0  0
   -6.5743    5.0795  -17.5345 C   0  0  0  0  0  0  0  0  0  0  0  0
  1  2  1  0
  2  3  1  0
  3  4  1  0
  4  5  1  0
  5  6  2  0
  6  7  1  0
  7  8  1  0
  8  9  2  0
  9 10  1  0
 10 11  2  0
 10 12  1  0
 12 13  1  0
 13 14  2  0
 14 15  1  0
 15 16  1  0
 15 17  2  0
 17 18  1  0
 18 19  2  0
 18 20  1  0
 20 21  1  0
 21 22  1  0
 22 23  2  0
  9 24  1  0
 24 25  2  0
 25 26  1  0
 25 27  1  0
 27 28  2  0
 28  5  1  0
 28  8  1  0
 19 13  1  0
 22 17  1  0
M  END
>  <smiles>  (1990) 
C29556-P248

>  <fragmenstein_outcome>  (1990) 
acceptable

>  <inchikey>  (1990) 
UTGRTGWHZNBRDL-UHFFFAOYSA-N

>  <fragmenstein_mode>  (1990) 
expansion

>  <HIPPO Pose ID>  (1990) 
24866

>  <Energy>  (1990) 
-46.395548

>  <fragmenstein_error>  (1990) 


>  <tags>  (1990) 
{'openbind_xx01zvns2b_c1_fragmenstein', 'fragmenstein_placed'}

>  <ref_pdb>  (1990) 
175

>  <scratch_subdir>  (1990) 
/opt/xchem-fragalysis-2/maxwin/BulkDock/SCRATCH/511028/C29556-P248

>  <alias>  (1990) 
NCNCc1c[nH]c2c(C(=O)Nc3cc(F)c4c(c3)CNC4=O)cc(Cl)cc12

>  <HIPPO Compound ID>  (1990) 
41122

>  <fragmenstein_runtime>  (1990) 
5.172746

$$$$
CNCc1c[nH]c2c(C(=O)Nc3cc(C#N)c4c(c3)CNC4)cc(Cl)cc12
     RDKit          3D

 27 30  0  0  0  0  0  0  0  0999 V2000
   -3.9897    6.8536  -21.4756 C   0  0  0  0  0  0  0  0  0  0  0  0
   -4.4456    6.7907  -20.0978 N   0  0  0  0  0  0  0  0  0  0  0  0
   -4.8764    5.4304  -19.7611 C   0  0  0  0  0  0  0  0  0  0  0  0
   -5.2101    5.3974  -18.3016 C   0  0  0  0  0  0  0  0  0  0  0  0
   -4.3757    5.7583  -17.2563 C   0  0  0  0  0  0  0  0  0  0  0  0
   -5.0799    5.6703  -16.0904 N   0  0  0  0  0  0  0  0  0  0  0  0
   -6.3434    5.1836  -16.3328 C   0  0  0  0  0  0  0  0  0  0  0  0
   -7.3994    4.9415  -15.4381 C   0  0  0  0  0  0  0  0  0  0  0  0
   -7.2745    5.3747  -14.0226 C   0  0  0  0  0  0  0  0  0  0  0  0
   -6.7156    6.3823  -13.8258 O   0  0  0  0  0  0  0  0  0  0  0  0
   -7.9836    4.4130  -13.0400 N   0  0  0  0  0  0  0  0  0  0  0  0
   -8.0682    4.4404  -11.6500 C   0  0  0  0  0  0  0  0  0  0  0  0
   -7.6948    5.6004  -10.9502 C   0  0  0  0  0  0  0  0  0  0  0  0
   -7.7628    5.6483   -9.5541 C   0  0  0  0  0  0  0  0  0  0  0  0
   -7.3549    6.8216   -8.8429 C   0  0  0  0  0  0  0  0  0  0  0  0
   -7.0070    7.7526   -8.2428 N   0  0  0  0  0  0  0  0  0  0  0  0
   -8.2021    4.5208   -8.8815 C   0  0  0  0  0  0  0  0  0  0  0  0
   -8.5732    3.3729   -9.5721 C   0  0  0  0  0  0  0  0  0  0  0  0
   -8.5236    3.3167  -10.9582 C   0  0  0  0  0  0  0  0  0  0  0  0
   -9.0019    2.3265   -8.5995 C   0  0  0  0  0  0  0  0  0  0  0  0
   -8.7647    2.8904   -7.2443 N   0  0  0  0  0  0  0  0  0  0  0  0
   -8.3734    4.3033   -7.4179 C   0  0  0  0  0  0  0  0  0  0  0  0
   -8.6050    4.4815  -15.9680 C   0  0  0  0  0  0  0  0  0  0  0  0
   -8.7354    4.3023  -17.3408 C   0  0  0  0  0  0  0  0  0  0  0  0
  -10.2889    3.9960  -17.9900 Cl  0  0  0  0  0  0  0  0  0  0  0  0
   -7.6734    4.5207  -18.2208 C   0  0  0  0  0  0  0  0  0  0  0  0
   -6.4494    4.9874  -17.7094 C   0  0  0  0  0  0  0  0  0  0  0  0
  1  2  1  0
  2  3  1  0
  3  4  1  0
  4  5  2  0
  5  6  1  0
  6  7  1  0
  7  8  2  0
  8  9  1  0
  9 10  2  0
  9 11  1  0
 11 12  1  0
 12 13  2  0
 13 14  1  0
 14 15  1  0
 15 16  3  0
 14 17  2  0
 17 18  1  0
 18 19  2  0
 18 20  1  0
 20 21  1  0
 21 22  1  0
  8 23  1  0
 23 24  2  0
 24 25  1  0
 24 26  1  0
 26 27  2  0
 27  4  1  0
 27  7  1  0
 19 12  1  0
 22 17  1  0
M  END
>  <smiles>  (1991) 
C29564-P233

>  <fragmenstein_outcome>  (1991) 
acceptable

>  <inchikey>  (1991) 
WAUJWCYXYJTGHO-UHFFFAOYSA-N

>  <fragmenstein_mode>  (1991) 
expansion

>  <HIPPO Pose ID>  (1991) 
24869

>  <Energy>  (1991) 
40.279075

>  <fragmenstein_error>  (1991) 


>  <tags>  (1991) 
{'openbind_xx01zvns2b_c1_fragmenstein', 'fragmenstein_placed'}

>  <ref_pdb>  (1991) 
175

>  <scratch_subdir>  (1991) 
/opt/xchem-fragalysis-2/maxwin/BulkDock/SCRATCH/511028/C29564-P233

>  <alias>  (1991) 
CNCc1c[nH]c2c(C(=O)Nc3cc(C#N)c4c(c3)CNC4)cc(Cl)cc12

>  <HIPPO Compound ID>  (1991) 
29564

>  <fragmenstein_runtime>  (1991) 
3.670037

$$$$
CNCc1c[nH]c2c(C(=O)Nc3ccc4c(c3)CN(F)C4)cc(Cl)cc12
     RDKit          3D

 26 29  0  0  0  0  0  0  0  0999 V2000
   -4.9453    7.1822  -20.9137 C   0  0  0  0  0  0  0  0  0  0  0  0
   -3.9943    6.2716  -20.3129 N   0  0  0  0  0  0  0  0  0  0  0  0
   -4.6653    5.1048  -19.7403 C   0  0  0  0  0  0  0  0  0  0  0  0
   -5.0957    5.3483  -18.3292 C   0  0  0  0  0  0  0  0  0  0  0  0
   -4.3199    5.8675  -17.3078 C   0  0  0  0  0  0  0  0  0  0  0  0
   -5.0505    5.8599  -16.1547 N   0  0  0  0  0  0  0  0  0  0  0  0
   -6.2885    5.3043  -16.3810 C   0  0  0  0  0  0  0  0  0  0  0  0
   -7.3452    5.0603  -15.4882 C   0  0  0  0  0  0  0  0  0  0  0  0
   -7.2517    5.5044  -14.0746 C   0  0  0  0  0  0  0  0  0  0  0  0
   -6.7635    6.5459  -13.8652 O   0  0  0  0  0  0  0  0  0  0  0  0
   -7.9109    4.4921  -13.1060 N   0  0  0  0  0  0  0  0  0  0  0  0
   -8.0180    4.5069  -11.7169 C   0  0  0  0  0  0  0  0  0  0  0  0
   -7.7288    5.6758  -10.9923 C   0  0  0  0  0  0  0  0  0  0  0  0
   -7.8502    5.7079   -9.6005 C   0  0  0  0  0  0  0  0  0  0  0  0
   -8.2619    4.5570   -8.9583 C   0  0  0  0  0  0  0  0  0  0  0  0
   -8.5504    3.3941   -9.6716 C   0  0  0  0  0  0  0  0  0  0  0  0
   -8.4363    3.3503  -11.0522 C   0  0  0  0  0  0  0  0  0  0  0  0
   -8.9508    2.3218   -8.7043 C   0  0  0  0  0  0  0  0  0  0  0  0
   -9.2470    3.0503   -7.4484 N   0  0  0  0  0  0  0  0  0  0  0  0
   -8.9701    2.2997   -6.3279 F   0  0  0  0  0  0  0  0  0  0  0  0
   -8.4587    4.2943   -7.5007 C   0  0  0  0  0  0  0  0  0  0  0  0
   -8.5323    4.5467  -16.0108 C   0  0  0  0  0  0  0  0  0  0  0  0
   -8.6393    4.3031  -17.3739 C   0  0  0  0  0  0  0  0  0  0  0  0
  -10.1756    3.9272  -18.0193 Cl  0  0  0  0  0  0  0  0  0  0  0  0
   -7.5664    4.4899  -18.2480 C   0  0  0  0  0  0  0  0  0  0  0  0
   -6.3610    5.0113  -17.7440 C   0  0  0  0  0  0  0  0  0  0  0  0
  1  2  1  0
  2  3  1  0
  3  4  1  0
  4  5  2  0
  5  6  1  0
  6  7  1  0
  7  8  2  0
  8  9  1  0
  9 10  2  0
  9 11  1  0
 11 12  1  0
 12 13  2  0
 13 14  1  0
 14 15  2  0
 15 16  1  0
 16 17  2  0
 16 18  1  0
 18 19  1  0
 19 20  1  0
 19 21  1  0
  8 22  1  0
 22 23  2  0
 23 24  1  0
 23 25  1  0
 25 26  2  0
 26  4  1  0
 26  7  1  0
 17 12  1  0
 21 15  1  0
M  END
>  <smiles>  (1992) 
C29565-P233

>  <fragmenstein_outcome>  (1992) 
acceptable

>  <inchikey>  (1992) 
DEPUWAWZQMQEQF-UHFFFAOYSA-N

>  <fragmenstein_mode>  (1992) 
expansion

>  <HIPPO Pose ID>  (1992) 
24870

>  <Energy>  (1992) 
51.904552

>  <fragmenstein_error>  (1992) 


>  <tags>  (1992) 
{'openbind_xx01zvns2b_c1_fragmenstein', 'fragmenstein_placed'}

>  <ref_pdb>  (1992) 
175

>  <scratch_subdir>  (1992) 
/opt/xchem-fragalysis-2/maxwin/BulkDock/SCRATCH/511028/C29565-P233

>  <alias>  (1992) 
CNCc1c[nH]c2c(C(=O)Nc3ccc4c(c3)CN(F)C4)cc(Cl)cc12

>  <HIPPO Compound ID>  (1992) 
27284

>  <fragmenstein_runtime>  (1992) 
4.353285

$$$$
NN1C[C@]2(CNc3c(C(=O)Nc4ccc5c(c4)CNC5)cc(Cl)cc32)CN1
     RDKit          3D

 27 31  0  0  0  0  0  0  0  0999 V2000
   -4.8922    7.7511  -21.4326 N   0  0  0  0  0  0  0  0  0  0  0  0
   -4.4762    7.0810  -20.2622 N   0  0  0  0  0  0  0  0  0  0  0  0
   -5.6013    6.9176  -19.3299 C   0  0  0  0  0  0  0  0  0  0  0  0
   -5.2059    5.7020  -18.5091 C   0  0  1  0  0  0  0  0  0  0  0  0
   -4.2393    6.0903  -17.3608 C   0  0  0  0  0  0  0  0  0  0  0  0
   -4.8816    5.7625  -16.0737 N   0  0  0  0  0  0  0  0  0  0  0  0
   -6.1762    5.2959  -16.3879 C   0  0  0  0  0  0  0  0  0  0  0  0
   -7.1971    4.9938  -15.4826 C   0  0  0  0  0  0  0  0  0  0  0  0
   -7.1050    5.4426  -14.0667 C   0  0  0  0  0  0  0  0  0  0  0  0
   -6.6939    6.5197  -13.8657 O   0  0  0  0  0  0  0  0  0  0  0  0
   -7.6477    4.3742  -13.0825 N   0  0  0  0  0  0  0  0  0  0  0  0
   -7.8775    4.4419  -11.7082 C   0  0  0  0  0  0  0  0  0  0  0  0
   -7.6875    5.6437  -11.0077 C   0  0  0  0  0  0  0  0  0  0  0  0
   -7.8794    5.7071   -9.6242 C   0  0  0  0  0  0  0  0  0  0  0  0
   -8.2520    4.5533   -8.9599 C   0  0  0  0  0  0  0  0  0  0  0  0
   -8.4686    3.3679   -9.6491 C   0  0  0  0  0  0  0  0  0  0  0  0
   -8.2937    3.2943  -11.0254 C   0  0  0  0  0  0  0  0  0  0  0  0
   -8.8914    2.3069   -8.6876 C   0  0  0  0  0  0  0  0  0  0  0  0
   -8.7763    2.9007   -7.3250 N   0  0  0  0  0  0  0  0  0  0  0  0
   -8.4866    4.3401   -7.5056 C   0  0  0  0  0  0  0  0  0  0  0  0
   -8.4075    4.4919  -15.9716 C   0  0  0  0  0  0  0  0  0  0  0  0
   -8.5673    4.3020  -17.3474 C   0  0  0  0  0  0  0  0  0  0  0  0
  -10.1168    3.9243  -17.9610 Cl  0  0  0  0  0  0  0  0  0  0  0  0
   -7.5424    4.5815  -18.2492 C   0  0  0  0  0  0  0  0  0  0  0  0
   -6.3566    5.1029  -17.7570 C   0  0  0  0  0  0  0  0  0  0  0  0
   -4.5500    4.8593  -19.5880 C   0  0  0  0  0  0  0  0  0  0  0  0
   -3.9954    5.7851  -20.5932 N   0  0  0  0  0  0  0  0  0  0  0  0
  1  2  1  0
  2  3  1  0
  4  3  1  6
  4  5  1  0
  5  6  1  0
  6  7  1  0
  7  8  2  0
  8  9  1  0
  9 10  2  0
  9 11  1  0
 11 12  1  0
 12 13  2  0
 13 14  1  0
 14 15  2  0
 15 16  1  0
 16 17  2  0
 16 18  1  0
 18 19  1  0
 19 20  1  0
  8 21  1  0
 21 22  2  0
 22 23  1  0
 22 24  1  0
 24 25  2  0
  4 26  1  0
 26 27  1  0
 27  2  1  0
 25  4  1  0
 25  7  1  0
 17 12  1  0
 20 15  1  0
M  END
>  <smiles>  (1993) 
C29570-P233

>  <fragmenstein_outcome>  (1993) 
acceptable

>  <inchikey>  (1993) 
HNFJXMXBTZPGOQ-UHFFFAOYSA-N

>  <fragmenstein_mode>  (1993) 
expansion

>  <HIPPO Pose ID>  (1993) 
24872

>  <Energy>  (1993) 
90.782215

>  <fragmenstein_error>  (1993) 


>  <tags>  (1993) 
{'openbind_xx01zvns2b_c1_fragmenstein', 'fragmenstein_placed'}

>  <ref_pdb>  (1993) 
175

>  <scratch_subdir>  (1993) 
/opt/xchem-fragalysis-2/maxwin/BulkDock/SCRATCH/511028/C29570-P233

>  <alias>  (1993) 
NN1C[C@]2(CNc3c(C(=O)Nc4ccc5c(c4)CNC5)cc(Cl)cc32)CN1

>  <HIPPO Compound ID>  (1993) 
29570

>  <fragmenstein_runtime>  (1993) 
6.735304

$$$$
CNCc1c[nH]c2c(C(=O)Nc3cc(C)c4c(c3)CNC4)cc(Cl)cc12
     RDKit          3D

 26 29  0  0  0  0  0  0  0  0999 V2000
   -4.1750    6.9654  -21.5139 C   0  0  0  0  0  0  0  0  0  0  0  0
   -4.5613    6.8888  -20.1153 N   0  0  0  0  0  0  0  0  0  0  0  0
   -4.8450    5.5001  -19.7432 C   0  0  0  0  0  0  0  0  0  0  0  0
   -5.1678    5.4739  -18.2831 C   0  0  0  0  0  0  0  0  0  0  0  0
   -4.3370    5.8516  -17.2411 C   0  0  0  0  0  0  0  0  0  0  0  0
   -5.0414    5.7635  -16.0731 N   0  0  0  0  0  0  0  0  0  0  0  0
   -6.3015    5.2681  -16.3158 C   0  0  0  0  0  0  0  0  0  0  0  0
   -7.3640    5.0243  -15.4316 C   0  0  0  0  0  0  0  0  0  0  0  0
   -7.2743    5.4664  -14.0203 C   0  0  0  0  0  0  0  0  0  0  0  0
   -6.7945    6.5118  -13.8136 O   0  0  0  0  0  0  0  0  0  0  0  0
   -7.9431    4.4619  -13.0539 N   0  0  0  0  0  0  0  0  0  0  0  0
   -8.0722    4.4895  -11.6690 C   0  0  0  0  0  0  0  0  0  0  0  0
   -7.8735    5.6910  -10.9691 C   0  0  0  0  0  0  0  0  0  0  0  0
   -8.0199    5.7538   -9.5770 C   0  0  0  0  0  0  0  0  0  0  0  0
   -7.8550    7.0462   -8.8434 C   0  0  0  0  0  0  0  0  0  0  0  0
   -8.3147    4.5720   -8.9118 C   0  0  0  0  0  0  0  0  0  0  0  0
   -8.5233    3.3842   -9.6048 C   0  0  0  0  0  0  0  0  0  0  0  0
   -8.4242    3.3259  -10.9863 C   0  0  0  0  0  0  0  0  0  0  0  0
   -8.8703    2.2991   -8.6433 C   0  0  0  0  0  0  0  0  0  0  0  0
   -8.7108    2.8784   -7.2826 N   0  0  0  0  0  0  0  0  0  0  0  0
   -8.4908    4.3286   -7.4518 C   0  0  0  0  0  0  0  0  0  0  0  0
   -8.5646    4.5513  -15.9638 C   0  0  0  0  0  0  0  0  0  0  0  0
   -8.6859    4.3555  -17.3331 C   0  0  0  0  0  0  0  0  0  0  0  0
  -10.2282    4.0057  -17.9864 Cl  0  0  0  0  0  0  0  0  0  0  0  0
   -7.6209    4.5808  -18.2061 C   0  0  0  0  0  0  0  0  0  0  0  0
   -6.4032    5.0603  -17.6907 C   0  0  0  0  0  0  0  0  0  0  0  0
  1  2  1  0
  2  3  1  0
  3  4  1  0
  4  5  2  0
  5  6  1  0
  6  7  1  0
  7  8  2  0
  8  9  1  0
  9 10  2  0
  9 11  1  0
 11 12  1  0
 12 13  2  0
 13 14  1  0
 14 15  1  0
 14 16  2  0
 16 17  1  0
 17 18  2  0
 17 19  1  0
 19 20  1  0
 20 21  1  0
  8 22  1  0
 22 23  2  0
 23 24  1  0
 23 25  1  0
 25 26  2  0
 26  4  1  0
 26  7  1  0
 18 12  1  0
 21 16  1  0
M  END
>  <smiles>  (1994) 
C29575-P233

>  <fragmenstein_outcome>  (1994) 
acceptable

>  <inchikey>  (1994) 
NDCXIEOWMIGQTP-UHFFFAOYSA-N

>  <fragmenstein_mode>  (1994) 
expansion

>  <HIPPO Pose ID>  (1994) 
24874

>  <Energy>  (1994) 
39.55461

>  <fragmenstein_error>  (1994) 


>  <tags>  (1994) 
{'openbind_xx01zvns2b_c1_fragmenstein', 'fragmenstein_placed'}

>  <ref_pdb>  (1994) 
175

>  <scratch_subdir>  (1994) 
/opt/xchem-fragalysis-2/maxwin/BulkDock/SCRATCH/511028/C29575-P233

>  <alias>  (1994) 
CNCc1c[nH]c2c(C(=O)Nc3cc(C)c4c(c3)CNC4)cc(Cl)cc12

>  <HIPPO Compound ID>  (1994) 
36776

>  <fragmenstein_runtime>  (1994) 
5.588002

$$$$
O=C(Nc1ccc2c(c1)CNC2)c1cc(Cl)cc2c1[nH]c1cocc12
     RDKit          3D

 25 29  0  0  0  0  0  0  0  0999 V2000
   -6.5154    6.2039  -13.8410 O   0  0  0  0  0  0  0  0  0  0  0  0
   -7.0779    5.1963  -14.0420 C   0  0  0  0  0  0  0  0  0  0  0  0
   -7.7250    4.1869  -13.0490 N   0  0  0  0  0  0  0  0  0  0  0  0
   -7.8899    4.2566  -11.6590 C   0  0  0  0  0  0  0  0  0  0  0  0
   -7.5391    5.4137  -10.9474 C   0  0  0  0  0  0  0  0  0  0  0  0
   -7.7108    5.4896   -9.5590 C   0  0  0  0  0  0  0  0  0  0  0  0
   -8.2014    4.3828   -8.8922 C   0  0  0  0  0  0  0  0  0  0  0  0
   -8.5448    3.2297   -9.5832 C   0  0  0  0  0  0  0  0  0  0  0  0
   -8.4195    3.1580  -10.9681 C   0  0  0  0  0  0  0  0  0  0  0  0
   -9.0331    2.2072   -8.6105 C   0  0  0  0  0  0  0  0  0  0  0  0
   -8.8096    2.7741   -7.2507 N   0  0  0  0  0  0  0  0  0  0  0  0
   -8.4620    4.1979   -7.4376 C   0  0  0  0  0  0  0  0  0  0  0  0
   -7.3043    4.8272  -15.4739 C   0  0  0  0  0  0  0  0  0  0  0  0
   -8.5778    4.4268  -15.9121 C   0  0  0  0  0  0  0  0  0  0  0  0
   -8.8498    4.2630  -17.2683 C   0  0  0  0  0  0  0  0  0  0  0  0
  -10.4529    4.0277  -17.8178 Cl  0  0  0  0  0  0  0  0  0  0  0  0
   -7.8792    4.4404  -18.2418 C   0  0  0  0  0  0  0  0  0  0  0  0
   -6.6153    4.8881  -17.8570 C   0  0  0  0  0  0  0  0  0  0  0  0
   -6.3172    5.0852  -16.4571 C   0  0  0  0  0  0  0  0  0  0  0  0
   -5.0019    5.5875  -16.3147 N   0  0  0  0  0  0  0  0  0  0  0  0
   -4.6222    5.6998  -17.6127 C   0  0  0  0  0  0  0  0  0  0  0  0
   -3.5407    6.1592  -18.2739 C   0  0  0  0  0  0  0  0  0  0  0  0
   -3.6940    6.0987  -19.6531 O   0  0  0  0  0  0  0  0  0  0  0  0
   -4.9653    5.5456  -19.8298 C   0  0  0  0  0  0  0  0  0  0  0  0
   -5.4929    5.3133  -18.6018 C   0  0  0  0  0  0  0  0  0  0  0  0
  1  2  2  0
  2  3  1  0
  3  4  1  0
  4  5  2  0
  5  6  1  0
  6  7  2  0
  7  8  1  0
  8  9  2  0
  8 10  1  0
 10 11  1  0
 11 12  1  0
  2 13  1  0
 13 14  2  0
 14 15  1  0
 15 16  1  0
 15 17  2  0
 17 18  1  0
 18 19  2  0
 19 20  1  0
 20 21  1  0
 21 22  2  0
 22 23  1  0
 23 24  1  0
 24 25  2  0
  9  4  1  0
 19 13  1  0
 25 21  1  0
 12  7  1  0
 25 18  1  0
M  END
>  <smiles>  (1995) 
C29581-P233

>  <fragmenstein_outcome>  (1995) 
acceptable

>  <inchikey>  (1995) 
SGGKYZWPONCHQW-UHFFFAOYSA-N

>  <fragmenstein_mode>  (1995) 
expansion

>  <HIPPO Pose ID>  (1995) 
24877

>  <Energy>  (1995) 
87.97109

>  <fragmenstein_error>  (1995) 


>  <tags>  (1995) 
{'openbind_xx01zvns2b_c1_fragmenstein', 'fragmenstein_placed'}

>  <ref_pdb>  (1995) 
175

>  <scratch_subdir>  (1995) 
/opt/xchem-fragalysis-2/maxwin/BulkDock/SCRATCH/511028/C29581-P233

>  <alias>  (1995) 
O=C(Nc1ccc2c(c1)CNC2)c1cc(Cl)cc2c1[nH]c1cocc12

>  <HIPPO Compound ID>  (1995) 
29581

>  <fragmenstein_runtime>  (1995) 
5.21659

$$$$
NNC(=O)c1c[nH]c2c([C@H](N=O)Nc3ccc4c(c3)CNC4)cc(Cl)cc12
     RDKit          3D

 27 30  0  0  0  0  0  0  0  0999 V2000
   -5.2664    6.7961  -21.5420 N   0  0  0  0  0  0  0  0  0  0  0  0
   -5.3265    6.4249  -20.2051 N   0  0  0  0  0  0  0  0  0  0  0  0
   -4.4583    5.4284  -19.3986 C   0  0  0  0  0  0  0  0  0  0  0  0
   -3.5105    4.8235  -19.7137 O   0  0  0  0  0  0  0  0  0  0  0  0
   -4.9388    5.3871  -18.0150 C   0  0  0  0  0  0  0  0  0  0  0  0
   -4.1321    5.6896  -16.9397 C   0  0  0  0  0  0  0  0  0  0  0  0
   -4.8730    5.5886  -15.8007 N   0  0  0  0  0  0  0  0  0  0  0  0
   -6.1607    5.1688  -16.0788 C   0  0  0  0  0  0  0  0  0  0  0  0
   -7.2413    4.8859  -15.1913 C   0  0  0  0  0  0  0  0  0  0  0  0
   -7.2259    5.0954  -13.6612 C   0  0  2  0  0  0  0  0  0  0  0  0
   -5.8585    4.8419  -13.0902 N   0  0  0  0  0  0  0  0  0  0  0  0
   -5.2745    5.8863  -12.7705 O   0  0  0  0  0  0  0  0  0  0  0  0
   -8.2279    4.2638  -12.9801 N   0  0  0  0  0  0  0  0  0  0  0  0
   -8.2896    4.3181  -11.5697 C   0  0  0  0  0  0  0  0  0  0  0  0
   -8.1420    5.5216  -10.8476 C   0  0  0  0  0  0  0  0  0  0  0  0
   -8.2161    5.5556   -9.4505 C   0  0  0  0  0  0  0  0  0  0  0  0
   -8.4831    4.3773   -8.7824 C   0  0  0  0  0  0  0  0  0  0  0  0
   -8.6815    3.1899   -9.4739 C   0  0  0  0  0  0  0  0  0  0  0  0
   -8.6001    3.1479  -10.8573 C   0  0  0  0  0  0  0  0  0  0  0  0
   -8.9494    2.0903   -8.4976 C   0  0  0  0  0  0  0  0  0  0  0  0
   -9.2392    2.7793   -7.2082 N   0  0  0  0  0  0  0  0  0  0  0  0
   -8.6095    4.1141   -7.3213 C   0  0  0  0  0  0  0  0  0  0  0  0
   -8.4320    4.4956  -15.8441 C   0  0  0  0  0  0  0  0  0  0  0  0
   -8.5152    4.3632  -17.2294 C   0  0  0  0  0  0  0  0  0  0  0  0
  -10.0180    3.9756  -17.9523 Cl  0  0  0  0  0  0  0  0  0  0  0  0
   -7.4287    4.6195  -18.0595 C   0  0  0  0  0  0  0  0  0  0  0  0
   -6.2245    5.0442  -17.4771 C   0  0  0  0  0  0  0  0  0  0  0  0
  1  2  1  0
  2  3  1  0
  3  4  2  0
  3  5  1  0
  5  6  2  0
  6  7  1  0
  7  8  1  0
  8  9  2  0
  9 10  1  0
 10 11  1  0
 11 12  2  0
 10 13  1  1
 13 14  1  0
 14 15  2  0
 15 16  1  0
 16 17  2  0
 17 18  1  0
 18 19  2  0
 18 20  1  0
 20 21  1  0
 21 22  1  0
  9 23  1  0
 23 24  2  0
 24 25  1  0
 24 26  1  0
 26 27  2  0
 27  5  1  0
 27  8  1  0
 19 14  1  0
 22 17  1  0
M  END
>  <smiles>  (1996) 
C29583-P233

>  <fragmenstein_outcome>  (1996) 
acceptable

>  <inchikey>  (1996) 
TUYJOPORWXMCDD-UHFFFAOYSA-N

>  <fragmenstein_mode>  (1996) 
expansion

>  <HIPPO Pose ID>  (1996) 
24878

>  <Energy>  (1996) 
123.918398

>  <fragmenstein_error>  (1996) 


>  <tags>  (1996) 
{'openbind_xx01zvns2b_c1_fragmenstein', 'fragmenstein_placed'}

>  <ref_pdb>  (1996) 
175

>  <scratch_subdir>  (1996) 
/opt/xchem-fragalysis-2/maxwin/BulkDock/SCRATCH/511028/C29583-P233

>  <alias>  (1996) 
NNC(=O)c1c[nH]c2c([C@H](N=O)Nc3ccc4c(c3)CNC4)cc(Cl)cc12

>  <HIPPO Compound ID>  (1996) 
29583

>  <fragmenstein_runtime>  (1996) 
5.855165

$$$$
O=C(NC1CNC1)c1c[nH]c2c(C(=O)Nc3ccc4c(c3)CNC4)cc(Cl)cc12
     RDKit          3D

 29 33  0  0  0  0  0  0  0  0999 V2000
   -5.2812    4.5348  -20.2917 O   0  0  0  0  0  0  0  0  0  0  0  0
   -4.6534    5.2459  -19.6163 C   0  0  0  0  0  0  0  0  0  0  0  0
   -3.3801    6.0548  -19.9303 N   0  0  0  0  0  0  0  0  0  0  0  0
   -2.5480    6.0847  -21.1280 C   0  0  0  0  0  0  0  0  0  0  0  0
   -2.9611    7.1299  -22.1877 C   0  0  0  0  0  0  0  0  0  0  0  0
   -1.5244    7.4341  -22.3849 N   0  0  0  0  0  0  0  0  0  0  0  0
   -1.2539    6.9217  -21.0237 C   0  0  0  0  0  0  0  0  0  0  0  0
   -5.0702    5.4421  -18.2106 C   0  0  0  0  0  0  0  0  0  0  0  0
   -4.3307    5.9606  -17.1579 C   0  0  0  0  0  0  0  0  0  0  0  0
   -5.0973    5.9278  -16.0236 N   0  0  0  0  0  0  0  0  0  0  0  0
   -6.3194    5.3616  -16.2909 C   0  0  0  0  0  0  0  0  0  0  0  0
   -7.3958    5.0992  -15.4299 C   0  0  0  0  0  0  0  0  0  0  0  0
   -7.3381    5.5428  -14.0191 C   0  0  0  0  0  0  0  0  0  0  0  0
   -6.8761    6.5944  -13.8029 O   0  0  0  0  0  0  0  0  0  0  0  0
   -7.9738    4.5108  -13.0591 N   0  0  0  0  0  0  0  0  0  0  0  0
   -8.0843    4.5152  -11.6726 C   0  0  0  0  0  0  0  0  0  0  0  0
   -7.8339    5.6924  -10.9507 C   0  0  0  0  0  0  0  0  0  0  0  0
   -7.9383    5.7127   -9.5599 C   0  0  0  0  0  0  0  0  0  0  0  0
   -8.2790    4.5402   -8.9138 C   0  0  0  0  0  0  0  0  0  0  0  0
   -8.5360    3.3749   -9.6239 C   0  0  0  0  0  0  0  0  0  0  0  0
   -8.4541    3.3435  -11.0082 C   0  0  0  0  0  0  0  0  0  0  0  0
   -8.8950    2.2863   -8.6705 C   0  0  0  0  0  0  0  0  0  0  0  0
   -8.7562    2.8571   -7.3022 N   0  0  0  0  0  0  0  0  0  0  0  0
   -8.4498    4.2935   -7.4567 C   0  0  0  0  0  0  0  0  0  0  0  0
   -8.5617    4.5710  -15.9798 C   0  0  0  0  0  0  0  0  0  0  0  0
   -8.6325    4.3347  -17.3456 C   0  0  0  0  0  0  0  0  0  0  0  0
  -10.1458    3.9293  -18.0234 Cl  0  0  0  0  0  0  0  0  0  0  0  0
   -7.5420    4.5490  -18.1908 C   0  0  0  0  0  0  0  0  0  0  0  0
   -6.3504    5.0778  -17.6546 C   0  0  0  0  0  0  0  0  0  0  0  0
  1  2  2  0
  2  3  1  0
  3  4  1  0
  4  5  1  0
  5  6  1  0
  6  7  1  0
  2  8  1  0
  8  9  2  0
  9 10  1  0
 10 11  1  0
 11 12  2  0
 12 13  1  0
 13 14  2  0
 13 15  1  0
 15 16  1  0
 16 17  2  0
 17 18  1  0
 18 19  2  0
 19 20  1  0
 20 21  2  0
 20 22  1  0
 22 23  1  0
 23 24  1  0
 12 25  1  0
 25 26  2  0
 26 27  1  0
 26 28  1  0
 28 29  2  0
  7  4  1  0
 29  8  1  0
 29 11  1  0
 21 16  1  0
 24 19  1  0
M  END
>  <smiles>  (1997) 
C29589-P233

>  <fragmenstein_outcome>  (1997) 
acceptable

>  <inchikey>  (1997) 
SKUAEDCJGHDWQX-UHFFFAOYSA-N

>  <fragmenstein_mode>  (1997) 
expansion

>  <HIPPO Pose ID>  (1997) 
24881

>  <Energy>  (1997) 
72.965458

>  <fragmenstein_error>  (1997) 


>  <tags>  (1997) 
{'openbind_xx01zvns2b_c1_fragmenstein', 'fragmenstein_placed'}

>  <ref_pdb>  (1997) 
175

>  <scratch_subdir>  (1997) 
/opt/xchem-fragalysis-2/maxwin/BulkDock/SCRATCH/511028/C29589-P233

>  <alias>  (1997) 
O=C(NC1CNC1)c1c[nH]c2c(C(=O)Nc3ccc4c(c3)CNC4)cc(Cl)cc12

>  <HIPPO Compound ID>  (1997) 
29589

>  <fragmenstein_runtime>  (1997) 
11.355839

$$$$
O=C(Nc1ccc2c(c1)CNC2)c1cc(F)cc2c(CNO)n(C3CNC3)cc12
     RDKit          3D

 29 33  0  0  0  0  0  0  0  0999 V2000
   -6.8075    6.3793  -13.3857 O   0  0  0  0  0  0  0  0  0  0  0  0
   -7.1433    5.2973  -13.6696 C   0  0  0  0  0  0  0  0  0  0  0  0
   -7.6574    4.1420  -12.7804 N   0  0  0  0  0  0  0  0  0  0  0  0
   -7.9457    4.1082  -11.4164 C   0  0  0  0  0  0  0  0  0  0  0  0
   -7.8283    5.2647  -10.6254 C   0  0  0  0  0  0  0  0  0  0  0  0
   -8.1112    5.2346   -9.2555 C   0  0  0  0  0  0  0  0  0  0  0  0
   -8.5166    4.0366   -8.7016 C   0  0  0  0  0  0  0  0  0  0  0  0
   -8.6261    2.8868   -9.4795 C   0  0  0  0  0  0  0  0  0  0  0  0
   -8.3460    2.9014  -10.8367 C   0  0  0  0  0  0  0  0  0  0  0  0
   -9.0188    1.7476   -8.5970 C   0  0  0  0  0  0  0  0  0  0  0  0
   -9.5455    2.3875   -7.3623 N   0  0  0  0  0  0  0  0  0  0  0  0
   -8.8736    3.7034   -7.2908 C   0  0  0  0  0  0  0  0  0  0  0  0
   -7.1024    4.9086  -15.0919 C   0  0  0  0  0  0  0  0  0  0  0  0
   -8.2046    4.3619  -15.7898 C   0  0  0  0  0  0  0  0  0  0  0  0
   -8.2049    4.1686  -17.2097 C   0  0  0  0  0  0  0  0  0  0  0  0
   -9.3044    3.6568  -17.7744 F   0  0  0  0  0  0  0  0  0  0  0  0
   -7.1519    4.5031  -18.0794 C   0  0  0  0  0  0  0  0  0  0  0  0
   -6.0776    5.0216  -17.3696 C   0  0  0  0  0  0  0  0  0  0  0  0
   -4.8993    5.4959  -17.9100 C   0  0  0  0  0  0  0  0  0  0  0  0
   -4.5052    5.6386  -19.3402 C   0  0  0  0  0  0  0  0  0  0  0  0
   -3.2794    4.9129  -19.6388 N   0  0  0  0  0  0  0  0  0  0  0  0
   -3.1400    4.9184  -21.0899 O   0  0  0  0  0  0  0  0  0  0  0  0
   -4.1315    5.9081  -16.8274 N   0  0  0  0  0  0  0  0  0  0  0  0
   -2.7297    6.3804  -16.9039 C   0  0  0  0  0  0  0  0  0  0  0  0
   -2.5257    7.6481  -17.7601 C   0  0  0  0  0  0  0  0  0  0  0  0
   -1.5529    8.1300  -16.7438 N   0  0  0  0  0  0  0  0  0  0  0  0
   -2.2751    7.2984  -15.7462 C   0  0  0  0  0  0  0  0  0  0  0  0
   -4.8075    5.7061  -15.6427 C   0  0  0  0  0  0  0  0  0  0  0  0
   -6.0449    5.2064  -15.9571 C   0  0  0  0  0  0  0  0  0  0  0  0
  1  2  2  0
  2  3  1  0
  3  4  1  0
  4  5  2  0
  5  6  1  0
  6  7  2  0
  7  8  1  0
  8  9  2  0
  8 10  1  0
 10 11  1  0
 11 12  1  0
  2 13  1  0
 13 14  2  0
 14 15  1  0
 15 16  1  0
 15 17  2  0
 17 18  1  0
 18 19  2  0
 19 20  1  0
 20 21  1  0
 21 22  1  0
 19 23  1  0
 23 24  1  0
 24 25  1  0
 25 26  1  0
 26 27  1  0
 23 28  1  0
 28 29  2  0
  9  4  1  0
 29 13  1  0
 12  7  1  0
 29 18  1  0
 27 24  1  0
M  END
>  <smiles>  (1998) 
C29611-P234

>  <fragmenstein_outcome>  (1998) 
acceptable

>  <inchikey>  (1998) 
MBRISQIELZAWSP-UHFFFAOYSA-N

>  <fragmenstein_mode>  (1998) 
expansion

>  <HIPPO Pose ID>  (1998) 
24892

>  <Energy>  (1998) 
86.442307

>  <fragmenstein_error>  (1998) 


>  <tags>  (1998) 
{'openbind_xx01zvns2b_c1_fragmenstein', 'fragmenstein_placed'}

>  <ref_pdb>  (1998) 
175

>  <scratch_subdir>  (1998) 
/opt/xchem-fragalysis-2/maxwin/BulkDock/SCRATCH/511028/C29611-P234

>  <alias>  (1998) 
O=C(Nc1ccc2c(c1)CNC2)c1cc(F)cc2c(CNO)n(C3CNC3)cc12

>  <HIPPO Compound ID>  (1998) 
40326

>  <fragmenstein_runtime>  (1998) 
5.568218

$$$$
COCC(=O)Nc1cc(CCN2CC(n3cc4c(C(=O)Nc5ccc6c(c5)CNC6)cc(F)cc4n3)C2)cc(NC(C)=O)c1
     RDKit          3D

 44 49  0  0  0  0  0  0  0  0999 V2000
    4.5609   13.2077  -20.2936 C   0  0  0  0  0  0  0  0  0  0  0  0
    4.1751   13.0299  -18.9332 O   0  0  0  0  0  0  0  0  0  0  0  0
    5.2625   12.5782  -18.1254 C   0  0  0  0  0  0  0  0  0  0  0  0
    5.4419   11.0473  -18.1346 C   0  0  0  0  0  0  0  0  0  0  0  0
    6.5153   10.5552  -17.9230 O   0  0  0  0  0  0  0  0  0  0  0  0
    4.1628   10.4376  -18.4148 N   0  0  0  0  0  0  0  0  0  0  0  0
    3.7723    9.1003  -18.4335 C   0  0  0  0  0  0  0  0  0  0  0  0
    2.4466    8.8045  -18.7522 C   0  0  0  0  0  0  0  0  0  0  0  0
    1.9987    7.4748  -18.7924 C   0  0  0  0  0  0  0  0  0  0  0  0
    0.5531    7.1849  -19.1283 C   0  0  0  0  0  0  0  0  0  0  0  0
   -0.3465    7.2139  -17.8811 C   0  0  0  0  0  0  0  0  0  0  0  0
   -1.7631    7.3832  -18.2537 N   0  0  0  0  0  0  0  0  0  0  0  0
   -2.6294    7.3803  -17.0521 C   0  0  0  0  0  0  0  0  0  0  0  0
   -2.8933    5.8783  -17.2474 C   0  0  0  0  0  0  0  0  0  0  0  0
   -4.3205    5.5319  -17.1404 N   0  0  0  0  0  0  0  0  0  0  0  0
   -4.9921    5.5501  -15.9490 C   0  0  0  0  0  0  0  0  0  0  0  0
   -6.2425    5.0747  -16.2396 C   0  0  0  0  0  0  0  0  0  0  0  0
   -7.3046    4.8747  -15.3537 C   0  0  0  0  0  0  0  0  0  0  0  0
   -7.3149    5.3045  -13.9435 C   0  0  0  0  0  0  0  0  0  0  0  0
   -7.0043    6.4447  -13.7424 O   0  0  0  0  0  0  0  0  0  0  0  0
   -7.7870    4.2869  -13.0458 N   0  0  0  0  0  0  0  0  0  0  0  0
   -7.9398    4.2885  -11.6583 C   0  0  0  0  0  0  0  0  0  0  0  0
   -7.6934    5.4378  -10.8889 C   0  0  0  0  0  0  0  0  0  0  0  0
   -7.8635    5.4227   -9.4997 C   0  0  0  0  0  0  0  0  0  0  0  0
   -8.2714    4.2448   -8.9010 C   0  0  0  0  0  0  0  0  0  0  0  0
   -8.5064    3.1035   -9.6557 C   0  0  0  0  0  0  0  0  0  0  0  0
   -8.3524    3.1069  -11.0337 C   0  0  0  0  0  0  0  0  0  0  0  0
   -8.8830    1.9781   -8.7529 C   0  0  0  0  0  0  0  0  0  0  0  0
   -9.0559    2.5750   -7.4019 N   0  0  0  0  0  0  0  0  0  0  0  0
   -8.5123    3.9480   -7.4612 C   0  0  0  0  0  0  0  0  0  0  0  0
   -8.4314    4.3250  -15.9954 C   0  0  0  0  0  0  0  0  0  0  0  0
   -8.4635    4.0346  -17.3869 C   0  0  0  0  0  0  0  0  0  0  0  0
   -9.5981    3.5157  -17.8765 F   0  0  0  0  0  0  0  0  0  0  0  0
   -7.3976    4.2593  -18.2760 C   0  0  0  0  0  0  0  0  0  0  0  0
   -6.2525    4.7813  -17.6553 C   0  0  0  0  0  0  0  0  0  0  0  0
   -5.0516    5.0815  -18.1785 N   0  0  0  0  0  0  0  0  0  0  0  0
   -2.3727    6.0958  -18.6794 C   0  0  0  0  0  0  0  0  0  0  0  0
    2.8978    6.4389  -18.4977 C   0  0  0  0  0  0  0  0  0  0  0  0
    4.2259    6.7319  -18.1785 C   0  0  0  0  0  0  0  0  0  0  0  0
    5.1667    5.7447  -17.8840 N   0  0  0  0  0  0  0  0  0  0  0  0
    5.0484    4.3077  -17.8398 C   0  0  0  0  0  0  0  0  0  0  0  0
    6.4105    3.7101  -17.5531 C   0  0  0  0  0  0  0  0  0  0  0  0
    4.0933    3.5967  -17.9677 O   0  0  0  0  0  0  0  0  0  0  0  0
    4.6582    8.0630  -18.1477 C   0  0  0  0  0  0  0  0  0  0  0  0
  1  2  1  0
  2  3  1  0
  3  4  1  0
  4  5  2  0
  4  6  1  0
  6  7  1  0
  7  8  2  0
  8  9  1  0
  9 10  1  0
 10 11  1  0
 11 12  1  0
 12 13  1  0
 13 14  1  0
 14 15  1  0
 15 16  1  0
 16 17  2  0
 17 18  1  0
 18 19  1  0
 19 20  2  0
 19 21  1  0
 21 22  1  0
 22 23  2  0
 23 24  1  0
 24 25  2  0
 25 26  1  0
 26 27  2  0
 26 28  1  0
 28 29  1  0
 29 30  1  0
 18 31  2  0
 31 32  1  0
 32 33  1  0
 32 34  2  0
 34 35  1  0
 35 36  2  0
 14 37  1  0
  9 38  2  0
 38 39  1  0
 39 40  1  0
 40 41  1  0
 41 42  1  0
 41 43  2  0
 39 44  2  0
 44  7  1  0
 37 12  1  0
 36 15  1  0
 35 17  1  0
 27 22  1  0
 30 25  1  0
M  END
>  <smiles>  (1999) 
C29632-P234

>  <fragmenstein_outcome>  (1999) 
acceptable

>  <inchikey>  (1999) 
LVIFJCFWEQQISB-UHFFFAOYSA-N

>  <fragmenstein_mode>  (1999) 
expansion

>  <HIPPO Pose ID>  (1999) 
24905

>  <Energy>  (1999) 
72.719299

>  <fragmenstein_error>  (1999) 


>  <tags>  (1999) 
{'openbind_xx01zvns2b_c1_fragmenstein', 'fragmenstein_placed'}

>  <ref_pdb>  (1999) 
175

>  <scratch_subdir>  (1999) 
/opt/xchem-fragalysis-2/maxwin/BulkDock/SCRATCH/511028/C29632-P234

>  <alias>  (1999) 
COCC(=O)Nc1cc(CCN2CC(n3cc4c(C(=O)Nc5ccc6c(c5)CNC6)cc(F)cc4n3)C2)cc(NC(C)=O)c1

>  <HIPPO Compound ID>  (1999) 
29632

>  <fragmenstein_runtime>  (1999) 
20.841104

$$$$
CCC1=Nc2c3c(c(F)cc(C(=O)Nc4cc5c(cc4C)CNC5)c3cn2C2CNC2)N1
     RDKit          3D

 32 37  0  0  0  0  0  0  0  0999 V2000
   -4.6259    5.8894  -21.7979 C   0  0  0  0  0  0  0  0  0  0  0  0
   -5.0622    6.7408  -20.6443 C   0  0  0  0  0  0  0  0  0  0  0  0
   -5.2454    5.9514  -19.3623 C   0  0  0  0  0  0  0  0  0  0  0  0
   -4.2489    6.0791  -18.5152 N   0  0  0  0  0  0  0  0  0  0  0  0
   -4.5635    5.6126  -17.2825 C   0  0  0  0  0  0  0  0  0  0  0  0
   -5.7500    5.0618  -16.8870 C   0  0  0  0  0  0  0  0  0  0  0  0
   -6.7354    4.8915  -17.8303 C   0  0  0  0  0  0  0  0  0  0  0  0
   -7.9072    4.4616  -17.1684 C   0  0  0  0  0  0  0  0  0  0  0  0
   -9.0133    4.1951  -17.8858 F   0  0  0  0  0  0  0  0  0  0  0  0
   -8.0544    4.4172  -15.7162 C   0  0  0  0  0  0  0  0  0  0  0  0
   -7.0076    4.7497  -14.8065 C   0  0  0  0  0  0  0  0  0  0  0  0
   -7.1861    5.1960  -13.4162 C   0  0  0  0  0  0  0  0  0  0  0  0
   -6.7422    6.2415  -13.1482 O   0  0  0  0  0  0  0  0  0  0  0  0
   -7.9381    4.1767  -12.5413 N   0  0  0  0  0  0  0  0  0  0  0  0
   -8.2141    4.1839  -11.1641 C   0  0  0  0  0  0  0  0  0  0  0  0
   -8.5456    2.9327  -10.6189 C   0  0  0  0  0  0  0  0  0  0  0  0
   -8.7559    2.8212   -9.2550 C   0  0  0  0  0  0  0  0  0  0  0  0
   -8.6422    3.9151   -8.4178 C   0  0  0  0  0  0  0  0  0  0  0  0
   -8.3319    5.1586   -8.9240 C   0  0  0  0  0  0  0  0  0  0  0  0
   -8.1515    5.3188  -10.3144 C   0  0  0  0  0  0  0  0  0  0  0  0
   -7.9430    6.7338  -10.7718 C   0  0  0  0  0  0  0  0  0  0  0  0
   -8.9084    3.5058   -7.0114 C   0  0  0  0  0  0  0  0  0  0  0  0
   -9.3649    2.1024   -7.0737 N   0  0  0  0  0  0  0  0  0  0  0  0
   -9.0413    1.6095   -8.4394 C   0  0  0  0  0  0  0  0  0  0  0  0
   -5.8249    5.0096  -15.4958 C   0  0  0  0  0  0  0  0  0  0  0  0
   -4.5870    5.3916  -15.0279 C   0  0  0  0  0  0  0  0  0  0  0  0
   -3.8329    5.7723  -16.1270 N   0  0  0  0  0  0  0  0  0  0  0  0
   -2.4523    6.2818  -16.0665 C   0  0  0  0  0  0  0  0  0  0  0  0
   -2.2186    7.5923  -16.8514 C   0  0  0  0  0  0  0  0  0  0  0  0
   -1.3523    8.0423  -15.7305 N   0  0  0  0  0  0  0  0  0  0  0  0
   -2.1415    7.1624  -14.8346 C   0  0  0  0  0  0  0  0  0  0  0  0
   -6.4520    5.2536  -19.1358 N   0  0  0  0  0  0  0  0  0  0  0  0
  1  2  1  0
  2  3  1  0
  3  4  2  0
  4  5  1  0
  5  6  2  0
  6  7  1  0
  7  8  2  0
  8  9  1  0
  8 10  1  0
 10 11  2  0
 11 12  1  0
 12 13  2  0
 12 14  1  0
 14 15  1  0
 15 16  2  0
 16 17  1  0
 17 18  2  0
 18 19  1  0
 19 20  2  0
 20 21  1  0
 18 22  1  0
 22 23  1  0
 23 24  1  0
 11 25  1  0
 25 26  2  0
 26 27  1  0
 27 28  1  0
 28 29  1  0
 29 30  1  0
 30 31  1  0
  7 32  1  0
 32  3  1  0
 27  5  1  0
 31 28  1  0
 25  6  1  0
 20 15  1  0
 24 17  1  0
M  END
>  <smiles>  (2000) 
C29650-P234

>  <fragmenstein_outcome>  (2000) 
acceptable

>  <inchikey>  (2000) 
CQMGVAZLPYOEBE-UHFFFAOYSA-N

>  <fragmenstein_mode>  (2000) 
expansion

>  <HIPPO Pose ID>  (2000) 
24918

>  <Energy>  (2000) 
106.688166

>  <fragmenstein_error>  (2000) 


>  <tags>  (2000) 
{'openbind_xx01zvns2b_c1_fragmenstein', 'fragmenstein_placed'}

>  <ref_pdb>  (2000) 
175

>  <scratch_subdir>  (2000) 
/opt/xchem-fragalysis-2/maxwin/BulkDock/SCRATCH/511028/C29650-P234

>  <alias>  (2000) 
CCC1=Nc2c3c(c(F)cc(C(=O)Nc4cc5c(cc4C)CNC5)c3cn2C2CNC2)N1

>  <HIPPO Compound ID>  (2000) 
29650

>  <fragmenstein_runtime>  (2000) 
7.260032

$$$$
Nc1c2cc(F)cc(C(=O)Nc3ccc4c(c3)CNC4)c2cn1C1CNC1
     RDKit          3D

 27 31  0  0  0  0  0  0  0  0999 V2000
   -4.5819    5.4932  -19.2092 N   0  0  0  0  0  0  0  0  0  0  0  0
   -5.0003    5.3900  -17.9227 C   0  0  0  0  0  0  0  0  0  0  0  0
   -6.1976    4.9499  -17.4014 C   0  0  0  0  0  0  0  0  0  0  0  0
   -7.2770    4.4372  -18.1164 C   0  0  0  0  0  0  0  0  0  0  0  0
   -8.3508    4.1358  -17.2541 C   0  0  0  0  0  0  0  0  0  0  0  0
   -9.4753    3.6520  -17.8061 F   0  0  0  0  0  0  0  0  0  0  0  0
   -8.3528    4.3506  -15.8372 C   0  0  0  0  0  0  0  0  0  0  0  0
   -7.2535    4.8986  -15.1355 C   0  0  0  0  0  0  0  0  0  0  0  0
   -7.3185    5.3159  -13.7228 C   0  0  0  0  0  0  0  0  0  0  0  0
   -7.0130    6.4117  -13.4576 O   0  0  0  0  0  0  0  0  0  0  0  0
   -7.8684    4.1838  -12.8249 N   0  0  0  0  0  0  0  0  0  0  0  0
   -8.0611    4.1350  -11.4440 C   0  0  0  0  0  0  0  0  0  0  0  0
   -7.9031    5.2868  -10.6533 C   0  0  0  0  0  0  0  0  0  0  0  0
   -8.1274    5.2504   -9.2728 C   0  0  0  0  0  0  0  0  0  0  0  0
   -8.5161    4.0514   -8.7087 C   0  0  0  0  0  0  0  0  0  0  0  0
   -8.6534    2.9033   -9.4849 C   0  0  0  0  0  0  0  0  0  0  0  0
   -8.4299    2.9239  -10.8521 C   0  0  0  0  0  0  0  0  0  0  0  0
   -9.0188    1.7629   -8.5921 C   0  0  0  0  0  0  0  0  0  0  0  0
   -9.5145    2.4038   -7.3450 N   0  0  0  0  0  0  0  0  0  0  0  0
   -8.8385    3.7185   -7.2896 C   0  0  0  0  0  0  0  0  0  0  0  0
   -6.1796    5.1640  -15.9893 C   0  0  0  0  0  0  0  0  0  0  0  0
   -4.9573    5.6991  -15.6683 C   0  0  0  0  0  0  0  0  0  0  0  0
   -4.2328    5.7945  -16.8392 N   0  0  0  0  0  0  0  0  0  0  0  0
   -2.9449    6.5145  -16.9356 C   0  0  0  0  0  0  0  0  0  0  0  0
   -2.0137    6.3313  -15.7176 C   0  0  0  0  0  0  0  0  0  0  0  0
   -0.8700    6.2337  -16.6575 N   0  0  0  0  0  0  0  0  0  0  0  0
   -1.8309    5.7642  -17.6922 C   0  0  0  0  0  0  0  0  0  0  0  0
  1  2  1  0
  2  3  2  0
  3  4  1  0
  4  5  2  0
  5  6  1  0
  5  7  1  0
  7  8  2  0
  8  9  1  0
  9 10  2  0
  9 11  1  0
 11 12  1  0
 12 13  2  0
 13 14  1  0
 14 15  2  0
 15 16  1  0
 16 17  2  0
 16 18  1  0
 18 19  1  0
 19 20  1  0
  8 21  1  0
 21 22  2  0
 22 23  1  0
 23 24  1  0
 24 25  1  0
 25 26  1  0
 26 27  1  0
 23  2  1  0
 27 24  1  0
 21  3  1  0
 17 12  1  0
 20 15  1  0
M  END
>  <smiles>  (2001) 
C29601-P234

>  <fragmenstein_outcome>  (2001) 
acceptable

>  <inchikey>  (2001) 
JWPAGKFSYQMJRS-UHFFFAOYSA-N

>  <fragmenstein_mode>  (2001) 
expansion

>  <HIPPO Pose ID>  (2001) 
24919

>  <Energy>  (2001) 
79.619365

>  <fragmenstein_error>  (2001) 


>  <tags>  (2001) 
{'openbind_xx01zvns2b_c1_fragmenstein', 'fragmenstein_placed'}

>  <ref_pdb>  (2001) 
175

>  <scratch_subdir>  (2001) 
/opt/xchem-fragalysis-2/maxwin/BulkDock/SCRATCH/511028/C29601-P234

>  <alias>  (2001) 
Nc1c2cc(F)cc(C(=O)Nc3ccc4c(c3)CNC4)c2cn1C1CNC1

>  <HIPPO Compound ID>  (2001) 
23984

>  <fragmenstein_runtime>  (2001) 
4.467258

$$$$
Cc1c2cc(F)cc(C(=O)C(=O)c3ccc4c(c3)CNC4)c2cn1C1CNC1
     RDKit          3D

 28 32  0  0  0  0  0  0  0  0999 V2000
   -4.4763    5.3830  -19.2638 C   0  0  0  0  0  0  0  0  0  0  0  0
   -4.9165    5.2770  -17.8471 C   0  0  0  0  0  0  0  0  0  0  0  0
   -6.1210    4.8964  -17.2935 C   0  0  0  0  0  0  0  0  0  0  0  0
   -7.2588    4.4983  -17.9885 C   0  0  0  0  0  0  0  0  0  0  0  0
   -8.2907    4.1527  -17.0947 C   0  0  0  0  0  0  0  0  0  0  0  0
   -9.4514    3.7222  -17.6150 F   0  0  0  0  0  0  0  0  0  0  0  0
   -8.1972    4.2214  -15.6670 C   0  0  0  0  0  0  0  0  0  0  0  0
   -7.0311    4.6297  -14.9712 C   0  0  0  0  0  0  0  0  0  0  0  0
   -6.9176    4.7126  -13.5019 C   0  0  0  0  0  0  0  0  0  0  0  0
   -5.8420    4.7489  -12.9182 O   0  0  0  0  0  0  0  0  0  0  0  0
   -8.1609    4.8899  -12.6722 C   0  0  0  0  0  0  0  0  0  0  0  0
   -9.1051    5.5186  -13.1372 O   0  0  0  0  0  0  0  0  0  0  0  0
   -8.1675    4.5196  -11.2513 C   0  0  0  0  0  0  0  0  0  0  0  0
   -8.0226    5.5761  -10.3304 C   0  0  0  0  0  0  0  0  0  0  0  0
   -8.1684    5.3465   -8.9648 C   0  0  0  0  0  0  0  0  0  0  0  0
   -8.4778    4.0628   -8.5545 C   0  0  0  0  0  0  0  0  0  0  0  0
   -8.5980    3.0139   -9.4651 C   0  0  0  0  0  0  0  0  0  0  0  0
   -8.4418    3.2164  -10.8295 C   0  0  0  0  0  0  0  0  0  0  0  0
   -8.9035    1.7577   -8.7190 C   0  0  0  0  0  0  0  0  0  0  0  0
   -9.2096    2.1711   -7.3236 N   0  0  0  0  0  0  0  0  0  0  0  0
   -8.7591    3.5683   -7.1767 C   0  0  0  0  0  0  0  0  0  0  0  0
   -6.0056    4.9543  -15.8682 C   0  0  0  0  0  0  0  0  0  0  0  0
   -4.7329    5.3834  -15.5833 C   0  0  0  0  0  0  0  0  0  0  0  0
   -4.0731    5.5451  -16.7781 N   0  0  0  0  0  0  0  0  0  0  0  0
   -2.6391    5.9045  -16.9544 C   0  0  0  0  0  0  0  0  0  0  0  0
   -2.4402    7.4149  -17.1980 C   0  0  0  0  0  0  0  0  0  0  0  0
   -2.1109    7.5777  -15.7677 N   0  0  0  0  0  0  0  0  0  0  0  0
   -1.7944    6.1373  -15.6891 C   0  0  0  0  0  0  0  0  0  0  0  0
  1  2  1  0
  2  3  2  0
  3  4  1  0
  4  5  2  0
  5  6  1  0
  5  7  1  0
  7  8  2  0
  8  9  1  0
  9 10  2  0
  9 11  1  0
 11 12  2  0
 11 13  1  0
 13 14  2  0
 14 15  1  0
 15 16  2  0
 16 17  1  0
 17 18  2  0
 17 19  1  0
 19 20  1  0
 20 21  1  0
  8 22  1  0
 22 23  2  0
 23 24  1  0
 24 25  1  0
 25 26  1  0
 26 27  1  0
 27 28  1  0
 24  2  1  0
 28 25  1  0
 22  3  1  0
 18 13  1  0
 21 16  1  0
M  END
>  <smiles>  (2002) 
C29655-P234

>  <fragmenstein_outcome>  (2002) 
acceptable

>  <inchikey>  (2002) 
HCXPKFMJIYJPES-UHFFFAOYSA-N

>  <fragmenstein_mode>  (2002) 
expansion

>  <HIPPO Pose ID>  (2002) 
24923

>  <Energy>  (2002) 
122.347353

>  <fragmenstein_error>  (2002) 


>  <tags>  (2002) 
{'openbind_xx01zvns2b_c1_fragmenstein', 'fragmenstein_placed'}

>  <ref_pdb>  (2002) 
175

>  <scratch_subdir>  (2002) 
/opt/xchem-fragalysis-2/maxwin/BulkDock/SCRATCH/511028/C29655-P234

>  <alias>  (2002) 
Cc1c2cc(F)cc(C(=O)C(=O)c3ccc4c(c3)CNC4)c2cn1C1CNC1

>  <HIPPO Compound ID>  (2002) 
29655

>  <fragmenstein_runtime>  (2002) 
5.238662

$$$$
C[C@H]1[C@@H](n2cc3c(C(=O)Nc4ccc5c(c4)CNC5)cc(F)cc3c2N)CN1C
     RDKit          3D

 29 33  0  0  0  0  0  0  0  0999 V2000
   -3.5556    8.5387  -17.6577 C   0  0  0  0  0  0  0  0  0  0  0  0
   -2.4480    7.5265  -17.4192 C   0  0  1  0  0  0  0  0  0  0  0  0
   -2.7356    6.1395  -16.7856 C   0  0  1  0  0  0  0  0  0  0  0  0
   -4.1569    5.6943  -16.8144 N   0  0  0  0  0  0  0  0  0  0  0  0
   -4.8916    5.6284  -15.6443 C   0  0  0  0  0  0  0  0  0  0  0  0
   -6.1360    5.1494  -15.9684 C   0  0  0  0  0  0  0  0  0  0  0  0
   -7.2193    4.9115  -15.1183 C   0  0  0  0  0  0  0  0  0  0  0  0
   -7.2749    5.3216  -13.7031 C   0  0  0  0  0  0  0  0  0  0  0  0
   -6.9335    6.4045  -13.4289 O   0  0  0  0  0  0  0  0  0  0  0  0
   -7.8615    4.2002  -12.8143 N   0  0  0  0  0  0  0  0  0  0  0  0
   -8.0552    4.1462  -11.4338 C   0  0  0  0  0  0  0  0  0  0  0  0
   -7.8874    5.2928  -10.6379 C   0  0  0  0  0  0  0  0  0  0  0  0
   -8.1142    5.2522   -9.2580 C   0  0  0  0  0  0  0  0  0  0  0  0
   -8.5116    4.0535   -8.6993 C   0  0  0  0  0  0  0  0  0  0  0  0
   -8.6561    2.9096   -9.4804 C   0  0  0  0  0  0  0  0  0  0  0  0
   -8.4350    2.9354  -10.8479 C   0  0  0  0  0  0  0  0  0  0  0  0
   -9.0248    1.7672   -8.5917 C   0  0  0  0  0  0  0  0  0  0  0  0
   -9.5184    2.4048   -7.3422 N   0  0  0  0  0  0  0  0  0  0  0  0
   -8.8379    3.7172   -7.2819 C   0  0  0  0  0  0  0  0  0  0  0  0
   -8.3233    4.3763  -15.8232 C   0  0  0  0  0  0  0  0  0  0  0  0
   -8.3122    4.1443  -17.2379 C   0  0  0  0  0  0  0  0  0  0  0  0
   -9.4293    3.6533  -17.7943 F   0  0  0  0  0  0  0  0  0  0  0  0
   -7.2308    4.4196  -18.0956 C   0  0  0  0  0  0  0  0  0  0  0  0
   -6.1502    4.9173  -17.3761 C   0  0  0  0  0  0  0  0  0  0  0  0
   -4.9372    5.3066  -17.8957 C   0  0  0  0  0  0  0  0  0  0  0  0
   -4.5121    5.3471  -19.1754 N   0  0  0  0  0  0  0  0  0  0  0  0
   -1.8030    5.5826  -17.8777 C   0  0  0  0  0  0  0  0  0  0  0  0
   -2.0404    6.8240  -18.6669 N   0  0  0  0  0  0  0  0  0  0  0  0
   -0.7761    7.3412  -19.1796 C   0  0  0  0  0  0  0  0  0  0  0  0
  2  1  1  6
  2  3  1  0
  3  4  1  6
  4  5  1  0
  5  6  2  0
  6  7  1  0
  7  8  1  0
  8  9  2  0
  8 10  1  0
 10 11  1  0
 11 12  2  0
 12 13  1  0
 13 14  2  0
 14 15  1  0
 15 16  2  0
 15 17  1  0
 17 18  1  0
 18 19  1  0
  7 20  2  0
 20 21  1  0
 21 22  1  0
 21 23  2  0
 23 24  1  0
 24 25  2  0
 25 26  1  0
  3 27  1  0
 27 28  1  0
 28 29  1  0
 28  2  1  0
 25  4  1  0
 24  6  1  0
 16 11  1  0
 19 14  1  0
M  END
>  <smiles>  (2003) 
C29671-P234

>  <fragmenstein_outcome>  (2003) 
acceptable

>  <inchikey>  (2003) 
MUDVAFWKIMEKHC-UHFFFAOYSA-N

>  <fragmenstein_mode>  (2003) 
expansion

>  <HIPPO Pose ID>  (2003) 
24932

>  <Energy>  (2003) 
85.733233

>  <fragmenstein_error>  (2003) 


>  <tags>  (2003) 
{'openbind_xx01zvns2b_c1_fragmenstein', 'fragmenstein_placed'}

>  <ref_pdb>  (2003) 
175

>  <scratch_subdir>  (2003) 
/opt/xchem-fragalysis-2/maxwin/BulkDock/SCRATCH/511028/C29671-P234

>  <alias>  (2003) 
C[C@H]1[C@@H](n2cc3c(C(=O)Nc4ccc5c(c4)CNC5)cc(F)cc3c2N)CN1C

>  <HIPPO Compound ID>  (2003) 
43156

>  <fragmenstein_runtime>  (2003) 
5.24106

$$$$
O=C(NC1CCOCC1)[C@@](O)(Nc1ccc2c(c1)CNC2)c1cc(F)cc2nn(C3CNC3)cc12
     RDKit          3D

 35 40  0  0  0  0  0  0  0  0999 V2000
   -6.2800    7.4743  -13.8597 O   0  0  0  0  0  0  0  0  0  0  0  0
   -7.2145    6.7861  -13.6834 C   0  0  0  0  0  0  0  0  0  0  0  0
   -8.6555    7.1414  -13.1805 N   0  0  0  0  0  0  0  0  0  0  0  0
   -9.2078    8.4074  -12.7002 C   0  0  0  0  0  0  0  0  0  0  0  0
  -10.5689    8.7128  -13.3417 C   0  0  0  0  0  0  0  0  0  0  0  0
  -10.6980   10.1729  -13.7504 C   0  0  0  0  0  0  0  0  0  0  0  0
  -10.2627   11.0122  -12.6880 O   0  0  0  0  0  0  0  0  0  0  0  0
   -8.8785   10.8847  -12.3731 C   0  0  0  0  0  0  0  0  0  0  0  0
   -8.2384    9.5799  -12.8326 C   0  0  0  0  0  0  0  0  0  0  0  0
   -7.1543    5.1758  -13.9058 C   0  0  1  0  0  0  0  0  0  0  0  0
   -5.8968    4.6236  -13.5831 O   0  0  0  0  0  0  0  0  0  0  0  0
   -8.1595    4.4455  -13.0959 N   0  0  0  0  0  0  0  0  0  0  0  0
   -8.0831    4.3467  -11.6887 C   0  0  0  0  0  0  0  0  0  0  0  0
   -7.7151    5.4194  -10.8488 C   0  0  0  0  0  0  0  0  0  0  0  0
   -7.8413    5.3573   -9.4568 C   0  0  0  0  0  0  0  0  0  0  0  0
   -8.3119    4.1918   -8.8982 C   0  0  0  0  0  0  0  0  0  0  0  0
   -8.6143    3.0935   -9.6907 C   0  0  0  0  0  0  0  0  0  0  0  0
   -8.5382    3.1646  -11.0746 C   0  0  0  0  0  0  0  0  0  0  0  0
   -8.9789    1.9514   -8.7963 C   0  0  0  0  0  0  0  0  0  0  0  0
   -9.3206    2.5845   -7.4968 N   0  0  0  0  0  0  0  0  0  0  0  0
   -8.5756    3.8593   -7.4688 C   0  0  0  0  0  0  0  0  0  0  0  0
   -7.3655    4.8900  -15.3954 C   0  0  0  0  0  0  0  0  0  0  0  0
   -8.5761    4.3744  -15.9510 C   0  0  0  0  0  0  0  0  0  0  0  0
   -8.8016    4.0936  -17.3365 C   0  0  0  0  0  0  0  0  0  0  0  0
  -10.0100    3.6383  -17.6991 F   0  0  0  0  0  0  0  0  0  0  0  0
   -7.8566    4.2910  -18.3439 C   0  0  0  0  0  0  0  0  0  0  0  0
   -6.6550    4.8122  -17.8597 C   0  0  0  0  0  0  0  0  0  0  0  0
   -5.5591    5.1615  -18.5469 N   0  0  0  0  0  0  0  0  0  0  0  0
   -4.6788    5.5641  -17.6203 N   0  0  0  0  0  0  0  0  0  0  0  0
   -3.3626    6.1100  -17.9708 C   0  0  0  0  0  0  0  0  0  0  0  0
   -2.2007    5.1899  -17.5704 C   0  0  0  0  0  0  0  0  0  0  0  0
   -1.5266    5.5971  -18.8310 N   0  0  0  0  0  0  0  0  0  0  0  0
   -2.8866    5.7923  -19.4066 C   0  0  0  0  0  0  0  0  0  0  0  0
   -5.1766    5.5759  -16.3467 C   0  0  0  0  0  0  0  0  0  0  0  0
   -6.4513    5.0828  -16.4489 C   0  0  0  0  0  0  0  0  0  0  0  0
  1  2  2  0
  2  3  1  0
  3  4  1  0
  4  5  1  0
  5  6  1  0
  6  7  1  0
  7  8  1  0
  8  9  1  0
  2 10  1  0
 10 11  1  1
 10 12  1  0
 12 13  1  0
 13 14  2  0
 14 15  1  0
 15 16  2  0
 16 17  1  0
 17 18  2  0
 17 19  1  0
 19 20  1  0
 20 21  1  0
 10 22  1  0
 22 23  2  0
 23 24  1  0
 24 25  1  0
 24 26  2  0
 26 27  1  0
 27 28  2  0
 28 29  1  0
 29 30  1  0
 30 31  1  0
 31 32  1  0
 32 33  1  0
 29 34  1  0
 34 35  2  0
  9  4  1  0
 18 13  1  0
 35 22  1  0
 21 16  1  0
 35 27  1  0
 33 30  1  0
M  END
>  <smiles>  (2004) 
C29694-P234

>  <fragmenstein_outcome>  (2004) 
acceptable

>  <inchikey>  (2004) 
WATHLFABWOUFIW-UHFFFAOYSA-N

>  <fragmenstein_mode>  (2004) 
expansion

>  <HIPPO Pose ID>  (2004) 
24941

>  <Energy>  (2004) 
94.939017

>  <fragmenstein_error>  (2004) 


>  <tags>  (2004) 
{'openbind_xx01zvns2b_c1_fragmenstein', 'fragmenstein_placed'}

>  <ref_pdb>  (2004) 
175

>  <scratch_subdir>  (2004) 
/opt/xchem-fragalysis-2/maxwin/BulkDock/SCRATCH/511028/C29694-P234

>  <alias>  (2004) 
O=C(NC1CCOCC1)[C@@](O)(Nc1ccc2c(c1)CNC2)c1cc(F)cc2nn(C3CNC3)cc12

>  <HIPPO Compound ID>  (2004) 
22061

>  <fragmenstein_runtime>  (2004) 
9.567169

$$$$
CCc1cc(C(=O)Nc2ccc3c(c2)CNC3)c2cn(C3CNC3)c(C)c2c1
     RDKit          3D

 28 32  0  0  0  0  0  0  0  0999 V2000
   -9.2500    4.4396  -18.9552 C   0  0  0  0  0  0  0  0  0  0  0  0
   -9.1646    3.8437  -17.5657 C   0  0  0  0  0  0  0  0  0  0  0  0
   -7.9018    4.2903  -16.8577 C   0  0  0  0  0  0  0  0  0  0  0  0
   -7.9730    4.5724  -15.4454 C   0  0  0  0  0  0  0  0  0  0  0  0
   -6.8956    5.1166  -14.7037 C   0  0  0  0  0  0  0  0  0  0  0  0
   -7.0057    5.5116  -13.2907 C   0  0  0  0  0  0  0  0  0  0  0  0
   -6.7172    6.6007  -12.9835 O   0  0  0  0  0  0  0  0  0  0  0  0
   -7.5135    4.3294  -12.4328 N   0  0  0  0  0  0  0  0  0  0  0  0
   -7.8504    4.2705  -11.0828 C   0  0  0  0  0  0  0  0  0  0  0  0
   -7.6768    5.3866  -10.2472 C   0  0  0  0  0  0  0  0  0  0  0  0
   -7.9735    5.3155   -8.8831 C   0  0  0  0  0  0  0  0  0  0  0  0
   -8.4393    4.1165   -8.3792 C   0  0  0  0  0  0  0  0  0  0  0  0
   -8.6153    3.0117   -9.2053 C   0  0  0  0  0  0  0  0  0  0  0  0
   -8.3336    3.0682  -10.5610 C   0  0  0  0  0  0  0  0  0  0  0  0
   -9.0678    1.8528   -8.3840 C   0  0  0  0  0  0  0  0  0  0  0  0
   -9.4079    2.4097   -7.0537 N   0  0  0  0  0  0  0  0  0  0  0  0
   -8.8020    3.7520   -6.9792 C   0  0  0  0  0  0  0  0  0  0  0  0
   -5.7740    5.3447  -15.5024 C   0  0  0  0  0  0  0  0  0  0  0  0
   -4.5670    5.8807  -15.1444 C   0  0  0  0  0  0  0  0  0  0  0  0
   -3.7811    5.9542  -16.2801 N   0  0  0  0  0  0  0  0  0  0  0  0
   -2.4575    6.6183  -16.1959 C   0  0  0  0  0  0  0  0  0  0  0  0
   -1.3058    6.0798  -17.0493 C   0  0  0  0  0  0  0  0  0  0  0  0
   -0.9702    7.4778  -17.4095 N   0  0  0  0  0  0  0  0  0  0  0  0
   -2.3353    7.9014  -17.0297 C   0  0  0  0  0  0  0  0  0  0  0  0
   -4.4662    5.4448  -17.3778 C   0  0  0  0  0  0  0  0  0  0  0  0
   -3.9556    5.3655  -18.7756 C   0  0  0  0  0  0  0  0  0  0  0  0
   -5.6943    5.0437  -16.8849 C   0  0  0  0  0  0  0  0  0  0  0  0
   -6.7194    4.4780  -17.6279 C   0  0  0  0  0  0  0  0  0  0  0  0
  1  2  1  0
  2  3  1  0
  3  4  1  0
  4  5  2  0
  5  6  1  0
  6  7  2  0
  6  8  1  0
  8  9  1  0
  9 10  2  0
 10 11  1  0
 11 12  2  0
 12 13  1  0
 13 14  2  0
 13 15  1  0
 15 16  1  0
 16 17  1  0
  5 18  1  0
 18 19  2  0
 19 20  1  0
 20 21  1  0
 21 22  1  0
 22 23  1  0
 23 24  1  0
 20 25  1  0
 25 26  1  0
 25 27  2  0
 27 28  1  0
 28  3  2  0
 14  9  1  0
 27 18  1  0
 17 12  1  0
 24 21  1  0
M  END
>  <smiles>  (2005) 
C29706-P234

>  <fragmenstein_outcome>  (2005) 
acceptable

>  <inchikey>  (2005) 
LYOAVFVTIGBFPK-UHFFFAOYSA-N

>  <fragmenstein_mode>  (2005) 
expansion

>  <HIPPO Pose ID>  (2005) 
24946

>  <Energy>  (2005) 
91.031592

>  <fragmenstein_error>  (2005) 


>  <tags>  (2005) 
{'openbind_xx01zvns2b_c1_fragmenstein', 'fragmenstein_placed'}

>  <ref_pdb>  (2005) 
175

>  <scratch_subdir>  (2005) 
/opt/xchem-fragalysis-2/maxwin/BulkDock/SCRATCH/511028/C29706-P234

>  <alias>  (2005) 
CCc1cc(C(=O)Nc2ccc3c(c2)CNC3)c2cn(C3CNC3)c(C)c2c1

>  <HIPPO Compound ID>  (2005) 
29706

>  <fragmenstein_runtime>  (2005) 
5.093797

$$$$
Cc1c2cc(F)cc(C(=O)Nc3ccc4c(c3)CNC4)c2cn1C1CNC1
     RDKit          3D

 27 31  0  0  0  0  0  0  0  0999 V2000
   -4.4327    5.4463  -19.2471 C   0  0  0  0  0  0  0  0  0  0  0  0
   -4.8920    5.3983  -17.8318 C   0  0  0  0  0  0  0  0  0  0  0  0
   -6.1045    4.9696  -17.3224 C   0  0  0  0  0  0  0  0  0  0  0  0
   -7.1677    4.4376  -18.0472 C   0  0  0  0  0  0  0  0  0  0  0  0
   -8.2489    4.1271  -17.1971 C   0  0  0  0  0  0  0  0  0  0  0  0
   -9.3393    3.5813  -17.7551 F   0  0  0  0  0  0  0  0  0  0  0  0
   -8.2831    4.3647  -15.7860 C   0  0  0  0  0  0  0  0  0  0  0  0
   -7.2017    4.9326  -15.0755 C   0  0  0  0  0  0  0  0  0  0  0  0
   -7.2794    5.3431  -13.6616 C   0  0  0  0  0  0  0  0  0  0  0  0
   -6.9677    6.4343  -13.3846 O   0  0  0  0  0  0  0  0  0  0  0  0
   -7.8453    4.2075  -12.7779 N   0  0  0  0  0  0  0  0  0  0  0  0
   -8.0495    4.1485  -11.3997 C   0  0  0  0  0  0  0  0  0  0  0  0
   -7.8964    5.2942  -10.5994 C   0  0  0  0  0  0  0  0  0  0  0  0
   -8.1312    5.2477   -9.2213 C   0  0  0  0  0  0  0  0  0  0  0  0
   -8.5250    4.0447   -8.6695 C   0  0  0  0  0  0  0  0  0  0  0  0
   -8.6577    2.9027   -9.4557 C   0  0  0  0  0  0  0  0  0  0  0  0
   -8.4248    2.9332  -10.8209 C   0  0  0  0  0  0  0  0  0  0  0  0
   -9.0304    1.7560   -8.5747 C   0  0  0  0  0  0  0  0  0  0  0  0
   -9.5359    2.3873   -7.3265 N   0  0  0  0  0  0  0  0  0  0  0  0
   -8.8596    3.7013   -7.2558 C   0  0  0  0  0  0  0  0  0  0  0  0
   -6.1177    5.1972  -15.9159 C   0  0  0  0  0  0  0  0  0  0  0  0
   -4.8931    5.7055  -15.5760 C   0  0  0  0  0  0  0  0  0  0  0  0
   -4.1424    5.8015  -16.7319 N   0  0  0  0  0  0  0  0  0  0  0  0
   -2.7626    6.3520  -16.6529 C   0  0  0  0  0  0  0  0  0  0  0  0
   -1.7052    5.8107  -17.6136 C   0  0  0  0  0  0  0  0  0  0  0  0
   -1.7459    7.0720  -18.3711 N   0  0  0  0  0  0  0  0  0  0  0  0
   -2.5830    7.7067  -17.3445 C   0  0  0  0  0  0  0  0  0  0  0  0
  1  2  1  0
  2  3  2  0
  3  4  1  0
  4  5  2  0
  5  6  1  0
  5  7  1  0
  7  8  2  0
  8  9  1  0
  9 10  2  0
  9 11  1  0
 11 12  1  0
 12 13  2  0
 13 14  1  0
 14 15  2  0
 15 16  1  0
 16 17  2  0
 16 18  1  0
 18 19  1  0
 19 20  1  0
  8 21  1  0
 21 22  2  0
 22 23  1  0
 23 24  1  0
 24 25  1  0
 25 26  1  0
 26 27  1  0
 23  2  1  0
 27 24  1  0
 21  3  1  0
 17 12  1  0
 20 15  1  0
M  END
>  <smiles>  (2006) 
C29705-P234

>  <fragmenstein_outcome>  (2006) 
acceptable

>  <inchikey>  (2006) 
RMLYGLPOHVONMN-UHFFFAOYSA-N

>  <fragmenstein_mode>  (2006) 
expansion

>  <HIPPO Pose ID>  (2006) 
24951

>  <Energy>  (2006) 
69.837081

>  <fragmenstein_error>  (2006) 


>  <tags>  (2006) 
{'openbind_xx01zvns2b_c1_fragmenstein', 'fragmenstein_placed'}

>  <ref_pdb>  (2006) 
175

>  <scratch_subdir>  (2006) 
/opt/xchem-fragalysis-2/maxwin/BulkDock/SCRATCH/511028/C29705-P234

>  <alias>  (2006) 
Cc1c2cc(F)cc(C(=O)Nc3ccc4c(c3)CNC4)c2cn1C1CNC1

>  <HIPPO Compound ID>  (2006) 
29705

>  <fragmenstein_runtime>  (2006) 
4.272921

$$$$
COc1c2cc(F)cc(C(=O)Nc3ccc4c(c3)CNC4)c2c(C)n1C1CNC1
     RDKit          3D

 29 33  0  0  0  0  0  0  0  0999 V2000
   -4.0155    4.7901  -19.6810 C   0  0  0  0  0  0  0  0  0  0  0  0
   -4.3278    5.9302  -18.8926 O   0  0  0  0  0  0  0  0  0  0  0  0
   -4.8372    5.6674  -17.6843 C   0  0  0  0  0  0  0  0  0  0  0  0
   -6.0213    5.1088  -17.2574 C   0  0  0  0  0  0  0  0  0  0  0  0
   -7.0438    4.5891  -18.0529 C   0  0  0  0  0  0  0  0  0  0  0  0
   -8.1562    4.2029  -17.2725 C   0  0  0  0  0  0  0  0  0  0  0  0
   -9.2245    3.6886  -17.9030 F   0  0  0  0  0  0  0  0  0  0  0  0
   -8.2604    4.3705  -15.8589 C   0  0  0  0  0  0  0  0  0  0  0  0
   -7.2284    4.9330  -15.0770 C   0  0  0  0  0  0  0  0  0  0  0  0
   -7.4643    5.3700  -13.6907 C   0  0  0  0  0  0  0  0  0  0  0  0
   -7.3183    6.5007  -13.4402 O   0  0  0  0  0  0  0  0  0  0  0  0
   -7.8770    4.1902  -12.7858 N   0  0  0  0  0  0  0  0  0  0  0  0
   -8.0972    4.1379  -11.4099 C   0  0  0  0  0  0  0  0  0  0  0  0
   -7.9892    5.2966  -10.6214 C   0  0  0  0  0  0  0  0  0  0  0  0
   -8.1877    5.2478   -9.2382 C   0  0  0  0  0  0  0  0  0  0  0  0
   -8.5099    4.0314   -8.6680 C   0  0  0  0  0  0  0  0  0  0  0  0
   -8.6253    2.8858   -9.4454 C   0  0  0  0  0  0  0  0  0  0  0  0
   -8.4143    2.9152  -10.8159 C   0  0  0  0  0  0  0  0  0  0  0  0
   -8.9471    1.7245   -8.5686 C   0  0  0  0  0  0  0  0  0  0  0  0
   -9.2312    2.2903   -7.2226 N   0  0  0  0  0  0  0  0  0  0  0  0
   -8.7695    3.6938   -7.2403 C   0  0  0  0  0  0  0  0  0  0  0  0
   -6.0912    5.2636  -15.8357 C   0  0  0  0  0  0  0  0  0  0  0  0
   -4.8764    5.7669  -15.3951 C   0  0  0  0  0  0  0  0  0  0  0  0
   -4.3914    5.9472  -13.9965 C   0  0  0  0  0  0  0  0  0  0  0  0
   -4.1680    6.1051  -16.5457 N   0  0  0  0  0  0  0  0  0  0  0  0
   -2.8947    6.8671  -16.6863 C   0  0  0  0  0  0  0  0  0  0  0  0
   -2.6154    8.0044  -15.6992 C   0  0  0  0  0  0  0  0  0  0  0  0
   -1.2260    7.5052  -15.5786 N   0  0  0  0  0  0  0  0  0  0  0  0
   -1.6536    6.1878  -16.1026 C   0  0  0  0  0  0  0  0  0  0  0  0
  1  2  1  0
  2  3  1  0
  3  4  2  0
  4  5  1  0
  5  6  2  0
  6  7  1  0
  6  8  1  0
  8  9  2  0
  9 10  1  0
 10 11  2  0
 10 12  1  0
 12 13  1  0
 13 14  2  0
 14 15  1  0
 15 16  2  0
 16 17  1  0
 17 18  2  0
 17 19  1  0
 19 20  1  0
 20 21  1  0
  9 22  1  0
 22 23  2  0
 23 24  1  0
 23 25  1  0
 25 26  1  0
 26 27  1  0
 27 28  1  0
 28 29  1  0
 25  3  1  0
 29 26  1  0
 22  4  1  0
 18 13  1  0
 21 16  1  0
M  END
>  <smiles>  (2007) 
C29729-P234

>  <fragmenstein_outcome>  (2007) 
acceptable

>  <inchikey>  (2007) 
KIEFZXQWKLOLHB-UHFFFAOYSA-N

>  <fragmenstein_mode>  (2007) 
expansion

>  <HIPPO Pose ID>  (2007) 
24953

>  <Energy>  (2007) 
90.82877

>  <fragmenstein_error>  (2007) 


>  <tags>  (2007) 
{'openbind_xx01zvns2b_c1_fragmenstein', 'fragmenstein_placed'}

>  <ref_pdb>  (2007) 
175

>  <scratch_subdir>  (2007) 
/opt/xchem-fragalysis-2/maxwin/BulkDock/SCRATCH/511028/C29729-P234

>  <alias>  (2007) 
COc1c2cc(F)cc(C(=O)Nc3ccc4c(c3)CNC4)c2c(C)n1C1CNC1

>  <HIPPO Compound ID>  (2007) 
29729

>  <fragmenstein_runtime>  (2007) 
5.585577

$$$$
N#Cc1c2cc(F)cc(C(=O)Nc3ccc4c(c3)CNC4)c2cn1C1CNC1
     RDKit          3D

 28 32  0  0  0  0  0  0  0  0999 V2000
   -3.7857    5.1512  -20.0411 N   0  0  0  0  0  0  0  0  0  0  0  0
   -4.3264    5.1649  -19.0157 C   0  0  0  0  0  0  0  0  0  0  0  0
   -4.8936    5.2292  -17.7142 C   0  0  0  0  0  0  0  0  0  0  0  0
   -6.1607    4.8925  -17.2851 C   0  0  0  0  0  0  0  0  0  0  0  0
   -7.2273    4.4020  -18.0430 C   0  0  0  0  0  0  0  0  0  0  0  0
   -8.3513    4.1402  -17.2220 C   0  0  0  0  0  0  0  0  0  0  0  0
   -9.4673    3.6652  -17.8014 F   0  0  0  0  0  0  0  0  0  0  0  0
   -8.4101    4.3733  -15.8103 C   0  0  0  0  0  0  0  0  0  0  0  0
   -7.3325    4.9018  -15.0703 C   0  0  0  0  0  0  0  0  0  0  0  0
   -7.4300    5.3246  -13.6645 C   0  0  0  0  0  0  0  0  0  0  0  0
   -7.1298    6.4216  -13.4001 O   0  0  0  0  0  0  0  0  0  0  0  0
   -7.9600    4.1874  -12.7647 N   0  0  0  0  0  0  0  0  0  0  0  0
   -8.1363    4.1335  -11.3828 C   0  0  0  0  0  0  0  0  0  0  0  0
   -7.9650    5.2818  -10.5895 C   0  0  0  0  0  0  0  0  0  0  0  0
   -8.1695    5.2395   -9.2066 C   0  0  0  0  0  0  0  0  0  0  0  0
   -8.5524    4.0382   -8.6438 C   0  0  0  0  0  0  0  0  0  0  0  0
   -8.6989    2.8933   -9.4235 C   0  0  0  0  0  0  0  0  0  0  0  0
   -8.4942    2.9191  -10.7929 C   0  0  0  0  0  0  0  0  0  0  0  0
   -9.0523    1.7493   -8.5313 C   0  0  0  0  0  0  0  0  0  0  0  0
   -9.5409    2.3858   -7.2797 N   0  0  0  0  0  0  0  0  0  0  0  0
   -8.8644    3.7001   -7.2236 C   0  0  0  0  0  0  0  0  0  0  0  0
   -6.2145    5.1262  -15.8744 C   0  0  0  0  0  0  0  0  0  0  0  0
   -4.9792    5.5648  -15.4697 C   0  0  0  0  0  0  0  0  0  0  0  0
   -4.1989    5.6566  -16.5964 N   0  0  0  0  0  0  0  0  0  0  0  0
   -2.7686    6.0393  -16.5920 C   0  0  0  0  0  0  0  0  0  0  0  0
   -2.4485    7.2776  -17.4637 C   0  0  0  0  0  0  0  0  0  0  0  0
   -1.5105    7.7117  -16.4020 N   0  0  0  0  0  0  0  0  0  0  0  0
   -2.3299    6.9585  -15.4258 C   0  0  0  0  0  0  0  0  0  0  0  0
  1  2  3  0
  2  3  1  0
  3  4  2  0
  4  5  1  0
  5  6  2  0
  6  7  1  0
  6  8  1  0
  8  9  2  0
  9 10  1  0
 10 11  2  0
 10 12  1  0
 12 13  1  0
 13 14  2  0
 14 15  1  0
 15 16  2  0
 16 17  1  0
 17 18  2  0
 17 19  1  0
 19 20  1  0
 20 21  1  0
  9 22  1  0
 22 23  2  0
 23 24  1  0
 24 25  1  0
 25 26  1  0
 26 27  1  0
 27 28  1  0
 24  3  1  0
 28 25  1  0
 22  4  1  0
 18 13  1  0
 21 16  1  0
M  END
>  <smiles>  (2008) 
C29733-P234

>  <fragmenstein_outcome>  (2008) 
acceptable

>  <inchikey>  (2008) 
DTNNCARKINZRKI-UHFFFAOYSA-N

>  <fragmenstein_mode>  (2008) 
expansion

>  <HIPPO Pose ID>  (2008) 
24955

>  <Energy>  (2008) 
61.273409

>  <fragmenstein_error>  (2008) 


>  <tags>  (2008) 
{'openbind_xx01zvns2b_c1_fragmenstein', 'fragmenstein_placed'}

>  <ref_pdb>  (2008) 
175

>  <scratch_subdir>  (2008) 
/opt/xchem-fragalysis-2/maxwin/BulkDock/SCRATCH/511028/C29733-P234

>  <alias>  (2008) 
N#Cc1c2cc(F)cc(C(=O)Nc3ccc4c(c3)CNC4)c2cn1C1CNC1

>  <HIPPO Compound ID>  (2008) 
29733

>  <fragmenstein_runtime>  (2008) 
6.392044

$$$$
NCc1c2cc(F)cc(C(=O)Nc3ccc4c(c3)CNC4)c2cn1C1CNC1
     RDKit          3D

 28 32  0  0  0  0  0  0  0  0999 V2000
   -3.4296    4.3951  -19.3835 N   0  0  0  0  0  0  0  0  0  0  0  0
   -4.4394    5.4233  -19.2154 C   0  0  0  0  0  0  0  0  0  0  0  0
   -4.9769    5.4010  -17.8275 C   0  0  0  0  0  0  0  0  0  0  0  0
   -6.1966    4.9576  -17.3448 C   0  0  0  0  0  0  0  0  0  0  0  0
   -7.2500    4.4153  -18.0833 C   0  0  0  0  0  0  0  0  0  0  0  0
   -8.3572    4.1236  -17.2543 C   0  0  0  0  0  0  0  0  0  0  0  0
   -9.4690    3.6350  -17.8333 F   0  0  0  0  0  0  0  0  0  0  0  0
   -8.4041    4.3554  -15.8416 C   0  0  0  0  0  0  0  0  0  0  0  0
   -7.3330    4.9232  -15.1159 C   0  0  0  0  0  0  0  0  0  0  0  0
   -7.4324    5.3490  -13.7085 C   0  0  0  0  0  0  0  0  0  0  0  0
   -7.1574    6.4533  -13.4454 O   0  0  0  0  0  0  0  0  0  0  0  0
   -7.9386    4.2007  -12.8068 N   0  0  0  0  0  0  0  0  0  0  0  0
   -8.1158    4.1451  -11.4244 C   0  0  0  0  0  0  0  0  0  0  0  0
   -7.9575    5.2953  -10.6311 C   0  0  0  0  0  0  0  0  0  0  0  0
   -8.1639    5.2519   -9.2484 C   0  0  0  0  0  0  0  0  0  0  0  0
   -8.5383    4.0480   -8.6852 C   0  0  0  0  0  0  0  0  0  0  0  0
   -8.6747    2.9015   -9.4642 C   0  0  0  0  0  0  0  0  0  0  0  0
   -8.4647    2.9281  -10.8333 C   0  0  0  0  0  0  0  0  0  0  0  0
   -9.0275    1.7565   -8.5724 C   0  0  0  0  0  0  0  0  0  0  0  0
   -9.5213    2.3919   -7.3216 N   0  0  0  0  0  0  0  0  0  0  0  0
   -8.8498    3.7088   -7.2653 C   0  0  0  0  0  0  0  0  0  0  0  0
   -6.2383    5.1958  -15.9390 C   0  0  0  0  0  0  0  0  0  0  0  0
   -5.0398    5.7522  -15.5773 C   0  0  0  0  0  0  0  0  0  0  0  0
   -4.2916    5.8964  -16.7242 N   0  0  0  0  0  0  0  0  0  0  0  0
   -2.9857    6.5956  -16.7904 C   0  0  0  0  0  0  0  0  0  0  0  0
   -2.9849    7.9915  -16.1332 C   0  0  0  0  0  0  0  0  0  0  0  0
   -1.6467    7.6725  -15.5817 N   0  0  0  0  0  0  0  0  0  0  0  0
   -1.9768    6.2282  -15.6868 C   0  0  0  0  0  0  0  0  0  0  0  0
  1  2  1  0
  2  3  1  0
  3  4  2  0
  4  5  1  0
  5  6  2  0
  6  7  1  0
  6  8  1  0
  8  9  2  0
  9 10  1  0
 10 11  2  0
 10 12  1  0
 12 13  1  0
 13 14  2  0
 14 15  1  0
 15 16  2  0
 16 17  1  0
 17 18  2  0
 17 19  1  0
 19 20  1  0
 20 21  1  0
  9 22  1  0
 22 23  2  0
 23 24  1  0
 24 25  1  0
 25 26  1  0
 26 27  1  0
 27 28  1  0
 24  3  1  0
 28 25  1  0
 22  4  1  0
 18 13  1  0
 21 16  1  0
M  END
>  <smiles>  (2009) 
C29599-P234

>  <fragmenstein_outcome>  (2009) 
acceptable

>  <inchikey>  (2009) 
JTHFBQUUGGKNOX-UHFFFAOYSA-N

>  <fragmenstein_mode>  (2009) 
expansion

>  <HIPPO Pose ID>  (2009) 
24957

>  <Energy>  (2009) 
45.255696

>  <fragmenstein_error>  (2009) 


>  <tags>  (2009) 
{'openbind_xx01zvns2b_c1_fragmenstein', 'fragmenstein_placed'}

>  <ref_pdb>  (2009) 
175

>  <scratch_subdir>  (2009) 
/opt/xchem-fragalysis-2/maxwin/BulkDock/SCRATCH/511028/C29599-P234

>  <alias>  (2009) 
NCc1c2cc(F)cc(C(=O)Nc3ccc4c(c3)CNC4)c2cn1C1CNC1

>  <HIPPO Compound ID>  (2009) 
20341

>  <fragmenstein_runtime>  (2009) 
6.645327

$$$$
Cc1ccc(F)cc1C(=O)Nc1ccc2c(c1)CN(C)[C@@H]2C
     RDKit          3D

 22 24  0  0  0  0  0  0  0  0999 V2000
   -4.6549    5.5649  -15.2787 C   0  0  0  0  0  0  0  0  0  0  0  0
   -5.9150    5.1180  -15.9612 C   0  0  0  0  0  0  0  0  0  0  0  0
   -5.8971    4.8832  -17.3448 C   0  0  0  0  0  0  0  0  0  0  0  0
   -7.0478    4.4551  -18.0001 C   0  0  0  0  0  0  0  0  0  0  0  0
   -8.2098    4.2451  -17.2723 C   0  0  0  0  0  0  0  0  0  0  0  0
   -9.3061    3.8404  -17.9158 F   0  0  0  0  0  0  0  0  0  0  0  0
   -8.2703    4.4963  -15.9079 C   0  0  0  0  0  0  0  0  0  0  0  0
   -7.1254    4.9580  -15.2556 C   0  0  0  0  0  0  0  0  0  0  0  0
   -7.2379    5.4158  -13.8442 C   0  0  0  0  0  0  0  0  0  0  0  0
   -6.9631    6.5257  -13.6053 O   0  0  0  0  0  0  0  0  0  0  0  0
   -7.7578    4.2908  -12.9198 N   0  0  0  0  0  0  0  0  0  0  0  0
   -7.9513    4.2700  -11.5389 C   0  0  0  0  0  0  0  0  0  0  0  0
   -7.6601    5.3957  -10.7474 C   0  0  0  0  0  0  0  0  0  0  0  0
   -7.8337    5.3737   -9.3571 C   0  0  0  0  0  0  0  0  0  0  0  0
   -8.3140    4.2168   -8.7785 C   0  0  0  0  0  0  0  0  0  0  0  0
   -8.6177    3.1022   -9.5714 C   0  0  0  0  0  0  0  0  0  0  0  0
   -8.4345    3.1036  -10.9443 C   0  0  0  0  0  0  0  0  0  0  0  0
   -9.1345    2.0146   -8.6830 C   0  0  0  0  0  0  0  0  0  0  0  0
   -9.5798    2.7650   -7.4824 N   0  0  0  0  0  0  0  0  0  0  0  0
   -9.7041    1.8893   -6.3372 C   0  0  0  0  0  0  0  0  0  0  0  0
   -8.5863    3.8534   -7.3407 C   0  0  2  0  0  0  0  0  0  0  0  0
   -9.0395    4.9896   -6.4350 C   0  0  0  0  0  0  0  0  0  0  0  0
  1  2  1  0
  2  3  2  0
  3  4  1  0
  4  5  2  0
  5  6  1  0
  5  7  1  0
  7  8  2  0
  8  9  1  0
  9 10  2  0
  9 11  1  0
 11 12  1  0
 12 13  2  0
 13 14  1  0
 14 15  2  0
 15 16  1  0
 16 17  2  0
 16 18  1  0
 18 19  1  0
 19 20  1  0
 19 21  1  0
 21 22  1  1
  8  2  1  0
 17 12  1  0
 21 15  1  0
M  END
>  <smiles>  (2010) 
C29755-P234

>  <fragmenstein_outcome>  (2010) 
acceptable

>  <inchikey>  (2010) 
VGOZPBAGOORSDS-UHFFFAOYSA-N

>  <fragmenstein_mode>  (2010) 
expansion

>  <HIPPO Pose ID>  (2010) 
24964

>  <Energy>  (2010) 
59.277833

>  <fragmenstein_error>  (2010) 


>  <tags>  (2010) 
{'openbind_xx01zvns2b_c1_fragmenstein', 'fragmenstein_placed'}

>  <ref_pdb>  (2010) 
175

>  <scratch_subdir>  (2010) 
/opt/xchem-fragalysis-2/maxwin/BulkDock/SCRATCH/511028/C29755-P234

>  <alias>  (2010) 
Cc1ccc(F)cc1C(=O)Nc1ccc2c(c1)CN(C)[C@@H]2C

>  <HIPPO Compound ID>  (2010) 
37050

>  <fragmenstein_runtime>  (2010) 
3.220983

$$$$
Cc1ccc(F)cc1C(=O)Nc1cc(C#N)c2c(c1)CNC2
     RDKit          3D

 22 24  0  0  0  0  0  0  0  0999 V2000
   -4.6938    5.6067  -15.1552 C   0  0  0  0  0  0  0  0  0  0  0  0
   -5.9177    5.1329  -15.8838 C   0  0  0  0  0  0  0  0  0  0  0  0
   -5.8469    4.9308  -17.2710 C   0  0  0  0  0  0  0  0  0  0  0  0
   -6.9592    4.4783  -17.9724 C   0  0  0  0  0  0  0  0  0  0  0  0
   -8.1350    4.2087  -17.2879 C   0  0  0  0  0  0  0  0  0  0  0  0
   -9.1822    3.7556  -17.9800 F   0  0  0  0  0  0  0  0  0  0  0  0
   -8.2506    4.4298  -15.9199 C   0  0  0  0  0  0  0  0  0  0  0  0
   -7.1443    4.9176  -15.2197 C   0  0  0  0  0  0  0  0  0  0  0  0
   -7.3161    5.3485  -13.8034 C   0  0  0  0  0  0  0  0  0  0  0  0
   -7.0681    6.4589  -13.5390 O   0  0  0  0  0  0  0  0  0  0  0  0
   -7.8241    4.1941  -12.9080 N   0  0  0  0  0  0  0  0  0  0  0  0
   -8.0353    4.1417  -11.5275 C   0  0  0  0  0  0  0  0  0  0  0  0
   -7.8880    5.2935  -10.7341 C   0  0  0  0  0  0  0  0  0  0  0  0
   -8.1096    5.2502   -9.3498 C   0  0  0  0  0  0  0  0  0  0  0  0
   -7.9402    6.4218   -8.5458 C   0  0  0  0  0  0  0  0  0  0  0  0
   -7.8017    7.3575   -7.8721 N   0  0  0  0  0  0  0  0  0  0  0  0
   -8.4977    4.0473   -8.7861 C   0  0  0  0  0  0  0  0  0  0  0  0
   -8.6269    2.9007   -9.5673 C   0  0  0  0  0  0  0  0  0  0  0  0
   -8.3962    2.9273  -10.9350 C   0  0  0  0  0  0  0  0  0  0  0  0
   -8.9893    1.7536   -8.6798 C   0  0  0  0  0  0  0  0  0  0  0  0
   -9.4808    2.3858   -7.4298 N   0  0  0  0  0  0  0  0  0  0  0  0
   -8.8212    3.7058   -7.3671 C   0  0  0  0  0  0  0  0  0  0  0  0
  1  2  1  0
  2  3  2  0
  3  4  1  0
  4  5  2  0
  5  6  1  0
  5  7  1  0
  7  8  2  0
  8  9  1  0
  9 10  2  0
  9 11  1  0
 11 12  1  0
 12 13  2  0
 13 14  1  0
 14 15  1  0
 15 16  3  0
 14 17  2  0
 17 18  1  0
 18 19  2  0
 18 20  1  0
 20 21  1  0
 21 22  1  0
  8  2  1  0
 19 12  1  0
 22 17  1  0
M  END
>  <smiles>  (2011) 
C29761-P234

>  <fragmenstein_outcome>  (2011) 
acceptable

>  <inchikey>  (2011) 
VSYUTJTYWHYVHT-UHFFFAOYSA-N

>  <fragmenstein_mode>  (2011) 
expansion

>  <HIPPO Pose ID>  (2011) 
24965

>  <Energy>  (2011) 
48.348302

>  <fragmenstein_error>  (2011) 


>  <tags>  (2011) 
{'openbind_xx01zvns2b_c1_fragmenstein', 'fragmenstein_placed'}

>  <ref_pdb>  (2011) 
175

>  <scratch_subdir>  (2011) 
/opt/xchem-fragalysis-2/maxwin/BulkDock/SCRATCH/511028/C29761-P234

>  <alias>  (2011) 
Cc1ccc(F)cc1C(=O)Nc1cc(C#N)c2c(c1)CNC2

>  <HIPPO Compound ID>  (2011) 
35164

>  <fragmenstein_runtime>  (2011) 
4.162921

$$$$
Cc1ccc(F)cc1C(=O)Nc1ccc2c(c1)CN(F)C2
     RDKit          3D

 21 23  0  0  0  0  0  0  0  0999 V2000
   -4.8931    5.5514  -15.4612 C   0  0  0  0  0  0  0  0  0  0  0  0
   -6.2027    5.0580  -16.0069 C   0  0  0  0  0  0  0  0  0  0  0  0
   -6.3194    4.8103  -17.3851 C   0  0  0  0  0  0  0  0  0  0  0  0
   -7.5106    4.3222  -17.9214 C   0  0  0  0  0  0  0  0  0  0  0  0
   -8.5848    4.0698  -17.0813 C   0  0  0  0  0  0  0  0  0  0  0  0
   -9.7221    3.5861  -17.5942 F   0  0  0  0  0  0  0  0  0  0  0  0
   -8.5079    4.3343  -15.7200 C   0  0  0  0  0  0  0  0  0  0  0  0
   -7.3249    4.8484  -15.1811 C   0  0  0  0  0  0  0  0  0  0  0  0
   -7.3142    5.2731  -13.7500 C   0  0  0  0  0  0  0  0  0  0  0  0
   -6.9486    6.3536  -13.4973 O   0  0  0  0  0  0  0  0  0  0  0  0
   -7.8039    4.1367  -12.8203 N   0  0  0  0  0  0  0  0  0  0  0  0
   -8.0280    4.1257  -11.4431 C   0  0  0  0  0  0  0  0  0  0  0  0
   -7.8500    5.2856  -10.6675 C   0  0  0  0  0  0  0  0  0  0  0  0
   -8.0806    5.2752   -9.2864 C   0  0  0  0  0  0  0  0  0  0  0  0
   -8.4959    4.0928   -8.7062 C   0  0  0  0  0  0  0  0  0  0  0  0
   -8.6650    2.9371   -9.4704 C   0  0  0  0  0  0  0  0  0  0  0  0
   -8.4365    2.9337  -10.8369 C   0  0  0  0  0  0  0  0  0  0  0  0
   -9.0820    1.8209   -8.5634 C   0  0  0  0  0  0  0  0  0  0  0  0
   -9.5860    2.5153   -7.3591 N   0  0  0  0  0  0  0  0  0  0  0  0
   -9.4667    1.7549   -6.2211 F   0  0  0  0  0  0  0  0  0  0  0  0
   -8.8352    3.7819   -7.2818 C   0  0  0  0  0  0  0  0  0  0  0  0
  1  2  1  0
  2  3  2  0
  3  4  1  0
  4  5  2  0
  5  6  1  0
  5  7  1  0
  7  8  2  0
  8  9  1  0
  9 10  2  0
  9 11  1  0
 11 12  1  0
 12 13  2  0
 13 14  1  0
 14 15  2  0
 15 16  1  0
 16 17  2  0
 16 18  1  0
 18 19  1  0
 19 20  1  0
 19 21  1  0
  8  2  1  0
 17 12  1  0
 21 15  1  0
M  END
>  <smiles>  (2012) 
C29762-P234

>  <fragmenstein_outcome>  (2012) 
acceptable

>  <inchikey>  (2012) 
OQTIYLJSGCKYHC-UHFFFAOYSA-N

>  <fragmenstein_mode>  (2012) 
expansion

>  <HIPPO Pose ID>  (2012) 
24966

>  <Energy>  (2012) 
58.81649

>  <fragmenstein_error>  (2012) 


>  <tags>  (2012) 
{'openbind_xx01zvns2b_c1_fragmenstein', 'fragmenstein_placed'}

>  <ref_pdb>  (2012) 
175

>  <scratch_subdir>  (2012) 
/opt/xchem-fragalysis-2/maxwin/BulkDock/SCRATCH/511028/C29762-P234

>  <alias>  (2012) 
Cc1ccc(F)cc1C(=O)Nc1ccc2c(c1)CN(F)C2

>  <HIPPO Compound ID>  (2012) 
29762

>  <fragmenstein_runtime>  (2012) 
2.149684

$$$$
O=C(Nc1ccc2c(c1)CNC2)c1cc(F)cc2nn([C@H]3CNC34CCNCC4)cc12
     RDKit          3D

 31 36  0  0  0  0  0  0  0  0999 V2000
   -6.9809    6.1704  -13.5657 O   0  0  0  0  0  0  0  0  0  0  0  0
   -7.4231    5.1127  -13.7885 C   0  0  0  0  0  0  0  0  0  0  0  0
   -7.9468    4.0230  -12.8261 N   0  0  0  0  0  0  0  0  0  0  0  0
   -8.1181    4.0429  -11.4435 C   0  0  0  0  0  0  0  0  0  0  0  0
   -7.8978    5.2129  -10.6971 C   0  0  0  0  0  0  0  0  0  0  0  0
   -8.0962    5.2295   -9.3116 C   0  0  0  0  0  0  0  0  0  0  0  0
   -8.5107    4.0627   -8.6985 C   0  0  0  0  0  0  0  0  0  0  0  0
   -8.7019    2.8954   -9.4323 C   0  0  0  0  0  0  0  0  0  0  0  0
   -8.5166    2.8666  -10.8037 C   0  0  0  0  0  0  0  0  0  0  0  0
   -9.0628    1.7908   -8.4949 C   0  0  0  0  0  0  0  0  0  0  0  0
   -9.5044    2.4795   -7.2542 N   0  0  0  0  0  0  0  0  0  0  0  0
   -8.8048    3.7832   -7.2618 C   0  0  0  0  0  0  0  0  0  0  0  0
   -7.5239    4.6813  -15.1950 C   0  0  0  0  0  0  0  0  0  0  0  0
   -8.7083    4.1818  -15.7737 C   0  0  0  0  0  0  0  0  0  0  0  0
   -8.8720    3.9584  -17.1736 C   0  0  0  0  0  0  0  0  0  0  0  0
  -10.0763    3.5730  -17.6220 F   0  0  0  0  0  0  0  0  0  0  0  0
   -7.8728    4.1667  -18.1280 C   0  0  0  0  0  0  0  0  0  0  0  0
   -6.6899    4.6552  -17.5728 C   0  0  0  0  0  0  0  0  0  0  0  0
   -5.5739    5.0276  -18.1971 N   0  0  0  0  0  0  0  0  0  0  0  0
   -4.7968    5.5668  -17.2468 N   0  0  0  0  0  0  0  0  0  0  0  0
   -3.8892    6.6454  -17.6134 C   0  0  1  0  0  0  0  0  0  0  0  0
   -2.4346    6.5211  -17.1799 C   0  0  0  0  0  0  0  0  0  0  0  0
   -2.0644    7.1679  -18.4796 N   0  0  0  0  0  0  0  0  0  0  0  0
   -3.3288    6.5492  -19.0725 C   0  0  0  0  0  0  0  0  0  0  0  0
   -2.9611    5.2227  -19.7581 C   0  0  0  0  0  0  0  0  0  0  0  0
   -2.2913    5.5333  -21.0979 C   0  0  0  0  0  0  0  0  0  0  0  0
   -3.0464    6.4164  -22.0042 N   0  0  0  0  0  0  0  0  0  0  0  0
   -4.3098    6.8501  -21.3976 C   0  0  0  0  0  0  0  0  0  0  0  0
   -4.0828    7.4967  -20.0280 C   0  0  0  0  0  0  0  0  0  0  0  0
   -5.2932    5.4338  -15.9805 C   0  0  0  0  0  0  0  0  0  0  0  0
   -6.5406    4.8924  -16.1587 C   0  0  0  0  0  0  0  0  0  0  0  0
  1  2  2  0
  2  3  1  0
  3  4  1  0
  4  5  2  0
  5  6  1  0
  6  7  2  0
  7  8  1  0
  8  9  2  0
  8 10  1  0
 10 11  1  0
 11 12  1  0
  2 13  1  0
 13 14  2  0
 14 15  1  0
 15 16  1  0
 15 17  2  0
 17 18  1  0
 18 19  2  0
 19 20  1  0
 21 20  1  1
 21 22  1  0
 22 23  1  0
 23 24  1  0
 24 25  1  0
 25 26  1  0
 26 27  1  0
 27 28  1  0
 28 29  1  0
 20 30  1  0
 30 31  2  0
  9  4  1  0
 31 13  1  0
 12  7  1  0
 31 18  1  0
 24 21  1  0
 29 24  1  0
M  END
>  <smiles>  (2013) 
C29751-P234

>  <fragmenstein_outcome>  (2013) 
acceptable

>  <inchikey>  (2013) 
CLYXXJCLQTXTCX-UHFFFAOYSA-N

>  <fragmenstein_mode>  (2013) 
expansion

>  <HIPPO Pose ID>  (2013) 
24967

>  <Energy>  (2013) 
64.738382

>  <fragmenstein_error>  (2013) 


>  <tags>  (2013) 
{'openbind_xx01zvns2b_c1_fragmenstein', 'fragmenstein_placed'}

>  <ref_pdb>  (2013) 
175

>  <scratch_subdir>  (2013) 
/opt/xchem-fragalysis-2/maxwin/BulkDock/SCRATCH/511028/C29751-P234

>  <alias>  (2013) 
O=C(Nc1ccc2c(c1)CNC2)c1cc(F)cc2nn([C@H]3CNC34CCNCC4)cc12

>  <HIPPO Compound ID>  (2013) 
29751

>  <fragmenstein_runtime>  (2013) 
9.964832

$$$$
O=C(Nc1ccc2c(c1)CNC2)c1cc(Br)cc2c3n(cc12)O[C@H]1NCC[C@@H]31
     RDKit          3D

 28 33  0  0  0  0  0  0  0  0999 V2000
   -6.5318    6.4618  -13.2974 O   0  0  0  0  0  0  0  0  0  0  0  0
   -6.9303    5.4039  -13.5928 C   0  0  0  0  0  0  0  0  0  0  0  0
   -7.6050    4.3066  -12.7286 N   0  0  0  0  0  0  0  0  0  0  0  0
   -7.8337    4.2496  -11.3549 C   0  0  0  0  0  0  0  0  0  0  0  0
   -7.6612    5.3786  -10.5412 C   0  0  0  0  0  0  0  0  0  0  0  0
   -7.9325    5.3198   -9.1698 C   0  0  0  0  0  0  0  0  0  0  0  0
   -8.3668    4.1201   -8.6356 C   0  0  0  0  0  0  0  0  0  0  0  0
   -8.5336    2.9995   -9.4377 C   0  0  0  0  0  0  0  0  0  0  0  0
   -8.2814    3.0455  -10.8003 C   0  0  0  0  0  0  0  0  0  0  0  0
   -8.9518    1.8430   -8.5957 C   0  0  0  0  0  0  0  0  0  0  0  0
   -9.2124    2.3905   -7.2375 N   0  0  0  0  0  0  0  0  0  0  0  0
   -8.7023    3.7785   -7.2248 C   0  0  0  0  0  0  0  0  0  0  0  0
   -6.9158    5.0005  -15.0131 C   0  0  0  0  0  0  0  0  0  0  0  0
   -8.0803    4.4787  -15.6345 C   0  0  0  0  0  0  0  0  0  0  0  0
   -8.1931    4.2603  -17.0477 C   0  0  0  0  0  0  0  0  0  0  0  0
   -9.8952    3.8911  -17.7401 Br  0  0  0  0  0  0  0  0  0  0  0  0
   -7.1796    4.4587  -17.9963 C   0  0  0  0  0  0  0  0  0  0  0  0
   -6.0790    4.9916  -17.3670 C   0  0  0  0  0  0  0  0  0  0  0  0
   -5.0247    5.5426  -18.0111 C   0  0  0  0  0  0  0  0  0  0  0  0
   -4.2744    6.1807  -17.0894 N   0  0  0  0  0  0  0  0  0  0  0  0
   -4.7627    6.0206  -15.8227 C   0  0  0  0  0  0  0  0  0  0  0  0
   -5.9306    5.2888  -15.9651 C   0  0  0  0  0  0  0  0  0  0  0  0
   -3.3433    7.0821  -17.6078 O   0  0  0  0  0  0  0  0  0  0  0  0
   -3.6996    7.1415  -19.0247 C   0  0  1  0  0  0  0  0  0  0  0  0
   -2.5186    7.0765  -19.8815 N   0  0  0  0  0  0  0  0  0  0  0  0
   -2.6624    5.8982  -20.7352 C   0  0  0  0  0  0  0  0  0  0  0  0
   -3.5141    4.9402  -19.9270 C   0  0  0  0  0  0  0  0  0  0  0  0
   -4.5432    5.8815  -19.3397 C   0  0  1  0  0  0  0  0  0  0  0  0
  1  2  2  0
  2  3  1  0
  3  4  1  0
  4  5  2  0
  5  6  1  0
  6  7  2  0
  7  8  1  0
  8  9  2  0
  8 10  1  0
 10 11  1  0
 11 12  1  0
  2 13  1  0
 13 14  2  0
 14 15  1  0
 15 16  1  0
 15 17  2  0
 17 18  1  0
 18 19  2  0
 19 20  1  0
 20 21  1  0
 21 22  2  0
 20 23  1  0
 23 24  1  0
 24 25  1  6
 25 26  1  0
 26 27  1  0
 28 27  1  1
  9  4  1  0
 22 13  1  0
 28 24  1  0
 12  7  1  0
 22 18  1  0
 28 19  1  0
M  END
>  <smiles>  (2014) 
C29776-P234

>  <fragmenstein_outcome>  (2014) 
acceptable

>  <inchikey>  (2014) 
ORTJMAFDPCUYSJ-UHFFFAOYSA-N

>  <fragmenstein_mode>  (2014) 
expansion

>  <HIPPO Pose ID>  (2014) 
24976

>  <Energy>  (2014) 
54.434528

>  <fragmenstein_error>  (2014) 


>  <tags>  (2014) 
{'openbind_xx01zvns2b_c1_fragmenstein', 'fragmenstein_placed'}

>  <ref_pdb>  (2014) 
175

>  <scratch_subdir>  (2014) 
/opt/xchem-fragalysis-2/maxwin/BulkDock/SCRATCH/511028/C29776-P234

>  <alias>  (2014) 
O=C(Nc1ccc2c(c1)CNC2)c1cc(Br)cc2c3n(cc12)O[C@H]1NCC[C@@H]31

>  <HIPPO Compound ID>  (2014) 
29776

>  <fragmenstein_runtime>  (2014) 
6.519926

$$$$
CCN1C[C@@H](n2ncc3c(C(=O)Nc4ccc5c(c4)CNC5)cc(Br)cc32)[C@@H]1C
     RDKit          3D

 29 33  0  0  0  0  0  0  0  0999 V2000
   -1.2029    6.3867  -22.1771 C   0  0  0  0  0  0  0  0  0  0  0  0
   -1.9457    6.7450  -20.8983 C   0  0  0  0  0  0  0  0  0  0  0  0
   -3.1202    5.8887  -20.7543 N   0  0  0  0  0  0  0  0  0  0  0  0
   -2.9252    4.8474  -19.6841 C   0  0  0  0  0  0  0  0  0  0  0  0
   -4.3810    5.1334  -19.2594 C   0  0  1  0  0  0  0  0  0  0  0  0
   -4.6536    5.1467  -17.8076 N   0  0  0  0  0  0  0  0  0  0  0  0
   -3.7388    5.4735  -16.8706 N   0  0  0  0  0  0  0  0  0  0  0  0
   -4.4266    5.4402  -15.7255 C   0  0  0  0  0  0  0  0  0  0  0  0
   -5.7785    5.0778  -15.9042 C   0  0  0  0  0  0  0  0  0  0  0  0
   -6.9083    4.8977  -15.0799 C   0  0  0  0  0  0  0  0  0  0  0  0
   -6.8508    5.2453  -13.6402 C   0  0  0  0  0  0  0  0  0  0  0  0
   -6.3698    6.2670  -13.3404 O   0  0  0  0  0  0  0  0  0  0  0  0
   -7.5228    4.1580  -12.7668 N   0  0  0  0  0  0  0  0  0  0  0  0
   -7.8170    4.1451  -11.4043 C   0  0  0  0  0  0  0  0  0  0  0  0
   -7.6397    5.2907  -10.6126 C   0  0  0  0  0  0  0  0  0  0  0  0
   -7.9283    5.2688   -9.2436 C   0  0  0  0  0  0  0  0  0  0  0  0
   -8.3782    4.0862   -8.6864 C   0  0  0  0  0  0  0  0  0  0  0  0
   -8.5538    2.9512   -9.4665 C   0  0  0  0  0  0  0  0  0  0  0  0
   -8.2933    2.9634  -10.8288 C   0  0  0  0  0  0  0  0  0  0  0  0
   -8.9689    1.8129   -8.5984 C   0  0  0  0  0  0  0  0  0  0  0  0
   -9.2331    2.3909   -7.2534 N   0  0  0  0  0  0  0  0  0  0  0  0
   -8.7093    3.7734   -7.2677 C   0  0  0  0  0  0  0  0  0  0  0  0
   -8.1282    4.5276  -15.6583 C   0  0  0  0  0  0  0  0  0  0  0  0
   -8.2133    4.3641  -17.0355 C   0  0  0  0  0  0  0  0  0  0  0  0
   -9.8868    4.0274  -17.8112 Br  0  0  0  0  0  0  0  0  0  0  0  0
   -7.1178    4.5426  -17.8801 C   0  0  0  0  0  0  0  0  0  0  0  0
   -5.9030    4.8935  -17.2814 C   0  0  0  0  0  0  0  0  0  0  0  0
   -4.1004    6.5404  -19.8275 C   0  0  2  0  0  0  0  0  0  0  0  0
   -5.2073    7.2038  -20.6085 C   0  0  0  0  0  0  0  0  0  0  0  0
  1  2  1  0
  2  3  1  0
  3  4  1  0
  4  5  1  0
  5  6  1  1
  6  7  1  0
  7  8  2  0
  8  9  1  0
  9 10  2  0
 10 11  1  0
 11 12  2  0
 11 13  1  0
 13 14  1  0
 14 15  2  0
 15 16  1  0
 16 17  2  0
 17 18  1  0
 18 19  2  0
 18 20  1  0
 20 21  1  0
 21 22  1  0
 10 23  1  0
 23 24  2  0
 24 25  1  0
 24 26  1  0
 26 27  2  0
  5 28  1  0
 28 29  1  6
 28  3  1  0
 27  6  1  0
 27  9  1  0
 19 14  1  0
 22 17  1  0
M  END
>  <smiles>  (2015) 
C29777-P234

>  <fragmenstein_outcome>  (2015) 
acceptable

>  <inchikey>  (2015) 
DVKDSWOXTCELOB-UHFFFAOYSA-N

>  <fragmenstein_mode>  (2015) 
expansion

>  <HIPPO Pose ID>  (2015) 
24977

>  <Energy>  (2015) 
64.384577

>  <fragmenstein_error>  (2015) 


>  <tags>  (2015) 
{'openbind_xx01zvns2b_c1_fragmenstein', 'fragmenstein_placed'}

>  <ref_pdb>  (2015) 
175

>  <scratch_subdir>  (2015) 
/opt/xchem-fragalysis-2/maxwin/BulkDock/SCRATCH/511028/C29777-P234

>  <alias>  (2015) 
CCN1C[C@@H](n2ncc3c(C(=O)Nc4ccc5c(c4)CNC5)cc(Br)cc32)[C@@H]1C

>  <HIPPO Compound ID>  (2015) 
29777

>  <fragmenstein_runtime>  (2015) 
6.125334

$$$$
N[C@@H]1NC[C@@H]1n1ncc2c(C(=O)Nc3ccc4c(c3)CNC4)cc(Br)cc21
     RDKit          3D

 27 31  0  0  0  0  0  0  0  0999 V2000
   -5.4059    7.0409  -20.0482 N   0  0  0  0  0  0  0  0  0  0  0  0
   -4.0121    6.7018  -19.8772 C   0  0  2  0  0  0  0  0  0  0  0  0
   -3.6946    5.6362  -20.8377 N   0  0  0  0  0  0  0  0  0  0  0  0
   -3.8983    4.6300  -19.7604 C   0  0  0  0  0  0  0  0  0  0  0  0
   -3.6513    5.7320  -18.7513 C   0  0  2  0  0  0  0  0  0  0  0  0
   -4.3762    5.7449  -17.4630 N   0  0  0  0  0  0  0  0  0  0  0  0
   -3.6569    6.1634  -16.3899 N   0  0  0  0  0  0  0  0  0  0  0  0
   -4.4659    6.0007  -15.3508 C   0  0  0  0  0  0  0  0  0  0  0  0
   -5.7068    5.4503  -15.7079 C   0  0  0  0  0  0  0  0  0  0  0  0
   -6.8767    5.1075  -14.9965 C   0  0  0  0  0  0  0  0  0  0  0  0
   -7.0001    5.4669  -13.5612 C   0  0  0  0  0  0  0  0  0  0  0  0
   -6.6671    6.5401  -13.2411 O   0  0  0  0  0  0  0  0  0  0  0  0
   -7.6433    4.3274  -12.7339 N   0  0  0  0  0  0  0  0  0  0  0  0
   -7.9138    4.2409  -11.3683 C   0  0  0  0  0  0  0  0  0  0  0  0
   -7.7832    5.3674  -10.5398 C   0  0  0  0  0  0  0  0  0  0  0  0
   -8.0484    5.2871   -9.1693 C   0  0  0  0  0  0  0  0  0  0  0  0
   -8.4404    4.0684   -8.6491 C   0  0  0  0  0  0  0  0  0  0  0  0
   -8.5724    2.9517   -9.4646 C   0  0  0  0  0  0  0  0  0  0  0  0
   -8.3211    3.0177  -10.8278 C   0  0  0  0  0  0  0  0  0  0  0  0
   -8.9466    1.7741   -8.6302 C   0  0  0  0  0  0  0  0  0  0  0  0
   -9.2423    2.3049   -7.2726 N   0  0  0  0  0  0  0  0  0  0  0  0
   -8.7572    3.7004   -7.2405 C   0  0  0  0  0  0  0  0  0  0  0  0
   -7.9664    4.5808  -15.6836 C   0  0  0  0  0  0  0  0  0  0  0  0
   -7.8799    4.4216  -17.0587 C   0  0  0  0  0  0  0  0  0  0  0  0
   -9.4159    3.8556  -17.9684 Br  0  0  0  0  0  0  0  0  0  0  0  0
   -6.7350    4.7531  -17.7979 C   0  0  0  0  0  0  0  0  0  0  0  0
   -5.6355    5.2759  -17.1007 C   0  0  0  0  0  0  0  0  0  0  0  0
  2  1  1  1
  2  3  1  0
  3  4  1  0
  4  5  1  0
  5  6  1  1
  6  7  1  0
  7  8  2  0
  8  9  1  0
  9 10  2  0
 10 11  1  0
 11 12  2  0
 11 13  1  0
 13 14  1  0
 14 15  2  0
 15 16  1  0
 16 17  2  0
 17 18  1  0
 18 19  2  0
 18 20  1  0
 20 21  1  0
 21 22  1  0
 10 23  1  0
 23 24  2  0
 24 25  1  0
 24 26  1  0
 26 27  2  0
  5  2  1  0
 27  6  1  0
 27  9  1  0
 19 14  1  0
 22 17  1  0
M  END
>  <smiles>  (2016) 
C29779-P234

>  <fragmenstein_outcome>  (2016) 
acceptable

>  <inchikey>  (2016) 
YVZMNLKRZPVVEG-UHFFFAOYSA-N

>  <fragmenstein_mode>  (2016) 
expansion

>  <HIPPO Pose ID>  (2016) 
24978

>  <Energy>  (2016) 
34.330434

>  <fragmenstein_error>  (2016) 


>  <tags>  (2016) 
{'openbind_xx01zvns2b_c1_fragmenstein', 'fragmenstein_placed'}

>  <ref_pdb>  (2016) 
175

>  <scratch_subdir>  (2016) 
/opt/xchem-fragalysis-2/maxwin/BulkDock/SCRATCH/511028/C29779-P234

>  <alias>  (2016) 
N[C@@H]1NC[C@@H]1n1ncc2c(C(=O)Nc3ccc4c(c3)CNC4)cc(Br)cc21

>  <HIPPO Compound ID>  (2016) 
29779

>  <fragmenstein_runtime>  (2016) 
6.309957

$$$$
Nn1cc2c(C(=O)Nc3ccc4c(c3)CNC4)cc(Br)cc2c1C1CNC1
     RDKit          3D

 27 31  0  0  0  0  0  0  0  0999 V2000
   -2.4357    6.1297  -16.5381 N   0  0  0  0  0  0  0  0  0  0  0  0
   -3.7817    5.7297  -16.5150 N   0  0  0  0  0  0  0  0  0  0  0  0
   -4.4767    5.5287  -15.3594 C   0  0  0  0  0  0  0  0  0  0  0  0
   -5.7443    5.1545  -15.7199 C   0  0  0  0  0  0  0  0  0  0  0  0
   -6.8164    4.8921  -14.8669 C   0  0  0  0  0  0  0  0  0  0  0  0
   -6.8624    5.2564  -13.4418 C   0  0  0  0  0  0  0  0  0  0  0  0
   -6.5729    6.3482  -13.1458 O   0  0  0  0  0  0  0  0  0  0  0  0
   -7.4043    4.0957  -12.5794 N   0  0  0  0  0  0  0  0  0  0  0  0
   -7.7800    4.0636  -11.2381 C   0  0  0  0  0  0  0  0  0  0  0  0
   -7.6809    5.2125  -10.4337 C   0  0  0  0  0  0  0  0  0  0  0  0
   -8.0518    5.1833   -9.0856 C   0  0  0  0  0  0  0  0  0  0  0  0
   -8.5184    3.9924   -8.5666 C   0  0  0  0  0  0  0  0  0  0  0  0
   -8.6126    2.8523   -9.3607 C   0  0  0  0  0  0  0  0  0  0  0  0
   -8.2540    2.8667  -10.6982 C   0  0  0  0  0  0  0  0  0  0  0  0
   -9.0667    1.7132   -8.5104 C   0  0  0  0  0  0  0  0  0  0  0  0
   -9.6398    2.3490   -7.2948 N   0  0  0  0  0  0  0  0  0  0  0  0
   -8.9488    3.6522   -7.1781 C   0  0  0  0  0  0  0  0  0  0  0  0
   -7.9660    4.4910  -15.5752 C   0  0  0  0  0  0  0  0  0  0  0  0
   -7.9997    4.4120  -17.0039 C   0  0  0  0  0  0  0  0  0  0  0  0
   -9.6479    3.9372  -17.7884 Br  0  0  0  0  0  0  0  0  0  0  0  0
   -6.9333    4.7439  -17.8758 C   0  0  0  0  0  0  0  0  0  0  0  0
   -5.7973    5.1034  -17.1553 C   0  0  0  0  0  0  0  0  0  0  0  0
   -4.5916    5.5864  -17.6203 C   0  0  0  0  0  0  0  0  0  0  0  0
   -4.1720    6.1059  -19.0281 C   0  0  0  0  0  0  0  0  0  0  0  0
   -3.0318    5.3597  -19.7563 C   0  0  0  0  0  0  0  0  0  0  0  0
   -3.6459    5.8349  -21.0405 N   0  0  0  0  0  0  0  0  0  0  0  0
   -4.9568    5.7800  -20.3083 C   0  0  0  0  0  0  0  0  0  0  0  0
  1  2  1  0
  2  3  1  0
  3  4  2  0
  4  5  1  0
  5  6  1  0
  6  7  2  0
  6  8  1  0
  8  9  1  0
  9 10  2  0
 10 11  1  0
 11 12  2  0
 12 13  1  0
 13 14  2  0
 13 15  1  0
 15 16  1  0
 16 17  1  0
  5 18  2  0
 18 19  1  0
 19 20  1  0
 19 21  2  0
 21 22  1  0
 22 23  2  0
 23 24  1  0
 24 25  1  0
 25 26  1  0
 26 27  1  0
 23  2  1  0
 27 24  1  0
 22  4  1  0
 14  9  1  0
 17 12  1  0
M  END
>  <smiles>  (2017) 
C29784-P234

>  <fragmenstein_outcome>  (2017) 
acceptable

>  <inchikey>  (2017) 
RLZHUVLUQZMADN-UHFFFAOYSA-N

>  <fragmenstein_mode>  (2017) 
expansion

>  <HIPPO Pose ID>  (2017) 
24980

>  <Energy>  (2017) 
44.428886

>  <fragmenstein_error>  (2017) 


>  <tags>  (2017) 
{'openbind_xx01zvns2b_c1_fragmenstein', 'fragmenstein_placed'}

>  <ref_pdb>  (2017) 
175

>  <scratch_subdir>  (2017) 
/opt/xchem-fragalysis-2/maxwin/BulkDock/SCRATCH/511028/C29784-P234

>  <alias>  (2017) 
Nn1cc2c(C(=O)Nc3ccc4c(c3)CNC4)cc(Br)cc2c1C1CNC1

>  <HIPPO Compound ID>  (2017) 
29784

>  <fragmenstein_runtime>  (2017) 
7.230771

$$$$
O=C(Nc1ccc2c(c1)CNC2)[C@@H]1C[C@@H](Cl)[C@H](Cl)C2=C1[C@]1(CCOC1)NN2C1CNC1
     RDKit          3D

 31 36  0  0  0  0  0  0  0  0999 V2000
   -7.7902    6.7041  -13.2913 O   0  0  0  0  0  0  0  0  0  0  0  0
   -7.8620    5.5707  -13.5759 C   0  0  0  0  0  0  0  0  0  0  0  0
   -8.0883    4.3208  -12.6816 N   0  0  0  0  0  0  0  0  0  0  0  0
   -8.1744    4.2036  -11.2977 C   0  0  0  0  0  0  0  0  0  0  0  0
   -8.0057    5.3286  -10.4734 C   0  0  0  0  0  0  0  0  0  0  0  0
   -8.1399    5.2276   -9.0864 C   0  0  0  0  0  0  0  0  0  0  0  0
   -8.4551    3.9940   -8.5498 C   0  0  0  0  0  0  0  0  0  0  0  0
   -8.6137    2.8789   -9.3626 C   0  0  0  0  0  0  0  0  0  0  0  0
   -8.4662    2.9589  -10.7386 C   0  0  0  0  0  0  0  0  0  0  0  0
   -8.9307    1.6921   -8.5188 C   0  0  0  0  0  0  0  0  0  0  0  0
   -9.1375    2.2070   -7.1397 N   0  0  0  0  0  0  0  0  0  0  0  0
   -8.6754    3.6101   -7.1276 C   0  0  0  0  0  0  0  0  0  0  0  0
   -7.7576    5.1615  -15.0679 C   0  0  2  0  0  0  0  0  0  0  0  0
   -8.6291    4.0221  -15.5752 C   0  0  0  0  0  0  0  0  0  0  0  0
   -8.6174    3.8759  -17.1082 C   0  0  1  0  0  0  0  0  0  0  0  0
  -10.2333    4.2562  -17.7880 Cl  0  0  0  0  0  0  0  0  0  0  0  0
   -7.4917    4.6226  -17.8765 C   0  0  2  0  0  0  0  0  0  0  0  0
   -7.1225    3.6991  -19.3181 Cl  0  0  0  0  0  0  0  0  0  0  0  0
   -6.2765    4.9375  -17.0361 C   0  0  0  0  0  0  0  0  0  0  0  0
   -6.4043    5.1355  -15.7086 C   0  0  0  0  0  0  0  0  0  0  0  0
   -5.0688    5.5017  -15.1383 C   0  0  1  0  0  0  0  0  0  0  0  0
   -4.8701    6.9818  -14.8341 C   0  0  0  0  0  0  0  0  0  0  0  0
   -3.6308    6.9756  -13.9642 C   0  0  0  0  0  0  0  0  0  0  0  0
   -3.6570    5.7598  -13.2058 O   0  0  0  0  0  0  0  0  0  0  0  0
   -4.6006    4.8602  -13.8228 C   0  0  0  0  0  0  0  0  0  0  0  0
   -4.1339    5.1545  -16.2580 N   0  0  0  0  0  0  0  0  0  0  0  0
   -4.9459    5.1116  -17.4523 N   0  0  0  0  0  0  0  0  0  0  0  0
   -4.4124    5.9968  -18.4939 C   0  0  0  0  0  0  0  0  0  0  0  0
   -4.2853    5.4466  -19.9112 C   0  0  0  0  0  0  0  0  0  0  0  0
   -5.3375    6.3704  -20.3753 N   0  0  0  0  0  0  0  0  0  0  0  0
   -5.3353    7.0562  -19.0762 C   0  0  0  0  0  0  0  0  0  0  0  0
  1  2  2  0
  2  3  1  0
  3  4  1  0
  4  5  2  0
  5  6  1  0
  6  7  2  0
  7  8  1  0
  8  9  2  0
  8 10  1  0
 10 11  1  0
 11 12  1  0
 13  2  1  1
 13 14  1  0
 14 15  1  0
 15 16  1  6
 15 17  1  0
 17 18  1  6
 17 19  1  0
 19 20  2  0
 20 21  1  0
 21 22  1  1
 22 23  1  0
 23 24  1  0
 24 25  1  0
 21 26  1  0
 26 27  1  0
 27 28  1  0
 28 29  1  0
 29 30  1  0
 30 31  1  0
  9  4  1  0
 20 13  1  0
 25 21  1  0
 31 28  1  0
 12  7  1  0
 27 19  1  0
M  END
>  <smiles>  (2018) 
C30005-P237

>  <fragmenstein_outcome>  (2018) 
acceptable

>  <inchikey>  (2018) 
UZFXGTIHHFJQGR-UHFFFAOYSA-N

>  <fragmenstein_mode>  (2018) 
expansion

>  <HIPPO Pose ID>  (2018) 
25033

>  <Energy>  (2018) 
178.640691

>  <fragmenstein_error>  (2018) 


>  <tags>  (2018) 
{'openbind_xx01zvns2b_c1_fragmenstein', 'fragmenstein_placed'}

>  <ref_pdb>  (2018) 
175

>  <scratch_subdir>  (2018) 
/opt/xchem-fragalysis-2/maxwin/BulkDock/SCRATCH/511028/C30005-P237

>  <alias>  (2018) 
O=C(Nc1ccc2c(c1)CNC2)[C@@H]1C[C@@H](Cl)[C@H](Cl)C2=C1[C@]1(CCOC1)NN2C1CNC1

>  <HIPPO Compound ID>  (2018) 
30005

>  <fragmenstein_runtime>  (2018) 
6.926301

$$$$
O[C@](F)(Nc1ccc2c(c1)CNC2)c1cc(Cl)cc2c1cnn2C1CNC1
     RDKit          3D

 27 31  0  0  0  0  0  0  0  0999 V2000
   -6.4118    5.6268  -13.0149 O   0  0  0  0  0  0  0  0  0  0  0  0
   -7.5928    5.0646  -13.5270 C   0  0  2  0  0  0  0  0  0  0  0  0
   -8.5772    5.9859  -13.3454 F   0  0  0  0  0  0  0  0  0  0  0  0
   -7.9007    3.8964  -12.7471 N   0  0  0  0  0  0  0  0  0  0  0  0
   -8.1973    3.9774  -11.3751 C   0  0  0  0  0  0  0  0  0  0  0  0
   -8.0535    5.1475  -10.5958 C   0  0  0  0  0  0  0  0  0  0  0  0
   -8.2204    5.1424   -9.2047 C   0  0  0  0  0  0  0  0  0  0  0  0
   -8.5363    3.9498   -8.5896 C   0  0  0  0  0  0  0  0  0  0  0  0
   -8.6895    2.7914   -9.3337 C   0  0  0  0  0  0  0  0  0  0  0  0
   -8.5152    2.7861  -10.7098 C   0  0  0  0  0  0  0  0  0  0  0  0
   -8.9890    1.6516   -8.4226 C   0  0  0  0  0  0  0  0  0  0  0  0
   -9.2108    2.2465   -7.0793 N   0  0  0  0  0  0  0  0  0  0  0  0
   -8.7389    3.6447   -7.1457 C   0  0  0  0  0  0  0  0  0  0  0  0
   -7.4151    4.7697  -15.0055 C   0  0  0  0  0  0  0  0  0  0  0  0
   -8.5453    4.3600  -15.7347 C   0  0  0  0  0  0  0  0  0  0  0  0
   -8.5134    4.2528  -17.1164 C   0  0  0  0  0  0  0  0  0  0  0  0
   -9.9761    3.9047  -17.9261 Cl  0  0  0  0  0  0  0  0  0  0  0  0
   -7.3714    4.5566  -17.8572 C   0  0  0  0  0  0  0  0  0  0  0  0
   -6.2219    4.9390  -17.1527 C   0  0  0  0  0  0  0  0  0  0  0  0
   -6.2259    5.0054  -15.7507 C   0  0  0  0  0  0  0  0  0  0  0  0
   -4.8996    5.3608  -15.4225 C   0  0  0  0  0  0  0  0  0  0  0  0
   -4.1250    5.5362  -16.4856 N   0  0  0  0  0  0  0  0  0  0  0  0
   -4.9527    5.3581  -17.5342 N   0  0  0  0  0  0  0  0  0  0  0  0
   -4.4614    5.8416  -18.8401 C   0  0  0  0  0  0  0  0  0  0  0  0
   -4.7783    5.0332  -20.0877 C   0  0  0  0  0  0  0  0  0  0  0  0
   -5.0994    6.3048  -20.7818 N   0  0  0  0  0  0  0  0  0  0  0  0
   -5.3220    6.9357  -19.4629 C   0  0  0  0  0  0  0  0  0  0  0  0
  2  1  1  1
  2  3  1  0
  2  4  1  0
  4  5  1  0
  5  6  2  0
  6  7  1  0
  7  8  2  0
  8  9  1  0
  9 10  2  0
  9 11  1  0
 11 12  1  0
 12 13  1  0
  2 14  1  0
 14 15  2  0
 15 16  1  0
 16 17  1  0
 16 18  2  0
 18 19  1  0
 19 20  2  0
 20 21  1  0
 21 22  2  0
 22 23  1  0
 23 24  1  0
 24 25  1  0
 25 26  1  0
 26 27  1  0
 10  5  1  0
 20 14  1  0
 27 24  1  0
 13  8  1  0
 23 19  1  0
M  END
>  <smiles>  (2019) 
C30008-P237

>  <fragmenstein_outcome>  (2019) 
acceptable

>  <inchikey>  (2019) 
QCTNUQJRPCDCEL-UHFFFAOYSA-N

>  <fragmenstein_mode>  (2019) 
expansion

>  <HIPPO Pose ID>  (2019) 
25035

>  <Energy>  (2019) 
-7.043027

>  <fragmenstein_error>  (2019) 


>  <tags>  (2019) 
{'openbind_xx01zvns2b_c1_fragmenstein', 'fragmenstein_placed'}

>  <ref_pdb>  (2019) 
175

>  <scratch_subdir>  (2019) 
/opt/xchem-fragalysis-2/maxwin/BulkDock/SCRATCH/511028/C30008-P237

>  <alias>  (2019) 
O[C@](F)(Nc1ccc2c(c1)CNC2)c1cc(Cl)cc2c1cnn2C1CNC1

>  <HIPPO Compound ID>  (2019) 
36320

>  <fragmenstein_runtime>  (2019) 
2.524715

$$$$
O=C(Nc1ccc2c(c1)CNC2)c1cc(CO)cc2c1cnn2C1CNC1
     RDKit          3D

 27 31  0  0  0  0  0  0  0  0999 V2000
   -6.7628    6.4054  -13.3871 O   0  0  0  0  0  0  0  0  0  0  0  0
   -7.1763    5.3511  -13.6722 C   0  0  0  0  0  0  0  0  0  0  0  0
   -7.7317    4.2182  -12.7801 N   0  0  0  0  0  0  0  0  0  0  0  0
   -7.9741    4.1828  -11.4089 C   0  0  0  0  0  0  0  0  0  0  0  0
   -7.7836    5.3280  -10.6176 C   0  0  0  0  0  0  0  0  0  0  0  0
   -7.9945    5.2912   -9.2365 C   0  0  0  0  0  0  0  0  0  0  0  0
   -8.3824    4.0937   -8.6677 C   0  0  0  0  0  0  0  0  0  0  0  0
   -8.5808    2.9616   -9.4480 C   0  0  0  0  0  0  0  0  0  0  0  0
   -8.3939    2.9875  -10.8220 C   0  0  0  0  0  0  0  0  0  0  0  0
   -9.0022    1.8290   -8.5767 C   0  0  0  0  0  0  0  0  0  0  0  0
   -8.8846    2.3126   -7.1748 N   0  0  0  0  0  0  0  0  0  0  0  0
   -8.6702    3.7743   -7.2424 C   0  0  0  0  0  0  0  0  0  0  0  0
   -7.1859    4.9756  -15.1049 C   0  0  0  0  0  0  0  0  0  0  0  0
   -8.3481    4.4930  -15.7183 C   0  0  0  0  0  0  0  0  0  0  0  0
   -8.3838    4.3027  -17.1043 C   0  0  0  0  0  0  0  0  0  0  0  0
   -9.6427    3.8400  -17.7684 C   0  0  0  0  0  0  0  0  0  0  0  0
   -9.4747    2.4552  -18.0042 O   0  0  0  0  0  0  0  0  0  0  0  0
   -7.2508    4.5619  -17.8991 C   0  0  0  0  0  0  0  0  0  0  0  0
   -6.0986    5.0433  -17.2669 C   0  0  0  0  0  0  0  0  0  0  0  0
   -6.0446    5.2319  -15.8878 C   0  0  0  0  0  0  0  0  0  0  0  0
   -4.7262    5.6661  -15.6437 C   0  0  0  0  0  0  0  0  0  0  0  0
   -3.9877    5.7334  -16.7508 N   0  0  0  0  0  0  0  0  0  0  0  0
   -4.8661    5.4582  -17.7392 N   0  0  0  0  0  0  0  0  0  0  0  0
   -4.4811    5.5175  -19.1708 C   0  0  0  0  0  0  0  0  0  0  0  0
   -5.3612    6.4718  -19.9885 C   0  0  0  0  0  0  0  0  0  0  0  0
   -4.3610    7.5401  -19.8331 N   0  0  0  0  0  0  0  0  0  0  0  0
   -3.3494    6.5120  -19.4986 C   0  0  0  0  0  0  0  0  0  0  0  0
  1  2  2  0
  2  3  1  0
  3  4  1  0
  4  5  2  0
  5  6  1  0
  6  7  2  0
  7  8  1  0
  8  9  2  0
  8 10  1  0
 10 11  1  0
 11 12  1  0
  2 13  1  0
 13 14  2  0
 14 15  1  0
 15 16  1  0
 16 17  1  0
 15 18  2  0
 18 19  1  0
 19 20  2  0
 20 21  1  0
 21 22  2  0
 22 23  1  0
 23 24  1  0
 24 25  1  0
 25 26  1  0
 26 27  1  0
  9  4  1  0
 20 13  1  0
 27 24  1  0
 12  7  1  0
 23 19  1  0
M  END
>  <smiles>  (2020) 
C30009-P237

>  <fragmenstein_outcome>  (2020) 
acceptable

>  <inchikey>  (2020) 
QTMSHYIXVHNGBV-UHFFFAOYSA-N

>  <fragmenstein_mode>  (2020) 
expansion

>  <HIPPO Pose ID>  (2020) 
25036

>  <Energy>  (2020) 
76.840911

>  <fragmenstein_error>  (2020) 


>  <tags>  (2020) 
{'openbind_xx01zvns2b_c1_fragmenstein', 'fragmenstein_placed'}

>  <ref_pdb>  (2020) 
175

>  <scratch_subdir>  (2020) 
/opt/xchem-fragalysis-2/maxwin/BulkDock/SCRATCH/511028/C30009-P237

>  <alias>  (2020) 
O=C(Nc1ccc2c(c1)CNC2)c1cc(CO)cc2c1cnn2C1CNC1

>  <HIPPO Compound ID>  (2020) 
30009

>  <fragmenstein_runtime>  (2020) 
4.17537

$$$$
O=C(Nc1ccc2c(c1)CNC2)c1cc(Cl)cc2c1cnn2C1CNC1
     RDKit          3D

 26 30  0  0  0  0  0  0  0  0999 V2000
   -5.7763    3.7570  -13.2967 O   0  0  0  0  0  0  0  0  0  0  0  0
   -6.7731    4.3083  -13.5412 C   0  0  0  0  0  0  0  0  0  0  0  0
   -7.9136    4.7637  -12.6154 N   0  0  0  0  0  0  0  0  0  0  0  0
   -8.1062    4.5615  -11.2604 C   0  0  0  0  0  0  0  0  0  0  0  0
   -8.1867    5.6645  -10.4033 C   0  0  0  0  0  0  0  0  0  0  0  0
   -8.3705    5.4710   -9.0318 C   0  0  0  0  0  0  0  0  0  0  0  0
   -8.5603    4.1788   -8.5711 C   0  0  0  0  0  0  0  0  0  0  0  0
   -8.5261    3.0892   -9.4374 C   0  0  0  0  0  0  0  0  0  0  0  0
   -8.2475    3.2557  -10.7816 C   0  0  0  0  0  0  0  0  0  0  0  0
   -8.8437    1.8445   -8.6743 C   0  0  0  0  0  0  0  0  0  0  0  0
   -9.3722    2.3187   -7.3656 N   0  0  0  0  0  0  0  0  0  0  0  0
   -8.8338    3.6840   -7.1900 C   0  0  0  0  0  0  0  0  0  0  0  0
   -7.0890    4.5499  -14.9802 C   0  0  0  0  0  0  0  0  0  0  0  0
   -8.3333    4.2212  -15.5463 C   0  0  0  0  0  0  0  0  0  0  0  0
   -8.4991    4.2487  -16.9320 C   0  0  0  0  0  0  0  0  0  0  0  0
  -10.0325    3.9190  -17.6243 Cl  0  0  0  0  0  0  0  0  0  0  0  0
   -7.4549    4.5738  -17.7983 C   0  0  0  0  0  0  0  0  0  0  0  0
   -6.2322    4.9185  -17.2175 C   0  0  0  0  0  0  0  0  0  0  0  0
   -6.0416    4.9383  -15.8365 C   0  0  0  0  0  0  0  0  0  0  0  0
   -4.6997    5.3362  -15.6673 C   0  0  0  0  0  0  0  0  0  0  0  0
   -4.0881    5.5833  -16.8233 N   0  0  0  0  0  0  0  0  0  0  0  0
   -4.9989    5.2136  -17.7521 N   0  0  0  0  0  0  0  0  0  0  0  0
   -4.6698    5.1035  -19.1917 C   0  0  0  0  0  0  0  0  0  0  0  0
   -3.1905    4.7515  -19.4511 C   0  0  0  0  0  0  0  0  0  0  0  0
   -2.8891    6.2020  -19.5195 N   0  0  0  0  0  0  0  0  0  0  0  0
   -4.3163    6.4534  -19.8146 C   0  0  0  0  0  0  0  0  0  0  0  0
  1  2  2  0
  2  3  1  0
  3  4  1  0
  4  5  2  0
  5  6  1  0
  6  7  2  0
  7  8  1  0
  8  9  2  0
  8 10  1  0
 10 11  1  0
 11 12  1  0
  2 13  1  0
 13 14  2  0
 14 15  1  0
 15 16  1  0
 15 17  2  0
 17 18  1  0
 18 19  2  0
 19 20  1  0
 20 21  2  0
 21 22  1  0
 22 23  1  0
 23 24  1  0
 24 25  1  0
 25 26  1  0
  9  4  1  0
 19 13  1  0
 26 23  1  0
 12  7  1  0
 22 18  1  0
M  END
>  <smiles>  (2021) 
C217-P237

>  <fragmenstein_outcome>  (2021) 
acceptable

>  <inchikey>  (2021) 
BOZVCOAXVOVAGF-UHFFFAOYSA-N

>  <fragmenstein_mode>  (2021) 
expansion

>  <HIPPO Pose ID>  (2021) 
25037

>  <Energy>  (2021) 
80.821933

>  <fragmenstein_error>  (2021) 


>  <tags>  (2021) 
{'openbind_xx01zvns2b_c1_fragmenstein', 'fragmenstein_placed'}

>  <ref_pdb>  (2021) 
175

>  <scratch_subdir>  (2021) 
/opt/xchem-fragalysis-2/maxwin/BulkDock/SCRATCH/511028/C217-P237

>  <alias>  (2021) 
O=C(Nc1ccc2c(c1)CNC2)c1cc(Cl)cc2c1cnn2C1CNC1

>  <HIPPO Compound ID>  (2021) 
217

>  <fragmenstein_runtime>  (2021) 
2.926908

$$$$
O=C[C@@H]1NC[C@@H]1n1ncc2c(C(=O)Nc3ccc4c(c3)CNC4)cc(Cl)cc21
     RDKit          3D

 28 32  0  0  0  0  0  0  0  0999 V2000
   -1.3785    6.0682  -19.1215 O   0  0  0  0  0  0  0  0  0  0  0  0
   -2.3119    5.2823  -18.9211 C   0  0  0  0  0  0  0  0  0  0  0  0
   -3.5319    5.0572  -19.8586 C   0  0  2  0  0  0  0  0  0  0  0  0
   -3.7744    6.2487  -20.7348 N   0  0  0  0  0  0  0  0  0  0  0  0
   -4.9529    6.5945  -19.9185 C   0  0  0  0  0  0  0  0  0  0  0  0
   -4.9958    5.1625  -19.3932 C   0  0  2  0  0  0  0  0  0  0  0  0
   -5.2479    5.1246  -17.9432 N   0  0  0  0  0  0  0  0  0  0  0  0
   -4.3438    5.5403  -17.0343 N   0  0  0  0  0  0  0  0  0  0  0  0
   -4.9982    5.4822  -15.8748 C   0  0  0  0  0  0  0  0  0  0  0  0
   -6.3241    5.0287  -16.0223 C   0  0  0  0  0  0  0  0  0  0  0  0
   -7.4206    4.8113  -15.1673 C   0  0  0  0  0  0  0  0  0  0  0  0
   -7.3229    5.2171  -13.7476 C   0  0  0  0  0  0  0  0  0  0  0  0
   -6.8470    6.2563  -13.5094 O   0  0  0  0  0  0  0  0  0  0  0  0
   -7.8835    4.1322  -12.8020 N   0  0  0  0  0  0  0  0  0  0  0  0
   -8.0566    4.1383  -11.4208 C   0  0  0  0  0  0  0  0  0  0  0  0
   -7.7930    5.2925  -10.6652 C   0  0  0  0  0  0  0  0  0  0  0  0
   -7.9526    5.2924   -9.2765 C   0  0  0  0  0  0  0  0  0  0  0  0
   -8.3596    4.1216   -8.6664 C   0  0  0  0  0  0  0  0  0  0  0  0
   -8.6229    2.9794   -9.4120 C   0  0  0  0  0  0  0  0  0  0  0  0
   -8.4894    2.9699  -10.7912 C   0  0  0  0  0  0  0  0  0  0  0  0
   -9.0550    1.8825   -8.5014 C   0  0  0  0  0  0  0  0  0  0  0  0
   -8.8529    2.3882   -7.1178 N   0  0  0  0  0  0  0  0  0  0  0  0
   -8.6138    3.8436   -7.2259 C   0  0  0  0  0  0  0  0  0  0  0  0
   -8.6338    4.3752  -15.7068 C   0  0  0  0  0  0  0  0  0  0  0  0
   -8.7474    4.1897  -17.0810 C   0  0  0  0  0  0  0  0  0  0  0  0
  -10.2967    3.9419  -17.7608 Cl  0  0  0  0  0  0  0  0  0  0  0  0
   -7.6700    4.3646  -17.9501 C   0  0  0  0  0  0  0  0  0  0  0  0
   -6.4648    4.7978  -17.3896 C   0  0  0  0  0  0  0  0  0  0  0  0
  1  2  2  0
  3  2  1  1
  3  4  1  0
  4  5  1  0
  5  6  1  0
  6  7  1  1
  7  8  1  0
  8  9  2  0
  9 10  1  0
 10 11  2  0
 11 12  1  0
 12 13  2  0
 12 14  1  0
 14 15  1  0
 15 16  2  0
 16 17  1  0
 17 18  2  0
 18 19  1  0
 19 20  2  0
 19 21  1  0
 21 22  1  0
 22 23  1  0
 11 24  1  0
 24 25  2  0
 25 26  1  0
 25 27  1  0
 27 28  2  0
  6  3  1  0
 28  7  1  0
 28 10  1  0
 20 15  1  0
 23 18  1  0
M  END
>  <smiles>  (2022) 
C30011-P237

>  <fragmenstein_outcome>  (2022) 
acceptable

>  <inchikey>  (2022) 
TWNFKATYKIQJOL-UHFFFAOYSA-N

>  <fragmenstein_mode>  (2022) 
expansion

>  <HIPPO Pose ID>  (2022) 
25038

>  <Energy>  (2022) 
73.867705

>  <fragmenstein_error>  (2022) 


>  <tags>  (2022) 
{'openbind_xx01zvns2b_c1_fragmenstein', 'fragmenstein_placed'}

>  <ref_pdb>  (2022) 
175

>  <scratch_subdir>  (2022) 
/opt/xchem-fragalysis-2/maxwin/BulkDock/SCRATCH/511028/C30011-P237

>  <alias>  (2022) 
O=C[C@@H]1NC[C@@H]1n1ncc2c(C(=O)Nc3ccc4c(c3)CNC4)cc(Cl)cc21

>  <HIPPO Compound ID>  (2022) 
41633

>  <fragmenstein_runtime>  (2022) 
5.824796

$$$$
CC[C@H]1CC2=C(CNN2C2CNC2)[C@H](C(=O)Nc2cc3c(cc2C)CNC3)C1
     RDKit          3D

 28 32  0  0  0  0  0  0  0  0999 V2000
  -10.5311    4.5700  -18.3849 C   0  0  0  0  0  0  0  0  0  0  0  0
   -9.7477    3.6329  -17.5153 C   0  0  0  0  0  0  0  0  0  0  0  0
   -8.3390    4.0114  -17.0612 C   0  0  1  0  0  0  0  0  0  0  0  0
   -7.4414    4.6756  -18.0971 C   0  0  0  0  0  0  0  0  0  0  0  0
   -6.1506    5.0719  -17.4701 C   0  0  0  0  0  0  0  0  0  0  0  0
   -6.0039    5.3125  -16.1617 C   0  0  0  0  0  0  0  0  0  0  0  0
   -4.5879    5.7111  -15.9234 C   0  0  0  0  0  0  0  0  0  0  0  0
   -3.9647    5.7416  -17.2716 N   0  0  0  0  0  0  0  0  0  0  0  0
   -4.9591    5.2315  -18.1510 N   0  0  0  0  0  0  0  0  0  0  0  0
   -4.7724    5.1694  -19.5754 C   0  0  0  0  0  0  0  0  0  0  0  0
   -4.6506    6.5184  -20.3040 C   0  0  0  0  0  0  0  0  0  0  0  0
   -3.6632    5.8690  -21.2275 N   0  0  0  0  0  0  0  0  0  0  0  0
   -3.3223    4.9662  -20.0768 C   0  0  0  0  0  0  0  0  0  0  0  0
   -7.0933    5.3072  -15.1283 C   0  0  2  0  0  0  0  0  0  0  0  0
   -6.5978    5.1664  -13.6289 C   0  0  0  0  0  0  0  0  0  0  0  0
   -5.5298    5.5596  -13.3430 O   0  0  0  0  0  0  0  0  0  0  0  0
   -7.7343    4.5797  -12.7302 N   0  0  0  0  0  0  0  0  0  0  0  0
   -7.8180    4.4527  -11.3423 C   0  0  0  0  0  0  0  0  0  0  0  0
   -8.4835    3.3238  -10.8392 C   0  0  0  0  0  0  0  0  0  0  0  0
   -8.6030    3.1772   -9.4655 C   0  0  0  0  0  0  0  0  0  0  0  0
   -8.1419    4.1546   -8.5978 C   0  0  0  0  0  0  0  0  0  0  0  0
   -7.5170    5.2895   -9.0720 C   0  0  0  0  0  0  0  0  0  0  0  0
   -7.3448    5.4533  -10.4596 C   0  0  0  0  0  0  0  0  0  0  0  0
   -6.6994    6.7334  -10.9139 C   0  0  0  0  0  0  0  0  0  0  0  0
   -8.4754    3.7780   -7.1958 C   0  0  0  0  0  0  0  0  0  0  0  0
   -8.8872    2.3599   -7.2478 N   0  0  0  0  0  0  0  0  0  0  0  0
   -9.2263    2.0821   -8.6685 C   0  0  0  0  0  0  0  0  0  0  0  0
   -8.3491    4.5674  -15.6211 C   0  0  0  0  0  0  0  0  0  0  0  0
  1  2  1  0
  3  2  1  6
  3  4  1  0
  4  5  1  0
  5  6  2  0
  6  7  1  0
  7  8  1  0
  8  9  1  0
  9 10  1  0
 10 11  1  0
 11 12  1  0
 12 13  1  0
  6 14  1  0
 14 15  1  1
 15 16  2  0
 15 17  1  0
 17 18  1  0
 18 19  2  0
 19 20  1  0
 20 21  2  0
 21 22  1  0
 22 23  2  0
 23 24  1  0
 21 25  1  0
 25 26  1  0
 26 27  1  0
 14 28  1  0
 28  3  1  0
  9  5  1  0
 13 10  1  0
 23 18  1  0
 27 20  1  0
M  END
>  <smiles>  (2023) 
C29817-P237

>  <fragmenstein_outcome>  (2023) 
acceptable

>  <inchikey>  (2023) 
DYMDNVMIXYLQGL-UHFFFAOYSA-N

>  <fragmenstein_mode>  (2023) 
expansion

>  <HIPPO Pose ID>  (2023) 
25042

>  <Energy>  (2023) 
134.07722

>  <fragmenstein_error>  (2023) 


>  <tags>  (2023) 
{'openbind_xx01zvns2b_c1_fragmenstein', 'fragmenstein_placed'}

>  <ref_pdb>  (2023) 
175

>  <scratch_subdir>  (2023) 
/opt/xchem-fragalysis-2/maxwin/BulkDock/SCRATCH/511028/C29817-P237

>  <alias>  (2023) 
CC[C@H]1CC2=C(CNN2C2CNC2)[C@H](C(=O)Nc2cc3c(cc2C)CNC3)C1

>  <HIPPO Compound ID>  (2023) 
29817

>  <fragmenstein_runtime>  (2023) 
7.375592

$$$$
O=C(C(=O)c1cc(Cl)cc2c1cnn2C1CNC1)c1ccc2c(c1)CNC2
     RDKit          3D

 27 31  0  0  0  0  0  0  0  0999 V2000
   -9.3230    5.2709  -13.3873 O   0  0  0  0  0  0  0  0  0  0  0  0
   -8.3165    4.7812  -12.8862 C   0  0  0  0  0  0  0  0  0  0  0  0
   -7.0566    4.6832  -13.7130 C   0  0  0  0  0  0  0  0  0  0  0  0
   -5.9816    4.7801  -13.1346 O   0  0  0  0  0  0  0  0  0  0  0  0
   -7.1350    4.6049  -15.1937 C   0  0  0  0  0  0  0  0  0  0  0  0
   -8.3069    4.2219  -15.8484 C   0  0  0  0  0  0  0  0  0  0  0  0
   -8.3682    4.2433  -17.2327 C   0  0  0  0  0  0  0  0  0  0  0  0
   -9.8729    3.8969  -17.9651 Cl  0  0  0  0  0  0  0  0  0  0  0  0
   -7.2795    4.6226  -18.0248 C   0  0  0  0  0  0  0  0  0  0  0  0
   -6.0902    4.9781  -17.3767 C   0  0  0  0  0  0  0  0  0  0  0  0
   -6.0076    4.9545  -15.9749 C   0  0  0  0  0  0  0  0  0  0  0  0
   -4.6784    5.3295  -15.6978 C   0  0  0  0  0  0  0  0  0  0  0  0
   -3.9705    5.5781  -16.7934 N   0  0  0  0  0  0  0  0  0  0  0  0
   -4.8425    5.3975  -17.8113 N   0  0  0  0  0  0  0  0  0  0  0  0
   -4.4215    5.9137  -19.1315 C   0  0  0  0  0  0  0  0  0  0  0  0
   -5.0251    5.3824  -20.4301 C   0  0  0  0  0  0  0  0  0  0  0  0
   -3.6582    5.3616  -21.0028 N   0  0  0  0  0  0  0  0  0  0  0  0
   -3.1398    5.1941  -19.6263 C   0  0  0  0  0  0  0  0  0  0  0  0
   -8.2674    4.4714  -11.4476 C   0  0  0  0  0  0  0  0  0  0  0  0
   -8.0579    5.5514  -10.5668 C   0  0  0  0  0  0  0  0  0  0  0  0
   -8.1386    5.3629   -9.1873 C   0  0  0  0  0  0  0  0  0  0  0  0
   -8.4531    4.0983   -8.7245 C   0  0  0  0  0  0  0  0  0  0  0  0
   -8.6350    3.0240   -9.5977 C   0  0  0  0  0  0  0  0  0  0  0  0
   -8.5389    3.1848  -10.9722 C   0  0  0  0  0  0  0  0  0  0  0  0
   -8.9535    1.8052   -8.7908 C   0  0  0  0  0  0  0  0  0  0  0  0
   -9.3489    2.3203   -7.4541 N   0  0  0  0  0  0  0  0  0  0  0  0
   -8.6862    3.6347   -7.3238 C   0  0  0  0  0  0  0  0  0  0  0  0
  1  2  2  0
  2  3  1  0
  3  4  2  0
  3  5  1  0
  5  6  2  0
  6  7  1  0
  7  8  1  0
  7  9  2  0
  9 10  1  0
 10 11  2  0
 11 12  1  0
 12 13  2  0
 13 14  1  0
 14 15  1  0
 15 16  1  0
 16 17  1  0
 17 18  1  0
  2 19  1  0
 19 20  2  0
 20 21  1  0
 21 22  2  0
 22 23  1  0
 23 24  2  0
 23 25  1  0
 25 26  1  0
 26 27  1  0
 11  5  1  0
 18 15  1  0
 24 19  1  0
 14 10  1  0
 27 22  1  0
M  END
>  <smiles>  (2024) 
C30032-P237

>  <fragmenstein_outcome>  (2024) 
acceptable

>  <inchikey>  (2024) 
NWONASKPCRUFHZ-UHFFFAOYSA-N

>  <fragmenstein_mode>  (2024) 
expansion

>  <HIPPO Pose ID>  (2024) 
25049

>  <Energy>  (2024) 
117.561868

>  <fragmenstein_error>  (2024) 


>  <tags>  (2024) 
{'openbind_xx01zvns2b_c1_fragmenstein', 'fragmenstein_placed'}

>  <ref_pdb>  (2024) 
175

>  <scratch_subdir>  (2024) 
/opt/xchem-fragalysis-2/maxwin/BulkDock/SCRATCH/511028/C30032-P237

>  <alias>  (2024) 
O=C(C(=O)c1cc(Cl)cc2c1cnn2C1CNC1)c1ccc2c(c1)CNC2

>  <HIPPO Compound ID>  (2024) 
30032

>  <fragmenstein_runtime>  (2024) 
2.982117

$$$$
N#C[C@](O)(Nc1ccc2c(c1)CNC2)c1cc(Cl)cc2c1cnn2C1CNC1
     RDKit          3D

 28 32  0  0  0  0  0  0  0  0999 V2000
   -4.8942    4.6403  -12.2982 N   0  0  0  0  0  0  0  0  0  0  0  0
   -5.9363    4.7883  -12.7976 C   0  0  0  0  0  0  0  0  0  0  0  0
   -7.2668    4.9830  -13.4475 C   0  0  2  0  0  0  0  0  0  0  0  0
   -7.6858    6.3441  -13.3731 O   0  0  0  0  0  0  0  0  0  0  0  0
   -8.3275    4.2074  -12.7917 N   0  0  0  0  0  0  0  0  0  0  0  0
   -8.3366    4.1365  -11.3750 C   0  0  0  0  0  0  0  0  0  0  0  0
   -8.1083    5.2594  -10.5443 C   0  0  0  0  0  0  0  0  0  0  0  0
   -8.1994    5.1803   -9.1494 C   0  0  0  0  0  0  0  0  0  0  0  0
   -8.5480    3.9713   -8.5888 C   0  0  0  0  0  0  0  0  0  0  0  0
   -8.7738    2.8557   -9.3852 C   0  0  0  0  0  0  0  0  0  0  0  0
   -8.6884    2.9220  -10.7666 C   0  0  0  0  0  0  0  0  0  0  0  0
   -9.0807    1.6911   -8.5038 C   0  0  0  0  0  0  0  0  0  0  0  0
   -9.4513    2.2924   -7.1965 N   0  0  0  0  0  0  0  0  0  0  0  0
   -8.7603    3.6005   -7.1594 C   0  0  0  0  0  0  0  0  0  0  0  0
   -7.2246    4.7391  -14.9638 C   0  0  0  0  0  0  0  0  0  0  0  0
   -8.3979    4.3446  -15.6515 C   0  0  0  0  0  0  0  0  0  0  0  0
   -8.4384    4.2434  -17.0364 C   0  0  0  0  0  0  0  0  0  0  0  0
   -9.9270    3.8780  -17.7986 Cl  0  0  0  0  0  0  0  0  0  0  0  0
   -7.3319    4.5420  -17.8256 C   0  0  0  0  0  0  0  0  0  0  0  0
   -6.1562    4.9456  -17.1786 C   0  0  0  0  0  0  0  0  0  0  0  0
   -6.0902    5.0362  -15.7805 C   0  0  0  0  0  0  0  0  0  0  0  0
   -4.7684    5.4801  -15.5355 C   0  0  0  0  0  0  0  0  0  0  0  0
   -4.0519    5.6392  -16.6389 N   0  0  0  0  0  0  0  0  0  0  0  0
   -4.9112    5.3586  -17.6332 N   0  0  0  0  0  0  0  0  0  0  0  0
   -4.4786    5.7542  -18.9803 C   0  0  0  0  0  0  0  0  0  0  0  0
   -4.8353    4.8628  -20.1528 C   0  0  0  0  0  0  0  0  0  0  0  0
   -5.2123    6.0740  -20.9096 N   0  0  0  0  0  0  0  0  0  0  0  0
   -5.3921    6.7835  -19.6309 C   0  0  0  0  0  0  0  0  0  0  0  0
  1  2  3  0
  2  3  1  0
  3  4  1  6
  3  5  1  0
  5  6  1  0
  6  7  2  0
  7  8  1  0
  8  9  2  0
  9 10  1  0
 10 11  2  0
 10 12  1  0
 12 13  1  0
 13 14  1  0
  3 15  1  0
 15 16  2  0
 16 17  1  0
 17 18  1  0
 17 19  2  0
 19 20  1  0
 20 21  2  0
 21 22  1  0
 22 23  2  0
 23 24  1  0
 24 25  1  0
 25 26  1  0
 26 27  1  0
 27 28  1  0
 11  6  1  0
 21 15  1  0
 28 25  1  0
 14  9  1  0
 24 20  1  0
M  END
>  <smiles>  (2025) 
C30061-P237

>  <fragmenstein_outcome>  (2025) 
acceptable

>  <inchikey>  (2025) 
NXKVEYBXDZYDTQ-UHFFFAOYSA-N

>  <fragmenstein_mode>  (2025) 
expansion

>  <HIPPO Pose ID>  (2025) 
25061

>  <Energy>  (2025) 
76.794376

>  <fragmenstein_error>  (2025) 


>  <tags>  (2025) 
{'openbind_xx01zvns2b_c1_fragmenstein', 'fragmenstein_placed'}

>  <ref_pdb>  (2025) 
175

>  <scratch_subdir>  (2025) 
/opt/xchem-fragalysis-2/maxwin/BulkDock/SCRATCH/511028/C30061-P237

>  <alias>  (2025) 
N#C[C@](O)(Nc1ccc2c(c1)CNC2)c1cc(Cl)cc2c1cnn2C1CNC1

>  <HIPPO Compound ID>  (2025) 
30061

>  <fragmenstein_runtime>  (2025) 
3.829795

$$$$
O=C(Nc1ccc2c(c1)CNC2)c1cc2scnc2c2c1cnn2C1CNC1
     RDKit          3D

 28 33  0  0  0  0  0  0  0  0999 V2000
   -6.8522    6.4675  -13.0733 O   0  0  0  0  0  0  0  0  0  0  0  0
   -7.1775    5.3844  -13.3626 C   0  0  0  0  0  0  0  0  0  0  0  0
   -7.7482    4.2426  -12.4902 N   0  0  0  0  0  0  0  0  0  0  0  0
   -7.9411    4.1669  -11.1179 C   0  0  0  0  0  0  0  0  0  0  0  0
   -7.7424    5.2801  -10.2878 C   0  0  0  0  0  0  0  0  0  0  0  0
   -8.0082    5.2014   -8.9178 C   0  0  0  0  0  0  0  0  0  0  0  0
   -8.4667    4.0003   -8.4101 C   0  0  0  0  0  0  0  0  0  0  0  0
   -8.6441    2.8922   -9.2328 C   0  0  0  0  0  0  0  0  0  0  0  0
   -8.3926    2.9555  -10.5895 C   0  0  0  0  0  0  0  0  0  0  0  0
   -9.0819    1.7338   -8.4026 C   0  0  0  0  0  0  0  0  0  0  0  0
   -9.5440    2.3327   -7.1249 N   0  0  0  0  0  0  0  0  0  0  0  0
   -8.8246    3.6223   -7.0116 C   0  0  0  0  0  0  0  0  0  0  0  0
   -7.1615    4.9928  -14.7879 C   0  0  0  0  0  0  0  0  0  0  0  0
   -8.3555    4.4428  -15.3428 C   0  0  0  0  0  0  0  0  0  0  0  0
   -8.3871    4.1906  -16.7134 C   0  0  0  0  0  0  0  0  0  0  0  0
   -9.6042    3.6367  -17.7584 S   0  0  0  0  0  0  0  0  0  0  0  0
   -8.4906    3.6903  -19.0585 C   0  0  0  0  0  0  0  0  0  0  0  0
   -7.2889    4.1500  -18.7982 N   0  0  0  0  0  0  0  0  0  0  0  0
   -7.2798    4.4764  -17.4886 C   0  0  0  0  0  0  0  0  0  0  0  0
   -6.1781    5.0637  -16.9526 C   0  0  0  0  0  0  0  0  0  0  0  0
   -6.0609    5.3212  -15.6090 C   0  0  0  0  0  0  0  0  0  0  0  0
   -4.7826    5.9009  -15.5306 C   0  0  0  0  0  0  0  0  0  0  0  0
   -4.1983    6.0502  -16.7310 N   0  0  0  0  0  0  0  0  0  0  0  0
   -5.1121    5.5615  -17.6152 N   0  0  0  0  0  0  0  0  0  0  0  0
   -5.1339    5.9809  -19.0378 C   0  0  0  0  0  0  0  0  0  0  0  0
   -4.5488    4.9672  -20.0272 C   0  0  0  0  0  0  0  0  0  0  0  0
   -3.9682    6.1164  -20.7850 N   0  0  0  0  0  0  0  0  0  0  0  0
   -3.9462    6.8484  -19.4898 C   0  0  0  0  0  0  0  0  0  0  0  0
  1  2  2  0
  2  3  1  0
  3  4  1  0
  4  5  2  0
  5  6  1  0
  6  7  2  0
  7  8  1  0
  8  9  2  0
  8 10  1  0
 10 11  1  0
 11 12  1  0
  2 13  1  0
 13 14  2  0
 14 15  1  0
 15 16  1  0
 16 17  1  0
 17 18  2  0
 18 19  1  0
 19 20  1  0
 20 21  2  0
 21 22  1  0
 22 23  2  0
 23 24  1  0
 24 25  1  0
 25 26  1  0
 26 27  1  0
 27 28  1  0
  9  4  1  0
 21 13  1  0
 28 25  1  0
 12  7  1  0
 19 15  2  0
 24 20  1  0
M  END
>  <smiles>  (2026) 
C29869-P237

>  <fragmenstein_outcome>  (2026) 
acceptable

>  <inchikey>  (2026) 
PQIDBBXVZRPWFV-UHFFFAOYSA-N

>  <fragmenstein_mode>  (2026) 
expansion

>  <HIPPO Pose ID>  (2026) 
25064

>  <Energy>  (2026) 
71.086548

>  <fragmenstein_error>  (2026) 


>  <tags>  (2026) 
{'openbind_xx01zvns2b_c1_fragmenstein', 'fragmenstein_placed'}

>  <ref_pdb>  (2026) 
175

>  <scratch_subdir>  (2026) 
/opt/xchem-fragalysis-2/maxwin/BulkDock/SCRATCH/511028/C29869-P237

>  <alias>  (2026) 
O=C(Nc1ccc2c(c1)CNC2)c1cc2scnc2c2c1cnn2C1CNC1

>  <HIPPO Compound ID>  (2026) 
19150

>  <fragmenstein_runtime>  (2026) 
4.239554

$$$$
CCc1cc(C(=O)Nc2ccc3c(c2)CNC3)c2cnn(C3CNC3)c2c1
     RDKit          3D

 27 31  0  0  0  0  0  0  0  0999 V2000
  -10.7705    4.2435  -17.8613 C   0  0  0  0  0  0  0  0  0  0  0  0
   -9.4159    3.6510  -18.1833 C   0  0  0  0  0  0  0  0  0  0  0  0
   -8.2894    4.1775  -17.3354 C   0  0  0  0  0  0  0  0  0  0  0  0
   -8.4391    4.3796  -15.9541 C   0  0  0  0  0  0  0  0  0  0  0  0
   -7.3970    4.9379  -15.2063 C   0  0  0  0  0  0  0  0  0  0  0  0
   -7.5843    5.3644  -13.8028 C   0  0  0  0  0  0  0  0  0  0  0  0
   -7.4310    6.4955  -13.5576 O   0  0  0  0  0  0  0  0  0  0  0  0
   -7.9642    4.1840  -12.8840 N   0  0  0  0  0  0  0  0  0  0  0  0
   -8.1367    4.1316  -11.5009 C   0  0  0  0  0  0  0  0  0  0  0  0
   -7.9643    5.2817  -10.7101 C   0  0  0  0  0  0  0  0  0  0  0  0
   -8.1339    5.2356   -9.3224 C   0  0  0  0  0  0  0  0  0  0  0  0
   -8.4874    4.0296   -8.7505 C   0  0  0  0  0  0  0  0  0  0  0  0
   -8.6498    2.8863   -9.5278 C   0  0  0  0  0  0  0  0  0  0  0  0
   -8.4737    2.9154  -10.9024 C   0  0  0  0  0  0  0  0  0  0  0  0
   -8.9958    1.7415   -8.6332 C   0  0  0  0  0  0  0  0  0  0  0  0
   -9.4128    2.3663   -7.3502 N   0  0  0  0  0  0  0  0  0  0  0  0
   -8.7447    3.6865   -7.3213 C   0  0  0  0  0  0  0  0  0  0  0  0
   -6.1763    5.2304  -15.8342 C   0  0  0  0  0  0  0  0  0  0  0  0
   -4.9364    5.7536  -15.4207 C   0  0  0  0  0  0  0  0  0  0  0  0
   -4.0486    5.8129  -16.4099 N   0  0  0  0  0  0  0  0  0  0  0  0
   -4.7348    5.3776  -17.4868 N   0  0  0  0  0  0  0  0  0  0  0  0
   -4.0904    5.2335  -18.7974 C   0  0  0  0  0  0  0  0  0  0  0  0
   -4.6799    6.1512  -19.8782 C   0  0  0  0  0  0  0  0  0  0  0  0
   -3.3020    6.4734  -20.3152 N   0  0  0  0  0  0  0  0  0  0  0  0
   -2.8189    6.0857  -18.9674 C   0  0  0  0  0  0  0  0  0  0  0  0
   -6.0273    4.9931  -17.1977 C   0  0  0  0  0  0  0  0  0  0  0  0
   -7.0682    4.4718  -17.9740 C   0  0  0  0  0  0  0  0  0  0  0  0
  1  2  1  0
  2  3  1  0
  3  4  2  0
  4  5  1  0
  5  6  1  0
  6  7  2  0
  6  8  1  0
  8  9  1  0
  9 10  2  0
 10 11  1  0
 11 12  2  0
 12 13  1  0
 13 14  2  0
 13 15  1  0
 15 16  1  0
 16 17  1  0
  5 18  2  0
 18 19  1  0
 19 20  2  0
 20 21  1  0
 21 22  1  0
 22 23  1  0
 23 24  1  0
 24 25  1  0
 21 26  1  0
 26 27  2  0
 27  3  1  0
 14  9  1  0
 26 18  1  0
 17 12  1  0
 25 22  1  0
M  END
>  <smiles>  (2027) 
C29870-P237

>  <fragmenstein_outcome>  (2027) 
acceptable

>  <inchikey>  (2027) 
CCEYTWSHCWFKRL-UHFFFAOYSA-N

>  <fragmenstein_mode>  (2027) 
expansion

>  <HIPPO Pose ID>  (2027) 
25065

>  <Energy>  (2027) 
73.994461

>  <fragmenstein_error>  (2027) 


>  <tags>  (2027) 
{'openbind_xx01zvns2b_c1_fragmenstein', 'fragmenstein_placed'}

>  <ref_pdb>  (2027) 
175

>  <scratch_subdir>  (2027) 
/opt/xchem-fragalysis-2/maxwin/BulkDock/SCRATCH/511028/C29870-P237

>  <alias>  (2027) 
CCc1cc(C(=O)Nc2ccc3c(c2)CNC3)c2cnn(C3CNC3)c2c1

>  <HIPPO Compound ID>  (2027) 
29870

>  <fragmenstein_runtime>  (2027) 
6.485126

$$$$
O=C(Nc1ccc2c(c1)CNC2)c1cc(Cl)cc2c1c[n+]([O-])n2C1CNC1
     RDKit          3D

 27 31  0  0  0  0  0  0  0  0999 V2000
   -6.8790    6.4384  -13.4716 O   0  0  0  0  0  0  0  0  0  0  0  0
   -7.2467    5.3621  -13.7363 C   0  0  0  0  0  0  0  0  0  0  0  0
   -7.7482    4.2214  -12.8216 N   0  0  0  0  0  0  0  0  0  0  0  0
   -7.9835    4.1996  -11.4484 C   0  0  0  0  0  0  0  0  0  0  0  0
   -7.8047    5.3526  -10.6670 C   0  0  0  0  0  0  0  0  0  0  0  0
   -8.0060    5.3209   -9.2838 C   0  0  0  0  0  0  0  0  0  0  0  0
   -8.3771    4.1227   -8.7041 C   0  0  0  0  0  0  0  0  0  0  0  0
   -8.5676    2.9834   -9.4751 C   0  0  0  0  0  0  0  0  0  0  0  0
   -8.3840    3.0024  -10.8496 C   0  0  0  0  0  0  0  0  0  0  0  0
   -8.9803    1.8533   -8.5957 C   0  0  0  0  0  0  0  0  0  0  0  0
   -8.8705    2.3495   -7.1980 N   0  0  0  0  0  0  0  0  0  0  0  0
   -8.6530    3.8100   -7.2747 C   0  0  0  0  0  0  0  0  0  0  0  0
   -7.2314    4.9531  -15.1612 C   0  0  0  0  0  0  0  0  0  0  0  0
   -8.3966    4.4672  -15.7556 C   0  0  0  0  0  0  0  0  0  0  0  0
   -8.4167    4.2320  -17.1241 C   0  0  0  0  0  0  0  0  0  0  0  0
   -9.9054    3.8065  -17.8474 Cl  0  0  0  0  0  0  0  0  0  0  0  0
   -7.2999    4.4371  -17.9427 C   0  0  0  0  0  0  0  0  0  0  0  0
   -6.1328    4.9157  -17.3380 C   0  0  0  0  0  0  0  0  0  0  0  0
   -6.0667    5.1768  -15.9370 C   0  0  0  0  0  0  0  0  0  0  0  0
   -4.7314    5.6244  -15.5771 C   0  0  0  0  0  0  0  0  0  0  0  0
   -4.0056    5.6244  -16.7015 N   0  0  0  0  0  0  0  0  0  0  0  0
   -2.7892    5.8597  -16.8803 O   0  0  0  0  0  0  0  0  0  0  0  0
   -4.8669    5.2338  -17.8086 N   0  0  0  0  0  0  0  0  0  0  0  0
   -4.3288    5.0186  -19.1652 C   0  0  0  0  0  0  0  0  0  0  0  0
   -5.2150    5.4858  -20.3195 C   0  0  0  0  0  0  0  0  0  0  0  0
   -4.0126    6.0202  -20.9984 N   0  0  0  0  0  0  0  0  0  0  0  0
   -3.3864    6.1399  -19.6606 C   0  0  0  0  0  0  0  0  0  0  0  0
  1  2  2  0
  2  3  1  0
  3  4  1  0
  4  5  2  0
  5  6  1  0
  6  7  2  0
  7  8  1  0
  8  9  2  0
  8 10  1  0
 10 11  1  0
 11 12  1  0
  2 13  1  0
 13 14  2  0
 14 15  1  0
 15 16  1  0
 15 17  2  0
 17 18  1  0
 18 19  2  0
 19 20  1  0
 20 21  2  0
 21 22  1  0
 21 23  1  0
 23 24  1  0
 24 25  1  0
 25 26  1  0
 26 27  1  0
  9  4  1  0
 19 13  1  0
 27 24  1  0
 12  7  1  0
 23 18  1  0
M  CHG  2  21   1  22  -1
M  END
>  <smiles>  (2028) 
C29983-P237

>  <fragmenstein_outcome>  (2028) 
acceptable

>  <inchikey>  (2028) 
YWLHDJQOWGOFHP-UHFFFAOYSA-N

>  <fragmenstein_mode>  (2028) 
expansion

>  <HIPPO Pose ID>  (2028) 
25068

>  <Energy>  (2028) 
59.212289

>  <fragmenstein_error>  (2028) 


>  <tags>  (2028) 
{'openbind_xx01zvns2b_c1_fragmenstein', 'fragmenstein_placed'}

>  <ref_pdb>  (2028) 
175

>  <scratch_subdir>  (2028) 
/opt/xchem-fragalysis-2/maxwin/BulkDock/SCRATCH/511028/C29983-P237

>  <alias>  (2028) 
O=C(Nc1ccc2c(c1)CNC2)c1cc(Cl)cc2c1c[n+]([O-])n2C1CNC1

>  <HIPPO Compound ID>  (2028) 
32540

>  <fragmenstein_runtime>  (2028) 
7.599783

$$$$
O=C(Nc1cc2c3c(csc3c1)NC2)c1cc(Cl)cc2c1cnn2C1CNC1
     RDKit          3D

 28 33  0  0  0  0  0  0  0  0999 V2000
   -6.9342    6.2592  -13.3201 O   0  0  0  0  0  0  0  0  0  0  0  0
   -7.3618    5.2067  -13.5877 C   0  0  0  0  0  0  0  0  0  0  0  0
   -7.9007    4.0848  -12.6760 N   0  0  0  0  0  0  0  0  0  0  0  0
   -8.1081    4.0590  -11.2966 C   0  0  0  0  0  0  0  0  0  0  0  0
   -8.5146    2.8385  -10.7195 C   0  0  0  0  0  0  0  0  0  0  0  0
   -8.6859    2.7834   -9.3523 C   0  0  0  0  0  0  0  0  0  0  0  0
   -8.4735    3.9381   -8.6343 C   0  0  0  0  0  0  0  0  0  0  0  0
   -8.6378    3.8245   -7.2674 C   0  0  0  0  0  0  0  0  0  0  0  0
   -8.3342    4.9786   -6.6140 C   0  0  0  0  0  0  0  0  0  0  0  0
   -7.8843    6.2106   -7.7864 S   0  0  0  0  0  0  0  0  0  0  0  0
   -8.0646    5.1380   -9.1351 C   0  0  0  0  0  0  0  0  0  0  0  0
   -7.8773    5.2314  -10.5201 C   0  0  0  0  0  0  0  0  0  0  0  0
   -9.0200    2.5418   -6.9911 N   0  0  0  0  0  0  0  0  0  0  0  0
   -9.0053    1.7404   -8.3216 C   0  0  0  0  0  0  0  0  0  0  0  0
   -7.3980    4.8225  -15.0193 C   0  0  0  0  0  0  0  0  0  0  0  0
   -8.5722    4.3474  -15.6102 C   0  0  0  0  0  0  0  0  0  0  0  0
   -8.6402    4.2288  -16.9942 C   0  0  0  0  0  0  0  0  0  0  0  0
  -10.1471    3.8963  -17.7340 Cl  0  0  0  0  0  0  0  0  0  0  0  0
   -7.5630    4.5445  -17.8253 C   0  0  0  0  0  0  0  0  0  0  0  0
   -6.3917    5.0104  -17.2186 C   0  0  0  0  0  0  0  0  0  0  0  0
   -6.2916    5.1376  -15.8326 C   0  0  0  0  0  0  0  0  0  0  0  0
   -4.9989    5.6497  -15.6128 C   0  0  0  0  0  0  0  0  0  0  0  0
   -4.3418    5.8898  -16.7431 N   0  0  0  0  0  0  0  0  0  0  0  0
   -5.1976    5.4985  -17.7163 N   0  0  0  0  0  0  0  0  0  0  0  0
   -5.0081    6.0082  -19.0957 C   0  0  0  0  0  0  0  0  0  0  0  0
   -3.5218    5.9832  -19.5367 C   0  0  0  0  0  0  0  0  0  0  0  0
   -3.7689    4.6432  -20.1063 N   0  0  0  0  0  0  0  0  0  0  0  0
   -5.1986    4.9922  -20.2242 C   0  0  0  0  0  0  0  0  0  0  0  0
  1  2  2  0
  2  3  1  0
  3  4  1  0
  4  5  2  0
  5  6  1  0
  6  7  2  0
  7  8  1  0
  8  9  2  0
  9 10  1  0
 10 11  1  0
 11 12  2  0
  8 13  1  0
 13 14  1  0
  2 15  1  0
 15 16  2  0
 16 17  1  0
 17 18  1  0
 17 19  2  0
 19 20  1  0
 20 21  2  0
 21 22  1  0
 22 23  2  0
 23 24  1  0
 24 25  1  0
 25 26  1  0
 26 27  1  0
 27 28  1  0
 12  4  1  0
 21 15  1  0
 28 25  1  0
 14  6  1  0
 24 20  1  0
 11  7  1  0
M  END
>  <smiles>  (2029) 
C30091-P237

>  <fragmenstein_outcome>  (2029) 
acceptable

>  <inchikey>  (2029) 
BDBFEWUNXUWTNP-UHFFFAOYSA-N

>  <fragmenstein_mode>  (2029) 
expansion

>  <HIPPO Pose ID>  (2029) 
25074

>  <Energy>  (2029) 
98.644892

>  <fragmenstein_error>  (2029) 


>  <tags>  (2029) 
{'openbind_xx01zvns2b_c1_fragmenstein', 'fragmenstein_placed'}

>  <ref_pdb>  (2029) 
175

>  <scratch_subdir>  (2029) 
/opt/xchem-fragalysis-2/maxwin/BulkDock/SCRATCH/511028/C30091-P237

>  <alias>  (2029) 
O=C(Nc1cc2c3c(csc3c1)NC2)c1cc(Cl)cc2c1cnn2C1CNC1

>  <HIPPO Compound ID>  (2029) 
40301

>  <fragmenstein_runtime>  (2029) 
5.171973

$$$$
O=C(NCC(F)F)[C@@](Nc1ccc2c(c1)CNC2)(OCc1ccccn1)c1cc(Cl)cc2c1cnn2C1CNC1
     RDKit          3D

 40 45  0  0  0  0  0  0  0  0999 V2000
   -4.9757    3.7293  -12.8551 O   0  0  0  0  0  0  0  0  0  0  0  0
   -5.5243    4.7622  -12.8366 C   0  0  0  0  0  0  0  0  0  0  0  0
   -5.0666    6.1374  -12.2655 N   0  0  0  0  0  0  0  0  0  0  0  0
   -3.8830    6.4953  -11.5184 C   0  0  0  0  0  0  0  0  0  0  0  0
   -3.9728    6.1070  -10.0459 C   0  0  0  0  0  0  0  0  0  0  0  0
   -2.7880    6.3691   -9.4350 F   0  0  0  0  0  0  0  0  0  0  0  0
   -4.8980    6.8950   -9.4316 F   0  0  0  0  0  0  0  0  0  0  0  0
   -7.0282    4.9892  -13.4226 C   0  0  1  0  0  0  0  0  0  0  0  0
   -7.8903    4.0224  -12.7149 N   0  0  0  0  0  0  0  0  0  0  0  0
   -7.9781    3.9938  -11.3055 C   0  0  0  0  0  0  0  0  0  0  0  0
   -7.7651    5.1130  -10.4710 C   0  0  0  0  0  0  0  0  0  0  0  0
   -7.9733    5.0784   -9.0880 C   0  0  0  0  0  0  0  0  0  0  0  0
   -8.4077    3.8998   -8.5295 C   0  0  0  0  0  0  0  0  0  0  0  0
   -8.6340    2.7874   -9.3221 C   0  0  0  0  0  0  0  0  0  0  0  0
   -8.4494    2.8228  -10.6983 C   0  0  0  0  0  0  0  0  0  0  0  0
   -9.0338    1.6426   -8.4588 C   0  0  0  0  0  0  0  0  0  0  0  0
   -9.2318    2.1970   -7.0923 N   0  0  0  0  0  0  0  0  0  0  0  0
   -8.6972    3.5744   -7.1070 C   0  0  0  0  0  0  0  0  0  0  0  0
   -7.4287    6.3661  -13.2196 O   0  0  0  0  0  0  0  0  0  0  0  0
   -8.8420    6.5674  -13.1884 C   0  0  0  0  0  0  0  0  0  0  0  0
   -9.2563    7.9686  -12.7933 C   0  0  0  0  0  0  0  0  0  0  0  0
   -8.4984    8.7634  -11.9402 C   0  0  0  0  0  0  0  0  0  0  0  0
   -9.0102    9.9966  -11.5406 C   0  0  0  0  0  0  0  0  0  0  0  0
  -10.2642   10.3976  -11.9880 C   0  0  0  0  0  0  0  0  0  0  0  0
  -10.9579    9.5501  -12.8311 C   0  0  0  0  0  0  0  0  0  0  0  0
  -10.4774    8.3579  -13.2432 N   0  0  0  0  0  0  0  0  0  0  0  0
   -7.0522    4.7507  -14.9561 C   0  0  0  0  0  0  0  0  0  0  0  0
   -8.2378    4.3003  -15.5929 C   0  0  0  0  0  0  0  0  0  0  0  0
   -8.3456    4.2174  -16.9794 C   0  0  0  0  0  0  0  0  0  0  0  0
   -9.8465    3.7923  -17.6937 Cl  0  0  0  0  0  0  0  0  0  0  0  0
   -7.2887    4.5617  -17.8192 C   0  0  0  0  0  0  0  0  0  0  0  0
   -6.0925    4.9797  -17.2252 C   0  0  0  0  0  0  0  0  0  0  0  0
   -5.9685    5.0711  -15.8273 C   0  0  0  0  0  0  0  0  0  0  0  0
   -4.6449    5.5248  -15.6401 C   0  0  0  0  0  0  0  0  0  0  0  0
   -3.9877    5.7225  -16.7719 N   0  0  0  0  0  0  0  0  0  0  0  0
   -4.8695    5.3946  -17.7346 N   0  0  0  0  0  0  0  0  0  0  0  0
   -4.4555    5.7321  -19.1043 C   0  0  0  0  0  0  0  0  0  0  0  0
   -5.2708    6.8585  -19.7252 C   0  0  0  0  0  0  0  0  0  0  0  0
   -5.1447    6.1647  -21.0270 N   0  0  0  0  0  0  0  0  0  0  0  0
   -4.9040    4.8977  -20.2847 C   0  0  0  0  0  0  0  0  0  0  0  0
  1  2  2  0
  2  3  1  0
  3  4  1  0
  4  5  1  0
  5  6  1  0
  5  7  1  0
  2  8  1  0
  8  9  1  1
  9 10  1  0
 10 11  2  0
 11 12  1  0
 12 13  2  0
 13 14  1  0
 14 15  2  0
 14 16  1  0
 16 17  1  0
 17 18  1  0
  8 19  1  0
 19 20  1  0
 20 21  1  0
 21 22  2  0
 22 23  1  0
 23 24  2  0
 24 25  1  0
 25 26  2  0
  8 27  1  0
 27 28  2  0
 28 29  1  0
 29 30  1  0
 29 31  2  0
 31 32  1  0
 32 33  2  0
 33 34  1  0
 34 35  2  0
 35 36  1  0
 36 37  1  0
 37 38  1  0
 38 39  1  0
 39 40  1  0
 15 10  1  0
 26 21  1  0
 33 27  1  0
 40 37  1  0
 18 13  1  0
 36 32  1  0
M  END
>  <smiles>  (2030) 
C30105-P237

>  <fragmenstein_outcome>  (2030) 
acceptable

>  <inchikey>  (2030) 
SIRFKMHBWMFGGR-UHFFFAOYSA-N

>  <fragmenstein_mode>  (2030) 
expansion

>  <HIPPO Pose ID>  (2030) 
25080

>  <Energy>  (2030) 
186.075663

>  <fragmenstein_error>  (2030) 


>  <tags>  (2030) 
{'openbind_xx01zvns2b_c1_fragmenstein', 'fragmenstein_placed'}

>  <ref_pdb>  (2030) 
175

>  <scratch_subdir>  (2030) 
/opt/xchem-fragalysis-2/maxwin/BulkDock/SCRATCH/511028/C30105-P237

>  <alias>  (2030) 
O=C(NCC(F)F)[C@@](Nc1ccc2c(c1)CNC2)(OCc1ccccn1)c1cc(Cl)cc2c1cnn2C1CNC1

>  <HIPPO Compound ID>  (2030) 
30105

>  <fragmenstein_runtime>  (2030) 
10.547296

$$$$
O=C(O)N=C(Nc1ccc2c(c1)CNC2)c1cc(Cl)cc2c1cnn2C1CNC1
     RDKit          3D

 29 33  0  0  0  0  0  0  0  0999 V2000
   -5.5475    7.7421  -14.7926 O   0  0  0  0  0  0  0  0  0  0  0  0
   -6.3878    7.6486  -13.9165 C   0  0  0  0  0  0  0  0  0  0  0  0
   -6.9769    8.7590  -13.4394 O   0  0  0  0  0  0  0  0  0  0  0  0
   -6.8051    6.5712  -13.2320 N   0  0  0  0  0  0  0  0  0  0  0  0
   -7.1552    5.4608  -13.5850 C   0  0  0  0  0  0  0  0  0  0  0  0
   -7.7458    4.2500  -12.7421 N   0  0  0  0  0  0  0  0  0  0  0  0
   -7.9324    4.1074  -11.3676 C   0  0  0  0  0  0  0  0  0  0  0  0
   -7.7770    5.2158  -10.5052 C   0  0  0  0  0  0  0  0  0  0  0  0
   -8.0299    5.1350   -9.1325 C   0  0  0  0  0  0  0  0  0  0  0  0
   -8.4528    3.9264   -8.6273 C   0  0  0  0  0  0  0  0  0  0  0  0
   -8.6032    2.8199   -9.4568 C   0  0  0  0  0  0  0  0  0  0  0  0
   -8.3510    2.8904  -10.8206 C   0  0  0  0  0  0  0  0  0  0  0  0
   -9.0286    1.6566   -8.6235 C   0  0  0  0  0  0  0  0  0  0  0  0
   -9.5053    2.2470   -7.3448 N   0  0  0  0  0  0  0  0  0  0  0  0
   -8.8049    3.5447   -7.2291 C   0  0  0  0  0  0  0  0  0  0  0  0
   -7.1761    5.0587  -15.0565 C   0  0  0  0  0  0  0  0  0  0  0  0
   -8.4035    4.6392  -15.6085 C   0  0  0  0  0  0  0  0  0  0  0  0
   -8.5080    4.3340  -16.9648 C   0  0  0  0  0  0  0  0  0  0  0  0
  -10.0328    3.9357  -17.6385 Cl  0  0  0  0  0  0  0  0  0  0  0  0
   -7.4250    4.4652  -17.8287 C   0  0  0  0  0  0  0  0  0  0  0  0
   -6.2020    4.8424  -17.2648 C   0  0  0  0  0  0  0  0  0  0  0  0
   -6.0440    5.0814  -15.8953 C   0  0  0  0  0  0  0  0  0  0  0  0
   -4.6558    5.2925  -15.7495 C   0  0  0  0  0  0  0  0  0  0  0  0
   -3.9963    5.2697  -16.9085 N   0  0  0  0  0  0  0  0  0  0  0  0
   -4.9643    5.0761  -17.8259 N   0  0  0  0  0  0  0  0  0  0  0  0
   -4.7329    5.2038  -19.2786 C   0  0  0  0  0  0  0  0  0  0  0  0
   -4.4705    6.6631  -19.6955 C   0  0  0  0  0  0  0  0  0  0  0  0
   -3.4184    6.1644  -20.6125 N   0  0  0  0  0  0  0  0  0  0  0  0
   -3.2807    4.9682  -19.7371 C   0  0  0  0  0  0  0  0  0  0  0  0
  1  2  2  0
  2  3  1  0
  2  4  1  0
  4  5  2  3
  5  6  1  0
  6  7  1  0
  7  8  2  0
  8  9  1  0
  9 10  2  0
 10 11  1  0
 11 12  2  0
 11 13  1  0
 13 14  1  0
 14 15  1  0
  5 16  1  0
 16 17  2  0
 17 18  1  0
 18 19  1  0
 18 20  2  0
 20 21  1  0
 21 22  2  0
 22 23  1  0
 23 24  2  0
 24 25  1  0
 25 26  1  0
 26 27  1  0
 27 28  1  0
 28 29  1  0
 12  7  1  0
 22 16  1  0
 29 26  1  0
 15 10  1  0
 25 21  1  0
M  END
>  <smiles>  (2031) 
C30113-P237

>  <fragmenstein_outcome>  (2031) 
acceptable

>  <inchikey>  (2031) 
CJKCRTBFAKXQEI-UHFFFAOYSA-N

>  <fragmenstein_mode>  (2031) 
expansion

>  <HIPPO Pose ID>  (2031) 
25082

>  <Energy>  (2031) 
13.423073

>  <fragmenstein_error>  (2031) 


>  <tags>  (2031) 
{'openbind_xx01zvns2b_c1_fragmenstein', 'fragmenstein_placed'}

>  <ref_pdb>  (2031) 
175

>  <scratch_subdir>  (2031) 
/opt/xchem-fragalysis-2/maxwin/BulkDock/SCRATCH/511028/C30113-P237

>  <alias>  (2031) 
O=C(O)N=C(Nc1ccc2c(c1)CNC2)c1cc(Cl)cc2c1cnn2C1CNC1

>  <HIPPO Compound ID>  (2031) 
30113

>  <fragmenstein_runtime>  (2031) 
6.366083

$$$$
CN1Cc2ccc(NC(=O)c3cc(Cl)cc4c3cnn4C3CNC3)cc2C1
     RDKit          3D

 27 31  0  0  0  0  0  0  0  0999 V2000
  -10.1129    2.2198   -6.1909 C   0  0  0  0  0  0  0  0  0  0  0  0
   -8.9640    2.5179   -7.0240 N   0  0  0  0  0  0  0  0  0  0  0  0
   -8.6691    3.9531   -7.1322 C   0  0  0  0  0  0  0  0  0  0  0  0
   -8.3956    4.2046   -8.5784 C   0  0  0  0  0  0  0  0  0  0  0  0
   -7.9932    5.3723   -9.1974 C   0  0  0  0  0  0  0  0  0  0  0  0
   -7.8379    5.3635  -10.5854 C   0  0  0  0  0  0  0  0  0  0  0  0
   -8.0944    4.2024  -11.3337 C   0  0  0  0  0  0  0  0  0  0  0  0
   -7.9616    4.2157  -12.7210 N   0  0  0  0  0  0  0  0  0  0  0  0
   -7.3417    5.2755  -13.6599 C   0  0  0  0  0  0  0  0  0  0  0  0
   -6.9147    6.3370  -13.4261 O   0  0  0  0  0  0  0  0  0  0  0  0
   -7.3695    4.8494  -15.0766 C   0  0  0  0  0  0  0  0  0  0  0  0
   -8.5549    4.3947  -15.6624 C   0  0  0  0  0  0  0  0  0  0  0  0
   -8.6126    4.2097  -17.0397 C   0  0  0  0  0  0  0  0  0  0  0  0
  -10.1255    3.8936  -17.7714 Cl  0  0  0  0  0  0  0  0  0  0  0  0
   -7.5092    4.4204  -17.8692 C   0  0  0  0  0  0  0  0  0  0  0  0
   -6.3284    4.8621  -17.2616 C   0  0  0  0  0  0  0  0  0  0  0  0
   -6.2411    5.0797  -15.8874 C   0  0  0  0  0  0  0  0  0  0  0  0
   -4.9222    5.5364  -15.6856 C   0  0  0  0  0  0  0  0  0  0  0  0
   -4.2183    5.5948  -16.8155 N   0  0  0  0  0  0  0  0  0  0  0  0
   -5.0905    5.2023  -17.7632 N   0  0  0  0  0  0  0  0  0  0  0  0
   -4.7673    5.2022  -19.1959 C   0  0  0  0  0  0  0  0  0  0  0  0
   -3.2791    4.9969  -19.5445 C   0  0  0  0  0  0  0  0  0  0  0  0
   -3.4586    6.0303  -20.6121 N   0  0  0  0  0  0  0  0  0  0  0  0
   -4.5387    6.6098  -19.7641 C   0  0  0  0  0  0  0  0  0  0  0  0
   -8.5036    3.0293  -10.6943 C   0  0  0  0  0  0  0  0  0  0  0  0
   -8.6400    3.0490   -9.3132 C   0  0  0  0  0  0  0  0  0  0  0  0
   -9.0657    1.9528   -8.3882 C   0  0  0  0  0  0  0  0  0  0  0  0
  1  2  1  0
  2  3  1  0
  3  4  1  0
  4  5  2  0
  5  6  1  0
  6  7  2  0
  7  8  1  0
  8  9  1  0
  9 10  2  0
  9 11  1  0
 11 12  2  0
 12 13  1  0
 13 14  1  0
 13 15  2  0
 15 16  1  0
 16 17  2  0
 17 18  1  0
 18 19  2  0
 19 20  1  0
 20 21  1  0
 21 22  1  0
 22 23  1  0
 23 24  1  0
  7 25  1  0
 25 26  2  0
 26 27  1  0
 27  2  1  0
 26  4  1  0
 17 11  1  0
 24 21  1  0
 20 16  1  0
M  END
>  <smiles>  (2032) 
C253-P237

>  <fragmenstein_outcome>  (2032) 
acceptable

>  <inchikey>  (2032) 
MYAQXUMZIMZULX-UHFFFAOYSA-N

>  <fragmenstein_mode>  (2032) 
expansion

>  <HIPPO Pose ID>  (2032) 
25090

>  <Energy>  (2032) 
72.847067

>  <fragmenstein_error>  (2032) 


>  <tags>  (2032) 
{'openbind_xx01zvns2b_c1_fragmenstein', 'fragmenstein_placed'}

>  <ref_pdb>  (2032) 
175

>  <scratch_subdir>  (2032) 
/opt/xchem-fragalysis-2/maxwin/BulkDock/SCRATCH/511028/C253-P237

>  <alias>  (2032) 
CN1Cc2ccc(NC(=O)c3cc(Cl)cc4c3cnn4C3CNC3)cc2C1

>  <HIPPO Compound ID>  (2032) 
31448

>  <fragmenstein_runtime>  (2032) 
2.963569

$$$$
O=C(Nc1cc(F)c2c(c1)CNC21CCCC1)c1cc(Cl)cc2c1cnn2C1CNC1
     RDKit          3D

 31 36  0  0  0  0  0  0  0  0999 V2000
   -7.0293    6.3896  -13.3243 O   0  0  0  0  0  0  0  0  0  0  0  0
   -7.4359    5.3201  -13.5568 C   0  0  0  0  0  0  0  0  0  0  0  0
   -7.9695    4.2237  -12.6085 N   0  0  0  0  0  0  0  0  0  0  0  0
   -8.1954    4.2477  -11.2333 C   0  0  0  0  0  0  0  0  0  0  0  0
   -8.0076    5.4324  -10.5066 C   0  0  0  0  0  0  0  0  0  0  0  0
   -8.1565    5.4418   -9.1220 C   0  0  0  0  0  0  0  0  0  0  0  0
   -7.9596    6.5815   -8.4466 F   0  0  0  0  0  0  0  0  0  0  0  0
   -8.4745    4.2756   -8.4595 C   0  0  0  0  0  0  0  0  0  0  0  0
   -8.6907    3.1078   -9.1890 C   0  0  0  0  0  0  0  0  0  0  0  0
   -8.5698    3.0742  -10.5742 C   0  0  0  0  0  0  0  0  0  0  0  0
   -9.0300    2.0010   -8.2516 C   0  0  0  0  0  0  0  0  0  0  0  0
   -8.6742    2.5025   -6.9006 N   0  0  0  0  0  0  0  0  0  0  0  0
   -8.5560    3.9857   -6.9955 C   0  0  0  0  0  0  0  0  0  0  0  0
   -9.7114    4.6130   -6.2014 C   0  0  0  0  0  0  0  0  0  0  0  0
   -9.2774    4.5714   -4.7316 C   0  0  0  0  0  0  0  0  0  0  0  0
   -7.7609    4.3992   -4.7407 C   0  0  0  0  0  0  0  0  0  0  0  0
   -7.3570    4.5361   -6.2022 C   0  0  0  0  0  0  0  0  0  0  0  0
   -7.4137    4.8815  -14.9687 C   0  0  0  0  0  0  0  0  0  0  0  0
   -8.5672    4.4097  -15.5990 C   0  0  0  0  0  0  0  0  0  0  0  0
   -8.5598    4.2062  -16.9761 C   0  0  0  0  0  0  0  0  0  0  0  0
  -10.0315    3.8484  -17.7699 Cl  0  0  0  0  0  0  0  0  0  0  0  0
   -7.4241    4.4237  -17.7610 C   0  0  0  0  0  0  0  0  0  0  0  0
   -6.2785    4.8924  -17.1069 C   0  0  0  0  0  0  0  0  0  0  0  0
   -6.2503    5.1057  -15.7299 C   0  0  0  0  0  0  0  0  0  0  0  0
   -4.9333    5.5347  -15.4631 C   0  0  0  0  0  0  0  0  0  0  0  0
   -4.1707    5.5638  -16.5549 N   0  0  0  0  0  0  0  0  0  0  0  0
   -5.0320    5.2812  -17.5527 N   0  0  0  0  0  0  0  0  0  0  0  0
   -4.5998    5.2604  -18.9619 C   0  0  0  0  0  0  0  0  0  0  0  0
   -5.4520    6.1383  -19.8812 C   0  0  0  0  0  0  0  0  0  0  0  0
   -4.4707    7.2308  -19.7411 N   0  0  0  0  0  0  0  0  0  0  0  0
   -3.4635    6.2495  -19.2914 C   0  0  0  0  0  0  0  0  0  0  0  0
  1  2  2  0
  2  3  1  0
  3  4  1  0
  4  5  2  0
  5  6  1  0
  6  7  1  0
  6  8  2  0
  8  9  1  0
  9 10  2  0
  9 11  1  0
 11 12  1  0
 12 13  1  0
 13 14  1  0
 14 15  1  0
 15 16  1  0
 16 17  1  0
  2 18  1  0
 18 19  2  0
 19 20  1  0
 20 21  1  0
 20 22  2  0
 22 23  1  0
 23 24  2  0
 24 25  1  0
 25 26  2  0
 26 27  1  0
 27 28  1  0
 28 29  1  0
 29 30  1  0
 30 31  1  0
 10  4  1  0
 17 13  1  0
 24 18  1  0
 31 28  1  0
 13  8  1  0
 27 23  1  0
M  END
>  <smiles>  (2033) 
C30137-P237

>  <fragmenstein_outcome>  (2033) 
acceptable

>  <inchikey>  (2033) 
MXEYSDXOJJQNLC-UHFFFAOYSA-N

>  <fragmenstein_mode>  (2033) 
expansion

>  <HIPPO Pose ID>  (2033) 
25092

>  <Energy>  (2033) 
65.714237

>  <fragmenstein_error>  (2033) 


>  <tags>  (2033) 
{'openbind_xx01zvns2b_c1_fragmenstein', 'fragmenstein_placed'}

>  <ref_pdb>  (2033) 
175

>  <scratch_subdir>  (2033) 
/opt/xchem-fragalysis-2/maxwin/BulkDock/SCRATCH/511028/C30137-P237

>  <alias>  (2033) 
O=C(Nc1cc(F)c2c(c1)CNC21CCCC1)c1cc(Cl)cc2c1cnn2C1CNC1

>  <HIPPO Compound ID>  (2033) 
30137

>  <fragmenstein_runtime>  (2033) 
4.263616

$$$$
N#Cc1cc(NC(=O)c2cc(Cl)cc3c2cnn3C2CNC2)cc2c1CNC2
     RDKit          3D

 28 32  0  0  0  0  0  0  0  0999 V2000
   -7.6830    7.2441   -7.6608 N   0  0  0  0  0  0  0  0  0  0  0  0
   -7.8560    6.3221   -8.3454 C   0  0  0  0  0  0  0  0  0  0  0  0
   -8.0772    5.1702   -9.1650 C   0  0  0  0  0  0  0  0  0  0  0  0
   -7.8882    5.2310  -10.5527 C   0  0  0  0  0  0  0  0  0  0  0  0
   -8.1049    4.0994  -11.3578 C   0  0  0  0  0  0  0  0  0  0  0  0
   -7.9444    4.1644  -12.7402 N   0  0  0  0  0  0  0  0  0  0  0  0
   -7.3471    5.2767  -13.6293 C   0  0  0  0  0  0  0  0  0  0  0  0
   -6.9663    6.3445  -13.3517 O   0  0  0  0  0  0  0  0  0  0  0  0
   -7.3328    4.8870  -15.0578 C   0  0  0  0  0  0  0  0  0  0  0  0
   -8.4875    4.4030  -15.6791 C   0  0  0  0  0  0  0  0  0  0  0  0
   -8.5018    4.2259  -17.0594 C   0  0  0  0  0  0  0  0  0  0  0  0
   -9.9834    3.8335  -17.8155 Cl  0  0  0  0  0  0  0  0  0  0  0  0
   -7.3876    4.4887  -17.8617 C   0  0  0  0  0  0  0  0  0  0  0  0
   -6.2400    4.9656  -17.2172 C   0  0  0  0  0  0  0  0  0  0  0  0
   -6.1933    5.1606  -15.8368 C   0  0  0  0  0  0  0  0  0  0  0  0
   -4.8917    5.6410  -15.5907 C   0  0  0  0  0  0  0  0  0  0  0  0
   -4.1616    5.7412  -16.6994 N   0  0  0  0  0  0  0  0  0  0  0  0
   -5.0037    5.3647  -17.6807 N   0  0  0  0  0  0  0  0  0  0  0  0
   -4.6323    5.3998  -19.1014 C   0  0  0  0  0  0  0  0  0  0  0  0
   -3.1968    5.8749  -19.4014 C   0  0  0  0  0  0  0  0  0  0  0  0
   -3.7513    6.6670  -20.5383 N   0  0  0  0  0  0  0  0  0  0  0  0
   -5.0392    6.7013  -19.8003 C   0  0  0  0  0  0  0  0  0  0  0  0
   -8.4991    2.8902  -10.7825 C   0  0  0  0  0  0  0  0  0  0  0  0
   -8.6828    2.8448   -9.4109 C   0  0  0  0  0  0  0  0  0  0  0  0
   -8.4893    3.9696   -8.6127 C   0  0  0  0  0  0  0  0  0  0  0  0
   -8.7813    3.6092   -7.1922 C   0  0  0  0  0  0  0  0  0  0  0  0
   -9.4714    2.3028   -7.2547 N   0  0  0  0  0  0  0  0  0  0  0  0
   -9.0568    1.6912   -8.5410 C   0  0  0  0  0  0  0  0  0  0  0  0
  1  2  3  0
  2  3  1  0
  3  4  2  0
  4  5  1  0
  5  6  1  0
  6  7  1  0
  7  8  2  0
  7  9  1  0
  9 10  2  0
 10 11  1  0
 11 12  1  0
 11 13  2  0
 13 14  1  0
 14 15  2  0
 15 16  1  0
 16 17  2  0
 17 18  1  0
 18 19  1  0
 19 20  1  0
 20 21  1  0
 21 22  1  0
  5 23  2  0
 23 24  1  0
 24 25  2  0
 25 26  1  0
 26 27  1  0
 27 28  1  0
 25  3  1  0
 15  9  1  0
 22 19  1  0
 28 24  1  0
 18 14  1  0
M  END
>  <smiles>  (2034) 
C30138-P237

>  <fragmenstein_outcome>  (2034) 
acceptable

>  <inchikey>  (2034) 
YWKFKORWYBUHMH-UHFFFAOYSA-N

>  <fragmenstein_mode>  (2034) 
expansion

>  <HIPPO Pose ID>  (2034) 
25093

>  <Energy>  (2034) 
62.673188

>  <fragmenstein_error>  (2034) 


>  <tags>  (2034) 
{'openbind_xx01zvns2b_c1_fragmenstein', 'fragmenstein_placed'}

>  <ref_pdb>  (2034) 
175

>  <scratch_subdir>  (2034) 
/opt/xchem-fragalysis-2/maxwin/BulkDock/SCRATCH/511028/C30138-P237

>  <alias>  (2034) 
N#Cc1cc(NC(=O)c2cc(Cl)cc3c2cnn3C2CNC2)cc2c1CNC2

>  <HIPPO Compound ID>  (2034) 
34742

>  <fragmenstein_runtime>  (2034) 
4.170748

$$$$
O=C(Nc1ccc2c(c1)CN(F)C2)c1cc(Cl)cc2c1cnn2C1CNC1
     RDKit          3D

 27 31  0  0  0  0  0  0  0  0999 V2000
   -6.8721    6.2732  -13.4187 O   0  0  0  0  0  0  0  0  0  0  0  0
   -7.2481    5.1993  -13.6785 C   0  0  0  0  0  0  0  0  0  0  0  0
   -7.7461    4.0642  -12.7594 N   0  0  0  0  0  0  0  0  0  0  0  0
   -7.9678    4.0448  -11.3857 C   0  0  0  0  0  0  0  0  0  0  0  0
   -7.7318    5.1817  -10.5930 C   0  0  0  0  0  0  0  0  0  0  0  0
   -7.9661    5.1588   -9.2140 C   0  0  0  0  0  0  0  0  0  0  0  0
   -8.4317    3.9852   -8.6554 C   0  0  0  0  0  0  0  0  0  0  0  0
   -8.6521    2.8534   -9.4405 C   0  0  0  0  0  0  0  0  0  0  0  0
   -8.4322    2.8645  -10.8055 C   0  0  0  0  0  0  0  0  0  0  0  0
   -9.1057    1.7348   -8.5598 C   0  0  0  0  0  0  0  0  0  0  0  0
   -9.5476    2.4083   -7.3232 N   0  0  0  0  0  0  0  0  0  0  0  0
   -9.4088    1.6122   -6.2134 F   0  0  0  0  0  0  0  0  0  0  0  0
   -8.7713    3.6584   -7.2355 C   0  0  0  0  0  0  0  0  0  0  0  0
   -7.3245    4.8199  -15.1072 C   0  0  0  0  0  0  0  0  0  0  0  0
   -8.5205    4.3387  -15.6566 C   0  0  0  0  0  0  0  0  0  0  0  0
   -8.6370    4.1998  -17.0361 C   0  0  0  0  0  0  0  0  0  0  0  0
  -10.1699    3.8814  -17.7231 Cl  0  0  0  0  0  0  0  0  0  0  0  0
   -7.5876    4.4954  -17.9044 C   0  0  0  0  0  0  0  0  0  0  0  0
   -6.4184    5.0070  -17.3359 C   0  0  0  0  0  0  0  0  0  0  0  0
   -6.2568    5.1536  -15.9619 C   0  0  0  0  0  0  0  0  0  0  0  0
   -4.9609    5.6936  -15.8176 C   0  0  0  0  0  0  0  0  0  0  0  0
   -4.3672    5.9333  -16.9884 N   0  0  0  0  0  0  0  0  0  0  0  0
   -5.2910    5.5632  -17.8961 N   0  0  0  0  0  0  0  0  0  0  0  0
   -5.2681    6.0202  -19.2905 C   0  0  0  0  0  0  0  0  0  0  0  0
   -3.9729    6.7099  -19.7596 C   0  0  0  0  0  0  0  0  0  0  0  0
   -4.1639    5.9905  -21.0553 N   0  0  0  0  0  0  0  0  0  0  0  0
   -4.8461    4.9277  -20.2732 C   0  0  0  0  0  0  0  0  0  0  0  0
  1  2  2  0
  2  3  1  0
  3  4  1  0
  4  5  2  0
  5  6  1  0
  6  7  2  0
  7  8  1  0
  8  9  2  0
  8 10  1  0
 10 11  1  0
 11 12  1  0
 11 13  1  0
  2 14  1  0
 14 15  2  0
 15 16  1  0
 16 17  1  0
 16 18  2  0
 18 19  1  0
 19 20  2  0
 20 21  1  0
 21 22  2  0
 22 23  1  0
 23 24  1  0
 24 25  1  0
 25 26  1  0
 26 27  1  0
  9  4  1  0
 20 14  1  0
 27 24  1  0
 13  7  1  0
 23 19  1  0
M  END
>  <smiles>  (2035) 
C30139-P237

>  <fragmenstein_outcome>  (2035) 
acceptable

>  <inchikey>  (2035) 
KJURNELDBUILBG-UHFFFAOYSA-N

>  <fragmenstein_mode>  (2035) 
expansion

>  <HIPPO Pose ID>  (2035) 
25094

>  <Energy>  (2035) 
74.092576

>  <fragmenstein_error>  (2035) 


>  <tags>  (2035) 
{'openbind_xx01zvns2b_c1_fragmenstein', 'fragmenstein_placed'}

>  <ref_pdb>  (2035) 
175

>  <scratch_subdir>  (2035) 
/opt/xchem-fragalysis-2/maxwin/BulkDock/SCRATCH/511028/C30139-P237

>  <alias>  (2035) 
O=C(Nc1ccc2c(c1)CN(F)C2)c1cc(Cl)cc2c1cnn2C1CNC1

>  <HIPPO Compound ID>  (2035) 
30139

>  <fragmenstein_runtime>  (2035) 
4.121034

$$$$
O=C(Nc1ccc2c(c1)CNC2)c1cc(Cl)cc2c(C3CNC3)n(CC3CCNCC3)cc12
     RDKit          3D

 33 38  0  0  0  0  0  0  0  0999 V2000
   -6.8970    6.5061  -13.3367 O   0  0  0  0  0  0  0  0  0  0  0  0
   -7.2111    5.4115  -13.5961 C   0  0  0  0  0  0  0  0  0  0  0  0
   -7.7973    4.2984  -12.6991 N   0  0  0  0  0  0  0  0  0  0  0  0
   -8.0229    4.2690  -11.3263 C   0  0  0  0  0  0  0  0  0  0  0  0
   -7.7796    5.4043  -10.5350 C   0  0  0  0  0  0  0  0  0  0  0  0
   -7.9756    5.3711   -9.1521 C   0  0  0  0  0  0  0  0  0  0  0  0
   -8.4007    4.1862   -8.5836 C   0  0  0  0  0  0  0  0  0  0  0  0
   -8.6537    3.0656   -9.3659 C   0  0  0  0  0  0  0  0  0  0  0  0
   -8.4849    3.0890  -10.7412 C   0  0  0  0  0  0  0  0  0  0  0  0
   -9.1089    1.9476   -8.4938 C   0  0  0  0  0  0  0  0  0  0  0  0
   -8.9193    2.4099   -7.0930 N   0  0  0  0  0  0  0  0  0  0  0  0
   -8.6794    3.8684   -7.1559 C   0  0  0  0  0  0  0  0  0  0  0  0
   -7.1484    4.9910  -15.0052 C   0  0  0  0  0  0  0  0  0  0  0  0
   -8.2660    4.4967  -15.7067 C   0  0  0  0  0  0  0  0  0  0  0  0
   -8.2638    4.3158  -17.1255 C   0  0  0  0  0  0  0  0  0  0  0  0
   -9.7410    3.8076  -17.8493 Cl  0  0  0  0  0  0  0  0  0  0  0  0
   -7.1798    4.6163  -17.9857 C   0  0  0  0  0  0  0  0  0  0  0  0
   -6.0710    5.0688  -17.2741 C   0  0  0  0  0  0  0  0  0  0  0  0
   -4.8473    5.5001  -17.7460 C   0  0  0  0  0  0  0  0  0  0  0  0
   -4.3273    5.8015  -19.1934 C   0  0  0  0  0  0  0  0  0  0  0  0
   -4.7245    4.9628  -20.3968 C   0  0  0  0  0  0  0  0  0  0  0  0
   -4.9099    6.2150  -21.1745 N   0  0  0  0  0  0  0  0  0  0  0  0
   -5.0682    6.9437  -19.9001 C   0  0  0  0  0  0  0  0  0  0  0  0
   -4.0680    5.7568  -16.6314 N   0  0  0  0  0  0  0  0  0  0  0  0
   -2.6466    6.0580  -16.6572 C   0  0  0  0  0  0  0  0  0  0  0  0
   -2.3276    7.5124  -17.0343 C   0  0  0  0  0  0  0  0  0  0  0  0
   -2.7503    8.4982  -15.9319 C   0  0  0  0  0  0  0  0  0  0  0  0
   -2.3023    9.9220  -16.2599 C   0  0  0  0  0  0  0  0  0  0  0  0
   -0.8596   10.0009  -16.4924 N   0  0  0  0  0  0  0  0  0  0  0  0
   -0.4539    9.1197  -17.5879 C   0  0  0  0  0  0  0  0  0  0  0  0
   -0.8236    7.6641  -17.3099 C   0  0  0  0  0  0  0  0  0  0  0  0
   -4.8137    5.6604  -15.4828 C   0  0  0  0  0  0  0  0  0  0  0  0
   -6.0625    5.2340  -15.8495 C   0  0  0  0  0  0  0  0  0  0  0  0
  1  2  2  0
  2  3  1  0
  3  4  1  0
  4  5  2  0
  5  6  1  0
  6  7  2  0
  7  8  1  0
  8  9  2  0
  8 10  1  0
 10 11  1  0
 11 12  1  0
  2 13  1  0
 13 14  2  0
 14 15  1  0
 15 16  1  0
 15 17  2  0
 17 18  1  0
 18 19  2  0
 19 20  1  0
 20 21  1  0
 21 22  1  0
 22 23  1  0
 19 24  1  0
 24 25  1  0
 25 26  1  0
 26 27  1  0
 27 28  1  0
 28 29  1  0
 29 30  1  0
 30 31  1  0
 24 32  1  0
 32 33  2  0
  9  4  1  0
 33 13  1  0
 12  7  1  0
 33 18  1  0
 23 20  1  0
 31 26  1  0
M  END
>  <smiles>  (2036) 
C30127-P237

>  <fragmenstein_outcome>  (2036) 
acceptable

>  <inchikey>  (2036) 
RDENYPZDSKRRJZ-UHFFFAOYSA-N

>  <fragmenstein_mode>  (2036) 
expansion

>  <HIPPO Pose ID>  (2036) 
25095

>  <Energy>  (2036) 
85.305207

>  <fragmenstein_error>  (2036) 


>  <tags>  (2036) 
{'openbind_xx01zvns2b_c1_fragmenstein', 'fragmenstein_placed'}

>  <ref_pdb>  (2036) 
175

>  <scratch_subdir>  (2036) 
/opt/xchem-fragalysis-2/maxwin/BulkDock/SCRATCH/511028/C30127-P237

>  <alias>  (2036) 
O=C(Nc1ccc2c(c1)CNC2)c1cc(Cl)cc2c(C3CNC3)n(CC3CCNCC3)cc12

>  <HIPPO Compound ID>  (2036) 
21447

>  <fragmenstein_runtime>  (2036) 
8.345698

$$$$
CNCCn1cc2c(C(=O)Nc3ccc4c(c3)CNC4)cc(Cl)cc2c1C1CNC1
     RDKit          3D

 30 34  0  0  0  0  0  0  0  0999 V2000
   -0.6994    6.1990  -18.7242 C   0  0  0  0  0  0  0  0  0  0  0  0
   -1.8715    7.0394  -18.8936 N   0  0  0  0  0  0  0  0  0  0  0  0
   -2.7062    7.1044  -17.6963 C   0  0  0  0  0  0  0  0  0  0  0  0
   -3.1234    5.7678  -17.0791 C   0  0  0  0  0  0  0  0  0  0  0  0
   -4.5551    5.5482  -17.0474 N   0  0  0  0  0  0  0  0  0  0  0  0
   -5.2474    5.5847  -15.8529 C   0  0  0  0  0  0  0  0  0  0  0  0
   -6.5022    5.1063  -16.0950 C   0  0  0  0  0  0  0  0  0  0  0  0
   -7.5236    4.9165  -15.1707 C   0  0  0  0  0  0  0  0  0  0  0  0
   -7.5011    5.3560  -13.7707 C   0  0  0  0  0  0  0  0  0  0  0  0
   -7.2186    6.4631  -13.5325 O   0  0  0  0  0  0  0  0  0  0  0  0
   -7.9778    4.2218  -12.8378 N   0  0  0  0  0  0  0  0  0  0  0  0
   -8.1110    4.1862  -11.4551 C   0  0  0  0  0  0  0  0  0  0  0  0
   -7.9128    5.3386  -10.6777 C   0  0  0  0  0  0  0  0  0  0  0  0
   -8.0892    5.3024   -9.2916 C   0  0  0  0  0  0  0  0  0  0  0  0
   -8.4623    4.1035   -8.7130 C   0  0  0  0  0  0  0  0  0  0  0  0
   -8.6428    2.9577   -9.4820 C   0  0  0  0  0  0  0  0  0  0  0  0
   -8.4737    2.9790  -10.8545 C   0  0  0  0  0  0  0  0  0  0  0  0
   -8.9961    1.8178   -8.5847 C   0  0  0  0  0  0  0  0  0  0  0  0
   -9.3957    2.4505   -7.2998 N   0  0  0  0  0  0  0  0  0  0  0  0
   -8.7191    3.7673   -7.2817 C   0  0  0  0  0  0  0  0  0  0  0  0
   -8.6932    4.4310  -15.7830 C   0  0  0  0  0  0  0  0  0  0  0  0
   -8.7910    4.1991  -17.1895 C   0  0  0  0  0  0  0  0  0  0  0  0
  -10.3639    3.9380  -17.8210 Cl  0  0  0  0  0  0  0  0  0  0  0  0
   -7.7386    4.3461  -18.1158 C   0  0  0  0  0  0  0  0  0  0  0  0
   -6.5945    4.8269  -17.4894 C   0  0  0  0  0  0  0  0  0  0  0  0
   -5.3901    5.1533  -18.0805 C   0  0  0  0  0  0  0  0  0  0  0  0
   -5.1241    5.0704  -19.6330 C   0  0  0  0  0  0  0  0  0  0  0  0
   -4.9487    6.4114  -20.3561 C   0  0  0  0  0  0  0  0  0  0  0  0
   -3.7266    5.9143  -21.0065 N   0  0  0  0  0  0  0  0  0  0  0  0
   -3.7433    4.7028  -20.1718 C   0  0  0  0  0  0  0  0  0  0  0  0
  1  2  1  0
  2  3  1  0
  3  4  1  0
  4  5  1  0
  5  6  1  0
  6  7  2  0
  7  8  1  0
  8  9  1  0
  9 10  2  0
  9 11  1  0
 11 12  1  0
 12 13  2  0
 13 14  1  0
 14 15  2  0
 15 16  1  0
 16 17  2  0
 16 18  1  0
 18 19  1  0
 19 20  1  0
  8 21  2  0
 21 22  1  0
 22 23  1  0
 22 24  2  0
 24 25  1  0
 25 26  2  0
 26 27  1  0
 27 28  1  0
 28 29  1  0
 29 30  1  0
 26  5  1  0
 30 27  1  0
 25  7  1  0
 17 12  1  0
 20 15  1  0
M  END
>  <smiles>  (2037) 
C30140-P237

>  <fragmenstein_outcome>  (2037) 
acceptable

>  <inchikey>  (2037) 
RJFMNDKAKXASFD-UHFFFAOYSA-N

>  <fragmenstein_mode>  (2037) 
expansion

>  <HIPPO Pose ID>  (2037) 
25096

>  <Energy>  (2037) 
111.718665

>  <fragmenstein_error>  (2037) 


>  <tags>  (2037) 
{'openbind_xx01zvns2b_c1_fragmenstein', 'fragmenstein_placed'}

>  <ref_pdb>  (2037) 
175

>  <scratch_subdir>  (2037) 
/opt/xchem-fragalysis-2/maxwin/BulkDock/SCRATCH/511028/C30140-P237

>  <alias>  (2037) 
CNCCn1cc2c(C(=O)Nc3ccc4c(c3)CNC4)cc(Cl)cc2c1C1CNC1

>  <HIPPO Compound ID>  (2037) 
21511

>  <fragmenstein_runtime>  (2037) 
6.326517

$$$$
CO[C@H]1CC[C@@]23Cc4c(C(=O)Nc5ccc6c(c5)CNC6)cc(Cl)cc4N2[C@H]2CCN[C@H]2ON3N1
     RDKit          3D

 35 41  0  0  0  0  0  0  0  0999 V2000
   -0.3472    9.1466  -17.4987 C   0  0  0  0  0  0  0  0  0  0  0  0
   -1.2222    8.0398  -17.6447 O   0  0  0  0  0  0  0  0  0  0  0  0
   -1.7882    7.6036  -16.4139 C   0  0  1  0  0  0  0  0  0  0  0  0
   -3.1204    8.3102  -16.1687 C   0  0  0  0  0  0  0  0  0  0  0  0
   -4.1929    7.7896  -17.1263 C   0  0  0  0  0  0  0  0  0  0  0  0
   -4.3019    6.2356  -17.0973 C   0  0  1  0  0  0  0  0  0  0  0  0
   -4.8811    5.7802  -15.7063 C   0  0  0  0  0  0  0  0  0  0  0  0
   -6.2470    5.2802  -16.0509 C   0  0  0  0  0  0  0  0  0  0  0  0
   -7.2762    4.8986  -15.1911 C   0  0  0  0  0  0  0  0  0  0  0  0
   -7.2310    5.2710  -13.7506 C   0  0  0  0  0  0  0  0  0  0  0  0
   -6.8789    6.3509  -13.4790 O   0  0  0  0  0  0  0  0  0  0  0  0
   -7.7220    4.1201  -12.8442 N   0  0  0  0  0  0  0  0  0  0  0  0
   -7.9646    4.0888  -11.4715 C   0  0  0  0  0  0  0  0  0  0  0  0
   -7.8136    5.2442  -10.6849 C   0  0  0  0  0  0  0  0  0  0  0  0
   -8.0549    5.2156   -9.3071 C   0  0  0  0  0  0  0  0  0  0  0  0
   -8.4535    4.0206   -8.7409 C   0  0  0  0  0  0  0  0  0  0  0  0
   -8.6031    2.8743   -9.5158 C   0  0  0  0  0  0  0  0  0  0  0  0
   -8.3643    2.8879  -10.8809 C   0  0  0  0  0  0  0  0  0  0  0  0
   -8.9983    1.7399   -8.6287 C   0  0  0  0  0  0  0  0  0  0  0  0
   -9.4447    2.3765   -7.3609 N   0  0  0  0  0  0  0  0  0  0  0  0
   -8.7632    3.6894   -7.3194 C   0  0  0  0  0  0  0  0  0  0  0  0
   -8.4484    4.3807  -15.7432 C   0  0  0  0  0  0  0  0  0  0  0  0
   -8.5513    4.2636  -17.1314 C   0  0  0  0  0  0  0  0  0  0  0  0
  -10.0633    3.8565  -17.8237 Cl  0  0  0  0  0  0  0  0  0  0  0  0
   -7.5149    4.6586  -17.9795 C   0  0  0  0  0  0  0  0  0  0  0  0
   -6.3738    5.2128  -17.4359 C   0  0  0  0  0  0  0  0  0  0  0  0
   -5.3412    5.8599  -18.1007 N   0  0  0  0  0  0  0  0  0  0  0  0
   -4.8973    5.4768  -19.4446 C   0  0  1  0  0  0  0  0  0  0  0  0
   -5.0267    6.6568  -20.4161 C   0  0  0  0  0  0  0  0  0  0  0  0
   -3.7173    6.7122  -21.1824 C   0  0  0  0  0  0  0  0  0  0  0  0
   -3.1015    5.4034  -20.9868 N   0  0  0  0  0  0  0  0  0  0  0  0
   -3.3984    5.0951  -19.5670 C   0  0  1  0  0  0  0  0  0  0  0  0
   -2.5947    5.9058  -18.6964 O   0  0  0  0  0  0  0  0  0  0  0  0
   -2.9560    5.6357  -17.3062 N   0  0  0  0  0  0  0  0  0  0  0  0
   -1.9398    6.1418  -16.3907 N   0  0  0  0  0  0  0  0  0  0  0  0
  1  2  1  0
  3  2  1  6
  3  4  1  0
  4  5  1  0
  6  5  1  1
  6  7  1  0
  7  8  1  0
  8  9  2  0
  9 10  1  0
 10 11  2  0
 10 12  1  0
 12 13  1  0
 13 14  2  0
 14 15  1  0
 15 16  2  0
 16 17  1  0
 17 18  2  0
 17 19  1  0
 19 20  1  0
 20 21  1  0
  9 22  1  0
 22 23  2  0
 23 24  1  0
 23 25  1  0
 25 26  2  0
 26 27  1  0
 27 28  1  0
 28 29  1  6
 29 30  1  0
 30 31  1  0
 32 31  1  6
 32 33  1  0
 33 34  1  0
 34 35  1  0
 35  3  1  0
 27  6  1  0
 32 28  1  0
 34  6  1  0
 26  8  1  0
 18 13  1  0
 21 16  1  0
M  END
>  <smiles>  (2038) 
C30144-P237

>  <fragmenstein_outcome>  (2038) 
acceptable

>  <inchikey>  (2038) 
PTTYTSVVJJUJTE-UHFFFAOYSA-N

>  <fragmenstein_mode>  (2038) 
expansion

>  <HIPPO Pose ID>  (2038) 
25098

>  <Energy>  (2038) 
126.570295

>  <fragmenstein_error>  (2038) 


>  <tags>  (2038) 
{'openbind_xx01zvns2b_c1_fragmenstein', 'fragmenstein_placed'}

>  <ref_pdb>  (2038) 
175

>  <scratch_subdir>  (2038) 
/opt/xchem-fragalysis-2/maxwin/BulkDock/SCRATCH/511028/C30144-P237

>  <alias>  (2038) 
CO[C@H]1CC[C@@]23Cc4c(C(=O)Nc5ccc6c(c5)CNC6)cc(Cl)cc4N2[C@H]2CCN[C@H]2ON3N1

>  <HIPPO Compound ID>  (2038) 
35488

>  <fragmenstein_runtime>  (2038) 
4.931042

$$$$
O=C(Nc1ccc2c(c1)CNC2)c1cc(Cl)cc2c1CN1CNCN3NCC[C@@H]3N21
     RDKit          3D

 30 35  0  0  0  0  0  0  0  0999 V2000
   -7.0878    6.4811  -13.4074 O   0  0  0  0  0  0  0  0  0  0  0  0
   -7.4146    5.3948  -13.6827 C   0  0  0  0  0  0  0  0  0  0  0  0
   -7.9523    4.2541  -12.7899 N   0  0  0  0  0  0  0  0  0  0  0  0
   -8.1054    4.1829  -11.4065 C   0  0  0  0  0  0  0  0  0  0  0  0
   -7.9183    5.3169  -10.5983 C   0  0  0  0  0  0  0  0  0  0  0  0
   -8.0996    5.2491   -9.2129 C   0  0  0  0  0  0  0  0  0  0  0  0
   -8.4755    4.0386   -8.6634 C   0  0  0  0  0  0  0  0  0  0  0  0
   -8.6481    2.9106   -9.4603 C   0  0  0  0  0  0  0  0  0  0  0  0
   -8.4669    2.9614  -10.8324 C   0  0  0  0  0  0  0  0  0  0  0  0
   -9.0127    1.7541   -8.5892 C   0  0  0  0  0  0  0  0  0  0  0  0
   -9.4317    2.3615   -7.2991 N   0  0  0  0  0  0  0  0  0  0  0  0
   -8.7528    3.6753   -7.2428 C   0  0  0  0  0  0  0  0  0  0  0  0
   -7.3652    4.9877  -15.1075 C   0  0  0  0  0  0  0  0  0  0  0  0
   -8.4715    4.4221  -15.7273 C   0  0  0  0  0  0  0  0  0  0  0  0
   -8.4324    4.1928  -17.1066 C   0  0  0  0  0  0  0  0  0  0  0  0
   -9.8783    3.7269  -17.8791 Cl  0  0  0  0  0  0  0  0  0  0  0  0
   -7.2955    4.4499  -17.8801 C   0  0  0  0  0  0  0  0  0  0  0  0
   -6.1971    5.0017  -17.2579 C   0  0  0  0  0  0  0  0  0  0  0  0
   -6.2626    5.2929  -15.8922 C   0  0  0  0  0  0  0  0  0  0  0  0
   -4.9934    5.9677  -15.5007 C   0  0  0  0  0  0  0  0  0  0  0  0
   -4.2735    6.1982  -16.7873 N   0  0  0  0  0  0  0  0  0  0  0  0
   -2.8885    5.7740  -16.6294 C   0  0  0  0  0  0  0  0  0  0  0  0
   -2.1223    6.2349  -17.7639 N   0  0  0  0  0  0  0  0  0  0  0  0
   -2.2071    5.2994  -18.8717 C   0  0  0  0  0  0  0  0  0  0  0  0
   -3.2939    5.6192  -19.7774 N   0  0  0  0  0  0  0  0  0  0  0  0
   -3.1458    6.9377  -20.3989 N   0  0  0  0  0  0  0  0  0  0  0  0
   -4.3150    7.6998  -20.0097 C   0  0  0  0  0  0  0  0  0  0  0  0
   -5.3786    6.6495  -19.8386 C   0  0  0  0  0  0  0  0  0  0  0  0
   -4.6575    5.4597  -19.2177 C   0  0  2  0  0  0  0  0  0  0  0  0
   -4.9535    5.3730  -17.7671 N   0  0  0  0  0  0  0  0  0  0  0  0
  1  2  2  0
  2  3  1  0
  3  4  1  0
  4  5  2  0
  5  6  1  0
  6  7  2  0
  7  8  1  0
  8  9  2  0
  8 10  1  0
 10 11  1  0
 11 12  1  0
  2 13  1  0
 13 14  2  0
 14 15  1  0
 15 16  1  0
 15 17  2  0
 17 18  1  0
 18 19  2  0
 19 20  1  0
 20 21  1  0
 21 22  1  0
 22 23  1  0
 23 24  1  0
 24 25  1  0
 25 26  1  0
 26 27  1  0
 27 28  1  0
 29 28  1  1
 29 30  1  0
  9  4  1  0
 19 13  1  0
 30 21  1  0
 12  7  1  0
 30 18  1  0
 29 25  1  0
M  END
>  <smiles>  (2039) 
C30152-P237

>  <fragmenstein_outcome>  (2039) 
acceptable

>  <inchikey>  (2039) 
PHYMRCOYKOABAN-UHFFFAOYSA-N

>  <fragmenstein_mode>  (2039) 
expansion

>  <HIPPO Pose ID>  (2039) 
25103

>  <Energy>  (2039) 
44.081359

>  <fragmenstein_error>  (2039) 


>  <tags>  (2039) 
{'openbind_xx01zvns2b_c1_fragmenstein', 'fragmenstein_placed'}

>  <ref_pdb>  (2039) 
175

>  <scratch_subdir>  (2039) 
/opt/xchem-fragalysis-2/maxwin/BulkDock/SCRATCH/511028/C30152-P237

>  <alias>  (2039) 
O=C(Nc1ccc2c(c1)CNC2)c1cc(Cl)cc2c1CN1CNCN3NCC[C@@H]3N21

>  <HIPPO Compound ID>  (2039) 
30152

>  <fragmenstein_runtime>  (2039) 
6.528937

$$$$
CCCCc1cc(-c2cc(Cl)cc(C(=O)N[C@@H]3CC[C@H]4CNC[C@@H]4C3)c2N)cn1N
     RDKit          3D

 30 33  0  0  0  0  0  0  0  0999 V2000
   -3.3270   10.2164  -20.9046 C   0  0  0  0  0  0  0  0  0  0  0  0
   -3.8169    8.7768  -20.8758 C   0  0  0  0  0  0  0  0  0  0  0  0
   -2.6515    7.7873  -20.9819 C   0  0  0  0  0  0  0  0  0  0  0  0
   -3.0978    6.3407  -21.0663 C   0  0  0  0  0  0  0  0  0  0  0  0
   -3.6847    5.8125  -19.8053 C   0  0  0  0  0  0  0  0  0  0  0  0
   -5.0031    5.8005  -19.3890 C   0  0  0  0  0  0  0  0  0  0  0  0
   -5.0621    5.2042  -18.1018 C   0  0  0  0  0  0  0  0  0  0  0  0
   -6.2280    4.9451  -17.2659 C   0  0  0  0  0  0  0  0  0  0  0  0
   -7.3937    4.4982  -17.9112 C   0  0  0  0  0  0  0  0  0  0  0  0
   -8.5619    4.2687  -17.1944 C   0  0  0  0  0  0  0  0  0  0  0  0
  -10.0006    3.8720  -18.0411 Cl  0  0  0  0  0  0  0  0  0  0  0  0
   -8.5895    4.4466  -15.8192 C   0  0  0  0  0  0  0  0  0  0  0  0
   -7.4424    4.9155  -15.1707 C   0  0  0  0  0  0  0  0  0  0  0  0
   -7.5830    5.3571  -13.7623 C   0  0  0  0  0  0  0  0  0  0  0  0
   -7.4609    6.4955  -13.5433 O   0  0  0  0  0  0  0  0  0  0  0  0
   -7.9568    4.1970  -12.8266 N   0  0  0  0  0  0  0  0  0  0  0  0
   -8.3546    4.2021  -11.4373 C   0  0  2  0  0  0  0  0  0  0  0  0
   -7.5343    5.1858  -10.5832 C   0  0  0  0  0  0  0  0  0  0  0  0
   -8.0332    5.2483   -9.1330 C   0  0  0  0  0  0  0  0  0  0  0  0
   -8.0982    3.8469   -8.5546 C   0  0  1  0  0  0  0  0  0  0  0  0
   -8.7350    3.6750   -7.1844 C   0  0  0  0  0  0  0  0  0  0  0  0
   -9.3251    2.3216   -7.1894 N   0  0  0  0  0  0  0  0  0  0  0  0
   -9.0466    1.7176   -8.5116 C   0  0  0  0  0  0  0  0  0  0  0  0
   -8.9513    2.9285   -9.4066 C   0  0  2  0  0  0  0  0  0  0  0  0
   -8.3995    2.7943  -10.8162 C   0  0  0  0  0  0  0  0  0  0  0  0
   -6.2573    5.2135  -15.8780 C   0  0  0  0  0  0  0  0  0  0  0  0
   -5.0941    5.6043  -15.1697 N   0  0  0  0  0  0  0  0  0  0  0  0
   -3.7683    4.8350  -17.7957 C   0  0  0  0  0  0  0  0  0  0  0  0
   -2.9573    5.2044  -18.8218 N   0  0  0  0  0  0  0  0  0  0  0  0
   -1.5694    5.0260  -18.8224 N   0  0  0  0  0  0  0  0  0  0  0  0
  1  2  1  0
  2  3  1  0
  3  4  1  0
  4  5  1  0
  5  6  2  0
  6  7  1  0
  7  8  1  0
  8  9  2  0
  9 10  1  0
 10 11  1  0
 10 12  2  0
 12 13  1  0
 13 14  1  0
 14 15  2  0
 14 16  1  0
 17 16  1  6
 17 18  1  0
 18 19  1  0
 20 19  1  6
 20 21  1  0
 21 22  1  0
 22 23  1  0
 24 23  1  1
 24 25  1  0
 13 26  2  0
 26 27  1  0
  7 28  2  0
 28 29  1  0
 29 30  1  0
 29  5  1  0
 26  8  1  0
 25 17  1  0
 24 20  1  0
M  END
>  <smiles>  (2040) 
C30564-P240

>  <fragmenstein_outcome>  (2040) 
acceptable

>  <inchikey>  (2040) 
CXCAIODRNPMSBM-UHFFFAOYSA-N

>  <fragmenstein_mode>  (2040) 
expansion

>  <HIPPO Pose ID>  (2040) 
25208

>  <Energy>  (2040) 
27.73859

>  <fragmenstein_error>  (2040) 


>  <tags>  (2040) 
{'openbind_xx01zvns2b_c1_fragmenstein', 'fragmenstein_placed'}

>  <ref_pdb>  (2040) 
175

>  <scratch_subdir>  (2040) 
/opt/xchem-fragalysis-2/maxwin/BulkDock/SCRATCH/511028/C30564-P240

>  <alias>  (2040) 
CCCCc1cc(-c2cc(Cl)cc(C(=O)N[C@@H]3CC[C@H]4CNC[C@@H]4C3)c2N)cn1N

>  <HIPPO Compound ID>  (2040) 
30564

>  <fragmenstein_runtime>  (2040) 
6.161761

$$$$
CC[C@@H]1CC(=O)Nc2c(Cl)cc([C@@](O)(Nc3ccc4c(c3)CNC4)C(=O)NCC(F)F)cc21
     RDKit          3D

 33 36  0  0  0  0  0  0  0  0999 V2000
   -2.6987    5.5053  -17.2486 C   0  0  0  0  0  0  0  0  0  0  0  0
   -3.9263    6.0684  -17.9588 C   0  0  0  0  0  0  0  0  0  0  0  0
   -4.9638    4.9657  -18.2372 C   0  0  2  0  0  0  0  0  0  0  0  0
   -5.4541    5.0695  -19.6922 C   0  0  0  0  0  0  0  0  0  0  0  0
   -6.5426    4.0688  -19.9903 C   0  0  0  0  0  0  0  0  0  0  0  0
   -6.6263    3.3951  -21.0154 O   0  0  0  0  0  0  0  0  0  0  0  0
   -7.5078    3.9978  -19.0418 N   0  0  0  0  0  0  0  0  0  0  0  0
   -7.3549    4.4251  -17.7218 C   0  0  0  0  0  0  0  0  0  0  0  0
   -8.4358    4.2949  -16.8606 C   0  0  0  0  0  0  0  0  0  0  0  0
   -9.9724    3.9152  -17.5107 Cl  0  0  0  0  0  0  0  0  0  0  0  0
   -8.2914    4.5319  -15.5019 C   0  0  0  0  0  0  0  0  0  0  0  0
   -7.0550    4.9305  -14.9664 C   0  0  0  0  0  0  0  0  0  0  0  0
   -6.9527    5.2054  -13.4574 C   0  0  1  0  0  0  0  0  0  0  0  0
   -7.6752    6.4164  -13.2871 O   0  0  0  0  0  0  0  0  0  0  0  0
   -7.6725    4.1682  -12.7102 N   0  0  0  0  0  0  0  0  0  0  0  0
   -7.8331    4.1534  -11.3154 C   0  0  0  0  0  0  0  0  0  0  0  0
   -7.7124    5.2871  -10.4855 C   0  0  0  0  0  0  0  0  0  0  0  0
   -7.9720    5.2338   -9.1079 C   0  0  0  0  0  0  0  0  0  0  0  0
   -8.3632    4.0313   -8.5579 C   0  0  0  0  0  0  0  0  0  0  0  0
   -8.5134    2.9094   -9.3541 C   0  0  0  0  0  0  0  0  0  0  0  0
   -8.2761    2.9584  -10.7214 C   0  0  0  0  0  0  0  0  0  0  0  0
   -8.9483    1.7567   -8.5162 C   0  0  0  0  0  0  0  0  0  0  0  0
   -8.9460    2.2372   -7.1066 N   0  0  0  0  0  0  0  0  0  0  0  0
   -8.7040    3.6950   -7.1486 C   0  0  0  0  0  0  0  0  0  0  0  0
   -5.4301    5.3016  -12.9603 C   0  0  0  0  0  0  0  0  0  0  0  0
   -4.6958    4.3921  -12.9068 O   0  0  0  0  0  0  0  0  0  0  0  0
   -5.1897    6.8123  -12.6587 N   0  0  0  0  0  0  0  0  0  0  0  0
   -3.9751    7.5201  -12.3234 C   0  0  0  0  0  0  0  0  0  0  0  0
   -3.3199    8.1845  -13.5313 C   0  0  0  0  0  0  0  0  0  0  0  0
   -4.1532    9.1301  -14.0416 F   0  0  0  0  0  0  0  0  0  0  0  0
   -3.1028    7.2841  -14.5213 F   0  0  0  0  0  0  0  0  0  0  0  0
   -5.9877    5.1326  -15.8714 C   0  0  0  0  0  0  0  0  0  0  0  0
   -6.1229    4.8896  -17.2558 C   0  0  0  0  0  0  0  0  0  0  0  0
  1  2  1  0
  3  2  1  1
  3  4  1  0
  4  5  1  0
  5  6  2  0
  5  7  1  0
  7  8  1  0
  8  9  2  0
  9 10  1  0
  9 11  1  0
 11 12  2  0
 12 13  1  0
 13 14  1  6
 13 15  1  0
 15 16  1  0
 16 17  2  0
 17 18  1  0
 18 19  2  0
 19 20  1  0
 20 21  2  0
 20 22  1  0
 22 23  1  0
 23 24  1  0
 13 25  1  0
 25 26  2  0
 25 27  1  0
 27 28  1  0
 28 29  1  0
 29 30  1  0
 29 31  1  0
 12 32  1  0
 32 33  2  0
 33  3  1  0
 33  8  1  0
 21 16  1  0
 24 19  1  0
M  END
>  <smiles>  (2041) 
C30669-P243

>  <fragmenstein_outcome>  (2041) 
acceptable

>  <inchikey>  (2041) 
DADDILTUKIVOIO-UHFFFAOYSA-N

>  <fragmenstein_mode>  (2041) 
expansion

>  <HIPPO Pose ID>  (2041) 
25234

>  <Energy>  (2041) 
112.335729

>  <fragmenstein_error>  (2041) 


>  <tags>  (2041) 
{'openbind_xx01zvns2b_c1_fragmenstein', 'fragmenstein_placed'}

>  <ref_pdb>  (2041) 
175

>  <scratch_subdir>  (2041) 
/opt/xchem-fragalysis-2/maxwin/BulkDock/SCRATCH/511028/C30669-P243

>  <alias>  (2041) 
CC[C@@H]1CC(=O)Nc2c(Cl)cc([C@@](O)(Nc3ccc4c(c3)CNC4)C(=O)NCC(F)F)cc21

>  <HIPPO Compound ID>  (2041) 
30669

>  <fragmenstein_runtime>  (2041) 
9.966251

$$$$
O=C1CCc2cc(C(=O)Nc3ccc4c(c3)CNC4)cc(F)c2N1
     RDKit          3D

 24 27  0  0  0  0  0  0  0  0999 V2000
   -6.7502    3.2865  -20.9556 O   0  0  0  0  0  0  0  0  0  0  0  0
   -6.7495    3.9705  -19.9322 C   0  0  0  0  0  0  0  0  0  0  0  0
   -5.7186    5.0368  -19.6272 C   0  0  0  0  0  0  0  0  0  0  0  0
   -5.3133    5.0751  -18.1567 C   0  0  0  0  0  0  0  0  0  0  0  0
   -6.4742    4.8769  -17.2243 C   0  0  0  0  0  0  0  0  0  0  0  0
   -6.3849    5.1950  -15.8593 C   0  0  0  0  0  0  0  0  0  0  0  0
   -7.4563    4.9083  -14.9995 C   0  0  0  0  0  0  0  0  0  0  0  0
   -7.4016    5.3200  -13.5707 C   0  0  0  0  0  0  0  0  0  0  0  0
   -7.0577    6.4098  -13.3257 O   0  0  0  0  0  0  0  0  0  0  0  0
   -7.9303    4.1996  -12.6385 N   0  0  0  0  0  0  0  0  0  0  0  0
   -8.0509    4.1588  -11.2509 C   0  0  0  0  0  0  0  0  0  0  0  0
   -7.8037    5.2885  -10.4575 C   0  0  0  0  0  0  0  0  0  0  0  0
   -7.9737    5.2370   -9.0689 C   0  0  0  0  0  0  0  0  0  0  0  0
   -8.3775    4.0431   -8.4978 C   0  0  0  0  0  0  0  0  0  0  0  0
   -8.6075    2.9197   -9.2792 C   0  0  0  0  0  0  0  0  0  0  0  0
   -8.4592    2.9598  -10.6568 C   0  0  0  0  0  0  0  0  0  0  0  0
   -8.9814    1.7712   -8.4056 C   0  0  0  0  0  0  0  0  0  0  0  0
   -9.1341    2.3243   -7.0352 N   0  0  0  0  0  0  0  0  0  0  0  0
   -8.6268    3.7128   -7.0663 C   0  0  0  0  0  0  0  0  0  0  0  0
   -8.6246    4.3357  -15.5009 C   0  0  0  0  0  0  0  0  0  0  0  0
   -8.7113    4.0386  -16.8483 C   0  0  0  0  0  0  0  0  0  0  0  0
   -9.8373    3.5218  -17.3524 F   0  0  0  0  0  0  0  0  0  0  0  0
   -7.6438    4.2796  -17.6991 C   0  0  0  0  0  0  0  0  0  0  0  0
   -7.7406    3.8369  -19.0136 N   0  0  0  0  0  0  0  0  0  0  0  0
  1  2  2  0
  2  3  1  0
  3  4  1  0
  4  5  1  0
  5  6  2  0
  6  7  1  0
  7  8  1  0
  8  9  2  0
  8 10  1  0
 10 11  1  0
 11 12  2  0
 12 13  1  0
 13 14  2  0
 14 15  1  0
 15 16  2  0
 15 17  1  0
 17 18  1  0
 18 19  1  0
  7 20  2  0
 20 21  1  0
 21 22  1  0
 21 23  2  0
 23 24  1  0
 24  2  1  0
 23  5  1  0
 16 11  1  0
 19 14  1  0
M  END
>  <smiles>  (2042) 
C30670-P243

>  <fragmenstein_outcome>  (2042) 
acceptable

>  <inchikey>  (2042) 
RYJQWDJIBZEBDT-UHFFFAOYSA-N

>  <fragmenstein_mode>  (2042) 
expansion

>  <HIPPO Pose ID>  (2042) 
25238

>  <Energy>  (2042) 
29.823028

>  <fragmenstein_error>  (2042) 


>  <tags>  (2042) 
{'openbind_xx01zvns2b_c1_fragmenstein', 'fragmenstein_placed'}

>  <ref_pdb>  (2042) 
175

>  <scratch_subdir>  (2042) 
/opt/xchem-fragalysis-2/maxwin/BulkDock/SCRATCH/511028/C30670-P243

>  <alias>  (2042) 
O=C1CCc2cc(C(=O)Nc3ccc4c(c3)CNC4)cc(F)c2N1

>  <HIPPO Compound ID>  (2042) 
30145

>  <fragmenstein_runtime>  (2042) 
3.641974

$$$$
CC(C)([C@@H]1CC(=O)Nc2c(F)cc(C(=O)Nc3ccc4c(c3)CNC4)cc21)S(C)(=O)=O
     RDKit          3D

 31 34  0  0  0  0  0  0  0  0999 V2000
   -2.1088    5.3499  -17.8838 C   0  0  0  0  0  0  0  0  0  0  0  0
   -3.3649    5.7584  -17.0759 C   0  0  0  0  0  0  0  0  0  0  0  0
   -3.1698    5.0620  -15.7055 C   0  0  0  0  0  0  0  0  0  0  0  0
   -4.6339    5.2723  -17.8523 C   0  0  2  0  0  0  0  0  0  0  0  0
   -4.8393    6.0124  -19.1699 C   0  0  0  0  0  0  0  0  0  0  0  0
   -5.7532    5.2560  -20.0761 C   0  0  0  0  0  0  0  0  0  0  0  0
   -5.5715    5.3251  -21.2900 O   0  0  0  0  0  0  0  0  0  0  0  0
   -6.8058    4.6106  -19.4569 N   0  0  0  0  0  0  0  0  0  0  0  0
   -7.0301    4.6138  -18.0607 C   0  0  0  0  0  0  0  0  0  0  0  0
   -8.2548    4.1960  -17.5070 C   0  0  0  0  0  0  0  0  0  0  0  0
   -9.2322    3.7158  -18.2922 F   0  0  0  0  0  0  0  0  0  0  0  0
   -8.5129    4.3262  -16.1381 C   0  0  0  0  0  0  0  0  0  0  0  0
   -7.5555    4.9350  -15.3338 C   0  0  0  0  0  0  0  0  0  0  0  0
   -7.8174    5.3629  -13.9305 C   0  0  0  0  0  0  0  0  0  0  0  0
   -7.6864    6.5001  -13.6992 O   0  0  0  0  0  0  0  0  0  0  0  0
   -8.1270    4.1779  -12.9876 N   0  0  0  0  0  0  0  0  0  0  0  0
   -8.2427    4.1316  -11.5914 C   0  0  0  0  0  0  0  0  0  0  0  0
   -8.0959    5.2991  -10.8214 C   0  0  0  0  0  0  0  0  0  0  0  0
   -8.1899    5.2646   -9.4243 C   0  0  0  0  0  0  0  0  0  0  0  0
   -8.4419    4.0513   -8.8123 C   0  0  0  0  0  0  0  0  0  0  0  0
   -8.5902    2.8938   -9.5631 C   0  0  0  0  0  0  0  0  0  0  0  0
   -8.4867    2.9126  -10.9506 C   0  0  0  0  0  0  0  0  0  0  0  0
   -8.8672    1.7457   -8.6514 C   0  0  0  0  0  0  0  0  0  0  0  0
   -8.8791    2.2919   -7.2685 N   0  0  0  0  0  0  0  0  0  0  0  0
   -8.6207    3.7434   -7.3662 C   0  0  0  0  0  0  0  0  0  0  0  0
   -6.3188    5.3177  -15.8795 C   0  0  0  0  0  0  0  0  0  0  0  0
   -6.0072    5.0937  -17.2217 C   0  0  0  0  0  0  0  0  0  0  0  0
   -3.3696    7.5751  -16.7898 S   0  0  0  0  0  0  0  0  0  0  0  0
   -2.4934    8.3236  -18.1428 C   0  0  0  0  0  0  0  0  0  0  0  0
   -4.7327    8.0672  -16.8586 O   0  0  0  0  0  0  0  0  0  0  0  0
   -2.5703    7.8516  -15.6092 O   0  0  0  0  0  0  0  0  0  0  0  0
  1  2  1  0
  2  3  1  0
  4  2  1  1
  4  5  1  0
  5  6  1  0
  6  7  2  0
  6  8  1  0
  8  9  1  0
  9 10  2  0
 10 11  1  0
 10 12  1  0
 12 13  2  0
 13 14  1  0
 14 15  2  0
 14 16  1  0
 16 17  1  0
 17 18  2  0
 18 19  1  0
 19 20  2  0
 20 21  1  0
 21 22  2  0
 21 23  1  0
 23 24  1  0
 24 25  1  0
 13 26  1  0
 26 27  2  0
  2 28  1  0
 28 29  1  0
 28 30  2  0
 28 31  2  0
 27  4  1  0
 27  9  1  0
 22 17  1  0
 25 20  1  0
M  END
>  <smiles>  (2043) 
C30696-P243

>  <fragmenstein_outcome>  (2043) 
acceptable

>  <inchikey>  (2043) 
SRLBOGOMCJWFQI-UHFFFAOYSA-N

>  <fragmenstein_mode>  (2043) 
expansion

>  <HIPPO Pose ID>  (2043) 
25249

>  <Energy>  (2043) 
60.243505

>  <fragmenstein_error>  (2043) 


>  <tags>  (2043) 
{'openbind_xx01zvns2b_c1_fragmenstein', 'fragmenstein_placed'}

>  <ref_pdb>  (2043) 
175

>  <scratch_subdir>  (2043) 
/opt/xchem-fragalysis-2/maxwin/BulkDock/SCRATCH/511028/C30696-P243

>  <alias>  (2043) 
CC(C)([C@@H]1CC(=O)Nc2c(F)cc(C(=O)Nc3ccc4c(c3)CNC4)cc21)S(C)(=O)=O

>  <HIPPO Compound ID>  (2043) 
40052

>  <fragmenstein_runtime>  (2043) 
10.116961

$$$$
N#Cc1cc2c(cc1NC(=O)c1cc(F)c3c(c1)CCC(=O)N3)CNC2
     RDKit          3D

 26 29  0  0  0  0  0  0  0  0999 V2000
   -7.9898    7.7493  -11.3253 N   0  0  0  0  0  0  0  0  0  0  0  0
   -7.9616    6.6411  -10.9761 C   0  0  0  0  0  0  0  0  0  0  0  0
   -8.0347    5.3073  -10.4517 C   0  0  0  0  0  0  0  0  0  0  0  0
   -8.2167    5.2012   -9.0577 C   0  0  0  0  0  0  0  0  0  0  0  0
   -8.5298    3.9696   -8.5162 C   0  0  0  0  0  0  0  0  0  0  0  0
   -8.6506    2.8477   -9.3240 C   0  0  0  0  0  0  0  0  0  0  0  0
   -8.4403    2.9192  -10.6911 C   0  0  0  0  0  0  0  0  0  0  0  0
   -8.1067    4.1557  -11.2699 C   0  0  0  0  0  0  0  0  0  0  0  0
   -7.8983    4.1392  -12.6565 N   0  0  0  0  0  0  0  0  0  0  0  0
   -7.1448    5.1368  -13.5735 C   0  0  0  0  0  0  0  0  0  0  0  0
   -6.5165    6.0844  -13.3060 O   0  0  0  0  0  0  0  0  0  0  0  0
   -7.3077    4.8139  -15.0206 C   0  0  0  0  0  0  0  0  0  0  0  0
   -8.4967    4.2846  -15.5216 C   0  0  0  0  0  0  0  0  0  0  0  0
   -8.5969    4.0088  -16.8758 C   0  0  0  0  0  0  0  0  0  0  0  0
   -9.7146    3.4573  -17.3595 F   0  0  0  0  0  0  0  0  0  0  0  0
   -7.5436    4.2707  -17.7416 C   0  0  0  0  0  0  0  0  0  0  0  0
   -6.3701    4.8589  -17.2710 C   0  0  0  0  0  0  0  0  0  0  0  0
   -6.2544    5.1222  -15.8995 C   0  0  0  0  0  0  0  0  0  0  0  0
   -5.2192    5.0877  -18.2071 C   0  0  0  0  0  0  0  0  0  0  0  0
   -5.6393    5.0830  -19.6713 C   0  0  0  0  0  0  0  0  0  0  0  0
   -6.6558    4.0094  -19.9867 C   0  0  0  0  0  0  0  0  0  0  0  0
   -6.6568    3.3520  -21.0247 O   0  0  0  0  0  0  0  0  0  0  0  0
   -7.6424    3.8478  -19.0637 N   0  0  0  0  0  0  0  0  0  0  0  0
   -9.0047    1.6725   -8.4719 C   0  0  0  0  0  0  0  0  0  0  0  0
   -9.4635    2.2586   -7.1867 N   0  0  0  0  0  0  0  0  0  0  0  0
   -8.8222    3.5879   -7.1028 C   0  0  0  0  0  0  0  0  0  0  0  0
  1  2  3  0
  2  3  1  0
  3  4  2  0
  4  5  1  0
  5  6  2  0
  6  7  1  0
  7  8  2  0
  8  9  1  0
  9 10  1  0
 10 11  2  0
 10 12  1  0
 12 13  2  0
 13 14  1  0
 14 15  1  0
 14 16  2  0
 16 17  1  0
 17 18  2  0
 17 19  1  0
 19 20  1  0
 20 21  1  0
 21 22  2  0
 21 23  1  0
  6 24  1  0
 24 25  1  0
 25 26  1  0
  8  3  1  0
 18 12  1  0
 26  5  1  0
 23 16  1  0
M  END
>  <smiles>  (2044) 
C30694-P243

>  <fragmenstein_outcome>  (2044) 
acceptable

>  <inchikey>  (2044) 
AUYWDTLZSNRMDS-UHFFFAOYSA-N

>  <fragmenstein_mode>  (2044) 
expansion

>  <HIPPO Pose ID>  (2044) 
25254

>  <Energy>  (2044) 
55.648026

>  <fragmenstein_error>  (2044) 


>  <tags>  (2044) 
{'openbind_xx01zvns2b_c1_fragmenstein', 'fragmenstein_placed'}

>  <ref_pdb>  (2044) 
175

>  <scratch_subdir>  (2044) 
/opt/xchem-fragalysis-2/maxwin/BulkDock/SCRATCH/511028/C30694-P243

>  <alias>  (2044) 
N#Cc1cc2c(cc1NC(=O)c1cc(F)c3c(c1)CCC(=O)N3)CNC2

>  <HIPPO Compound ID>  (2044) 
30694

>  <fragmenstein_runtime>  (2044) 
3.490894

$$$$
CCc1c([C@](O)(Nc2ccc3c(c2)CNC3)C(=O)NCC(F)F)cc(Br)c2c1CCC(=O)N2
     RDKit          3D

 33 36  0  0  0  0  0  0  0  0999 V2000
   -4.4377    7.1580  -14.4168 C   0  0  0  0  0  0  0  0  0  0  0  0
   -4.6287    5.6497  -14.5337 C   0  0  0  0  0  0  0  0  0  0  0  0
   -5.8559    5.2682  -15.3386 C   0  0  0  0  0  0  0  0  0  0  0  0
   -7.1186    5.0072  -14.7271 C   0  0  0  0  0  0  0  0  0  0  0  0
   -7.5388    5.3514  -13.2677 C   0  0  2  0  0  0  0  0  0  0  0  0
   -6.4861    5.9786  -12.5703 O   0  0  0  0  0  0  0  0  0  0  0  0
   -7.8565    4.1358  -12.5145 N   0  0  0  0  0  0  0  0  0  0  0  0
   -8.1916    4.1002  -11.1505 C   0  0  0  0  0  0  0  0  0  0  0  0
   -8.1095    5.2046  -10.2748 C   0  0  0  0  0  0  0  0  0  0  0  0
   -8.3164    5.0906   -8.8944 C   0  0  0  0  0  0  0  0  0  0  0  0
   -8.6108    3.8486   -8.3800 C   0  0  0  0  0  0  0  0  0  0  0  0
   -8.6948    2.7451   -9.2122 C   0  0  0  0  0  0  0  0  0  0  0  0
   -8.4812    2.8500  -10.5817 C   0  0  0  0  0  0  0  0  0  0  0  0
   -8.9797    1.5335   -8.3930 C   0  0  0  0  0  0  0  0  0  0  0  0
   -9.2504    2.0162   -7.0133 N   0  0  0  0  0  0  0  0  0  0  0  0
   -8.8663    3.4415   -6.9713 C   0  0  0  0  0  0  0  0  0  0  0  0
   -8.8250    6.3420  -13.3343 C   0  0  0  0  0  0  0  0  0  0  0  0
   -9.8478    6.0281  -13.8096 O   0  0  0  0  0  0  0  0  0  0  0  0
   -8.3816    7.6905  -12.6964 N   0  0  0  0  0  0  0  0  0  0  0  0
   -9.1372    8.8969  -12.4273 C   0  0  0  0  0  0  0  0  0  0  0  0
   -8.8070    9.5372  -11.0836 C   0  0  0  0  0  0  0  0  0  0  0  0
   -8.9088    8.6315  -10.0793 F   0  0  0  0  0  0  0  0  0  0  0  0
   -7.5121    9.9562  -11.0916 F   0  0  0  0  0  0  0  0  0  0  0  0
   -8.1230    4.4580  -15.5514 C   0  0  0  0  0  0  0  0  0  0  0  0
   -7.9671    4.3409  -16.9291 C   0  0  0  0  0  0  0  0  0  0  0  0
   -9.4309    3.7266  -17.9139 Br  0  0  0  0  0  0  0  0  0  0  0  0
   -6.7966    4.7425  -17.5520 C   0  0  0  0  0  0  0  0  0  0  0  0
   -5.7204    5.1624  -16.7594 C   0  0  0  0  0  0  0  0  0  0  0  0
   -4.4161    5.4020  -17.4834 C   0  0  0  0  0  0  0  0  0  0  0  0
   -4.6499    6.0612  -18.8225 C   0  0  0  0  0  0  0  0  0  0  0  0
   -5.6266    5.2849  -19.6462 C   0  0  0  0  0  0  0  0  0  0  0  0
   -5.5099    5.2453  -20.8667 O   0  0  0  0  0  0  0  0  0  0  0  0
   -6.6739    4.7335  -18.9580 N   0  0  0  0  0  0  0  0  0  0  0  0
  1  2  1  0
  2  3  1  0
  3  4  2  0
  4  5  1  0
  5  6  1  1
  5  7  1  0
  7  8  1  0
  8  9  2  0
  9 10  1  0
 10 11  2  0
 11 12  1  0
 12 13  2  0
 12 14  1  0
 14 15  1  0
 15 16  1  0
  5 17  1  0
 17 18  2  0
 17 19  1  0
 19 20  1  0
 20 21  1  0
 21 22  1  0
 21 23  1  0
  4 24  1  0
 24 25  2  0
 25 26  1  0
 25 27  1  0
 27 28  2  0
 28 29  1  0
 29 30  1  0
 30 31  1  0
 31 32  2  0
 31 33  1  0
 28  3  1  0
 13  8  1  0
 33 27  1  0
 16 11  1  0
M  END
>  <smiles>  (2045) 
C30707-P243

>  <fragmenstein_outcome>  (2045) 
acceptable

>  <inchikey>  (2045) 
NJKXTUIJJNMNAZ-UHFFFAOYSA-N

>  <fragmenstein_mode>  (2045) 
expansion

>  <HIPPO Pose ID>  (2045) 
25259

>  <Energy>  (2045) 
118.07439

>  <fragmenstein_error>  (2045) 


>  <tags>  (2045) 
{'openbind_xx01zvns2b_c1_fragmenstein', 'fragmenstein_placed'}

>  <ref_pdb>  (2045) 
175

>  <scratch_subdir>  (2045) 
/opt/xchem-fragalysis-2/maxwin/BulkDock/SCRATCH/511028/C30707-P243

>  <alias>  (2045) 
CCc1c([C@](O)(Nc2ccc3c(c2)CNC3)C(=O)NCC(F)F)cc(Br)c2c1CCC(=O)N2

>  <HIPPO Compound ID>  (2045) 
30707

>  <fragmenstein_runtime>  (2045) 
5.473298

$$$$
Cc1cc(NC(=O)c2ccc3c(c2)C(=O)CC(=O)N3)cc2c1CN[C@H]2N
     RDKit          3D

 26 29  0  0  0  0  0  0  0  0999 V2000
   -7.9228    6.7391   -8.4080 C   0  0  0  0  0  0  0  0  0  0  0  0
   -8.0393    5.4719   -9.1960 C   0  0  0  0  0  0  0  0  0  0  0  0
   -7.8353    5.4712  -10.5866 C   0  0  0  0  0  0  0  0  0  0  0  0
   -7.9280    4.2877  -11.3360 C   0  0  0  0  0  0  0  0  0  0  0  0
   -7.7073    4.2746  -12.7115 N   0  0  0  0  0  0  0  0  0  0  0  0
   -7.3602    5.4265  -13.6846 C   0  0  0  0  0  0  0  0  0  0  0  0
   -7.1295    6.5518  -13.4740 O   0  0  0  0  0  0  0  0  0  0  0  0
   -7.3977    4.9656  -15.0950 C   0  0  0  0  0  0  0  0  0  0  0  0
   -8.5364    4.3133  -15.5761 C   0  0  0  0  0  0  0  0  0  0  0  0
   -8.6293    3.9726  -16.9227 C   0  0  0  0  0  0  0  0  0  0  0  0
   -7.5758    4.2731  -17.7835 C   0  0  0  0  0  0  0  0  0  0  0  0
   -6.4443    4.9360  -17.3104 C   0  0  0  0  0  0  0  0  0  0  0  0
   -6.3483    5.2887  -15.9599 C   0  0  0  0  0  0  0  0  0  0  0  0
   -5.3698    5.2781  -18.2646 C   0  0  0  0  0  0  0  0  0  0  0  0
   -4.3579    5.8531  -17.8677 O   0  0  0  0  0  0  0  0  0  0  0  0
   -5.5803    4.9680  -19.7194 C   0  0  0  0  0  0  0  0  0  0  0  0
   -6.6666    3.9809  -20.0226 C   0  0  0  0  0  0  0  0  0  0  0  0
   -6.7285    3.3122  -21.0551 O   0  0  0  0  0  0  0  0  0  0  0  0
   -7.6587    3.8414  -19.1006 N   0  0  0  0  0  0  0  0  0  0  0  0
   -8.2265    3.0797  -10.7047 C   0  0  0  0  0  0  0  0  0  0  0  0
   -8.3805    3.0782   -9.3277 C   0  0  0  0  0  0  0  0  0  0  0  0
   -8.2891    4.2504   -8.5853 C   0  0  0  0  0  0  0  0  0  0  0  0
   -8.4907    3.9228   -7.1449 C   0  0  0  0  0  0  0  0  0  0  0  0
   -8.6827    2.4604   -7.0594 N   0  0  0  0  0  0  0  0  0  0  0  0
   -8.5776    1.9215   -8.4147 C   0  0  1  0  0  0  0  0  0  0  0  0
   -9.8326    1.2709   -8.5689 N   0  0  0  0  0  0  0  0  0  0  0  0
  1  2  1  0
  2  3  2  0
  3  4  1  0
  4  5  1  0
  5  6  1  0
  6  7  2  0
  6  8  1  0
  8  9  2  0
  9 10  1  0
 10 11  2  0
 11 12  1  0
 12 13  2  0
 12 14  1  0
 14 15  2  0
 14 16  1  0
 16 17  1  0
 17 18  2  0
 17 19  1  0
  4 20  2  0
 20 21  1  0
 21 22  2  0
 22 23  1  0
 23 24  1  0
 24 25  1  0
 25 26  1  6
 22  2  1  0
 13  8  1  0
 25 21  1  0
 19 11  1  0
M  END
>  <smiles>  (2046) 
C30714-P243

>  <fragmenstein_outcome>  (2046) 
acceptable

>  <inchikey>  (2046) 
RAHHBBQYVWECQK-UHFFFAOYSA-N

>  <fragmenstein_mode>  (2046) 
expansion

>  <HIPPO Pose ID>  (2046) 
25263

>  <Energy>  (2046) 
-40.55163

>  <fragmenstein_error>  (2046) 


>  <tags>  (2046) 
{'openbind_xx01zvns2b_c1_fragmenstein', 'fragmenstein_placed'}

>  <ref_pdb>  (2046) 
175

>  <scratch_subdir>  (2046) 
/opt/xchem-fragalysis-2/maxwin/BulkDock/SCRATCH/511028/C30714-P243

>  <alias>  (2046) 
Cc1cc(NC(=O)c2ccc3c(c2)C(=O)CC(=O)N3)cc2c1CN[C@H]2N

>  <HIPPO Compound ID>  (2046) 
30714

>  <fragmenstein_runtime>  (2046) 
5.341118

$$$$
O=C1CC(=O)c2cc(C(=O)Nc3ccc4c(c3)CNC4=O)ccc2N1
     RDKit          3D

 25 28  0  0  0  0  0  0  0  0999 V2000
   -6.7412    3.2615  -21.1267 O   0  0  0  0  0  0  0  0  0  0  0  0
   -6.6976    3.9231  -20.0908 C   0  0  0  0  0  0  0  0  0  0  0  0
   -5.6104    4.9133  -19.7866 C   0  0  0  0  0  0  0  0  0  0  0  0
   -5.3736    5.1861  -18.3299 C   0  0  0  0  0  0  0  0  0  0  0  0
   -4.3272    5.6899  -17.9254 O   0  0  0  0  0  0  0  0  0  0  0  0
   -6.4685    4.8875  -17.3865 C   0  0  0  0  0  0  0  0  0  0  0  0
   -6.3620    5.2280  -16.0348 C   0  0  0  0  0  0  0  0  0  0  0  0
   -7.4136    4.9115  -15.1726 C   0  0  0  0  0  0  0  0  0  0  0  0
   -7.3521    5.3168  -13.7462 C   0  0  0  0  0  0  0  0  0  0  0  0
   -7.0751    6.4221  -13.4902 O   0  0  0  0  0  0  0  0  0  0  0  0
   -7.7444    4.1403  -12.8197 N   0  0  0  0  0  0  0  0  0  0  0  0
   -7.9617    4.1056  -11.4441 C   0  0  0  0  0  0  0  0  0  0  0  0
   -7.9030    5.2799  -10.6738 C   0  0  0  0  0  0  0  0  0  0  0  0
   -8.1520    5.2435   -9.3006 C   0  0  0  0  0  0  0  0  0  0  0  0
   -8.4574    4.0194   -8.7405 C   0  0  0  0  0  0  0  0  0  0  0  0
   -8.5147    2.8432   -9.4811 C   0  0  0  0  0  0  0  0  0  0  0  0
   -8.2668    2.8725  -10.8444 C   0  0  0  0  0  0  0  0  0  0  0  0
   -8.8530    1.7025   -8.5766 C   0  0  0  0  0  0  0  0  0  0  0  0
   -9.0764    2.3581   -7.3060 N   0  0  0  0  0  0  0  0  0  0  0  0
   -8.7783    3.7008   -7.3465 C   0  0  0  0  0  0  0  0  0  0  0  0
   -8.7718    4.4973   -6.4278 O   0  0  0  0  0  0  0  0  0  0  0  0
   -8.5723    4.3001  -15.6627 C   0  0  0  0  0  0  0  0  0  0  0  0
   -8.6781    3.9763  -17.0120 C   0  0  0  0  0  0  0  0  0  0  0  0
   -7.6144    4.2498  -17.8659 C   0  0  0  0  0  0  0  0  0  0  0  0
   -7.6946    3.7969  -19.1751 N   0  0  0  0  0  0  0  0  0  0  0  0
  1  2  2  0
  2  3  1  0
  3  4  1  0
  4  5  2  0
  4  6  1  0
  6  7  2  0
  7  8  1  0
  8  9  1  0
  9 10  2  0
  9 11  1  0
 11 12  1  0
 12 13  2  0
 13 14  1  0
 14 15  2  0
 15 16  1  0
 16 17  2  0
 16 18  1  0
 18 19  1  0
 19 20  1  0
 20 21  2  0
  8 22  2  0
 22 23  1  0
 23 24  2  0
 24 25  1  0
 25  2  1  0
 24  6  1  0
 17 12  1  0
 20 15  1  0
M  END
>  <smiles>  (2047) 
C30724-P243

>  <fragmenstein_outcome>  (2047) 
acceptable

>  <inchikey>  (2047) 
GJEHOASEJCCAPR-UHFFFAOYSA-N

>  <fragmenstein_mode>  (2047) 
expansion

>  <HIPPO Pose ID>  (2047) 
25266

>  <Energy>  (2047) 
16.532156

>  <fragmenstein_error>  (2047) 


>  <tags>  (2047) 
{'openbind_xx01zvns2b_c1_fragmenstein', 'fragmenstein_placed'}

>  <ref_pdb>  (2047) 
175

>  <scratch_subdir>  (2047) 
/opt/xchem-fragalysis-2/maxwin/BulkDock/SCRATCH/511028/C30724-P243

>  <alias>  (2047) 
O=C1CC(=O)c2cc(C(=O)Nc3ccc4c(c3)CNC4=O)ccc2N1

>  <HIPPO Compound ID>  (2047) 
30724

>  <fragmenstein_runtime>  (2047) 
3.999492

$$$$
CNC[C@H]1CC(=O)Nc2c(F)cc(C(=O)Nc3ccc4c(c3)CNC4)cc21
     RDKit          3D

 27 30  0  0  0  0  0  0  0  0999 V2000
   -1.8537    5.5879  -17.8829 C   0  0  0  0  0  0  0  0  0  0  0  0
   -3.2238    5.0938  -17.7562 N   0  0  0  0  0  0  0  0  0  0  0  0
   -4.1732    6.1621  -18.0860 C   0  0  0  0  0  0  0  0  0  0  0  0
   -5.6099    5.7083  -18.4491 C   0  0  1  0  0  0  0  0  0  0  0  0
   -5.6126    4.9578  -19.7905 C   0  0  0  0  0  0  0  0  0  0  0  0
   -6.7393    3.9813  -20.0230 C   0  0  0  0  0  0  0  0  0  0  0  0
   -6.7839    3.2758  -21.0330 O   0  0  0  0  0  0  0  0  0  0  0  0
   -7.7003    3.8822  -19.0775 N   0  0  0  0  0  0  0  0  0  0  0  0
   -7.5605    4.3199  -17.7670 C   0  0  0  0  0  0  0  0  0  0  0  0
   -8.5474    3.9536  -16.8598 C   0  0  0  0  0  0  0  0  0  0  0  0
   -9.6298    3.3069  -17.3098 F   0  0  0  0  0  0  0  0  0  0  0  0
   -8.4304    4.2573  -15.5163 C   0  0  0  0  0  0  0  0  0  0  0  0
   -7.2922    4.9309  -15.0714 C   0  0  0  0  0  0  0  0  0  0  0  0
   -7.1844    5.3285  -13.6356 C   0  0  0  0  0  0  0  0  0  0  0  0
   -6.8262    6.4119  -13.3826 O   0  0  0  0  0  0  0  0  0  0  0  0
   -7.6547    4.1823  -12.7035 N   0  0  0  0  0  0  0  0  0  0  0  0
   -7.8644    4.1644  -11.3249 C   0  0  0  0  0  0  0  0  0  0  0  0
   -7.6845    5.3085  -10.5319 C   0  0  0  0  0  0  0  0  0  0  0  0
   -7.9420    5.2736   -9.1549 C   0  0  0  0  0  0  0  0  0  0  0  0
   -8.3868    4.0873   -8.5996 C   0  0  0  0  0  0  0  0  0  0  0  0
   -8.5539    2.9489   -9.3812 C   0  0  0  0  0  0  0  0  0  0  0  0
   -8.2961    2.9670  -10.7416 C   0  0  0  0  0  0  0  0  0  0  0  0
   -9.0043    1.8212   -8.5116 C   0  0  0  0  0  0  0  0  0  0  0  0
   -9.4681    2.4669   -7.2554 N   0  0  0  0  0  0  0  0  0  0  0  0
   -8.7451    3.7584   -7.1877 C   0  0  0  0  0  0  0  0  0  0  0  0
   -6.3181    5.3574  -15.9944 C   0  0  0  0  0  0  0  0  0  0  0  0
   -6.4535    5.0712  -17.3659 C   0  0  0  0  0  0  0  0  0  0  0  0
  1  2  1  0
  2  3  1  0
  4  3  1  1
  4  5  1  0
  5  6  1  0
  6  7  2  0
  6  8  1  0
  8  9  1  0
  9 10  2  0
 10 11  1  0
 10 12  1  0
 12 13  2  0
 13 14  1  0
 14 15  2  0
 14 16  1  0
 16 17  1  0
 17 18  2  0
 18 19  1  0
 19 20  2  0
 20 21  1  0
 21 22  2  0
 21 23  1  0
 23 24  1  0
 24 25  1  0
 13 26  1  0
 26 27  2  0
 27  4  1  0
 27  9  1  0
 22 17  1  0
 25 20  1  0
M  END
>  <smiles>  (2048) 
C30732-P243

>  <fragmenstein_outcome>  (2048) 
acceptable

>  <inchikey>  (2048) 
PRRDFMYXQNYYJP-UHFFFAOYSA-N

>  <fragmenstein_mode>  (2048) 
expansion

>  <HIPPO Pose ID>  (2048) 
25268

>  <Energy>  (2048) 
47.907255

>  <fragmenstein_error>  (2048) 


>  <tags>  (2048) 
{'openbind_xx01zvns2b_c1_fragmenstein', 'fragmenstein_placed'}

>  <ref_pdb>  (2048) 
175

>  <scratch_subdir>  (2048) 
/opt/xchem-fragalysis-2/maxwin/BulkDock/SCRATCH/511028/C30732-P243

>  <alias>  (2048) 
CNC[C@H]1CC(=O)Nc2c(F)cc(C(=O)Nc3ccc4c(c3)CNC4)cc21

>  <HIPPO Compound ID>  (2048) 
34290

>  <fragmenstein_runtime>  (2048) 
6.465676

$$$$
CC[C@@H]1CC(=O)Nc2c(Cl)cc([C@](O)(Nc3ccc4c(c3)CNC4)C(=O)NCCCF)cc21
     RDKit          3D

 33 36  0  0  0  0  0  0  0  0999 V2000
   -2.8321    5.4805  -17.0981 C   0  0  0  0  0  0  0  0  0  0  0  0
   -4.0325    6.0530  -17.8456 C   0  0  0  0  0  0  0  0  0  0  0  0
   -5.0549    4.9528  -18.1851 C   0  0  2  0  0  0  0  0  0  0  0  0
   -5.4905    5.0925  -19.6513 C   0  0  0  0  0  0  0  0  0  0  0  0
   -6.5427    4.0779  -20.0149 C   0  0  0  0  0  0  0  0  0  0  0  0
   -6.5649    3.4409  -21.0634 O   0  0  0  0  0  0  0  0  0  0  0  0
   -7.5419    3.9530  -19.1100 N   0  0  0  0  0  0  0  0  0  0  0  0
   -7.4609    4.3717  -17.7834 C   0  0  0  0  0  0  0  0  0  0  0  0
   -8.5835    4.2331  -16.9784 C   0  0  0  0  0  0  0  0  0  0  0  0
  -10.0991    3.8921  -17.6859 Cl  0  0  0  0  0  0  0  0  0  0  0  0
   -8.5110    4.4765  -15.6188 C   0  0  0  0  0  0  0  0  0  0  0  0
   -7.3163    4.9085  -15.0305 C   0  0  0  0  0  0  0  0  0  0  0  0
   -7.3070    5.2458  -13.5351 C   0  0  2  0  0  0  0  0  0  0  0  0
   -5.9688    5.4821  -13.1307 O   0  0  0  0  0  0  0  0  0  0  0  0
   -7.7450    4.1046  -12.7341 N   0  0  0  0  0  0  0  0  0  0  0  0
   -7.9994    4.1396  -11.3594 C   0  0  0  0  0  0  0  0  0  0  0  0
   -7.7179    5.2399  -10.5248 C   0  0  0  0  0  0  0  0  0  0  0  0
   -7.9372    5.2055   -9.1420 C   0  0  0  0  0  0  0  0  0  0  0  0
   -8.3814    4.0289   -8.5806 C   0  0  0  0  0  0  0  0  0  0  0  0
   -8.6061    2.9135   -9.3682 C   0  0  0  0  0  0  0  0  0  0  0  0
   -8.4302    2.9535  -10.7444 C   0  0  0  0  0  0  0  0  0  0  0  0
   -9.0125    1.7695   -8.5065 C   0  0  0  0  0  0  0  0  0  0  0  0
   -8.9680    2.2605   -7.1022 N   0  0  0  0  0  0  0  0  0  0  0  0
   -8.6847    3.7104   -7.1596 C   0  0  0  0  0  0  0  0  0  0  0  0
   -8.2582    6.5324  -13.3270 C   0  0  0  0  0  0  0  0  0  0  0  0
   -9.4252    6.5131  -13.4329 O   0  0  0  0  0  0  0  0  0  0  0  0
   -7.2911    7.7165  -13.0052 N   0  0  0  0  0  0  0  0  0  0  0  0
   -7.5725    9.0836  -12.6578 C   0  0  0  0  0  0  0  0  0  0  0  0
   -6.7134   10.0479  -13.4606 C   0  0  0  0  0  0  0  0  0  0  0  0
   -7.0348   11.4857  -13.1042 C   0  0  0  0  0  0  0  0  0  0  0  0
   -6.7336   11.6973  -11.7959 F   0  0  0  0  0  0  0  0  0  0  0  0
   -6.1962    5.0987  -15.8722 C   0  0  0  0  0  0  0  0  0  0  0  0
   -6.2557    4.8500  -17.2580 C   0  0  0  0  0  0  0  0  0  0  0  0
  1  2  1  0
  3  2  1  1
  3  4  1  0
  4  5  1  0
  5  6  2  0
  5  7  1  0
  7  8  1  0
  8  9  2  0
  9 10  1  0
  9 11  1  0
 11 12  2  0
 12 13  1  0
 13 14  1  1
 13 15  1  0
 15 16  1  0
 16 17  2  0
 17 18  1  0
 18 19  2  0
 19 20  1  0
 20 21  2  0
 20 22  1  0
 22 23  1  0
 23 24  1  0
 13 25  1  0
 25 26  2  0
 25 27  1  0
 27 28  1  0
 28 29  1  0
 29 30  1  0
 30 31  1  0
 12 32  1  0
 32 33  2  0
 33  3  1  0
 33  8  1  0
 21 16  1  0
 24 19  1  0
M  END
>  <smiles>  (2049) 
C30737-P243

>  <fragmenstein_outcome>  (2049) 
acceptable

>  <inchikey>  (2049) 
LQNOOFDGSDCUEN-UHFFFAOYSA-N

>  <fragmenstein_mode>  (2049) 
expansion

>  <HIPPO Pose ID>  (2049) 
25277

>  <Energy>  (2049) 
80.824272

>  <fragmenstein_error>  (2049) 


>  <tags>  (2049) 
{'openbind_xx01zvns2b_c1_fragmenstein', 'fragmenstein_placed'}

>  <ref_pdb>  (2049) 
175

>  <scratch_subdir>  (2049) 
/opt/xchem-fragalysis-2/maxwin/BulkDock/SCRATCH/511028/C30737-P243

>  <alias>  (2049) 
CC[C@@H]1CC(=O)Nc2c(Cl)cc([C@](O)(Nc3ccc4c(c3)CNC4)C(=O)NCCCF)cc21

>  <HIPPO Compound ID>  (2049) 
28725

>  <fragmenstein_runtime>  (2049) 
5.545954

$$$$
CNC[C@@H]1Cc2cc(C(=O)Nc3ccc4c(c3)CNC4)cc(Cl)c2NC1=O
     RDKit          3D

 27 30  0  0  0  0  0  0  0  0999 V2000
   -2.6756    6.7974  -21.4400 C   0  0  0  0  0  0  0  0  0  0  0  0
   -3.5719    6.5871  -20.3111 N   0  0  0  0  0  0  0  0  0  0  0  0
   -4.4524    5.4284  -20.5604 C   0  0  0  0  0  0  0  0  0  0  0  0
   -5.5761    5.3311  -19.5263 C   0  0  2  0  0  0  0  0  0  0  0  0
   -5.0815    5.1731  -18.0785 C   0  0  0  0  0  0  0  0  0  0  0  0
   -6.2262    4.9500  -17.1241 C   0  0  0  0  0  0  0  0  0  0  0  0
   -6.1240    5.2177  -15.7508 C   0  0  0  0  0  0  0  0  0  0  0  0
   -7.2149    4.9662  -14.9019 C   0  0  0  0  0  0  0  0  0  0  0  0
   -7.1438    5.3334  -13.4601 C   0  0  0  0  0  0  0  0  0  0  0  0
   -6.6806    6.3669  -13.1723 O   0  0  0  0  0  0  0  0  0  0  0  0
   -7.8231    4.2560  -12.5768 N   0  0  0  0  0  0  0  0  0  0  0  0
   -7.9819    4.1879  -11.1942 C   0  0  0  0  0  0  0  0  0  0  0  0
   -7.7545    5.3066  -10.3795 C   0  0  0  0  0  0  0  0  0  0  0  0
   -7.9595    5.2364   -8.9971 C   0  0  0  0  0  0  0  0  0  0  0  0
   -8.3776    4.0348   -8.4534 C   0  0  0  0  0  0  0  0  0  0  0  0
   -8.5920    2.9234   -9.2563 C   0  0  0  0  0  0  0  0  0  0  0  0
   -8.4125    2.9827  -10.6296 C   0  0  0  0  0  0  0  0  0  0  0  0
   -8.9867    1.7632   -8.4079 C   0  0  0  0  0  0  0  0  0  0  0  0
   -9.1520    2.2911   -7.0289 N   0  0  0  0  0  0  0  0  0  0  0  0
   -8.6593    3.6853   -7.0328 C   0  0  0  0  0  0  0  0  0  0  0  0
   -8.4212    4.4939  -15.4236 C   0  0  0  0  0  0  0  0  0  0  0  0
   -8.5150    4.2387  -16.7811 C   0  0  0  0  0  0  0  0  0  0  0  0
  -10.0119    3.8364  -17.4976 Cl  0  0  0  0  0  0  0  0  0  0  0  0
   -7.4198    4.4195  -17.6141 C   0  0  0  0  0  0  0  0  0  0  0  0
   -7.5213    4.0171  -18.9428 N   0  0  0  0  0  0  0  0  0  0  0  0
   -6.5521    4.2072  -19.8710 C   0  0  0  0  0  0  0  0  0  0  0  0
   -6.5571    3.5349  -20.8981 O   0  0  0  0  0  0  0  0  0  0  0  0
  1  2  1  0
  2  3  1  0
  4  3  1  6
  4  5  1  0
  5  6  1  0
  6  7  2  0
  7  8  1  0
  8  9  1  0
  9 10  2  0
  9 11  1  0
 11 12  1  0
 12 13  2  0
 13 14  1  0
 14 15  2  0
 15 16  1  0
 16 17  2  0
 16 18  1  0
 18 19  1  0
 19 20  1  0
  8 21  2  0
 21 22  1  0
 22 23  1  0
 22 24  2  0
 24 25  1  0
 25 26  1  0
 26 27  2  0
 26  4  1  0
 24  6  1  0
 17 12  1  0
 20 15  1  0
M  END
>  <smiles>  (2050) 
C30748-P243

>  <fragmenstein_outcome>  (2050) 
acceptable

>  <inchikey>  (2050) 
CYKSTISCCMVLRW-UHFFFAOYSA-N

>  <fragmenstein_mode>  (2050) 
expansion

>  <HIPPO Pose ID>  (2050) 
25278

>  <Energy>  (2050) 
39.713185

>  <fragmenstein_error>  (2050) 


>  <tags>  (2050) 
{'openbind_xx01zvns2b_c1_fragmenstein', 'fragmenstein_placed'}

>  <ref_pdb>  (2050) 
175

>  <scratch_subdir>  (2050) 
/opt/xchem-fragalysis-2/maxwin/BulkDock/SCRATCH/511028/C30748-P243

>  <alias>  (2050) 
CNC[C@@H]1Cc2cc(C(=O)Nc3ccc4c(c3)CNC4)cc(Cl)c2NC1=O

>  <HIPPO Compound ID>  (2050) 
30748

>  <fragmenstein_runtime>  (2050) 
9.905626

$$$$
CC(C)NC(=O)[C@](O)(Nc1ccc2c(c1)CNC2)c1cc(Cl)c2c(c1)[C@@](F)(NF)CC(=O)N2
     RDKit          3D

 33 36  0  0  0  0  0  0  0  0999 V2000
   -6.0759    9.8414  -12.7374 C   0  0  0  0  0  0  0  0  0  0  0  0
   -5.7019    8.5184  -12.0827 C   0  0  0  0  0  0  0  0  0  0  0  0
   -5.8397    8.5918  -10.5664 C   0  0  0  0  0  0  0  0  0  0  0  0
   -6.5128    7.4450  -12.6048 N   0  0  0  0  0  0  0  0  0  0  0  0
   -6.2288    5.9106  -12.6944 C   0  0  0  0  0  0  0  0  0  0  0  0
   -5.2645    5.3012  -12.4291 O   0  0  0  0  0  0  0  0  0  0  0  0
   -7.5566    5.2744  -13.3669 C   0  0  2  0  0  0  0  0  0  0  0  0
   -8.6447    6.1942  -13.3514 O   0  0  0  0  0  0  0  0  0  0  0  0
   -8.0149    4.0957  -12.6519 N   0  0  0  0  0  0  0  0  0  0  0  0
   -8.1676    4.0576  -11.2548 C   0  0  0  0  0  0  0  0  0  0  0  0
   -8.1509    5.1954  -10.4163 C   0  0  0  0  0  0  0  0  0  0  0  0
   -8.3432    5.1090   -9.0332 C   0  0  0  0  0  0  0  0  0  0  0  0
   -8.6337    3.8759   -8.4978 C   0  0  0  0  0  0  0  0  0  0  0  0
   -8.7085    2.7496   -9.3065 C   0  0  0  0  0  0  0  0  0  0  0  0
   -8.4720    2.8201  -10.6698 C   0  0  0  0  0  0  0  0  0  0  0  0
   -9.0506    1.5715   -8.4571 C   0  0  0  0  0  0  0  0  0  0  0  0
   -9.5676    2.1547   -7.1891 N   0  0  0  0  0  0  0  0  0  0  0  0
   -8.9272    3.4840   -7.0892 C   0  0  0  0  0  0  0  0  0  0  0  0
   -7.3356    4.9617  -14.8516 C   0  0  0  0  0  0  0  0  0  0  0  0
   -8.3476    4.4151  -15.6508 C   0  0  0  0  0  0  0  0  0  0  0  0
   -8.1973    4.3228  -17.0429 C   0  0  0  0  0  0  0  0  0  0  0  0
   -9.5438    3.7821  -17.9463 Cl  0  0  0  0  0  0  0  0  0  0  0  0
   -7.0214    4.7462  -17.6753 C   0  0  0  0  0  0  0  0  0  0  0  0
   -5.9811    5.2331  -16.8901 C   0  0  0  0  0  0  0  0  0  0  0  0
   -6.1530    5.3326  -15.4988 C   0  0  0  0  0  0  0  0  0  0  0  0
   -4.7777    5.8455  -17.5549 C   0  0  1  0  0  0  0  0  0  0  0  0
   -4.9837    7.1843  -17.7315 F   0  0  0  0  0  0  0  0  0  0  0  0
   -3.5763    5.7164  -16.7219 N   0  0  0  0  0  0  0  0  0  0  0  0
   -2.4216    5.9941  -17.4190 F   0  0  0  0  0  0  0  0  0  0  0  0
   -4.4893    5.2360  -18.8990 C   0  0  0  0  0  0  0  0  0  0  0  0
   -5.7280    5.1696  -19.7229 C   0  0  0  0  0  0  0  0  0  0  0  0
   -5.6565    5.3708  -20.9324 O   0  0  0  0  0  0  0  0  0  0  0  0
   -6.8812    4.8011  -19.0765 N   0  0  0  0  0  0  0  0  0  0  0  0
  1  2  1  0
  2  3  1  0
  2  4  1  0
  4  5  1  0
  5  6  2  0
  5  7  1  0
  7  8  1  6
  7  9  1  0
  9 10  1  0
 10 11  2  0
 11 12  1  0
 12 13  2  0
 13 14  1  0
 14 15  2  0
 14 16  1  0
 16 17  1  0
 17 18  1  0
  7 19  1  0
 19 20  2  0
 20 21  1  0
 21 22  1  0
 21 23  2  0
 23 24  1  0
 24 25  2  0
 24 26  1  0
 26 27  1  6
 26 28  1  0
 28 29  1  0
 26 30  1  0
 30 31  1  0
 31 32  2  0
 31 33  1  0
 15 10  1  0
 25 19  1  0
 18 13  1  0
 33 23  1  0
M  END
>  <smiles>  (2051) 
C30753-P243

>  <fragmenstein_outcome>  (2051) 
acceptable

>  <inchikey>  (2051) 
RDCMQEHWLOZWSX-UHFFFAOYSA-N

>  <fragmenstein_mode>  (2051) 
expansion

>  <HIPPO Pose ID>  (2051) 
25281

>  <Energy>  (2051) 
54.948783

>  <fragmenstein_error>  (2051) 


>  <tags>  (2051) 
{'openbind_xx01zvns2b_c1_fragmenstein', 'fragmenstein_placed'}

>  <ref_pdb>  (2051) 
175

>  <scratch_subdir>  (2051) 
/opt/xchem-fragalysis-2/maxwin/BulkDock/SCRATCH/511028/C30753-P243

>  <alias>  (2051) 
CC(C)NC(=O)[C@](O)(Nc1ccc2c(c1)CNC2)c1cc(Cl)c2c(c1)[C@@](F)(NF)CC(=O)N2

>  <HIPPO Compound ID>  (2051) 
30753

>  <fragmenstein_runtime>  (2051) 
10.407465

$$$$
O=C1C[C@H](CC2CNC2)c2cc(C(=O)Nc3ccc4c(c3)CNC4)cc(Cl)c2N1
     RDKit          3D

 29 33  0  0  0  0  0  0  0  0999 V2000
   -6.4240    3.5622  -20.9168 O   0  0  0  0  0  0  0  0  0  0  0  0
   -6.4569    4.2499  -19.9011 C   0  0  0  0  0  0  0  0  0  0  0  0
   -5.5269    5.4005  -19.6308 C   0  0  0  0  0  0  0  0  0  0  0  0
   -5.1640    5.6182  -18.1473 C   0  0  2  0  0  0  0  0  0  0  0  0
   -3.7445    5.1069  -17.8411 C   0  0  0  0  0  0  0  0  0  0  0  0
   -2.7021    6.0914  -18.3834 C   0  0  0  0  0  0  0  0  0  0  0  0
   -1.2234    5.7842  -18.0836 C   0  0  0  0  0  0  0  0  0  0  0  0
   -1.2997    6.6890  -16.9155 N   0  0  0  0  0  0  0  0  0  0  0  0
   -2.4527    7.3664  -17.5450 C   0  0  0  0  0  0  0  0  0  0  0  0
   -6.2214    5.1270  -17.1805 C   0  0  0  0  0  0  0  0  0  0  0  0
   -6.1484    5.3905  -15.7991 C   0  0  0  0  0  0  0  0  0  0  0  0
   -7.1999    5.0232  -14.9420 C   0  0  0  0  0  0  0  0  0  0  0  0
   -7.1469    5.3847  -13.4993 C   0  0  0  0  0  0  0  0  0  0  0  0
   -6.8347    6.4737  -13.2123 O   0  0  0  0  0  0  0  0  0  0  0  0
   -7.6176    4.2068  -12.6085 N   0  0  0  0  0  0  0  0  0  0  0  0
   -7.8829    4.1557  -11.2398 C   0  0  0  0  0  0  0  0  0  0  0  0
   -7.7297    5.2825  -10.4173 C   0  0  0  0  0  0  0  0  0  0  0  0
   -8.0170    5.2155   -9.0482 C   0  0  0  0  0  0  0  0  0  0  0  0
   -8.4540    4.0115   -8.5278 C   0  0  0  0  0  0  0  0  0  0  0  0
   -8.5972    2.8903   -9.3387 C   0  0  0  0  0  0  0  0  0  0  0  0
   -8.3220    2.9433  -10.6952 C   0  0  0  0  0  0  0  0  0  0  0  0
   -9.0276    1.7340   -8.4973 C   0  0  0  0  0  0  0  0  0  0  0  0
   -9.5049    2.3387   -7.2266 N   0  0  0  0  0  0  0  0  0  0  0  0
   -8.8141    3.6442   -7.1263 C   0  0  0  0  0  0  0  0  0  0  0  0
   -8.3661    4.4643  -15.4613 C   0  0  0  0  0  0  0  0  0  0  0  0
   -8.4430    4.2241  -16.8239 C   0  0  0  0  0  0  0  0  0  0  0  0
   -9.9315    3.7634  -17.5301 Cl  0  0  0  0  0  0  0  0  0  0  0  0
   -7.3619    4.4880  -17.6631 C   0  0  0  0  0  0  0  0  0  0  0  0
   -7.4310    4.0626  -18.9846 N   0  0  0  0  0  0  0  0  0  0  0  0
  1  2  2  0
  2  3  1  0
  3  4  1  0
  4  5  1  1
  5  6  1  0
  6  7  1  0
  7  8  1  0
  8  9  1  0
  4 10  1  0
 10 11  2  0
 11 12  1  0
 12 13  1  0
 13 14  2  0
 13 15  1  0
 15 16  1  0
 16 17  2  0
 17 18  1  0
 18 19  2  0
 19 20  1  0
 20 21  2  0
 20 22  1  0
 22 23  1  0
 23 24  1  0
 12 25  2  0
 25 26  1  0
 26 27  1  0
 26 28  2  0
 28 29  1  0
 29  2  1  0
  9  6  1  0
 28 10  1  0
 21 16  1  0
 24 19  1  0
M  END
>  <smiles>  (2052) 
C30756-P243

>  <fragmenstein_outcome>  (2052) 
acceptable

>  <inchikey>  (2052) 
COJHRTXNBUGMCY-UHFFFAOYSA-N

>  <fragmenstein_mode>  (2052) 
expansion

>  <HIPPO Pose ID>  (2052) 
25283

>  <Energy>  (2052) 
57.128894

>  <fragmenstein_error>  (2052) 


>  <tags>  (2052) 
{'openbind_xx01zvns2b_c1_fragmenstein', 'fragmenstein_placed'}

>  <ref_pdb>  (2052) 
175

>  <scratch_subdir>  (2052) 
/opt/xchem-fragalysis-2/maxwin/BulkDock/SCRATCH/511028/C30756-P243

>  <alias>  (2052) 
O=C1C[C@H](CC2CNC2)c2cc(C(=O)Nc3ccc4c(c3)CNC4)cc(Cl)c2N1

>  <HIPPO Compound ID>  (2052) 
34923

>  <fragmenstein_runtime>  (2052) 
10.024217

$$$$
CNC[C@@H]1Cc2cc(C(=O)Nc3ccc4c(c3)CN(CC(F)F)C4)cc(Cl)c2NC1=O
     RDKit          3D

 31 34  0  0  0  0  0  0  0  0999 V2000
   -2.6910    6.9726  -21.7548 C   0  0  0  0  0  0  0  0  0  0  0  0
   -3.9344    6.8238  -21.0130 N   0  0  0  0  0  0  0  0  0  0  0  0
   -3.7009    6.1108  -19.7469 C   0  0  0  0  0  0  0  0  0  0  0  0
   -5.0096    5.9201  -18.9656 C   0  0  2  0  0  0  0  0  0  0  0  0
   -4.7122    5.4754  -17.5385 C   0  0  0  0  0  0  0  0  0  0  0  0
   -5.9864    5.1969  -16.7958 C   0  0  0  0  0  0  0  0  0  0  0  0
   -6.0747    5.3928  -15.4184 C   0  0  0  0  0  0  0  0  0  0  0  0
   -7.2491    5.0653  -14.7256 C   0  0  0  0  0  0  0  0  0  0  0  0
   -7.3208    5.4987  -13.3083 C   0  0  0  0  0  0  0  0  0  0  0  0
   -6.8949    6.5628  -13.0763 O   0  0  0  0  0  0  0  0  0  0  0  0
   -7.8648    4.4062  -12.3560 N   0  0  0  0  0  0  0  0  0  0  0  0
   -8.0790    4.4305  -10.9769 C   0  0  0  0  0  0  0  0  0  0  0  0
   -7.7470    5.5944  -10.2600 C   0  0  0  0  0  0  0  0  0  0  0  0
   -7.8337    5.6378   -8.8718 C   0  0  0  0  0  0  0  0  0  0  0  0
   -8.2766    4.5082   -8.2178 C   0  0  0  0  0  0  0  0  0  0  0  0
   -8.6626    3.3670   -8.9125 C   0  0  0  0  0  0  0  0  0  0  0  0
   -8.5600    3.3031  -10.2999 C   0  0  0  0  0  0  0  0  0  0  0  0
   -9.1425    2.3421   -7.9289 C   0  0  0  0  0  0  0  0  0  0  0  0
   -9.0491    2.9776   -6.5782 N   0  0  0  0  0  0  0  0  0  0  0  0
  -10.3418    3.1513   -5.8955 C   0  0  0  0  0  0  0  0  0  0  0  0
  -11.0765    1.8864   -5.4804 C   0  0  0  0  0  0  0  0  0  0  0  0
  -12.3770    2.1912   -5.2205 F   0  0  0  0  0  0  0  0  0  0  0  0
  -10.5785    1.4679   -4.3012 F   0  0  0  0  0  0  0  0  0  0  0  0
   -8.3831    4.2822   -6.7519 C   0  0  0  0  0  0  0  0  0  0  0  0
   -8.3317    4.5049  -15.4019 C   0  0  0  0  0  0  0  0  0  0  0  0
   -8.2420    4.3196  -16.7847 C   0  0  0  0  0  0  0  0  0  0  0  0
   -9.6091    3.7458  -17.6495 Cl  0  0  0  0  0  0  0  0  0  0  0  0
   -7.0820    4.6729  -17.4827 C   0  0  0  0  0  0  0  0  0  0  0  0
   -6.9842    4.4882  -18.8683 N   0  0  0  0  0  0  0  0  0  0  0  0
   -5.9238    4.9068  -19.6239 C   0  0  0  0  0  0  0  0  0  0  0  0
   -5.7742    4.5332  -20.7818 O   0  0  0  0  0  0  0  0  0  0  0  0
  1  2  1  0
  2  3  1  0
  4  3  1  6
  4  5  1  0
  5  6  1  0
  6  7  2  0
  7  8  1  0
  8  9  1  0
  9 10  2  0
  9 11  1  0
 11 12  1  0
 12 13  2  0
 13 14  1  0
 14 15  2  0
 15 16  1  0
 16 17  2  0
 16 18  1  0
 18 19  1  0
 19 20  1  0
 20 21  1  0
 21 22  1  0
 21 23  1  0
 19 24  1  0
  8 25  2  0
 25 26  1  0
 26 27  1  0
 26 28  2  0
 28 29  1  0
 29 30  1  0
 30 31  2  0
 30  4  1  0
 28  6  1  0
 17 12  1  0
 24 15  1  0
M  END
>  <smiles>  (2053) 
C30768-P243

>  <fragmenstein_outcome>  (2053) 
acceptable

>  <inchikey>  (2053) 
CMYQASSSFDLGBL-UHFFFAOYSA-N

>  <fragmenstein_mode>  (2053) 
expansion

>  <HIPPO Pose ID>  (2053) 
25284

>  <Energy>  (2053) 
90.168262

>  <fragmenstein_error>  (2053) 


>  <tags>  (2053) 
{'openbind_xx01zvns2b_c1_fragmenstein', 'fragmenstein_placed'}

>  <ref_pdb>  (2053) 
175

>  <scratch_subdir>  (2053) 
/opt/xchem-fragalysis-2/maxwin/BulkDock/SCRATCH/511028/C30768-P243

>  <alias>  (2053) 
CNC[C@@H]1Cc2cc(C(=O)Nc3ccc4c(c3)CN(CC(F)F)C4)cc(Cl)c2NC1=O

>  <HIPPO Compound ID>  (2053) 
30768

>  <fragmenstein_runtime>  (2053) 
7.834793

$$$$
CNC[C@@H]1CC(=O)Nc2c(Cl)cc(C(=O)Nc3ccc4c(c3)CNC4)cc21
     RDKit          3D

 27 30  0  0  0  0  0  0  0  0999 V2000
   -1.8238    5.4213  -18.0782 C   0  0  0  0  0  0  0  0  0  0  0  0
   -2.8278    6.4764  -18.1376 N   0  0  0  0  0  0  0  0  0  0  0  0
   -3.9982    6.2021  -17.3073 C   0  0  0  0  0  0  0  0  0  0  0  0
   -4.9315    5.0901  -17.8307 C   0  0  2  0  0  0  0  0  0  0  0  0
   -5.2943    5.3138  -19.3057 C   0  0  0  0  0  0  0  0  0  0  0  0
   -6.3333    4.3321  -19.7753 C   0  0  0  0  0  0  0  0  0  0  0  0
   -6.2961    3.7598  -20.8583 O   0  0  0  0  0  0  0  0  0  0  0  0
   -7.3752    4.1401  -18.9293 N   0  0  0  0  0  0  0  0  0  0  0  0
   -7.3606    4.4734  -17.5765 C   0  0  0  0  0  0  0  0  0  0  0  0
   -8.5146    4.2805  -16.8164 C   0  0  0  0  0  0  0  0  0  0  0  0
   -9.9755    3.8674  -17.6023 Cl  0  0  0  0  0  0  0  0  0  0  0  0
   -8.5118    4.5099  -15.4481 C   0  0  0  0  0  0  0  0  0  0  0  0
   -7.3476    4.9717  -14.8472 C   0  0  0  0  0  0  0  0  0  0  0  0
   -7.3300    5.3414  -13.4140 C   0  0  0  0  0  0  0  0  0  0  0  0
   -6.9167    6.3910  -13.1152 O   0  0  0  0  0  0  0  0  0  0  0  0
   -7.8665    4.1909  -12.5370 N   0  0  0  0  0  0  0  0  0  0  0  0
   -8.0875    4.1280  -11.1665 C   0  0  0  0  0  0  0  0  0  0  0  0
   -7.9093    5.2565  -10.3492 C   0  0  0  0  0  0  0  0  0  0  0  0
   -8.1365    5.1841   -8.9720 C   0  0  0  0  0  0  0  0  0  0  0  0
   -8.5421    3.9739   -8.4429 C   0  0  0  0  0  0  0  0  0  0  0  0
   -8.7055    2.8525   -9.2518 C   0  0  0  0  0  0  0  0  0  0  0  0
   -8.4885    2.9095  -10.6159 C   0  0  0  0  0  0  0  0  0  0  0  0
   -9.0898    1.6910   -8.3981 C   0  0  0  0  0  0  0  0  0  0  0  0
   -9.5517    2.2947   -7.1225 N   0  0  0  0  0  0  0  0  0  0  0  0
   -8.8579    3.6000   -7.0329 C   0  0  0  0  0  0  0  0  0  0  0  0
   -6.1928    5.1868  -15.6033 C   0  0  0  0  0  0  0  0  0  0  0  0
   -6.1842    4.9438  -16.9840 C   0  0  0  0  0  0  0  0  0  0  0  0
  1  2  1  0
  2  3  1  0
  4  3  1  1
  4  5  1  0
  5  6  1  0
  6  7  2  0
  6  8  1  0
  8  9  1  0
  9 10  2  0
 10 11  1  0
 10 12  1  0
 12 13  2  0
 13 14  1  0
 14 15  2  0
 14 16  1  0
 16 17  1  0
 17 18  2  0
 18 19  1  0
 19 20  2  0
 20 21  1  0
 21 22  2  0
 21 23  1  0
 23 24  1  0
 24 25  1  0
 13 26  1  0
 26 27  2  0
 27  4  1  0
 27  9  1  0
 22 17  1  0
 25 20  1  0
M  END
>  <smiles>  (2054) 
C30777-P243

>  <fragmenstein_outcome>  (2054) 
acceptable

>  <inchikey>  (2054) 
SJZPBJHELBGTMT-UHFFFAOYSA-N

>  <fragmenstein_mode>  (2054) 
expansion

>  <HIPPO Pose ID>  (2054) 
25289

>  <Energy>  (2054) 
43.172098

>  <fragmenstein_error>  (2054) 


>  <tags>  (2054) 
{'openbind_xx01zvns2b_c1_fragmenstein', 'fragmenstein_placed'}

>  <ref_pdb>  (2054) 
175

>  <scratch_subdir>  (2054) 
/opt/xchem-fragalysis-2/maxwin/BulkDock/SCRATCH/511028/C30777-P243

>  <alias>  (2054) 
CNC[C@@H]1CC(=O)Nc2c(Cl)cc(C(=O)Nc3ccc4c(c3)CNC4)cc21

>  <HIPPO Compound ID>  (2054) 
30777

>  <fragmenstein_runtime>  (2054) 
6.282955

$$$$
N#Cc1cc(C(=O)Nc2ccc3c(c2)CNC3)c2cnn(C3CNC3)c2c1
     RDKit          3D

 27 31  0  0  0  0  0  0  0  0999 V2000
  -10.9912    4.0409  -17.9529 N   0  0  0  0  0  0  0  0  0  0  0  0
   -9.8646    4.0926  -17.7043 C   0  0  0  0  0  0  0  0  0  0  0  0
   -8.5273    4.2601  -17.2441 C   0  0  0  0  0  0  0  0  0  0  0  0
   -8.3476    4.4204  -15.8699 C   0  0  0  0  0  0  0  0  0  0  0  0
   -7.1102    4.8151  -15.3537 C   0  0  0  0  0  0  0  0  0  0  0  0
   -7.0166    5.2079  -13.9228 C   0  0  0  0  0  0  0  0  0  0  0  0
   -6.4911    6.2196  -13.6659 O   0  0  0  0  0  0  0  0  0  0  0  0
   -7.7554    4.1987  -13.0069 N   0  0  0  0  0  0  0  0  0  0  0  0
   -7.9122    4.1799  -11.6215 C   0  0  0  0  0  0  0  0  0  0  0  0
   -7.6653    5.3263  -10.8506 C   0  0  0  0  0  0  0  0  0  0  0  0
   -7.8807    5.3174   -9.4672 C   0  0  0  0  0  0  0  0  0  0  0  0
   -8.3282    4.1477   -8.8788 C   0  0  0  0  0  0  0  0  0  0  0  0
   -8.5548    3.0045   -9.6378 C   0  0  0  0  0  0  0  0  0  0  0  0
   -8.3696    3.0067  -11.0114 C   0  0  0  0  0  0  0  0  0  0  0  0
   -8.9553    1.8878   -8.7270 C   0  0  0  0  0  0  0  0  0  0  0  0
   -9.3248    2.5436   -7.4465 N   0  0  0  0  0  0  0  0  0  0  0  0
   -8.6144    3.8424   -7.4441 C   0  0  0  0  0  0  0  0  0  0  0  0
   -6.0443    5.0335  -16.2485 C   0  0  0  0  0  0  0  0  0  0  0  0
   -4.7072    5.4677  -16.1448 C   0  0  0  0  0  0  0  0  0  0  0  0
   -4.0900    5.5327  -17.3248 N   0  0  0  0  0  0  0  0  0  0  0  0
   -5.0328    5.1545  -18.2114 N   0  0  0  0  0  0  0  0  0  0  0  0
   -4.7943    5.1176  -19.6697 C   0  0  0  0  0  0  0  0  0  0  0  0
   -4.7371    6.5122  -20.3117 C   0  0  0  0  0  0  0  0  0  0  0  0
   -3.5982    6.0342  -21.1406 N   0  0  0  0  0  0  0  0  0  0  0  0
   -3.3089    5.0320  -20.0800 C   0  0  0  0  0  0  0  0  0  0  0  0
   -6.2401    4.8372  -17.6201 C   0  0  0  0  0  0  0  0  0  0  0  0
   -7.4772    4.4418  -18.1511 C   0  0  0  0  0  0  0  0  0  0  0  0
  1  2  3  0
  2  3  1  0
  3  4  2  0
  4  5  1  0
  5  6  1  0
  6  7  2  0
  6  8  1  0
  8  9  1  0
  9 10  2  0
 10 11  1  0
 11 12  2  0
 12 13  1  0
 13 14  2  0
 13 15  1  0
 15 16  1  0
 16 17  1  0
  5 18  2  0
 18 19  1  0
 19 20  2  0
 20 21  1  0
 21 22  1  0
 22 23  1  0
 23 24  1  0
 24 25  1  0
 21 26  1  0
 26 27  2  0
 27  3  1  0
 14  9  1  0
 26 18  1  0
 17 12  1  0
 25 22  1  0
M  END
>  <smiles>  (2055) 
C29787-P243

>  <fragmenstein_outcome>  (2055) 
acceptable

>  <inchikey>  (2055) 
NKZDQFXSYUVXSK-UHFFFAOYSA-N

>  <fragmenstein_mode>  (2055) 
expansion

>  <HIPPO Pose ID>  (2055) 
25298

>  <Energy>  (2055) 
77.58378

>  <fragmenstein_error>  (2055) 


>  <tags>  (2055) 
{'openbind_xx01zvns2b_c1_fragmenstein', 'fragmenstein_placed'}

>  <ref_pdb>  (2055) 
175

>  <scratch_subdir>  (2055) 
/opt/xchem-fragalysis-2/maxwin/BulkDock/SCRATCH/511028/C29787-P243

>  <alias>  (2055) 
N#Cc1cc(C(=O)Nc2ccc3c(c2)CNC3)c2cnn(C3CNC3)c2c1

>  <HIPPO Compound ID>  (2055) 
32497

>  <fragmenstein_runtime>  (2055) 
9.777325

$$$$
O=C(Nc1ccc2c(c1)CNC2)c1cccc2c1cnn2C1(NO)CNC1
     RDKit          3D

 27 31  0  0  0  0  0  0  0  0999 V2000
   -7.7282    6.5782  -13.4342 O   0  0  0  0  0  0  0  0  0  0  0  0
   -7.9244    5.4554  -13.6905 C   0  0  0  0  0  0  0  0  0  0  0  0
   -8.2978    4.2692  -12.7736 N   0  0  0  0  0  0  0  0  0  0  0  0
   -8.4112    4.1979  -11.3841 C   0  0  0  0  0  0  0  0  0  0  0  0
   -8.2013    5.3362  -10.5861 C   0  0  0  0  0  0  0  0  0  0  0  0
   -8.2671    5.2615   -9.1903 C   0  0  0  0  0  0  0  0  0  0  0  0
   -8.5426    4.0364   -8.6134 C   0  0  0  0  0  0  0  0  0  0  0  0
   -8.7499    2.9081   -9.3973 C   0  0  0  0  0  0  0  0  0  0  0  0
   -8.6923    2.9701  -10.7823 C   0  0  0  0  0  0  0  0  0  0  0  0
   -8.9599    1.7267   -8.5107 C   0  0  0  0  0  0  0  0  0  0  0  0
   -9.1307    2.2733   -7.1411 N   0  0  0  0  0  0  0  0  0  0  0  0
   -8.6350    3.6635   -7.1729 C   0  0  0  0  0  0  0  0  0  0  0  0
   -7.7246    5.0432  -15.1003 C   0  0  0  0  0  0  0  0  0  0  0  0
   -8.7439    4.4672  -15.8610 C   0  0  0  0  0  0  0  0  0  0  0  0
   -8.5559    4.2662  -17.2291 C   0  0  0  0  0  0  0  0  0  0  0  0
   -7.3656    4.6430  -17.8730 C   0  0  0  0  0  0  0  0  0  0  0  0
   -6.3545    5.2325  -17.0977 C   0  0  0  0  0  0  0  0  0  0  0  0
   -6.5078    5.3961  -15.7218 C   0  0  0  0  0  0  0  0  0  0  0  0
   -5.2923    5.9503  -15.2763 C   0  0  0  0  0  0  0  0  0  0  0  0
   -4.4267    6.1450  -16.2621 N   0  0  0  0  0  0  0  0  0  0  0  0
   -5.1309    5.8124  -17.3750 N   0  0  0  0  0  0  0  0  0  0  0  0
   -4.5436    6.1331  -18.7067 C   0  0  0  0  0  0  0  0  0  0  0  0
   -3.2448    5.5166  -19.0974 N   0  0  0  0  0  0  0  0  0  0  0  0
   -3.1971    4.2001  -18.4983 O   0  0  0  0  0  0  0  0  0  0  0  0
   -4.3639    7.6798  -18.8722 C   0  0  0  0  0  0  0  0  0  0  0  0
   -4.7342    7.5248  -20.3053 N   0  0  0  0  0  0  0  0  0  0  0  0
   -5.4928    6.3038  -19.9122 C   0  0  0  0  0  0  0  0  0  0  0  0
  1  2  2  0
  2  3  1  0
  3  4  1  0
  4  5  2  0
  5  6  1  0
  6  7  2  0
  7  8  1  0
  8  9  2  0
  8 10  1  0
 10 11  1  0
 11 12  1  0
  2 13  1  0
 13 14  2  0
 14 15  1  0
 15 16  2  0
 16 17  1  0
 17 18  2  0
 18 19  1  0
 19 20  2  0
 20 21  1  0
 21 22  1  0
 22 23  1  0
 23 24  1  0
 22 25  1  0
 25 26  1  0
 26 27  1  0
  9  4  1  0
 18 13  1  0
 27 22  1  0
 12  7  1  0
 21 17  1  0
M  END
>  <smiles>  (2056) 
C30886-P245

>  <fragmenstein_outcome>  (2056) 
acceptable

>  <inchikey>  (2056) 
LHYRZNUFUAHCLE-UHFFFAOYSA-N

>  <fragmenstein_mode>  (2056) 
expansion

>  <HIPPO Pose ID>  (2056) 
25348

>  <Energy>  (2056) 
162.672671

>  <fragmenstein_error>  (2056) 


>  <tags>  (2056) 
{'openbind_xx01zvns2b_c1_fragmenstein', 'fragmenstein_placed'}

>  <ref_pdb>  (2056) 
175

>  <scratch_subdir>  (2056) 
/opt/xchem-fragalysis-2/maxwin/BulkDock/SCRATCH/511028/C30886-P245

>  <alias>  (2056) 
O=C(Nc1ccc2c(c1)CNC2)c1cccc2c1cnn2C1(NO)CNC1

>  <HIPPO Compound ID>  (2056) 
30886

>  <fragmenstein_runtime>  (2056) 
5.182346

$$$$
O=C(Nc1ccc2c(c1)CNC2)c1cc(F)cc2c1cnn2C1CNC1
     RDKit          3D

 26 30  0  0  0  0  0  0  0  0999 V2000
   -7.3549    6.4148  -13.6445 O   0  0  0  0  0  0  0  0  0  0  0  0
   -7.7718    5.3468  -13.8713 C   0  0  0  0  0  0  0  0  0  0  0  0
   -8.2223    4.2215  -12.9102 N   0  0  0  0  0  0  0  0  0  0  0  0
   -8.3393    4.2099  -11.5193 C   0  0  0  0  0  0  0  0  0  0  0  0
   -8.1054    5.3724  -10.7639 C   0  0  0  0  0  0  0  0  0  0  0  0
   -8.2079    5.3582   -9.3680 C   0  0  0  0  0  0  0  0  0  0  0  0
   -8.5437    4.1687   -8.7508 C   0  0  0  0  0  0  0  0  0  0  0  0
   -8.7579    3.0105   -9.4923 C   0  0  0  0  0  0  0  0  0  0  0  0
   -8.6661    3.0140  -10.8751 C   0  0  0  0  0  0  0  0  0  0  0  0
   -9.0313    1.8807   -8.5527 C   0  0  0  0  0  0  0  0  0  0  0  0
   -9.3872    2.5366   -7.2659 N   0  0  0  0  0  0  0  0  0  0  0  0
   -8.7127    3.8531   -7.3021 C   0  0  0  0  0  0  0  0  0  0  0  0
   -7.8124    4.9285  -15.2942 C   0  0  0  0  0  0  0  0  0  0  0  0
   -8.9676    4.3988  -15.8772 C   0  0  0  0  0  0  0  0  0  0  0  0
   -9.0116    4.1787  -17.2501 C   0  0  0  0  0  0  0  0  0  0  0  0
  -10.1406    3.7088  -17.7995 F   0  0  0  0  0  0  0  0  0  0  0  0
   -7.9269    4.4597  -18.0827 C   0  0  0  0  0  0  0  0  0  0  0  0
   -6.7632    4.9531  -17.4762 C   0  0  0  0  0  0  0  0  0  0  0  0
   -6.6874    5.1889  -16.1067 C   0  0  0  0  0  0  0  0  0  0  0  0
   -5.3821    5.6810  -15.8956 C   0  0  0  0  0  0  0  0  0  0  0  0
   -4.6690    5.7381  -17.0159 N   0  0  0  0  0  0  0  0  0  0  0  0
   -5.5311    5.3207  -17.9659 N   0  0  0  0  0  0  0  0  0  0  0  0
   -5.1865    5.3010  -19.3972 C   0  0  0  0  0  0  0  0  0  0  0  0
   -3.6930    5.5017  -19.7312 C   0  0  0  0  0  0  0  0  0  0  0  0
   -4.1235    6.3755  -20.8638 N   0  0  0  0  0  0  0  0  0  0  0  0
   -5.3402    6.6804  -20.0593 C   0  0  0  0  0  0  0  0  0  0  0  0
  1  2  2  0
  2  3  1  0
  3  4  1  0
  4  5  2  0
  5  6  1  0
  6  7  2  0
  7  8  1  0
  8  9  2  0
  8 10  1  0
 10 11  1  0
 11 12  1  0
  2 13  1  0
 13 14  2  0
 14 15  1  0
 15 16  1  0
 15 17  2  0
 17 18  1  0
 18 19  2  0
 19 20  1  0
 20 21  2  0
 21 22  1  0
 22 23  1  0
 23 24  1  0
 24 25  1  0
 25 26  1  0
  9  4  1  0
 19 13  1  0
 26 23  1  0
 12  7  1  0
 22 18  1  0
M  END
>  <smiles>  (2057) 
C226-P245

>  <fragmenstein_outcome>  (2057) 
acceptable

>  <inchikey>  (2057) 
FADNEVCEELWGKS-UHFFFAOYSA-N

>  <fragmenstein_mode>  (2057) 
expansion

>  <HIPPO Pose ID>  (2057) 
25356

>  <Energy>  (2057) 
58.09743

>  <fragmenstein_error>  (2057) 


>  <tags>  (2057) 
{'openbind_xx01zvns2b_c1_fragmenstein', 'fragmenstein_placed'}

>  <ref_pdb>  (2057) 
175

>  <scratch_subdir>  (2057) 
/opt/xchem-fragalysis-2/maxwin/BulkDock/SCRATCH/511028/C226-P245

>  <alias>  (2057) 
O=C(Nc1ccc2c(c1)CNC2)c1cc(F)cc2c1cnn2C1CNC1

>  <HIPPO Compound ID>  (2057) 
226

>  <fragmenstein_runtime>  (2057) 
4.709687

$$$$
NCn1cc2c([C@@H](CC(=O)O)Nc3ccc4c(c3)CNC4)cc(Cl)cc2n1
     RDKit          3D

 27 30  0  0  0  0  0  0  0  0999 V2000
   -2.3985    5.6976  -15.7922 N   0  0  0  0  0  0  0  0  0  0  0  0
   -3.1759    5.6894  -17.0345 C   0  0  0  0  0  0  0  0  0  0  0  0
   -4.5847    5.3525  -16.8006 N   0  0  0  0  0  0  0  0  0  0  0  0
   -5.2578    5.2534  -15.6206 C   0  0  0  0  0  0  0  0  0  0  0  0
   -6.5467    4.9413  -15.9621 C   0  0  0  0  0  0  0  0  0  0  0  0
   -7.6130    4.7840  -15.0608 C   0  0  0  0  0  0  0  0  0  0  0  0
   -7.5571    5.0779  -13.5656 C   0  0  1  0  0  0  0  0  0  0  0  0
   -7.5148    6.6128  -13.4340 C   0  0  0  0  0  0  0  0  0  0  0  0
   -6.3723    7.0622  -12.5683 C   0  0  0  0  0  0  0  0  0  0  0  0
   -5.2562    6.5753  -12.4985 O   0  0  0  0  0  0  0  0  0  0  0  0
   -6.6615    8.1871  -11.8817 O   0  0  0  0  0  0  0  0  0  0  0  0
   -8.7170    4.4866  -12.8550 N   0  0  0  0  0  0  0  0  0  0  0  0
   -8.6019    4.3534  -11.4457 C   0  0  0  0  0  0  0  0  0  0  0  0
   -8.4477    5.4659  -10.5933 C   0  0  0  0  0  0  0  0  0  0  0  0
   -8.3858    5.3415   -9.1993 C   0  0  0  0  0  0  0  0  0  0  0  0
   -8.5272    4.0856   -8.6515 C   0  0  0  0  0  0  0  0  0  0  0  0
   -8.7095    2.9762   -9.4638 C   0  0  0  0  0  0  0  0  0  0  0  0
   -8.7389    3.0896  -10.8497 C   0  0  0  0  0  0  0  0  0  0  0  0
   -8.8481    1.7621   -8.6069 C   0  0  0  0  0  0  0  0  0  0  0  0
   -8.9837    2.2621   -7.2134 N   0  0  0  0  0  0  0  0  0  0  0  0
   -8.5376    3.6679   -7.2219 C   0  0  0  0  0  0  0  0  0  0  0  0
   -8.7931    4.4784  -15.7958 C   0  0  0  0  0  0  0  0  0  0  0  0
   -8.8568    4.3540  -17.2251 C   0  0  0  0  0  0  0  0  0  0  0  0
  -10.3877    4.0495  -17.9647 Cl  0  0  0  0  0  0  0  0  0  0  0  0
   -7.7597    4.5414  -18.0807 C   0  0  0  0  0  0  0  0  0  0  0  0
   -6.5827    4.8534  -17.3964 C   0  0  0  0  0  0  0  0  0  0  0  0
   -5.3654    5.1431  -17.8776 N   0  0  0  0  0  0  0  0  0  0  0  0
  1  2  1  0
  2  3  1  0
  3  4  1  0
  4  5  2  0
  5  6  1  0
  6  7  1  0
  7  8  1  6
  8  9  1  0
  9 10  2  0
  9 11  1  0
  7 12  1  0
 12 13  1  0
 13 14  2  0
 14 15  1  0
 15 16  2  0
 16 17  1  0
 17 18  2  0
 17 19  1  0
 19 20  1  0
 20 21  1  0
  6 22  2  0
 22 23  1  0
 23 24  1  0
 23 25  2  0
 25 26  1  0
 26 27  2  0
 27  3  1  0
 26  5  1  0
 18 13  1  0
 21 16  1  0
M  END
>  <smiles>  (2058) 
C30968-P245

>  <fragmenstein_outcome>  (2058) 
acceptable

>  <inchikey>  (2058) 
WIUVGWVPLZOFGO-UHFFFAOYSA-N

>  <fragmenstein_mode>  (2058) 
expansion

>  <HIPPO Pose ID>  (2058) 
25376

>  <Energy>  (2058) 
36.113834

>  <fragmenstein_error>  (2058) 


>  <tags>  (2058) 
{'openbind_xx01zvns2b_c1_fragmenstein', 'fragmenstein_placed'}

>  <ref_pdb>  (2058) 
175

>  <scratch_subdir>  (2058) 
/opt/xchem-fragalysis-2/maxwin/BulkDock/SCRATCH/511028/C30968-P245

>  <alias>  (2058) 
NCn1cc2c([C@@H](CC(=O)O)Nc3ccc4c(c3)CNC4)cc(Cl)cc2n1

>  <HIPPO Compound ID>  (2058) 
32386

>  <fragmenstein_runtime>  (2058) 
3.72996

$$$$
Nn1ncc2c([C@@H](CC(=O)O)Nc3ccc4c(c3)CNC4)cc(Cl)cc21
     RDKit          3D

 26 29  0  0  0  0  0  0  0  0999 V2000
   -5.1376    5.0682  -19.4096 N   0  0  0  0  0  0  0  0  0  0  0  0
   -5.4764    5.2079  -18.0613 N   0  0  0  0  0  0  0  0  0  0  0  0
   -4.6037    5.6951  -17.1735 N   0  0  0  0  0  0  0  0  0  0  0  0
   -5.2596    5.6283  -16.0168 C   0  0  0  0  0  0  0  0  0  0  0  0
   -6.5842    5.1533  -16.1577 C   0  0  0  0  0  0  0  0  0  0  0  0
   -7.6866    4.9260  -15.2884 C   0  0  0  0  0  0  0  0  0  0  0  0
   -7.6742    5.2545  -13.7861 C   0  0  1  0  0  0  0  0  0  0  0  0
   -8.4458    6.5652  -13.5510 C   0  0  0  0  0  0  0  0  0  0  0  0
   -7.5041    7.7318  -13.4734 C   0  0  0  0  0  0  0  0  0  0  0  0
   -6.3443    7.7845  -13.8428 O   0  0  0  0  0  0  0  0  0  0  0  0
   -8.0909    8.8204  -12.9345 O   0  0  0  0  0  0  0  0  0  0  0  0
   -8.3070    4.1899  -13.0071 N   0  0  0  0  0  0  0  0  0  0  0  0
   -8.2173    4.1305  -11.6106 C   0  0  0  0  0  0  0  0  0  0  0  0
   -8.7536    3.0050  -10.9538 C   0  0  0  0  0  0  0  0  0  0  0  0
   -8.8382    2.9166   -9.5581 C   0  0  0  0  0  0  0  0  0  0  0  0
   -8.4401    4.0053   -8.8130 C   0  0  0  0  0  0  0  0  0  0  0  0
   -7.9234    5.1324   -9.4313 C   0  0  0  0  0  0  0  0  0  0  0  0
   -7.7700    5.1915  -10.8078 C   0  0  0  0  0  0  0  0  0  0  0  0
   -7.5847    6.1511   -8.3979 C   0  0  0  0  0  0  0  0  0  0  0  0
   -8.2308    5.6734   -7.1440 N   0  0  0  0  0  0  0  0  0  0  0  0
   -8.4375    4.2066   -7.3374 C   0  0  0  0  0  0  0  0  0  0  0  0
   -8.8828    4.4847  -15.9086 C   0  0  0  0  0  0  0  0  0  0  0  0
   -8.9844    4.3051  -17.2884 C   0  0  0  0  0  0  0  0  0  0  0  0
  -10.5055    3.9629  -18.0045 Cl  0  0  0  0  0  0  0  0  0  0  0  0
   -7.8936    4.4943  -18.1238 C   0  0  0  0  0  0  0  0  0  0  0  0
   -6.7062    4.9222  -17.5257 C   0  0  0  0  0  0  0  0  0  0  0  0
  1  2  1  0
  2  3  1  0
  3  4  2  0
  4  5  1  0
  5  6  2  0
  6  7  1  0
  7  8  1  6
  8  9  1  0
  9 10  2  0
  9 11  1  0
  7 12  1  0
 12 13  1  0
 13 14  2  0
 14 15  1  0
 15 16  2  0
 16 17  1  0
 17 18  2  0
 17 19  1  0
 19 20  1  0
 20 21  1  0
  6 22  1  0
 22 23  2  0
 23 24  1  0
 23 25  1  0
 25 26  2  0
 26  2  1  0
 26  5  1  0
 18 13  1  0
 21 16  1  0
M  END
>  <smiles>  (2059) 
C30970-P245

>  <fragmenstein_outcome>  (2059) 
acceptable

>  <inchikey>  (2059) 
LTPVXOLDLZESIP-UHFFFAOYSA-N

>  <fragmenstein_mode>  (2059) 
expansion

>  <HIPPO Pose ID>  (2059) 
25377

>  <Energy>  (2059) 
-40.297917

>  <fragmenstein_error>  (2059) 


>  <tags>  (2059) 
{'openbind_xx01zvns2b_c1_fragmenstein', 'fragmenstein_placed'}

>  <ref_pdb>  (2059) 
175

>  <scratch_subdir>  (2059) 
/opt/xchem-fragalysis-2/maxwin/BulkDock/SCRATCH/511028/C30970-P245

>  <alias>  (2059) 
Nn1ncc2c([C@@H](CC(=O)O)Nc3ccc4c(c3)CNC4)cc(Cl)cc21

>  <HIPPO Compound ID>  (2059) 
30970

>  <fragmenstein_runtime>  (2059) 
3.356535

$$$$
O=C(O)Cc1n[nH]c2cc(Cl)cc([C@H](CC(=O)O)Nc3ccc4c(c3)CNC4)c12
     RDKit          3D

 29 32  0  0  0  0  0  0  0  0999 V2000
   -3.0616    4.1442  -14.4750 O   0  0  0  0  0  0  0  0  0  0  0  0
   -3.2082    5.3464  -14.3283 C   0  0  0  0  0  0  0  0  0  0  0  0
   -2.2537    6.0558  -13.6830 O   0  0  0  0  0  0  0  0  0  0  0  0
   -4.3984    6.1958  -14.6897 C   0  0  0  0  0  0  0  0  0  0  0  0
   -5.1249    5.6940  -15.8919 C   0  0  0  0  0  0  0  0  0  0  0  0
   -4.5580    5.9182  -17.0838 N   0  0  0  0  0  0  0  0  0  0  0  0
   -5.4425    5.4299  -17.9599 N   0  0  0  0  0  0  0  0  0  0  0  0
   -6.6149    5.0265  -17.4000 C   0  0  0  0  0  0  0  0  0  0  0  0
   -7.7907    4.6194  -18.0195 C   0  0  0  0  0  0  0  0  0  0  0  0
   -8.8542    4.3151  -17.1881 C   0  0  0  0  0  0  0  0  0  0  0  0
  -10.3795    3.9988  -17.9160 Cl  0  0  0  0  0  0  0  0  0  0  0  0
   -8.7073    4.3176  -15.7995 C   0  0  0  0  0  0  0  0  0  0  0  0
   -7.4805    4.6451  -15.1557 C   0  0  0  0  0  0  0  0  0  0  0  0
   -7.3466    4.5828  -13.6241 C   0  0  2  0  0  0  0  0  0  0  0  0
   -6.1566    3.7105  -13.1584 C   0  0  0  0  0  0  0  0  0  0  0  0
   -6.4445    2.3284  -12.6455 C   0  0  0  0  0  0  0  0  0  0  0  0
   -6.8839    1.3846  -13.2782 O   0  0  0  0  0  0  0  0  0  0  0  0
   -6.1003    2.1657  -11.3506 O   0  0  0  0  0  0  0  0  0  0  0  0
   -8.6154    4.2694  -12.9376 N   0  0  0  0  0  0  0  0  0  0  0  0
   -8.5943    4.3522  -11.5287 C   0  0  0  0  0  0  0  0  0  0  0  0
   -8.1933    5.5265  -10.8621 C   0  0  0  0  0  0  0  0  0  0  0  0
   -8.1137    5.5807   -9.4653 C   0  0  0  0  0  0  0  0  0  0  0  0
   -8.4251    4.4418   -8.7461 C   0  0  0  0  0  0  0  0  0  0  0  0
   -8.8492    3.2861   -9.3867 C   0  0  0  0  0  0  0  0  0  0  0  0
   -8.9656    3.2335  -10.7658 C   0  0  0  0  0  0  0  0  0  0  0  0
   -9.1489    2.2348   -8.3738 C   0  0  0  0  0  0  0  0  0  0  0  0
   -8.6395    2.7631   -7.0810 N   0  0  0  0  0  0  0  0  0  0  0  0
   -8.4242    4.2148   -7.2740 C   0  0  0  0  0  0  0  0  0  0  0  0
   -6.4282    5.0945  -16.0221 C   0  0  0  0  0  0  0  0  0  0  0  0
  1  2  2  0
  2  3  1  0
  2  4  1  0
  4  5  1  0
  5  6  2  0
  6  7  1  0
  7  8  1  0
  8  9  2  0
  9 10  1  0
 10 11  1  0
 10 12  2  0
 12 13  1  0
 13 14  1  0
 14 15  1  6
 15 16  1  0
 16 17  2  0
 16 18  1  0
 14 19  1  0
 19 20  1  0
 20 21  2  0
 21 22  1  0
 22 23  2  0
 23 24  1  0
 24 25  2  0
 24 26  1  0
 26 27  1  0
 27 28  1  0
 13 29  2  0
 29  5  1  0
 29  8  1  0
 25 20  1  0
 28 23  1  0
M  END
>  <smiles>  (2060) 
C30980-P245

>  <fragmenstein_outcome>  (2060) 
acceptable

>  <inchikey>  (2060) 
JSWAWVRVENINID-UHFFFAOYSA-N

>  <fragmenstein_mode>  (2060) 
expansion

>  <HIPPO Pose ID>  (2060) 
25381

>  <Energy>  (2060) 
18.921665

>  <fragmenstein_error>  (2060) 


>  <tags>  (2060) 
{'openbind_xx01zvns2b_c1_fragmenstein', 'fragmenstein_placed'}

>  <ref_pdb>  (2060) 
175

>  <scratch_subdir>  (2060) 
/opt/xchem-fragalysis-2/maxwin/BulkDock/SCRATCH/511028/C30980-P245

>  <alias>  (2060) 
O=C(O)Cc1n[nH]c2cc(Cl)cc([C@H](CC(=O)O)Nc3ccc4c(c3)CNC4)c12

>  <HIPPO Compound ID>  (2060) 
43062

>  <fragmenstein_runtime>  (2060) 
7.207478

$$$$
O=C(O)C[C@H](Nc1ccc2c(c1)CNC2)c1cc(Cl)cc2c1=C[N@H+]([O-])N=2
     RDKit          3D

 26 29  0  0  0  0  0  0  0  0999 V2000
   -6.5947    1.2581  -13.1272 O   0  0  0  0  0  0  0  0  0  0  0  0
   -6.1642    2.1866  -12.4659 C   0  0  0  0  0  0  0  0  0  0  0  0
   -5.8464    2.0047  -11.1673 O   0  0  0  0  0  0  0  0  0  0  0  0
   -5.8713    3.5875  -12.9341 C   0  0  0  0  0  0  0  0  0  0  0  0
   -7.0304    4.3555  -13.6340 C   0  0  2  0  0  0  0  0  0  0  0  0
   -8.3647    4.0273  -13.0952 N   0  0  0  0  0  0  0  0  0  0  0  0
   -8.4937    4.1290  -11.6850 C   0  0  0  0  0  0  0  0  0  0  0  0
   -8.2212    5.3291  -10.9980 C   0  0  0  0  0  0  0  0  0  0  0  0
   -8.2658    5.3963   -9.5975 C   0  0  0  0  0  0  0  0  0  0  0  0
   -8.5856    4.2499   -8.8935 C   0  0  0  0  0  0  0  0  0  0  0  0
   -8.8656    3.0624   -9.5561 C   0  0  0  0  0  0  0  0  0  0  0  0
   -8.8493    2.9925  -10.9397 C   0  0  0  0  0  0  0  0  0  0  0  0
   -9.1193    1.9873   -8.5517 C   0  0  0  0  0  0  0  0  0  0  0  0
   -9.3484    2.7024   -7.2694 N   0  0  0  0  0  0  0  0  0  0  0  0
   -8.6924    4.0202   -7.4229 C   0  0  0  0  0  0  0  0  0  0  0  0
   -6.9710    4.3919  -15.1818 C   0  0  0  0  0  0  0  0  0  0  0  0
   -5.7982    4.6814  -15.7999 C   0  0  0  0  0  0  0  0  0  0  0  0
   -5.6554    4.8449  -17.2392 C   0  0  0  0  0  0  0  0  0  0  0  0
   -4.0762    5.1506  -17.8529 Cl  0  0  0  0  0  0  0  0  0  0  0  0
   -6.6809    4.8122  -18.0937 C   0  0  0  0  0  0  0  0  0  0  0  0
   -8.0072    4.6107  -17.5265 C   0  0  0  0  0  0  0  0  0  0  0  0
   -8.1069    4.3409  -16.0780 C   0  0  0  0  0  0  0  0  0  0  0  0
   -9.4147    4.1359  -15.9863 C   0  0  0  0  0  0  0  0  0  0  0  0
  -10.1610    4.4368  -17.2360 N   0  0  2  0  0  0  0  0  0  0  0  0
  -10.7838    3.3626  -17.6799 O   0  0  0  0  0  0  0  0  0  0  0  0
   -9.1027    4.7000  -18.2027 N   0  0  0  0  0  0  0  0  0  0  0  0
  1  2  2  0
  2  3  1  0
  2  4  1  0
  5  4  1  6
  5  6  1  0
  6  7  1  0
  7  8  2  0
  8  9  1  0
  9 10  2  0
 10 11  1  0
 11 12  2  0
 11 13  1  0
 13 14  1  0
 14 15  1  0
  5 16  1  0
 16 17  2  0
 17 18  1  0
 18 19  1  0
 18 20  2  0
 20 21  1  0
 21 22  1  0
 22 23  2  0
 23 24  1  0
 24 25  1  6
 24 26  1  0
 12  7  1  0
 22 16  1  0
 15 10  1  0
 26 21  2  0
M  CHG  2  24   1  25  -1
M  END
>  <smiles>  (2061) 
C31058-P246

>  <fragmenstein_outcome>  (2061) 
acceptable

>  <inchikey>  (2061) 
WSDIGHJCBZNTAX-UHFFFAOYSA-N

>  <fragmenstein_mode>  (2061) 
expansion

>  <HIPPO Pose ID>  (2061) 
25412

>  <Energy>  (2061) 
-2.390329

>  <fragmenstein_error>  (2061) 


>  <tags>  (2061) 
{'openbind_xx01zvns2b_c1_fragmenstein', 'fragmenstein_placed'}

>  <ref_pdb>  (2061) 
175

>  <scratch_subdir>  (2061) 
/opt/xchem-fragalysis-2/maxwin/BulkDock/SCRATCH/511028/C31058-P246

>  <alias>  (2061) 
O=C(O)C[C@H](Nc1ccc2c(c1)CNC2)c1cc(Cl)cc2c1=C[N@H+]([O-])N=2

>  <HIPPO Compound ID>  (2061) 
31058

>  <fragmenstein_runtime>  (2061) 
6.32801

$$$$
O=C(O)[C@H](CCCF)[C@H](Nc1ccc2c(c1)CNC2)c1cc(Cl)cc2[nH]ncc12
     RDKit          3D

 29 32  0  0  0  0  0  0  0  0999 V2000
   -5.8272    7.2590  -12.0388 O   0  0  0  0  0  0  0  0  0  0  0  0
   -6.5412    7.2314  -13.0244 C   0  0  0  0  0  0  0  0  0  0  0  0
   -6.0995    7.8266  -14.1568 O   0  0  0  0  0  0  0  0  0  0  0  0
   -7.9480    6.6878  -13.1755 C   0  0  2  0  0  0  0  0  0  0  0  0
   -8.9732    7.3504  -12.2408 C   0  0  0  0  0  0  0  0  0  0  0  0
   -8.7790    8.8563  -12.0283 C   0  0  0  0  0  0  0  0  0  0  0  0
   -9.9778    9.4631  -11.3146 C   0  0  0  0  0  0  0  0  0  0  0  0
  -11.0603    9.3495  -12.1303 F   0  0  0  0  0  0  0  0  0  0  0  0
   -8.0844    5.1445  -13.2893 C   0  0  2  0  0  0  0  0  0  0  0  0
   -7.2277    4.3547  -12.3916 N   0  0  0  0  0  0  0  0  0  0  0  0
   -7.6656    4.2263  -11.0514 C   0  0  0  0  0  0  0  0  0  0  0  0
   -7.4596    5.2589  -10.1170 C   0  0  0  0  0  0  0  0  0  0  0  0
   -7.8847    5.1660   -8.7878 C   0  0  0  0  0  0  0  0  0  0  0  0
   -8.4847    3.9957   -8.3827 C   0  0  0  0  0  0  0  0  0  0  0  0
   -8.6733    2.9531   -9.2774 C   0  0  0  0  0  0  0  0  0  0  0  0
   -8.2979    3.0562  -10.6131 C   0  0  0  0  0  0  0  0  0  0  0  0
   -9.2273    1.7796   -8.5465 C   0  0  0  0  0  0  0  0  0  0  0  0
   -9.5264    2.2385   -7.1621 N   0  0  0  0  0  0  0  0  0  0  0  0
   -8.9579    3.5974   -7.0288 C   0  0  0  0  0  0  0  0  0  0  0  0
   -7.7883    4.7550  -14.7548 C   0  0  0  0  0  0  0  0  0  0  0  0
   -8.8708    4.4850  -15.6287 C   0  0  0  0  0  0  0  0  0  0  0  0
   -8.6995    4.3406  -17.0077 C   0  0  0  0  0  0  0  0  0  0  0  0
  -10.0673    4.0775  -18.0171 Cl  0  0  0  0  0  0  0  0  0  0  0  0
   -7.4472    4.4638  -17.5983 C   0  0  0  0  0  0  0  0  0  0  0  0
   -6.3725    4.6642  -16.7322 C   0  0  0  0  0  0  0  0  0  0  0  0
   -5.0333    4.7817  -16.9860 N   0  0  0  0  0  0  0  0  0  0  0  0
   -4.2775    4.9648  -15.8917 N   0  0  0  0  0  0  0  0  0  0  0  0
   -5.1693    4.9319  -14.8973 C   0  0  0  0  0  0  0  0  0  0  0  0
   -6.5034    4.7793  -15.3511 C   0  0  0  0  0  0  0  0  0  0  0  0
  1  2  2  0
  2  3  1  0
  2  4  1  0
  4  5  1  1
  5  6  1  0
  6  7  1  0
  7  8  1  0
  4  9  1  0
  9 10  1  1
 10 11  1  0
 11 12  2  0
 12 13  1  0
 13 14  2  0
 14 15  1  0
 15 16  2  0
 15 17  1  0
 17 18  1  0
 18 19  1  0
  9 20  1  0
 20 21  2  0
 21 22  1  0
 22 23  1  0
 22 24  2  0
 24 25  1  0
 25 26  1  0
 26 27  1  0
 27 28  2  0
 28 29  1  0
 16 11  1  0
 29 20  1  0
 19 14  1  0
 29 25  2  0
M  END
>  <smiles>  (2062) 
C31124-P129

>  <fragmenstein_outcome>  (2062) 
acceptable

>  <inchikey>  (2062) 
DAXUPCPIOGDQEH-UHFFFAOYSA-N

>  <fragmenstein_mode>  (2062) 
expansion

>  <HIPPO Pose ID>  (2062) 
25457

>  <Energy>  (2062) 
32.928375

>  <fragmenstein_error>  (2062) 


>  <tags>  (2062) 
{'openbind_xx01zvns2b_c1_fragmenstein', 'fragmenstein_placed'}

>  <ref_pdb>  (2062) 
175

>  <scratch_subdir>  (2062) 
/opt/xchem-fragalysis-2/maxwin/BulkDock/SCRATCH/511028/C31124-P129

>  <alias>  (2062) 
O=C(O)[C@H](CCCF)[C@H](Nc1ccc2c(c1)CNC2)c1cc(Cl)cc2[nH]ncc12

>  <HIPPO Compound ID>  (2062) 
31124

>  <fragmenstein_runtime>  (2062) 
4.137044

$$$$
O=C(O)C[C@@](O)(Nc1ccc2c(c1)CNC2)[C@@H]1C[C@@H](Cl)[C@@H]2NC(=O)C[C@@H]3NC[C@@H]1[C@@H]23
     RDKit          3D

 30 34  0  0  0  0  0  0  0  0999 V2000
   -6.2118    8.5298  -14.4673 O   0  0  0  0  0  0  0  0  0  0  0  0
   -5.9852    7.7252  -13.5773 C   0  0  0  0  0  0  0  0  0  0  0  0
   -4.7534    7.6316  -13.0465 O   0  0  0  0  0  0  0  0  0  0  0  0
   -6.9914    6.8261  -12.9353 C   0  0  0  0  0  0  0  0  0  0  0  0
   -7.1022    5.3777  -13.4445 C   0  0  1  0  0  0  0  0  0  0  0  0
   -5.9323    4.6797  -13.0583 O   0  0  0  0  0  0  0  0  0  0  0  0
   -8.2083    4.6580  -12.7730 N   0  0  0  0  0  0  0  0  0  0  0  0
   -8.3001    4.4991  -11.3762 C   0  0  0  0  0  0  0  0  0  0  0  0
   -8.3864    5.5810  -10.4777 C   0  0  0  0  0  0  0  0  0  0  0  0
   -8.5010    5.3998   -9.0952 C   0  0  0  0  0  0  0  0  0  0  0  0
   -8.6416    4.1162   -8.6181 C   0  0  0  0  0  0  0  0  0  0  0  0
   -8.6668    3.0385   -9.4890 C   0  0  0  0  0  0  0  0  0  0  0  0
   -8.4943    3.2091  -10.8598 C   0  0  0  0  0  0  0  0  0  0  0  0
   -8.9190    1.7905   -8.7122 C   0  0  0  0  0  0  0  0  0  0  0  0
   -9.1507    2.2082   -7.3025 N   0  0  0  0  0  0  0  0  0  0  0  0
   -8.8433    3.6476   -7.2199 C   0  0  0  0  0  0  0  0  0  0  0  0
   -7.2455    5.2770  -15.0410 C   0  0  2  0  0  0  0  0  0  0  0  0
   -8.4602    4.4143  -15.5324 C   0  0  0  0  0  0  0  0  0  0  0  0
   -8.5033    4.0244  -17.0329 C   0  0  1  0  0  0  0  0  0  0  0  0
  -10.1235    4.2576  -17.7464 Cl  0  0  0  0  0  0  0  0  0  0  0  0
   -7.4570    4.7193  -17.8918 C   0  0  2  0  0  0  0  0  0  0  0  0
   -7.3112    4.1993  -19.2483 N   0  0  0  0  0  0  0  0  0  0  0  0
   -6.1960    4.4018  -20.0294 C   0  0  0  0  0  0  0  0  0  0  0  0
   -6.1902    4.0553  -21.2121 O   0  0  0  0  0  0  0  0  0  0  0  0
   -4.9335    4.9718  -19.3687 C   0  0  0  0  0  0  0  0  0  0  0  0
   -5.1749    5.5087  -17.9652 C   0  0  2  0  0  0  0  0  0  0  0  0
   -4.0517    5.5300  -17.0239 N   0  0  0  0  0  0  0  0  0  0  0  0
   -4.7152    5.7162  -15.7146 C   0  0  0  0  0  0  0  0  0  0  0  0
   -5.9539    4.8104  -15.7549 C   0  0  2  0  0  0  0  0  0  0  0  0
   -6.1145    4.5763  -17.2435 C   0  0  1  0  0  0  0  0  0  0  0  0
  1  2  2  0
  2  3  1  0
  2  4  1  0
  4  5  1  0
  5  6  1  1
  5  7  1  0
  7  8  1  0
  8  9  2  0
  9 10  1  0
 10 11  2  0
 11 12  1  0
 12 13  2  0
 12 14  1  0
 14 15  1  0
 15 16  1  0
  5 17  1  0
 17 18  1  1
 18 19  1  0
 19 20  1  6
 19 21  1  0
 21 22  1  6
 22 23  1  0
 23 24  2  0
 23 25  1  0
 26 25  1  6
 26 27  1  0
 27 28  1  0
 29 28  1  6
 29 30  1  0
 13  8  1  0
 29 17  1  0
 16 11  1  0
 30 21  1  0
 30 26  1  6
M  END
>  <smiles>  (2063) 
C31129-P246

>  <fragmenstein_outcome>  (2063) 
acceptable

>  <inchikey>  (2063) 
GZZJBYFUTHTLEG-UHFFFAOYSA-N

>  <fragmenstein_mode>  (2063) 
expansion

>  <HIPPO Pose ID>  (2063) 
25459

>  <Energy>  (2063) 
2.053251

>  <fragmenstein_error>  (2063) 


>  <tags>  (2063) 
{'openbind_xx01zvns2b_c1_fragmenstein', 'fragmenstein_placed'}

>  <ref_pdb>  (2063) 
175

>  <scratch_subdir>  (2063) 
/opt/xchem-fragalysis-2/maxwin/BulkDock/SCRATCH/511028/C31129-P246

>  <alias>  (2063) 
O=C(O)C[C@@](O)(Nc1ccc2c(c1)CNC2)[C@@H]1C[C@@H](Cl)[C@@H]2NC(=O)C[C@@H]3NC[C@@H]1[C@@H]23

>  <HIPPO Compound ID>  (2063) 
34454

>  <fragmenstein_runtime>  (2063) 
4.3294

$$$$
CNCn1ncc2c([C@@](O)(CC(=O)O)Nc3cc(C#N)c4c(c3)CNC4)cc(Cl)cc21
     RDKit          3D

 31 34  0  0  0  0  0  0  0  0999 V2000
   -2.9843    4.8479  -19.6737 C   0  0  0  0  0  0  0  0  0  0  0  0
   -4.3988    4.6910  -19.9854 N   0  0  0  0  0  0  0  0  0  0  0  0
   -5.2402    5.6213  -19.2232 C   0  0  0  0  0  0  0  0  0  0  0  0
   -5.4057    5.1829  -17.8468 N   0  0  0  0  0  0  0  0  0  0  0  0
   -4.4598    5.4905  -16.9273 N   0  0  0  0  0  0  0  0  0  0  0  0
   -5.0670    5.2398  -15.7680 C   0  0  0  0  0  0  0  0  0  0  0  0
   -6.4179    4.8399  -15.9184 C   0  0  0  0  0  0  0  0  0  0  0  0
   -7.5084    4.6110  -15.0349 C   0  0  0  0  0  0  0  0  0  0  0  0
   -7.4328    4.9357  -13.5375 C   0  0  1  0  0  0  0  0  0  0  0  0
   -6.1454    4.5127  -13.1031 O   0  0  0  0  0  0  0  0  0  0  0  0
   -7.5034    6.4618  -13.3987 C   0  0  0  0  0  0  0  0  0  0  0  0
   -8.8601    7.0764  -13.2188 C   0  0  0  0  0  0  0  0  0  0  0  0
   -9.0830    8.0579  -12.5228 O   0  0  0  0  0  0  0  0  0  0  0  0
   -9.8569    6.5566  -13.9520 O   0  0  0  0  0  0  0  0  0  0  0  0
   -8.3896    4.1804  -12.7414 N   0  0  0  0  0  0  0  0  0  0  0  0
   -8.4224    4.1447  -11.3444 C   0  0  0  0  0  0  0  0  0  0  0  0
   -8.1540    5.2543  -10.5225 C   0  0  0  0  0  0  0  0  0  0  0  0
   -8.2378    5.2001   -9.1236 C   0  0  0  0  0  0  0  0  0  0  0  0
   -7.9576    6.3718   -8.3528 C   0  0  0  0  0  0  0  0  0  0  0  0
   -7.7117    7.3237   -7.7350 N   0  0  0  0  0  0  0  0  0  0  0  0
   -8.5952    4.0067   -8.5368 C   0  0  0  0  0  0  0  0  0  0  0  0
   -8.8466    2.8915   -9.3222 C   0  0  0  0  0  0  0  0  0  0  0  0
   -8.7782    2.9465  -10.7087 C   0  0  0  0  0  0  0  0  0  0  0  0
   -9.1328    1.7258   -8.4390 C   0  0  0  0  0  0  0  0  0  0  0  0
   -9.3409    2.2932   -7.0833 N   0  0  0  0  0  0  0  0  0  0  0  0
   -8.7762    3.6565   -7.0999 C   0  0  0  0  0  0  0  0  0  0  0  0
   -8.7331    4.2775  -15.6535 C   0  0  0  0  0  0  0  0  0  0  0  0
   -8.8727    4.2167  -17.0383 C   0  0  0  0  0  0  0  0  0  0  0  0
  -10.4198    4.0610  -17.7404 Cl  0  0  0  0  0  0  0  0  0  0  0  0
   -7.8052    4.4276  -17.8934 C   0  0  0  0  0  0  0  0  0  0  0  0
   -6.5941    4.7664  -17.2956 C   0  0  0  0  0  0  0  0  0  0  0  0
  1  2  1  0
  2  3  1  0
  3  4  1  0
  4  5  1  0
  5  6  2  0
  6  7  1  0
  7  8  2  0
  8  9  1  0
  9 10  1  1
  9 11  1  0
 11 12  1  0
 12 13  2  0
 12 14  1  0
  9 15  1  0
 15 16  1  0
 16 17  2  0
 17 18  1  0
 18 19  1  0
 19 20  3  0
 18 21  2  0
 21 22  1  0
 22 23  2  0
 22 24  1  0
 24 25  1  0
 25 26  1  0
  8 27  1  0
 27 28  2  0
 28 29  1  0
 28 30  1  0
 30 31  2  0
 31  4  1  0
 31  7  1  0
 23 16  1  0
 26 21  1  0
M  END
>  <smiles>  (2064) 
C31150-P246

>  <fragmenstein_outcome>  (2064) 
acceptable

>  <inchikey>  (2064) 
RJYVXYNXYNUDBI-UHFFFAOYSA-N

>  <fragmenstein_mode>  (2064) 
expansion

>  <HIPPO Pose ID>  (2064) 
25469

>  <Energy>  (2064) 
26.223301

>  <fragmenstein_error>  (2064) 


>  <tags>  (2064) 
{'openbind_xx01zvns2b_c1_fragmenstein', 'fragmenstein_placed'}

>  <ref_pdb>  (2064) 
175

>  <scratch_subdir>  (2064) 
/opt/xchem-fragalysis-2/maxwin/BulkDock/SCRATCH/511028/C31150-P246

>  <alias>  (2064) 
CNCn1ncc2c([C@@](O)(CC(=O)O)Nc3cc(C#N)c4c(c3)CNC4)cc(Cl)cc21

>  <HIPPO Compound ID>  (2064) 
31150

>  <fragmenstein_runtime>  (2064) 
10.323578

$$$$
CC(C)n1nc2c(C(=O)Nc3cc(Br)cc(CN)c3)cccc2c1C1CNC1
     RDKit          3D

 28 31  0  0  0  0  0  0  0  0999 V2000
   -2.6102    6.8009  -17.1118 C   0  0  0  0  0  0  0  0  0  0  0  0
   -3.2268    5.4303  -16.8702 C   0  0  0  0  0  0  0  0  0  0  0  0
   -2.6387    4.8353  -15.5805 C   0  0  0  0  0  0  0  0  0  0  0  0
   -4.6796    5.4892  -16.8608 N   0  0  0  0  0  0  0  0  0  0  0  0
   -5.3047    5.5703  -15.6723 N   0  0  0  0  0  0  0  0  0  0  0  0
   -6.5804    5.2369  -15.9199 C   0  0  0  0  0  0  0  0  0  0  0  0
   -7.6660    5.0388  -15.0564 C   0  0  0  0  0  0  0  0  0  0  0  0
   -7.6489    5.4877  -13.6603 C   0  0  0  0  0  0  0  0  0  0  0  0
   -7.3805    6.6088  -13.4669 O   0  0  0  0  0  0  0  0  0  0  0  0
   -8.0955    4.3781  -12.6759 N   0  0  0  0  0  0  0  0  0  0  0  0
   -8.2087    4.3925  -11.2854 C   0  0  0  0  0  0  0  0  0  0  0  0
   -7.9424    5.5680  -10.5816 C   0  0  0  0  0  0  0  0  0  0  0  0
   -8.0039    5.5794   -9.1930 C   0  0  0  0  0  0  0  0  0  0  0  0
   -7.6122    7.1697   -8.2477 Br  0  0  0  0  0  0  0  0  0  0  0  0
   -8.3314    4.4252   -8.4949 C   0  0  0  0  0  0  0  0  0  0  0  0
   -8.6408    3.2413   -9.1822 C   0  0  0  0  0  0  0  0  0  0  0  0
   -8.9520    1.9769   -8.4163 C   0  0  0  0  0  0  0  0  0  0  0  0
   -9.5950    2.2475   -7.1305 N   0  0  0  0  0  0  0  0  0  0  0  0
   -8.5656    3.2335  -10.5888 C   0  0  0  0  0  0  0  0  0  0  0  0
   -8.8332    4.5811  -15.6928 C   0  0  0  0  0  0  0  0  0  0  0  0
   -8.9625    4.4366  -17.1055 C   0  0  0  0  0  0  0  0  0  0  0  0
   -7.9219    4.7184  -18.0087 C   0  0  0  0  0  0  0  0  0  0  0  0
   -6.7494    5.0785  -17.3446 C   0  0  0  0  0  0  0  0  0  0  0  0
   -5.5389    5.3747  -17.9200 C   0  0  0  0  0  0  0  0  0  0  0  0
   -5.2824    5.5045  -19.4403 C   0  0  0  0  0  0  0  0  0  0  0  0
   -3.8570    5.4794  -20.0130 C   0  0  0  0  0  0  0  0  0  0  0  0
   -4.2801    6.5013  -21.0049 N   0  0  0  0  0  0  0  0  0  0  0  0
   -5.2848    6.9493  -19.9921 C   0  0  0  0  0  0  0  0  0  0  0  0
  1  2  1  0
  2  3  1  0
  2  4  1  0
  4  5  1  0
  5  6  2  0
  6  7  1  0
  7  8  1  0
  8  9  2  0
  8 10  1  0
 10 11  1  0
 11 12  2  0
 12 13  1  0
 13 14  1  0
 13 15  2  0
 15 16  1  0
 16 17  1  0
 17 18  1  0
 16 19  2  0
  7 20  2  0
 20 21  1  0
 21 22  2  0
 22 23  1  0
 23 24  2  0
 24 25  1  0
 25 26  1  0
 26 27  1  0
 27 28  1  0
 24  4  1  0
 28 25  1  0
 23  6  1  0
 19 11  1  0
M  END
>  <smiles>  (2065) 
C31282-P6

>  <fragmenstein_outcome>  (2065) 
acceptable

>  <inchikey>  (2065) 
QFWXAXDIRSBJKP-UHFFFAOYSA-N

>  <fragmenstein_mode>  (2065) 
expansion

>  <HIPPO Pose ID>  (2065) 
25512

>  <Energy>  (2065) 
97.332296

>  <fragmenstein_error>  (2065) 


>  <tags>  (2065) 
{'openbind_xx01zvns2b_c1_fragmenstein', 'fragmenstein_placed'}

>  <ref_pdb>  (2065) 
175

>  <scratch_subdir>  (2065) 
/opt/xchem-fragalysis-2/maxwin/BulkDock/SCRATCH/511028/C31282-P6

>  <alias>  (2065) 
CC(C)n1nc2c(C(=O)Nc3cc(Br)cc(CN)c3)cccc2c1C1CNC1

>  <HIPPO Compound ID>  (2065) 
31282

>  <fragmenstein_runtime>  (2065) 
10.898828

$$$$
O=C(Nc1cc(Br)c2c(c1)C=NC=CO2)c1cc(Cl)cc2c(C3CNC3)n[nH]c12
     RDKit          3D

 29 33  0  0  0  0  0  0  0  0999 V2000
   -6.8725    6.2077  -13.3351 O   0  0  0  0  0  0  0  0  0  0  0  0
   -7.4764    5.2327  -13.5685 C   0  0  0  0  0  0  0  0  0  0  0  0
   -8.2435    4.2736  -12.6197 N   0  0  0  0  0  0  0  0  0  0  0  0
   -8.3431    4.2639  -11.2238 C   0  0  0  0  0  0  0  0  0  0  0  0
   -7.9855    5.4007  -10.5027 C   0  0  0  0  0  0  0  0  0  0  0  0
   -8.0764    5.4123   -9.1077 C   0  0  0  0  0  0  0  0  0  0  0  0
   -7.5772    7.0155   -8.2096 Br  0  0  0  0  0  0  0  0  0  0  0  0
   -8.5193    4.2880   -8.3989 C   0  0  0  0  0  0  0  0  0  0  0  0
   -8.8749    3.1499   -9.1188 C   0  0  0  0  0  0  0  0  0  0  0  0
   -8.7963    3.1395  -10.5328 C   0  0  0  0  0  0  0  0  0  0  0  0
   -9.2753    1.8932   -8.4713 C   0  0  0  0  0  0  0  0  0  0  0  0
   -9.8065    1.6635   -7.3135 N   0  0  0  0  0  0  0  0  0  0  0  0
  -10.0858    2.6525   -6.4288 C   0  0  0  0  0  0  0  0  0  0  0  0
   -9.4987    3.8426   -6.2935 C   0  0  0  0  0  0  0  0  0  0  0  0
   -8.4848    4.3772   -7.0319 O   0  0  0  0  0  0  0  0  0  0  0  0
   -7.5832    4.8773  -15.0082 C   0  0  0  0  0  0  0  0  0  0  0  0
   -8.7789    4.4834  -15.6093 C   0  0  0  0  0  0  0  0  0  0  0  0
   -8.8623    4.3851  -16.9998 C   0  0  0  0  0  0  0  0  0  0  0  0
  -10.3849    4.1323  -17.7318 Cl  0  0  0  0  0  0  0  0  0  0  0  0
   -7.7681    4.6126  -17.8380 C   0  0  0  0  0  0  0  0  0  0  0  0
   -6.5618    5.0045  -17.2488 C   0  0  0  0  0  0  0  0  0  0  0  0
   -5.2692    5.3571  -17.7001 C   0  0  0  0  0  0  0  0  0  0  0  0
   -4.8242    5.3218  -19.1939 C   0  0  0  0  0  0  0  0  0  0  0  0
   -3.2998    5.4163  -19.4280 C   0  0  0  0  0  0  0  0  0  0  0  0
   -3.5638    6.3215  -20.5690 N   0  0  0  0  0  0  0  0  0  0  0  0
   -4.8684    6.6682  -19.9390 C   0  0  0  0  0  0  0  0  0  0  0  0
   -4.4608    5.7153  -16.6964 N   0  0  0  0  0  0  0  0  0  0  0  0
   -5.2416    5.6126  -15.6071 N   0  0  0  0  0  0  0  0  0  0  0  0
   -6.5029    5.1432  -15.8666 C   0  0  0  0  0  0  0  0  0  0  0  0
  1  2  2  0
  2  3  1  0
  3  4  1  0
  4  5  2  0
  5  6  1  0
  6  7  1  0
  6  8  2  0
  8  9  1  0
  9 10  2  0
  9 11  1  0
 11 12  2  0
 12 13  1  0
 13 14  2  0
 14 15  1  0
  2 16  1  0
 16 17  2  0
 17 18  1  0
 18 19  1  0
 18 20  2  0
 20 21  1  0
 21 22  1  0
 22 23  1  0
 23 24  1  0
 24 25  1  0
 25 26  1  0
 22 27  2  0
 27 28  1  0
 28 29  1  0
 10  4  1  0
 29 16  1  0
 15  8  1  0
 29 21  2  0
 26 23  1  0
M  END
>  <smiles>  (2066) 
C31284-P247

>  <fragmenstein_outcome>  (2066) 
acceptable

>  <inchikey>  (2066) 
ANHPTCNZZKMMRX-UHFFFAOYSA-N

>  <fragmenstein_mode>  (2066) 
expansion

>  <HIPPO Pose ID>  (2066) 
25513

>  <Energy>  (2066) 
94.90639

>  <fragmenstein_error>  (2066) 


>  <tags>  (2066) 
{'openbind_xx01zvns2b_c1_fragmenstein', 'fragmenstein_placed'}

>  <ref_pdb>  (2066) 
175

>  <scratch_subdir>  (2066) 
/opt/xchem-fragalysis-2/maxwin/BulkDock/SCRATCH/511028/C31284-P247

>  <alias>  (2066) 
O=C(Nc1cc(Br)c2c(c1)C=NC=CO2)c1cc(Cl)cc2c(C3CNC3)n[nH]c12

>  <HIPPO Compound ID>  (2066) 
31284

>  <fragmenstein_runtime>  (2066) 
4.137238

$$$$
N#C[C@H]1[C@H](Br)[C@@H]2CNC[C@@H]2C[C@@H]1NC(=O)c1cc(F)cc2c(C3CNC3)n[nH]c12
     RDKit          3D

 29 33  0  0  0  0  0  0  0  0999 V2000
   -8.8393    7.7124  -10.9996 N   0  0  0  0  0  0  0  0  0  0  0  0
   -8.3251    6.6771  -10.8895 C   0  0  0  0  0  0  0  0  0  0  0  0
   -7.6716    5.3614  -10.7035 C   0  0  2  0  0  0  0  0  0  0  0  0
   -8.4946    4.2629  -11.4244 C   0  0  1  0  0  0  0  0  0  0  0  0
   -8.2633    4.1725  -12.8554 N   0  0  0  0  0  0  0  0  0  0  0  0
   -7.4497    5.0779  -13.7953 C   0  0  0  0  0  0  0  0  0  0  0  0
   -6.7719    5.9972  -13.5599 O   0  0  0  0  0  0  0  0  0  0  0  0
   -7.6536    4.7716  -15.2351 C   0  0  0  0  0  0  0  0  0  0  0  0
   -8.8648    4.3449  -15.7901 C   0  0  0  0  0  0  0  0  0  0  0  0
   -9.0017    4.2232  -17.1700 C   0  0  0  0  0  0  0  0  0  0  0  0
  -10.1805    3.8471  -17.6806 F   0  0  0  0  0  0  0  0  0  0  0  0
   -7.9611    4.5204  -18.0473 C   0  0  0  0  0  0  0  0  0  0  0  0
   -6.7459    4.9679  -17.5094 C   0  0  0  0  0  0  0  0  0  0  0  0
   -5.4944    5.4014  -18.0031 C   0  0  0  0  0  0  0  0  0  0  0  0
   -5.1649    5.5025  -19.5098 C   0  0  0  0  0  0  0  0  0  0  0  0
   -3.6733    5.5310  -19.8962 C   0  0  0  0  0  0  0  0  0  0  0  0
   -4.0204    6.5217  -20.9596 N   0  0  0  0  0  0  0  0  0  0  0  0
   -5.1566    6.9358  -20.0804 C   0  0  0  0  0  0  0  0  0  0  0  0
   -4.6404    5.7419  -17.0326 N   0  0  0  0  0  0  0  0  0  0  0  0
   -5.3611    5.5704  -15.9126 N   0  0  0  0  0  0  0  0  0  0  0  0
   -6.6227    5.0806  -16.1324 C   0  0  0  0  0  0  0  0  0  0  0  0
   -8.4147    2.8989  -10.7360 C   0  0  0  0  0  0  0  0  0  0  0  0
   -9.0541    3.0335   -9.3613 C   0  0  1  0  0  0  0  0  0  0  0  0
   -8.8784    1.8854   -8.3946 C   0  0  0  0  0  0  0  0  0  0  0  0
   -9.1669    2.5199   -7.0976 N   0  0  0  0  0  0  0  0  0  0  0  0
   -8.5274    3.8377   -7.1336 C   0  0  0  0  0  0  0  0  0  0  0  0
   -8.6355    4.2852   -8.5866 C   0  0  1  0  0  0  0  0  0  0  0  0
   -7.5011    5.1127   -9.1900 C   0  0  1  0  0  0  0  0  0  0  0  0
   -5.7094    4.3487   -8.9086 Br  0  0  0  0  0  0  0  0  0  0  0  0
  1  2  3  0
  3  2  1  1
  3  4  1  0
  4  5  1  6
  5  6  1  0
  6  7  2  0
  6  8  1  0
  8  9  2  0
  9 10  1  0
 10 11  1  0
 10 12  2  0
 12 13  1  0
 13 14  1  0
 14 15  1  0
 15 16  1  0
 16 17  1  0
 17 18  1  0
 14 19  2  0
 19 20  1  0
 20 21  1  0
  4 22  1  0
 23 22  1  6
 23 24  1  0
 24 25  1  0
 25 26  1  0
 27 26  1  1
 27 28  1  0
 28 29  1  6
 28  3  1  0
 21  8  1  0
 27 23  1  0
 21 13  2  0
 18 15  1  0
M  END
>  <smiles>  (2067) 
C31288-P247

>  <fragmenstein_outcome>  (2067) 
acceptable

>  <inchikey>  (2067) 
KEXDUZGCDBPGMH-UHFFFAOYSA-N

>  <fragmenstein_mode>  (2067) 
expansion

>  <HIPPO Pose ID>  (2067) 
25522

>  <Energy>  (2067) 
60.702806

>  <fragmenstein_error>  (2067) 


>  <tags>  (2067) 
{'openbind_xx01zvns2b_c1_fragmenstein', 'fragmenstein_placed'}

>  <ref_pdb>  (2067) 
175

>  <scratch_subdir>  (2067) 
/opt/xchem-fragalysis-2/maxwin/BulkDock/SCRATCH/511028/C31288-P247

>  <alias>  (2067) 
N#C[C@H]1[C@H](Br)[C@@H]2CNC[C@@H]2C[C@@H]1NC(=O)c1cc(F)cc2c(C3CNC3)n[nH]c12

>  <HIPPO Compound ID>  (2067) 
31288

>  <fragmenstein_runtime>  (2067) 
6.752533

$$$$
CO[C@@H]1C[C@@]2(CCN1)C[C@H](NC(=O)c1cc(F)cc3c(C4CNC4)n[nH]c13)C[C@@H]1CNC[C@H]12
     RDKit          3D

 33 38  0  0  0  0  0  0  0  0999 V2000
   -4.1278    6.4073   -6.0040 C   0  0  0  0  0  0  0  0  0  0  0  0
   -4.5326    5.9072   -7.2678 O   0  0  0  0  0  0  0  0  0  0  0  0
   -5.8971    6.1770   -7.5837 C   0  0  2  0  0  0  0  0  0  0  0  0
   -6.2742    5.2888   -8.7807 C   0  0  0  0  0  0  0  0  0  0  0  0
   -7.7728    5.4136   -9.1773 C   0  0  1  0  0  0  0  0  0  0  0  0
   -8.3266    6.7641   -8.6444 C   0  0  0  0  0  0  0  0  0  0  0  0
   -7.2752    7.8704   -8.6971 C   0  0  0  0  0  0  0  0  0  0  0  0
   -6.0924    7.5893   -7.8876 N   0  0  0  0  0  0  0  0  0  0  0  0
   -7.9159    5.3919  -10.7327 C   0  0  0  0  0  0  0  0  0  0  0  0
   -7.6400    4.0181  -11.3782 C   0  0  2  0  0  0  0  0  0  0  0  0
   -7.7713    4.1001  -12.8177 N   0  0  0  0  0  0  0  0  0  0  0  0
   -7.1167    5.0537  -13.8258 C   0  0  0  0  0  0  0  0  0  0  0  0
   -6.3072    5.8779  -13.6706 O   0  0  0  0  0  0  0  0  0  0  0  0
   -7.5236    4.8037  -15.2392 C   0  0  0  0  0  0  0  0  0  0  0  0
   -8.7758    4.3716  -15.6766 C   0  0  0  0  0  0  0  0  0  0  0  0
   -9.0273    4.2363  -17.0437 C   0  0  0  0  0  0  0  0  0  0  0  0
  -10.2405    3.8364  -17.4439 F   0  0  0  0  0  0  0  0  0  0  0  0
   -8.0711    4.5297  -18.0215 C   0  0  0  0  0  0  0  0  0  0  0  0
   -6.8127    4.9787  -17.5994 C   0  0  0  0  0  0  0  0  0  0  0  0
   -5.5971    5.4036  -18.1879 C   0  0  0  0  0  0  0  0  0  0  0  0
   -5.3148    5.5422  -19.7005 C   0  0  0  0  0  0  0  0  0  0  0  0
   -5.3020    6.9917  -20.2343 C   0  0  0  0  0  0  0  0  0  0  0  0
   -4.1601    6.6133  -21.1183 N   0  0  0  0  0  0  0  0  0  0  0  0
   -3.8175    5.5854  -20.0942 C   0  0  0  0  0  0  0  0  0  0  0  0
   -4.6671    5.7166  -17.2815 N   0  0  0  0  0  0  0  0  0  0  0  0
   -5.2931    5.5428  -16.1161 N   0  0  0  0  0  0  0  0  0  0  0  0
   -6.5804    5.0935  -16.2359 C   0  0  0  0  0  0  0  0  0  0  0  0
   -8.5070    2.9107  -10.7796 C   0  0  0  0  0  0  0  0  0  0  0  0
   -8.3209    2.9001   -9.2718 C   0  0  2  0  0  0  0  0  0  0  0  0
   -9.2390    2.0002   -8.4721 C   0  0  0  0  0  0  0  0  0  0  0  0
   -9.2298    2.5508   -7.0980 N   0  0  0  0  0  0  0  0  0  0  0  0
   -8.6824    3.9182   -7.1741 C   0  0  0  0  0  0  0  0  0  0  0  0
   -8.6436    4.2521   -8.6566 C   0  0  1  0  0  0  0  0  0  0  0  0
  1  2  1  0
  3  2  1  6
  3  4  1  0
  5  4  1  6
  5  6  1  0
  6  7  1  0
  7  8  1  0
  5  9  1  0
  9 10  1  0
 10 11  1  6
 11 12  1  0
 12 13  2  0
 12 14  1  0
 14 15  2  0
 15 16  1  0
 16 17  1  0
 16 18  2  0
 18 19  1  0
 19 20  1  0
 20 21  1  0
 21 22  1  0
 22 23  1  0
 23 24  1  0
 20 25  2  0
 25 26  1  0
 26 27  1  0
 10 28  1  0
 29 28  1  6
 29 30  1  0
 30 31  1  0
 31 32  1  0
 33 32  1  1
  8  3  1  0
 27 14  1  0
 33 29  1  0
 33  5  1  0
 27 19  2  0
 24 21  1  0
M  END
>  <smiles>  (2068) 
C29083-P247

>  <fragmenstein_outcome>  (2068) 
acceptable

>  <inchikey>  (2068) 
PFNFOXCGFCSPLR-UHFFFAOYSA-N

>  <fragmenstein_mode>  (2068) 
expansion

>  <HIPPO Pose ID>  (2068) 
25523

>  <Energy>  (2068) 
55.161658

>  <fragmenstein_error>  (2068) 


>  <tags>  (2068) 
{'openbind_xx01zvns2b_c1_fragmenstein', 'fragmenstein_placed'}

>  <ref_pdb>  (2068) 
175

>  <scratch_subdir>  (2068) 
/opt/xchem-fragalysis-2/maxwin/BulkDock/SCRATCH/511028/C29083-P247

>  <alias>  (2068) 
CO[C@@H]1C[C@@]2(CCN1)C[C@H](NC(=O)c1cc(F)cc3c(C4CNC4)n[nH]c13)C[C@@H]1CNC[C@H]12

>  <HIPPO Compound ID>  (2068) 
29083

>  <fragmenstein_runtime>  (2068) 
10.279544

$$$$
O=C(Nc1cc(Br)c2ccncc2c1)c1cccc2c(C3CNC3)[n+]([O-])[nH]c12
     RDKit          3D

 28 32  0  0  0  0  0  0  0  0999 V2000
   -7.3534    6.3194  -13.1794 O   0  0  0  0  0  0  0  0  0  0  0  0
   -7.7854    5.2666  -13.4459 C   0  0  0  0  0  0  0  0  0  0  0  0
   -8.2945    4.1320  -12.5296 N   0  0  0  0  0  0  0  0  0  0  0  0
   -8.4620    4.0915  -11.1438 C   0  0  0  0  0  0  0  0  0  0  0  0
   -8.2230    5.2288  -10.3741 C   0  0  0  0  0  0  0  0  0  0  0  0
   -8.3889    5.1991   -8.9859 C   0  0  0  0  0  0  0  0  0  0  0  0
   -8.0954    6.8165   -8.0403 Br  0  0  0  0  0  0  0  0  0  0  0  0
   -8.7898    4.0235   -8.3216 C   0  0  0  0  0  0  0  0  0  0  0  0
   -8.9938    3.9262   -6.9275 C   0  0  0  0  0  0  0  0  0  0  0  0
   -9.4350    2.7352   -6.3844 C   0  0  0  0  0  0  0  0  0  0  0  0
   -9.6751    1.6374   -7.1120 N   0  0  0  0  0  0  0  0  0  0  0  0
   -9.4374    1.7294   -8.4386 C   0  0  0  0  0  0  0  0  0  0  0  0
   -9.0209    2.8790   -9.1084 C   0  0  0  0  0  0  0  0  0  0  0  0
   -8.8552    2.9174  -10.5115 C   0  0  0  0  0  0  0  0  0  0  0  0
   -7.7592    4.9029  -14.8882 C   0  0  0  0  0  0  0  0  0  0  0  0
   -8.8459    4.3855  -15.5920 C   0  0  0  0  0  0  0  0  0  0  0  0
   -8.8094    4.2899  -16.9882 C   0  0  0  0  0  0  0  0  0  0  0  0
   -7.6932    4.7281  -17.7266 C   0  0  0  0  0  0  0  0  0  0  0  0
   -6.5640    5.2385  -17.0523 C   0  0  0  0  0  0  0  0  0  0  0  0
   -5.3013    5.8383  -17.4678 C   0  0  0  0  0  0  0  0  0  0  0  0
   -4.7930    6.2577  -18.8512 C   0  0  0  0  0  0  0  0  0  0  0  0
   -3.3120    5.9088  -19.1279 C   0  0  0  0  0  0  0  0  0  0  0  0
   -3.6781    5.6319  -20.5331 N   0  0  0  0  0  0  0  0  0  0  0  0
   -5.0715    5.3684  -20.0510 C   0  0  0  0  0  0  0  0  0  0  0  0
   -4.6219    6.1357  -16.3492 N   0  0  0  0  0  0  0  0  0  0  0  0
   -3.5206    6.7026  -16.1652 O   0  0  0  0  0  0  0  0  0  0  0  0
   -5.4347    5.8105  -15.2366 N   0  0  0  0  0  0  0  0  0  0  0  0
   -6.6360    5.2757  -15.6372 C   0  0  0  0  0  0  0  0  0  0  0  0
  1  2  2  0
  2  3  1  0
  3  4  1  0
  4  5  2  0
  5  6  1  0
  6  7  1  0
  6  8  2  0
  8  9  1  0
  9 10  2  0
 10 11  1  0
 11 12  2  0
 12 13  1  0
 13 14  2  0
  2 15  1  0
 15 16  2  0
 16 17  1  0
 17 18  2  0
 18 19  1  0
 19 20  1  0
 20 21  1  0
 21 22  1  0
 22 23  1  0
 23 24  1  0
 20 25  2  0
 25 26  1  0
 25 27  1  0
 27 28  1  0
 14  4  1  0
 28 15  1  0
 13  8  1  0
 28 19  2  0
 24 21  1  0
M  CHG  2  25   1  26  -1
M  END
>  <smiles>  (2069) 
C31314-P247

>  <fragmenstein_outcome>  (2069) 
acceptable

>  <inchikey>  (2069) 
HUCSOSPPLVPNKC-UHFFFAOYSA-N

>  <fragmenstein_mode>  (2069) 
expansion

>  <HIPPO Pose ID>  (2069) 
25536

>  <Energy>  (2069) 
68.505996

>  <fragmenstein_error>  (2069) 


>  <tags>  (2069) 
{'openbind_xx01zvns2b_c1_fragmenstein', 'fragmenstein_placed'}

>  <ref_pdb>  (2069) 
175

>  <scratch_subdir>  (2069) 
/opt/xchem-fragalysis-2/maxwin/BulkDock/SCRATCH/511028/C31314-P247

>  <alias>  (2069) 
O=C(Nc1cc(Br)c2ccncc2c1)c1cccc2c(C3CNC3)[n+]([O-])[nH]c12

>  <HIPPO Compound ID>  (2069) 
31314

>  <fragmenstein_runtime>  (2069) 
4.159394

$$$$
O=C(N[C@H]1C[C@@H]2CNC[C@@H]2[C@@H](Br)C1)c1cc(Br)cc2c(C3CNC3)n[nH]c12
     RDKit          3D

 27 31  0  0  0  0  0  0  0  0999 V2000
   -6.2127    5.2461  -13.3830 O   0  0  0  0  0  0  0  0  0  0  0  0
   -7.1289    4.6224  -13.7476 C   0  0  0  0  0  0  0  0  0  0  0  0
   -8.2225    3.8924  -12.9458 N   0  0  0  0  0  0  0  0  0  0  0  0
   -8.4746    3.8538  -11.5319 C   0  0  2  0  0  0  0  0  0  0  0  0
   -8.0868    5.1821  -10.9132 C   0  0  0  0  0  0  0  0  0  0  0  0
   -8.4472    5.2147   -9.4498 C   0  0  2  0  0  0  0  0  0  0  0  0
   -7.8406    6.9485   -8.7947 Br  0  0  0  0  0  0  0  0  0  0  0  0
   -7.8560    4.0645   -8.6323 C   0  0  1  0  0  0  0  0  0  0  0  0
   -8.6340    3.8659   -7.3202 C   0  0  0  0  0  0  0  0  0  0  0  0
   -9.4125    2.6418   -7.4697 N   0  0  0  0  0  0  0  0  0  0  0  0
   -9.3626    2.2268   -8.8663 C   0  0  0  0  0  0  0  0  0  0  0  0
   -7.9971    2.7016   -9.3324 C   0  0  1  0  0  0  0  0  0  0  0  0
   -7.7620    2.7145  -10.8405 C   0  0  0  0  0  0  0  0  0  0  0  0
   -7.3679    4.5832  -15.2100 C   0  0  0  0  0  0  0  0  0  0  0  0
   -8.6282    4.4114  -15.7815 C   0  0  0  0  0  0  0  0  0  0  0  0
   -8.7822    4.4585  -17.1601 C   0  0  0  0  0  0  0  0  0  0  0  0
  -10.5226    4.3982  -17.8449 Br  0  0  0  0  0  0  0  0  0  0  0  0
   -7.7099    4.6741  -18.0262 C   0  0  0  0  0  0  0  0  0  0  0  0
   -6.4530    4.9278  -17.4640 C   0  0  0  0  0  0  0  0  0  0  0  0
   -5.1560    5.2395  -17.9304 C   0  0  0  0  0  0  0  0  0  0  0  0
   -4.7706    5.3427  -19.4322 C   0  0  0  0  0  0  0  0  0  0  0  0
   -3.2566    5.4757  -19.7095 C   0  0  0  0  0  0  0  0  0  0  0  0
   -3.5671    6.4813  -20.7489 N   0  0  0  0  0  0  0  0  0  0  0  0
   -4.8547    6.7488  -20.0508 C   0  0  0  0  0  0  0  0  0  0  0  0
   -4.2774    5.4127  -16.9360 N   0  0  0  0  0  0  0  0  0  0  0  0
   -5.0115    5.2082  -15.8303 N   0  0  0  0  0  0  0  0  0  0  0  0
   -6.3184    4.8875  -16.0840 C   0  0  0  0  0  0  0  0  0  0  0  0
  1  2  2  0
  2  3  1  0
  4  3  1  6
  4  5  1  0
  5  6  1  0
  6  7  1  1
  6  8  1  0
  8  9  1  1
  9 10  1  0
 10 11  1  0
 12 11  1  6
 12 13  1  0
  2 14  1  0
 14 15  2  0
 15 16  1  0
 16 17  1  0
 16 18  2  0
 18 19  1  0
 19 20  1  0
 20 21  1  0
 21 22  1  0
 22 23  1  0
 23 24  1  0
 20 25  2  0
 25 26  1  0
 26 27  1  0
 13  4  1  0
 27 14  1  0
 12  8  1  0
 27 19  2  0
 24 21  1  0
M  END
>  <smiles>  (2070) 
C31327-P247

>  <fragmenstein_outcome>  (2070) 
acceptable

>  <inchikey>  (2070) 
HWFKQPYTCGCTCR-UHFFFAOYSA-N

>  <fragmenstein_mode>  (2070) 
expansion

>  <HIPPO Pose ID>  (2070) 
25547

>  <Energy>  (2070) 
56.266901

>  <fragmenstein_error>  (2070) 


>  <tags>  (2070) 
{'openbind_xx01zvns2b_c1_fragmenstein', 'fragmenstein_placed'}

>  <ref_pdb>  (2070) 
175

>  <scratch_subdir>  (2070) 
/opt/xchem-fragalysis-2/maxwin/BulkDock/SCRATCH/511028/C31327-P247

>  <alias>  (2070) 
O=C(N[C@H]1C[C@@H]2CNC[C@@H]2[C@@H](Br)C1)c1cc(Br)cc2c(C3CNC3)n[nH]c12

>  <HIPPO Compound ID>  (2070) 
31327

>  <fragmenstein_runtime>  (2070) 
3.892863

$$$$
Cc1cc(NC(=O)c2cc(Cl)cc3c([C@@H]4CN[C@H]4N)n[nH]c23)cc(Br)c1C
     RDKit          3D

 27 30  0  0  0  0  0  0  0  0999 V2000
   -9.3569    1.8380   -8.6446 C   0  0  0  0  0  0  0  0  0  0  0  0
   -8.8775    3.1141   -9.2789 C   0  0  0  0  0  0  0  0  0  0  0  0
   -8.7625    3.1679  -10.6826 C   0  0  0  0  0  0  0  0  0  0  0  0
   -8.2843    4.3120  -11.3146 C   0  0  0  0  0  0  0  0  0  0  0  0
   -8.1632    4.3416  -12.7030 N   0  0  0  0  0  0  0  0  0  0  0  0
   -7.3831    5.3109  -13.6236 C   0  0  0  0  0  0  0  0  0  0  0  0
   -6.7832    6.2811  -13.3676 O   0  0  0  0  0  0  0  0  0  0  0  0
   -7.4835    4.9547  -15.0599 C   0  0  0  0  0  0  0  0  0  0  0  0
   -8.6745    4.5308  -15.6511 C   0  0  0  0  0  0  0  0  0  0  0  0
   -8.7510    4.3938  -17.0355 C   0  0  0  0  0  0  0  0  0  0  0  0
  -10.2487    4.0408  -17.7602 Cl  0  0  0  0  0  0  0  0  0  0  0  0
   -7.6661    4.6354  -17.8771 C   0  0  0  0  0  0  0  0  0  0  0  0
   -6.4672    5.0556  -17.2955 C   0  0  0  0  0  0  0  0  0  0  0  0
   -5.1884    5.4329  -17.7595 C   0  0  0  0  0  0  0  0  0  0  0  0
   -4.8045    5.4590  -19.2676 C   0  0  2  0  0  0  0  0  0  0  0  0
   -3.3004    5.3761  -19.5963 C   0  0  0  0  0  0  0  0  0  0  0  0
   -3.5168    6.4035  -20.6504 N   0  0  0  0  0  0  0  0  0  0  0  0
   -4.6698    6.8762  -19.8757 C   0  0  1  0  0  0  0  0  0  0  0  0
   -5.7068    7.1142  -20.8450 N   0  0  0  0  0  0  0  0  0  0  0  0
   -4.3699    5.7896  -16.7646 N   0  0  0  0  0  0  0  0  0  0  0  0
   -5.1416    5.6849  -15.6667 N   0  0  0  0  0  0  0  0  0  0  0  0
   -6.4035    5.2128  -15.9171 C   0  0  0  0  0  0  0  0  0  0  0  0
   -7.9463    5.4239  -10.5509 C   0  0  0  0  0  0  0  0  0  0  0  0
   -8.0709    5.3890   -9.1582 C   0  0  0  0  0  0  0  0  0  0  0  0
   -7.6370    6.9875   -8.2182 Br  0  0  0  0  0  0  0  0  0  0  0  0
   -8.5038    4.2275   -8.4953 C   0  0  0  0  0  0  0  0  0  0  0  0
   -8.6045    4.1824   -6.9919 C   0  0  0  0  0  0  0  0  0  0  0  0
  1  2  1  0
  2  3  2  0
  3  4  1  0
  4  5  1  0
  5  6  1  0
  6  7  2  0
  6  8  1  0
  8  9  2  0
  9 10  1  0
 10 11  1  0
 10 12  2  0
 12 13  1  0
 13 14  1  0
 15 14  1  1
 15 16  1  0
 16 17  1  0
 17 18  1  0
 18 19  1  6
 14 20  2  0
 20 21  1  0
 21 22  1  0
  4 23  2  0
 23 24  1  0
 24 25  1  0
 24 26  2  0
 26 27  1  0
 26  2  1  0
 22  8  1  0
 22 13  2  0
 18 15  1  0
M  END
>  <smiles>  (2071) 
C31331-P247

>  <fragmenstein_outcome>  (2071) 
acceptable

>  <inchikey>  (2071) 
MEKCCPCJQARDBW-UHFFFAOYSA-N

>  <fragmenstein_mode>  (2071) 
expansion

>  <HIPPO Pose ID>  (2071) 
25550

>  <Energy>  (2071) 
26.931299

>  <fragmenstein_error>  (2071) 


>  <tags>  (2071) 
{'openbind_xx01zvns2b_c1_fragmenstein', 'fragmenstein_placed'}

>  <ref_pdb>  (2071) 
175

>  <scratch_subdir>  (2071) 
/opt/xchem-fragalysis-2/maxwin/BulkDock/SCRATCH/511028/C31331-P247

>  <alias>  (2071) 
Cc1cc(NC(=O)c2cc(Cl)cc3c([C@@H]4CN[C@H]4N)n[nH]c23)cc(Br)c1C

>  <HIPPO Compound ID>  (2071) 
36255

>  <fragmenstein_runtime>  (2071) 
5.738648

$$$$
O=C(N[C@H]1CCC2(CCCC2)[C@@H](Br)C1)c1cc(Cl)cc2c(C3CNC3)n[nH]c12
     RDKit          3D

 28 32  0  0  0  0  0  0  0  0999 V2000
   -6.3052    5.6611  -13.4175 O   0  0  0  0  0  0  0  0  0  0  0  0
   -7.1219    4.9175  -13.7823 C   0  0  0  0  0  0  0  0  0  0  0  0
   -8.1414    4.1022  -12.9929 N   0  0  0  0  0  0  0  0  0  0  0  0
   -8.3182    3.9503  -11.5832 C   0  0  1  0  0  0  0  0  0  0  0  0
   -7.1918    3.1057  -10.9926 C   0  0  0  0  0  0  0  0  0  0  0  0
   -7.0198    3.2618   -9.4714 C   0  0  0  0  0  0  0  0  0  0  0  0
   -8.2770    3.8452   -8.7859 C   0  0  0  0  0  0  0  0  0  0  0  0
   -8.2141    3.9694   -7.2406 C   0  0  0  0  0  0  0  0  0  0  0  0
   -8.9664    2.7892   -6.6368 C   0  0  0  0  0  0  0  0  0  0  0  0
   -9.2641    1.8587   -7.7841 C   0  0  0  0  0  0  0  0  0  0  0  0
   -9.4099    2.7984   -8.9608 C   0  0  0  0  0  0  0  0  0  0  0  0
   -8.5450    5.2313   -9.4217 C   0  0  1  0  0  0  0  0  0  0  0  0
   -7.3875    6.6616   -8.6354 Br  0  0  0  0  0  0  0  0  0  0  0  0
   -8.3505    5.3209  -10.9279 C   0  0  0  0  0  0  0  0  0  0  0  0
   -7.2905    4.7804  -15.2437 C   0  0  0  0  0  0  0  0  0  0  0  0
   -8.4894    4.4770  -15.8832 C   0  0  0  0  0  0  0  0  0  0  0  0
   -8.5589    4.5181  -17.2697 C   0  0  0  0  0  0  0  0  0  0  0  0
  -10.0880    4.2429  -17.9830 Cl  0  0  0  0  0  0  0  0  0  0  0  0
   -7.4625    4.8910  -18.0620 C   0  0  0  0  0  0  0  0  0  0  0  0
   -6.2639    5.2519  -17.4237 C   0  0  0  0  0  0  0  0  0  0  0  0
   -5.0056    5.8174  -17.7478 C   0  0  0  0  0  0  0  0  0  0  0  0
   -4.5598    6.4220  -19.0883 C   0  0  0  0  0  0  0  0  0  0  0  0
   -3.0981    6.0863  -19.4561 C   0  0  0  0  0  0  0  0  0  0  0  0
   -3.5178    5.9711  -20.8701 N   0  0  0  0  0  0  0  0  0  0  0  0
   -4.9009    5.6847  -20.3626 C   0  0  0  0  0  0  0  0  0  0  0  0
   -4.1986    5.9562  -16.6908 N   0  0  0  0  0  0  0  0  0  0  0  0
   -4.9549    5.5498  -15.6724 N   0  0  0  0  0  0  0  0  0  0  0  0
   -6.2102    5.1498  -16.0444 C   0  0  0  0  0  0  0  0  0  0  0  0
  1  2  2  0
  2  3  1  0
  4  3  1  6
  4  5  1  0
  5  6  1  0
  6  7  1  0
  7  8  1  0
  8  9  1  0
  9 10  1  0
 10 11  1  0
  7 12  1  0
 12 13  1  1
 12 14  1  0
  2 15  1  0
 15 16  2  0
 16 17  1  0
 17 18  1  0
 17 19  2  0
 19 20  1  0
 20 21  1  0
 21 22  1  0
 22 23  1  0
 23 24  1  0
 24 25  1  0
 21 26  2  0
 26 27  1  0
 27 28  1  0
 14  4  1  0
 28 15  1  0
 11  7  1  0
 28 20  2  0
 25 22  1  0
M  END
>  <smiles>  (2072) 
C31360-P247

>  <fragmenstein_outcome>  (2072) 
acceptable

>  <inchikey>  (2072) 
JCSQWLWDNSIQDS-UHFFFAOYSA-N

>  <fragmenstein_mode>  (2072) 
expansion

>  <HIPPO Pose ID>  (2072) 
25561

>  <Energy>  (2072) 
79.845096

>  <fragmenstein_error>  (2072) 


>  <tags>  (2072) 
{'openbind_xx01zvns2b_c1_fragmenstein', 'fragmenstein_placed'}

>  <ref_pdb>  (2072) 
175

>  <scratch_subdir>  (2072) 
/opt/xchem-fragalysis-2/maxwin/BulkDock/SCRATCH/511028/C31360-P247

>  <alias>  (2072) 
O=C(N[C@H]1CCC2(CCCC2)[C@@H](Br)C1)c1cc(Cl)cc2c(C3CNC3)n[nH]c12

>  <HIPPO Compound ID>  (2072) 
29103

>  <fragmenstein_runtime>  (2072) 
12.511618

$$$$
N#Cc1cccc(NC(=O)c2cc(Cl)cc3c(C4CNC4)n[nH]c23)c1
     RDKit          3D

 25 28  0  0  0  0  0  0  0  0999 V2000
   -9.8005    1.3456   -7.4928 N   0  0  0  0  0  0  0  0  0  0  0  0
   -9.3537    2.1002   -8.2515 C   0  0  0  0  0  0  0  0  0  0  0  0
   -8.8605    3.1836   -9.0462 C   0  0  0  0  0  0  0  0  0  0  0  0
   -8.4727    4.3405   -8.3565 C   0  0  0  0  0  0  0  0  0  0  0  0
   -8.0341    5.4556   -9.0520 C   0  0  0  0  0  0  0  0  0  0  0  0
   -7.9672    5.4071  -10.4397 C   0  0  0  0  0  0  0  0  0  0  0  0
   -8.3396    4.2541  -11.1449 C   0  0  0  0  0  0  0  0  0  0  0  0
   -8.2253    4.2670  -12.5361 N   0  0  0  0  0  0  0  0  0  0  0  0
   -7.4903    5.2525  -13.4742 C   0  0  0  0  0  0  0  0  0  0  0  0
   -6.9298    6.2509  -13.2359 O   0  0  0  0  0  0  0  0  0  0  0  0
   -7.5209    4.8856  -14.9115 C   0  0  0  0  0  0  0  0  0  0  0  0
   -8.6643    4.4593  -15.5804 C   0  0  0  0  0  0  0  0  0  0  0  0
   -8.6706    4.4270  -16.9768 C   0  0  0  0  0  0  0  0  0  0  0  0
  -10.1358    4.0836  -17.7864 Cl  0  0  0  0  0  0  0  0  0  0  0  0
   -7.5604    4.7949  -17.7521 C   0  0  0  0  0  0  0  0  0  0  0  0
   -6.3996    5.2145  -17.0885 C   0  0  0  0  0  0  0  0  0  0  0  0
   -5.1361    5.7623  -17.4234 C   0  0  0  0  0  0  0  0  0  0  0  0
   -4.6386    6.2244  -18.8113 C   0  0  0  0  0  0  0  0  0  0  0  0
   -3.1953    5.7885  -19.1383 C   0  0  0  0  0  0  0  0  0  0  0  0
   -3.6012    5.6424  -20.5568 N   0  0  0  0  0  0  0  0  0  0  0  0
   -5.0009    5.4298  -20.0564 C   0  0  0  0  0  0  0  0  0  0  0  0
   -4.3858    6.0256  -16.3487 N   0  0  0  0  0  0  0  0  0  0  0  0
   -5.1897    5.7276  -15.3239 N   0  0  0  0  0  0  0  0  0  0  0  0
   -6.4102    5.2307  -15.6986 C   0  0  0  0  0  0  0  0  0  0  0  0
   -8.8018    3.1361  -10.4486 C   0  0  0  0  0  0  0  0  0  0  0  0
  1  2  3  0
  2  3  1  0
  3  4  2  0
  4  5  1  0
  5  6  2  0
  6  7  1  0
  7  8  1  0
  8  9  1  0
  9 10  2  0
  9 11  1  0
 11 12  2  0
 12 13  1  0
 13 14  1  0
 13 15  2  0
 15 16  1  0
 16 17  1  0
 17 18  1  0
 18 19  1  0
 19 20  1  0
 20 21  1  0
 17 22  2  0
 22 23  1  0
 23 24  1  0
  7 25  2  0
 25  3  1  0
 24 11  1  0
 24 16  2  0
 21 18  1  0
M  END
>  <smiles>  (2073) 
C31364-P247

>  <fragmenstein_outcome>  (2073) 
acceptable

>  <inchikey>  (2073) 
CFKXESHBENHZSJ-UHFFFAOYSA-N

>  <fragmenstein_mode>  (2073) 
expansion

>  <HIPPO Pose ID>  (2073) 
25564

>  <Energy>  (2073) 
71.467839

>  <fragmenstein_error>  (2073) 


>  <tags>  (2073) 
{'openbind_xx01zvns2b_c1_fragmenstein', 'fragmenstein_placed'}

>  <ref_pdb>  (2073) 
175

>  <scratch_subdir>  (2073) 
/opt/xchem-fragalysis-2/maxwin/BulkDock/SCRATCH/511028/C31364-P247

>  <alias>  (2073) 
N#Cc1cccc(NC(=O)c2cc(Cl)cc3c(C4CNC4)n[nH]c23)c1

>  <HIPPO Compound ID>  (2073) 
18950

>  <fragmenstein_runtime>  (2073) 
4.508372

$$$$
O=C(Nc1ccc(F)c(Br)c1)c1cc(Cl)cc2c(C3CNC3)n[nH]c12
     RDKit          3D

 25 28  0  0  0  0  0  0  0  0999 V2000
   -6.7519    6.1884  -13.4100 O   0  0  0  0  0  0  0  0  0  0  0  0
   -7.3839    5.2312  -13.6373 C   0  0  0  0  0  0  0  0  0  0  0  0
   -8.1728    4.3001  -12.6848 N   0  0  0  0  0  0  0  0  0  0  0  0
   -8.2674    4.2979  -11.2942 C   0  0  0  0  0  0  0  0  0  0  0  0
   -7.8851    5.4348  -10.5730 C   0  0  0  0  0  0  0  0  0  0  0  0
   -7.9999    5.4647   -9.1836 C   0  0  0  0  0  0  0  0  0  0  0  0
   -8.4772    4.3480   -8.5144 C   0  0  0  0  0  0  0  0  0  0  0  0
   -8.5891    4.3953   -7.1782 F   0  0  0  0  0  0  0  0  0  0  0  0
   -8.8461    3.2090   -9.2225 C   0  0  0  0  0  0  0  0  0  0  0  0
   -9.4661    1.7116   -8.2689 Br  0  0  0  0  0  0  0  0  0  0  0  0
   -8.7590    3.1800  -10.6186 C   0  0  0  0  0  0  0  0  0  0  0  0
   -7.5399    4.8768  -15.0688 C   0  0  0  0  0  0  0  0  0  0  0  0
   -8.7660    4.5034  -15.6253 C   0  0  0  0  0  0  0  0  0  0  0  0
   -8.9037    4.4059  -17.0093 C   0  0  0  0  0  0  0  0  0  0  0  0
  -10.4530    4.1875  -17.6927 Cl  0  0  0  0  0  0  0  0  0  0  0  0
   -7.8390    4.6244  -17.8818 C   0  0  0  0  0  0  0  0  0  0  0  0
   -6.6081    5.0016  -17.3361 C   0  0  0  0  0  0  0  0  0  0  0  0
   -5.3460    5.3772  -17.8426 C   0  0  0  0  0  0  0  0  0  0  0  0
   -5.0502    5.4555  -19.3608 C   0  0  0  0  0  0  0  0  0  0  0  0
   -3.5764    5.5195  -19.7978 C   0  0  0  0  0  0  0  0  0  0  0  0
   -3.9905    6.4762  -20.8700 N   0  0  0  0  0  0  0  0  0  0  0  0
   -5.1068    6.8764  -19.9599 C   0  0  0  0  0  0  0  0  0  0  0  0
   -4.4770    5.6919  -16.8776 N   0  0  0  0  0  0  0  0  0  0  0  0
   -5.2048    5.5697  -15.7508 N   0  0  0  0  0  0  0  0  0  0  0  0
   -6.4853    5.1257  -15.9597 C   0  0  0  0  0  0  0  0  0  0  0  0
  1  2  2  0
  2  3  1  0
  3  4  1  0
  4  5  2  0
  5  6  1  0
  6  7  2  0
  7  8  1  0
  7  9  1  0
  9 10  1  0
  9 11  2  0
  2 12  1  0
 12 13  2  0
 13 14  1  0
 14 15  1  0
 14 16  2  0
 16 17  1  0
 17 18  1  0
 18 19  1  0
 19 20  1  0
 20 21  1  0
 21 22  1  0
 18 23  2  0
 23 24  1  0
 24 25  1  0
 11  4  1  0
 25 12  1  0
 25 17  2  0
 22 19  1  0
M  END
>  <smiles>  (2074) 
C31365-P247

>  <fragmenstein_outcome>  (2074) 
acceptable

>  <inchikey>  (2074) 
ASENFTKBKASXEU-UHFFFAOYSA-N

>  <fragmenstein_mode>  (2074) 
expansion

>  <HIPPO Pose ID>  (2074) 
25565

>  <Energy>  (2074) 
60.814816

>  <fragmenstein_error>  (2074) 


>  <tags>  (2074) 
{'openbind_xx01zvns2b_c1_fragmenstein', 'fragmenstein_placed'}

>  <ref_pdb>  (2074) 
175

>  <scratch_subdir>  (2074) 
/opt/xchem-fragalysis-2/maxwin/BulkDock/SCRATCH/511028/C31365-P247

>  <alias>  (2074) 
O=C(Nc1ccc(F)c(Br)c1)c1cc(Cl)cc2c(C3CNC3)n[nH]c12

>  <HIPPO Compound ID>  (2074) 
21553

>  <fragmenstein_runtime>  (2074) 
3.566576

$$$$
Cn1nc2c(C(=O)N[C@@H]3C[C@@H]4CNC[C@@H]4[C@H](Br)C3)cc(Cl)cc2c1C1CNC1
     RDKit          3D

 28 32  0  0  0  0  0  0  0  0999 V2000
   -3.1558    6.3948  -16.8522 C   0  0  0  0  0  0  0  0  0  0  0  0
   -4.4887    5.8416  -16.8238 N   0  0  0  0  0  0  0  0  0  0  0  0
   -5.0571    5.6908  -15.6172 N   0  0  0  0  0  0  0  0  0  0  0  0
   -6.3185    5.2981  -15.8491 C   0  0  0  0  0  0  0  0  0  0  0  0
   -7.4050    5.0852  -14.9757 C   0  0  0  0  0  0  0  0  0  0  0  0
   -7.3179    5.4808  -13.5642 C   0  0  0  0  0  0  0  0  0  0  0  0
   -6.9116    6.5450  -13.3230 O   0  0  0  0  0  0  0  0  0  0  0  0
   -7.7455    4.3411  -12.6257 N   0  0  0  0  0  0  0  0  0  0  0  0
   -7.6745    4.2338  -11.1887 C   0  0  1  0  0  0  0  0  0  0  0  0
   -8.1213    5.5052  -10.4695 C   0  0  0  0  0  0  0  0  0  0  0  0
   -7.6514    5.4472   -9.0272 C   0  0  1  0  0  0  0  0  0  0  0  0
   -8.2518    7.0398   -8.0661 Br  0  0  0  0  0  0  0  0  0  0  0  0
   -7.9093    4.1303   -8.2929 C   0  0  1  0  0  0  0  0  0  0  0  0
   -8.9521    4.0821   -7.1822 C   0  0  0  0  0  0  0  0  0  0  0  0
   -9.2681    2.6685   -7.0617 N   0  0  0  0  0  0  0  0  0  0  0  0
   -9.3339    2.1590   -8.4262 C   0  0  0  0  0  0  0  0  0  0  0  0
   -8.1960    2.8723   -9.1517 C   0  0  1  0  0  0  0  0  0  0  0  0
   -8.4758    3.0651  -10.6419 C   0  0  0  0  0  0  0  0  0  0  0  0
   -8.5894    4.6388  -15.5915 C   0  0  0  0  0  0  0  0  0  0  0  0
   -8.6781    4.4597  -17.0017 C   0  0  0  0  0  0  0  0  0  0  0  0
  -10.2045    4.0715  -17.6696 Cl  0  0  0  0  0  0  0  0  0  0  0  0
   -7.6309    4.6790  -17.9158 C   0  0  0  0  0  0  0  0  0  0  0  0
   -6.4762    5.0964  -17.2672 C   0  0  0  0  0  0  0  0  0  0  0  0
   -5.2981    5.4738  -17.8650 C   0  0  0  0  0  0  0  0  0  0  0  0
   -5.0485    5.5349  -19.3984 C   0  0  0  0  0  0  0  0  0  0  0  0
   -3.6160    5.4756  -19.9534 C   0  0  0  0  0  0  0  0  0  0  0  0
   -4.0041    6.4998  -20.9572 N   0  0  0  0  0  0  0  0  0  0  0  0
   -5.0560    6.9531  -20.0060 C   0  0  0  0  0  0  0  0  0  0  0  0
  1  2  1  0
  2  3  1  0
  3  4  2  0
  4  5  1  0
  5  6  1  0
  6  7  2  0
  6  8  1  0
  9  8  1  6
  9 10  1  0
 10 11  1  0
 11 12  1  1
 11 13  1  0
 13 14  1  1
 14 15  1  0
 15 16  1  0
 17 16  1  1
 17 18  1  0
  5 19  2  0
 19 20  1  0
 20 21  1  0
 20 22  2  0
 22 23  1  0
 23 24  2  0
 24 25  1  0
 25 26  1  0
 26 27  1  0
 27 28  1  0
 24  2  1  0
 28 25  1  0
 23  4  1  0
 18  9  1  0
 17 13  1  0
M  END
>  <smiles>  (2075) 
C31370-P247

>  <fragmenstein_outcome>  (2075) 
acceptable

>  <inchikey>  (2075) 
LZTYPFXTZGYTIP-UHFFFAOYSA-N

>  <fragmenstein_mode>  (2075) 
expansion

>  <HIPPO Pose ID>  (2075) 
25566

>  <Energy>  (2075) 
91.879729

>  <fragmenstein_error>  (2075) 


>  <tags>  (2075) 
{'openbind_xx01zvns2b_c1_fragmenstein', 'fragmenstein_placed'}

>  <ref_pdb>  (2075) 
175

>  <scratch_subdir>  (2075) 
/opt/xchem-fragalysis-2/maxwin/BulkDock/SCRATCH/511028/C31370-P247

>  <alias>  (2075) 
Cn1nc2c(C(=O)N[C@@H]3C[C@@H]4CNC[C@@H]4[C@H](Br)C3)cc(Cl)cc2c1C1CNC1

>  <HIPPO Compound ID>  (2075) 
20040

>  <fragmenstein_runtime>  (2075) 
5.098112

$$$$
CNCn1nc2c(C(=O)N[C@H]3C[C@@H]4CNC[C@@H]4[C@H](Br)C3)cccc2c1C1CNC1
     RDKit          3D

 29 33  0  0  0  0  0  0  0  0999 V2000
   -2.8453    4.6486  -14.9988 C   0  0  0  0  0  0  0  0  0  0  0  0
   -2.5890    5.1610  -16.3467 N   0  0  0  0  0  0  0  0  0  0  0  0
   -3.5171    6.2536  -16.6834 C   0  0  0  0  0  0  0  0  0  0  0  0
   -4.8888    5.7638  -16.8002 N   0  0  0  0  0  0  0  0  0  0  0  0
   -5.6364    5.7912  -15.6704 N   0  0  0  0  0  0  0  0  0  0  0  0
   -6.8202    5.2568  -16.0044 C   0  0  0  0  0  0  0  0  0  0  0  0
   -7.9668    4.9855  -15.2342 C   0  0  0  0  0  0  0  0  0  0  0  0
   -8.1082    5.4727  -13.8582 C   0  0  0  0  0  0  0  0  0  0  0  0
   -8.0866    6.6237  -13.6847 O   0  0  0  0  0  0  0  0  0  0  0  0
   -8.2989    4.3189  -12.8622 N   0  0  0  0  0  0  0  0  0  0  0  0
   -8.4099    4.3312  -11.4167 C   0  0  2  0  0  0  0  0  0  0  0  0
   -7.2237    5.0770  -10.8121 C   0  0  0  0  0  0  0  0  0  0  0  0
   -7.4148    5.3203   -9.3261 C   0  0  1  0  0  0  0  0  0  0  0  0
   -8.5688    6.8718   -9.0576 Br  0  0  0  0  0  0  0  0  0  0  0  0
   -7.7952    4.0618   -8.5557 C   0  0  1  0  0  0  0  0  0  0  0  0
   -8.7326    4.1546   -7.3529 C   0  0  0  0  0  0  0  0  0  0  0  0
   -9.2098    2.7889   -7.1833 N   0  0  0  0  0  0  0  0  0  0  0  0
   -9.4487    2.2903   -8.5350 C   0  0  0  0  0  0  0  0  0  0  0  0
   -8.2637    2.8168   -9.3387 C   0  0  1  0  0  0  0  0  0  0  0  0
   -8.5291    2.9256  -10.8429 C   0  0  0  0  0  0  0  0  0  0  0  0
   -9.0344    4.3920  -15.9356 C   0  0  0  0  0  0  0  0  0  0  0  0
   -8.9936    4.1448  -17.3370 C   0  0  0  0  0  0  0  0  0  0  0  0
   -7.8806    4.4419  -18.1502 C   0  0  0  0  0  0  0  0  0  0  0  0
   -6.8166    4.9737  -17.4202 C   0  0  0  0  0  0  0  0  0  0  0  0
   -5.5909    5.3629  -17.9110 C   0  0  0  0  0  0  0  0  0  0  0  0
   -5.1725    5.3508  -19.4238 C   0  0  0  0  0  0  0  0  0  0  0  0
   -3.6932    5.2357  -19.8002 C   0  0  0  0  0  0  0  0  0  0  0  0
   -3.6824    6.6145  -20.3017 N   0  0  0  0  0  0  0  0  0  0  0  0
   -5.1339    6.7376  -20.0883 C   0  0  0  0  0  0  0  0  0  0  0  0
  1  2  1  0
  2  3  1  0
  3  4  1  0
  4  5  1  0
  5  6  2  0
  6  7  1  0
  7  8  1  0
  8  9  2  0
  8 10  1  0
 11 10  1  6
 11 12  1  0
 12 13  1  0
 13 14  1  6
 13 15  1  0
 15 16  1  1
 16 17  1  0
 17 18  1  0
 19 18  1  1
 19 20  1  0
  7 21  2  0
 21 22  1  0
 22 23  2  0
 23 24  1  0
 24 25  2  0
 25 26  1  0
 26 27  1  0
 27 28  1  0
 28 29  1  0
 25  4  1  0
 29 26  1  0
 24  6  1  0
 20 11  1  0
 19 15  1  0
M  END
>  <smiles>  (2076) 
C31376-P247

>  <fragmenstein_outcome>  (2076) 
acceptable

>  <inchikey>  (2076) 
PJWNQWAJHCGHIA-UHFFFAOYSA-N

>  <fragmenstein_mode>  (2076) 
expansion

>  <HIPPO Pose ID>  (2076) 
25567

>  <Energy>  (2076) 
138.553569

>  <fragmenstein_error>  (2076) 


>  <tags>  (2076) 
{'openbind_xx01zvns2b_c1_fragmenstein', 'fragmenstein_placed'}

>  <ref_pdb>  (2076) 
175

>  <scratch_subdir>  (2076) 
/opt/xchem-fragalysis-2/maxwin/BulkDock/SCRATCH/511028/C31376-P247

>  <alias>  (2076) 
CNCn1nc2c(C(=O)N[C@H]3C[C@@H]4CNC[C@@H]4[C@H](Br)C3)cccc2c1C1CNC1

>  <HIPPO Compound ID>  (2076) 
41591

>  <fragmenstein_runtime>  (2076) 
8.344736

$$$$
COCc1cc(Cl)cc([C@H](Nc2cc3c(cc2S(C)(=O)=O)CNC3)C(=O)NCC(F)F)c1
     RDKit          3D

 32 34  0  0  0  0  0  0  0  0999 V2000
   -4.1927    6.1365  -19.2832 C   0  0  0  0  0  0  0  0  0  0  0  0
   -4.4186    5.3080  -18.1541 O   0  0  0  0  0  0  0  0  0  0  0  0
   -5.0846    5.9845  -17.0958 C   0  0  0  0  0  0  0  0  0  0  0  0
   -6.3275    5.2304  -16.6994 C   0  0  0  0  0  0  0  0  0  0  0  0
   -7.3952    5.1089  -17.5964 C   0  0  0  0  0  0  0  0  0  0  0  0
   -8.5677    4.4843  -17.1927 C   0  0  0  0  0  0  0  0  0  0  0  0
   -9.8872    4.3133  -18.2801 Cl  0  0  0  0  0  0  0  0  0  0  0  0
   -8.6836    3.9735  -15.9044 C   0  0  0  0  0  0  0  0  0  0  0  0
   -7.5880    3.9628  -15.0196 C   0  0  0  0  0  0  0  0  0  0  0  0
   -7.7412    3.1903  -13.7088 C   0  0  2  0  0  0  0  0  0  0  0  0
   -8.5526    4.0048  -12.7747 N   0  0  0  0  0  0  0  0  0  0  0  0
   -8.3216    4.0283  -11.3990 C   0  0  0  0  0  0  0  0  0  0  0  0
   -8.7064    2.9564  -10.5962 C   0  0  0  0  0  0  0  0  0  0  0  0
   -8.6676    3.0919   -9.2182 C   0  0  0  0  0  0  0  0  0  0  0  0
   -8.2261    4.2596   -8.6157 C   0  0  0  0  0  0  0  0  0  0  0  0
   -7.7703    5.3179   -9.3804 C   0  0  0  0  0  0  0  0  0  0  0  0
   -7.8186    5.1826  -10.7785 C   0  0  0  0  0  0  0  0  0  0  0  0
   -7.2992    6.5180  -11.8114 S   0  0  0  0  0  0  0  0  0  0  0  0
   -8.6755    6.8998  -12.8439 C   0  0  0  0  0  0  0  0  0  0  0  0
   -6.2006    6.0418  -12.6326 O   0  0  0  0  0  0  0  0  0  0  0  0
   -7.0984    7.6734  -10.9505 O   0  0  0  0  0  0  0  0  0  0  0  0
   -8.3966    4.1464   -7.1400 C   0  0  0  0  0  0  0  0  0  0  0  0
   -8.8377    2.7592   -6.8679 N   0  0  0  0  0  0  0  0  0  0  0  0
   -9.1365    2.1308   -8.1821 C   0  0  0  0  0  0  0  0  0  0  0  0
   -6.5266    2.3998  -13.1632 C   0  0  0  0  0  0  0  0  0  0  0  0
   -6.5230    1.2332  -13.2105 O   0  0  0  0  0  0  0  0  0  0  0  0
   -5.4622    3.3816  -12.6346 N   0  0  0  0  0  0  0  0  0  0  0  0
   -4.1311    3.1413  -12.1405 C   0  0  0  0  0  0  0  0  0  0  0  0
   -3.1055    2.9919  -13.2611 C   0  0  0  0  0  0  0  0  0  0  0  0
   -3.2237    1.8164  -13.9186 F   0  0  0  0  0  0  0  0  0  0  0  0
   -3.2655    3.9756  -14.1850 F   0  0  0  0  0  0  0  0  0  0  0  0
   -6.4270    4.6336  -15.4280 C   0  0  0  0  0  0  0  0  0  0  0  0
  1  2  1  0
  2  3  1  0
  3  4  1  0
  4  5  2  0
  5  6  1  0
  6  7  1  0
  6  8  2  0
  8  9  1  0
  9 10  1  0
 10 11  1  1
 11 12  1  0
 12 13  2  0
 13 14  1  0
 14 15  2  0
 15 16  1  0
 16 17  2  0
 17 18  1  0
 18 19  1  0
 18 20  2  0
 18 21  2  0
 15 22  1  0
 22 23  1  0
 23 24  1  0
 10 25  1  0
 25 26  2  0
 25 27  1  0
 27 28  1  0
 28 29  1  0
 29 30  1  0
 29 31  1  0
  9 32  2  0
 32  4  1  0
 17 12  1  0
 24 14  1  0
M  END
>  <smiles>  (2077) 
C31398-P192

>  <fragmenstein_outcome>  (2077) 
acceptable

>  <inchikey>  (2077) 
VOKAPNCBCJGBRO-UHFFFAOYSA-N

>  <fragmenstein_mode>  (2077) 
expansion

>  <HIPPO Pose ID>  (2077) 
25581

>  <Energy>  (2077) 
186.428069

>  <fragmenstein_error>  (2077) 


>  <tags>  (2077) 
{'openbind_xx01zvns2b_c1_fragmenstein', 'fragmenstein_placed'}

>  <ref_pdb>  (2077) 
175

>  <scratch_subdir>  (2077) 
/opt/xchem-fragalysis-2/maxwin/BulkDock/SCRATCH/511028/C31398-P192

>  <alias>  (2077) 
COCc1cc(Cl)cc([C@H](Nc2cc3c(cc2S(C)(=O)=O)CNC3)C(=O)NCC(F)F)c1

>  <HIPPO Compound ID>  (2077) 
31398

>  <fragmenstein_runtime>  (2077) 
6.28921

$$$$
CNc1cc(COC)c(C)c([C@H](Nc2ccc3c(c2)CNC3)C(=O)NCC(F)F)c1
     RDKit          3D

 30 32  0  0  0  0  0  0  0  0999 V2000
  -10.7474    4.6182  -17.8753 C   0  0  0  0  0  0  0  0  0  0  0  0
   -9.6881    3.6505  -17.6164 N   0  0  0  0  0  0  0  0  0  0  0  0
   -8.5860    4.2535  -16.9759 C   0  0  0  0  0  0  0  0  0  0  0  0
   -7.4572    4.5964  -17.7124 C   0  0  0  0  0  0  0  0  0  0  0  0
   -6.3253    5.1251  -17.0844 C   0  0  0  0  0  0  0  0  0  0  0  0
   -5.0842    5.4101  -17.8987 C   0  0  0  0  0  0  0  0  0  0  0  0
   -5.3660    5.7128  -19.2567 O   0  0  0  0  0  0  0  0  0  0  0  0
   -4.1769    5.8401  -20.0145 C   0  0  0  0  0  0  0  0  0  0  0  0
   -6.3235    5.3030  -15.6752 C   0  0  0  0  0  0  0  0  0  0  0  0
   -5.0505    5.7924  -15.0290 C   0  0  0  0  0  0  0  0  0  0  0  0
   -7.5069    5.0692  -14.9247 C   0  0  0  0  0  0  0  0  0  0  0  0
   -7.5865    5.4206  -13.4278 C   0  0  2  0  0  0  0  0  0  0  0  0
   -8.6478    4.6392  -12.7221 N   0  0  0  0  0  0  0  0  0  0  0  0
   -8.4872    4.4413  -11.3243 C   0  0  0  0  0  0  0  0  0  0  0  0
   -8.1562    5.4894  -10.4370 C   0  0  0  0  0  0  0  0  0  0  0  0
   -8.2216    5.3376   -9.0464 C   0  0  0  0  0  0  0  0  0  0  0  0
   -8.6095    4.1162   -8.5442 C   0  0  0  0  0  0  0  0  0  0  0  0
   -8.8693    3.0493   -9.3945 C   0  0  0  0  0  0  0  0  0  0  0  0
   -8.8344    3.1968  -10.7733 C   0  0  0  0  0  0  0  0  0  0  0  0
   -9.1683    1.8452   -8.5661 C   0  0  0  0  0  0  0  0  0  0  0  0
   -9.5405    2.3851   -7.2319 N   0  0  0  0  0  0  0  0  0  0  0  0
   -8.8472    3.6896   -7.1344 C   0  0  0  0  0  0  0  0  0  0  0  0
   -7.7381    6.9923  -13.2600 C   0  0  0  0  0  0  0  0  0  0  0  0
   -6.8419    7.7271  -13.4189 O   0  0  0  0  0  0  0  0  0  0  0  0
   -9.2089    7.2741  -12.8550 N   0  0  0  0  0  0  0  0  0  0  0  0
   -9.8610    8.5161  -12.4665 C   0  0  0  0  0  0  0  0  0  0  0  0
  -11.1895    8.8093  -13.1710 C   0  0  0  0  0  0  0  0  0  0  0  0
  -11.8096    7.6473  -13.4974 F   0  0  0  0  0  0  0  0  0  0  0  0
  -10.9629    9.4916  -14.3219 F   0  0  0  0  0  0  0  0  0  0  0  0
   -8.6256    4.5499  -15.6084 C   0  0  0  0  0  0  0  0  0  0  0  0
  1  2  1  0
  2  3  1  0
  3  4  2  0
  4  5  1  0
  5  6  1  0
  6  7  1  0
  7  8  1  0
  5  9  2  0
  9 10  1  0
  9 11  1  0
 11 12  1  0
 12 13  1  6
 13 14  1  0
 14 15  2  0
 15 16  1  0
 16 17  2  0
 17 18  1  0
 18 19  2  0
 18 20  1  0
 20 21  1  0
 21 22  1  0
 12 23  1  0
 23 24  2  0
 23 25  1  0
 25 26  1  0
 26 27  1  0
 27 28  1  0
 27 29  1  0
 11 30  2  0
 30  3  1  0
 19 14  1  0
 22 17  1  0
M  END
>  <smiles>  (2078) 
C31407-P247

>  <fragmenstein_outcome>  (2078) 
acceptable

>  <inchikey>  (2078) 
DXRMMAJEGGKHIZ-UHFFFAOYSA-N

>  <fragmenstein_mode>  (2078) 
expansion

>  <HIPPO Pose ID>  (2078) 
25584

>  <Energy>  (2078) 
141.561414

>  <fragmenstein_error>  (2078) 


>  <tags>  (2078) 
{'openbind_xx01zvns2b_c1_fragmenstein', 'fragmenstein_placed'}

>  <ref_pdb>  (2078) 
175

>  <scratch_subdir>  (2078) 
/opt/xchem-fragalysis-2/maxwin/BulkDock/SCRATCH/511028/C31407-P247

>  <alias>  (2078) 
CNc1cc(COC)c(C)c([C@H](Nc2ccc3c(c2)CNC3)C(=O)NCC(F)F)c1

>  <HIPPO Compound ID>  (2078) 
19672

>  <fragmenstein_runtime>  (2078) 
6.642038

$$$$
COn1ncc2c([C@@H](Nc3ccc4c(c3)CNC4)C(=O)NCc3ccncc3F)cc(Cl)cc21
     RDKit          3D

 34 38  0  0  0  0  0  0  0  0999 V2000
   -3.7852    5.2467  -19.5317 C   0  0  0  0  0  0  0  0  0  0  0  0
   -5.1274    5.5828  -19.2298 O   0  0  0  0  0  0  0  0  0  0  0  0
   -5.3569    5.4351  -17.8634 N   0  0  0  0  0  0  0  0  0  0  0  0
   -4.4428    5.8607  -16.9816 N   0  0  0  0  0  0  0  0  0  0  0  0
   -5.0815    5.7543  -15.8161 C   0  0  0  0  0  0  0  0  0  0  0  0
   -6.4204    5.2916  -15.9357 C   0  0  0  0  0  0  0  0  0  0  0  0
   -7.5276    5.0695  -15.0671 C   0  0  0  0  0  0  0  0  0  0  0  0
   -7.5884    5.3678  -13.5622 C   0  0  1  0  0  0  0  0  0  0  0  0
   -8.0391    4.1694  -12.8164 N   0  0  0  0  0  0  0  0  0  0  0  0
   -8.3813    4.2317  -11.4568 C   0  0  0  0  0  0  0  0  0  0  0  0
   -8.2727    5.3978  -10.6694 C   0  0  0  0  0  0  0  0  0  0  0  0
   -8.4450    5.3735   -9.2779 C   0  0  0  0  0  0  0  0  0  0  0  0
   -8.7253    4.1660   -8.6720 C   0  0  0  0  0  0  0  0  0  0  0  0
   -8.8551    3.0107   -9.4259 C   0  0  0  0  0  0  0  0  0  0  0  0
   -8.6846    3.0260  -10.8038 C   0  0  0  0  0  0  0  0  0  0  0  0
   -9.1027    1.8539   -8.5188 C   0  0  0  0  0  0  0  0  0  0  0  0
   -9.3282    2.4310   -7.1680 N   0  0  0  0  0  0  0  0  0  0  0  0
   -8.8832    3.8389   -7.2271 C   0  0  0  0  0  0  0  0  0  0  0  0
   -6.2097    5.8716  -13.0047 C   0  0  0  0  0  0  0  0  0  0  0  0
   -5.9067    6.9980  -12.9331 O   0  0  0  0  0  0  0  0  0  0  0  0
   -5.4055    4.5918  -12.6628 N   0  0  0  0  0  0  0  0  0  0  0  0
   -4.1029    4.4371  -12.0752 C   0  0  0  0  0  0  0  0  0  0  0  0
   -4.0588    3.1167  -11.3721 C   0  0  0  0  0  0  0  0  0  0  0  0
   -3.2778    2.0470  -11.8123 C   0  0  0  0  0  0  0  0  0  0  0  0
   -3.4550    0.8084  -11.2053 C   0  0  0  0  0  0  0  0  0  0  0  0
   -4.3762    0.5577  -10.2481 N   0  0  0  0  0  0  0  0  0  0  0  0
   -5.1294    1.6084   -9.8649 C   0  0  0  0  0  0  0  0  0  0  0  0
   -4.9502    2.8916  -10.3279 C   0  0  0  0  0  0  0  0  0  0  0  0
   -5.6638    3.9006   -9.8174 F   0  0  0  0  0  0  0  0  0  0  0  0
   -8.7219    4.6380  -15.6903 C   0  0  0  0  0  0  0  0  0  0  0  0
   -8.8175    4.4564  -17.0668 C   0  0  0  0  0  0  0  0  0  0  0  0
  -10.3408    4.1272  -17.7511 Cl  0  0  0  0  0  0  0  0  0  0  0  0
   -7.7394    4.6609  -17.9112 C   0  0  0  0  0  0  0  0  0  0  0  0
   -6.5579    5.0862  -17.3099 C   0  0  0  0  0  0  0  0  0  0  0  0
  1  2  1  0
  2  3  1  0
  3  4  1  0
  4  5  2  0
  5  6  1  0
  6  7  2  0
  7  8  1  0
  8  9  1  1
  9 10  1  0
 10 11  2  0
 11 12  1  0
 12 13  2  0
 13 14  1  0
 14 15  2  0
 14 16  1  0
 16 17  1  0
 17 18  1  0
  8 19  1  0
 19 20  2  0
 19 21  1  0
 21 22  1  0
 22 23  1  0
 23 24  2  0
 24 25  1  0
 25 26  2  0
 26 27  1  0
 27 28  2  0
 28 29  1  0
  7 30  1  0
 30 31  2  0
 31 32  1  0
 31 33  1  0
 33 34  2  0
 34  3  1  0
 34  6  1  0
 15 10  1  0
 28 23  1  0
 18 13  1  0
M  END
>  <smiles>  (2079) 
C31497-P247

>  <fragmenstein_outcome>  (2079) 
acceptable

>  <inchikey>  (2079) 
QAOMMKKFPGKXSO-UHFFFAOYSA-N

>  <fragmenstein_mode>  (2079) 
expansion

>  <HIPPO Pose ID>  (2079) 
25616

>  <Energy>  (2079) 
103.160515

>  <fragmenstein_error>  (2079) 


>  <tags>  (2079) 
{'openbind_xx01zvns2b_c1_fragmenstein', 'fragmenstein_placed'}

>  <ref_pdb>  (2079) 
175

>  <scratch_subdir>  (2079) 
/opt/xchem-fragalysis-2/maxwin/BulkDock/SCRATCH/511028/C31497-P247

>  <alias>  (2079) 
COn1ncc2c([C@@H](Nc3ccc4c(c3)CNC4)C(=O)NCc3ccncc3F)cc(Cl)cc21

>  <HIPPO Compound ID>  (2079) 
39561

>  <fragmenstein_runtime>  (2079) 
6.252796

$$$$
COn1ncc2c([C@@H](Nc3ccc4c(c3)CNC4)C(=O)NCC(F)F)cc(Cl)cc21
     RDKit          3D

 30 33  0  0  0  0  0  0  0  0999 V2000
   -4.6068    6.2913  -20.0538 C   0  0  0  0  0  0  0  0  0  0  0  0
   -4.9026    5.0543  -19.4334 O   0  0  0  0  0  0  0  0  0  0  0  0
   -5.2505    5.2900  -18.1043 N   0  0  0  0  0  0  0  0  0  0  0  0
   -4.2901    5.6452  -17.2401 N   0  0  0  0  0  0  0  0  0  0  0  0
   -4.8927    5.5193  -16.0556 C   0  0  0  0  0  0  0  0  0  0  0  0
   -6.2569    5.1426  -16.1568 C   0  0  0  0  0  0  0  0  0  0  0  0
   -7.3018    4.8417  -15.2417 C   0  0  0  0  0  0  0  0  0  0  0  0
   -7.1189    4.8220  -13.7111 C   0  0  1  0  0  0  0  0  0  0  0  0
   -8.3549    4.3130  -13.0709 N   0  0  0  0  0  0  0  0  0  0  0  0
   -8.4498    4.3664  -11.6744 C   0  0  0  0  0  0  0  0  0  0  0  0
   -8.3436    5.5815  -10.9717 C   0  0  0  0  0  0  0  0  0  0  0  0
   -8.3823    5.6119   -9.5731 C   0  0  0  0  0  0  0  0  0  0  0  0
   -8.5622    4.4192   -8.8935 C   0  0  0  0  0  0  0  0  0  0  0  0
   -8.7169    3.2248   -9.5788 C   0  0  0  0  0  0  0  0  0  0  0  0
   -8.6581    3.1793  -10.9596 C   0  0  0  0  0  0  0  0  0  0  0  0
   -8.9801    2.1151   -8.6189 C   0  0  0  0  0  0  0  0  0  0  0  0
   -8.8830    2.7118   -7.2593 N   0  0  0  0  0  0  0  0  0  0  0  0
   -8.6833    4.1657   -7.4294 C   0  0  0  0  0  0  0  0  0  0  0  0
   -5.8632    3.9422  -13.2757 C   0  0  0  0  0  0  0  0  0  0  0  0
   -5.4177    3.1124  -13.9653 O   0  0  0  0  0  0  0  0  0  0  0  0
   -5.4183    4.4266  -11.8683 N   0  0  0  0  0  0  0  0  0  0  0  0
   -4.2745    4.0518  -11.0636 C   0  0  0  0  0  0  0  0  0  0  0  0
   -3.1441    5.0720  -11.1000 C   0  0  0  0  0  0  0  0  0  0  0  0
   -2.6410    5.1833  -12.3555 F   0  0  0  0  0  0  0  0  0  0  0  0
   -2.1247    4.6685  -10.3016 F   0  0  0  0  0  0  0  0  0  0  0  0
   -8.5593    4.5585  -15.8265 C   0  0  0  0  0  0  0  0  0  0  0  0
   -8.7390    4.4778  -17.2037 C   0  0  0  0  0  0  0  0  0  0  0  0
  -10.3120    4.2030  -17.8062 Cl  0  0  0  0  0  0  0  0  0  0  0  0
   -7.6919    4.6750  -18.0911 C   0  0  0  0  0  0  0  0  0  0  0  0
   -6.4666    5.0337  -17.5328 C   0  0  0  0  0  0  0  0  0  0  0  0
  1  2  1  0
  2  3  1  0
  3  4  1  0
  4  5  2  0
  5  6  1  0
  6  7  2  0
  7  8  1  0
  8  9  1  1
  9 10  1  0
 10 11  2  0
 11 12  1  0
 12 13  2  0
 13 14  1  0
 14 15  2  0
 14 16  1  0
 16 17  1  0
 17 18  1  0
  8 19  1  0
 19 20  2  0
 19 21  1  0
 21 22  1  0
 22 23  1  0
 23 24  1  0
 23 25  1  0
  7 26  1  0
 26 27  2  0
 27 28  1  0
 27 29  1  0
 29 30  2  0
 30  3  1  0
 30  6  1  0
 15 10  1  0
 18 13  1  0
M  END
>  <smiles>  (2080) 
C31507-P247

>  <fragmenstein_outcome>  (2080) 
acceptable

>  <inchikey>  (2080) 
HBKVBQZJXHZHTG-UHFFFAOYSA-N

>  <fragmenstein_mode>  (2080) 
expansion

>  <HIPPO Pose ID>  (2080) 
25619

>  <Energy>  (2080) 
120.224544

>  <fragmenstein_error>  (2080) 


>  <tags>  (2080) 
{'openbind_xx01zvns2b_c1_fragmenstein', 'fragmenstein_placed'}

>  <ref_pdb>  (2080) 
175

>  <scratch_subdir>  (2080) 
/opt/xchem-fragalysis-2/maxwin/BulkDock/SCRATCH/511028/C31507-P247

>  <alias>  (2080) 
COn1ncc2c([C@@H](Nc3ccc4c(c3)CNC4)C(=O)NCC(F)F)cc(Cl)cc21

>  <HIPPO Compound ID>  (2080) 
31507

>  <fragmenstein_runtime>  (2080) 
11.299359

$$$$
CNn1ccc(C[C@@H](Cl)CC[C@H](C(=O)NCC(F)F)C(=O)c2ccc3c(c2)CNC3)c1
     RDKit          3D

 31 33  0  0  0  0  0  0  0  0999 V2000
   -3.4904    6.5620  -20.3276 C   0  0  0  0  0  0  0  0  0  0  0  0
   -3.2661    5.5152  -19.3318 N   0  0  0  0  0  0  0  0  0  0  0  0
   -4.3824    5.4384  -18.4600 N   0  0  0  0  0  0  0  0  0  0  0  0
   -4.4565    5.9322  -17.1906 C   0  0  0  0  0  0  0  0  0  0  0  0
   -5.7536    5.7526  -16.7500 C   0  0  0  0  0  0  0  0  0  0  0  0
   -6.4570    5.0400  -17.7505 C   0  0  0  0  0  0  0  0  0  0  0  0
   -7.8609    4.5769  -17.8619 C   0  0  0  0  0  0  0  0  0  0  0  0
   -8.8361    4.7386  -16.7183 C   0  0  1  0  0  0  0  0  0  0  0  0
  -10.4430    4.4765  -17.5343 Cl  0  0  0  0  0  0  0  0  0  0  0  0
   -8.8284    3.8215  -15.5220 C   0  0  0  0  0  0  0  0  0  0  0  0
   -7.5977    3.7503  -14.6155 C   0  0  0  0  0  0  0  0  0  0  0  0
   -7.3717    4.8904  -13.6238 C   0  0  2  0  0  0  0  0  0  0  0  0
   -5.9968    4.8375  -12.9270 C   0  0  0  0  0  0  0  0  0  0  0  0
   -5.2746    5.7540  -12.9868 O   0  0  0  0  0  0  0  0  0  0  0  0
   -5.8234    3.4666  -12.2247 N   0  0  0  0  0  0  0  0  0  0  0  0
   -4.6837    2.9030  -11.5292 C   0  0  0  0  0  0  0  0  0  0  0  0
   -3.9448    3.8712  -10.6091 C   0  0  0  0  0  0  0  0  0  0  0  0
   -2.8093    3.2727  -10.1531 F   0  0  0  0  0  0  0  0  0  0  0  0
   -4.6910    4.1489   -9.5102 F   0  0  0  0  0  0  0  0  0  0  0  0
   -8.5550    5.1411  -12.7282 C   0  0  0  0  0  0  0  0  0  0  0  0
   -9.5424    5.7357  -13.1661 O   0  0  0  0  0  0  0  0  0  0  0  0
   -8.5162    4.7772  -11.2996 C   0  0  0  0  0  0  0  0  0  0  0  0
   -8.3014    5.8260  -10.3881 C   0  0  0  0  0  0  0  0  0  0  0  0
   -8.3285    5.5799   -9.0170 C   0  0  0  0  0  0  0  0  0  0  0  0
   -8.5822    4.2877   -8.5911 C   0  0  0  0  0  0  0  0  0  0  0  0
   -8.7797    3.2469   -9.4950 C   0  0  0  0  0  0  0  0  0  0  0  0
   -8.7579    3.4691  -10.8643 C   0  0  0  0  0  0  0  0  0  0  0  0
   -9.0032    1.9797   -8.7379 C   0  0  0  0  0  0  0  0  0  0  0  0
   -9.1481    2.3682   -7.3115 N   0  0  0  0  0  0  0  0  0  0  0  0
   -8.7228    3.7770   -7.1978 C   0  0  0  0  0  0  0  0  0  0  0  0
   -5.5675    4.8809  -18.7966 C   0  0  0  0  0  0  0  0  0  0  0  0
  1  2  1  0
  2  3  1  0
  3  4  1  0
  4  5  2  0
  5  6  1  0
  6  7  1  0
  7  8  1  0
  8  9  1  6
  8 10  1  0
 10 11  1  0
 12 11  1  1
 12 13  1  0
 13 14  2  0
 13 15  1  0
 15 16  1  0
 16 17  1  0
 17 18  1  0
 17 19  1  0
 12 20  1  0
 20 21  2  0
 20 22  1  0
 22 23  2  0
 23 24  1  0
 24 25  2  0
 25 26  1  0
 26 27  2  0
 26 28  1  0
 28 29  1  0
 29 30  1  0
  6 31  2  0
 31  3  1  0
 27 22  1  0
 30 25  1  0
M  END
>  <smiles>  (2081) 
C31517-P247

>  <fragmenstein_outcome>  (2081) 
acceptable

>  <inchikey>  (2081) 
BGVDKKKGJBVVBW-UHFFFAOYSA-N

>  <fragmenstein_mode>  (2081) 
expansion

>  <HIPPO Pose ID>  (2081) 
25623

>  <Energy>  (2081) 
74.478321

>  <fragmenstein_error>  (2081) 


>  <tags>  (2081) 
{'openbind_xx01zvns2b_c1_fragmenstein', 'fragmenstein_placed'}

>  <ref_pdb>  (2081) 
175

>  <scratch_subdir>  (2081) 
/opt/xchem-fragalysis-2/maxwin/BulkDock/SCRATCH/511028/C31517-P247

>  <alias>  (2081) 
CNn1ccc(C[C@@H](Cl)CC[C@H](C(=O)NCC(F)F)C(=O)c2ccc3c(c2)CNC3)c1

>  <HIPPO Compound ID>  (2081) 
27098

>  <fragmenstein_runtime>  (2081) 
7.327779

$$$$
CCOCc1cc(Cl)cc([C@@H](Nc2ccc3c(c2)CNC3)C(=O)NCC(F)F)c1
     RDKit          3D

 29 31  0  0  0  0  0  0  0  0999 V2000
   -5.4547    7.8240  -15.1817 C   0  0  0  0  0  0  0  0  0  0  0  0
   -4.3554    7.2617  -16.0682 C   0  0  0  0  0  0  0  0  0  0  0  0
   -4.8470    7.0114  -17.3853 O   0  0  0  0  0  0  0  0  0  0  0  0
   -4.9661    5.6275  -17.7516 C   0  0  0  0  0  0  0  0  0  0  0  0
   -6.1914    5.0214  -17.1372 C   0  0  0  0  0  0  0  0  0  0  0  0
   -7.3805    4.8727  -17.8458 C   0  0  0  0  0  0  0  0  0  0  0  0
   -8.5369    4.5410  -17.1513 C   0  0  0  0  0  0  0  0  0  0  0  0
  -10.0117    4.3449  -18.0038 Cl  0  0  0  0  0  0  0  0  0  0  0  0
   -8.5305    4.4397  -15.7554 C   0  0  0  0  0  0  0  0  0  0  0  0
   -7.3397    4.5329  -15.0283 C   0  0  0  0  0  0  0  0  0  0  0  0
   -7.2862    4.6933  -13.5108 C   0  0  1  0  0  0  0  0  0  0  0  0
   -8.4721    4.1465  -12.8206 N   0  0  0  0  0  0  0  0  0  0  0  0
   -8.4846    4.2605  -11.4190 C   0  0  0  0  0  0  0  0  0  0  0  0
   -8.1055    5.4514  -10.7610 C   0  0  0  0  0  0  0  0  0  0  0  0
   -8.0379    5.5320   -9.3662 C   0  0  0  0  0  0  0  0  0  0  0  0
   -8.3411    4.4026   -8.6346 C   0  0  0  0  0  0  0  0  0  0  0  0
   -8.7325    3.2291   -9.2633 C   0  0  0  0  0  0  0  0  0  0  0  0
   -8.8358    3.1503  -10.6425 C   0  0  0  0  0  0  0  0  0  0  0  0
   -9.0029    2.1864   -8.2351 C   0  0  0  0  0  0  0  0  0  0  0  0
   -8.5124    2.7465   -6.9495 N   0  0  0  0  0  0  0  0  0  0  0  0
   -8.3638    4.2035   -7.1593 C   0  0  0  0  0  0  0  0  0  0  0  0
   -5.9114    4.2201  -12.8730 C   0  0  0  0  0  0  0  0  0  0  0  0
   -4.9937    4.9428  -12.8000 O   0  0  0  0  0  0  0  0  0  0  0  0
   -6.0622    2.7399  -12.4343 N   0  0  0  0  0  0  0  0  0  0  0  0
   -5.1449    1.8705  -11.7277 C   0  0  0  0  0  0  0  0  0  0  0  0
   -3.6873    1.9939  -12.1659 C   0  0  0  0  0  0  0  0  0  0  0  0
   -2.9038    1.1447  -11.4444 F   0  0  0  0  0  0  0  0  0  0  0  0
   -3.5364    1.6428  -13.4708 F   0  0  0  0  0  0  0  0  0  0  0  0
   -6.1702    4.7334  -15.7653 C   0  0  0  0  0  0  0  0  0  0  0  0
  1  2  1  0
  2  3  1  0
  3  4  1  0
  4  5  1  0
  5  6  2  0
  6  7  1  0
  7  8  1  0
  7  9  2  0
  9 10  1  0
 10 11  1  0
 11 12  1  1
 12 13  1  0
 13 14  2  0
 14 15  1  0
 15 16  2  0
 16 17  1  0
 17 18  2  0
 17 19  1  0
 19 20  1  0
 20 21  1  0
 11 22  1  0
 22 23  2  0
 22 24  1  0
 24 25  1  0
 25 26  1  0
 26 27  1  0
 26 28  1  0
 10 29  2  0
 29  5  1  0
 18 13  1  0
 21 16  1  0
M  END
>  <smiles>  (2082) 
C31539-P5

>  <fragmenstein_outcome>  (2082) 
acceptable

>  <inchikey>  (2082) 
JSOLIBCQTJNIDU-UHFFFAOYSA-N

>  <fragmenstein_mode>  (2082) 
expansion

>  <HIPPO Pose ID>  (2082) 
25650

>  <Energy>  (2082) 
145.416551

>  <fragmenstein_error>  (2082) 


>  <tags>  (2082) 
{'openbind_xx01zvns2b_c1_fragmenstein', 'fragmenstein_placed'}

>  <ref_pdb>  (2082) 
175

>  <scratch_subdir>  (2082) 
/opt/xchem-fragalysis-2/maxwin/BulkDock/SCRATCH/511028/C31539-P5

>  <alias>  (2082) 
CCOCc1cc(Cl)cc([C@@H](Nc2ccc3c(c2)CNC3)C(=O)NCC(F)F)c1

>  <HIPPO Compound ID>  (2082) 
31539

>  <fragmenstein_runtime>  (2082) 
6.378894

$$$$
C[C@H](Cl)CC[C@H](C(=O)N[C@H](CO)C(O)(F)F)C(=O)c1ccc2c(c1)CNC2
     RDKit          3D

 27 28  0  0  0  0  0  0  0  0999 V2000
   -3.8702    2.1768  -11.8619 C   0  0  0  0  0  0  0  0  0  0  0  0
   -4.4961    2.1261  -13.2491 C   0  0  2  0  0  0  0  0  0  0  0  0
   -3.5888    3.2075  -14.3528 Cl  0  0  0  0  0  0  0  0  0  0  0  0
   -5.9858    2.4736  -13.2484 C   0  0  0  0  0  0  0  0  0  0  0  0
   -6.3098    3.9191  -12.8761 C   0  0  0  0  0  0  0  0  0  0  0  0
   -7.7783    4.2395  -13.1927 C   0  0  2  0  0  0  0  0  0  0  0  0
   -8.2113    4.7793  -14.5807 C   0  0  0  0  0  0  0  0  0  0  0  0
   -9.3115    5.1581  -14.6955 O   0  0  0  0  0  0  0  0  0  0  0  0
   -7.0456    4.7626  -15.5983 N   0  0  0  0  0  0  0  0  0  0  0  0
   -6.9615    5.3019  -16.9553 C   0  0  2  0  0  0  0  0  0  0  0  0
   -7.8437    4.5509  -17.9578 C   0  0  0  0  0  0  0  0  0  0  0  0
   -9.0619    4.0508  -17.4017 O   0  0  0  0  0  0  0  0  0  0  0  0
   -5.5465    5.5148  -17.5116 C   0  0  0  0  0  0  0  0  0  0  0  0
   -4.7024    6.1753  -16.5910 O   0  0  0  0  0  0  0  0  0  0  0  0
   -4.9139    4.3681  -17.8136 F   0  0  0  0  0  0  0  0  0  0  0  0
   -5.5566    6.2861  -18.6188 F   0  0  0  0  0  0  0  0  0  0  0  0
   -8.2092    5.2498  -12.1458 C   0  0  0  0  0  0  0  0  0  0  0  0
   -8.2741    6.4578  -12.3826 O   0  0  0  0  0  0  0  0  0  0  0  0
   -8.4092    4.8067  -10.7429 C   0  0  0  0  0  0  0  0  0  0  0  0
   -8.2136    5.7873   -9.7467 C   0  0  0  0  0  0  0  0  0  0  0  0
   -8.3526    5.4747   -8.3986 C   0  0  0  0  0  0  0  0  0  0  0  0
   -8.7029    4.1803   -8.0717 C   0  0  0  0  0  0  0  0  0  0  0  0
   -8.8840    3.2064   -9.0487 C   0  0  0  0  0  0  0  0  0  0  0  0
   -8.7384    3.4928  -10.3945 C   0  0  0  0  0  0  0  0  0  0  0  0
   -9.2200    1.9102   -8.3960 C   0  0  0  0  0  0  0  0  0  0  0  0
   -9.4723    2.2267   -6.9669 N   0  0  0  0  0  0  0  0  0  0  0  0
   -8.9695    3.5942   -6.7289 C   0  0  0  0  0  0  0  0  0  0  0  0
  2  1  1  1
  2  3  1  0
  2  4  1  0
  4  5  1  0
  6  5  1  6
  6  7  1  0
  7  8  2  0
  7  9  1  0
  9 10  1  0
 10 11  1  6
 11 12  1  0
 10 13  1  0
 13 14  1  0
 13 15  1  0
 13 16  1  0
  6 17  1  0
 17 18  2  0
 17 19  1  0
 19 20  2  0
 20 21  1  0
 21 22  2  0
 22 23  1  0
 23 24  2  0
 23 25  1  0
 25 26  1  0
 26 27  1  0
 24 19  1  0
 27 22  1  0
M  END
>  <smiles>  (2083) 
C31546-P248

>  <fragmenstein_outcome>  (2083) 
acceptable

>  <inchikey>  (2083) 
ZGSNXIHTAFRQAZ-UHFFFAOYSA-N

>  <fragmenstein_mode>  (2083) 
expansion

>  <HIPPO Pose ID>  (2083) 
25655

>  <Energy>  (2083) 
84.169135

>  <fragmenstein_error>  (2083) 


>  <tags>  (2083) 
{'openbind_xx01zvns2b_c1_fragmenstein', 'fragmenstein_placed'}

>  <ref_pdb>  (2083) 
175

>  <scratch_subdir>  (2083) 
/opt/xchem-fragalysis-2/maxwin/BulkDock/SCRATCH/511028/C31546-P248

>  <alias>  (2083) 
C[C@H](Cl)CC[C@H](C(=O)N[C@H](CO)C(O)(F)F)C(=O)c1ccc2c(c1)CNC2

>  <HIPPO Compound ID>  (2083) 
18561

>  <fragmenstein_runtime>  (2083) 
17.695897

$$$$
CC1(C)Cc2cc(Cl)cc([C@@H](Nc3ccc4c(c3)CNC4)C(=O)NCC(F)F)c2O1
     RDKit          3D

 30 33  0  0  0  0  0  0  0  0999 V2000
   -3.3596    6.7654  -16.9820 C   0  0  0  0  0  0  0  0  0  0  0  0
   -4.2452    5.5409  -16.8144 C   0  0  0  0  0  0  0  0  0  0  0  0
   -3.3547    4.3380  -16.5083 C   0  0  0  0  0  0  0  0  0  0  0  0
   -5.1218    5.3510  -18.0634 C   0  0  0  0  0  0  0  0  0  0  0  0
   -6.4004    4.9994  -17.4123 C   0  0  0  0  0  0  0  0  0  0  0  0
   -7.5687    4.5978  -18.0206 C   0  0  0  0  0  0  0  0  0  0  0  0
   -8.6708    4.3875  -17.2083 C   0  0  0  0  0  0  0  0  0  0  0  0
  -10.1780    4.0332  -17.9428 Cl  0  0  0  0  0  0  0  0  0  0  0  0
   -8.5816    4.5305  -15.8121 C   0  0  0  0  0  0  0  0  0  0  0  0
   -7.3798    4.9147  -15.1781 C   0  0  0  0  0  0  0  0  0  0  0  0
   -7.3000    5.1257  -13.6672 C   0  0  1  0  0  0  0  0  0  0  0  0
   -8.3729    4.3595  -12.9640 N   0  0  0  0  0  0  0  0  0  0  0  0
   -8.4216    4.3565  -11.5629 C   0  0  0  0  0  0  0  0  0  0  0  0
   -8.1045    5.4913  -10.7885 C   0  0  0  0  0  0  0  0  0  0  0  0
   -8.1694    5.4685   -9.3889 C   0  0  0  0  0  0  0  0  0  0  0  0
   -8.5640    4.2986   -8.7712 C   0  0  0  0  0  0  0  0  0  0  0  0
   -8.8686    3.1675   -9.5165 C   0  0  0  0  0  0  0  0  0  0  0  0
   -8.8200    3.1843  -10.9009 C   0  0  0  0  0  0  0  0  0  0  0  0
   -9.1903    2.0440   -8.5880 C   0  0  0  0  0  0  0  0  0  0  0  0
   -9.4489    2.6900   -7.2753 N   0  0  0  0  0  0  0  0  0  0  0  0
   -8.7410    3.9891   -7.3226 C   0  0  0  0  0  0  0  0  0  0  0  0
   -5.8731    4.8234  -13.0454 C   0  0  0  0  0  0  0  0  0  0  0  0
   -5.0957    5.6746  -12.8394 O   0  0  0  0  0  0  0  0  0  0  0  0
   -5.7915    3.2931  -12.7656 N   0  0  0  0  0  0  0  0  0  0  0  0
   -4.7747    2.5136  -12.0878 C   0  0  0  0  0  0  0  0  0  0  0  0
   -4.8151    2.6303  -10.5613 C   0  0  0  0  0  0  0  0  0  0  0  0
   -4.4853    3.8927  -10.1783 F   0  0  0  0  0  0  0  0  0  0  0  0
   -3.8635    1.8219  -10.0216 F   0  0  0  0  0  0  0  0  0  0  0  0
   -6.3215    5.1922  -16.0373 C   0  0  0  0  0  0  0  0  0  0  0  0
   -5.1138    5.7270  -15.6649 O   0  0  0  0  0  0  0  0  0  0  0  0
  1  2  1  0
  2  3  1  0
  2  4  1  0
  4  5  1  0
  5  6  2  0
  6  7  1  0
  7  8  1  0
  7  9  2  0
  9 10  1  0
 10 11  1  0
 11 12  1  1
 12 13  1  0
 13 14  2  0
 14 15  1  0
 15 16  2  0
 16 17  1  0
 17 18  2  0
 17 19  1  0
 19 20  1  0
 20 21  1  0
 11 22  1  0
 22 23  2  0
 22 24  1  0
 24 25  1  0
 25 26  1  0
 26 27  1  0
 26 28  1  0
 10 29  2  0
 29 30  1  0
 30  2  1  0
 29  5  1  0
 18 13  1  0
 21 16  1  0
M  END
>  <smiles>  (2084) 
C24102-P248

>  <fragmenstein_outcome>  (2084) 
acceptable

>  <inchikey>  (2084) 
BCJYZXLCRBSLMH-UHFFFAOYSA-N

>  <fragmenstein_mode>  (2084) 
expansion

>  <HIPPO Pose ID>  (2084) 
25659

>  <Energy>  (2084) 
140.049361

>  <fragmenstein_error>  (2084) 


>  <tags>  (2084) 
{'openbind_xx01zvns2b_c1_fragmenstein', 'fragmenstein_placed'}

>  <ref_pdb>  (2084) 
175

>  <scratch_subdir>  (2084) 
/opt/xchem-fragalysis-2/maxwin/BulkDock/SCRATCH/511028/C24102-P248

>  <alias>  (2084) 
CC1(C)Cc2cc(Cl)cc([C@@H](Nc3ccc4c(c3)CNC4)C(=O)NCC(F)F)c2O1

>  <HIPPO Compound ID>  (2084) 
40303

>  <fragmenstein_runtime>  (2084) 
8.627383

$$$$
C[C@H]1N(CCO)C[C@@]1(O)n1ncc2c(C(=O)Nc3ccc4c(c3)CNC4)cc(F)cc21
     RDKit          3D

 31 35  0  0  0  0  0  0  0  0999 V2000
   -5.8467    7.6065  -19.2504 C   0  0  0  0  0  0  0  0  0  0  0  0
   -4.8022    6.5531  -19.5925 C   0  0  1  0  0  0  0  0  0  0  0  0
   -3.5148    7.2517  -19.8710 N   0  0  0  0  0  0  0  0  0  0  0  0
   -2.8039    6.6118  -20.9954 C   0  0  0  0  0  0  0  0  0  0  0  0
   -3.3099    7.2005  -22.3212 C   0  0  0  0  0  0  0  0  0  0  0  0
   -3.1265    8.6171  -22.3202 O   0  0  0  0  0  0  0  0  0  0  0  0
   -2.9877    6.8044  -18.5664 C   0  0  0  0  0  0  0  0  0  0  0  0
   -4.1107    5.7144  -18.4662 C   0  0  2  0  0  0  0  0  0  0  0  0
   -3.6260    4.3844  -18.8202 O   0  0  0  0  0  0  0  0  0  0  0  0
   -4.8233    5.7848  -17.1464 N   0  0  0  0  0  0  0  0  0  0  0  0
   -4.1308    6.1456  -16.0437 N   0  0  0  0  0  0  0  0  0  0  0  0
   -5.0245    6.0603  -15.0624 C   0  0  0  0  0  0  0  0  0  0  0  0
   -6.2488    5.5060  -15.4880 C   0  0  0  0  0  0  0  0  0  0  0  0
   -7.4677    5.1714  -14.8603 C   0  0  0  0  0  0  0  0  0  0  0  0
   -7.6514    5.5641  -13.4436 C   0  0  0  0  0  0  0  0  0  0  0  0
   -7.3368    6.6485  -13.1452 O   0  0  0  0  0  0  0  0  0  0  0  0
   -8.1770    4.3994  -12.5756 N   0  0  0  0  0  0  0  0  0  0  0  0
   -8.3305    4.2974  -11.1929 C   0  0  0  0  0  0  0  0  0  0  0  0
   -8.1059    5.4060  -10.3575 C   0  0  0  0  0  0  0  0  0  0  0  0
   -8.2523    5.3049   -8.9698 C   0  0  0  0  0  0  0  0  0  0  0  0
   -8.6296    4.0860   -8.4413 C   0  0  0  0  0  0  0  0  0  0  0  0
   -8.8426    2.9868   -9.2646 C   0  0  0  0  0  0  0  0  0  0  0  0
   -8.6968    3.0695  -10.6409 C   0  0  0  0  0  0  0  0  0  0  0  0
   -9.1844    1.8048   -8.4249 C   0  0  0  0  0  0  0  0  0  0  0  0
   -9.4158    2.3294   -7.0586 N   0  0  0  0  0  0  0  0  0  0  0  0
   -8.8741    3.6999   -7.0218 C   0  0  0  0  0  0  0  0  0  0  0  0
   -8.4797    4.5641  -15.6044 C   0  0  0  0  0  0  0  0  0  0  0  0
   -8.2803    4.3229  -16.9585 C   0  0  0  0  0  0  0  0  0  0  0  0
   -9.2724    3.7509  -17.6560 F   0  0  0  0  0  0  0  0  0  0  0  0
   -7.0926    4.6712  -17.6198 C   0  0  0  0  0  0  0  0  0  0  0  0
   -6.0789    5.2739  -16.8556 C   0  0  0  0  0  0  0  0  0  0  0  0
  2  1  1  1
  2  3  1  0
  3  4  1  0
  4  5  1  0
  5  6  1  0
  3  7  1  0
  7  8  1  0
  8  9  1  6
  8 10  1  0
 10 11  1  0
 11 12  2  0
 12 13  1  0
 13 14  2  0
 14 15  1  0
 15 16  2  0
 15 17  1  0
 17 18  1  0
 18 19  2  0
 19 20  1  0
 20 21  2  0
 21 22  1  0
 22 23  2  0
 22 24  1  0
 24 25  1  0
 25 26  1  0
 14 27  1  0
 27 28  2  0
 28 29  1  0
 28 30  1  0
 30 31  2  0
  8  2  1  0
 31 10  1  0
 31 13  1  0
 23 18  1  0
 26 21  1  0
M  END
>  <smiles>  (2085) 
C31653-P248

>  <fragmenstein_outcome>  (2085) 
acceptable

>  <inchikey>  (2085) 
MZAAZIZEOWSIJE-UHFFFAOYSA-N

>  <fragmenstein_mode>  (2085) 
expansion

>  <HIPPO Pose ID>  (2085) 
25730

>  <Energy>  (2085) 
127.619325

>  <fragmenstein_error>  (2085) 


>  <tags>  (2085) 
{'openbind_xx01zvns2b_c1_fragmenstein', 'fragmenstein_placed'}

>  <ref_pdb>  (2085) 
175

>  <scratch_subdir>  (2085) 
/opt/xchem-fragalysis-2/maxwin/BulkDock/SCRATCH/511028/C31653-P248

>  <alias>  (2085) 
C[C@H]1N(CCO)C[C@@]1(O)n1ncc2c(C(=O)Nc3ccc4c(c3)CNC4)cc(F)cc21

>  <HIPPO Compound ID>  (2085) 
31653

>  <fragmenstein_runtime>  (2085) 
7.353672

$$$$
CS(=O)(=O)c1cc2c(cc1NC(=O)c1cc(F)cc3c1cnn3C1CNC1)CNC2
     RDKit          3D

 30 34  0  0  0  0  0  0  0  0999 V2000
   -8.6289    8.5090  -10.6243 C   0  0  0  0  0  0  0  0  0  0  0  0
   -7.4799    7.3532  -11.3183 S   0  0  0  0  0  0  0  0  0  0  0  0
   -6.1608    7.6849  -10.8158 O   0  0  0  0  0  0  0  0  0  0  0  0
   -7.7443    7.3181  -12.7503 O   0  0  0  0  0  0  0  0  0  0  0  0
   -7.9140    5.7675  -10.6448 C   0  0  0  0  0  0  0  0  0  0  0  0
   -8.1250    5.6717   -9.2588 C   0  0  0  0  0  0  0  0  0  0  0  0
   -8.4686    4.4386   -8.7323 C   0  0  0  0  0  0  0  0  0  0  0  0
   -8.5932    3.3245   -9.5478 C   0  0  0  0  0  0  0  0  0  0  0  0
   -8.3261    3.3916  -10.9064 C   0  0  0  0  0  0  0  0  0  0  0  0
   -7.9808    4.6265  -11.4710 C   0  0  0  0  0  0  0  0  0  0  0  0
   -7.7297    4.7052  -12.8428 N   0  0  0  0  0  0  0  0  0  0  0  0
   -7.4983    3.5939  -13.8825 C   0  0  0  0  0  0  0  0  0  0  0  0
   -7.4039    2.4404  -13.7470 O   0  0  0  0  0  0  0  0  0  0  0  0
   -7.5025    4.1588  -15.2472 C   0  0  0  0  0  0  0  0  0  0  0  0
   -8.6727    4.0426  -16.0044 C   0  0  0  0  0  0  0  0  0  0  0  0
   -8.6593    4.3332  -17.3567 C   0  0  0  0  0  0  0  0  0  0  0  0
   -9.7757    4.1275  -18.0700 F   0  0  0  0  0  0  0  0  0  0  0  0
   -7.5078    4.7950  -17.9907 C   0  0  0  0  0  0  0  0  0  0  0  0
   -6.3615    4.9823  -17.2024 C   0  0  0  0  0  0  0  0  0  0  0  0
   -6.3393    4.6805  -15.8380 C   0  0  0  0  0  0  0  0  0  0  0  0
   -5.0197    4.9662  -15.4347 C   0  0  0  0  0  0  0  0  0  0  0  0
   -4.2586    5.4173  -16.4340 N   0  0  0  0  0  0  0  0  0  0  0  0
   -5.0800    5.3864  -17.5059 N   0  0  0  0  0  0  0  0  0  0  0  0
   -4.6128    5.6720  -18.8742 C   0  0  0  0  0  0  0  0  0  0  0  0
   -5.1249    7.0240  -19.4069 C   0  0  0  0  0  0  0  0  0  0  0  0
   -3.7759    7.2622  -19.9719 N   0  0  0  0  0  0  0  0  0  0  0  0
   -3.2236    6.3385  -18.9518 C   0  0  0  0  0  0  0  0  0  0  0  0
   -9.0134    2.1458   -8.7366 C   0  0  0  0  0  0  0  0  0  0  0  0
   -9.1892    2.6452   -7.3441 N   0  0  0  0  0  0  0  0  0  0  0  0
   -8.7335    4.0487   -7.3183 C   0  0  0  0  0  0  0  0  0  0  0  0
  1  2  1  0
  2  3  2  0
  2  4  2  0
  2  5  1  0
  5  6  2  0
  6  7  1  0
  7  8  2  0
  8  9  1  0
  9 10  2  0
 10 11  1  0
 11 12  1  0
 12 13  2  0
 12 14  1  0
 14 15  2  0
 15 16  1  0
 16 17  1  0
 16 18  2  0
 18 19  1  0
 19 20  2  0
 20 21  1  0
 21 22  2  0
 22 23  1  0
 23 24  1  0
 24 25  1  0
 25 26  1  0
 26 27  1  0
  8 28  1  0
 28 29  1  0
 29 30  1  0
 10  5  1  0
 20 14  1  0
 27 24  1  0
 30  7  1  0
 23 19  1  0
M  END
>  <smiles>  (2086) 
C31658-P248

>  <fragmenstein_outcome>  (2086) 
acceptable

>  <inchikey>  (2086) 
OAUHGJXUCKZTJH-UHFFFAOYSA-N

>  <fragmenstein_mode>  (2086) 
expansion

>  <HIPPO Pose ID>  (2086) 
25732

>  <Energy>  (2086) 
83.903284

>  <fragmenstein_error>  (2086) 


>  <tags>  (2086) 
{'openbind_xx01zvns2b_c1_fragmenstein', 'fragmenstein_placed'}

>  <ref_pdb>  (2086) 
175

>  <scratch_subdir>  (2086) 
/opt/xchem-fragalysis-2/maxwin/BulkDock/SCRATCH/511028/C31658-P248

>  <alias>  (2086) 
CS(=O)(=O)c1cc2c(cc1NC(=O)c1cc(F)cc3c1cnn3C1CNC1)CNC2

>  <HIPPO Compound ID>  (2086) 
31658

>  <fragmenstein_runtime>  (2086) 
9.504369

$$$$
Cc1cc2c(cc1NC(=O)c1cc(F)c3c4c1cnn4C1(CN(C)C1)N3)CNC2
     RDKit          3D

 29 34  0  0  0  0  0  0  0  0999 V2000
   -7.7086    6.7945  -11.0366 C   0  0  0  0  0  0  0  0  0  0  0  0
   -8.1432    5.4432  -10.5480 C   0  0  0  0  0  0  0  0  0  0  0  0
   -8.2980    5.3292   -9.1476 C   0  0  0  0  0  0  0  0  0  0  0  0
   -8.6328    4.1121   -8.5921 C   0  0  0  0  0  0  0  0  0  0  0  0
   -8.8068    2.9996   -9.3910 C   0  0  0  0  0  0  0  0  0  0  0  0
   -8.6618    3.0744  -10.7665 C   0  0  0  0  0  0  0  0  0  0  0  0
   -8.3627    4.3086  -11.3699 C   0  0  0  0  0  0  0  0  0  0  0  0
   -8.2723    4.2636  -12.7731 N   0  0  0  0  0  0  0  0  0  0  0  0
   -8.2260    5.4014  -13.8102 C   0  0  0  0  0  0  0  0  0  0  0  0
   -8.3328    6.5547  -13.6728 O   0  0  0  0  0  0  0  0  0  0  0  0
   -7.8989    4.9201  -15.1574 C   0  0  0  0  0  0  0  0  0  0  0  0
   -8.8462    4.3487  -16.0505 C   0  0  0  0  0  0  0  0  0  0  0  0
   -8.5686    4.1908  -17.4362 C   0  0  0  0  0  0  0  0  0  0  0  0
   -9.5392    3.7204  -18.2315 F   0  0  0  0  0  0  0  0  0  0  0  0
   -7.3458    4.5826  -17.9468 C   0  0  0  0  0  0  0  0  0  0  0  0
   -6.4920    5.0473  -16.9892 C   0  0  0  0  0  0  0  0  0  0  0  0
   -6.6464    5.2722  -15.6693 C   0  0  0  0  0  0  0  0  0  0  0  0
   -5.4130    5.9057  -15.3396 C   0  0  0  0  0  0  0  0  0  0  0  0
   -4.5959    6.0859  -16.4087 N   0  0  0  0  0  0  0  0  0  0  0  0
   -5.3097    5.5299  -17.3879 N   0  0  0  0  0  0  0  0  0  0  0  0
   -5.3736    5.4757  -18.8630 C   0  0  0  0  0  0  0  0  0  0  0  0
   -5.2322    6.8278  -19.5717 C   0  0  0  0  0  0  0  0  0  0  0  0
   -3.7855    6.5315  -19.7513 N   0  0  0  0  0  0  0  0  0  0  0  0
   -3.3633    6.8140  -21.1155 C   0  0  0  0  0  0  0  0  0  0  0  0
   -4.0736    5.0858  -19.5463 C   0  0  0  0  0  0  0  0  0  0  0  0
   -6.6709    4.6926  -19.1664 N   0  0  0  0  0  0  0  0  0  0  0  0
   -9.1304    1.8239   -8.5375 C   0  0  0  0  0  0  0  0  0  0  0  0
   -9.3131    2.3474   -7.1580 N   0  0  0  0  0  0  0  0  0  0  0  0
   -8.8532    3.7506   -7.1650 C   0  0  0  0  0  0  0  0  0  0  0  0
  1  2  1  0
  2  3  2  0
  3  4  1  0
  4  5  2  0
  5  6  1  0
  6  7  2  0
  7  8  1  0
  8  9  1  0
  9 10  2  0
  9 11  1  0
 11 12  2  0
 12 13  1  0
 13 14  1  0
 13 15  2  0
 15 16  1  0
 16 17  2  0
 17 18  1  0
 18 19  2  0
 19 20  1  0
 20 21  1  0
 21 22  1  0
 22 23  1  0
 23 24  1  0
 23 25  1  0
 21 26  1  0
  5 27  1  0
 27 28  1  0
 28 29  1  0
  7  2  1  0
 17 11  1  0
 25 21  1  0
 29  4  1  0
 26 15  1  0
 20 16  1  0
M  END
>  <smiles>  (2087) 
C31698-P248

>  <fragmenstein_outcome>  (2087) 
acceptable

>  <inchikey>  (2087) 
DNFKKCSHXYEKHC-UHFFFAOYSA-N

>  <fragmenstein_mode>  (2087) 
expansion

>  <HIPPO Pose ID>  (2087) 
25741

>  <Energy>  (2087) 
181.914396

>  <fragmenstein_error>  (2087) 


>  <tags>  (2087) 
{'openbind_xx01zvns2b_c1_fragmenstein', 'fragmenstein_placed'}

>  <ref_pdb>  (2087) 
175

>  <scratch_subdir>  (2087) 
/opt/xchem-fragalysis-2/maxwin/BulkDock/SCRATCH/511028/C31698-P248

>  <alias>  (2087) 
Cc1cc2c(cc1NC(=O)c1cc(F)c3c4c1cnn4C1(CN(C)C1)N3)CNC2

>  <HIPPO Compound ID>  (2087) 
31698

>  <fragmenstein_runtime>  (2087) 
6.286314

$$$$
CC(=O)NC[C@@]1(c2ccc3c(c2)CNC3)Nc2c(F)cc3c(cnn3C3CNC3)c2C1=O
     RDKit          3D

 32 37  0  0  0  0  0  0  0  0999 V2000
  -11.4397    8.9782  -13.0892 C   0  0  0  0  0  0  0  0  0  0  0  0
  -10.0038    8.7832  -12.6355 C   0  0  0  0  0  0  0  0  0  0  0  0
   -9.4264    9.5892  -12.0210 O   0  0  0  0  0  0  0  0  0  0  0  0
   -9.5299    7.4192  -13.1969 N   0  0  0  0  0  0  0  0  0  0  0  0
   -8.2182    6.8088  -13.1988 C   0  0  0  0  0  0  0  0  0  0  0  0
   -8.1695    5.2392  -12.9625 C   0  0  1  0  0  0  0  0  0  0  0  0
   -8.3891    4.8348  -11.4978 C   0  0  0  0  0  0  0  0  0  0  0  0
   -8.2238    5.8073  -10.4652 C   0  0  0  0  0  0  0  0  0  0  0  0
   -8.3602    5.5180   -9.1063 C   0  0  0  0  0  0  0  0  0  0  0  0
   -8.6842    4.2331   -8.7568 C   0  0  0  0  0  0  0  0  0  0  0  0
   -8.8245    3.2441   -9.7259 C   0  0  0  0  0  0  0  0  0  0  0  0
   -8.6667    3.5148  -11.0892 C   0  0  0  0  0  0  0  0  0  0  0  0
   -9.1323    1.9617   -9.0167 C   0  0  0  0  0  0  0  0  0  0  0  0
   -9.5835    2.3573   -7.6549 N   0  0  0  0  0  0  0  0  0  0  0  0
   -8.9477    3.6647   -7.4035 C   0  0  0  0  0  0  0  0  0  0  0  0
   -9.1089    4.6088  -13.9968 N   0  0  0  0  0  0  0  0  0  0  0  0
   -8.2583    4.5316  -15.1728 C   0  0  0  0  0  0  0  0  0  0  0  0
   -8.6225    4.3765  -16.5082 C   0  0  0  0  0  0  0  0  0  0  0  0
   -9.8887    4.1198  -16.8659 F   0  0  0  0  0  0  0  0  0  0  0  0
   -7.6752    4.5716  -17.5393 C   0  0  0  0  0  0  0  0  0  0  0  0
   -6.3342    4.8400  -17.1792 C   0  0  0  0  0  0  0  0  0  0  0  0
   -5.9234    4.8365  -15.8467 C   0  0  0  0  0  0  0  0  0  0  0  0
   -4.5467    5.0993  -15.8694 C   0  0  0  0  0  0  0  0  0  0  0  0
   -4.0911    5.2804  -17.1071 N   0  0  0  0  0  0  0  0  0  0  0  0
   -5.1954    5.1743  -17.8850 N   0  0  0  0  0  0  0  0  0  0  0  0
   -5.1945    5.5852  -19.2988 C   0  0  0  0  0  0  0  0  0  0  0  0
   -3.8116    5.9780  -19.8651 C   0  0  0  0  0  0  0  0  0  0  0  0
   -4.4454    7.1780  -20.4651 N   0  0  0  0  0  0  0  0  0  0  0  0
   -5.5036    7.0891  -19.4366 C   0  0  0  0  0  0  0  0  0  0  0  0
   -6.9055    4.6691  -14.8832 C   0  0  0  0  0  0  0  0  0  0  0  0
   -6.7729    4.8905  -13.4651 C   0  0  0  0  0  0  0  0  0  0  0  0
   -5.7029    4.9238  -12.8869 O   0  0  0  0  0  0  0  0  0  0  0  0
  1  2  1  0
  2  3  2  0
  2  4  1  0
  4  5  1  0
  6  5  1  1
  6  7  1  0
  7  8  2  0
  8  9  1  0
  9 10  2  0
 10 11  1  0
 11 12  2  0
 11 13  1  0
 13 14  1  0
 14 15  1  0
  6 16  1  0
 16 17  1  0
 17 18  2  0
 18 19  1  0
 18 20  1  0
 20 21  2  0
 21 22  1  0
 22 23  1  0
 23 24  2  0
 24 25  1  0
 25 26  1  0
 26 27  1  0
 27 28  1  0
 28 29  1  0
 22 30  2  0
 30 31  1  0
 31 32  2  0
 31  6  1  0
 12  7  1  0
 30 17  1  0
 15 10  1  0
 25 21  1  0
 29 26  1  0
M  END
>  <smiles>  (2088) 
C31707-P248

>  <fragmenstein_outcome>  (2088) 
acceptable

>  <inchikey>  (2088) 
HYECETPGTFYCSK-UHFFFAOYSA-N

>  <fragmenstein_mode>  (2088) 
expansion

>  <HIPPO Pose ID>  (2088) 
25745

>  <Energy>  (2088) 
167.963845

>  <fragmenstein_error>  (2088) 


>  <tags>  (2088) 
{'openbind_xx01zvns2b_c1_fragmenstein', 'fragmenstein_placed'}

>  <ref_pdb>  (2088) 
175

>  <scratch_subdir>  (2088) 
/opt/xchem-fragalysis-2/maxwin/BulkDock/SCRATCH/511028/C31707-P248

>  <alias>  (2088) 
CC(=O)NC[C@@]1(c2ccc3c(c2)CNC3)Nc2c(F)cc3c(cnn3C3CNC3)c2C1=O

>  <HIPPO Compound ID>  (2088) 
31707

>  <fragmenstein_runtime>  (2088) 
8.362723

$$$$
CN1Cc2c(C(=O)C(=O)c3ccc4c(c3)CNC4)cc(F)cc2N1CN1CCC1
     RDKit          3D

 29 33  0  0  0  0  0  0  0  0999 V2000
   -2.9026    4.8990  -16.7438 C   0  0  0  0  0  0  0  0  0  0  0  0
   -4.1128    5.7200  -16.6823 N   0  0  0  0  0  0  0  0  0  0  0  0
   -4.8861    5.3841  -15.4527 C   0  0  0  0  0  0  0  0  0  0  0  0
   -6.2391    4.9667  -15.9330 C   0  0  0  0  0  0  0  0  0  0  0  0
   -7.3587    4.5947  -15.1998 C   0  0  0  0  0  0  0  0  0  0  0  0
   -7.2791    4.5506  -13.7226 C   0  0  0  0  0  0  0  0  0  0  0  0
   -6.2158    4.3412  -13.1495 O   0  0  0  0  0  0  0  0  0  0  0  0
   -8.4968    4.8723  -12.8902 C   0  0  0  0  0  0  0  0  0  0  0  0
   -9.4391    5.4747  -13.3921 O   0  0  0  0  0  0  0  0  0  0  0  0
   -8.4539    4.6041  -11.4425 C   0  0  0  0  0  0  0  0  0  0  0  0
   -8.2105    5.6963  -10.5858 C   0  0  0  0  0  0  0  0  0  0  0  0
   -8.2720    5.5326   -9.2016 C   0  0  0  0  0  0  0  0  0  0  0  0
   -8.6020    4.2813   -8.7115 C   0  0  0  0  0  0  0  0  0  0  0  0
   -8.8141    3.1956   -9.5632 C   0  0  0  0  0  0  0  0  0  0  0  0
   -8.7350    3.3304  -10.9403 C   0  0  0  0  0  0  0  0  0  0  0  0
   -9.1305    1.9921   -8.7348 C   0  0  0  0  0  0  0  0  0  0  0  0
   -9.4852    2.5264   -7.3950 N   0  0  0  0  0  0  0  0  0  0  0  0
   -8.8257    3.8450   -7.3002 C   0  0  0  0  0  0  0  0  0  0  0  0
   -8.5190    4.2667  -15.9016 C   0  0  0  0  0  0  0  0  0  0  0  0
   -8.5220    4.3019  -17.2975 C   0  0  0  0  0  0  0  0  0  0  0  0
   -9.6421    3.9484  -17.9468 F   0  0  0  0  0  0  0  0  0  0  0  0
   -7.3880    4.6722  -18.0215 C   0  0  0  0  0  0  0  0  0  0  0  0
   -6.2375    5.0062  -17.3288 C   0  0  0  0  0  0  0  0  0  0  0  0
   -4.9723    5.3629  -17.7871 N   0  0  0  0  0  0  0  0  0  0  0  0
   -4.6961    5.7607  -19.1761 C   0  0  0  0  0  0  0  0  0  0  0  0
   -4.4865    7.1400  -19.6641 N   0  0  0  0  0  0  0  0  0  0  0  0
   -3.2653    7.7679  -19.1206 C   0  0  0  0  0  0  0  0  0  0  0  0
   -4.0836    9.0664  -18.9790 C   0  0  0  0  0  0  0  0  0  0  0  0
   -5.3006    8.1219  -18.9222 C   0  0  0  0  0  0  0  0  0  0  0  0
  1  2  1  0
  2  3  1  0
  3  4  1  0
  4  5  2  0
  5  6  1  0
  6  7  2  0
  6  8  1  0
  8  9  2  0
  8 10  1  0
 10 11  2  0
 11 12  1  0
 12 13  2  0
 13 14  1  0
 14 15  2  0
 14 16  1  0
 16 17  1  0
 17 18  1  0
  5 19  1  0
 19 20  2  0
 20 21  1  0
 20 22  1  0
 22 23  2  0
 23 24  1  0
 24 25  1  0
 25 26  1  0
 26 27  1  0
 27 28  1  0
 28 29  1  0
 24  2  1  0
 29 26  1  0
 23  4  1  0
 15 10  1  0
 18 13  1  0
M  END
>  <smiles>  (2089) 
C31709-P248

>  <fragmenstein_outcome>  (2089) 
acceptable

>  <inchikey>  (2089) 
HYWTVSDTTKQGHU-UHFFFAOYSA-N

>  <fragmenstein_mode>  (2089) 
expansion

>  <HIPPO Pose ID>  (2089) 
25747

>  <Energy>  (2089) 
131.585175

>  <fragmenstein_error>  (2089) 


>  <tags>  (2089) 
{'openbind_xx01zvns2b_c1_fragmenstein', 'fragmenstein_placed'}

>  <ref_pdb>  (2089) 
175

>  <scratch_subdir>  (2089) 
/opt/xchem-fragalysis-2/maxwin/BulkDock/SCRATCH/511028/C31709-P248

>  <alias>  (2089) 
CN1Cc2c(C(=O)C(=O)c3ccc4c(c3)CNC4)cc(F)cc2N1CN1CCC1

>  <HIPPO Compound ID>  (2089) 
31709

>  <fragmenstein_runtime>  (2089) 
4.130785

$$$$
Cc1cc2c(C(=O)C(=O)c3ccc4c(c3)CNC4)cc(F)cc2n1C1CNC1
     RDKit          3D

 28 32  0  0  0  0  0  0  0  0999 V2000
   -3.4055    6.9296  -17.0105 C   0  0  0  0  0  0  0  0  0  0  0  0
   -4.6995    6.2066  -16.8871 C   0  0  0  0  0  0  0  0  0  0  0  0
   -5.3913    5.9971  -15.7118 C   0  0  0  0  0  0  0  0  0  0  0  0
   -6.6232    5.3712  -16.0125 C   0  0  0  0  0  0  0  0  0  0  0  0
   -7.7267    4.9716  -15.2318 C   0  0  0  0  0  0  0  0  0  0  0  0
   -7.7000    5.2396  -13.7843 C   0  0  0  0  0  0  0  0  0  0  0  0
   -7.5630    6.3836  -13.3773 O   0  0  0  0  0  0  0  0  0  0  0  0
   -7.7406    4.0615  -12.8414 C   0  0  0  0  0  0  0  0  0  0  0  0
   -7.3532    2.9893  -13.2971 O   0  0  0  0  0  0  0  0  0  0  0  0
   -8.1341    4.1716  -11.4134 C   0  0  0  0  0  0  0  0  0  0  0  0
   -7.9975    5.3576  -10.6637 C   0  0  0  0  0  0  0  0  0  0  0  0
   -8.2544    5.3721   -9.2857 C   0  0  0  0  0  0  0  0  0  0  0  0
   -8.6568    4.1964   -8.6802 C   0  0  0  0  0  0  0  0  0  0  0  0
   -8.8112    3.0287   -9.4174 C   0  0  0  0  0  0  0  0  0  0  0  0
   -8.5505    2.9947  -10.7754 C   0  0  0  0  0  0  0  0  0  0  0  0
   -9.1987    1.9155   -8.5027 C   0  0  0  0  0  0  0  0  0  0  0  0
   -9.5991    2.5759   -7.2339 N   0  0  0  0  0  0  0  0  0  0  0  0
   -8.9449    3.9015   -7.2448 C   0  0  0  0  0  0  0  0  0  0  0  0
   -8.8292    4.3685  -15.8338 C   0  0  0  0  0  0  0  0  0  0  0  0
   -8.8438    4.1878  -17.2064 C   0  0  0  0  0  0  0  0  0  0  0  0
   -9.9237    3.6359  -17.7766 F   0  0  0  0  0  0  0  0  0  0  0  0
   -7.7704    4.5715  -18.0119 C   0  0  0  0  0  0  0  0  0  0  0  0
   -6.6511    5.1609  -17.3943 C   0  0  0  0  0  0  0  0  0  0  0  0
   -5.4490    5.6362  -17.9036 N   0  0  0  0  0  0  0  0  0  0  0  0
   -5.1362    5.5617  -19.3586 C   0  0  0  0  0  0  0  0  0  0  0  0
   -3.6674    5.4055  -19.7533 C   0  0  0  0  0  0  0  0  0  0  0  0
   -3.7031    6.6946  -20.4548 N   0  0  0  0  0  0  0  0  0  0  0  0
   -5.0954    6.9299  -20.0450 C   0  0  0  0  0  0  0  0  0  0  0  0
  1  2  1  0
  2  3  2  0
  3  4  1  0
  4  5  2  0
  5  6  1  0
  6  7  2  0
  6  8  1  0
  8  9  2  0
  8 10  1  0
 10 11  2  0
 11 12  1  0
 12 13  2  0
 13 14  1  0
 14 15  2  0
 14 16  1  0
 16 17  1  0
 17 18  1  0
  5 19  1  0
 19 20  2  0
 20 21  1  0
 20 22  1  0
 22 23  2  0
 23 24  1  0
 24 25  1  0
 25 26  1  0
 26 27  1  0
 27 28  1  0
 24  2  1  0
 28 25  1  0
 23  4  1  0
 15 10  1  0
 18 13  1  0
M  END
>  <smiles>  (2090) 
C31710-P248

>  <fragmenstein_outcome>  (2090) 
acceptable

>  <inchikey>  (2090) 
OKACQEFJFQDYTI-UHFFFAOYSA-N

>  <fragmenstein_mode>  (2090) 
expansion

>  <HIPPO Pose ID>  (2090) 
25749

>  <Energy>  (2090) 
122.47383

>  <fragmenstein_error>  (2090) 


>  <tags>  (2090) 
{'openbind_xx01zvns2b_c1_fragmenstein', 'fragmenstein_placed'}

>  <ref_pdb>  (2090) 
175

>  <scratch_subdir>  (2090) 
/opt/xchem-fragalysis-2/maxwin/BulkDock/SCRATCH/511028/C31710-P248

>  <alias>  (2090) 
Cc1cc2c(C(=O)C(=O)c3ccc4c(c3)CNC4)cc(F)cc2n1C1CNC1

>  <HIPPO Compound ID>  (2090) 
31710

>  <fragmenstein_runtime>  (2090) 
3.457928

$$$$
C[C@H]1[C@H](n2ncc3c(C(=O)Nc4ccc5c(c4)CNC5)cc(F)cc32)CN1C
     RDKit          3D

 28 32  0  0  0  0  0  0  0  0999 V2000
   -5.4010    7.7826  -20.2077 C   0  0  0  0  0  0  0  0  0  0  0  0
   -4.3796    7.0199  -19.3945 C   0  0  1  0  0  0  0  0  0  0  0  0
   -4.7125    5.5390  -19.0847 C   0  0  2  0  0  0  0  0  0  0  0  0
   -5.1222    5.3262  -17.6797 N   0  0  0  0  0  0  0  0  0  0  0  0
   -4.2721    5.4313  -16.6345 N   0  0  0  0  0  0  0  0  0  0  0  0
   -4.9888    5.0035  -15.5920 C   0  0  0  0  0  0  0  0  0  0  0  0
   -6.3269    4.7168  -15.9293 C   0  0  0  0  0  0  0  0  0  0  0  0
   -7.4734    4.2311  -15.2754 C   0  0  0  0  0  0  0  0  0  0  0  0
   -7.4199    3.6749  -13.9104 C   0  0  0  0  0  0  0  0  0  0  0  0
   -7.2089    2.5349  -13.7856 O   0  0  0  0  0  0  0  0  0  0  0  0
   -7.7671    4.7482  -12.8593 N   0  0  0  0  0  0  0  0  0  0  0  0
   -8.0126    4.6306  -11.4934 C   0  0  0  0  0  0  0  0  0  0  0  0
   -8.0199    5.7865  -10.6981 C   0  0  0  0  0  0  0  0  0  0  0  0
   -8.2388    5.6969   -9.3182 C   0  0  0  0  0  0  0  0  0  0  0  0
   -8.5085    4.4531   -8.7720 C   0  0  0  0  0  0  0  0  0  0  0  0
   -8.5678    3.3206   -9.5708 C   0  0  0  0  0  0  0  0  0  0  0  0
   -8.2878    3.3827  -10.9261 C   0  0  0  0  0  0  0  0  0  0  0  0
   -8.9676    2.1419   -8.7513 C   0  0  0  0  0  0  0  0  0  0  0  0
   -9.1312    2.6401   -7.3564 N   0  0  0  0  0  0  0  0  0  0  0  0
   -8.7685    4.0727   -7.3553 C   0  0  0  0  0  0  0  0  0  0  0  0
   -8.6740    4.0949  -15.9814 C   0  0  0  0  0  0  0  0  0  0  0  0
   -8.7109    4.3417  -17.3409 C   0  0  0  0  0  0  0  0  0  0  0  0
   -9.8499    4.1168  -18.0109 F   0  0  0  0  0  0  0  0  0  0  0  0
   -7.5821    4.7742  -18.0315 C   0  0  0  0  0  0  0  0  0  0  0  0
   -6.3998    4.9698  -17.3022 C   0  0  0  0  0  0  0  0  0  0  0  0
   -3.2099    5.3071  -19.3695 C   0  0  0  0  0  0  0  0  0  0  0  0
   -3.2530    6.5191  -20.2356 N   0  0  0  0  0  0  0  0  0  0  0  0
   -2.0547    7.3276  -20.0319 C   0  0  0  0  0  0  0  0  0  0  0  0
  2  1  1  6
  2  3  1  0
  3  4  1  1
  4  5  1  0
  5  6  2  0
  6  7  1  0
  7  8  2  0
  8  9  1  0
  9 10  2  0
  9 11  1  0
 11 12  1  0
 12 13  2  0
 13 14  1  0
 14 15  2  0
 15 16  1  0
 16 17  2  0
 16 18  1  0
 18 19  1  0
 19 20  1  0
  8 21  1  0
 21 22  2  0
 22 23  1  0
 22 24  1  0
 24 25  2  0
  3 26  1  0
 26 27  1  0
 27 28  1  0
 27  2  1  0
 25  4  1  0
 25  7  1  0
 17 12  1  0
 20 15  1  0
M  END
>  <smiles>  (2091) 
C31721-P248

>  <fragmenstein_outcome>  (2091) 
acceptable

>  <inchikey>  (2091) 
AHRVJMRCBWTGRF-UHFFFAOYSA-N

>  <fragmenstein_mode>  (2091) 
expansion

>  <HIPPO Pose ID>  (2091) 
25756

>  <Energy>  (2091) 
67.381371

>  <fragmenstein_error>  (2091) 


>  <tags>  (2091) 
{'openbind_xx01zvns2b_c1_fragmenstein', 'fragmenstein_placed'}

>  <ref_pdb>  (2091) 
175

>  <scratch_subdir>  (2091) 
/opt/xchem-fragalysis-2/maxwin/BulkDock/SCRATCH/511028/C31721-P248

>  <alias>  (2091) 
C[C@H]1[C@H](n2ncc3c(C(=O)Nc4ccc5c(c4)CNC5)cc(F)cc32)CN1C

>  <HIPPO Compound ID>  (2091) 
31721

>  <fragmenstein_runtime>  (2091) 
5.051789

$$$$
CC(C)NC(=O)[C@](O)(Nc1ccc2c(c1)CNC2)c1cc(F)cc2c1cnn2C1CNC1
     RDKit          3D

 32 36  0  0  0  0  0  0  0  0999 V2000
   -5.1755    1.4107  -11.0188 C   0  0  0  0  0  0  0  0  0  0  0  0
   -4.6651    2.5108  -11.9399 C   0  0  0  0  0  0  0  0  0  0  0  0
   -3.8115    1.9720  -13.0786 C   0  0  0  0  0  0  0  0  0  0  0  0
   -5.7747    3.2733  -12.4617 N   0  0  0  0  0  0  0  0  0  0  0  0
   -5.9911    4.8107  -12.5489 C   0  0  0  0  0  0  0  0  0  0  0  0
   -5.3371    5.6944  -12.1409 O   0  0  0  0  0  0  0  0  0  0  0  0
   -7.3916    5.1026  -13.2911 C   0  0  2  0  0  0  0  0  0  0  0  0
   -7.6996    6.4906  -13.2075 O   0  0  0  0  0  0  0  0  0  0  0  0
   -8.4755    4.3407  -12.6524 N   0  0  0  0  0  0  0  0  0  0  0  0
   -8.5118    4.2684  -11.2446 C   0  0  0  0  0  0  0  0  0  0  0  0
   -8.2848    5.3887  -10.4141 C   0  0  0  0  0  0  0  0  0  0  0  0
   -8.3539    5.3091   -9.0181 C   0  0  0  0  0  0  0  0  0  0  0  0
   -8.6952    4.0990   -8.4561 C   0  0  0  0  0  0  0  0  0  0  0  0
   -8.9270    2.9858   -9.2541 C   0  0  0  0  0  0  0  0  0  0  0  0
   -8.8450    3.0508  -10.6357 C   0  0  0  0  0  0  0  0  0  0  0  0
   -9.2379    1.8219   -8.3770 C   0  0  0  0  0  0  0  0  0  0  0  0
   -9.5916    2.4147   -7.0608 N   0  0  0  0  0  0  0  0  0  0  0  0
   -8.9159    3.7311   -7.0274 C   0  0  0  0  0  0  0  0  0  0  0  0
   -7.3194    4.8623  -14.8062 C   0  0  0  0  0  0  0  0  0  0  0  0
   -8.4626    4.4634  -15.5475 C   0  0  0  0  0  0  0  0  0  0  0  0
   -8.4482    4.3354  -16.9355 C   0  0  0  0  0  0  0  0  0  0  0  0
   -9.5645    3.9341  -17.5663 F   0  0  0  0  0  0  0  0  0  0  0  0
   -7.3093    4.6216  -17.6831 C   0  0  0  0  0  0  0  0  0  0  0  0
   -6.1704    5.0336  -16.9751 C   0  0  0  0  0  0  0  0  0  0  0  0
   -6.1636    5.1652  -15.5807 C   0  0  0  0  0  0  0  0  0  0  0  0
   -4.8661    5.6521  -15.2946 C   0  0  0  0  0  0  0  0  0  0  0  0
   -4.0925    5.7485  -16.3660 N   0  0  0  0  0  0  0  0  0  0  0  0
   -4.8938    5.3842  -17.3811 N   0  0  0  0  0  0  0  0  0  0  0  0
   -4.3935    5.3159  -18.7697 C   0  0  0  0  0  0  0  0  0  0  0  0
   -2.8749    5.5745  -18.9227 C   0  0  0  0  0  0  0  0  0  0  0  0
   -3.1641    6.9914  -19.2184 N   0  0  0  0  0  0  0  0  0  0  0  0
   -4.5631    6.6393  -19.5276 C   0  0  0  0  0  0  0  0  0  0  0  0
  1  2  1  0
  2  3  1  0
  2  4  1  0
  4  5  1  0
  5  6  2  0
  5  7  1  0
  7  8  1  6
  7  9  1  0
  9 10  1  0
 10 11  2  0
 11 12  1  0
 12 13  2  0
 13 14  1  0
 14 15  2  0
 14 16  1  0
 16 17  1  0
 17 18  1  0
  7 19  1  0
 19 20  2  0
 20 21  1  0
 21 22  1  0
 21 23  2  0
 23 24  1  0
 24 25  2  0
 25 26  1  0
 26 27  2  0
 27 28  1  0
 28 29  1  0
 29 30  1  0
 30 31  1  0
 31 32  1  0
 15 10  1  0
 25 19  1  0
 32 29  1  0
 18 13  1  0
 28 24  1  0
M  END
>  <smiles>  (2092) 
C31733-P248

>  <fragmenstein_outcome>  (2092) 
acceptable

>  <inchikey>  (2092) 
VZQNTMFOOXXYCA-UHFFFAOYSA-N

>  <fragmenstein_mode>  (2092) 
expansion

>  <HIPPO Pose ID>  (2092) 
25762

>  <Energy>  (2092) 
111.183754

>  <fragmenstein_error>  (2092) 


>  <tags>  (2092) 
{'openbind_xx01zvns2b_c1_fragmenstein', 'fragmenstein_placed'}

>  <ref_pdb>  (2092) 
175

>  <scratch_subdir>  (2092) 
/opt/xchem-fragalysis-2/maxwin/BulkDock/SCRATCH/511028/C31733-P248

>  <alias>  (2092) 
CC(C)NC(=O)[C@](O)(Nc1ccc2c(c1)CNC2)c1cc(F)cc2c1cnn2C1CNC1

>  <HIPPO Compound ID>  (2092) 
31733

>  <fragmenstein_runtime>  (2092) 
6.510628

$$$$
O=C(NCc1cccnc1)[C@](O)(Nc1ccc2c(c1)CNC2)c1cc(F)cc2c1cnn2C1CNC1
     RDKit          3D

 36 41  0  0  0  0  0  0  0  0999 V2000
   -7.2462    1.8013  -13.4812 O   0  0  0  0  0  0  0  0  0  0  0  0
   -6.6255    2.7870  -13.3749 C   0  0  0  0  0  0  0  0  0  0  0  0
   -5.1511    3.0059  -12.9318 N   0  0  0  0  0  0  0  0  0  0  0  0
   -4.1185    2.0545  -12.6228 C   0  0  0  0  0  0  0  0  0  0  0  0
   -2.9001    2.7165  -12.0596 C   0  0  0  0  0  0  0  0  0  0  0  0
   -2.1713    3.6618  -12.7893 C   0  0  0  0  0  0  0  0  0  0  0  0
   -1.0472    4.2556  -12.2241 C   0  0  0  0  0  0  0  0  0  0  0  0
   -0.6856    3.8827  -10.9409 C   0  0  0  0  0  0  0  0  0  0  0  0
   -1.3581    2.9722  -10.2062 N   0  0  0  0  0  0  0  0  0  0  0  0
   -2.4432    2.4029  -10.7832 C   0  0  0  0  0  0  0  0  0  0  0  0
   -7.2540    4.2655  -13.6303 C   0  0  2  0  0  0  0  0  0  0  0  0
   -6.4235    5.3158  -13.1449 O   0  0  0  0  0  0  0  0  0  0  0  0
   -8.5751    4.3561  -12.9687 N   0  0  0  0  0  0  0  0  0  0  0  0
   -8.5797    4.3413  -11.5532 C   0  0  0  0  0  0  0  0  0  0  0  0
   -8.3238    5.5233  -10.8246 C   0  0  0  0  0  0  0  0  0  0  0  0
   -8.2947    5.5269   -9.4265 C   0  0  0  0  0  0  0  0  0  0  0  0
   -8.5604    4.3410   -8.7678 C   0  0  0  0  0  0  0  0  0  0  0  0
   -8.8281    3.1767   -9.4733 C   0  0  0  0  0  0  0  0  0  0  0  0
   -8.8194    3.1516  -10.8571 C   0  0  0  0  0  0  0  0  0  0  0  0
   -9.1135    2.0646   -8.5254 C   0  0  0  0  0  0  0  0  0  0  0  0
   -9.1365    2.6757   -7.1686 N   0  0  0  0  0  0  0  0  0  0  0  0
   -8.6487    4.0643   -7.3070 C   0  0  0  0  0  0  0  0  0  0  0  0
   -7.3760    4.4913  -15.1474 C   0  0  0  0  0  0  0  0  0  0  0  0
   -8.5755    4.2050  -15.8441 C   0  0  0  0  0  0  0  0  0  0  0  0
   -8.6704    4.2707  -17.2287 C   0  0  0  0  0  0  0  0  0  0  0  0
   -9.8241    3.9332  -17.8200 F   0  0  0  0  0  0  0  0  0  0  0  0
   -7.5932    4.6462  -18.0150 C   0  0  0  0  0  0  0  0  0  0  0  0
   -6.4078    4.9729  -17.3516 C   0  0  0  0  0  0  0  0  0  0  0  0
   -6.2864    4.9154  -15.9611 C   0  0  0  0  0  0  0  0  0  0  0  0
   -4.9559    5.3359  -15.7243 C   0  0  0  0  0  0  0  0  0  0  0  0
   -4.2769    5.6024  -16.8387 N   0  0  0  0  0  0  0  0  0  0  0  0
   -5.1671    5.3483  -17.8206 N   0  0  0  0  0  0  0  0  0  0  0  0
   -4.8222    5.4216  -19.2534 C   0  0  0  0  0  0  0  0  0  0  0  0
   -3.3128    5.5413  -19.5473 C   0  0  0  0  0  0  0  0  0  0  0  0
   -3.6352    6.5919  -20.5395 N   0  0  0  0  0  0  0  0  0  0  0  0
   -4.9004    6.8513  -19.8122 C   0  0  0  0  0  0  0  0  0  0  0  0
  1  2  2  0
  2  3  1  0
  3  4  1  0
  4  5  1  0
  5  6  2  0
  6  7  1  0
  7  8  2  0
  8  9  1  0
  9 10  2  0
  2 11  1  0
 11 12  1  1
 11 13  1  0
 13 14  1  0
 14 15  2  0
 15 16  1  0
 16 17  2  0
 17 18  1  0
 18 19  2  0
 18 20  1  0
 20 21  1  0
 21 22  1  0
 11 23  1  0
 23 24  2  0
 24 25  1  0
 25 26  1  0
 25 27  2  0
 27 28  1  0
 28 29  2  0
 29 30  1  0
 30 31  2  0
 31 32  1  0
 32 33  1  0
 33 34  1  0
 34 35  1  0
 35 36  1  0
 10  5  1  0
 19 14  1  0
 29 23  1  0
 36 33  1  0
 22 17  1  0
 32 28  1  0
M  END
>  <smiles>  (2093) 
C31737-P248

>  <fragmenstein_outcome>  (2093) 
acceptable

>  <inchikey>  (2093) 
MPATVCRIZMTTSO-UHFFFAOYSA-N

>  <fragmenstein_mode>  (2093) 
expansion

>  <HIPPO Pose ID>  (2093) 
25763

>  <Energy>  (2093) 
109.319215

>  <fragmenstein_error>  (2093) 


>  <tags>  (2093) 
{'openbind_xx01zvns2b_c1_fragmenstein', 'fragmenstein_placed'}

>  <ref_pdb>  (2093) 
175

>  <scratch_subdir>  (2093) 
/opt/xchem-fragalysis-2/maxwin/BulkDock/SCRATCH/511028/C31737-P248

>  <alias>  (2093) 
O=C(NCc1cccnc1)[C@](O)(Nc1ccc2c(c1)CNC2)c1cc(F)cc2c1cnn2C1CNC1

>  <HIPPO Compound ID>  (2093) 
35406

>  <fragmenstein_runtime>  (2093) 
14.946418

$$$$
O=C(Nc1ccc2c(c1)CNC2)c1cc(F)cc2c1[C@@]1(CNCN1)NN2C1CNC1
     RDKit          3D

 30 35  0  0  0  0  0  0  0  0999 V2000
   -7.6013    6.5746  -13.4546 O   0  0  0  0  0  0  0  0  0  0  0  0
   -7.8421    5.4581  -13.6958 C   0  0  0  0  0  0  0  0  0  0  0  0
   -8.2588    4.3018  -12.7650 N   0  0  0  0  0  0  0  0  0  0  0  0
   -8.3712    4.2527  -11.3780 C   0  0  0  0  0  0  0  0  0  0  0  0
   -8.1147    5.3916  -10.5924 C   0  0  0  0  0  0  0  0  0  0  0  0
   -8.2478    5.3515   -9.2007 C   0  0  0  0  0  0  0  0  0  0  0  0
   -8.6442    4.1625   -8.6212 C   0  0  0  0  0  0  0  0  0  0  0  0
   -8.8737    3.0290   -9.3957 C   0  0  0  0  0  0  0  0  0  0  0  0
   -8.7414    3.0524  -10.7735 C   0  0  0  0  0  0  0  0  0  0  0  0
   -9.2202    1.8911   -8.4958 C   0  0  0  0  0  0  0  0  0  0  0  0
   -9.5842    2.5208   -7.2001 N   0  0  0  0  0  0  0  0  0  0  0  0
   -8.8933    3.8292   -7.1878 C   0  0  0  0  0  0  0  0  0  0  0  0
   -7.7058    5.0252  -15.1017 C   0  0  0  0  0  0  0  0  0  0  0  0
   -8.7764    4.4515  -15.7866 C   0  0  0  0  0  0  0  0  0  0  0  0
   -8.6860    4.2376  -17.1636 C   0  0  0  0  0  0  0  0  0  0  0  0
   -9.7371    3.7096  -17.8074 F   0  0  0  0  0  0  0  0  0  0  0  0
   -7.5445    4.5856  -17.8793 C   0  0  0  0  0  0  0  0  0  0  0  0
   -6.4789    5.1262  -17.1815 C   0  0  0  0  0  0  0  0  0  0  0  0
   -6.5452    5.3266  -15.8019 C   0  0  0  0  0  0  0  0  0  0  0  0
   -5.2229    5.8880  -15.3508 C   0  0  2  0  0  0  0  0  0  0  0  0
   -4.5979    5.2023  -14.1085 C   0  0  0  0  0  0  0  0  0  0  0  0
   -4.4770    6.2733  -13.1004 N   0  0  0  0  0  0  0  0  0  0  0  0
   -4.3244    7.4635  -13.9205 C   0  0  0  0  0  0  0  0  0  0  0  0
   -5.2958    7.3071  -14.9851 N   0  0  0  0  0  0  0  0  0  0  0  0
   -4.3443    5.7670  -16.5506 N   0  0  0  0  0  0  0  0  0  0  0  0
   -5.2327    5.5658  -17.6641 N   0  0  0  0  0  0  0  0  0  0  0  0
   -4.7166    5.3763  -18.9831 C   0  0  0  0  0  0  0  0  0  0  0  0
   -3.5406    6.2959  -19.3603 C   0  0  0  0  0  0  0  0  0  0  0  0
   -4.1736    6.5432  -20.6725 N   0  0  0  0  0  0  0  0  0  0  0  0
   -5.4741    6.1561  -20.0642 C   0  0  0  0  0  0  0  0  0  0  0  0
  1  2  2  0
  2  3  1  0
  3  4  1  0
  4  5  2  0
  5  6  1  0
  6  7  2  0
  7  8  1  0
  8  9  2  0
  8 10  1  0
 10 11  1  0
 11 12  1  0
  2 13  1  0
 13 14  2  0
 14 15  1  0
 15 16  1  0
 15 17  2  0
 17 18  1  0
 18 19  2  0
 19 20  1  0
 20 21  1  1
 21 22  1  0
 22 23  1  0
 23 24  1  0
 20 25  1  0
 25 26  1  0
 26 27  1  0
 27 28  1  0
 28 29  1  0
 29 30  1  0
  9  4  1  0
 19 13  1  0
 24 20  1  0
 30 27  1  0
 12  7  1  0
 26 18  1  0
M  END
>  <smiles>  (2094) 
C31743-P248

>  <fragmenstein_outcome>  (2094) 
acceptable

>  <inchikey>  (2094) 
XWQCRGBYOMEQFE-UHFFFAOYSA-N

>  <fragmenstein_mode>  (2094) 
expansion

>  <HIPPO Pose ID>  (2094) 
25766

>  <Energy>  (2094) 
51.319149

>  <fragmenstein_error>  (2094) 


>  <tags>  (2094) 
{'openbind_xx01zvns2b_c1_fragmenstein', 'fragmenstein_placed'}

>  <ref_pdb>  (2094) 
175

>  <scratch_subdir>  (2094) 
/opt/xchem-fragalysis-2/maxwin/BulkDock/SCRATCH/511028/C31743-P248

>  <alias>  (2094) 
O=C(Nc1ccc2c(c1)CNC2)c1cc(F)cc2c1[C@@]1(CNCN1)NN2C1CNC1

>  <HIPPO Compound ID>  (2094) 
31743

>  <fragmenstein_runtime>  (2094) 
5.370475

$$$$
O=C(Nc1ccc2c(c1)CNC2)c1cc(F)cc2c1C[C@]13CCCC[C@H]1O[C@H]1NCC[C@H]1N23
     RDKit          3D

 33 39  0  0  0  0  0  0  0  0999 V2000
   -7.7154    6.5843  -13.7283 O   0  0  0  0  0  0  0  0  0  0  0  0
   -7.9442    5.4605  -13.9443 C   0  0  0  0  0  0  0  0  0  0  0  0
   -8.3146    4.3144  -12.9843 N   0  0  0  0  0  0  0  0  0  0  0  0
   -8.3869    4.2866  -11.5948 C   0  0  0  0  0  0  0  0  0  0  0  0
   -8.1397    5.4510  -10.8465 C   0  0  0  0  0  0  0  0  0  0  0  0
   -8.2051    5.4354   -9.4518 C   0  0  0  0  0  0  0  0  0  0  0  0
   -8.5334    4.2469   -8.8299 C   0  0  0  0  0  0  0  0  0  0  0  0
   -8.7767    3.0952   -9.5671 C   0  0  0  0  0  0  0  0  0  0  0  0
   -8.6960    3.0906  -10.9504 C   0  0  0  0  0  0  0  0  0  0  0  0
   -9.1008    1.9742   -8.6408 C   0  0  0  0  0  0  0  0  0  0  0  0
   -9.1986    2.5705   -7.2806 N   0  0  0  0  0  0  0  0  0  0  0  0
   -8.6943    3.9559   -7.3784 C   0  0  0  0  0  0  0  0  0  0  0  0
   -7.7764    4.9897  -15.3344 C   0  0  0  0  0  0  0  0  0  0  0  0
   -8.8250    4.4211  -16.0474 C   0  0  0  0  0  0  0  0  0  0  0  0
   -8.6751    4.2047  -17.4163 C   0  0  0  0  0  0  0  0  0  0  0  0
   -9.6971    3.6677  -18.0983 F   0  0  0  0  0  0  0  0  0  0  0  0
   -7.5009    4.5559  -18.0869 C   0  0  0  0  0  0  0  0  0  0  0  0
   -6.4480    5.0998  -17.3627 C   0  0  0  0  0  0  0  0  0  0  0  0
   -6.5861    5.2761  -15.9933 C   0  0  0  0  0  0  0  0  0  0  0  0
   -5.3099    5.7726  -15.4070 C   0  0  0  0  0  0  0  0  0  0  0  0
   -4.4789    6.1441  -16.6709 C   0  0  2  0  0  0  0  0  0  0  0  0
   -3.0556    5.5346  -16.5826 C   0  0  0  0  0  0  0  0  0  0  0  0
   -1.9937    6.5053  -16.0586 C   0  0  0  0  0  0  0  0  0  0  0  0
   -2.5596    7.4997  -15.0560 C   0  0  0  0  0  0  0  0  0  0  0  0
   -3.6714    8.3700  -15.6515 C   0  0  0  0  0  0  0  0  0  0  0  0
   -4.4288    7.6993  -16.8124 C   0  0  1  0  0  0  0  0  0  0  0  0
   -3.7890    8.1527  -18.0142 O   0  0  0  0  0  0  0  0  0  0  0  0
   -4.1432    7.4318  -19.1773 C   0  0  1  0  0  0  0  0  0  0  0  0
   -2.9709    6.7377  -19.6875 N   0  0  0  0  0  0  0  0  0  0  0  0
   -3.4862    5.7550  -20.6197 C   0  0  0  0  0  0  0  0  0  0  0  0
   -4.9544    5.5154  -20.2698 C   0  0  0  0  0  0  0  0  0  0  0  0
   -5.2545    6.3609  -19.0592 C   0  0  1  0  0  0  0  0  0  0  0  0
   -5.1917    5.5308  -17.8397 N   0  0  0  0  0  0  0  0  0  0  0  0
  1  2  2  0
  2  3  1  0
  3  4  1  0
  4  5  2  0
  5  6  1  0
  6  7  2  0
  7  8  1  0
  8  9  2  0
  8 10  1  0
 10 11  1  0
 11 12  1  0
  2 13  1  0
 13 14  2  0
 14 15  1  0
 15 16  1  0
 15 17  2  0
 17 18  1  0
 18 19  2  0
 19 20  1  0
 21 20  1  1
 21 22  1  0
 22 23  1  0
 23 24  1  0
 24 25  1  0
 26 25  1  1
 26 27  1  0
 27 28  1  0
 28 29  1  1
 29 30  1  0
 30 31  1  0
 32 31  1  6
 32 33  1  0
  9  4  1  0
 19 13  1  0
 26 21  1  0
 32 28  1  0
 12  7  1  0
 33 18  1  0
 33 21  1  0
M  END
>  <smiles>  (2095) 
C31754-P248

>  <fragmenstein_outcome>  (2095) 
acceptable

>  <inchikey>  (2095) 
JLRVZVBAEDCRSQ-UHFFFAOYSA-N

>  <fragmenstein_mode>  (2095) 
expansion

>  <HIPPO Pose ID>  (2095) 
25768

>  <Energy>  (2095) 
132.456426

>  <fragmenstein_error>  (2095) 


>  <tags>  (2095) 
{'openbind_xx01zvns2b_c1_fragmenstein', 'fragmenstein_placed'}

>  <ref_pdb>  (2095) 
175

>  <scratch_subdir>  (2095) 
/opt/xchem-fragalysis-2/maxwin/BulkDock/SCRATCH/511028/C31754-P248

>  <alias>  (2095) 
O=C(Nc1ccc2c(c1)CNC2)c1cc(F)cc2c1C[C@]13CCCC[C@H]1O[C@H]1NCC[C@H]1N23

>  <HIPPO Compound ID>  (2095) 
31754

>  <fragmenstein_runtime>  (2095) 
6.715961

$$$$
CCc1nn(C2CNC2)c2cc(F)cc([C@@](O)(Nc3ccc4c(c3)CNC4)C(=O)NCC(F)F)c12
     RDKit          3D

 35 39  0  0  0  0  0  0  0  0999 V2000
   -3.5130    6.1639  -13.5062 C   0  0  0  0  0  0  0  0  0  0  0  0
   -3.8905    4.8622  -14.1981 C   0  0  0  0  0  0  0  0  0  0  0  0
   -4.7201    5.0678  -15.4243 C   0  0  0  0  0  0  0  0  0  0  0  0
   -4.0857    5.5387  -16.4992 N   0  0  0  0  0  0  0  0  0  0  0  0
   -5.0253    5.6011  -17.4508 N   0  0  0  0  0  0  0  0  0  0  0  0
   -4.6719    6.3057  -18.6886 C   0  0  0  0  0  0  0  0  0  0  0  0
   -4.8475    5.5157  -19.9720 C   0  0  0  0  0  0  0  0  0  0  0  0
   -5.4241    6.7349  -20.5926 N   0  0  0  0  0  0  0  0  0  0  0  0
   -5.7179    7.2657  -19.2465 C   0  0  0  0  0  0  0  0  0  0  0  0
   -6.2381    5.0697  -17.0640 C   0  0  0  0  0  0  0  0  0  0  0  0
   -7.4229    4.8072  -17.7676 C   0  0  0  0  0  0  0  0  0  0  0  0
   -8.5080    4.3413  -17.0482 C   0  0  0  0  0  0  0  0  0  0  0  0
   -9.6581    4.0788  -17.6841 F   0  0  0  0  0  0  0  0  0  0  0  0
   -8.4413    4.1723  -15.6758 C   0  0  0  0  0  0  0  0  0  0  0  0
   -7.2515    4.3829  -14.9333 C   0  0  0  0  0  0  0  0  0  0  0  0
   -7.2507    4.2139  -13.4037 C   0  0  1  0  0  0  0  0  0  0  0  0
   -6.5719    5.3689  -12.9424 O   0  0  0  0  0  0  0  0  0  0  0  0
   -8.6190    4.3233  -12.8303 N   0  0  0  0  0  0  0  0  0  0  0  0
   -8.6590    4.3009  -11.4045 C   0  0  0  0  0  0  0  0  0  0  0  0
   -8.3481    5.4538  -10.6485 C   0  0  0  0  0  0  0  0  0  0  0  0
   -8.3202    5.4290   -9.2506 C   0  0  0  0  0  0  0  0  0  0  0  0
   -8.6260    4.2421   -8.6161 C   0  0  0  0  0  0  0  0  0  0  0  0
   -8.9352    3.1019   -9.3449 C   0  0  0  0  0  0  0  0  0  0  0  0
   -8.9511    3.1079  -10.7295 C   0  0  0  0  0  0  0  0  0  0  0  0
   -9.1966    1.9711   -8.4127 C   0  0  0  0  0  0  0  0  0  0  0  0
   -9.2653    2.5719   -7.0544 N   0  0  0  0  0  0  0  0  0  0  0  0
   -8.7126    3.9381   -7.1604 C   0  0  0  0  0  0  0  0  0  0  0  0
   -6.6085    2.7891  -12.9485 C   0  0  0  0  0  0  0  0  0  0  0  0
   -6.7918    1.7755  -13.5042 O   0  0  0  0  0  0  0  0  0  0  0  0
   -5.8393    3.0908  -11.6266 N   0  0  0  0  0  0  0  0  0  0  0  0
   -5.2227    2.1938  -10.6731 C   0  0  0  0  0  0  0  0  0  0  0  0
   -3.8457    1.6884  -11.0812 C   0  0  0  0  0  0  0  0  0  0  0  0
   -3.0768    2.7394  -11.4923 F   0  0  0  0  0  0  0  0  0  0  0  0
   -3.2126    1.1808   -9.9904 F   0  0  0  0  0  0  0  0  0  0  0  0
   -6.1076    4.8083  -15.6887 C   0  0  0  0  0  0  0  0  0  0  0  0
  1  2  1  0
  2  3  1  0
  3  4  2  0
  4  5  1  0
  5  6  1  0
  6  7  1  0
  7  8  1  0
  8  9  1  0
  5 10  1  0
 10 11  2  0
 11 12  1  0
 12 13  1  0
 12 14  2  0
 14 15  1  0
 15 16  1  0
 16 17  1  1
 16 18  1  0
 18 19  1  0
 19 20  2  0
 20 21  1  0
 21 22  2  0
 22 23  1  0
 23 24  2  0
 23 25  1  0
 25 26  1  0
 26 27  1  0
 16 28  1  0
 28 29  2  0
 28 30  1  0
 30 31  1  0
 31 32  1  0
 32 33  1  0
 32 34  1  0
 15 35  2  0
 35  3  1  0
  9  6  1  0
 35 10  1  0
 24 19  1  0
 27 22  1  0
M  END
>  <smiles>  (2096) 
C31763-P248

>  <fragmenstein_outcome>  (2096) 
acceptable

>  <inchikey>  (2096) 
VZPCZAIHGYLRBG-UHFFFAOYSA-N

>  <fragmenstein_mode>  (2096) 
expansion

>  <HIPPO Pose ID>  (2096) 
25774

>  <Energy>  (2096) 
141.061977

>  <fragmenstein_error>  (2096) 


>  <tags>  (2096) 
{'openbind_xx01zvns2b_c1_fragmenstein', 'fragmenstein_placed'}

>  <ref_pdb>  (2096) 
175

>  <scratch_subdir>  (2096) 
/opt/xchem-fragalysis-2/maxwin/BulkDock/SCRATCH/511028/C31763-P248

>  <alias>  (2096) 
CCc1nn(C2CNC2)c2cc(F)cc([C@@](O)(Nc3ccc4c(c3)CNC4)C(=O)NCC(F)F)c12

>  <HIPPO Compound ID>  (2096) 
31763

>  <fragmenstein_runtime>  (2096) 
9.871562

$$$$
Cc1cc(NC(=O)c2cc(F)cc3c2c[n+]([O-])n3C2CNC2)cc2c1CNC2
     RDKit          3D

 28 32  0  0  0  0  0  0  0  0999 V2000
   -8.7911    2.1932   -8.8001 C   0  0  0  0  0  0  0  0  0  0  0  0
   -8.5533    3.4406   -9.5932 C   0  0  0  0  0  0  0  0  0  0  0  0
   -8.4908    3.3969  -11.0021 C   0  0  0  0  0  0  0  0  0  0  0  0
   -8.2302    4.5569  -11.7512 C   0  0  0  0  0  0  0  0  0  0  0  0
   -8.1331    4.4894  -13.1429 N   0  0  0  0  0  0  0  0  0  0  0  0
   -7.7887    5.5847  -14.1806 C   0  0  0  0  0  0  0  0  0  0  0  0
   -7.6083    6.7308  -14.0407 O   0  0  0  0  0  0  0  0  0  0  0  0
   -7.6505    5.0605  -15.5625 C   0  0  0  0  0  0  0  0  0  0  0  0
   -8.6985    4.3734  -16.1803 C   0  0  0  0  0  0  0  0  0  0  0  0
   -8.6191    4.0805  -17.5359 C   0  0  0  0  0  0  0  0  0  0  0  0
   -9.6507    3.4794  -18.1354 F   0  0  0  0  0  0  0  0  0  0  0  0
   -7.5114    4.4057  -18.3157 C   0  0  0  0  0  0  0  0  0  0  0  0
   -6.4562    5.0685  -17.6873 C   0  0  0  0  0  0  0  0  0  0  0  0
   -6.4998    5.4291  -16.3127 C   0  0  0  0  0  0  0  0  0  0  0  0
   -5.3038    6.1850  -15.9672 C   0  0  0  0  0  0  0  0  0  0  0  0
   -4.5650    6.2880  -17.0813 N   0  0  0  0  0  0  0  0  0  0  0  0
   -3.5238    6.9524  -17.2917 O   0  0  0  0  0  0  0  0  0  0  0  0
   -5.2346    5.5383  -18.1415 N   0  0  0  0  0  0  0  0  0  0  0  0
   -4.6744    5.2088  -19.4654 C   0  0  0  0  0  0  0  0  0  0  0  0
   -3.1436    4.9838  -19.5106 C   0  0  0  0  0  0  0  0  0  0  0  0
   -3.1514    5.6716  -20.8267 N   0  0  0  0  0  0  0  0  0  0  0  0
   -4.3680    6.4164  -20.3664 C   0  0  0  0  0  0  0  0  0  0  0  0
   -8.0339    5.7761  -11.0982 C   0  0  0  0  0  0  0  0  0  0  0  0
   -8.0945    5.8113   -9.7157 C   0  0  0  0  0  0  0  0  0  0  0  0
   -8.3425    4.6648   -8.9724 C   0  0  0  0  0  0  0  0  0  0  0  0
   -8.2866    5.0096   -7.5207 C   0  0  0  0  0  0  0  0  0  0  0  0
   -8.2594    6.4951   -7.4473 N   0  0  0  0  0  0  0  0  0  0  0  0
   -7.8712    6.9666   -8.8016 C   0  0  0  0  0  0  0  0  0  0  0  0
  1  2  1  0
  2  3  2  0
  3  4  1  0
  4  5  1  0
  5  6  1  0
  6  7  2  0
  6  8  1  0
  8  9  2  0
  9 10  1  0
 10 11  1  0
 10 12  2  0
 12 13  1  0
 13 14  2  0
 14 15  1  0
 15 16  2  0
 16 17  1  0
 16 18  1  0
 18 19  1  0
 19 20  1  0
 20 21  1  0
 21 22  1  0
  4 23  2  0
 23 24  1  0
 24 25  2  0
 25 26  1  0
 26 27  1  0
 27 28  1  0
 25  2  1  0
 14  8  1  0
 22 19  1  0
 28 24  1  0
 18 13  1  0
M  CHG  2  16   1  17  -1
M  END
>  <smiles>  (2097) 
C31764-P249

>  <fragmenstein_outcome>  (2097) 
acceptable

>  <inchikey>  (2097) 
BOEHZXJIJYYGKW-UHFFFAOYSA-N

>  <fragmenstein_mode>  (2097) 
expansion

>  <HIPPO Pose ID>  (2097) 
25777

>  <Energy>  (2097) 
59.949321

>  <fragmenstein_error>  (2097) 


>  <tags>  (2097) 
{'openbind_xx01zvns2b_c1_fragmenstein', 'fragmenstein_placed'}

>  <ref_pdb>  (2097) 
175

>  <scratch_subdir>  (2097) 
/opt/xchem-fragalysis-2/maxwin/BulkDock/SCRATCH/511028/C31764-P249

>  <alias>  (2097) 
Cc1cc(NC(=O)c2cc(F)cc3c2c[n+]([O-])n3C2CNC2)cc2c1CNC2

>  <HIPPO Compound ID>  (2097) 
25446

>  <fragmenstein_runtime>  (2097) 
7.585254

$$$$
NC1(n2ncc3c(C(=O)Nc4ccc5c(c4)CNC5)cc(F)cc32)CNC1
     RDKit          3D

 27 31  0  0  0  0  0  0  0  0999 V2000
   -5.5728    4.7459  -20.5029 N   0  0  0  0  0  0  0  0  0  0  0  0
   -4.9150    5.5206  -19.4230 C   0  0  0  0  0  0  0  0  0  0  0  0
   -5.3175    5.3343  -18.0006 N   0  0  0  0  0  0  0  0  0  0  0  0
   -4.4398    5.5279  -16.9852 N   0  0  0  0  0  0  0  0  0  0  0  0
   -5.0993    5.1189  -15.9026 C   0  0  0  0  0  0  0  0  0  0  0  0
   -6.4374    4.7844  -16.1771 C   0  0  0  0  0  0  0  0  0  0  0  0
   -7.5367    4.3117  -15.4392 C   0  0  0  0  0  0  0  0  0  0  0  0
   -7.3543    3.8368  -14.0543 C   0  0  0  0  0  0  0  0  0  0  0  0
   -6.8201    2.8149  -13.8893 O   0  0  0  0  0  0  0  0  0  0  0  0
   -8.0247    4.7863  -13.0460 N   0  0  0  0  0  0  0  0  0  0  0  0
   -8.0944    4.7273  -11.6596 C   0  0  0  0  0  0  0  0  0  0  0  0
   -7.9945    3.4792  -11.0168 C   0  0  0  0  0  0  0  0  0  0  0  0
   -8.0655    3.3816   -9.6272 C   0  0  0  0  0  0  0  0  0  0  0  0
   -8.1839    4.5532   -8.9056 C   0  0  0  0  0  0  0  0  0  0  0  0
   -8.2646    5.7920   -9.5390 C   0  0  0  0  0  0  0  0  0  0  0  0
   -8.2618    5.8976  -10.9209 C   0  0  0  0  0  0  0  0  0  0  0  0
   -8.3423    6.8656   -8.5060 C   0  0  0  0  0  0  0  0  0  0  0  0
   -8.0412    6.1982   -7.2072 N   0  0  0  0  0  0  0  0  0  0  0  0
   -8.2605    4.7426   -7.4321 C   0  0  0  0  0  0  0  0  0  0  0  0
   -8.7661    4.1036  -16.0728 C   0  0  0  0  0  0  0  0  0  0  0  0
   -8.8642    4.2725  -17.4407 C   0  0  0  0  0  0  0  0  0  0  0  0
  -10.0104    4.0039  -18.0710 F   0  0  0  0  0  0  0  0  0  0  0  0
   -7.7846    4.6949  -18.2039 C   0  0  0  0  0  0  0  0  0  0  0  0
   -6.5726    4.9633  -17.5567 C   0  0  0  0  0  0  0  0  0  0  0  0
   -3.3759    5.4905  -19.6568 C   0  0  0  0  0  0  0  0  0  0  0  0
   -3.5477    6.6210  -20.6163 N   0  0  0  0  0  0  0  0  0  0  0  0
   -4.7816    6.9992  -19.8604 C   0  0  0  0  0  0  0  0  0  0  0  0
  1  2  1  0
  2  3  1  0
  3  4  1  0
  4  5  2  0
  5  6  1  0
  6  7  2  0
  7  8  1  0
  8  9  2  0
  8 10  1  0
 10 11  1  0
 11 12  2  0
 12 13  1  0
 13 14  2  0
 14 15  1  0
 15 16  2  0
 15 17  1  0
 17 18  1  0
 18 19  1  0
  7 20  1  0
 20 21  2  0
 21 22  1  0
 21 23  1  0
 23 24  2  0
  2 25  1  0
 25 26  1  0
 26 27  1  0
 27  2  1  0
 24  3  1  0
 24  6  1  0
 16 11  1  0
 19 14  1  0
M  END
>  <smiles>  (2098) 
C31728-P249

>  <fragmenstein_outcome>  (2098) 
acceptable

>  <inchikey>  (2098) 
CBRPQJRRWOIAMU-UHFFFAOYSA-N

>  <fragmenstein_mode>  (2098) 
expansion

>  <HIPPO Pose ID>  (2098) 
25779

>  <Energy>  (2098) 
129.817426

>  <fragmenstein_error>  (2098) 


>  <tags>  (2098) 
{'openbind_xx01zvns2b_c1_fragmenstein', 'fragmenstein_placed'}

>  <ref_pdb>  (2098) 
175

>  <scratch_subdir>  (2098) 
/opt/xchem-fragalysis-2/maxwin/BulkDock/SCRATCH/511028/C31728-P249

>  <alias>  (2098) 
NC1(n2ncc3c(C(=O)Nc4ccc5c(c4)CNC5)cc(F)cc32)CNC1

>  <HIPPO Compound ID>  (2098) 
31728

>  <fragmenstein_runtime>  (2098) 
4.28603

$$$$
O=C1NCc2cc(NC(=O)c3cc(F)cc4c3c[n+]([O-])n4C3CNC3)ccc21
     RDKit          3D

 28 32  0  0  0  0  0  0  0  0999 V2000
   -8.8187    4.1764   -6.5550 O   0  0  0  0  0  0  0  0  0  0  0  0
   -8.5898    4.8856   -7.5124 C   0  0  0  0  0  0  0  0  0  0  0  0
   -8.4191    6.2556   -7.4724 N   0  0  0  0  0  0  0  0  0  0  0  0
   -8.2440    6.8411   -8.7769 C   0  0  0  0  0  0  0  0  0  0  0  0
   -8.2780    5.6482   -9.6680 C   0  0  0  0  0  0  0  0  0  0  0  0
   -8.1551    5.5884  -11.0436 C   0  0  0  0  0  0  0  0  0  0  0  0
   -8.2346    4.3399  -11.6738 C   0  0  0  0  0  0  0  0  0  0  0  0
   -8.0558    4.2572  -13.0537 N   0  0  0  0  0  0  0  0  0  0  0  0
   -7.7508    5.3559  -14.0919 C   0  0  0  0  0  0  0  0  0  0  0  0
   -7.5249    6.4926  -13.9473 O   0  0  0  0  0  0  0  0  0  0  0  0
   -7.6362    4.8477  -15.4744 C   0  0  0  0  0  0  0  0  0  0  0  0
   -8.7478    4.3867  -16.1750 C   0  0  0  0  0  0  0  0  0  0  0  0
   -8.6671    4.2401  -17.5532 C   0  0  0  0  0  0  0  0  0  0  0  0
   -9.7517    3.8145  -18.2187 F   0  0  0  0  0  0  0  0  0  0  0  0
   -7.5149    4.5809  -18.2769 C   0  0  0  0  0  0  0  0  0  0  0  0
   -6.3831    4.9981  -17.5598 C   0  0  0  0  0  0  0  0  0  0  0  0
   -6.4028    5.0706  -16.1358 C   0  0  0  0  0  0  0  0  0  0  0  0
   -5.0842    5.4068  -15.6215 C   0  0  0  0  0  0  0  0  0  0  0  0
   -4.2869    5.5515  -16.6826 N   0  0  0  0  0  0  0  0  0  0  0  0
   -3.0636    5.8179  -16.7548 O   0  0  0  0  0  0  0  0  0  0  0  0
   -5.1071    5.4400  -17.8938 N   0  0  0  0  0  0  0  0  0  0  0  0
   -4.7181    6.3007  -19.0235 C   0  0  0  0  0  0  0  0  0  0  0  0
   -3.5002    5.7730  -19.8203 C   0  0  0  0  0  0  0  0  0  0  0  0
   -4.1218    6.4272  -21.0033 N   0  0  0  0  0  0  0  0  0  0  0  0
   -5.4383    6.1813  -20.3554 C   0  0  0  0  0  0  0  0  0  0  0  0
   -8.4404    3.1751  -10.9145 C   0  0  0  0  0  0  0  0  0  0  0  0
   -8.5631    3.2405   -9.5176 C   0  0  0  0  0  0  0  0  0  0  0  0
   -8.4765    4.4859   -8.9248 C   0  0  0  0  0  0  0  0  0  0  0  0
  1  2  2  0
  2  3  1  0
  3  4  1  0
  4  5  1  0
  5  6  2  0
  6  7  1  0
  7  8  1  0
  8  9  1  0
  9 10  2  0
  9 11  1  0
 11 12  2  0
 12 13  1  0
 13 14  1  0
 13 15  2  0
 15 16  1  0
 16 17  2  0
 17 18  1  0
 18 19  2  0
 19 20  1  0
 19 21  1  0
 21 22  1  0
 22 23  1  0
 23 24  1  0
 24 25  1  0
  7 26  2  0
 26 27  1  0
 27 28  2  0
 28  2  1  0
 28  5  1  0
 17 11  1  0
 25 22  1  0
 21 16  1  0
M  CHG  2  19   1  20  -1
M  END
>  <smiles>  (2099) 
C31770-P249

>  <fragmenstein_outcome>  (2099) 
acceptable

>  <inchikey>  (2099) 
RVNJHTOMZKQGLN-UHFFFAOYSA-N

>  <fragmenstein_mode>  (2099) 
expansion

>  <HIPPO Pose ID>  (2099) 
25780

>  <Energy>  (2099) 
52.142066

>  <fragmenstein_error>  (2099) 


>  <tags>  (2099) 
{'openbind_xx01zvns2b_c1_fragmenstein', 'fragmenstein_placed'}

>  <ref_pdb>  (2099) 
175

>  <scratch_subdir>  (2099) 
/opt/xchem-fragalysis-2/maxwin/BulkDock/SCRATCH/511028/C31770-P249

>  <alias>  (2099) 
O=C1NCc2cc(NC(=O)c3cc(F)cc4c3c[n+]([O-])n4C3CNC3)ccc21

>  <HIPPO Compound ID>  (2099) 
31770

>  <fragmenstein_runtime>  (2099) 
3.695319

$$$$
CN1CC(n2ncc3c(C(=O)Nc4ccc5c(c4)CNC5)cc(F)cc32)C1
     RDKit          3D

 27 31  0  0  0  0  0  0  0  0999 V2000
   -2.0501    6.5694  -21.0232 C   0  0  0  0  0  0  0  0  0  0  0  0
   -3.1648    5.6391  -20.8525 N   0  0  0  0  0  0  0  0  0  0  0  0
   -3.1239    5.0278  -19.4896 C   0  0  0  0  0  0  0  0  0  0  0  0
   -4.6676    5.1745  -19.4809 C   0  0  0  0  0  0  0  0  0  0  0  0
   -5.2295    5.5114  -18.1636 N   0  0  0  0  0  0  0  0  0  0  0  0
   -4.5299    6.1706  -17.2186 N   0  0  0  0  0  0  0  0  0  0  0  0
   -5.3134    6.1136  -16.1412 C   0  0  0  0  0  0  0  0  0  0  0  0
   -6.5264    5.4331  -16.3811 C   0  0  0  0  0  0  0  0  0  0  0  0
   -7.6657    5.0867  -15.6223 C   0  0  0  0  0  0  0  0  0  0  0  0
   -7.7569    5.5643  -14.2211 C   0  0  0  0  0  0  0  0  0  0  0  0
   -7.4715    6.6777  -14.0149 O   0  0  0  0  0  0  0  0  0  0  0  0
   -8.1801    4.4418  -13.2468 N   0  0  0  0  0  0  0  0  0  0  0  0
   -8.2466    4.4288  -11.8537 C   0  0  0  0  0  0  0  0  0  0  0  0
   -8.4467    3.2038  -11.1981 C   0  0  0  0  0  0  0  0  0  0  0  0
   -8.4678    3.1297   -9.8020 C   0  0  0  0  0  0  0  0  0  0  0  0
   -8.3039    4.2989   -9.0844 C   0  0  0  0  0  0  0  0  0  0  0  0
   -8.1215    5.5173   -9.7280 C   0  0  0  0  0  0  0  0  0  0  0  0
   -8.0838    5.6014  -11.1114 C   0  0  0  0  0  0  0  0  0  0  0  0
   -7.9385    6.5905   -8.7095 C   0  0  0  0  0  0  0  0  0  0  0  0
   -8.2926    5.9720   -7.3997 N   0  0  0  0  0  0  0  0  0  0  0  0
   -8.2348    4.4989   -7.6113 C   0  0  0  0  0  0  0  0  0  0  0  0
   -8.7092    4.3893  -16.2392 C   0  0  0  0  0  0  0  0  0  0  0  0
   -8.6182    4.0794  -17.5914 C   0  0  0  0  0  0  0  0  0  0  0  0
   -9.6193    3.4266  -18.1869 F   0  0  0  0  0  0  0  0  0  0  0  0
   -7.5117    4.4138  -18.3670 C   0  0  0  0  0  0  0  0  0  0  0  0
   -6.4630    5.0801  -17.7284 C   0  0  0  0  0  0  0  0  0  0  0  0
   -4.3927    6.3862  -20.3926 C   0  0  0  0  0  0  0  0  0  0  0  0
  1  2  1  0
  2  3  1  0
  3  4  1  0
  4  5  1  0
  5  6  1  0
  6  7  2  0
  7  8  1  0
  8  9  2  0
  9 10  1  0
 10 11  2  0
 10 12  1  0
 12 13  1  0
 13 14  2  0
 14 15  1  0
 15 16  2  0
 16 17  1  0
 17 18  2  0
 17 19  1  0
 19 20  1  0
 20 21  1  0
  9 22  1  0
 22 23  2  0
 23 24  1  0
 23 25  1  0
 25 26  2  0
  4 27  1  0
 27  2  1  0
 26  5  1  0
 26  8  1  0
 18 13  1  0
 21 16  1  0
M  END
>  <smiles>  (2100) 
C31787-P249

>  <fragmenstein_outcome>  (2100) 
acceptable

>  <inchikey>  (2100) 
MDPBQGJKNCYZOS-UHFFFAOYSA-N

>  <fragmenstein_mode>  (2100) 
expansion

>  <HIPPO Pose ID>  (2100) 
25794

>  <Energy>  (2100) 
59.582448

>  <fragmenstein_error>  (2100) 


>  <tags>  (2100) 
{'openbind_xx01zvns2b_c1_fragmenstein', 'fragmenstein_placed'}

>  <ref_pdb>  (2100) 
175

>  <scratch_subdir>  (2100) 
/opt/xchem-fragalysis-2/maxwin/BulkDock/SCRATCH/511028/C31787-P249

>  <alias>  (2100) 
CN1CC(n2ncc3c(C(=O)Nc4ccc5c(c4)CNC5)cc(F)cc32)C1

>  <HIPPO Compound ID>  (2100) 
39986

>  <fragmenstein_runtime>  (2100) 
3.688078

$$$$
O=C(Nc1ccc2c(c1)CNC2)c1cc(F)cc2c(C3CNC3)n(CC3CCNCC3)cc12
     RDKit          3D

 33 38  0  0  0  0  0  0  0  0999 V2000
   -7.7123    6.6857  -13.8431 O   0  0  0  0  0  0  0  0  0  0  0  0
   -7.9231    5.5605  -14.0709 C   0  0  0  0  0  0  0  0  0  0  0  0
   -8.2605    4.3938  -13.1197 N   0  0  0  0  0  0  0  0  0  0  0  0
   -8.3145    4.3471  -11.7280 C   0  0  0  0  0  0  0  0  0  0  0  0
   -8.4979    3.1075  -11.0977 C   0  0  0  0  0  0  0  0  0  0  0  0
   -8.5240    3.0046   -9.7037 C   0  0  0  0  0  0  0  0  0  0  0  0
   -8.3504    4.1561   -8.9634 C   0  0  0  0  0  0  0  0  0  0  0  0
   -8.1659    5.3870   -9.5834 C   0  0  0  0  0  0  0  0  0  0  0  0
   -8.1543    5.5048  -10.9633 C   0  0  0  0  0  0  0  0  0  0  0  0
   -8.0234    6.4402   -8.5407 C   0  0  0  0  0  0  0  0  0  0  0  0
   -7.8018    5.7082   -7.2621 N   0  0  0  0  0  0  0  0  0  0  0  0
   -8.3500    4.3394   -7.4854 C   0  0  0  0  0  0  0  0  0  0  0  0
   -7.7638    5.0994  -15.4598 C   0  0  0  0  0  0  0  0  0  0  0  0
   -8.7461    4.4388  -16.2180 C   0  0  0  0  0  0  0  0  0  0  0  0
   -8.5759    4.1398  -17.6080 C   0  0  0  0  0  0  0  0  0  0  0  0
   -9.5875    3.5069  -18.2216 F   0  0  0  0  0  0  0  0  0  0  0  0
   -7.4268    4.4455  -18.3774 C   0  0  0  0  0  0  0  0  0  0  0  0
   -6.4446    5.0504  -17.5921 C   0  0  0  0  0  0  0  0  0  0  0  0
   -5.1534    5.4084  -17.9533 C   0  0  0  0  0  0  0  0  0  0  0  0
   -4.5632    5.1541  -19.3866 C   0  0  0  0  0  0  0  0  0  0  0  0
   -3.0511    5.2940  -19.6742 C   0  0  0  0  0  0  0  0  0  0  0  0
   -3.4077    5.7869  -21.0193 N   0  0  0  0  0  0  0  0  0  0  0  0
   -4.6976    6.2777  -20.4328 C   0  0  0  0  0  0  0  0  0  0  0  0
   -4.5500    5.9101  -16.8075 N   0  0  0  0  0  0  0  0  0  0  0  0
   -3.1681    6.2814  -16.5678 C   0  0  0  0  0  0  0  0  0  0  0  0
   -2.8383    7.7904  -16.5652 C   0  0  0  0  0  0  0  0  0  0  0  0
   -3.3041    8.5437  -17.8191 C   0  0  0  0  0  0  0  0  0  0  0  0
   -3.3064   10.0511  -17.5789 C   0  0  0  0  0  0  0  0  0  0  0  0
   -4.2639   10.4482  -16.5467 N   0  0  0  0  0  0  0  0  0  0  0  0
   -4.5044    9.4247  -15.5266 C   0  0  0  0  0  0  0  0  0  0  0  0
   -3.2984    8.5199  -15.2833 C   0  0  0  0  0  0  0  0  0  0  0  0
   -5.4466    5.8811  -15.7588 C   0  0  0  0  0  0  0  0  0  0  0  0
   -6.6195    5.3552  -16.2147 C   0  0  0  0  0  0  0  0  0  0  0  0
  1  2  2  0
  2  3  1  0
  3  4  1  0
  4  5  2  0
  5  6  1  0
  6  7  2  0
  7  8  1  0
  8  9  2  0
  8 10  1  0
 10 11  1  0
 11 12  1  0
  2 13  1  0
 13 14  2  0
 14 15  1  0
 15 16  1  0
 15 17  2  0
 17 18  1  0
 18 19  2  0
 19 20  1  0
 20 21  1  0
 21 22  1  0
 22 23  1  0
 19 24  1  0
 24 25  1  0
 25 26  1  0
 26 27  1  0
 27 28  1  0
 28 29  1  0
 29 30  1  0
 30 31  1  0
 24 32  1  0
 32 33  2  0
  9  4  1  0
 33 13  1  0
 12  7  1  0
 33 18  1  0
 23 20  1  0
 31 26  1  0
M  END
>  <smiles>  (2101) 
C31789-P249

>  <fragmenstein_outcome>  (2101) 
acceptable

>  <inchikey>  (2101) 
KLDLPIVBBFAOPM-UHFFFAOYSA-N

>  <fragmenstein_mode>  (2101) 
expansion

>  <HIPPO Pose ID>  (2101) 
25796

>  <Energy>  (2101) 
92.74343

>  <fragmenstein_error>  (2101) 


>  <tags>  (2101) 
{'openbind_xx01zvns2b_c1_fragmenstein', 'fragmenstein_placed'}

>  <ref_pdb>  (2101) 
175

>  <scratch_subdir>  (2101) 
/opt/xchem-fragalysis-2/maxwin/BulkDock/SCRATCH/511028/C31789-P249

>  <alias>  (2101) 
O=C(Nc1ccc2c(c1)CNC2)c1cc(F)cc2c(C3CNC3)n(CC3CCNCC3)cc12

>  <HIPPO Compound ID>  (2101) 
28232

>  <fragmenstein_runtime>  (2101) 
4.850853

$$$$
O=C(Nc1ccc2c(c1)CNC2)c1cc(F)cc2c(C3CNC3)n(CC3CNC3)cc12
     RDKit          3D

 31 36  0  0  0  0  0  0  0  0999 V2000
   -7.5707    6.6507  -13.7899 O   0  0  0  0  0  0  0  0  0  0  0  0
   -7.8104    5.5261  -13.9909 C   0  0  0  0  0  0  0  0  0  0  0  0
   -8.2048    4.3976  -13.0153 N   0  0  0  0  0  0  0  0  0  0  0  0
   -8.2919    4.3928  -11.6248 C   0  0  0  0  0  0  0  0  0  0  0  0
   -8.1335    5.5846  -10.8954 C   0  0  0  0  0  0  0  0  0  0  0  0
   -8.2190    5.5919   -9.5005 C   0  0  0  0  0  0  0  0  0  0  0  0
   -8.4768    4.3962   -8.8606 C   0  0  0  0  0  0  0  0  0  0  0  0
   -8.6282    3.2138   -9.5790 C   0  0  0  0  0  0  0  0  0  0  0  0
   -8.5309    3.1896  -10.9605 C   0  0  0  0  0  0  0  0  0  0  0  0
   -8.8845    2.0983   -8.6210 C   0  0  0  0  0  0  0  0  0  0  0  0
   -9.2638    2.7644   -7.3451 N   0  0  0  0  0  0  0  0  0  0  0  0
   -8.6350    4.1032   -7.4070 C   0  0  0  0  0  0  0  0  0  0  0  0
   -7.6966    5.0420  -15.3745 C   0  0  0  0  0  0  0  0  0  0  0  0
   -8.7257    4.3990  -16.0874 C   0  0  0  0  0  0  0  0  0  0  0  0
   -8.6420    4.1257  -17.4892 C   0  0  0  0  0  0  0  0  0  0  0  0
   -9.6912    3.5104  -18.0559 F   0  0  0  0  0  0  0  0  0  0  0  0
   -7.5464    4.4564  -18.3201 C   0  0  0  0  0  0  0  0  0  0  0  0
   -6.5175    5.0434  -17.5831 C   0  0  0  0  0  0  0  0  0  0  0  0
   -5.2880    5.4926  -18.0355 C   0  0  0  0  0  0  0  0  0  0  0  0
   -4.8855    5.5053  -19.5505 C   0  0  0  0  0  0  0  0  0  0  0  0
   -3.4268    5.6801  -20.0042 C   0  0  0  0  0  0  0  0  0  0  0  0
   -3.9140    6.5413  -21.1122 N   0  0  0  0  0  0  0  0  0  0  0  0
   -5.0963    6.8581  -20.2670 C   0  0  0  0  0  0  0  0  0  0  0  0
   -4.5924    5.9285  -16.9181 N   0  0  0  0  0  0  0  0  0  0  0  0
   -3.2001    6.3514  -16.7931 C   0  0  0  0  0  0  0  0  0  0  0  0
   -2.9888    7.8245  -17.1027 C   0  0  0  0  0  0  0  0  0  0  0  0
   -3.4086    8.8468  -16.0264 C   0  0  0  0  0  0  0  0  0  0  0  0
   -2.0128    8.8868  -15.5483 N   0  0  0  0  0  0  0  0  0  0  0  0
   -1.5589    8.3338  -16.8380 C   0  0  0  0  0  0  0  0  0  0  0  0
   -5.4048    5.8591  -15.8042 C   0  0  0  0  0  0  0  0  0  0  0  0
   -6.5967    5.3124  -16.1885 C   0  0  0  0  0  0  0  0  0  0  0  0
  1  2  2  0
  2  3  1  0
  3  4  1  0
  4  5  2  0
  5  6  1  0
  6  7  2  0
  7  8  1  0
  8  9  2  0
  8 10  1  0
 10 11  1  0
 11 12  1  0
  2 13  1  0
 13 14  2  0
 14 15  1  0
 15 16  1  0
 15 17  2  0
 17 18  1  0
 18 19  2  0
 19 20  1  0
 20 21  1  0
 21 22  1  0
 22 23  1  0
 19 24  1  0
 24 25  1  0
 25 26  1  0
 26 27  1  0
 27 28  1  0
 28 29  1  0
 24 30  1  0
 30 31  2  0
  9  4  1  0
 31 13  1  0
 12  7  1  0
 31 18  1  0
 23 20  1  0
 29 26  1  0
M  END
>  <smiles>  (2102) 
C31791-P249

>  <fragmenstein_outcome>  (2102) 
acceptable

>  <inchikey>  (2102) 
YOPBLNOEGMGDDQ-UHFFFAOYSA-N

>  <fragmenstein_mode>  (2102) 
expansion

>  <HIPPO Pose ID>  (2102) 
25797

>  <Energy>  (2102) 
92.023511

>  <fragmenstein_error>  (2102) 


>  <tags>  (2102) 
{'openbind_xx01zvns2b_c1_fragmenstein', 'fragmenstein_placed'}

>  <ref_pdb>  (2102) 
175

>  <scratch_subdir>  (2102) 
/opt/xchem-fragalysis-2/maxwin/BulkDock/SCRATCH/511028/C31791-P249

>  <alias>  (2102) 
O=C(Nc1ccc2c(c1)CNC2)c1cc(F)cc2c(C3CNC3)n(CC3CNC3)cc12

>  <HIPPO Compound ID>  (2102) 
31791

>  <fragmenstein_runtime>  (2102) 
4.395514

$$$$
CC1(C)Cc2c3c(cc(NC(=O)c4cc(F)cc5c4cnn5C4CNC4)c2O1)CNC3
     RDKit          3D

 31 36  0  0  0  0  0  0  0  0999 V2000
   -8.7905    9.0128  -10.4926 C   0  0  0  0  0  0  0  0  0  0  0  0
   -7.8748    7.7941  -10.3667 C   0  0  0  0  0  0  0  0  0  0  0  0
   -6.4082    8.2292  -10.4728 C   0  0  0  0  0  0  0  0  0  0  0  0
   -8.1481    7.0249   -9.0599 C   0  0  0  0  0  0  0  0  0  0  0  0
   -8.2338    5.6463   -9.5863 C   0  0  0  0  0  0  0  0  0  0  0  0
   -8.3868    4.4611   -8.9124 C   0  0  0  0  0  0  0  0  0  0  0  0
   -8.5408    3.2852   -9.6331 C   0  0  0  0  0  0  0  0  0  0  0  0
   -8.5129    3.2701  -11.0293 C   0  0  0  0  0  0  0  0  0  0  0  0
   -8.3313    4.4738  -11.7258 C   0  0  0  0  0  0  0  0  0  0  0  0
   -8.2632    4.4278  -13.1245 N   0  0  0  0  0  0  0  0  0  0  0  0
   -7.7545    5.4790  -14.1419 C   0  0  0  0  0  0  0  0  0  0  0  0
   -7.3851    6.5756  -13.9775 O   0  0  0  0  0  0  0  0  0  0  0  0
   -7.7250    4.9765  -15.5358 C   0  0  0  0  0  0  0  0  0  0  0  0
   -8.8053    4.3054  -16.1138 C   0  0  0  0  0  0  0  0  0  0  0  0
   -8.7938    4.0209  -17.4744 C   0  0  0  0  0  0  0  0  0  0  0  0
   -9.8361    3.3786  -18.0155 F   0  0  0  0  0  0  0  0  0  0  0  0
   -7.7343    4.3827  -18.3053 C   0  0  0  0  0  0  0  0  0  0  0  0
   -6.6441    5.0261  -17.7074 C   0  0  0  0  0  0  0  0  0  0  0  0
   -6.6194    5.3177  -16.3441 C   0  0  0  0  0  0  0  0  0  0  0  0
   -5.3778    5.9577  -16.1403 C   0  0  0  0  0  0  0  0  0  0  0  0
   -4.6608    6.0568  -17.2583 N   0  0  0  0  0  0  0  0  0  0  0  0
   -5.4578    5.5210  -18.2027 N   0  0  0  0  0  0  0  0  0  0  0  0
   -5.0907    5.4944  -19.6253 C   0  0  0  0  0  0  0  0  0  0  0  0
   -3.5771    5.5424  -19.9047 C   0  0  0  0  0  0  0  0  0  0  0  0
   -3.8758    6.4673  -21.0386 N   0  0  0  0  0  0  0  0  0  0  0  0
   -5.0838    6.8922  -20.2717 C   0  0  0  0  0  0  0  0  0  0  0  0
   -8.2191    5.6483  -10.9769 C   0  0  0  0  0  0  0  0  0  0  0  0
   -8.1559    6.9190  -11.4886 O   0  0  0  0  0  0  0  0  0  0  0  0
   -8.7322    2.1502   -8.6836 C   0  0  0  0  0  0  0  0  0  0  0  0
   -8.7353    2.7390   -7.3164 N   0  0  0  0  0  0  0  0  0  0  0  0
   -8.4505    4.1803   -7.4556 C   0  0  0  0  0  0  0  0  0  0  0  0
  1  2  1  0
  2  3  1  0
  2  4  1  0
  4  5  1  0
  5  6  2  0
  6  7  1  0
  7  8  2  0
  8  9  1  0
  9 10  1  0
 10 11  1  0
 11 12  2  0
 11 13  1  0
 13 14  2  0
 14 15  1  0
 15 16  1  0
 15 17  2  0
 17 18  1  0
 18 19  2  0
 19 20  1  0
 20 21  2  0
 21 22  1  0
 22 23  1  0
 23 24  1  0
 24 25  1  0
 25 26  1  0
  9 27  2  0
 27 28  1  0
  7 29  1  0
 29 30  1  0
 30 31  1  0
 28  2  1  0
 27  5  1  0
 31  6  1  0
 19 13  1  0
 26 23  1  0
 22 18  1  0
M  END
>  <smiles>  (2103) 
C31796-P249

>  <fragmenstein_outcome>  (2103) 
acceptable

>  <inchikey>  (2103) 
ACNJMKFQIZKURE-UHFFFAOYSA-N

>  <fragmenstein_mode>  (2103) 
expansion

>  <HIPPO Pose ID>  (2103) 
25800

>  <Energy>  (2103) 
93.578357

>  <fragmenstein_error>  (2103) 


>  <tags>  (2103) 
{'openbind_xx01zvns2b_c1_fragmenstein', 'fragmenstein_placed'}

>  <ref_pdb>  (2103) 
175

>  <scratch_subdir>  (2103) 
/opt/xchem-fragalysis-2/maxwin/BulkDock/SCRATCH/511028/C31796-P249

>  <alias>  (2103) 
CC1(C)Cc2c3c(cc(NC(=O)c4cc(F)cc5c4cnn5C4CNC4)c2O1)CNC3

>  <HIPPO Compound ID>  (2103) 
21417

>  <fragmenstein_runtime>  (2103) 
5.630289

$$$$
CN(C)Cn1cc2c(C(=O)Nc3ccc4c(c3)CNC4)cc(F)cc2c1C1CNC1
     RDKit          3D

 30 34  0  0  0  0  0  0  0  0999 V2000
   -3.3881    8.6937  -16.9760 C   0  0  0  0  0  0  0  0  0  0  0  0
   -3.1419    7.8695  -15.8023 N   0  0  0  0  0  0  0  0  0  0  0  0
   -3.8568    8.3774  -14.6369 C   0  0  0  0  0  0  0  0  0  0  0  0
   -3.2939    6.4240  -16.0254 C   0  0  0  0  0  0  0  0  0  0  0  0
   -4.6632    6.0342  -16.3603 N   0  0  0  0  0  0  0  0  0  0  0  0
   -5.6112    5.7897  -15.3975 C   0  0  0  0  0  0  0  0  0  0  0  0
   -6.7176    5.3015  -16.0294 C   0  0  0  0  0  0  0  0  0  0  0  0
   -7.9189    4.9680  -15.4091 C   0  0  0  0  0  0  0  0  0  0  0  0
   -8.2115    5.4231  -14.0441 C   0  0  0  0  0  0  0  0  0  0  0  0
   -8.2920    6.5729  -13.8692 O   0  0  0  0  0  0  0  0  0  0  0  0
   -8.2624    4.2573  -13.0447 N   0  0  0  0  0  0  0  0  0  0  0  0
   -8.3258    4.2603  -11.6538 C   0  0  0  0  0  0  0  0  0  0  0  0
   -8.3480    3.0379  -10.9709 C   0  0  0  0  0  0  0  0  0  0  0  0
   -8.3518    2.9986   -9.5737 C   0  0  0  0  0  0  0  0  0  0  0  0
   -8.3003    4.1966   -8.8865 C   0  0  0  0  0  0  0  0  0  0  0  0
   -8.2643    5.4124   -9.5591 C   0  0  0  0  0  0  0  0  0  0  0  0
   -8.2963    5.4642  -10.9419 C   0  0  0  0  0  0  0  0  0  0  0  0
   -8.1992    6.5250   -8.5690 C   0  0  0  0  0  0  0  0  0  0  0  0
   -7.9030    5.8732   -7.2592 N   0  0  0  0  0  0  0  0  0  0  0  0
   -8.2934    4.4442   -7.4197 C   0  0  0  0  0  0  0  0  0  0  0  0
   -8.8225    4.3791  -16.3030 C   0  0  0  0  0  0  0  0  0  0  0  0
   -8.5234    4.2189  -17.6951 C   0  0  0  0  0  0  0  0  0  0  0  0
   -9.4684    3.6472  -18.4564 F   0  0  0  0  0  0  0  0  0  0  0  0
   -7.3275    4.6368  -18.3374 C   0  0  0  0  0  0  0  0  0  0  0  0
   -6.4239    5.1736  -17.4201 C   0  0  0  0  0  0  0  0  0  0  0  0
   -5.1693    5.7211  -17.6172 C   0  0  0  0  0  0  0  0  0  0  0  0
   -4.3747    6.0349  -18.9162 C   0  0  0  0  0  0  0  0  0  0  0  0
   -4.2560    4.9977  -20.0218 C   0  0  0  0  0  0  0  0  0  0  0  0
   -4.2338    6.1348  -20.9831 N   0  0  0  0  0  0  0  0  0  0  0  0
   -5.0431    6.9005  -19.9945 C   0  0  0  0  0  0  0  0  0  0  0  0
  1  2  1  0
  2  3  1  0
  2  4  1  0
  4  5  1  0
  5  6  1  0
  6  7  2  0
  7  8  1  0
  8  9  1  0
  9 10  2  0
  9 11  1  0
 11 12  1  0
 12 13  2  0
 13 14  1  0
 14 15  2  0
 15 16  1  0
 16 17  2  0
 16 18  1  0
 18 19  1  0
 19 20  1  0
  8 21  2  0
 21 22  1  0
 22 23  1  0
 22 24  2  0
 24 25  1  0
 25 26  2  0
 26 27  1  0
 27 28  1  0
 28 29  1  0
 29 30  1  0
 26  5  1  0
 30 27  1  0
 25  7  1  0
 17 12  1  0
 20 15  1  0
M  END
>  <smiles>  (2104) 
C31790-P249

>  <fragmenstein_outcome>  (2104) 
acceptable

>  <inchikey>  (2104) 
GCPGRRRCYMYGOK-UHFFFAOYSA-N

>  <fragmenstein_mode>  (2104) 
expansion

>  <HIPPO Pose ID>  (2104) 
25802

>  <Energy>  (2104) 
107.934811

>  <fragmenstein_error>  (2104) 


>  <tags>  (2104) 
{'openbind_xx01zvns2b_c1_fragmenstein', 'fragmenstein_placed'}

>  <ref_pdb>  (2104) 
175

>  <scratch_subdir>  (2104) 
/opt/xchem-fragalysis-2/maxwin/BulkDock/SCRATCH/511028/C31790-P249

>  <alias>  (2104) 
CN(C)Cn1cc2c(C(=O)Nc3ccc4c(c3)CNC4)cc(F)cc2c1C1CNC1

>  <HIPPO Compound ID>  (2104) 
31790

>  <fragmenstein_runtime>  (2104) 
7.343781

$$$$
CC1(C)CC(n2ncc3c(C(=O)Nc4ccc5c(c4)CNC5)cc(F)cc32)C1
     RDKit          3D

 28 32  0  0  0  0  0  0  0  0999 V2000
   -2.9484    7.1785  -21.6900 C   0  0  0  0  0  0  0  0  0  0  0  0
   -3.5680    7.0311  -20.3026 C   0  0  0  0  0  0  0  0  0  0  0  0
   -3.1130    8.1774  -19.3968 C   0  0  0  0  0  0  0  0  0  0  0  0
   -3.3927    5.6167  -19.6871 C   0  0  0  0  0  0  0  0  0  0  0  0
   -4.9261    5.4766  -19.5423 C   0  0  0  0  0  0  0  0  0  0  0  0
   -5.4031    5.5410  -18.1352 N   0  0  0  0  0  0  0  0  0  0  0  0
   -4.6651    6.1069  -17.1584 N   0  0  0  0  0  0  0  0  0  0  0  0
   -5.4299    6.0091  -16.0747 C   0  0  0  0  0  0  0  0  0  0  0  0
   -6.6505    5.3543  -16.3307 C   0  0  0  0  0  0  0  0  0  0  0  0
   -7.7804    5.0025  -15.5675 C   0  0  0  0  0  0  0  0  0  0  0  0
   -7.8693    5.4853  -14.1722 C   0  0  0  0  0  0  0  0  0  0  0  0
   -7.6801    6.6218  -13.9854 O   0  0  0  0  0  0  0  0  0  0  0  0
   -8.1924    4.3485  -13.1799 N   0  0  0  0  0  0  0  0  0  0  0  0
   -8.2549    4.3527  -11.7888 C   0  0  0  0  0  0  0  0  0  0  0  0
   -8.4698    3.1378  -11.1218 C   0  0  0  0  0  0  0  0  0  0  0  0
   -8.4969    3.0792   -9.7264 C   0  0  0  0  0  0  0  0  0  0  0  0
   -8.3239    4.2547   -9.0226 C   0  0  0  0  0  0  0  0  0  0  0  0
   -8.1230    5.4641   -9.6771 C   0  0  0  0  0  0  0  0  0  0  0  0
   -8.0771    5.5317  -11.0601 C   0  0  0  0  0  0  0  0  0  0  0  0
   -7.9351    6.5454   -8.6687 C   0  0  0  0  0  0  0  0  0  0  0  0
   -8.3092    5.9450   -7.3561 N   0  0  0  0  0  0  0  0  0  0  0  0
   -8.2645    4.4687   -7.5527 C   0  0  0  0  0  0  0  0  0  0  0  0
   -8.8299    4.3164  -16.1773 C   0  0  0  0  0  0  0  0  0  0  0  0
   -8.7651    4.0273  -17.5338 C   0  0  0  0  0  0  0  0  0  0  0  0
   -9.7895    3.3760  -18.0968 F   0  0  0  0  0  0  0  0  0  0  0  0
   -7.6745    4.3902  -18.3277 C   0  0  0  0  0  0  0  0  0  0  0  0
   -6.6127    5.0487  -17.6925 C   0  0  0  0  0  0  0  0  0  0  0  0
   -5.1056    6.8136  -20.2911 C   0  0  0  0  0  0  0  0  0  0  0  0
  1  2  1  0
  2  3  1  0
  2  4  1  0
  4  5  1  0
  5  6  1  0
  6  7  1  0
  7  8  2  0
  8  9  1  0
  9 10  2  0
 10 11  1  0
 11 12  2  0
 11 13  1  0
 13 14  1  0
 14 15  2  0
 15 16  1  0
 16 17  2  0
 17 18  1  0
 18 19  2  0
 18 20  1  0
 20 21  1  0
 21 22  1  0
 10 23  1  0
 23 24  2  0
 24 25  1  0
 24 26  1  0
 26 27  2  0
  5 28  1  0
 28  2  1  0
 27  6  1  0
 27  9  1  0
 19 14  1  0
 22 17  1  0
M  END
>  <smiles>  (2105) 
C31806-P249

>  <fragmenstein_outcome>  (2105) 
acceptable

>  <inchikey>  (2105) 
RLCOBEMAUWYZDL-UHFFFAOYSA-N

>  <fragmenstein_mode>  (2105) 
expansion

>  <HIPPO Pose ID>  (2105) 
25805

>  <Energy>  (2105) 
67.679529

>  <fragmenstein_error>  (2105) 


>  <tags>  (2105) 
{'openbind_xx01zvns2b_c1_fragmenstein', 'fragmenstein_placed'}

>  <ref_pdb>  (2105) 
175

>  <scratch_subdir>  (2105) 
/opt/xchem-fragalysis-2/maxwin/BulkDock/SCRATCH/511028/C31806-P249

>  <alias>  (2105) 
CC1(C)CC(n2ncc3c(C(=O)Nc4ccc5c(c4)CNC5)cc(F)cc32)C1

>  <HIPPO Compound ID>  (2105) 
31806

>  <fragmenstein_runtime>  (2105) 
4.52712

$$$$
Cc1cc(NC(=O)c2cc(F)cc3c2cnn3C2CNC2)cc2c1CNC2
     RDKit          3D

 27 31  0  0  0  0  0  0  0  0999 V2000
   -8.0435    6.9644   -8.9056 C   0  0  0  0  0  0  0  0  0  0  0  0
   -8.1906    5.6781   -9.6579 C   0  0  0  0  0  0  0  0  0  0  0  0
   -8.0832    5.6499  -11.0591 C   0  0  0  0  0  0  0  0  0  0  0  0
   -8.2104    4.4500  -11.7793 C   0  0  0  0  0  0  0  0  0  0  0  0
   -8.0539    4.4261  -13.1654 N   0  0  0  0  0  0  0  0  0  0  0  0
   -7.6792    5.5553  -14.1537 C   0  0  0  0  0  0  0  0  0  0  0  0
   -7.3679    6.6636  -13.9544 O   0  0  0  0  0  0  0  0  0  0  0  0
   -7.6280    5.0831  -15.5579 C   0  0  0  0  0  0  0  0  0  0  0  0
   -8.6919    4.4023  -16.1537 C   0  0  0  0  0  0  0  0  0  0  0  0
   -8.6346    4.1012  -17.5096 C   0  0  0  0  0  0  0  0  0  0  0  0
   -9.6645    3.4738  -18.0823 F   0  0  0  0  0  0  0  0  0  0  0  0
   -7.5404    4.4249  -18.3103 C   0  0  0  0  0  0  0  0  0  0  0  0
   -6.4694    5.0756  -17.6914 C   0  0  0  0  0  0  0  0  0  0  0  0
   -6.5022    5.4213  -16.3405 C   0  0  0  0  0  0  0  0  0  0  0  0
   -5.2789    6.0890  -16.1194 C   0  0  0  0  0  0  0  0  0  0  0  0
   -4.5165    6.1460  -17.2109 N   0  0  0  0  0  0  0  0  0  0  0  0
   -5.2399    5.4994  -18.1471 N   0  0  0  0  0  0  0  0  0  0  0  0
   -4.7004    5.1777  -19.4790 C   0  0  0  0  0  0  0  0  0  0  0  0
   -3.1570    5.0637  -19.5175 C   0  0  0  0  0  0  0  0  0  0  0  0
   -3.2135    5.7191  -20.8515 N   0  0  0  0  0  0  0  0  0  0  0  0
   -4.4681    6.3993  -20.3833 C   0  0  0  0  0  0  0  0  0  0  0  0
   -8.4558    3.2553  -11.1027 C   0  0  0  0  0  0  0  0  0  0  0  0
   -8.5376    3.2844   -9.7177 C   0  0  0  0  0  0  0  0  0  0  0  0
   -8.3926    4.4686   -9.0053 C   0  0  0  0  0  0  0  0  0  0  0  0
   -8.4959    4.1787   -7.5453 C   0  0  0  0  0  0  0  0  0  0  0  0
   -8.7145    2.7243   -7.4058 N   0  0  0  0  0  0  0  0  0  0  0  0
   -8.7650    2.1542   -8.7736 C   0  0  0  0  0  0  0  0  0  0  0  0
  1  2  1  0
  2  3  2  0
  3  4  1  0
  4  5  1  0
  5  6  1  0
  6  7  2  0
  6  8  1  0
  8  9  2  0
  9 10  1  0
 10 11  1  0
 10 12  2  0
 12 13  1  0
 13 14  2  0
 14 15  1  0
 15 16  2  0
 16 17  1  0
 17 18  1  0
 18 19  1  0
 19 20  1  0
 20 21  1  0
  4 22  2  0
 22 23  1  0
 23 24  2  0
 24 25  1  0
 25 26  1  0
 26 27  1  0
 24  2  1  0
 14  8  1  0
 21 18  1  0
 27 23  1  0
 17 13  1  0
M  END
>  <smiles>  (2106) 
C31807-P249

>  <fragmenstein_outcome>  (2106) 
acceptable

>  <inchikey>  (2106) 
QZDBJTHFHKUECW-UHFFFAOYSA-N

>  <fragmenstein_mode>  (2106) 
expansion

>  <HIPPO Pose ID>  (2106) 
25808

>  <Energy>  (2106) 
58.478417

>  <fragmenstein_error>  (2106) 


>  <tags>  (2106) 
{'openbind_xx01zvns2b_c1_fragmenstein', 'fragmenstein_placed'}

>  <ref_pdb>  (2106) 
175

>  <scratch_subdir>  (2106) 
/opt/xchem-fragalysis-2/maxwin/BulkDock/SCRATCH/511028/C31807-P249

>  <alias>  (2106) 
Cc1cc(NC(=O)c2cc(F)cc3c2cnn3C2CNC2)cc2c1CNC2

>  <HIPPO Compound ID>  (2106) 
43525

>  <fragmenstein_runtime>  (2106) 
4.532532

$$$$
C[C@@H]1NC[C@@H]1n1ncc2c(C(=O)Nc3ccc4c(c3)CNC4)cc(F)cc21
     RDKit          3D

 27 31  0  0  0  0  0  0  0  0999 V2000
   -3.8094    7.7328  -19.4780 C   0  0  0  0  0  0  0  0  0  0  0  0
   -3.4593    6.2472  -19.5013 C   0  0  2  0  0  0  0  0  0  0  0  0
   -3.7442    5.6261  -20.8319 N   0  0  0  0  0  0  0  0  0  0  0  0
   -5.0577    5.1933  -20.2718 C   0  0  0  0  0  0  0  0  0  0  0  0
   -4.3877    5.1435  -18.9062 C   0  0  2  0  0  0  0  0  0  0  0  0
   -5.1906    5.5692  -17.7577 N   0  0  0  0  0  0  0  0  0  0  0  0
   -4.5765    6.2256  -16.7530 N   0  0  0  0  0  0  0  0  0  0  0  0
   -5.4401    6.1579  -15.7454 C   0  0  0  0  0  0  0  0  0  0  0  0
   -6.6155    5.4577  -16.0833 C   0  0  0  0  0  0  0  0  0  0  0  0
   -7.7891    5.0865  -15.3949 C   0  0  0  0  0  0  0  0  0  0  0  0
   -7.9547    5.5588  -14.0011 C   0  0  0  0  0  0  0  0  0  0  0  0
   -7.7430    6.6890  -13.7965 O   0  0  0  0  0  0  0  0  0  0  0  0
   -8.2964    4.4110  -13.0245 N   0  0  0  0  0  0  0  0  0  0  0  0
   -8.3539    4.3941  -11.6298 C   0  0  0  0  0  0  0  0  0  0  0  0
   -8.1862    5.5780  -10.8928 C   0  0  0  0  0  0  0  0  0  0  0  0
   -8.2200    5.5654   -9.4948 C   0  0  0  0  0  0  0  0  0  0  0  0
   -8.4279    4.3580   -8.8539 C   0  0  0  0  0  0  0  0  0  0  0  0
   -8.6011    3.1864   -9.5766 C   0  0  0  0  0  0  0  0  0  0  0  0
   -8.5610    3.1833  -10.9649 C   0  0  0  0  0  0  0  0  0  0  0  0
   -8.8122    2.0490   -8.6346 C   0  0  0  0  0  0  0  0  0  0  0  0
   -8.8130    2.6264   -7.2637 N   0  0  0  0  0  0  0  0  0  0  0  0
   -8.5131    4.0661   -7.3960 C   0  0  0  0  0  0  0  0  0  0  0  0
   -8.7801    4.3734  -16.0683 C   0  0  0  0  0  0  0  0  0  0  0  0
   -8.6119    4.0716  -17.4139 C   0  0  0  0  0  0  0  0  0  0  0  0
   -9.5884    3.4140  -18.0535 F   0  0  0  0  0  0  0  0  0  0  0  0
   -7.4581    4.4216  -18.1239 C   0  0  0  0  0  0  0  0  0  0  0  0
   -6.4523    5.1093  -17.4264 C   0  0  0  0  0  0  0  0  0  0  0  0
  2  1  1  6
  2  3  1  0
  3  4  1  0
  4  5  1  0
  5  6  1  1
  6  7  1  0
  7  8  2  0
  8  9  1  0
  9 10  2  0
 10 11  1  0
 11 12  2  0
 11 13  1  0
 13 14  1  0
 14 15  2  0
 15 16  1  0
 16 17  2  0
 17 18  1  0
 18 19  2  0
 18 20  1  0
 20 21  1  0
 21 22  1  0
 10 23  1  0
 23 24  2  0
 24 25  1  0
 24 26  1  0
 26 27  2  0
  5  2  1  0
 27  6  1  0
 27  9  1  0
 19 14  1  0
 22 17  1  0
M  END
>  <smiles>  (2107) 
C31814-P249

>  <fragmenstein_outcome>  (2107) 
acceptable

>  <inchikey>  (2107) 
XIDZVWJKLUDIHI-UHFFFAOYSA-N

>  <fragmenstein_mode>  (2107) 
expansion

>  <HIPPO Pose ID>  (2107) 
25810

>  <Energy>  (2107) 
62.930969

>  <fragmenstein_error>  (2107) 


>  <tags>  (2107) 
{'openbind_xx01zvns2b_c1_fragmenstein', 'fragmenstein_placed'}

>  <ref_pdb>  (2107) 
175

>  <scratch_subdir>  (2107) 
/opt/xchem-fragalysis-2/maxwin/BulkDock/SCRATCH/511028/C31814-P249

>  <alias>  (2107) 
C[C@@H]1NC[C@@H]1n1ncc2c(C(=O)Nc3ccc4c(c3)CNC4)cc(F)cc21

>  <HIPPO Compound ID>  (2107) 
31814

>  <fragmenstein_runtime>  (2107) 
5.04459

$$$$
CC(C)NC(=O)[C@H]1C(c2ccc3c(c2)CNC3)=Cc2c(NCN)cc(NCS)cc21
     RDKit          3D

 30 33  0  0  0  0  0  0  0  0999 V2000
   -3.6422    2.1099  -13.7078 C   0  0  0  0  0  0  0  0  0  0  0  0
   -4.1229    2.5730  -12.3420 C   0  0  0  0  0  0  0  0  0  0  0  0
   -4.0947    1.4888  -11.2755 C   0  0  0  0  0  0  0  0  0  0  0  0
   -5.4307    3.1646  -12.4357 N   0  0  0  0  0  0  0  0  0  0  0  0
   -6.7873    2.5610  -12.9427 C   0  0  0  0  0  0  0  0  0  0  0  0
   -7.0527    1.4697  -13.2851 O   0  0  0  0  0  0  0  0  0  0  0  0
   -7.8823    3.7156  -12.9895 C   0  0  1  0  0  0  0  0  0  0  0  0
   -7.5605    4.9231  -12.1232 C   0  0  0  0  0  0  0  0  0  0  0  0
   -7.8454    4.8335  -10.6788 C   0  0  0  0  0  0  0  0  0  0  0  0
   -7.7472    5.9498   -9.8269 C   0  0  0  0  0  0  0  0  0  0  0  0
   -8.0477    5.8492   -8.4587 C   0  0  0  0  0  0  0  0  0  0  0  0
   -8.4648    4.6280   -7.9576 C   0  0  0  0  0  0  0  0  0  0  0  0
   -8.5745    3.5243   -8.7840 C   0  0  0  0  0  0  0  0  0  0  0  0
   -8.2620    3.6052  -10.1254 C   0  0  0  0  0  0  0  0  0  0  0  0
   -9.0435    2.3406   -8.0078 C   0  0  0  0  0  0  0  0  0  0  0  0
   -9.4583    2.8849   -6.6888 N   0  0  0  0  0  0  0  0  0  0  0  0
   -8.8391    4.2223   -6.5728 C   0  0  0  0  0  0  0  0  0  0  0  0
   -7.0125    5.9152  -12.8685 C   0  0  0  0  0  0  0  0  0  0  0  0
   -7.1012    5.5283  -14.2840 C   0  0  0  0  0  0  0  0  0  0  0  0
   -6.6171    6.0526  -15.4699 C   0  0  0  0  0  0  0  0  0  0  0  0
   -5.5375    6.9478  -15.5317 N   0  0  0  0  0  0  0  0  0  0  0  0
   -4.5290    6.6723  -16.5558 C   0  0  0  0  0  0  0  0  0  0  0  0
   -4.0329    5.3242  -16.7796 N   0  0  0  0  0  0  0  0  0  0  0  0
   -7.2486    5.6165  -16.6415 C   0  0  0  0  0  0  0  0  0  0  0  0
   -8.1693    4.5545  -16.6797 C   0  0  0  0  0  0  0  0  0  0  0  0
   -8.6813    4.0020  -17.8504 N   0  0  0  0  0  0  0  0  0  0  0  0
   -8.3349    4.5875  -19.1188 C   0  0  0  0  0  0  0  0  0  0  0  0
   -6.5608    4.4041  -19.5398 S   0  0  0  0  0  0  0  0  0  0  0  0
   -8.4397    3.9020  -15.4935 C   0  0  0  0  0  0  0  0  0  0  0  0
   -7.8672    4.3673  -14.3329 C   0  0  0  0  0  0  0  0  0  0  0  0
  1  2  1  0
  2  3  1  0
  2  4  1  0
  4  5  1  0
  5  6  2  0
  7  5  1  6
  7  8  1  0
  8  9  1  0
  9 10  2  0
 10 11  1  0
 11 12  2  0
 12 13  1  0
 13 14  2  0
 13 15  1  0
 15 16  1  0
 16 17  1  0
  8 18  2  0
 18 19  1  0
 19 20  2  0
 20 21  1  0
 21 22  1  0
 22 23  1  0
 20 24  1  0
 24 25  2  0
 25 26  1  0
 26 27  1  0
 27 28  1  0
 25 29  1  0
 29 30  2  0
 30  7  1  0
 14  9  1  0
 30 19  1  0
 17 12  1  0
M  END
>  <smiles>  (2108) 
C32010-P251

>  <fragmenstein_outcome>  (2108) 
acceptable

>  <inchikey>  (2108) 
KTSJLBGLOHMITC-UHFFFAOYSA-N

>  <fragmenstein_mode>  (2108) 
expansion

>  <HIPPO Pose ID>  (2108) 
25919

>  <Energy>  (2108) 
38.906782

>  <fragmenstein_error>  (2108) 


>  <tags>  (2108) 
{'openbind_xx01zvns2b_c1_fragmenstein', 'fragmenstein_placed'}

>  <ref_pdb>  (2108) 
175

>  <scratch_subdir>  (2108) 
/opt/xchem-fragalysis-2/maxwin/BulkDock/SCRATCH/511028/C32010-P251

>  <alias>  (2108) 
CC(C)NC(=O)[C@H]1C(c2ccc3c(c2)CNC3)=Cc2c(NCN)cc(NCS)cc21

>  <HIPPO Compound ID>  (2108) 
32010

>  <fragmenstein_runtime>  (2108) 
9.757799

$$$$
CCN1CC[C@H]2[C@H](CNCC[C@@]23CNc2ccc(C(=O)Nc4ccc5c(c4)CNC5)cc23)C1
     RDKit          3D

 33 38  0  0  0  0  0  0  0  0999 V2000
   -0.0521    6.0217  -21.6413 C   0  0  0  0  0  0  0  0  0  0  0  0
   -1.3889    6.5905  -21.1837 C   0  0  0  0  0  0  0  0  0  0  0  0
   -2.3137    5.5701  -20.6829 N   0  0  0  0  0  0  0  0  0  0  0  0
   -3.6902    6.0691  -20.6869 C   0  0  0  0  0  0  0  0  0  0  0  0
   -4.5914    5.2253  -19.7955 C   0  0  0  0  0  0  0  0  0  0  0  0
   -4.2110    5.3208  -18.2859 C   0  0  1  0  0  0  0  0  0  0  0  0
   -2.6622    5.4703  -18.1404 C   0  0  2  0  0  0  0  0  0  0  0  0
   -2.0441    6.8060  -17.6927 C   0  0  0  0  0  0  0  0  0  0  0  0
   -2.8486    7.9896  -17.9696 N   0  0  0  0  0  0  0  0  0  0  0  0
   -3.7005    8.3066  -16.8334 C   0  0  0  0  0  0  0  0  0  0  0  0
   -4.4613    7.0937  -16.3064 C   0  0  0  0  0  0  0  0  0  0  0  0
   -5.1447    6.2391  -17.3944 C   0  0  1  0  0  0  0  0  0  0  0  0
   -6.0812    7.1088  -18.2778 C   0  0  0  0  0  0  0  0  0  0  0  0
   -7.3366    6.3868  -18.4677 N   0  0  0  0  0  0  0  0  0  0  0  0
   -7.3821    5.4335  -17.4402 C   0  0  0  0  0  0  0  0  0  0  0  0
   -8.5045    4.7120  -17.0708 C   0  0  0  0  0  0  0  0  0  0  0  0
   -8.4802    4.0296  -15.8560 C   0  0  0  0  0  0  0  0  0  0  0  0
   -7.3179    4.0334  -15.0707 C   0  0  0  0  0  0  0  0  0  0  0  0
   -7.3819    3.4238  -13.7188 C   0  0  0  0  0  0  0  0  0  0  0  0
   -7.3015    2.2671  -13.5776 O   0  0  0  0  0  0  0  0  0  0  0  0
   -7.5982    4.5513  -12.6756 N   0  0  0  0  0  0  0  0  0  0  0  0
   -7.8460    4.4814  -11.3046 C   0  0  0  0  0  0  0  0  0  0  0  0
   -7.8103    5.6706  -10.5502 C   0  0  0  0  0  0  0  0  0  0  0  0
   -8.0513    5.6569   -9.1698 C   0  0  0  0  0  0  0  0  0  0  0  0
   -8.3563    4.4479   -8.5718 C   0  0  0  0  0  0  0  0  0  0  0  0
   -8.4358    3.2838   -9.3243 C   0  0  0  0  0  0  0  0  0  0  0  0
   -8.1645    3.2761  -10.6849 C   0  0  0  0  0  0  0  0  0  0  0  0
   -8.8759    2.1548   -8.4572 C   0  0  0  0  0  0  0  0  0  0  0  0
   -8.8617    2.6771   -7.0603 N   0  0  0  0  0  0  0  0  0  0  0  0
   -8.6671    4.1392   -7.1482 C   0  0  0  0  0  0  0  0  0  0  0  0
   -6.1551    4.6856  -15.4970 C   0  0  0  0  0  0  0  0  0  0  0  0
   -6.2065    5.3887  -16.6967 C   0  0  0  0  0  0  0  0  0  0  0  0
   -1.9353    4.9415  -19.4104 C   0  0  0  0  0  0  0  0  0  0  0  0
  1  2  1  0
  2  3  1  0
  3  4  1  0
  4  5  1  0
  6  5  1  6
  6  7  1  0
  7  8  1  6
  8  9  1  0
  9 10  1  0
 10 11  1  0
 12 11  1  1
 12 13  1  0
 13 14  1  0
 14 15  1  0
 15 16  2  0
 16 17  1  0
 17 18  2  0
 18 19  1  0
 19 20  2  0
 19 21  1  0
 21 22  1  0
 22 23  2  0
 23 24  1  0
 24 25  2  0
 25 26  1  0
 26 27  2  0
 26 28  1  0
 28 29  1  0
 29 30  1  0
 18 31  1  0
 31 32  2  0
  7 33  1  0
 33  3  1  0
 12  6  1  0
 32 15  1  0
 32 12  1  0
 27 22  1  0
 30 25  1  0
M  END
>  <smiles>  (2109) 
C32041-P251

>  <fragmenstein_outcome>  (2109) 
acceptable

>  <inchikey>  (2109) 
VOODHQDLHPYIRJ-UHFFFAOYSA-N

>  <fragmenstein_mode>  (2109) 
expansion

>  <HIPPO Pose ID>  (2109) 
25936

>  <Energy>  (2109) 
118.560154

>  <fragmenstein_error>  (2109) 


>  <tags>  (2109) 
{'openbind_xx01zvns2b_c1_fragmenstein', 'fragmenstein_placed'}

>  <ref_pdb>  (2109) 
175

>  <scratch_subdir>  (2109) 
/opt/xchem-fragalysis-2/maxwin/BulkDock/SCRATCH/511028/C32041-P251

>  <alias>  (2109) 
CCN1CC[C@H]2[C@H](CNCC[C@@]23CNc2ccc(C(=O)Nc4ccc5c(c4)CNC5)cc23)C1

>  <HIPPO Compound ID>  (2109) 
32041

>  <fragmenstein_runtime>  (2109) 
10.155259

$$$$
CCN1CCC(c2c[nH]c3c(C#N)cc(C(=O)Nc4ccc5c(c4)CNC5)c(C)c23)CC1
     RDKit          3D

 32 36  0  0  0  0  0  0  0  0999 V2000
    0.8402    8.4696  -18.6400 C   0  0  0  0  0  0  0  0  0  0  0  0
    0.0452    7.1703  -18.5560 C   0  0  0  0  0  0  0  0  0  0  0  0
   -1.3825    7.3460  -18.8584 N   0  0  0  0  0  0  0  0  0  0  0  0
   -2.0429    8.2719  -17.9231 C   0  0  0  0  0  0  0  0  0  0  0  0
   -3.5542    8.0540  -17.8537 C   0  0  0  0  0  0  0  0  0  0  0  0
   -3.8675    6.6531  -17.2925 C   0  0  0  0  0  0  0  0  0  0  0  0
   -5.2636    6.1687  -17.6178 C   0  0  0  0  0  0  0  0  0  0  0  0
   -5.8970    6.3241  -18.8331 C   0  0  0  0  0  0  0  0  0  0  0  0
   -7.1175    5.7151  -18.7793 N   0  0  0  0  0  0  0  0  0  0  0  0
   -7.3308    5.1847  -17.5295 C   0  0  0  0  0  0  0  0  0  0  0  0
   -8.4455    4.5084  -17.0171 C   0  0  0  0  0  0  0  0  0  0  0  0
   -9.5970    4.3084  -17.8318 C   0  0  0  0  0  0  0  0  0  0  0  0
  -10.5406    4.1629  -18.4881 N   0  0  0  0  0  0  0  0  0  0  0  0
   -8.4002    4.0507  -15.7095 C   0  0  0  0  0  0  0  0  0  0  0  0
   -7.2338    4.1922  -14.9644 C   0  0  0  0  0  0  0  0  0  0  0  0
   -7.2815    3.5834  -13.6115 C   0  0  0  0  0  0  0  0  0  0  0  0
   -7.2198    2.4231  -13.4974 O   0  0  0  0  0  0  0  0  0  0  0  0
   -7.5059    4.6853  -12.5485 N   0  0  0  0  0  0  0  0  0  0  0  0
   -7.7858    4.5857  -11.1866 C   0  0  0  0  0  0  0  0  0  0  0  0
   -7.7609    5.7536  -10.4016 C   0  0  0  0  0  0  0  0  0  0  0  0
   -8.0338    5.7018   -9.0285 C   0  0  0  0  0  0  0  0  0  0  0  0
   -8.3575    4.4779   -8.4710 C   0  0  0  0  0  0  0  0  0  0  0  0
   -8.4263    3.3348   -9.2558 C   0  0  0  0  0  0  0  0  0  0  0  0
   -8.1259    3.3638  -10.6088 C   0  0  0  0  0  0  0  0  0  0  0  0
   -8.8874    2.1837   -8.4293 C   0  0  0  0  0  0  0  0  0  0  0  0
   -8.8935    2.6670   -7.0191 N   0  0  0  0  0  0  0  0  0  0  0  0
   -8.6986    4.1311   -7.0628 C   0  0  0  0  0  0  0  0  0  0  0  0
   -6.0802    4.8334  -15.4788 C   0  0  0  0  0  0  0  0  0  0  0  0
   -4.8047    4.8629  -14.6929 C   0  0  0  0  0  0  0  0  0  0  0  0
   -6.1656    5.4009  -16.7835 C   0  0  0  0  0  0  0  0  0  0  0  0
   -2.8010    5.6252  -17.7163 C   0  0  0  0  0  0  0  0  0  0  0  0
   -2.0778    6.0555  -18.9891 C   0  0  0  0  0  0  0  0  0  0  0  0
  1  2  1  0
  2  3  1  0
  3  4  1  0
  4  5  1  0
  5  6  1  0
  6  7  1  0
  7  8  2  0
  8  9  1  0
  9 10  1  0
 10 11  2  0
 11 12  1  0
 12 13  3  0
 11 14  1  0
 14 15  2  0
 15 16  1  0
 16 17  2  0
 16 18  1  0
 18 19  1  0
 19 20  2  0
 20 21  1  0
 21 22  2  0
 22 23  1  0
 23 24  2  0
 23 25  1  0
 25 26  1  0
 26 27  1  0
 15 28  1  0
 28 29  1  0
 28 30  2  0
  6 31  1  0
 31 32  1  0
 32  3  1  0
 30  7  1  0
 30 10  1  0
 24 19  1  0
 27 22  1  0
M  END
>  <smiles>  (2110) 
C32045-P251

>  <fragmenstein_outcome>  (2110) 
acceptable

>  <inchikey>  (2110) 
OMUFHKLXEKHHRQ-UHFFFAOYSA-N

>  <fragmenstein_mode>  (2110) 
expansion

>  <HIPPO Pose ID>  (2110) 
25942

>  <Energy>  (2110) 
69.195587

>  <fragmenstein_error>  (2110) 


>  <tags>  (2110) 
{'openbind_xx01zvns2b_c1_fragmenstein', 'fragmenstein_placed'}

>  <ref_pdb>  (2110) 
175

>  <scratch_subdir>  (2110) 
/opt/xchem-fragalysis-2/maxwin/BulkDock/SCRATCH/511028/C32045-P251

>  <alias>  (2110) 
CCN1CCC(c2c[nH]c3c(C#N)cc(C(=O)Nc4ccc5c(c4)CNC5)c(C)c23)CC1

>  <HIPPO Compound ID>  (2110) 
32045

>  <fragmenstein_runtime>  (2110) 
6.205448

$$$$
CCN1CCC(c2c(NC)[nH]c3ccc(C(=O)Nc4ccc5c(c4)CNC5)cc23)CC1
     RDKit          3D

 31 35  0  0  0  0  0  0  0  0999 V2000
    0.0493    9.9850  -18.0857 C   0  0  0  0  0  0  0  0  0  0  0  0
   -0.5390    8.6197  -18.4255 C   0  0  0  0  0  0  0  0  0  0  0  0
   -1.5089    8.1374  -17.4277 N   0  0  0  0  0  0  0  0  0  0  0  0
   -2.7247    8.9598  -17.3930 C   0  0  0  0  0  0  0  0  0  0  0  0
   -3.7480    8.4743  -16.3668 C   0  0  0  0  0  0  0  0  0  0  0  0
   -3.9889    6.9619  -16.3321 C   0  0  0  0  0  0  0  0  0  0  0  0
   -5.2025    6.4676  -17.1022 C   0  0  0  0  0  0  0  0  0  0  0  0
   -5.5606    6.6287  -18.4332 C   0  0  0  0  0  0  0  0  0  0  0  0
   -4.9248    7.2635  -19.4508 N   0  0  0  0  0  0  0  0  0  0  0  0
   -5.1338    6.8855  -20.8379 C   0  0  0  0  0  0  0  0  0  0  0  0
   -6.7705    6.0041  -18.6289 N   0  0  0  0  0  0  0  0  0  0  0  0
   -7.1922    5.3849  -17.4757 C   0  0  0  0  0  0  0  0  0  0  0  0
   -8.3405    4.6201  -17.2276 C   0  0  0  0  0  0  0  0  0  0  0  0
   -8.4959    4.0848  -15.9456 C   0  0  0  0  0  0  0  0  0  0  0  0
   -7.5303    4.2987  -14.9648 C   0  0  0  0  0  0  0  0  0  0  0  0
   -7.6740    3.6438  -13.6406 C   0  0  0  0  0  0  0  0  0  0  0  0
   -7.6878    2.4784  -13.5739 O   0  0  0  0  0  0  0  0  0  0  0  0
   -7.7713    4.7142  -12.5256 N   0  0  0  0  0  0  0  0  0  0  0  0
   -7.9933    4.5773  -11.1565 C   0  0  0  0  0  0  0  0  0  0  0  0
   -7.9261    5.7249  -10.3428 C   0  0  0  0  0  0  0  0  0  0  0  0
   -8.1534    5.6422   -8.9632 C   0  0  0  0  0  0  0  0  0  0  0  0
   -8.4765    4.4084   -8.4289 C   0  0  0  0  0  0  0  0  0  0  0  0
   -8.5543    3.2780   -9.2354 C   0  0  0  0  0  0  0  0  0  0  0  0
   -8.2987    3.3386  -10.5954 C   0  0  0  0  0  0  0  0  0  0  0  0
   -8.9249    2.0976   -8.4002 C   0  0  0  0  0  0  0  0  0  0  0  0
   -9.3759    2.6676   -7.0992 N   0  0  0  0  0  0  0  0  0  0  0  0
   -8.7747    4.0151   -7.0210 C   0  0  0  0  0  0  0  0  0  0  0  0
   -6.4006    5.0833  -15.2212 C   0  0  0  0  0  0  0  0  0  0  0  0
   -6.2285    5.6443  -16.5056 C   0  0  0  0  0  0  0  0  0  0  0  0
   -2.7192    6.1477  -16.5874 C   0  0  0  0  0  0  0  0  0  0  0  0
   -1.8240    6.7237  -17.6763 C   0  0  0  0  0  0  0  0  0  0  0  0
  1  2  1  0
  2  3  1  0
  3  4  1  0
  4  5  1  0
  5  6  1  0
  6  7  1  0
  7  8  2  0
  8  9  1  0
  9 10  1  0
  8 11  1  0
 11 12  1  0
 12 13  2  0
 13 14  1  0
 14 15  2  0
 15 16  1  0
 16 17  2  0
 16 18  1  0
 18 19  1  0
 19 20  2  0
 20 21  1  0
 21 22  2  0
 22 23  1  0
 23 24  2  0
 23 25  1  0
 25 26  1  0
 26 27  1  0
 15 28  1  0
 28 29  2  0
  6 30  1  0
 30 31  1  0
 31  3  1  0
 29  7  1  0
 29 12  1  0
 24 19  1  0
 27 22  1  0
M  END
>  <smiles>  (2111) 
C32056-P251

>  <fragmenstein_outcome>  (2111) 
acceptable

>  <inchikey>  (2111) 
KBGZXJMYFMVRQW-UHFFFAOYSA-O

>  <fragmenstein_mode>  (2111) 
expansion

>  <HIPPO Pose ID>  (2111) 
25948

>  <Energy>  (2111) 
47.850042

>  <fragmenstein_error>  (2111) 


>  <tags>  (2111) 
{'openbind_xx01zvns2b_c1_fragmenstein', 'fragmenstein_placed'}

>  <ref_pdb>  (2111) 
175

>  <scratch_subdir>  (2111) 
/opt/xchem-fragalysis-2/maxwin/BulkDock/SCRATCH/511028/C32056-P251

>  <alias>  (2111) 
CCN1CCC(c2c(NC)[nH]c3ccc(C(=O)Nc4ccc5c(c4)CNC5)cc23)CC1

>  <HIPPO Compound ID>  (2111) 
23992

>  <fragmenstein_runtime>  (2111) 
3.92052

$$$$
CCN1CCC(c2c(C(=O)c3ccncc3F)[nH]c3c(O)cc(C(=O)Nc4ccc5c(c4)CNC5)cc23)CC1
     RDKit          3D

 39 44  0  0  0  0  0  0  0  0999 V2000
   -0.1927    9.1204  -14.8130 C   0  0  0  0  0  0  0  0  0  0  0  0
   -0.4506    7.6257  -14.9683 C   0  0  0  0  0  0  0  0  0  0  0  0
   -1.6485    7.3348  -15.7686 N   0  0  0  0  0  0  0  0  0  0  0  0
   -1.6379    5.9272  -16.2087 C   0  0  0  0  0  0  0  0  0  0  0  0
   -3.0200    5.3737  -16.5831 C   0  0  0  0  0  0  0  0  0  0  0  0
   -3.9287    6.4849  -17.1078 C   0  0  0  0  0  0  0  0  0  0  0  0
   -5.2687    5.9782  -17.5909 C   0  0  0  0  0  0  0  0  0  0  0  0
   -5.7447    5.9949  -18.9033 C   0  0  0  0  0  0  0  0  0  0  0  0
   -5.1446    6.4374  -20.1468 C   0  0  0  0  0  0  0  0  0  0  0  0
   -5.1155    5.7391  -21.1601 O   0  0  0  0  0  0  0  0  0  0  0  0
   -4.5182    7.7740  -20.2442 C   0  0  0  0  0  0  0  0  0  0  0  0
   -3.3844    7.9183  -21.0514 C   0  0  0  0  0  0  0  0  0  0  0  0
   -2.8039    9.1705  -21.1499 C   0  0  0  0  0  0  0  0  0  0  0  0
   -3.2776   10.2642  -20.5142 N   0  0  0  0  0  0  0  0  0  0  0  0
   -4.3835   10.0969  -19.7527 C   0  0  0  0  0  0  0  0  0  0  0  0
   -5.0372    8.8881  -19.5970 C   0  0  0  0  0  0  0  0  0  0  0  0
   -6.1610    8.8426  -18.8680 F   0  0  0  0  0  0  0  0  0  0  0  0
   -6.9911    5.4117  -18.8893 N   0  0  0  0  0  0  0  0  0  0  0  0
   -7.3634    5.0615  -17.6176 C   0  0  0  0  0  0  0  0  0  0  0  0
   -8.5617    4.5148  -17.1484 C   0  0  0  0  0  0  0  0  0  0  0  0
   -9.6423    4.3767  -17.9756 O   0  0  0  0  0  0  0  0  0  0  0  0
   -8.6255    4.1077  -15.8229 C   0  0  0  0  0  0  0  0  0  0  0  0
   -7.5240    4.2803  -14.9894 C   0  0  0  0  0  0  0  0  0  0  0  0
   -7.5762    3.6711  -13.6401 C   0  0  0  0  0  0  0  0  0  0  0  0
   -7.6199    2.5086  -13.5498 O   0  0  0  0  0  0  0  0  0  0  0  0
   -7.6524    4.7642  -12.5500 N   0  0  0  0  0  0  0  0  0  0  0  0
   -7.8857    4.6613  -11.1786 C   0  0  0  0  0  0  0  0  0  0  0  0
   -7.8355    5.8214  -10.3853 C   0  0  0  0  0  0  0  0  0  0  0  0
   -8.0670    5.7555   -9.0047 C   0  0  0  0  0  0  0  0  0  0  0  0
   -8.3740    4.5261   -8.4477 C   0  0  0  0  0  0  0  0  0  0  0  0
   -8.4608    3.3891   -9.2385 C   0  0  0  0  0  0  0  0  0  0  0  0
   -8.1999    3.4318  -10.5984 C   0  0  0  0  0  0  0  0  0  0  0  0
   -8.8994    2.2294   -8.4118 C   0  0  0  0  0  0  0  0  0  0  0  0
   -8.8773    2.7030   -6.9986 N   0  0  0  0  0  0  0  0  0  0  0  0
   -8.6856    4.1680   -7.0356 C   0  0  0  0  0  0  0  0  0  0  0  0
   -6.3658    4.9353  -15.4295 C   0  0  0  0  0  0  0  0  0  0  0  0
   -6.2773    5.3291  -16.7866 C   0  0  0  0  0  0  0  0  0  0  0  0
   -4.0633    7.6189  -16.0732 C   0  0  0  0  0  0  0  0  0  0  0  0
   -2.8974    7.6581  -15.0786 C   0  0  0  0  0  0  0  0  0  0  0  0
  1  2  1  0
  2  3  1  0
  3  4  1  0
  4  5  1  0
  5  6  1  0
  6  7  1  0
  7  8  2  0
  8  9  1  0
  9 10  2  0
  9 11  1  0
 11 12  2  0
 12 13  1  0
 13 14  2  0
 14 15  1  0
 15 16  2  0
 16 17  1  0
  8 18  1  0
 18 19  1  0
 19 20  2  0
 20 21  1  0
 20 22  1  0
 22 23  2  0
 23 24  1  0
 24 25  2  0
 24 26  1  0
 26 27  1  0
 27 28  2  0
 28 29  1  0
 29 30  2  0
 30 31  1  0
 31 32  2  0
 31 33  1  0
 33 34  1  0
 34 35  1  0
 23 36  1  0
 36 37  2  0
  6 38  1  0
 38 39  1  0
 39  3  1  0
 37  7  1  0
 16 11  1  0
 37 19  1  0
 32 27  1  0
 35 30  1  0
M  END
>  <smiles>  (2112) 
C32066-P251

>  <fragmenstein_outcome>  (2112) 
acceptable

>  <inchikey>  (2112) 
SBYACIDDNDCIRV-UHFFFAOYSA-N

>  <fragmenstein_mode>  (2112) 
expansion

>  <HIPPO Pose ID>  (2112) 
25955

>  <Energy>  (2112) 
70.939673

>  <fragmenstein_error>  (2112) 


>  <tags>  (2112) 
{'openbind_xx01zvns2b_c1_fragmenstein', 'fragmenstein_placed'}

>  <ref_pdb>  (2112) 
175

>  <scratch_subdir>  (2112) 
/opt/xchem-fragalysis-2/maxwin/BulkDock/SCRATCH/511028/C32066-P251

>  <alias>  (2112) 
CCN1CCC(c2c(C(=O)c3ccncc3F)[nH]c3c(O)cc(C(=O)Nc4ccc5c(c4)CNC5)cc23)CC1

>  <HIPPO Compound ID>  (2112) 
32066

>  <fragmenstein_runtime>  (2112) 
9.838303

$$$$
CCN1CCC(c2c(N)[nH]c3c(Cl)cc(C(=O)Nc4ccc5c(c4)CNC5)cc23)CC1
     RDKit          3D

 31 35  0  0  0  0  0  0  0  0999 V2000
    1.1498    6.9150  -16.0055 C   0  0  0  0  0  0  0  0  0  0  0  0
    0.0609    7.8784  -16.4658 C   0  0  0  0  0  0  0  0  0  0  0  0
   -1.2767    7.2736  -16.4635 N   0  0  0  0  0  0  0  0  0  0  0  0
   -1.4619    6.2565  -17.4992 C   0  0  0  0  0  0  0  0  0  0  0  0
   -2.7502    5.4689  -17.2298 C   0  0  0  0  0  0  0  0  0  0  0  0
   -3.9194    6.3717  -16.8118 C   0  0  0  0  0  0  0  0  0  0  0  0
   -5.2304    5.8946  -17.3713 C   0  0  0  0  0  0  0  0  0  0  0  0
   -5.6281    5.8735  -18.6929 C   0  0  0  0  0  0  0  0  0  0  0  0
   -4.9815    6.1830  -19.8327 N   0  0  0  0  0  0  0  0  0  0  0  0
   -6.9211    5.4368  -18.7529 N   0  0  0  0  0  0  0  0  0  0  0  0
   -7.3395    5.0310  -17.5079 C   0  0  0  0  0  0  0  0  0  0  0  0
   -8.5381    4.4367  -17.1063 C   0  0  0  0  0  0  0  0  0  0  0  0
   -9.8210    4.1650  -18.2131 Cl  0  0  0  0  0  0  0  0  0  0  0  0
   -8.6493    4.0281  -15.7816 C   0  0  0  0  0  0  0  0  0  0  0  0
   -7.5927    4.2193  -14.8942 C   0  0  0  0  0  0  0  0  0  0  0  0
   -7.6731    3.5995  -13.5539 C   0  0  0  0  0  0  0  0  0  0  0  0
   -7.7347    2.4371  -13.4728 O   0  0  0  0  0  0  0  0  0  0  0  0
   -7.7271    4.6849  -12.4546 N   0  0  0  0  0  0  0  0  0  0  0  0
   -7.9552    4.5745  -11.0843 C   0  0  0  0  0  0  0  0  0  0  0  0
   -7.9143    5.7328  -10.2866 C   0  0  0  0  0  0  0  0  0  0  0  0
   -8.1597    5.6620   -8.9089 C   0  0  0  0  0  0  0  0  0  0  0  0
   -8.4808    4.4312   -8.3646 C   0  0  0  0  0  0  0  0  0  0  0  0
   -8.5377    3.2918   -9.1585 C   0  0  0  0  0  0  0  0  0  0  0  0
   -8.2545    3.3391  -10.5117 C   0  0  0  0  0  0  0  0  0  0  0  0
   -8.9255    2.1176   -8.3235 C   0  0  0  0  0  0  0  0  0  0  0  0
   -9.3895    2.6964   -7.0312 N   0  0  0  0  0  0  0  0  0  0  0  0
   -8.7969    4.0485   -6.9579 C   0  0  0  0  0  0  0  0  0  0  0  0
   -6.4252    4.8861  -15.2766 C   0  0  0  0  0  0  0  0  0  0  0  0
   -6.2906    5.2862  -16.6222 C   0  0  0  0  0  0  0  0  0  0  0  0
   -3.6396    7.8400  -17.1501 C   0  0  0  0  0  0  0  0  0  0  0  0
   -2.3177    8.3127  -16.5345 C   0  0  0  0  0  0  0  0  0  0  0  0
  1  2  1  0
  2  3  1  0
  3  4  1  0
  4  5  1  0
  5  6  1  0
  6  7  1  0
  7  8  2  0
  8  9  1  0
  8 10  1  0
 10 11  1  0
 11 12  2  0
 12 13  1  0
 12 14  1  0
 14 15  2  0
 15 16  1  0
 16 17  2  0
 16 18  1  0
 18 19  1  0
 19 20  2  0
 20 21  1  0
 21 22  2  0
 22 23  1  0
 23 24  2  0
 23 25  1  0
 25 26  1  0
 26 27  1  0
 15 28  1  0
 28 29  2  0
  6 30  1  0
 30 31  1  0
 31  3  1  0
 29  7  1  0
 29 11  1  0
 24 19  1  0
 27 22  1  0
M  END
>  <smiles>  (2113) 
C32118-P251

>  <fragmenstein_outcome>  (2113) 
acceptable

>  <inchikey>  (2113) 
XKLDQSALWILWQR-UHFFFAOYSA-N

>  <fragmenstein_mode>  (2113) 
expansion

>  <HIPPO Pose ID>  (2113) 
25985

>  <Energy>  (2113) 
36.145493

>  <fragmenstein_error>  (2113) 


>  <tags>  (2113) 
{'openbind_xx01zvns2b_c1_fragmenstein', 'fragmenstein_placed'}

>  <ref_pdb>  (2113) 
175

>  <scratch_subdir>  (2113) 
/opt/xchem-fragalysis-2/maxwin/BulkDock/SCRATCH/511028/C32118-P251

>  <alias>  (2113) 
CCN1CCC(c2c(N)[nH]c3c(Cl)cc(C(=O)Nc4ccc5c(c4)CNC5)cc23)CC1

>  <HIPPO Compound ID>  (2113) 
32118

>  <fragmenstein_runtime>  (2113) 
5.129005

$$$$
CCN1CCC(c2c[nH]c3c(Cl)cc(C(=O)Nc4ccc5c(c4)CNC5)cc23)CC1
     RDKit          3D

 30 34  0  0  0  0  0  0  0  0999 V2000
   -3.1196    1.9804  -13.6025 C   0  0  0  0  0  0  0  0  0  0  0  0
   -3.7061    3.3829  -13.5513 C   0  0  0  0  0  0  0  0  0  0  0  0
   -3.2459    4.2963  -14.6232 N   0  0  0  0  0  0  0  0  0  0  0  0
   -3.7678    3.8590  -15.9120 C   0  0  0  0  0  0  0  0  0  0  0  0
   -3.3571    4.8115  -17.0256 C   0  0  0  0  0  0  0  0  0  0  0  0
   -4.0514    6.1582  -16.8428 C   0  0  0  0  0  0  0  0  0  0  0  0
   -5.4932    6.0308  -17.2925 C   0  0  0  0  0  0  0  0  0  0  0  0
   -5.8966    6.1596  -18.6125 C   0  0  0  0  0  0  0  0  0  0  0  0
   -7.1688    5.6734  -18.7315 N   0  0  0  0  0  0  0  0  0  0  0  0
   -7.6063    5.2053  -17.5189 C   0  0  0  0  0  0  0  0  0  0  0  0
   -8.7741    4.5121  -17.1848 C   0  0  0  0  0  0  0  0  0  0  0  0
   -9.9624    4.1582  -18.3652 Cl  0  0  0  0  0  0  0  0  0  0  0  0
   -8.9281    4.0734  -15.8743 C   0  0  0  0  0  0  0  0  0  0  0  0
   -7.9731    4.3827  -14.9196 C   0  0  0  0  0  0  0  0  0  0  0  0
   -8.0070    3.7524  -13.5815 C   0  0  0  0  0  0  0  0  0  0  0  0
   -7.9586    2.5896  -13.5072 O   0  0  0  0  0  0  0  0  0  0  0  0
   -8.0555    4.8259  -12.4711 N   0  0  0  0  0  0  0  0  0  0  0  0
   -8.1470    4.6929  -11.0894 C   0  0  0  0  0  0  0  0  0  0  0  0
   -8.0146    5.8364  -10.2819 C   0  0  0  0  0  0  0  0  0  0  0  0
   -8.1392    5.7450   -8.8904 C   0  0  0  0  0  0  0  0  0  0  0  0
   -8.4224    4.5080   -8.3378 C   0  0  0  0  0  0  0  0  0  0  0  0
   -8.5677    3.3849   -9.1401 C   0  0  0  0  0  0  0  0  0  0  0  0
   -8.4106    3.4514  -10.5132 C   0  0  0  0  0  0  0  0  0  0  0  0
   -8.9579    2.2121   -8.3095 C   0  0  0  0  0  0  0  0  0  0  0  0
   -8.8851    2.6704   -6.8939 N   0  0  0  0  0  0  0  0  0  0  0  0
   -8.6701    4.1321   -6.9182 C   0  0  0  0  0  0  0  0  0  0  0  0
   -6.8633    5.1578  -15.2438 C   0  0  0  0  0  0  0  0  0  0  0  0
   -6.6275    5.5242  -16.5786 C   0  0  0  0  0  0  0  0  0  0  0  0
   -3.7573    6.7082  -15.4429 C   0  0  0  0  0  0  0  0  0  0  0  0
   -3.5775    5.6902  -14.2922 C   0  0  0  0  0  0  0  0  0  0  0  0
  1  2  1  0
  2  3  1  0
  3  4  1  0
  4  5  1  0
  5  6  1  0
  6  7  1  0
  7  8  2  0
  8  9  1  0
  9 10  1  0
 10 11  2  0
 11 12  1  0
 11 13  1  0
 13 14  2  0
 14 15  1  0
 15 16  2  0
 15 17  1  0
 17 18  1  0
 18 19  2  0
 19 20  1  0
 20 21  2  0
 21 22  1  0
 22 23  2  0
 22 24  1  0
 24 25  1  0
 25 26  1  0
 14 27  1  0
 27 28  2  0
  6 29  1  0
 29 30  1  0
 30  3  1  0
 28  7  1  0
 28 10  1  0
 23 18  1  0
 26 21  1  0
M  END
>  <smiles>  (2114) 
C18133-P251

>  <fragmenstein_outcome>  (2114) 
acceptable

>  <inchikey>  (2114) 
VKZCGEBMGKVMML-UHFFFAOYSA-N

>  <fragmenstein_mode>  (2114) 
expansion

>  <HIPPO Pose ID>  (2114) 
25991

>  <Energy>  (2114) 
55.963801

>  <fragmenstein_error>  (2114) 


>  <tags>  (2114) 
{'openbind_xx01zvns2b_c1_fragmenstein', 'fragmenstein_placed'}

>  <ref_pdb>  (2114) 
175

>  <scratch_subdir>  (2114) 
/opt/xchem-fragalysis-2/maxwin/BulkDock/SCRATCH/511028/C18133-P251

>  <alias>  (2114) 
CCN1CCC(c2c[nH]c3c(Cl)cc(C(=O)Nc4ccc5c(c4)CNC5)cc23)CC1

>  <HIPPO Compound ID>  (2114) 
18133

>  <fragmenstein_runtime>  (2114) 
7.428408

$$$$
CCN1CCC(c2c[nH]c3c(F)cc(C(=O)Nc4ccc5c(c4)CNC5)cc23)CC1
     RDKit          3D

 30 34  0  0  0  0  0  0  0  0999 V2000
   -4.6227    2.6021  -13.5615 C   0  0  0  0  0  0  0  0  0  0  0  0
   -3.5980    2.9900  -14.6119 C   0  0  0  0  0  0  0  0  0  0  0  0
   -3.9286    4.2615  -15.2637 N   0  0  0  0  0  0  0  0  0  0  0  0
   -3.7297    4.2506  -16.7125 C   0  0  0  0  0  0  0  0  0  0  0  0
   -3.3215    5.5965  -17.3115 C   0  0  0  0  0  0  0  0  0  0  0  0
   -4.2221    6.6917  -16.7323 C   0  0  0  0  0  0  0  0  0  0  0  0
   -5.6405    6.4099  -17.1961 C   0  0  0  0  0  0  0  0  0  0  0  0
   -6.0605    6.5766  -18.5062 C   0  0  0  0  0  0  0  0  0  0  0  0
   -7.2329    5.8877  -18.6755 N   0  0  0  0  0  0  0  0  0  0  0  0
   -7.6260    5.3289  -17.4869 C   0  0  0  0  0  0  0  0  0  0  0  0
   -8.7189    4.5086  -17.1998 C   0  0  0  0  0  0  0  0  0  0  0  0
   -9.5966    4.1595  -18.1505 F   0  0  0  0  0  0  0  0  0  0  0  0
   -8.8742    4.0358  -15.9044 C   0  0  0  0  0  0  0  0  0  0  0  0
   -7.9613    4.3834  -14.9193 C   0  0  0  0  0  0  0  0  0  0  0  0
   -8.0319    3.7525  -13.5785 C   0  0  0  0  0  0  0  0  0  0  0  0
   -8.0530    2.5886  -13.5067 O   0  0  0  0  0  0  0  0  0  0  0  0
   -8.0238    4.8255  -12.4647 N   0  0  0  0  0  0  0  0  0  0  0  0
   -8.1318    4.6951  -11.0838 C   0  0  0  0  0  0  0  0  0  0  0  0
   -7.9762    5.8352  -10.2756 C   0  0  0  0  0  0  0  0  0  0  0  0
   -8.1076    5.7470   -8.8844 C   0  0  0  0  0  0  0  0  0  0  0  0
   -8.4136    4.5154   -8.3320 C   0  0  0  0  0  0  0  0  0  0  0  0
   -8.5794    3.3952   -9.1346 C   0  0  0  0  0  0  0  0  0  0  0  0
   -8.4240    3.4598  -10.5080 C   0  0  0  0  0  0  0  0  0  0  0  0
   -8.9847    2.2285   -8.3029 C   0  0  0  0  0  0  0  0  0  0  0  0
   -8.8817    2.6810   -6.8867 N   0  0  0  0  0  0  0  0  0  0  0  0
   -8.6672    4.1429   -6.9127 C   0  0  0  0  0  0  0  0  0  0  0  0
   -6.8892    5.2301  -15.2061 C   0  0  0  0  0  0  0  0  0  0  0  0
   -6.6957    5.7069  -16.5184 C   0  0  0  0  0  0  0  0  0  0  0  0
   -3.9709    6.7625  -15.2146 C   0  0  0  0  0  0  0  0  0  0  0  0
   -3.4054    5.4532  -14.6054 C   0  0  0  0  0  0  0  0  0  0  0  0
  1  2  1  0
  2  3  1  0
  3  4  1  0
  4  5  1  0
  5  6  1  0
  6  7  1  0
  7  8  2  0
  8  9  1  0
  9 10  1  0
 10 11  2  0
 11 12  1  0
 11 13  1  0
 13 14  2  0
 14 15  1  0
 15 16  2  0
 15 17  1  0
 17 18  1  0
 18 19  2  0
 19 20  1  0
 20 21  2  0
 21 22  1  0
 22 23  2  0
 22 24  1  0
 24 25  1  0
 25 26  1  0
 14 27  1  0
 27 28  2  0
  6 29  1  0
 29 30  1  0
 30  3  1  0
 28  7  1  0
 28 10  1  0
 23 18  1  0
 26 21  1  0
M  END
>  <smiles>  (2115) 
C32125-P251

>  <fragmenstein_outcome>  (2115) 
acceptable

>  <inchikey>  (2115) 
CVTWQCVXGMKZRL-UHFFFAOYSA-N

>  <fragmenstein_mode>  (2115) 
expansion

>  <HIPPO Pose ID>  (2115) 
25997

>  <Energy>  (2115) 
54.837435

>  <fragmenstein_error>  (2115) 


>  <tags>  (2115) 
{'openbind_xx01zvns2b_c1_fragmenstein', 'fragmenstein_placed'}

>  <ref_pdb>  (2115) 
175

>  <scratch_subdir>  (2115) 
/opt/xchem-fragalysis-2/maxwin/BulkDock/SCRATCH/511028/C32125-P251

>  <alias>  (2115) 
CCN1CCC(c2c[nH]c3c(F)cc(C(=O)Nc4ccc5c(c4)CNC5)cc23)CC1

>  <HIPPO Compound ID>  (2115) 
32125

>  <fragmenstein_runtime>  (2115) 
4.977138

$$$$
CCN1CCC(c2c[nH]c3c(Cl)cc([C@](O)(Nc4ccc5c(c4)CNC5)C(=O)NCCCF)cc23)CC1
     RDKit          3D

 37 41  0  0  0  0  0  0  0  0999 V2000
    0.7230    6.6858  -17.2037 C   0  0  0  0  0  0  0  0  0  0  0  0
    0.0503    7.5045  -18.3024 C   0  0  0  0  0  0  0  0  0  0  0  0
   -1.4110    7.4270  -18.3578 N   0  0  0  0  0  0  0  0  0  0  0  0
   -2.0808    8.1247  -17.2594 C   0  0  0  0  0  0  0  0  0  0  0  0
   -3.5797    7.8315  -17.2515 C   0  0  0  0  0  0  0  0  0  0  0  0
   -3.8399    6.3392  -16.9841 C   0  0  0  0  0  0  0  0  0  0  0  0
   -5.1792    5.8913  -17.5090 C   0  0  0  0  0  0  0  0  0  0  0  0
   -5.5830    5.8926  -18.8320 C   0  0  0  0  0  0  0  0  0  0  0  0
   -6.8588    5.4114  -18.8952 N   0  0  0  0  0  0  0  0  0  0  0  0
   -7.2916    5.0586  -17.6424 C   0  0  0  0  0  0  0  0  0  0  0  0
   -8.5004    4.5009  -17.2439 C   0  0  0  0  0  0  0  0  0  0  0  0
   -9.7371    4.1200  -18.3637 Cl  0  0  0  0  0  0  0  0  0  0  0  0
   -8.6848    4.2425  -15.8921 C   0  0  0  0  0  0  0  0  0  0  0  0
   -7.7081    4.5369  -14.9228 C   0  0  0  0  0  0  0  0  0  0  0  0
   -7.9446    4.0780  -13.4671 C   0  0  2  0  0  0  0  0  0  0  0  0
   -9.3357    3.9649  -13.3312 O   0  0  0  0  0  0  0  0  0  0  0  0
   -7.5584    5.1301  -12.4983 N   0  0  0  0  0  0  0  0  0  0  0  0
   -7.8820    4.9298  -11.1238 C   0  0  0  0  0  0  0  0  0  0  0  0
   -7.6914    6.0187  -10.2448 C   0  0  0  0  0  0  0  0  0  0  0  0
   -7.9097    5.9048   -8.8629 C   0  0  0  0  0  0  0  0  0  0  0  0
   -8.3074    4.6819   -8.3568 C   0  0  0  0  0  0  0  0  0  0  0  0
   -8.4974    3.6004   -9.1990 C   0  0  0  0  0  0  0  0  0  0  0  0
   -8.2794    3.7016  -10.5657 C   0  0  0  0  0  0  0  0  0  0  0  0
   -8.9788    2.4253   -8.4157 C   0  0  0  0  0  0  0  0  0  0  0  0
   -8.8659    2.8192   -6.9841 N   0  0  0  0  0  0  0  0  0  0  0  0
   -8.6216    4.2775   -6.9582 C   0  0  0  0  0  0  0  0  0  0  0  0
   -7.0130    2.7578  -13.2538 C   0  0  0  0  0  0  0  0  0  0  0  0
   -7.3309    1.6728  -13.5560 O   0  0  0  0  0  0  0  0  0  0  0  0
   -5.6714    3.2896  -12.6689 N   0  0  0  0  0  0  0  0  0  0  0  0
   -4.4980    2.5884  -12.2539 C   0  0  0  0  0  0  0  0  0  0  0  0
   -3.4919    2.5184  -13.3917 C   0  0  0  0  0  0  0  0  0  0  0  0
   -2.2176    1.8866  -12.8803 C   0  0  0  0  0  0  0  0  0  0  0  0
   -1.6230    2.7298  -11.9937 F   0  0  0  0  0  0  0  0  0  0  0  0
   -6.4967    5.1155  -15.3606 C   0  0  0  0  0  0  0  0  0  0  0  0
   -6.2754    5.3694  -16.7399 C   0  0  0  0  0  0  0  0  0  0  0  0
   -2.6897    5.4544  -17.4907 C   0  0  0  0  0  0  0  0  0  0  0  0
   -1.9360    6.0911  -18.6570 C   0  0  0  0  0  0  0  0  0  0  0  0
  1  2  1  0
  2  3  1  0
  3  4  1  0
  4  5  1  0
  5  6  1  0
  6  7  1  0
  7  8  2  0
  8  9  1  0
  9 10  1  0
 10 11  2  0
 11 12  1  0
 11 13  1  0
 13 14  2  0
 14 15  1  0
 15 16  1  6
 15 17  1  0
 17 18  1  0
 18 19  2  0
 19 20  1  0
 20 21  2  0
 21 22  1  0
 22 23  2  0
 22 24  1  0
 24 25  1  0
 25 26  1  0
 15 27  1  0
 27 28  2  0
 27 29  1  0
 29 30  1  0
 30 31  1  0
 31 32  1  0
 32 33  1  0
 14 34  1  0
 34 35  2  0
  6 36  1  0
 36 37  1  0
 37  3  1  0
 35  7  1  0
 35 10  1  0
 23 18  1  0
 26 21  1  0
M  END
>  <smiles>  (2116) 
C32187-P251

>  <fragmenstein_outcome>  (2116) 
acceptable

>  <inchikey>  (2116) 
OAPPERJDBYKZDO-UHFFFAOYSA-N

>  <fragmenstein_mode>  (2116) 
expansion

>  <HIPPO Pose ID>  (2116) 
26015

>  <Energy>  (2116) 
90.214419

>  <fragmenstein_error>  (2116) 


>  <tags>  (2116) 
{'openbind_xx01zvns2b_c1_fragmenstein', 'fragmenstein_placed'}

>  <ref_pdb>  (2116) 
175

>  <scratch_subdir>  (2116) 
/opt/xchem-fragalysis-2/maxwin/BulkDock/SCRATCH/511028/C32187-P251

>  <alias>  (2116) 
CCN1CCC(c2c[nH]c3c(Cl)cc([C@](O)(Nc4ccc5c(c4)CNC5)C(=O)NCCCF)cc23)CC1

>  <HIPPO Compound ID>  (2116) 
32187

>  <fragmenstein_runtime>  (2116) 
12.391825

$$$$
CCN1CCC(c2c[nH]c3c(Cl)cc([C@](O)(Nc4ccc5c(c4)CNC5)C(=O)NCC(F)F)cc23)CC1
     RDKit          3D

 37 41  0  0  0  0  0  0  0  0999 V2000
    0.3640    8.3236  -15.5080 C   0  0  0  0  0  0  0  0  0  0  0  0
   -0.0605    7.6659  -16.8167 C   0  0  0  0  0  0  0  0  0  0  0  0
   -1.3619    6.9830  -16.7271 N   0  0  0  0  0  0  0  0  0  0  0  0
   -2.4753    7.9251  -16.5301 C   0  0  0  0  0  0  0  0  0  0  0  0
   -3.8252    7.2029  -16.4309 C   0  0  0  0  0  0  0  0  0  0  0  0
   -4.0381    6.3603  -17.6758 C   0  0  0  0  0  0  0  0  0  0  0  0
   -5.3866    5.7265  -17.8368 C   0  0  0  0  0  0  0  0  0  0  0  0
   -5.8999    5.5492  -19.1096 C   0  0  0  0  0  0  0  0  0  0  0  0
   -7.1511    5.0419  -19.0073 N   0  0  0  0  0  0  0  0  0  0  0  0
   -7.4756    4.8513  -17.6949 C   0  0  0  0  0  0  0  0  0  0  0  0
   -8.6655    4.3702  -17.1750 C   0  0  0  0  0  0  0  0  0  0  0  0
   -9.9882    3.9636  -18.1796 Cl  0  0  0  0  0  0  0  0  0  0  0  0
   -8.7548    4.2019  -15.8080 C   0  0  0  0  0  0  0  0  0  0  0  0
   -7.6993    4.5131  -14.9335 C   0  0  0  0  0  0  0  0  0  0  0  0
   -7.8558    4.0547  -13.4587 C   0  0  2  0  0  0  0  0  0  0  0  0
   -9.2386    3.9194  -13.2412 O   0  0  0  0  0  0  0  0  0  0  0  0
   -7.4212    5.0951  -12.4969 N   0  0  0  0  0  0  0  0  0  0  0  0
   -7.7742    4.8840  -11.1236 C   0  0  0  0  0  0  0  0  0  0  0  0
   -7.6778    5.9845  -10.2430 C   0  0  0  0  0  0  0  0  0  0  0  0
   -7.9679    5.8672   -8.8729 C   0  0  0  0  0  0  0  0  0  0  0  0
   -8.3524    4.6335   -8.3818 C   0  0  0  0  0  0  0  0  0  0  0  0
   -8.4292    3.5356   -9.2217 C   0  0  0  0  0  0  0  0  0  0  0  0
   -8.1210    3.6361  -10.5706 C   0  0  0  0  0  0  0  0  0  0  0  0
   -8.8560    2.3321   -8.4451 C   0  0  0  0  0  0  0  0  0  0  0  0
   -9.2826    2.8531   -7.1181 N   0  0  0  0  0  0  0  0  0  0  0  0
   -8.7011    4.2060   -6.9962 C   0  0  0  0  0  0  0  0  0  0  0  0
   -6.9248    2.7357  -13.3051 C   0  0  0  0  0  0  0  0  0  0  0  0
   -7.2708    1.6523  -13.5774 O   0  0  0  0  0  0  0  0  0  0  0  0
   -5.5367    3.2639  -12.8455 N   0  0  0  0  0  0  0  0  0  0  0  0
   -4.3234    2.5556  -12.5377 C   0  0  0  0  0  0  0  0  0  0  0  0
   -3.3430    2.6196  -13.6989 C   0  0  0  0  0  0  0  0  0  0  0  0
   -2.1296    2.1678  -13.2921 F   0  0  0  0  0  0  0  0  0  0  0  0
   -3.7423    1.8097  -14.7096 F   0  0  0  0  0  0  0  0  0  0  0  0
   -6.5122    5.0640  -15.4950 C   0  0  0  0  0  0  0  0  0  0  0  0
   -6.3832    5.2328  -16.9093 C   0  0  0  0  0  0  0  0  0  0  0  0
   -2.8860    5.3735  -17.8491 C   0  0  0  0  0  0  0  0  0  0  0  0
   -1.5654    6.1418  -17.9200 C   0  0  0  0  0  0  0  0  0  0  0  0
  1  2  1  0
  2  3  1  0
  3  4  1  0
  4  5  1  0
  5  6  1  0
  6  7  1  0
  7  8  2  0
  8  9  1  0
  9 10  1  0
 10 11  2  0
 11 12  1  0
 11 13  1  0
 13 14  2  0
 14 15  1  0
 15 16  1  1
 15 17  1  0
 17 18  1  0
 18 19  2  0
 19 20  1  0
 20 21  2  0
 21 22  1  0
 22 23  2  0
 22 24  1  0
 24 25  1  0
 25 26  1  0
 15 27  1  0
 27 28  2  0
 27 29  1  0
 29 30  1  0
 30 31  1  0
 31 32  1  0
 31 33  1  0
 14 34  1  0
 34 35  2  0
  6 36  1  0
 36 37  1  0
 37  3  1  0
 35  7  1  0
 35 10  1  0
 23 18  1  0
 26 21  1  0
M  END
>  <smiles>  (2117) 
C32124-P251

>  <fragmenstein_outcome>  (2117) 
acceptable

>  <inchikey>  (2117) 
KBLQQTCGHYEYNM-UHFFFAOYSA-N

>  <fragmenstein_mode>  (2117) 
expansion

>  <HIPPO Pose ID>  (2117) 
26021

>  <Energy>  (2117) 
125.104487

>  <fragmenstein_error>  (2117) 


>  <tags>  (2117) 
{'openbind_xx01zvns2b_c1_fragmenstein', 'fragmenstein_placed'}

>  <ref_pdb>  (2117) 
175

>  <scratch_subdir>  (2117) 
/opt/xchem-fragalysis-2/maxwin/BulkDock/SCRATCH/511028/C32124-P251

>  <alias>  (2117) 
CCN1CCC(c2c[nH]c3c(Cl)cc([C@](O)(Nc4ccc5c(c4)CNC5)C(=O)NCC(F)F)cc23)CC1

>  <HIPPO Compound ID>  (2117) 
32124

>  <fragmenstein_runtime>  (2117) 
11.538914

$$$$
Cc1cc(C(=O)Nc2cccc(F)c2)c2nn(CN)c(C3CNC3)c2c1
     RDKit          3D

 26 29  0  0  0  0  0  0  0  0999 V2000
  -10.0378    3.9450  -17.7146 C   0  0  0  0  0  0  0  0  0  0  0  0
   -8.7235    4.2729  -17.0723 C   0  0  0  0  0  0  0  0  0  0  0  0
   -8.6478    4.4784  -15.6581 C   0  0  0  0  0  0  0  0  0  0  0  0
   -7.4730    4.9193  -15.0029 C   0  0  0  0  0  0  0  0  0  0  0  0
   -7.4674    5.3170  -13.5823 C   0  0  0  0  0  0  0  0  0  0  0  0
   -7.0665    6.3775  -13.3008 O   0  0  0  0  0  0  0  0  0  0  0  0
   -8.0772    4.2053  -12.6920 N   0  0  0  0  0  0  0  0  0  0  0  0
   -8.2269    4.1342  -11.3068 C   0  0  0  0  0  0  0  0  0  0  0  0
   -7.9231    5.2272  -10.4917 C   0  0  0  0  0  0  0  0  0  0  0  0
   -8.0609    5.1355   -9.1032 C   0  0  0  0  0  0  0  0  0  0  0  0
   -8.5067    3.9492   -8.5267 C   0  0  0  0  0  0  0  0  0  0  0  0
   -8.8242    2.8715   -9.3430 C   0  0  0  0  0  0  0  0  0  0  0  0
   -9.2838    1.7440   -8.7844 F   0  0  0  0  0  0  0  0  0  0  0  0
   -8.6868    2.9521  -10.7268 C   0  0  0  0  0  0  0  0  0  0  0  0
   -6.3658    5.1260  -15.8521 C   0  0  0  0  0  0  0  0  0  0  0  0
   -5.1171    5.5586  -15.6079 N   0  0  0  0  0  0  0  0  0  0  0  0
   -4.5353    5.6922  -16.8242 N   0  0  0  0  0  0  0  0  0  0  0  0
   -3.2498    6.3707  -16.8746 C   0  0  0  0  0  0  0  0  0  0  0  0
   -2.2148    5.3872  -16.5949 N   0  0  0  0  0  0  0  0  0  0  0  0
   -5.2998    5.2281  -17.8585 C   0  0  0  0  0  0  0  0  0  0  0  0
   -4.9861    5.1863  -19.3813 C   0  0  0  0  0  0  0  0  0  0  0  0
   -4.8277    6.5553  -20.0679 C   0  0  0  0  0  0  0  0  0  0  0  0
   -3.7742    5.9619  -20.9257 N   0  0  0  0  0  0  0  0  0  0  0  0
   -3.5491    4.9311  -19.8709 C   0  0  0  0  0  0  0  0  0  0  0  0
   -6.4866    4.8726  -17.2693 C   0  0  0  0  0  0  0  0  0  0  0  0
   -7.6211    4.4340  -17.9389 C   0  0  0  0  0  0  0  0  0  0  0  0
  1  2  1  0
  2  3  1  0
  3  4  2  0
  4  5  1  0
  5  6  2  0
  5  7  1  0
  7  8  1  0
  8  9  2  0
  9 10  1  0
 10 11  2  0
 11 12  1  0
 12 13  1  0
 12 14  2  0
  4 15  1  0
 15 16  2  0
 16 17  1  0
 17 18  1  0
 18 19  1  0
 17 20  1  0
 20 21  1  0
 21 22  1  0
 22 23  1  0
 23 24  1  0
 20 25  2  0
 25 26  1  0
 26  2  2  0
 14  8  1  0
 25 15  1  0
 24 21  1  0
M  END
>  <smiles>  (2118) 
C32240-P252

>  <fragmenstein_outcome>  (2118) 
acceptable

>  <inchikey>  (2118) 
KGCNUOLVSJDGRT-UHFFFAOYSA-N

>  <fragmenstein_mode>  (2118) 
expansion

>  <HIPPO Pose ID>  (2118) 
26040

>  <Energy>  (2118) 
117.586427

>  <fragmenstein_error>  (2118) 


>  <tags>  (2118) 
{'openbind_xx01zvns2b_c1_fragmenstein', 'fragmenstein_placed'}

>  <ref_pdb>  (2118) 
175

>  <scratch_subdir>  (2118) 
/opt/xchem-fragalysis-2/maxwin/BulkDock/SCRATCH/511028/C32240-P252

>  <alias>  (2118) 
Cc1cc(C(=O)Nc2cccc(F)c2)c2nn(CN)c(C3CNC3)c2c1

>  <HIPPO Compound ID>  (2118) 
32240

>  <fragmenstein_runtime>  (2118) 
7.054298

$$$$
Nn1nc2c(C(=O)Nc3cccc(F)c3)cccc2c1C1CNC1
     RDKit          3D

 24 27  0  0  0  0  0  0  0  0999 V2000
   -3.2029    5.5482  -16.1223 N   0  0  0  0  0  0  0  0  0  0  0  0
   -4.5635    5.3560  -16.2993 N   0  0  0  0  0  0  0  0  0  0  0  0
   -5.3691    5.4109  -15.2502 N   0  0  0  0  0  0  0  0  0  0  0  0
   -6.5748    5.0420  -15.7115 C   0  0  0  0  0  0  0  0  0  0  0  0
   -7.8004    4.8738  -15.0420 C   0  0  0  0  0  0  0  0  0  0  0  0
   -7.9568    5.3214  -13.6495 C   0  0  0  0  0  0  0  0  0  0  0  0
   -7.7269    6.4398  -13.4053 O   0  0  0  0  0  0  0  0  0  0  0  0
   -8.3383    4.1505  -12.7165 N   0  0  0  0  0  0  0  0  0  0  0  0
   -8.4210    4.0906  -11.3247 C   0  0  0  0  0  0  0  0  0  0  0  0
   -8.1435    5.2124  -10.5379 C   0  0  0  0  0  0  0  0  0  0  0  0
   -8.1913    5.1304   -9.1428 C   0  0  0  0  0  0  0  0  0  0  0  0
   -8.5328    3.9277   -8.5307 C   0  0  0  0  0  0  0  0  0  0  0  0
   -8.8286    2.8223   -9.3178 C   0  0  0  0  0  0  0  0  0  0  0  0
   -9.2013    1.6811   -8.7239 F   0  0  0  0  0  0  0  0  0  0  0  0
   -8.7634    2.8891  -10.7074 C   0  0  0  0  0  0  0  0  0  0  0  0
   -8.8446    4.3702  -15.8431 C   0  0  0  0  0  0  0  0  0  0  0  0
   -8.6956    4.1213  -17.2444 C   0  0  0  0  0  0  0  0  0  0  0  0
   -7.4999    4.3432  -17.9650 C   0  0  0  0  0  0  0  0  0  0  0  0
   -6.4745    4.7878  -17.1327 C   0  0  0  0  0  0  0  0  0  0  0  0
   -5.1776    5.0729  -17.4788 C   0  0  0  0  0  0  0  0  0  0  0  0
   -4.4985    5.0166  -18.8722 C   0  0  0  0  0  0  0  0  0  0  0  0
   -3.3039    5.9694  -19.1194 C   0  0  0  0  0  0  0  0  0  0  0  0
   -3.8155    6.2068  -20.4882 N   0  0  0  0  0  0  0  0  0  0  0  0
   -5.1615    5.8535  -19.9746 C   0  0  0  0  0  0  0  0  0  0  0  0
  1  2  1  0
  2  3  1  0
  3  4  2  0
  4  5  1  0
  5  6  1  0
  6  7  2  0
  6  8  1  0
  8  9  1  0
  9 10  2  0
 10 11  1  0
 11 12  2  0
 12 13  1  0
 13 14  1  0
 13 15  2  0
  5 16  2  0
 16 17  1  0
 17 18  2  0
 18 19  1  0
 19 20  2  0
 20 21  1  0
 21 22  1  0
 22 23  1  0
 23 24  1  0
 20  2  1  0
 24 21  1  0
 19  4  1  0
 15  9  1  0
M  END
>  <smiles>  (2119) 
C32242-P252

>  <fragmenstein_outcome>  (2119) 
acceptable

>  <inchikey>  (2119) 
HAYJXVXLDLYZJC-UHFFFAOYSA-N

>  <fragmenstein_mode>  (2119) 
expansion

>  <HIPPO Pose ID>  (2119) 
26045

>  <Energy>  (2119) 
10.262639

>  <fragmenstein_error>  (2119) 


>  <tags>  (2119) 
{'openbind_xx01zvns2b_c1_fragmenstein', 'fragmenstein_placed'}

>  <ref_pdb>  (2119) 
175

>  <scratch_subdir>  (2119) 
/opt/xchem-fragalysis-2/maxwin/BulkDock/SCRATCH/511028/C32242-P252

>  <alias>  (2119) 
Nn1nc2c(C(=O)Nc3cccc(F)c3)cccc2c1C1CNC1

>  <HIPPO Compound ID>  (2119) 
25898

>  <fragmenstein_runtime>  (2119) 
6.331272

$$$$
Cc1cc([C@@](O)(F)Nc2cccc(F)c2)c2[nH]nc(C3CNC3)c2c1
     RDKit          3D

 25 28  0  0  0  0  0  0  0  0999 V2000
   -9.9336    3.9806  -17.8998 C   0  0  0  0  0  0  0  0  0  0  0  0
   -8.6821    4.2958  -17.1503 C   0  0  0  0  0  0  0  0  0  0  0  0
   -8.7086    4.4393  -15.7596 C   0  0  0  0  0  0  0  0  0  0  0  0
   -7.5671    4.7898  -15.0159 C   0  0  0  0  0  0  0  0  0  0  0  0
   -7.6689    5.0540  -13.5303 C   0  0  1  0  0  0  0  0  0  0  0  0
   -6.3944    5.4391  -13.0550 O   0  0  0  0  0  0  0  0  0  0  0  0
   -8.5185    6.0813  -13.2725 F   0  0  0  0  0  0  0  0  0  0  0  0
   -8.0769    3.8974  -12.7749 N   0  0  0  0  0  0  0  0  0  0  0  0
   -8.3117    3.9544  -11.3936 C   0  0  0  0  0  0  0  0  0  0  0  0
   -8.6893    2.7730  -10.7416 C   0  0  0  0  0  0  0  0  0  0  0  0
   -8.7933    2.6948   -9.3483 C   0  0  0  0  0  0  0  0  0  0  0  0
   -8.5148    3.8113   -8.5716 C   0  0  0  0  0  0  0  0  0  0  0  0
   -8.1453    4.9883   -9.2020 C   0  0  0  0  0  0  0  0  0  0  0  0
   -7.8461    6.0691   -8.4700 F   0  0  0  0  0  0  0  0  0  0  0  0
   -8.0431    5.0671  -10.5893 C   0  0  0  0  0  0  0  0  0  0  0  0
   -6.3953    4.9628  -15.7826 C   0  0  0  0  0  0  0  0  0  0  0  0
   -5.1247    5.3154  -15.4026 N   0  0  0  0  0  0  0  0  0  0  0  0
   -4.2359    5.3714  -16.4048 N   0  0  0  0  0  0  0  0  0  0  0  0
   -4.9743    5.0904  -17.4827 C   0  0  0  0  0  0  0  0  0  0  0  0
   -4.3792    5.0453  -18.9127 C   0  0  0  0  0  0  0  0  0  0  0  0
   -3.1594    5.9539  -19.1640 C   0  0  0  0  0  0  0  0  0  0  0  0
   -3.7173    6.2792  -20.5019 N   0  0  0  0  0  0  0  0  0  0  0  0
   -5.0551    5.9516  -19.9475 C   0  0  0  0  0  0  0  0  0  0  0  0
   -6.3252    4.8102  -17.1611 C   0  0  0  0  0  0  0  0  0  0  0  0
   -7.4856    4.4592  -17.8624 C   0  0  0  0  0  0  0  0  0  0  0  0
  1  2  1  0
  2  3  2  0
  3  4  1  0
  4  5  1  0
  5  6  1  1
  5  7  1  0
  5  8  1  0
  8  9  1  0
  9 10  2  0
 10 11  1  0
 11 12  2  0
 12 13  1  0
 13 14  1  0
 13 15  2  0
  4 16  2  0
 16 17  1  0
 17 18  1  0
 18 19  2  0
 19 20  1  0
 20 21  1  0
 21 22  1  0
 22 23  1  0
 19 24  1  0
 24 25  2  0
 25  2  1  0
 15  9  1  0
 24 16  1  0
 23 20  1  0
M  END
>  <smiles>  (2120) 
C32268-P252

>  <fragmenstein_outcome>  (2120) 
acceptable

>  <inchikey>  (2120) 
CFVYAZJUDRQJNL-UHFFFAOYSA-N

>  <fragmenstein_mode>  (2120) 
expansion

>  <HIPPO Pose ID>  (2120) 
26050

>  <Energy>  (2120) 
-1.475084

>  <fragmenstein_error>  (2120) 


>  <tags>  (2120) 
{'openbind_xx01zvns2b_c1_fragmenstein', 'fragmenstein_placed'}

>  <ref_pdb>  (2120) 
175

>  <scratch_subdir>  (2120) 
/opt/xchem-fragalysis-2/maxwin/BulkDock/SCRATCH/511028/C32268-P252

>  <alias>  (2120) 
Cc1cc([C@@](O)(F)Nc2cccc(F)c2)c2[nH]nc(C3CNC3)c2c1

>  <HIPPO Compound ID>  (2120) 
24484

>  <fragmenstein_runtime>  (2120) 
7.107935

$$$$
Cn1c(C2CNC2)c2cccc(C(=O)Nc3cccc(F)c3)c2c1F
     RDKit          3D

 25 28  0  0  0  0  0  0  0  0999 V2000
   -3.2450    6.5619  -15.9223 C   0  0  0  0  0  0  0  0  0  0  0  0
   -4.5220    5.9249  -16.1242 N   0  0  0  0  0  0  0  0  0  0  0  0
   -5.0542    5.5500  -17.3443 C   0  0  0  0  0  0  0  0  0  0  0  0
   -4.2633    5.8022  -18.6625 C   0  0  0  0  0  0  0  0  0  0  0  0
   -4.9299    6.6712  -19.7386 C   0  0  0  0  0  0  0  0  0  0  0  0
   -4.1986    5.8535  -20.7408 N   0  0  0  0  0  0  0  0  0  0  0  0
   -4.2067    4.7383  -19.7487 C   0  0  0  0  0  0  0  0  0  0  0  0
   -6.3146    5.0415  -17.0840 C   0  0  0  0  0  0  0  0  0  0  0  0
   -7.2671    4.5344  -17.9697 C   0  0  0  0  0  0  0  0  0  0  0  0
   -8.4715    4.1785  -17.3003 C   0  0  0  0  0  0  0  0  0  0  0  0
   -8.7094    4.3595  -15.8914 C   0  0  0  0  0  0  0  0  0  0  0  0
   -7.7490    4.9070  -15.0176 C   0  0  0  0  0  0  0  0  0  0  0  0
   -8.0165    5.3439  -13.6364 C   0  0  0  0  0  0  0  0  0  0  0  0
   -7.9239    6.4825  -13.3977 O   0  0  0  0  0  0  0  0  0  0  0  0
   -8.2862    4.1456  -12.7041 N   0  0  0  0  0  0  0  0  0  0  0  0
   -8.4006    4.0860  -11.3148 C   0  0  0  0  0  0  0  0  0  0  0  0
   -8.1962    5.2240  -10.5284 C   0  0  0  0  0  0  0  0  0  0  0  0
   -8.2633    5.1452   -9.1340 C   0  0  0  0  0  0  0  0  0  0  0  0
   -8.5602    3.9305   -8.5229 C   0  0  0  0  0  0  0  0  0  0  0  0
   -8.7887    2.8094   -9.3104 C   0  0  0  0  0  0  0  0  0  0  0  0
   -9.1257    1.6566   -8.7180 F   0  0  0  0  0  0  0  0  0  0  0  0
   -8.6936    2.8718  -10.6986 C   0  0  0  0  0  0  0  0  0  0  0  0
   -6.5541    5.1970  -15.6757 C   0  0  0  0  0  0  0  0  0  0  0  0
   -5.4109    5.6925  -15.1187 C   0  0  0  0  0  0  0  0  0  0  0  0
   -5.1862    5.9404  -13.8206 F   0  0  0  0  0  0  0  0  0  0  0  0
  1  2  1  0
  2  3  1  0
  3  4  1  0
  4  5  1  0
  5  6  1  0
  6  7  1  0
  3  8  2  0
  8  9  1  0
  9 10  2  0
 10 11  1  0
 11 12  2  0
 12 13  1  0
 13 14  2  0
 13 15  1  0
 15 16  1  0
 16 17  2  0
 17 18  1  0
 18 19  2  0
 19 20  1  0
 20 21  1  0
 20 22  2  0
 12 23  1  0
 23 24  2  0
 24 25  1  0
 24  2  1  0
  7  4  1  0
 23  8  1  0
 22 16  1  0
M  END
>  <smiles>  (2121) 
C32279-P252

>  <fragmenstein_outcome>  (2121) 
acceptable

>  <inchikey>  (2121) 
PAHWXRCPUIMXMH-UHFFFAOYSA-N

>  <fragmenstein_mode>  (2121) 
expansion

>  <HIPPO Pose ID>  (2121) 
26053

>  <Energy>  (2121) 
87.159966

>  <fragmenstein_error>  (2121) 


>  <tags>  (2121) 
{'openbind_xx01zvns2b_c1_fragmenstein', 'fragmenstein_placed'}

>  <ref_pdb>  (2121) 
175

>  <scratch_subdir>  (2121) 
/opt/xchem-fragalysis-2/maxwin/BulkDock/SCRATCH/511028/C32279-P252

>  <alias>  (2121) 
Cn1c(C2CNC2)c2cccc(C(=O)Nc3cccc(F)c3)c2c1F

>  <HIPPO Compound ID>  (2121) 
32345

>  <fragmenstein_runtime>  (2121) 
9.295301

$$$$
CN(C)c1cccc(NC(=O)c2cc(Cl)cc3c([C@@H]4CN[C@]4(C)O)n[nH]c23)c1
     RDKit          3D

 28 31  0  0  0  0  0  0  0  0999 V2000
   -9.3257    2.7525   -6.6301 C   0  0  0  0  0  0  0  0  0  0  0  0
   -9.3181    2.6270   -8.0851 N   0  0  0  0  0  0  0  0  0  0  0  0
   -9.1970    1.2645   -8.5501 C   0  0  0  0  0  0  0  0  0  0  0  0
   -8.7461    3.6197   -8.8858 C   0  0  0  0  0  0  0  0  0  0  0  0
   -8.2944    4.8219   -8.3206 C   0  0  0  0  0  0  0  0  0  0  0  0
   -7.7715    5.8511   -9.0958 C   0  0  0  0  0  0  0  0  0  0  0  0
   -7.6832    5.7018  -10.4706 C   0  0  0  0  0  0  0  0  0  0  0  0
   -8.1248    4.5314  -11.0816 C   0  0  0  0  0  0  0  0  0  0  0  0
   -8.0259    4.4160  -12.4691 N   0  0  0  0  0  0  0  0  0  0  0  0
   -7.3678    5.3482  -13.5082 C   0  0  0  0  0  0  0  0  0  0  0  0
   -6.8715    6.3982  -13.3771 O   0  0  0  0  0  0  0  0  0  0  0  0
   -7.3800    4.8305  -14.8955 C   0  0  0  0  0  0  0  0  0  0  0  0
   -8.5380    4.4347  -15.5586 C   0  0  0  0  0  0  0  0  0  0  0  0
   -8.5192    4.3138  -16.9493 C   0  0  0  0  0  0  0  0  0  0  0  0
   -9.9918    3.9982  -17.7708 Cl  0  0  0  0  0  0  0  0  0  0  0  0
   -7.3716    4.5849  -17.7155 C   0  0  0  0  0  0  0  0  0  0  0  0
   -6.1872    4.9521  -17.0531 C   0  0  0  0  0  0  0  0  0  0  0  0
   -4.8879    5.4355  -17.3747 C   0  0  0  0  0  0  0  0  0  0  0  0
   -4.3829    6.0165  -18.7126 C   0  0  2  0  0  0  0  0  0  0  0  0
   -5.0955    5.7542  -20.0204 C   0  0  0  0  0  0  0  0  0  0  0  0
   -3.7638    5.7420  -20.6878 N   0  0  0  0  0  0  0  0  0  0  0  0
   -3.1649    5.3508  -19.3948 C   0  0  1  0  0  0  0  0  0  0  0  0
   -1.8470    6.0620  -19.1269 C   0  0  0  0  0  0  0  0  0  0  0  0
   -3.0114    3.9218  -19.3770 O   0  0  0  0  0  0  0  0  0  0  0  0
   -4.1318    5.6404  -16.2882 N   0  0  0  0  0  0  0  0  0  0  0  0
   -4.9719    5.4196  -15.2759 N   0  0  0  0  0  0  0  0  0  0  0  0
   -6.2233    5.0269  -15.6648 C   0  0  0  0  0  0  0  0  0  0  0  0
   -8.6554    3.5035  -10.2956 C   0  0  0  0  0  0  0  0  0  0  0  0
  1  2  1  0
  2  3  1  0
  2  4  1  0
  4  5  2  0
  5  6  1  0
  6  7  2  0
  7  8  1  0
  8  9  1  0
  9 10  1  0
 10 11  2  0
 10 12  1  0
 12 13  2  0
 13 14  1  0
 14 15  1  0
 14 16  2  0
 16 17  1  0
 17 18  1  0
 19 18  1  1
 19 20  1  0
 20 21  1  0
 21 22  1  0
 22 23  1  1
 22 24  1  0
 18 25  2  0
 25 26  1  0
 26 27  1  0
  8 28  2  0
 28  4  1  0
 27 12  1  0
 27 17  2  0
 22 19  1  0
M  END
>  <smiles>  (2122) 
C32280-P252

>  <fragmenstein_outcome>  (2122) 
acceptable

>  <inchikey>  (2122) 
XFNYJJBFMKDJDD-UHFFFAOYSA-N

>  <fragmenstein_mode>  (2122) 
expansion

>  <HIPPO Pose ID>  (2122) 
26054

>  <Energy>  (2122) 
45.321061

>  <fragmenstein_error>  (2122) 


>  <tags>  (2122) 
{'openbind_xx01zvns2b_c1_fragmenstein', 'fragmenstein_placed'}

>  <ref_pdb>  (2122) 
175

>  <scratch_subdir>  (2122) 
/opt/xchem-fragalysis-2/maxwin/BulkDock/SCRATCH/511028/C32280-P252

>  <alias>  (2122) 
CN(C)c1cccc(NC(=O)c2cc(Cl)cc3c([C@@H]4CN[C@]4(C)O)n[nH]c23)c1

>  <HIPPO Compound ID>  (2122) 
22887

>  <fragmenstein_runtime>  (2122) 
10.788277

$$$$
Nn1nc(C2CNC2)c2cccc(C(=O)Nc3cccc(F)c3)c21
     RDKit          3D

 24 27  0  0  0  0  0  0  0  0999 V2000
   -5.1314    6.5360  -14.1154 N   0  0  0  0  0  0  0  0  0  0  0  0
   -5.3474    5.9817  -15.3680 N   0  0  0  0  0  0  0  0  0  0  0  0
   -4.4291    6.1656  -16.3011 N   0  0  0  0  0  0  0  0  0  0  0  0
   -4.9675    5.6635  -17.4096 C   0  0  0  0  0  0  0  0  0  0  0  0
   -4.1525    5.8461  -18.7085 C   0  0  0  0  0  0  0  0  0  0  0  0
   -4.8036    6.6854  -19.8153 C   0  0  0  0  0  0  0  0  0  0  0  0
   -4.0997    5.8132  -20.7882 N   0  0  0  0  0  0  0  0  0  0  0  0
   -4.1160    4.7410  -19.7507 C   0  0  0  0  0  0  0  0  0  0  0  0
   -6.2556    5.1110  -17.1770 C   0  0  0  0  0  0  0  0  0  0  0  0
   -7.2816    4.4982  -17.9247 C   0  0  0  0  0  0  0  0  0  0  0  0
   -8.4739    4.1122  -17.2879 C   0  0  0  0  0  0  0  0  0  0  0  0
   -8.6713    4.3442  -15.9267 C   0  0  0  0  0  0  0  0  0  0  0  0
   -7.6812    4.9795  -15.1704 C   0  0  0  0  0  0  0  0  0  0  0  0
   -7.9342    5.4086  -13.7731 C   0  0  0  0  0  0  0  0  0  0  0  0
   -7.8258    6.5472  -13.5323 O   0  0  0  0  0  0  0  0  0  0  0  0
   -8.2257    4.2107  -12.8410 N   0  0  0  0  0  0  0  0  0  0  0  0
   -8.3468    4.1513  -11.4510 C   0  0  0  0  0  0  0  0  0  0  0  0
   -8.0964    5.2762  -10.6590 C   0  0  0  0  0  0  0  0  0  0  0  0
   -8.1740    5.1966   -9.2646 C   0  0  0  0  0  0  0  0  0  0  0  0
   -8.5169    3.9924   -8.6569 C   0  0  0  0  0  0  0  0  0  0  0  0
   -8.7859    2.8829   -9.4476 C   0  0  0  0  0  0  0  0  0  0  0  0
   -9.1590    1.7401   -8.8566 F   0  0  0  0  0  0  0  0  0  0  0  0
   -8.6914    2.9477  -10.8368 C   0  0  0  0  0  0  0  0  0  0  0  0
   -6.4783    5.3395  -15.8127 C   0  0  0  0  0  0  0  0  0  0  0  0
  1  2  1  0
  2  3  1  0
  3  4  2  0
  4  5  1  0
  5  6  1  0
  6  7  1  0
  7  8  1  0
  4  9  1  0
  9 10  2  0
 10 11  1  0
 11 12  2  0
 12 13  1  0
 13 14  1  0
 14 15  2  0
 14 16  1  0
 16 17  1  0
 17 18  2  0
 18 19  1  0
 19 20  2  0
 20 21  1  0
 21 22  1  0
 21 23  2  0
 13 24  2  0
 24  2  1  0
  8  5  1  0
 24  9  1  0
 23 17  1  0
M  END
>  <smiles>  (2123) 
C32298-P252

>  <fragmenstein_outcome>  (2123) 
acceptable

>  <inchikey>  (2123) 
VHDRCYDIPVHVFN-UHFFFAOYSA-N

>  <fragmenstein_mode>  (2123) 
expansion

>  <HIPPO Pose ID>  (2123) 
26057

>  <Energy>  (2123) 
8.062236

>  <fragmenstein_error>  (2123) 


>  <tags>  (2123) 
{'openbind_xx01zvns2b_c1_fragmenstein', 'fragmenstein_placed'}

>  <ref_pdb>  (2123) 
175

>  <scratch_subdir>  (2123) 
/opt/xchem-fragalysis-2/maxwin/BulkDock/SCRATCH/511028/C32298-P252

>  <alias>  (2123) 
Nn1nc(C2CNC2)c2cccc(C(=O)Nc3cccc(F)c3)c21

>  <HIPPO Compound ID>  (2123) 
33607

>  <fragmenstein_runtime>  (2123) 
6.443706

$$$$
O=C(N[C@H]1CC[C@@H]2CNC[C@@H]2C1)c1cccc2c(C3CNC3)[n+]([O-])[nH]c12
     RDKit          3D

 26 30  0  0  0  0  0  0  0  0999 V2000
   -9.1220    5.5131  -13.4947 O   0  0  0  0  0  0  0  0  0  0  0  0
   -8.2965    4.7575  -13.8232 C   0  0  0  0  0  0  0  0  0  0  0  0
   -7.3057    3.9303  -12.9796 N   0  0  0  0  0  0  0  0  0  0  0  0
   -7.0554    3.9294  -11.5445 C   0  0  1  0  0  0  0  0  0  0  0  0
   -7.3167    5.2837  -10.8802 C   0  0  0  0  0  0  0  0  0  0  0  0
   -7.2696    5.1467   -9.3640 C   0  0  0  0  0  0  0  0  0  0  0  0
   -8.4634    4.3249   -8.9130 C   0  0  2  0  0  0  0  0  0  0  0  0
   -8.4160    3.8711   -7.4641 C   0  0  0  0  0  0  0  0  0  0  0  0
   -9.2392    2.6656   -7.4436 N   0  0  0  0  0  0  0  0  0  0  0  0
   -8.9278    1.9631   -8.6984 C   0  0  0  0  0  0  0  0  0  0  0  0
   -8.7330    3.0668   -9.7416 C   0  0  2  0  0  0  0  0  0  0  0  0
   -7.6946    2.7284  -10.8169 C   0  0  0  0  0  0  0  0  0  0  0  0
   -8.0788    4.5427  -15.2718 C   0  0  0  0  0  0  0  0  0  0  0  0
   -9.1434    4.1030  -16.0584 C   0  0  0  0  0  0  0  0  0  0  0  0
   -9.0256    3.9597  -17.4358 C   0  0  0  0  0  0  0  0  0  0  0  0
   -7.8237    4.2565  -18.0785 C   0  0  0  0  0  0  0  0  0  0  0  0
   -6.7219    4.7249  -17.3343 C   0  0  0  0  0  0  0  0  0  0  0  0
   -5.3858    5.1508  -17.7244 C   0  0  0  0  0  0  0  0  0  0  0  0
   -4.8315    5.1644  -19.1691 C   0  0  0  0  0  0  0  0  0  0  0  0
   -4.3032    6.5174  -19.6839 C   0  0  0  0  0  0  0  0  0  0  0  0
   -3.1855    5.7910  -20.3321 N   0  0  0  0  0  0  0  0  0  0  0  0
   -3.3780    4.6869  -19.3619 C   0  0  0  0  0  0  0  0  0  0  0  0
   -4.7773    5.5572  -16.5994 N   0  0  0  0  0  0  0  0  0  0  0  0
   -3.6711    6.0936  -16.3730 O   0  0  0  0  0  0  0  0  0  0  0  0
   -5.6834    5.3656  -15.4993 N   0  0  0  0  0  0  0  0  0  0  0  0
   -6.8833    4.8566  -15.9271 C   0  0  0  0  0  0  0  0  0  0  0  0
  1  2  2  0
  2  3  1  0
  4  3  1  6
  4  5  1  0
  5  6  1  0
  7  6  1  6
  7  8  1  0
  8  9  1  0
  9 10  1  0
 11 10  1  1
 11 12  1  0
  2 13  1  0
 13 14  2  0
 14 15  1  0
 15 16  2  0
 16 17  1  0
 17 18  1  0
 18 19  1  0
 19 20  1  0
 20 21  1  0
 21 22  1  0
 18 23  2  0
 23 24  1  0
 23 25  1  0
 25 26  1  0
 12  4  1  0
 26 13  1  0
 11  7  1  0
 26 17  2  0
 22 19  1  0
M  CHG  2  23   1  24  -1
M  END
>  <smiles>  (2124) 
C29074-P252

>  <fragmenstein_outcome>  (2124) 
acceptable

>  <inchikey>  (2124) 
ANJHSIWBSXFLQJ-UHFFFAOYSA-N

>  <fragmenstein_mode>  (2124) 
expansion

>  <HIPPO Pose ID>  (2124) 
26070

>  <Energy>  (2124) 
53.87278

>  <fragmenstein_error>  (2124) 


>  <tags>  (2124) 
{'openbind_xx01zvns2b_c1_fragmenstein', 'fragmenstein_placed'}

>  <ref_pdb>  (2124) 
175

>  <scratch_subdir>  (2124) 
/opt/xchem-fragalysis-2/maxwin/BulkDock/SCRATCH/511028/C29074-P252

>  <alias>  (2124) 
O=C(N[C@H]1CC[C@@H]2CNC[C@@H]2C1)c1cccc2c(C3CNC3)[n+]([O-])[nH]c12

>  <HIPPO Compound ID>  (2124) 
29074

>  <fragmenstein_runtime>  (2124) 
7.727958

$$$$
CC(C)O[C@]1(C)C(=O)[C@@H](C2CNC2)c2cc(F)cc(C(=O)N[C@@H]3CC[C@@H]4CNC[C@@H]4C3)c21
     RDKit          3D

 32 36  0  0  0  0  0  0  0  0999 V2000
   -3.8060    6.9922  -12.7179 C   0  0  0  0  0  0  0  0  0  0  0  0
   -4.1127    7.5345  -14.1086 C   0  0  0  0  0  0  0  0  0  0  0  0
   -4.5616    8.9893  -14.0191 C   0  0  0  0  0  0  0  0  0  0  0  0
   -5.1992    6.7981  -14.6661 O   0  0  0  0  0  0  0  0  0  0  0  0
   -4.8988    5.8554  -15.6884 C   0  0  2  0  0  0  0  0  0  0  0  0
   -3.7154    4.9103  -15.4550 C   0  0  0  0  0  0  0  0  0  0  0  0
   -4.6210    6.5832  -17.0353 C   0  0  0  0  0  0  0  0  0  0  0  0
   -3.7355    7.4139  -17.2228 O   0  0  0  0  0  0  0  0  0  0  0  0
   -5.6176    6.1744  -18.1043 C   0  0  1  0  0  0  0  0  0  0  0  0
   -5.0518    5.5990  -19.3826 C   0  0  0  0  0  0  0  0  0  0  0  0
   -4.5240    6.6929  -20.3456 C   0  0  0  0  0  0  0  0  0  0  0  0
   -3.5551    5.6965  -20.8573 N   0  0  0  0  0  0  0  0  0  0  0  0
   -3.6105    5.0403  -19.5181 C   0  0  0  0  0  0  0  0  0  0  0  0
   -6.5335    5.2361  -17.3645 C   0  0  0  0  0  0  0  0  0  0  0  0
   -7.7087    4.6947  -17.8695 C   0  0  0  0  0  0  0  0  0  0  0  0
   -8.5919    4.1005  -16.9882 C   0  0  0  0  0  0  0  0  0  0  0  0
   -9.7593    3.6336  -17.4493 F   0  0  0  0  0  0  0  0  0  0  0  0
   -8.3021    4.0187  -15.6280 C   0  0  0  0  0  0  0  0  0  0  0  0
   -7.0954    4.5215  -15.1043 C   0  0  0  0  0  0  0  0  0  0  0  0
   -6.7838    4.3557  -13.6354 C   0  0  0  0  0  0  0  0  0  0  0  0
   -5.6963    4.0752  -13.3293 O   0  0  0  0  0  0  0  0  0  0  0  0
   -8.0552    4.5029  -12.7788 N   0  0  0  0  0  0  0  0  0  0  0  0
   -8.2363    4.4284  -11.3487 C   0  0  2  0  0  0  0  0  0  0  0  0
   -7.2160    5.2359  -10.5413 C   0  0  0  0  0  0  0  0  0  0  0  0
   -7.1546    4.8048   -9.0681 C   0  0  0  0  0  0  0  0  0  0  0  0
   -8.4879    4.2462   -8.5767 C   0  0  2  0  0  0  0  0  0  0  0  0
   -8.4596    3.7187   -7.1466 C   0  0  0  0  0  0  0  0  0  0  0  0
   -9.0995    2.4032   -7.1915 N   0  0  0  0  0  0  0  0  0  0  0  0
   -8.8121    1.8535   -8.5272 C   0  0  0  0  0  0  0  0  0  0  0  0
   -8.9782    3.0633   -9.4195 C   0  0  2  0  0  0  0  0  0  0  0  0
   -8.3562    2.9945  -10.8168 C   0  0  0  0  0  0  0  0  0  0  0  0
   -6.2002    5.1289  -15.9944 C   0  0  0  0  0  0  0  0  0  0  0  0
  1  2  1  0
  2  3  1  0
  2  4  1  0
  4  5  1  0
  5  6  1  1
  5  7  1  0
  7  8  2  0
  7  9  1  0
  9 10  1  6
 10 11  1  0
 11 12  1  0
 12 13  1  0
  9 14  1  0
 14 15  2  0
 15 16  1  0
 16 17  1  0
 16 18  2  0
 18 19  1  0
 19 20  1  0
 20 21  2  0
 20 22  1  0
 23 22  1  6
 23 24  1  0
 24 25  1  0
 26 25  1  6
 26 27  1  0
 27 28  1  0
 28 29  1  0
 30 29  1  1
 30 31  1  0
 19 32  2  0
 32  5  1  0
 13 10  1  0
 32 14  1  0
 31 23  1  0
 30 26  1  0
M  END
>  <smiles>  (2125) 
C29105-P252

>  <fragmenstein_outcome>  (2125) 
acceptable

>  <inchikey>  (2125) 
KSFUUZGDCXKVDV-UHFFFAOYSA-N

>  <fragmenstein_mode>  (2125) 
expansion

>  <HIPPO Pose ID>  (2125) 
26076

>  <Energy>  (2125) 
102.873448

>  <fragmenstein_error>  (2125) 


>  <tags>  (2125) 
{'openbind_xx01zvns2b_c1_fragmenstein', 'fragmenstein_placed'}

>  <ref_pdb>  (2125) 
175

>  <scratch_subdir>  (2125) 
/opt/xchem-fragalysis-2/maxwin/BulkDock/SCRATCH/511028/C29105-P252

>  <alias>  (2125) 
CC(C)O[C@]1(C)C(=O)[C@@H](C2CNC2)c2cc(F)cc(C(=O)N[C@@H]3CC[C@@H]4CNC[C@@H]4C3)c21

>  <HIPPO Compound ID>  (2125) 
19346

>  <fragmenstein_runtime>  (2125) 
6.930168

$$$$
O=C1NCc2cc(NC(=O)c3cccc4c(C5CNC5)[n+]([O-])[nH]c34)ccc21
     RDKit          3D

 27 31  0  0  0  0  0  0  0  0999 V2000
   -8.2338    4.5457   -6.1521 O   0  0  0  0  0  0  0  0  0  0  0  0
   -8.5374    3.7994   -7.0640 C   0  0  0  0  0  0  0  0  0  0  0  0
   -9.0373    2.5183   -6.9741 N   0  0  0  0  0  0  0  0  0  0  0  0
   -9.0831    1.8574   -8.2621 C   0  0  0  0  0  0  0  0  0  0  0  0
   -8.7483    2.9577   -9.2129 C   0  0  0  0  0  0  0  0  0  0  0  0
   -8.6936    2.9559  -10.5994 C   0  0  0  0  0  0  0  0  0  0  0  0
   -8.2504    4.1158  -11.2470 C   0  0  0  0  0  0  0  0  0  0  0  0
   -8.1186    4.1138  -12.6348 N   0  0  0  0  0  0  0  0  0  0  0  0
   -7.4615    5.1444  -13.5831 C   0  0  0  0  0  0  0  0  0  0  0  0
   -6.8605    6.1180  -13.3444 O   0  0  0  0  0  0  0  0  0  0  0  0
   -7.5929    4.7647  -15.0123 C   0  0  0  0  0  0  0  0  0  0  0  0
   -8.8018    4.3588  -15.5839 C   0  0  0  0  0  0  0  0  0  0  0  0
   -8.9163    4.1577  -16.9608 C   0  0  0  0  0  0  0  0  0  0  0  0
   -7.8236    4.3642  -17.8140 C   0  0  0  0  0  0  0  0  0  0  0  0
   -6.5756    4.7409  -17.2758 C   0  0  0  0  0  0  0  0  0  0  0  0
   -5.2754    5.0231  -17.8694 C   0  0  0  0  0  0  0  0  0  0  0  0
   -4.9657    5.0715  -19.3721 C   0  0  0  0  0  0  0  0  0  0  0  0
   -4.7720    6.4964  -19.9368 C   0  0  0  0  0  0  0  0  0  0  0  0
   -3.7721    5.9294  -20.8813 N   0  0  0  0  0  0  0  0  0  0  0  0
   -3.5128    4.8701  -19.8558 C   0  0  0  0  0  0  0  0  0  0  0  0
   -4.4317    5.2652  -16.8560 N   0  0  0  0  0  0  0  0  0  0  0  0
   -3.2004    5.4754  -16.8092 O   0  0  0  0  0  0  0  0  0  0  0  0
   -5.1861    5.2501  -15.6396 N   0  0  0  0  0  0  0  0  0  0  0  0
   -6.5001    4.9184  -15.8731 C   0  0  0  0  0  0  0  0  0  0  0  0
   -7.9044    5.2602  -10.5019 C   0  0  0  0  0  0  0  0  0  0  0  0
   -7.9883    5.2637   -9.1071 C   0  0  0  0  0  0  0  0  0  0  0  0
   -8.4043    4.1002   -8.4949 C   0  0  0  0  0  0  0  0  0  0  0  0
  1  2  2  0
  2  3  1  0
  3  4  1  0
  4  5  1  0
  5  6  2  0
  6  7  1  0
  7  8  1  0
  8  9  1  0
  9 10  2  0
  9 11  1  0
 11 12  2  0
 12 13  1  0
 13 14  2  0
 14 15  1  0
 15 16  1  0
 16 17  1  0
 17 18  1  0
 18 19  1  0
 19 20  1  0
 16 21  2  0
 21 22  1  0
 21 23  1  0
 23 24  1  0
  7 25  2  0
 25 26  1  0
 26 27  2  0
 27  2  1  0
 27  5  1  0
 24 11  1  0
 24 15  2  0
 20 17  1  0
M  CHG  2  21   1  22  -1
M  END
>  <smiles>  (2126) 
C32346-P252

>  <fragmenstein_outcome>  (2126) 
acceptable

>  <inchikey>  (2126) 
SMWBQVLANXXHBJ-UHFFFAOYSA-N

>  <fragmenstein_mode>  (2126) 
expansion

>  <HIPPO Pose ID>  (2126) 
26078

>  <Energy>  (2126) 
42.186049

>  <fragmenstein_error>  (2126) 


>  <tags>  (2126) 
{'openbind_xx01zvns2b_c1_fragmenstein', 'fragmenstein_placed'}

>  <ref_pdb>  (2126) 
175

>  <scratch_subdir>  (2126) 
/opt/xchem-fragalysis-2/maxwin/BulkDock/SCRATCH/511028/C32346-P252

>  <alias>  (2126) 
O=C1NCc2cc(NC(=O)c3cccc4c(C5CNC5)[n+]([O-])[nH]c34)ccc21

>  <HIPPO Compound ID>  (2126) 
32346

>  <fragmenstein_runtime>  (2126) 
4.949527

$$$$
C[C@@H]1NC[C@H]1c1n[nH]c2c(C(=O)N[C@@H]3CC[C@H]4CNC[C@@H]4C3)cccc12
     RDKit          3D

 26 30  0  0  0  0  0  0  0  0999 V2000
   -2.9708    4.4184  -19.9691 C   0  0  0  0  0  0  0  0  0  0  0  0
   -4.3230    5.0431  -19.7704 C   0  0  2  0  0  0  0  0  0  0  0  0
   -4.5645    6.1435  -20.7464 N   0  0  0  0  0  0  0  0  0  0  0  0
   -5.2213    6.9014  -19.6563 C   0  0  0  0  0  0  0  0  0  0  0  0
   -4.3889    6.0873  -18.6599 C   0  0  1  0  0  0  0  0  0  0  0  0
   -5.0719    5.6996  -17.3291 C   0  0  0  0  0  0  0  0  0  0  0  0
   -4.4710    6.0518  -16.1864 N   0  0  0  0  0  0  0  0  0  0  0  0
   -5.3792    5.7606  -15.2517 N   0  0  0  0  0  0  0  0  0  0  0  0
   -6.5216    5.2006  -15.7481 C   0  0  0  0  0  0  0  0  0  0  0  0
   -7.7048    4.8477  -15.1001 C   0  0  0  0  0  0  0  0  0  0  0  0
   -7.8925    5.2992  -13.7099 C   0  0  0  0  0  0  0  0  0  0  0  0
   -7.8119    6.4423  -13.5085 O   0  0  0  0  0  0  0  0  0  0  0  0
   -8.1358    4.1369  -12.7461 N   0  0  0  0  0  0  0  0  0  0  0  0
   -8.4281    4.1359  -11.3340 C   0  0  2  0  0  0  0  0  0  0  0  0
   -7.5163    5.0892  -10.5413 C   0  0  0  0  0  0  0  0  0  0  0  0
   -7.9365    5.1820   -9.0689 C   0  0  0  0  0  0  0  0  0  0  0  0
   -8.0219    3.7863   -8.4815 C   0  0  1  0  0  0  0  0  0  0  0  0
   -8.5830    3.6420   -7.0779 C   0  0  0  0  0  0  0  0  0  0  0  0
   -9.1634    2.2848   -7.0220 N   0  0  0  0  0  0  0  0  0  0  0  0
   -9.0210    1.6817   -8.3708 C   0  0  0  0  0  0  0  0  0  0  0  0
   -8.9510    2.8884   -9.2741 C   0  0  2  0  0  0  0  0  0  0  0  0
   -8.4862    2.7328  -10.7134 C   0  0  0  0  0  0  0  0  0  0  0  0
   -8.7273    4.2771  -15.8586 C   0  0  0  0  0  0  0  0  0  0  0  0
   -8.5619    4.1077  -17.2346 C   0  0  0  0  0  0  0  0  0  0  0  0
   -7.3832    4.5257  -17.8803 C   0  0  0  0  0  0  0  0  0  0  0  0
   -6.3370    5.0866  -17.1198 C   0  0  0  0  0  0  0  0  0  0  0  0
  2  1  1  6
  2  3  1  0
  3  4  1  0
  4  5  1  0
  5  6  1  1
  6  7  2  0
  7  8  1  0
  8  9  1  0
  9 10  2  0
 10 11  1  0
 11 12  2  0
 11 13  1  0
 14 13  1  6
 14 15  1  0
 15 16  1  0
 17 16  1  6
 17 18  1  0
 18 19  1  0
 19 20  1  0
 21 20  1  1
 21 22  1  0
 10 23  1  0
 23 24  2  0
 24 25  1  0
 25 26  2  0
  5  2  1  0
 26  6  1  0
 26  9  1  0
 22 14  1  0
 21 17  1  0
M  END
>  <smiles>  (2127) 
C32377-P252

>  <fragmenstein_outcome>  (2127) 
acceptable

>  <inchikey>  (2127) 
HWKAMBDKTVQKAP-UHFFFAOYSA-N

>  <fragmenstein_mode>  (2127) 
expansion

>  <HIPPO Pose ID>  (2127) 
26082

>  <Energy>  (2127) 
75.962904

>  <fragmenstein_error>  (2127) 


>  <tags>  (2127) 
{'openbind_xx01zvns2b_c1_fragmenstein', 'fragmenstein_placed'}

>  <ref_pdb>  (2127) 
175

>  <scratch_subdir>  (2127) 
/opt/xchem-fragalysis-2/maxwin/BulkDock/SCRATCH/511028/C32377-P252

>  <alias>  (2127) 
C[C@@H]1NC[C@H]1c1n[nH]c2c(C(=O)N[C@@H]3CC[C@H]4CNC[C@@H]4C3)cccc12

>  <HIPPO Compound ID>  (2127) 
32377

>  <fragmenstein_runtime>  (2127) 
6.138218

$$$$
C[C@@H]1NC[C@@H]1c1n[nH]c2c(C(=O)N[C@@H]3CC[C@H]4CNC[C@@H]4C3)cccc12
     RDKit          3D

 26 30  0  0  0  0  0  0  0  0999 V2000
   -2.3462    5.5776  -18.9067 C   0  0  0  0  0  0  0  0  0  0  0  0
   -3.4358    4.9573  -19.7651 C   0  0  2  0  0  0  0  0  0  0  0  0
   -3.6789    5.7740  -21.0003 N   0  0  0  0  0  0  0  0  0  0  0  0
   -4.8218    6.4066  -20.2777 C   0  0  0  0  0  0  0  0  0  0  0  0
   -4.9465    5.1272  -19.4407 C   0  0  2  0  0  0  0  0  0  0  0  0
   -5.3728    5.2758  -17.9542 C   0  0  0  0  0  0  0  0  0  0  0  0
   -4.6094    5.8137  -16.9975 N   0  0  0  0  0  0  0  0  0  0  0  0
   -5.3425    5.6682  -15.8831 N   0  0  0  0  0  0  0  0  0  0  0  0
   -6.5557    5.0744  -16.0938 C   0  0  0  0  0  0  0  0  0  0  0  0
   -7.5849    4.7546  -15.2059 C   0  0  0  0  0  0  0  0  0  0  0  0
   -7.4660    5.1481  -13.7805 C   0  0  0  0  0  0  0  0  0  0  0  0
   -7.0161    6.1999  -13.5541 O   0  0  0  0  0  0  0  0  0  0  0  0
   -8.0600    4.0920  -12.8321 N   0  0  0  0  0  0  0  0  0  0  0  0
   -8.3148    4.1438  -11.4110 C   0  0  2  0  0  0  0  0  0  0  0  0
   -7.3987    5.0894  -10.6200 C   0  0  0  0  0  0  0  0  0  0  0  0
   -7.8451    5.2039   -9.1532 C   0  0  0  0  0  0  0  0  0  0  0  0
   -7.9626    3.8178   -8.5444 C   0  0  1  0  0  0  0  0  0  0  0  0
   -8.5705    3.7058   -7.1575 C   0  0  0  0  0  0  0  0  0  0  0  0
   -9.1365    2.3412   -7.0827 N   0  0  0  0  0  0  0  0  0  0  0  0
   -9.0078    1.7271   -8.4296 C   0  0  0  0  0  0  0  0  0  0  0  0
   -8.8892    2.9240   -9.3418 C   0  0  2  0  0  0  0  0  0  0  0  0
   -8.4064    2.7465  -10.7711 C   0  0  0  0  0  0  0  0  0  0  0  0
   -8.7455    4.1944  -15.7537 C   0  0  0  0  0  0  0  0  0  0  0  0
   -8.8479    3.9472  -17.1234 C   0  0  0  0  0  0  0  0  0  0  0  0
   -7.7865    4.2428  -17.9851 C   0  0  0  0  0  0  0  0  0  0  0  0
   -6.6212    4.8259  -17.4578 C   0  0  0  0  0  0  0  0  0  0  0  0
  2  1  1  1
  2  3  1  0
  3  4  1  0
  4  5  1  0
  5  6  1  1
  6  7  2  0
  7  8  1  0
  8  9  1  0
  9 10  2  0
 10 11  1  0
 11 12  2  0
 11 13  1  0
 14 13  1  6
 14 15  1  0
 15 16  1  0
 17 16  1  6
 17 18  1  0
 18 19  1  0
 19 20  1  0
 21 20  1  1
 21 22  1  0
 10 23  1  0
 23 24  2  0
 24 25  1  0
 25 26  2  0
  5  2  1  0
 26  6  1  0
 26  9  1  0
 22 14  1  0
 21 17  1  0
M  END
>  <smiles>  (2128) 
C32377-P322

>  <fragmenstein_outcome>  (2128) 
acceptable

>  <inchikey>  (2128) 
JCMILYOMNBKDRK-UHFFFAOYSA-N

>  <fragmenstein_mode>  (2128) 
expansion

>  <HIPPO Pose ID>  (2128) 
26083

>  <Energy>  (2128) 
76.615026

>  <fragmenstein_error>  (2128) 


>  <tags>  (2128) 
{'openbind_xx01zvns2b_c1_fragmenstein', 'fragmenstein_placed'}

>  <ref_pdb>  (2128) 
175

>  <scratch_subdir>  (2128) 
/opt/xchem-fragalysis-2/maxwin/BulkDock/SCRATCH/511028/C32377-P322

>  <alias>  (2128) 
C[C@@H]1NC[C@@H]1c1n[nH]c2c(C(=O)N[C@@H]3CC[C@H]4CNC[C@@H]4C3)cccc12

>  <HIPPO Compound ID>  (2128) 
34569

>  <fragmenstein_runtime>  (2128) 
5.558861

$$$$
CNCn1nc2c(C(=O)N[C@@H]3CC[C@H]4CNC[C@@H]4C3)cccc2c1C1CNC1
     RDKit          3D

 28 32  0  0  0  0  0  0  0  0999 V2000
   -1.3588    7.2814  -16.9976 C   0  0  0  0  0  0  0  0  0  0  0  0
   -2.7784    6.9853  -17.0982 N   0  0  0  0  0  0  0  0  0  0  0  0
   -3.0309    5.5790  -16.7808 C   0  0  0  0  0  0  0  0  0  0  0  0
   -4.4738    5.3604  -16.8373 N   0  0  0  0  0  0  0  0  0  0  0  0
   -5.1629    5.4346  -15.6712 N   0  0  0  0  0  0  0  0  0  0  0  0
   -6.4110    5.0330  -15.9685 C   0  0  0  0  0  0  0  0  0  0  0  0
   -7.5601    4.8652  -15.1762 C   0  0  0  0  0  0  0  0  0  0  0  0
   -7.6931    5.3658  -13.8071 C   0  0  0  0  0  0  0  0  0  0  0  0
   -7.7134    6.5174  -13.6367 O   0  0  0  0  0  0  0  0  0  0  0  0
   -7.8867    4.2090  -12.8159 N   0  0  0  0  0  0  0  0  0  0  0  0
   -8.2416    4.2223  -11.4184 C   0  0  2  0  0  0  0  0  0  0  0  0
   -7.3767    5.1737  -10.5778 C   0  0  0  0  0  0  0  0  0  0  0  0
   -7.8793    5.2603   -9.1281 C   0  0  0  0  0  0  0  0  0  0  0  0
   -7.9960    3.8627   -8.5442 C   0  0  1  0  0  0  0  0  0  0  0  0
   -8.6397    3.7153   -7.1745 C   0  0  0  0  0  0  0  0  0  0  0  0
   -9.2600    2.3752   -7.1701 N   0  0  0  0  0  0  0  0  0  0  0  0
   -9.0147    1.7634   -8.4951 C   0  0  0  0  0  0  0  0  0  0  0  0
   -8.8787    2.9690   -9.3924 C   0  0  2  0  0  0  0  0  0  0  0  0
   -8.3339    2.8159  -10.8017 C   0  0  0  0  0  0  0  0  0  0  0  0
   -8.7015    4.3690  -15.8514 C   0  0  0  0  0  0  0  0  0  0  0  0
   -8.7192    4.1027  -17.2479 C   0  0  0  0  0  0  0  0  0  0  0  0
   -7.6078    4.3109  -18.0870 C   0  0  0  0  0  0  0  0  0  0  0  0
   -6.4833    4.7574  -17.3877 C   0  0  0  0  0  0  0  0  0  0  0  0
   -5.2567    5.0707  -17.9233 C   0  0  0  0  0  0  0  0  0  0  0  0
   -4.9244    5.1339  -19.4414 C   0  0  0  0  0  0  0  0  0  0  0  0
   -4.8258    6.5614  -20.0247 C   0  0  0  0  0  0  0  0  0  0  0  0
   -3.8396    6.0318  -21.0100 N   0  0  0  0  0  0  0  0  0  0  0  0
   -3.4900    4.9982  -19.9878 C   0  0  0  0  0  0  0  0  0  0  0  0
  1  2  1  0
  2  3  1  0
  3  4  1  0
  4  5  1  0
  5  6  2  0
  6  7  1  0
  7  8  1  0
  8  9  2  0
  8 10  1  0
 11 10  1  6
 11 12  1  0
 12 13  1  0
 14 13  1  6
 14 15  1  0
 15 16  1  0
 16 17  1  0
 18 17  1  1
 18 19  1  0
  7 20  2  0
 20 21  1  0
 21 22  2  0
 22 23  1  0
 23 24  2  0
 24 25  1  0
 25 26  1  0
 26 27  1  0
 27 28  1  0
 24  4  1  0
 28 25  1  0
 23  6  1  0
 19 11  1  0
 18 14  1  0
M  END
>  <smiles>  (2129) 
C29165-P252

>  <fragmenstein_outcome>  (2129) 
acceptable

>  <inchikey>  (2129) 
AWVQLXUPKLUPDB-UHFFFAOYSA-N

>  <fragmenstein_mode>  (2129) 
expansion

>  <HIPPO Pose ID>  (2129) 
26084

>  <Energy>  (2129) 
128.416511

>  <fragmenstein_error>  (2129) 


>  <tags>  (2129) 
{'openbind_xx01zvns2b_c1_fragmenstein', 'fragmenstein_placed'}

>  <ref_pdb>  (2129) 
175

>  <scratch_subdir>  (2129) 
/opt/xchem-fragalysis-2/maxwin/BulkDock/SCRATCH/511028/C29165-P252

>  <alias>  (2129) 
CNCn1nc2c(C(=O)N[C@@H]3CC[C@H]4CNC[C@@H]4C3)cccc2c1C1CNC1

>  <HIPPO Compound ID>  (2129) 
26608

>  <fragmenstein_runtime>  (2129) 
7.161449

$$$$
Nc1[nH]c2c(Cl)cc([C@H](N=O)Nc3ccc4c(c3)CNC4)cc2c1C1CCNCC1
     RDKit          3D

 30 34  0  0  0  0  0  0  0  0999 V2000
   -5.4402    5.3496  -20.2674 N   0  0  0  0  0  0  0  0  0  0  0  0
   -5.8302    5.2234  -18.9918 C   0  0  0  0  0  0  0  0  0  0  0  0
   -7.0821    4.7368  -18.7400 N   0  0  0  0  0  0  0  0  0  0  0  0
   -7.2944    4.6596  -17.3867 C   0  0  0  0  0  0  0  0  0  0  0  0
   -8.4154    4.2715  -16.6617 C   0  0  0  0  0  0  0  0  0  0  0  0
   -9.8446    3.8484  -17.4776 Cl  0  0  0  0  0  0  0  0  0  0  0  0
   -8.3729    4.3182  -15.2677 C   0  0  0  0  0  0  0  0  0  0  0  0
   -7.2177    4.7242  -14.5869 C   0  0  0  0  0  0  0  0  0  0  0  0
   -7.1394    4.7960  -13.0598 C   0  0  2  0  0  0  0  0  0  0  0  0
   -5.8052    4.2700  -12.5842 N   0  0  0  0  0  0  0  0  0  0  0  0
   -5.0975    5.1545  -12.0840 O   0  0  0  0  0  0  0  0  0  0  0  0
   -8.2402    4.0556  -12.4395 N   0  0  0  0  0  0  0  0  0  0  0  0
   -8.3112    4.0345  -11.0333 C   0  0  0  0  0  0  0  0  0  0  0  0
   -8.1045    5.1841  -10.2437 C   0  0  0  0  0  0  0  0  0  0  0  0
   -8.2016    5.1413   -8.8467 C   0  0  0  0  0  0  0  0  0  0  0  0
   -8.5369    3.9421   -8.2485 C   0  0  0  0  0  0  0  0  0  0  0  0
   -8.7745    2.8096   -9.0128 C   0  0  0  0  0  0  0  0  0  0  0  0
   -8.6837    2.8422  -10.3948 C   0  0  0  0  0  0  0  0  0  0  0  0
   -9.0821    1.6596   -8.1157 C   0  0  0  0  0  0  0  0  0  0  0  0
   -9.2863    2.2473   -6.7672 N   0  0  0  0  0  0  0  0  0  0  0  0
   -8.7088    3.6068   -6.8062 C   0  0  0  0  0  0  0  0  0  0  0  0
   -6.1114    5.1466  -15.3555 C   0  0  0  0  0  0  0  0  0  0  0  0
   -6.1410    5.1118  -16.7647 C   0  0  0  0  0  0  0  0  0  0  0  0
   -5.2157    5.4978  -17.7874 C   0  0  0  0  0  0  0  0  0  0  0  0
   -3.8736    6.1063  -17.5147 C   0  0  0  0  0  0  0  0  0  0  0  0
   -3.6906    7.4889  -18.1375 C   0  0  0  0  0  0  0  0  0  0  0  0
   -2.3986    8.1291  -17.6188 C   0  0  0  0  0  0  0  0  0  0  0  0
   -1.3251    7.1791  -17.3049 N   0  0  0  0  0  0  0  0  0  0  0  0
   -1.4147    5.9695  -18.1266 C   0  0  0  0  0  0  0  0  0  0  0  0
   -2.6996    5.1829  -17.8562 C   0  0  0  0  0  0  0  0  0  0  0  0
  1  2  1  0
  2  3  1  0
  3  4  1  0
  4  5  2  0
  5  6  1  0
  5  7  1  0
  7  8  2  0
  8  9  1  0
  9 10  1  0
 10 11  2  0
  9 12  1  1
 12 13  1  0
 13 14  2  0
 14 15  1  0
 15 16  2  0
 16 17  1  0
 17 18  2  0
 17 19  1  0
 19 20  1  0
 20 21  1  0
  8 22  1  0
 22 23  2  0
 23 24  1  0
 24 25  1  0
 25 26  1  0
 26 27  1  0
 27 28  1  0
 28 29  1  0
 29 30  1  0
 24  2  2  0
 30 25  1  0
 23  4  1  0
 18 13  1  0
 21 16  1  0
M  END
>  <smiles>  (2130) 
C32541-P254

>  <fragmenstein_outcome>  (2130) 
acceptable

>  <inchikey>  (2130) 
NSSGSWNWCIYKAC-UHFFFAOYSA-N

>  <fragmenstein_mode>  (2130) 
expansion

>  <HIPPO Pose ID>  (2130) 
26179

>  <Energy>  (2130) 
36.990545

>  <fragmenstein_error>  (2130) 


>  <tags>  (2130) 
{'openbind_xx01zvns2b_c1_fragmenstein', 'fragmenstein_placed'}

>  <ref_pdb>  (2130) 
175

>  <scratch_subdir>  (2130) 
/opt/xchem-fragalysis-2/maxwin/BulkDock/SCRATCH/511028/C32541-P254

>  <alias>  (2130) 
Nc1[nH]c2c(Cl)cc([C@H](N=O)Nc3ccc4c(c3)CNC4)cc2c1C1CCNCC1

>  <HIPPO Compound ID>  (2130) 
37132

>  <fragmenstein_runtime>  (2130) 
5.778481

$$$$
Nc1[nH]c2c(Cl)cc(C(=O)Nc3ccc4c(c3)CNC4)cc2c1C1CCNCC1
     RDKit          3D

 29 33  0  0  0  0  0  0  0  0999 V2000
   -5.3146    5.2985  -20.4873 N   0  0  0  0  0  0  0  0  0  0  0  0
   -5.6941    5.1898  -19.2006 C   0  0  0  0  0  0  0  0  0  0  0  0
   -6.9238    4.6755  -18.9004 N   0  0  0  0  0  0  0  0  0  0  0  0
   -7.1140    4.6577  -17.5383 C   0  0  0  0  0  0  0  0  0  0  0  0
   -8.2189    4.2591  -16.7830 C   0  0  0  0  0  0  0  0  0  0  0  0
   -9.6302    3.6991  -17.5511 Cl  0  0  0  0  0  0  0  0  0  0  0  0
   -8.1971    4.4161  -15.4006 C   0  0  0  0  0  0  0  0  0  0  0  0
   -7.0709    4.9568  -14.7860 C   0  0  0  0  0  0  0  0  0  0  0  0
   -7.1098    5.3153  -13.3393 C   0  0  0  0  0  0  0  0  0  0  0  0
   -6.7299    6.3769  -13.0321 O   0  0  0  0  0  0  0  0  0  0  0  0
   -7.7626    4.1980  -12.4887 N   0  0  0  0  0  0  0  0  0  0  0  0
   -7.9890    4.1208  -11.1144 C   0  0  0  0  0  0  0  0  0  0  0  0
   -7.8161    5.2440  -10.2904 C   0  0  0  0  0  0  0  0  0  0  0  0
   -8.0478    5.1663   -8.9128 C   0  0  0  0  0  0  0  0  0  0  0  0
   -8.4470    3.9538   -8.3813 C   0  0  0  0  0  0  0  0  0  0  0  0
   -8.6201    2.8403   -9.1930 C   0  0  0  0  0  0  0  0  0  0  0  0
   -8.4059    2.9056  -10.5624 C   0  0  0  0  0  0  0  0  0  0  0  0
   -9.0032    1.6699   -8.3513 C   0  0  0  0  0  0  0  0  0  0  0  0
   -9.2603    2.2069   -6.9896 N   0  0  0  0  0  0  0  0  0  0  0  0
   -8.7342    3.5875   -6.9655 C   0  0  0  0  0  0  0  0  0  0  0  0
   -5.9487    5.3345  -15.5467 C   0  0  0  0  0  0  0  0  0  0  0  0
   -5.9659    5.1895  -16.9539 C   0  0  0  0  0  0  0  0  0  0  0  0
   -5.0629    5.5305  -18.0223 C   0  0  0  0  0  0  0  0  0  0  0  0
   -3.7173    6.1886  -17.9251 C   0  0  0  0  0  0  0  0  0  0  0  0
   -3.8100    7.6142  -17.3683 C   0  0  0  0  0  0  0  0  0  0  0  0
   -2.4286    8.2581  -17.3279 C   0  0  0  0  0  0  0  0  0  0  0  0
   -1.4859    7.4476  -16.5600 N   0  0  0  0  0  0  0  0  0  0  0  0
   -1.3495    6.0999  -17.1167 C   0  0  0  0  0  0  0  0  0  0  0  0
   -2.6883    5.3665  -17.1477 C   0  0  0  0  0  0  0  0  0  0  0  0
  1  2  1  0
  2  3  1  0
  3  4  1  0
  4  5  2  0
  5  6  1  0
  5  7  1  0
  7  8  2  0
  8  9  1  0
  9 10  2  0
  9 11  1  0
 11 12  1  0
 12 13  2  0
 13 14  1  0
 14 15  2  0
 15 16  1  0
 16 17  2  0
 16 18  1  0
 18 19  1  0
 19 20  1  0
  8 21  1  0
 21 22  2  0
 22 23  1  0
 23 24  1  0
 24 25  1  0
 25 26  1  0
 26 27  1  0
 27 28  1  0
 28 29  1  0
 23  2  2  0
 29 24  1  0
 22  4  1  0
 17 12  1  0
 20 15  1  0
M  END
>  <smiles>  (2131) 
C32396-P254

>  <fragmenstein_outcome>  (2131) 
acceptable

>  <inchikey>  (2131) 
FZQCEHZWBDYBSO-UHFFFAOYSA-N

>  <fragmenstein_mode>  (2131) 
expansion

>  <HIPPO Pose ID>  (2131) 
26180

>  <Energy>  (2131) 
25.991558

>  <fragmenstein_error>  (2131) 


>  <tags>  (2131) 
{'openbind_xx01zvns2b_c1_fragmenstein', 'fragmenstein_placed'}

>  <ref_pdb>  (2131) 
175

>  <scratch_subdir>  (2131) 
/opt/xchem-fragalysis-2/maxwin/BulkDock/SCRATCH/511028/C32396-P254

>  <alias>  (2131) 
Nc1[nH]c2c(Cl)cc(C(=O)Nc3ccc4c(c3)CNC4)cc2c1C1CCNCC1

>  <HIPPO Compound ID>  (2131) 
32396

>  <fragmenstein_runtime>  (2131) 
8.083996

$$$$
Nc1[nH]c2c(F)cc(C(=O)Nc3ccc4c(c3)CNC4)cc2c1C1CCNCC1
     RDKit          3D

 29 33  0  0  0  0  0  0  0  0999 V2000
   -5.5265    5.2290  -20.3430 N   0  0  0  0  0  0  0  0  0  0  0  0
   -5.9238    5.1026  -19.0710 C   0  0  0  0  0  0  0  0  0  0  0  0
   -7.1587    4.5913  -18.7965 N   0  0  0  0  0  0  0  0  0  0  0  0
   -7.3509    4.5529  -17.4390 C   0  0  0  0  0  0  0  0  0  0  0  0
   -8.4517    4.1232  -16.6982 C   0  0  0  0  0  0  0  0  0  0  0  0
   -9.5263    3.6005  -17.3030 F   0  0  0  0  0  0  0  0  0  0  0  0
   -8.4471    4.3059  -15.3193 C   0  0  0  0  0  0  0  0  0  0  0  0
   -7.3415    4.8892  -14.7025 C   0  0  0  0  0  0  0  0  0  0  0  0
   -7.3733    5.2661  -13.2644 C   0  0  0  0  0  0  0  0  0  0  0  0
   -7.0127    6.3379  -12.9727 O   0  0  0  0  0  0  0  0  0  0  0  0
   -7.8729    4.1022  -12.3798 N   0  0  0  0  0  0  0  0  0  0  0  0
   -8.1148    4.0468  -11.0093 C   0  0  0  0  0  0  0  0  0  0  0  0
   -7.9529    5.1826  -10.1996 C   0  0  0  0  0  0  0  0  0  0  0  0
   -8.1628    5.1149   -8.8184 C   0  0  0  0  0  0  0  0  0  0  0  0
   -8.5347    3.9010   -8.2711 C   0  0  0  0  0  0  0  0  0  0  0  0
   -8.6992    2.7770   -9.0707 C   0  0  0  0  0  0  0  0  0  0  0  0
   -8.4999    2.8305  -10.4417 C   0  0  0  0  0  0  0  0  0  0  0  0
   -9.0466    1.6075   -8.2135 C   0  0  0  0  0  0  0  0  0  0  0  0
   -9.3205    2.1588   -6.8614 N   0  0  0  0  0  0  0  0  0  0  0  0
   -8.7939    3.5393   -6.8486 C   0  0  0  0  0  0  0  0  0  0  0  0
   -6.2107    5.2665  -15.4463 C   0  0  0  0  0  0  0  0  0  0  0  0
   -6.2118    5.1040  -16.8457 C   0  0  0  0  0  0  0  0  0  0  0  0
   -5.2952    5.4441  -17.8955 C   0  0  0  0  0  0  0  0  0  0  0  0
   -3.9567    6.1253  -17.8105 C   0  0  0  0  0  0  0  0  0  0  0  0
   -4.0603    7.5562  -17.2702 C   0  0  0  0  0  0  0  0  0  0  0  0
   -2.6875    8.2220  -17.2701 C   0  0  0  0  0  0  0  0  0  0  0  0
   -1.7145    7.4424  -16.5066 N   0  0  0  0  0  0  0  0  0  0  0  0
   -1.5732    6.0853  -17.0389 C   0  0  0  0  0  0  0  0  0  0  0  0
   -2.9031    5.3327  -17.0366 C   0  0  0  0  0  0  0  0  0  0  0  0
  1  2  1  0
  2  3  1  0
  3  4  1  0
  4  5  2  0
  5  6  1  0
  5  7  1  0
  7  8  2  0
  8  9  1  0
  9 10  2  0
  9 11  1  0
 11 12  1  0
 12 13  2  0
 13 14  1  0
 14 15  2  0
 15 16  1  0
 16 17  2  0
 16 18  1  0
 18 19  1  0
 19 20  1  0
  8 21  1  0
 21 22  2  0
 22 23  1  0
 23 24  1  0
 24 25  1  0
 25 26  1  0
 26 27  1  0
 27 28  1  0
 28 29  1  0
 23  2  2  0
 29 24  1  0
 22  4  1  0
 17 12  1  0
 20 15  1  0
M  END
>  <smiles>  (2132) 
C32554-P254

>  <fragmenstein_outcome>  (2132) 
acceptable

>  <inchikey>  (2132) 
GTCAXSODYRXCJN-UHFFFAOYSA-N

>  <fragmenstein_mode>  (2132) 
expansion

>  <HIPPO Pose ID>  (2132) 
26191

>  <Energy>  (2132) 
25.082362

>  <fragmenstein_error>  (2132) 


>  <tags>  (2132) 
{'openbind_xx01zvns2b_c1_fragmenstein', 'fragmenstein_placed'}

>  <ref_pdb>  (2132) 
175

>  <scratch_subdir>  (2132) 
/opt/xchem-fragalysis-2/maxwin/BulkDock/SCRATCH/511028/C32554-P254

>  <alias>  (2132) 
Nc1[nH]c2c(F)cc(C(=O)Nc3ccc4c(c3)CNC4)cc2c1C1CCNCC1

>  <HIPPO Compound ID>  (2132) 
27211

>  <fragmenstein_runtime>  (2132) 
7.767919

$$$$
O=C(Nc1ccc2c(c1)CNC2)c1cc2ncn3cc(C4CCNCC4)c(c1)c23
     RDKit          3D

 29 34  0  0  0  0  0  0  0  0999 V2000
   -7.2009    6.3567  -12.7674 O   0  0  0  0  0  0  0  0  0  0  0  0
   -7.5407    5.2819  -13.0701 C   0  0  0  0  0  0  0  0  0  0  0  0
   -8.0083    4.0996  -12.1996 N   0  0  0  0  0  0  0  0  0  0  0  0
   -8.2390    4.0216  -10.8312 C   0  0  0  0  0  0  0  0  0  0  0  0
   -8.0696    5.1490  -10.0103 C   0  0  0  0  0  0  0  0  0  0  0  0
   -8.2536    5.0626   -8.6286 C   0  0  0  0  0  0  0  0  0  0  0  0
   -8.6118    3.8395   -8.0949 C   0  0  0  0  0  0  0  0  0  0  0  0
   -8.7818    2.7242   -8.9071 C   0  0  0  0  0  0  0  0  0  0  0  0
   -8.6040    2.7947  -10.2786 C   0  0  0  0  0  0  0  0  0  0  0  0
   -9.1022    1.5418   -8.0587 C   0  0  0  0  0  0  0  0  0  0  0  0
   -9.3905    2.0821   -6.7058 N   0  0  0  0  0  0  0  0  0  0  0  0
   -8.8508    3.4568   -6.6747 C   0  0  0  0  0  0  0  0  0  0  0  0
   -7.4377    4.8994  -14.4990 C   0  0  0  0  0  0  0  0  0  0  0  0
   -8.5719    4.3313  -15.1752 C   0  0  0  0  0  0  0  0  0  0  0  0
   -8.4539    4.1995  -16.5576 C   0  0  0  0  0  0  0  0  0  0  0  0
   -9.2160    3.8430  -17.6647 N   0  0  0  0  0  0  0  0  0  0  0  0
   -8.4404    4.0980  -18.7452 C   0  0  0  0  0  0  0  0  0  0  0  0
   -7.2439    4.5140  -18.3360 N   0  0  0  0  0  0  0  0  0  0  0  0
   -6.0943    4.9887  -18.8275 C   0  0  0  0  0  0  0  0  0  0  0  0
   -5.3345    5.3607  -17.6768 C   0  0  0  0  0  0  0  0  0  0  0  0
   -3.9730    5.9788  -17.5707 C   0  0  0  0  0  0  0  0  0  0  0  0
   -4.0186    7.5031  -17.7626 C   0  0  0  0  0  0  0  0  0  0  0  0
   -2.6588    8.0710  -18.1703 C   0  0  0  0  0  0  0  0  0  0  0  0
   -1.5556    7.3188  -17.5798 N   0  0  0  0  0  0  0  0  0  0  0  0
   -1.5235    5.9368  -18.0877 C   0  0  0  0  0  0  0  0  0  0  0  0
   -2.8980    5.3494  -18.4449 C   0  0  0  0  0  0  0  0  0  0  0  0
   -6.1494    5.1107  -16.5139 C   0  0  0  0  0  0  0  0  0  0  0  0
   -6.2053    5.2746  -15.1343 C   0  0  0  0  0  0  0  0  0  0  0  0
   -7.2646    4.5938  -17.0445 C   0  0  0  0  0  0  0  0  0  0  0  0
  1  2  2  0
  2  3  1  0
  3  4  1  0
  4  5  2  0
  5  6  1  0
  6  7  2  0
  7  8  1  0
  8  9  2  0
  8 10  1  0
 10 11  1  0
 11 12  1  0
  2 13  1  0
 13 14  2  0
 14 15  1  0
 15 16  1  0
 16 17  2  0
 17 18  1  0
 18 19  1  0
 19 20  2  0
 20 21  1  0
 21 22  1  0
 22 23  1  0
 23 24  1  0
 24 25  1  0
 25 26  1  0
 20 27  1  0
 27 28  2  0
 27 29  1  0
  9  4  1  0
 28 13  1  0
 12  7  1  0
 29 15  2  0
 29 18  1  0
 26 21  1  0
M  END
>  <smiles>  (2133) 
C32559-P254

>  <fragmenstein_outcome>  (2133) 
acceptable

>  <inchikey>  (2133) 
JTJVOAYMOZHTSN-UHFFFAOYSA-N

>  <fragmenstein_mode>  (2133) 
expansion

>  <HIPPO Pose ID>  (2133) 
26194

>  <Energy>  (2133) 
80.393069

>  <fragmenstein_error>  (2133) 


>  <tags>  (2133) 
{'openbind_xx01zvns2b_c1_fragmenstein', 'fragmenstein_placed'}

>  <ref_pdb>  (2133) 
175

>  <scratch_subdir>  (2133) 
/opt/xchem-fragalysis-2/maxwin/BulkDock/SCRATCH/511028/C32559-P254

>  <alias>  (2133) 
O=C(Nc1ccc2c(c1)CNC2)c1cc2ncn3cc(C4CCNCC4)c(c1)c23

>  <HIPPO Compound ID>  (2133) 
32559

>  <fragmenstein_runtime>  (2133) 
9.366307

$$$$
OC(O)(Nc1ccc2c(c1)CNC2)c1cc(F)c2[nH]cc(C3CCNCC3)c2c1
     RDKit          3D

 29 33  0  0  0  0  0  0  0  0999 V2000
   -8.3938    6.0073  -13.1159 O   0  0  0  0  0  0  0  0  0  0  0  0
   -7.5795    4.8704  -13.2991 C   0  0  0  0  0  0  0  0  0  0  0  0
   -6.2891    5.1362  -12.8091 O   0  0  0  0  0  0  0  0  0  0  0  0
   -8.0839    3.7703  -12.5329 N   0  0  0  0  0  0  0  0  0  0  0  0
   -8.3118    3.8402  -11.1480 C   0  0  0  0  0  0  0  0  0  0  0  0
   -8.0526    4.9790  -10.3500 C   0  0  0  0  0  0  0  0  0  0  0  0
   -8.2185    4.9745   -8.9586 C   0  0  0  0  0  0  0  0  0  0  0  0
   -8.6280    3.8042   -8.3603 C   0  0  0  0  0  0  0  0  0  0  0  0
   -8.8445    2.6604   -9.1175 C   0  0  0  0  0  0  0  0  0  0  0  0
   -8.6970    2.6637  -10.4949 C   0  0  0  0  0  0  0  0  0  0  0  0
   -9.1788    1.5343   -8.1997 C   0  0  0  0  0  0  0  0  0  0  0  0
   -9.6003    2.1927   -6.9354 N   0  0  0  0  0  0  0  0  0  0  0  0
   -8.8898    3.4921   -6.9255 C   0  0  0  0  0  0  0  0  0  0  0  0
   -7.5029    4.6278  -14.7966 C   0  0  0  0  0  0  0  0  0  0  0  0
   -8.5947    4.1535  -15.5346 C   0  0  0  0  0  0  0  0  0  0  0  0
   -8.5592    4.0724  -16.9293 C   0  0  0  0  0  0  0  0  0  0  0  0
   -9.6366    3.6387  -17.5935 F   0  0  0  0  0  0  0  0  0  0  0  0
   -7.4252    4.5217  -17.6039 C   0  0  0  0  0  0  0  0  0  0  0  0
   -7.1474    4.6298  -18.9453 N   0  0  0  0  0  0  0  0  0  0  0  0
   -5.9028    5.1898  -19.1183 C   0  0  0  0  0  0  0  0  0  0  0  0
   -5.3621    5.4583  -17.8770 C   0  0  0  0  0  0  0  0  0  0  0  0
   -4.0532    6.1174  -17.5442 C   0  0  0  0  0  0  0  0  0  0  0  0
   -3.7974    7.3964  -18.3400 C   0  0  0  0  0  0  0  0  0  0  0  0
   -2.5350    8.0994  -17.8284 C   0  0  0  0  0  0  0  0  0  0  0  0
   -1.5170    7.1940  -17.2892 N   0  0  0  0  0  0  0  0  0  0  0  0
   -1.5488    5.8871  -17.9414 C   0  0  0  0  0  0  0  0  0  0  0  0
   -2.8604    5.1567  -17.6492 C   0  0  0  0  0  0  0  0  0  0  0  0
   -6.3199    5.0114  -16.9169 C   0  0  0  0  0  0  0  0  0  0  0  0
   -6.3570    5.0367  -15.5093 C   0  0  0  0  0  0  0  0  0  0  0  0
  1  2  1  0
  2  3  1  0
  2  4  1  0
  4  5  1  0
  5  6  2  0
  6  7  1  0
  7  8  2  0
  8  9  1  0
  9 10  2  0
  9 11  1  0
 11 12  1  0
 12 13  1  0
  2 14  1  0
 14 15  2  0
 15 16  1  0
 16 17  1  0
 16 18  2  0
 18 19  1  0
 19 20  1  0
 20 21  2  0
 21 22  1  0
 22 23  1  0
 23 24  1  0
 24 25  1  0
 25 26  1  0
 26 27  1  0
 21 28  1  0
 28 29  2  0
 10  5  1  0
 29 14  1  0
 13  8  1  0
 28 18  1  0
 27 22  1  0
M  END
>  <smiles>  (2134) 
C32567-P254

>  <fragmenstein_outcome>  (2134) 
acceptable

>  <inchikey>  (2134) 
AJWUFWMYAPKEAB-UHFFFAOYSA-N

>  <fragmenstein_mode>  (2134) 
expansion

>  <HIPPO Pose ID>  (2134) 
26195

>  <Energy>  (2134) 
-83.768674

>  <fragmenstein_error>  (2134) 


>  <tags>  (2134) 
{'openbind_xx01zvns2b_c1_fragmenstein', 'fragmenstein_placed'}

>  <ref_pdb>  (2134) 
175

>  <scratch_subdir>  (2134) 
/opt/xchem-fragalysis-2/maxwin/BulkDock/SCRATCH/511028/C32567-P254

>  <alias>  (2134) 
OC(O)(Nc1ccc2c(c1)CNC2)c1cc(F)c2[nH]cc(C3CCNCC3)c2c1

>  <HIPPO Compound ID>  (2134) 
32567

>  <fragmenstein_runtime>  (2134) 
6.674415

$$$$
CS(=O)(=O)c1[nH]c2c(F)cc(C(=O)Nc3ccc4c(c3)CNC4)cc2c1C1CCNCC1
     RDKit          3D

 32 36  0  0  0  0  0  0  0  0999 V2000
   -3.1423    5.3235  -20.6436 C   0  0  0  0  0  0  0  0  0  0  0  0
   -4.8241    5.8620  -20.6341 S   0  0  0  0  0  0  0  0  0  0  0  0
   -5.5260    5.0383  -21.5843 O   0  0  0  0  0  0  0  0  0  0  0  0
   -4.8850    7.3092  -20.6825 O   0  0  0  0  0  0  0  0  0  0  0  0
   -5.5022    5.4263  -19.0408 C   0  0  0  0  0  0  0  0  0  0  0  0
   -6.7428    4.8002  -18.9820 N   0  0  0  0  0  0  0  0  0  0  0  0
   -7.1493    4.6373  -17.6758 C   0  0  0  0  0  0  0  0  0  0  0  0
   -8.3326    4.1320  -17.1193 C   0  0  0  0  0  0  0  0  0  0  0  0
   -9.3003    3.6444  -17.9009 F   0  0  0  0  0  0  0  0  0  0  0  0
   -8.5494    4.2319  -15.7400 C   0  0  0  0  0  0  0  0  0  0  0  0
   -7.5734    4.8052  -14.9363 C   0  0  0  0  0  0  0  0  0  0  0  0
   -7.8193    5.2288  -13.5352 C   0  0  0  0  0  0  0  0  0  0  0  0
   -7.6577    6.3597  -13.2936 O   0  0  0  0  0  0  0  0  0  0  0  0
   -8.1739    4.0493  -12.6079 N   0  0  0  0  0  0  0  0  0  0  0  0
   -8.3071    3.9957  -11.2195 C   0  0  0  0  0  0  0  0  0  0  0  0
   -8.0986    5.1449  -10.4356 C   0  0  0  0  0  0  0  0  0  0  0  0
   -8.2055    5.0988   -9.0416 C   0  0  0  0  0  0  0  0  0  0  0  0
   -8.5267    3.8918   -8.4515 C   0  0  0  0  0  0  0  0  0  0  0  0
   -8.7264    2.7517   -9.2205 C   0  0  0  0  0  0  0  0  0  0  0  0
   -8.6206    2.7833  -10.6043 C   0  0  0  0  0  0  0  0  0  0  0  0
   -9.0145    1.5975   -8.3203 C   0  0  0  0  0  0  0  0  0  0  0  0
   -9.2310    2.1773   -6.9698 N   0  0  0  0  0  0  0  0  0  0  0  0
   -8.7093    3.5585   -7.0103 C   0  0  0  0  0  0  0  0  0  0  0  0
   -6.3510    5.2179  -15.4824 C   0  0  0  0  0  0  0  0  0  0  0  0
   -6.1443    5.1614  -16.8746 C   0  0  0  0  0  0  0  0  0  0  0  0
   -5.0971    5.6439  -17.7239 C   0  0  0  0  0  0  0  0  0  0  0  0
   -3.8653    6.3230  -17.1825 C   0  0  0  0  0  0  0  0  0  0  0  0
   -3.5560    7.6932  -17.7770 C   0  0  0  0  0  0  0  0  0  0  0  0
   -2.4106    8.3585  -17.0101 C   0  0  0  0  0  0  0  0  0  0  0  0
   -1.3763    7.4386  -16.5223 N   0  0  0  0  0  0  0  0  0  0  0  0
   -1.3291    6.1908  -17.2788 C   0  0  0  0  0  0  0  0  0  0  0  0
   -2.6353    5.4050  -17.1574 C   0  0  0  0  0  0  0  0  0  0  0  0
  1  2  1  0
  2  3  2  0
  2  4  2  0
  2  5  1  0
  5  6  1  0
  6  7  1  0
  7  8  2  0
  8  9  1  0
  8 10  1  0
 10 11  2  0
 11 12  1  0
 12 13  2  0
 12 14  1  0
 14 15  1  0
 15 16  2  0
 16 17  1  0
 17 18  2  0
 18 19  1  0
 19 20  2  0
 19 21  1  0
 21 22  1  0
 22 23  1  0
 11 24  1  0
 24 25  2  0
 25 26  1  0
 26 27  1  0
 27 28  1  0
 28 29  1  0
 29 30  1  0
 30 31  1  0
 31 32  1  0
 26  5  2  0
 32 27  1  0
 25  7  1  0
 20 15  1  0
 23 18  1  0
M  END
>  <smiles>  (2135) 
C32568-P254

>  <fragmenstein_outcome>  (2135) 
acceptable

>  <inchikey>  (2135) 
DUCPKMHHYRVHRJ-UHFFFAOYSA-N

>  <fragmenstein_mode>  (2135) 
expansion

>  <HIPPO Pose ID>  (2135) 
26196

>  <Energy>  (2135) 
54.527691

>  <fragmenstein_error>  (2135) 


>  <tags>  (2135) 
{'openbind_xx01zvns2b_c1_fragmenstein', 'fragmenstein_placed'}

>  <ref_pdb>  (2135) 
175

>  <scratch_subdir>  (2135) 
/opt/xchem-fragalysis-2/maxwin/BulkDock/SCRATCH/511028/C32568-P254

>  <alias>  (2135) 
CS(=O)(=O)c1[nH]c2c(F)cc(C(=O)Nc3ccc4c(c3)CNC4)cc2c1C1CCNCC1

>  <HIPPO Compound ID>  (2135) 
20314

>  <fragmenstein_runtime>  (2135) 
9.839666

$$$$
O=C(Nc1ccc2c(c1)CNC2)c1cc(F)c2[nH]cc(C3CCNCC3)c2c1O
     RDKit          3D

 29 33  0  0  0  0  0  0  0  0999 V2000
   -7.3225    6.2768  -13.1028 O   0  0  0  0  0  0  0  0  0  0  0  0
   -7.6429    5.1865  -13.3760 C   0  0  0  0  0  0  0  0  0  0  0  0
   -8.1596    4.0423  -12.4808 N   0  0  0  0  0  0  0  0  0  0  0  0
   -8.2972    3.9678  -11.0968 C   0  0  0  0  0  0  0  0  0  0  0  0
   -8.0474    5.0932  -10.2896 C   0  0  0  0  0  0  0  0  0  0  0  0
   -8.1981    5.0336   -8.9008 C   0  0  0  0  0  0  0  0  0  0  0  0
   -8.5956    3.8350   -8.3442 C   0  0  0  0  0  0  0  0  0  0  0  0
   -8.8119    2.7116   -9.1384 C   0  0  0  0  0  0  0  0  0  0  0  0
   -8.6765    2.7592  -10.5155 C   0  0  0  0  0  0  0  0  0  0  0  0
   -9.1514    1.5595   -8.2539 C   0  0  0  0  0  0  0  0  0  0  0  0
   -9.5695    2.1797   -6.9704 N   0  0  0  0  0  0  0  0  0  0  0  0
   -8.8589    3.4777   -6.9192 C   0  0  0  0  0  0  0  0  0  0  0  0
   -7.5142    4.8089  -14.8053 C   0  0  0  0  0  0  0  0  0  0  0  0
   -8.5670    4.2195  -15.4994 C   0  0  0  0  0  0  0  0  0  0  0  0
   -8.4866    4.0610  -16.8824 C   0  0  0  0  0  0  0  0  0  0  0  0
   -9.5171    3.5314  -17.5508 F   0  0  0  0  0  0  0  0  0  0  0  0
   -7.3566    4.5198  -17.5612 C   0  0  0  0  0  0  0  0  0  0  0  0
   -7.0791    4.5708  -18.9071 N   0  0  0  0  0  0  0  0  0  0  0  0
   -5.8453    5.1382  -19.1059 C   0  0  0  0  0  0  0  0  0  0  0  0
   -5.3136    5.4833  -17.8792 C   0  0  0  0  0  0  0  0  0  0  0  0
   -4.0091    6.1720  -17.5997 C   0  0  0  0  0  0  0  0  0  0  0  0
   -3.7385    7.3816  -18.4905 C   0  0  0  0  0  0  0  0  0  0  0  0
   -2.4982    8.1310  -17.9865 C   0  0  0  0  0  0  0  0  0  0  0  0
   -1.4735    7.2817  -17.3639 N   0  0  0  0  0  0  0  0  0  0  0  0
   -1.4987    5.9270  -17.9229 C   0  0  0  0  0  0  0  0  0  0  0  0
   -2.8139    5.2077  -17.6114 C   0  0  0  0  0  0  0  0  0  0  0  0
   -6.2730    5.0863  -16.8892 C   0  0  0  0  0  0  0  0  0  0  0  0
   -6.3517    5.2229  -15.4848 C   0  0  0  0  0  0  0  0  0  0  0  0
   -5.3149    5.8272  -14.8066 O   0  0  0  0  0  0  0  0  0  0  0  0
  1  2  2  0
  2  3  1  0
  3  4  1  0
  4  5  2  0
  5  6  1  0
  6  7  2  0
  7  8  1  0
  8  9  2  0
  8 10  1  0
 10 11  1  0
 11 12  1  0
  2 13  1  0
 13 14  2  0
 14 15  1  0
 15 16  1  0
 15 17  2  0
 17 18  1  0
 18 19  1  0
 19 20  2  0
 20 21  1  0
 21 22  1  0
 22 23  1  0
 23 24  1  0
 24 25  1  0
 25 26  1  0
 20 27  1  0
 27 28  2  0
 28 29  1  0
  9  4  1  0
 28 13  1  0
 12  7  1  0
 27 17  1  0
 26 21  1  0
M  END
>  <smiles>  (2136) 
C32581-P254

>  <fragmenstein_outcome>  (2136) 
acceptable

>  <inchikey>  (2136) 
KIKOFVNCKORCLQ-UHFFFAOYSA-N

>  <fragmenstein_mode>  (2136) 
expansion

>  <HIPPO Pose ID>  (2136) 
26201

>  <Energy>  (2136) 
50.222512

>  <fragmenstein_error>  (2136) 


>  <tags>  (2136) 
{'openbind_xx01zvns2b_c1_fragmenstein', 'fragmenstein_placed'}

>  <ref_pdb>  (2136) 
175

>  <scratch_subdir>  (2136) 
/opt/xchem-fragalysis-2/maxwin/BulkDock/SCRATCH/511028/C32581-P254

>  <alias>  (2136) 
O=C(Nc1ccc2c(c1)CNC2)c1cc(F)c2[nH]cc(C3CCNCC3)c2c1O

>  <HIPPO Compound ID>  (2136) 
32581

>  <fragmenstein_runtime>  (2136) 
8.381757

$$$$
OC(O)(c1cc(F)c2[nH]cc(C3CCNCC3)c2c1)c1cc2cc3c(cc2[nH]1)CNC3
     RDKit          3D

 31 36  0  0  0  0  0  0  0  0999 V2000
   -5.5707    4.3061  -13.0396 O   0  0  0  0  0  0  0  0  0  0  0  0
   -6.6838    5.1180  -13.3745 C   0  0  0  0  0  0  0  0  0  0  0  0
   -6.2198    6.4536  -13.2582 O   0  0  0  0  0  0  0  0  0  0  0  0
   -7.0566    4.8969  -14.8202 C   0  0  0  0  0  0  0  0  0  0  0  0
   -8.2551    4.3719  -15.3053 C   0  0  0  0  0  0  0  0  0  0  0  0
   -8.4377    4.1643  -16.6796 C   0  0  0  0  0  0  0  0  0  0  0  0
   -9.5929    3.6554  -17.1262 F   0  0  0  0  0  0  0  0  0  0  0  0
   -7.4159    4.5082  -17.5710 C   0  0  0  0  0  0  0  0  0  0  0  0
   -7.3406    4.4374  -18.9399 N   0  0  0  0  0  0  0  0  0  0  0  0
   -6.1220    4.9088  -19.3637 C   0  0  0  0  0  0  0  0  0  0  0  0
   -5.4008    5.3404  -18.2716 C   0  0  0  0  0  0  0  0  0  0  0  0
   -4.0476    6.0010  -18.3172 C   0  0  0  0  0  0  0  0  0  0  0  0
   -4.0837    7.4347  -17.7646 C   0  0  0  0  0  0  0  0  0  0  0  0
   -2.6988    8.0733  -17.8069 C   0  0  0  0  0  0  0  0  0  0  0  0
   -1.7141    7.2616  -17.0945 N   0  0  0  0  0  0  0  0  0  0  0  0
   -1.6122    5.9216  -17.6771 C   0  0  0  0  0  0  0  0  0  0  0  0
   -2.9483    5.1842  -17.6271 C   0  0  0  0  0  0  0  0  0  0  0  0
   -6.2132    5.0533  -17.1329 C   0  0  0  0  0  0  0  0  0  0  0  0
   -6.0455    5.2322  -15.7541 C   0  0  0  0  0  0  0  0  0  0  0  0
   -7.6326    4.8901  -12.2639 C   0  0  0  0  0  0  0  0  0  0  0  0
   -7.8928    5.6774  -11.1524 C   0  0  0  0  0  0  0  0  0  0  0  0
   -8.2949    4.8191  -10.1030 C   0  0  0  0  0  0  0  0  0  0  0  0
   -8.4255    4.9795   -8.7083 C   0  0  0  0  0  0  0  0  0  0  0  0
   -8.7617    3.8512   -7.9725 C   0  0  0  0  0  0  0  0  0  0  0  0
   -9.0059    2.6303   -8.5846 C   0  0  0  0  0  0  0  0  0  0  0  0
   -8.9176    2.4562   -9.9528 C   0  0  0  0  0  0  0  0  0  0  0  0
   -8.5138    3.5693  -10.6811 C   0  0  0  0  0  0  0  0  0  0  0  0
   -8.2048    3.6673  -12.0158 N   0  0  0  0  0  0  0  0  0  0  0  0
   -9.2776    1.5997   -7.5460 C   0  0  0  0  0  0  0  0  0  0  0  0
   -9.4865    2.3503   -6.2844 N   0  0  0  0  0  0  0  0  0  0  0  0
   -8.8869    3.6847   -6.4958 C   0  0  0  0  0  0  0  0  0  0  0  0
  1  2  1  0
  2  3  1  0
  2  4  1  0
  4  5  2  0
  5  6  1  0
  6  7  1  0
  6  8  2  0
  8  9  1  0
  9 10  1  0
 10 11  2  0
 11 12  1  0
 12 13  1  0
 13 14  1  0
 14 15  1  0
 15 16  1  0
 16 17  1  0
 11 18  1  0
 18 19  2  0
  2 20  1  0
 20 21  2  0
 21 22  1  0
 22 23  2  0
 23 24  1  0
 24 25  2  0
 25 26  1  0
 26 27  2  0
 27 28  1  0
 25 29  1  0
 29 30  1  0
 30 31  1  0
 19  4  1  0
 28 20  1  0
 18  8  1  0
 27 22  1  0
 17 12  1  0
 31 24  1  0
M  END
>  <smiles>  (2137) 
C32598-P254

>  <fragmenstein_outcome>  (2137) 
acceptable

>  <inchikey>  (2137) 
HLIJQLASZKGWOH-UHFFFAOYSA-N

>  <fragmenstein_mode>  (2137) 
expansion

>  <HIPPO Pose ID>  (2137) 
26204

>  <Energy>  (2137) 
-14.509395

>  <fragmenstein_error>  (2137) 


>  <tags>  (2137) 
{'openbind_xx01zvns2b_c1_fragmenstein', 'fragmenstein_placed'}

>  <ref_pdb>  (2137) 
175

>  <scratch_subdir>  (2137) 
/opt/xchem-fragalysis-2/maxwin/BulkDock/SCRATCH/511028/C32598-P254

>  <alias>  (2137) 
OC(O)(c1cc(F)c2[nH]cc(C3CCNCC3)c2c1)c1cc2cc3c(cc2[nH]1)CNC3

>  <HIPPO Compound ID>  (2137) 
32598

>  <fragmenstein_runtime>  (2137) 
5.328769

$$$$
COc1cc(C(=NOc2cc(C)nc3ncnn23)Nc2ccc3c(c2)CNC3)ccc1N
     RDKit          3D

 32 36  0  0  0  0  0  0  0  0999 V2000
  -10.3756    4.3345  -17.6736 C   0  0  0  0  0  0  0  0  0  0  0  0
   -9.3576    3.3743  -17.4181 O   0  0  0  0  0  0  0  0  0  0  0  0
   -8.2617    4.0179  -16.9003 C   0  0  0  0  0  0  0  0  0  0  0  0
   -8.1976    4.1856  -15.5118 C   0  0  0  0  0  0  0  0  0  0  0  0
   -7.0603    4.7454  -14.9347 C   0  0  0  0  0  0  0  0  0  0  0  0
   -6.9027    4.9266  -13.4256 C   0  0  0  0  0  0  0  0  0  0  0  0
   -5.9813    5.6710  -13.0976 N   0  0  0  0  0  0  0  0  0  0  0  0
   -5.7871    5.7691  -11.7250 O   0  0  0  0  0  0  0  0  0  0  0  0
   -4.5137    6.2481  -11.4656 C   0  0  0  0  0  0  0  0  0  0  0  0
   -3.4326    5.9239  -12.1990 C   0  0  0  0  0  0  0  0  0  0  0  0
   -2.1297    6.4947  -11.7523 C   0  0  0  0  0  0  0  0  0  0  0  0
   -0.9131    6.1541  -12.5774 C   0  0  0  0  0  0  0  0  0  0  0  0
   -1.9621    7.2552  -10.7117 N   0  0  0  0  0  0  0  0  0  0  0  0
   -3.0797    7.5462   -9.9833 C   0  0  0  0  0  0  0  0  0  0  0  0
   -3.1857    8.2799   -8.8962 N   0  0  0  0  0  0  0  0  0  0  0  0
   -4.5127    8.2318   -8.6107 C   0  0  0  0  0  0  0  0  0  0  0  0
   -5.2650    7.5140   -9.4405 N   0  0  0  0  0  0  0  0  0  0  0  0
   -4.3473    7.0580  -10.3381 N   0  0  0  0  0  0  0  0  0  0  0  0
   -8.0187    4.1900  -12.5319 N   0  0  0  0  0  0  0  0  0  0  0  0
   -8.1776    4.1289  -11.1468 C   0  0  0  0  0  0  0  0  0  0  0  0
   -8.0824    5.2622  -10.3211 C   0  0  0  0  0  0  0  0  0  0  0  0
   -8.2326    5.1794   -8.9314 C   0  0  0  0  0  0  0  0  0  0  0  0
   -8.5215    3.9485   -8.3766 C   0  0  0  0  0  0  0  0  0  0  0  0
   -8.6456    2.8221   -9.1757 C   0  0  0  0  0  0  0  0  0  0  0  0
   -8.4667    2.8921  -10.5500 C   0  0  0  0  0  0  0  0  0  0  0  0
   -8.9591    1.6399   -8.3225 C   0  0  0  0  0  0  0  0  0  0  0  0
   -9.2235    2.1757   -6.9617 N   0  0  0  0  0  0  0  0  0  0  0  0
   -8.7462    3.5748   -6.9522 C   0  0  0  0  0  0  0  0  0  0  0  0
   -6.0197    5.1574  -15.7890 C   0  0  0  0  0  0  0  0  0  0  0  0
   -6.1093    5.0029  -17.1812 C   0  0  0  0  0  0  0  0  0  0  0  0
   -7.2441    4.4468  -17.7606 C   0  0  0  0  0  0  0  0  0  0  0  0
   -7.2652    4.1278  -19.1179 N   0  0  0  0  0  0  0  0  0  0  0  0
  1  2  1  0
  2  3  1  0
  3  4  2  0
  4  5  1  0
  5  6  1  0
  6  7  2  3
  7  8  1  0
  8  9  1  0
  9 10  2  0
 10 11  1  0
 11 12  1  0
 11 13  2  0
 13 14  1  0
 14 15  2  0
 15 16  1  0
 16 17  2  0
 17 18  1  0
  6 19  1  0
 19 20  1  0
 20 21  2  0
 21 22  1  0
 22 23  2  0
 23 24  1  0
 24 25  2  0
 24 26  1  0
 26 27  1  0
 27 28  1  0
  5 29  2  0
 29 30  1  0
 30 31  2  0
 31 32  1  0
 31  3  1  0
 18  9  1  0
 25 20  1  0
 18 14  1  0
 28 23  1  0
M  END
>  <smiles>  (2138) 
C32599-P254

>  <fragmenstein_outcome>  (2138) 
acceptable

>  <inchikey>  (2138) 
UAUMGDPDXJYFEA-UHFFFAOYSA-N

>  <fragmenstein_mode>  (2138) 
expansion

>  <HIPPO Pose ID>  (2138) 
26205

>  <Energy>  (2138) 
127.581351

>  <fragmenstein_error>  (2138) 


>  <tags>  (2138) 
{'openbind_xx01zvns2b_c1_fragmenstein', 'fragmenstein_placed'}

>  <ref_pdb>  (2138) 
175

>  <scratch_subdir>  (2138) 
/opt/xchem-fragalysis-2/maxwin/BulkDock/SCRATCH/511028/C32599-P254

>  <alias>  (2138) 
COc1cc(C(=NOc2cc(C)nc3ncnn23)Nc2ccc3c(c2)CNC3)ccc1N

>  <HIPPO Compound ID>  (2138) 
32599

>  <fragmenstein_runtime>  (2138) 
9.457654

$$$$
O=C(Nc1ccc2c(c1)CNC2)c1cc(F)c2[nH]c(Br)c(C3CCNCC3)c2c1
     RDKit          3D

 29 33  0  0  0  0  0  0  0  0999 V2000
   -7.2066    6.3802  -13.1932 O   0  0  0  0  0  0  0  0  0  0  0  0
   -7.5116    5.2861  -13.4663 C   0  0  0  0  0  0  0  0  0  0  0  0
   -8.0356    4.1397  -12.5727 N   0  0  0  0  0  0  0  0  0  0  0  0
   -8.1987    4.0715  -11.1880 C   0  0  0  0  0  0  0  0  0  0  0  0
   -8.0093    5.2092  -10.3853 C   0  0  0  0  0  0  0  0  0  0  0  0
   -8.1579    5.1436   -8.9957 C   0  0  0  0  0  0  0  0  0  0  0  0
   -8.5001    3.9296   -8.4305 C   0  0  0  0  0  0  0  0  0  0  0  0
   -8.6865    2.8014   -9.2195 C   0  0  0  0  0  0  0  0  0  0  0  0
   -8.5431    2.8525  -10.5991 C   0  0  0  0  0  0  0  0  0  0  0  0
   -9.0041    1.6359   -8.3441 C   0  0  0  0  0  0  0  0  0  0  0  0
   -9.2351    2.1940   -6.9865 N   0  0  0  0  0  0  0  0  0  0  0  0
   -8.7149    3.5766   -6.9986 C   0  0  0  0  0  0  0  0  0  0  0  0
   -7.3888    4.8806  -14.8931 C   0  0  0  0  0  0  0  0  0  0  0  0
   -8.4366    4.2686  -15.5759 C   0  0  0  0  0  0  0  0  0  0  0  0
   -8.3533    4.0963  -16.9575 C   0  0  0  0  0  0  0  0  0  0  0  0
   -9.3729    3.5352  -17.6182 F   0  0  0  0  0  0  0  0  0  0  0  0
   -7.2284    4.5681  -17.6414 C   0  0  0  0  0  0  0  0  0  0  0  0
   -6.9504    4.6220  -18.9887 N   0  0  0  0  0  0  0  0  0  0  0  0
   -5.7228    5.1905  -19.1752 C   0  0  0  0  0  0  0  0  0  0  0  0
   -4.9104    5.4981  -20.8697 Br  0  0  0  0  0  0  0  0  0  0  0  0
   -5.1746    5.5297  -17.9572 C   0  0  0  0  0  0  0  0  0  0  0  0
   -3.8490    6.2115  -17.7510 C   0  0  0  0  0  0  0  0  0  0  0  0
   -3.9930    7.6327  -17.1993 C   0  0  0  0  0  0  0  0  0  0  0  0
   -2.6211    8.2936  -17.1004 C   0  0  0  0  0  0  0  0  0  0  0  0
   -1.7028    7.4992  -16.2863 N   0  0  0  0  0  0  0  0  0  0  0  0
   -1.5297    6.1457  -16.8174 C   0  0  0  0  0  0  0  0  0  0  0  0
   -2.8604    5.4014  -16.9115 C   0  0  0  0  0  0  0  0  0  0  0  0
   -6.1453    5.1467  -16.9733 C   0  0  0  0  0  0  0  0  0  0  0  0
   -6.2287    5.2885  -15.5731 C   0  0  0  0  0  0  0  0  0  0  0  0
  1  2  2  0
  2  3  1  0
  3  4  1  0
  4  5  2  0
  5  6  1  0
  6  7  2  0
  7  8  1  0
  8  9  2  0
  8 10  1  0
 10 11  1  0
 11 12  1  0
  2 13  1  0
 13 14  2  0
 14 15  1  0
 15 16  1  0
 15 17  2  0
 17 18  1  0
 18 19  1  0
 19 20  1  0
 19 21  2  0
 21 22  1  0
 22 23  1  0
 23 24  1  0
 24 25  1  0
 25 26  1  0
 26 27  1  0
 21 28  1  0
 28 29  2  0
  9  4  1  0
 29 13  1  0
 12  7  1  0
 28 17  1  0
 27 22  1  0
M  END
>  <smiles>  (2139) 
C32603-P254

>  <fragmenstein_outcome>  (2139) 
acceptable

>  <inchikey>  (2139) 
IVFMQULZHOERQD-UHFFFAOYSA-N

>  <fragmenstein_mode>  (2139) 
expansion

>  <HIPPO Pose ID>  (2139) 
26206

>  <Energy>  (2139) 
28.923966

>  <fragmenstein_error>  (2139) 


>  <tags>  (2139) 
{'openbind_xx01zvns2b_c1_fragmenstein', 'fragmenstein_placed'}

>  <ref_pdb>  (2139) 
175

>  <scratch_subdir>  (2139) 
/opt/xchem-fragalysis-2/maxwin/BulkDock/SCRATCH/511028/C32603-P254

>  <alias>  (2139) 
O=C(Nc1ccc2c(c1)CNC2)c1cc(F)c2[nH]c(Br)c(C3CCNCC3)c2c1

>  <HIPPO Compound ID>  (2139) 
32603

>  <fragmenstein_runtime>  (2139) 
7.288125

$$$$
Nc1c(C(=O)Nc2ccc3c(c2)CNC3)cc(F)c2[nH]cc(C3CCNCC3)c12
     RDKit          3D

 29 33  0  0  0  0  0  0  0  0999 V2000
   -5.1784    5.5439  -14.8797 N   0  0  0  0  0  0  0  0  0  0  0  0
   -6.2890    5.0989  -15.6131 C   0  0  0  0  0  0  0  0  0  0  0  0
   -7.5110    4.8246  -14.9373 C   0  0  0  0  0  0  0  0  0  0  0  0
   -7.6999    5.2738  -13.5288 C   0  0  0  0  0  0  0  0  0  0  0  0
   -7.6336    6.4169  -13.2997 O   0  0  0  0  0  0  0  0  0  0  0  0
   -7.9945    4.0798  -12.5924 N   0  0  0  0  0  0  0  0  0  0  0  0
   -8.1692    4.0348  -11.2092 C   0  0  0  0  0  0  0  0  0  0  0  0
   -8.0251    5.1912  -10.4246 C   0  0  0  0  0  0  0  0  0  0  0  0
   -8.1852    5.1430   -9.0352 C   0  0  0  0  0  0  0  0  0  0  0  0
   -8.5032    3.9296   -8.4537 C   0  0  0  0  0  0  0  0  0  0  0  0
   -8.6521    2.7851   -9.2263 C   0  0  0  0  0  0  0  0  0  0  0  0
   -8.4824    2.8162  -10.6031 C   0  0  0  0  0  0  0  0  0  0  0  0
   -8.9759    1.6291   -8.3410 C   0  0  0  0  0  0  0  0  0  0  0  0
   -9.2195    2.2004   -6.9911 N   0  0  0  0  0  0  0  0  0  0  0  0
   -8.7296    3.5939   -7.0195 C   0  0  0  0  0  0  0  0  0  0  0  0
   -8.6064    4.2674  -15.5859 C   0  0  0  0  0  0  0  0  0  0  0  0
   -8.5474    4.0460  -16.9491 C   0  0  0  0  0  0  0  0  0  0  0  0
   -9.6029    3.5248  -17.5844 F   0  0  0  0  0  0  0  0  0  0  0  0
   -7.4163    4.4484  -17.6561 C   0  0  0  0  0  0  0  0  0  0  0  0
   -7.2067    4.4389  -19.0110 N   0  0  0  0  0  0  0  0  0  0  0  0
   -5.9783    4.9590  -19.2901 C   0  0  0  0  0  0  0  0  0  0  0  0
   -5.3611    5.3343  -18.1110 C   0  0  0  0  0  0  0  0  0  0  0  0
   -4.0223    6.0331  -18.1121 C   0  0  0  0  0  0  0  0  0  0  0  0
   -4.0652    7.4339  -17.4855 C   0  0  0  0  0  0  0  0  0  0  0  0
   -2.6854    8.0845  -17.4980 C   0  0  0  0  0  0  0  0  0  0  0  0
   -1.6739    7.2298  -16.8768 N   0  0  0  0  0  0  0  0  0  0  0  0
   -1.5564    5.9598  -17.5974 C   0  0  0  0  0  0  0  0  0  0  0  0
   -2.8657    5.1728  -17.5904 C   0  0  0  0  0  0  0  0  0  0  0  0
   -6.2764    4.9843  -17.0385 C   0  0  0  0  0  0  0  0  0  0  0  0
  1  2  1  0
  2  3  2  0
  3  4  1  0
  4  5  2  0
  4  6  1  0
  6  7  1  0
  7  8  2  0
  8  9  1  0
  9 10  2  0
 10 11  1  0
 11 12  2  0
 11 13  1  0
 13 14  1  0
 14 15  1  0
  3 16  1  0
 16 17  2  0
 17 18  1  0
 17 19  1  0
 19 20  1  0
 20 21  1  0
 21 22  2  0
 22 23  1  0
 23 24  1  0
 24 25  1  0
 25 26  1  0
 26 27  1  0
 27 28  1  0
 22 29  1  0
 29  2  1  0
 12  7  1  0
 29 19  2  0
 15 10  1  0
 28 23  1  0
M  END
>  <smiles>  (2140) 
C32605-P254

>  <fragmenstein_outcome>  (2140) 
acceptable

>  <inchikey>  (2140) 
VDJWTUOHANNJDF-UHFFFAOYSA-N

>  <fragmenstein_mode>  (2140) 
expansion

>  <HIPPO Pose ID>  (2140) 
26208

>  <Energy>  (2140) 
64.653402

>  <fragmenstein_error>  (2140) 


>  <tags>  (2140) 
{'openbind_xx01zvns2b_c1_fragmenstein', 'fragmenstein_placed'}

>  <ref_pdb>  (2140) 
175

>  <scratch_subdir>  (2140) 
/opt/xchem-fragalysis-2/maxwin/BulkDock/SCRATCH/511028/C32605-P254

>  <alias>  (2140) 
Nc1c(C(=O)Nc2ccc3c(c2)CNC3)cc(F)c2[nH]cc(C3CCNCC3)c12

>  <HIPPO Compound ID>  (2140) 
32605

>  <fragmenstein_runtime>  (2140) 
8.031775

$$$$
C[C@@]1(C2CCNCC2)c2cc(C(=O)C(=O)c3ccc4c(c3)CNC4)cc(F)c2N[C@@H]1O
     RDKit          3D

 31 35  0  0  0  0  0  0  0  0999 V2000
   -6.1559    7.6175  -18.4499 C   0  0  0  0  0  0  0  0  0  0  0  0
   -5.5274    6.2553  -18.1160 C   0  0  1  0  0  0  0  0  0  0  0  0
   -3.9812    6.4171  -17.9197 C   0  0  0  0  0  0  0  0  0  0  0  0
   -3.5925    7.7556  -17.2430 C   0  0  0  0  0  0  0  0  0  0  0  0
   -2.0835    7.9282  -17.1368 C   0  0  0  0  0  0  0  0  0  0  0  0
   -1.4935    6.8327  -16.3863 N   0  0  0  0  0  0  0  0  0  0  0  0
   -1.7674    5.5488  -17.0246 C   0  0  0  0  0  0  0  0  0  0  0  0
   -3.2648    5.2734  -17.1762 C   0  0  0  0  0  0  0  0  0  0  0  0
   -6.3359    5.5783  -17.0162 C   0  0  0  0  0  0  0  0  0  0  0  0
   -6.2606    5.6603  -15.6327 C   0  0  0  0  0  0  0  0  0  0  0  0
   -7.1728    4.9156  -14.8629 C   0  0  0  0  0  0  0  0  0  0  0  0
   -7.0933    4.9862  -13.3787 C   0  0  0  0  0  0  0  0  0  0  0  0
   -6.0601    5.3190  -12.8138 O   0  0  0  0  0  0  0  0  0  0  0  0
   -8.3432    4.7318  -12.5660 C   0  0  0  0  0  0  0  0  0  0  0  0
   -9.4259    4.9114  -13.1107 O   0  0  0  0  0  0  0  0  0  0  0  0
   -8.2624    4.4406  -11.1246 C   0  0  0  0  0  0  0  0  0  0  0  0
   -7.9540    5.5065  -10.2585 C   0  0  0  0  0  0  0  0  0  0  0  0
   -8.0033    5.3291   -8.8749 C   0  0  0  0  0  0  0  0  0  0  0  0
   -8.3652    4.0855   -8.3876 C   0  0  0  0  0  0  0  0  0  0  0  0
   -8.6518    3.0247   -9.2445 C   0  0  0  0  0  0  0  0  0  0  0  0
   -8.6147    3.1815  -10.6242 C   0  0  0  0  0  0  0  0  0  0  0  0
   -8.9601    1.8128   -8.4256 C   0  0  0  0  0  0  0  0  0  0  0  0
   -9.1326    2.3005   -7.0341 N   0  0  0  0  0  0  0  0  0  0  0  0
   -8.5129    3.6376   -6.9716 C   0  0  0  0  0  0  0  0  0  0  0  0
   -8.1586    4.1354  -15.4884 C   0  0  0  0  0  0  0  0  0  0  0  0
   -8.2423    4.0825  -16.8658 C   0  0  0  0  0  0  0  0  0  0  0  0
   -9.1847    3.3316  -17.4512 F   0  0  0  0  0  0  0  0  0  0  0  0
   -7.3034    4.7575  -17.6165 C   0  0  0  0  0  0  0  0  0  0  0  0
   -7.2407    4.7915  -19.0125 N   0  0  0  0  0  0  0  0  0  0  0  0
   -5.9346    5.3266  -19.3209 C   0  0  2  0  0  0  0  0  0  0  0  0
   -5.0844    4.2280  -19.4302 O   0  0  0  0  0  0  0  0  0  0  0  0
  2  1  1  6
  2  3  1  0
  3  4  1  0
  4  5  1  0
  5  6  1  0
  6  7  1  0
  7  8  1  0
  2  9  1  0
  9 10  2  0
 10 11  1  0
 11 12  1  0
 12 13  2  0
 12 14  1  0
 14 15  2  0
 14 16  1  0
 16 17  2  0
 17 18  1  0
 18 19  2  0
 19 20  1  0
 20 21  2  0
 20 22  1  0
 22 23  1  0
 23 24  1  0
 11 25  2  0
 25 26  1  0
 26 27  1  0
 26 28  2  0
 28 29  1  0
 29 30  1  0
 30 31  1  1
 30  2  1  0
  8  3  1  0
 28  9  1  0
 21 16  1  0
 24 19  1  0
M  END
>  <smiles>  (2141) 
C32612-P118

>  <fragmenstein_outcome>  (2141) 
acceptable

>  <inchikey>  (2141) 
GXDGDJFDEVGAGG-UHFFFAOYSA-N

>  <fragmenstein_mode>  (2141) 
expansion

>  <HIPPO Pose ID>  (2141) 
26216

>  <Energy>  (2141) 
118.193777

>  <fragmenstein_error>  (2141) 


>  <tags>  (2141) 
{'openbind_xx01zvns2b_c1_fragmenstein', 'fragmenstein_placed'}

>  <ref_pdb>  (2141) 
175

>  <scratch_subdir>  (2141) 
/opt/xchem-fragalysis-2/maxwin/BulkDock/SCRATCH/511028/C32612-P118

>  <alias>  (2141) 
C[C@@]1(C2CCNCC2)c2cc(C(=O)C(=O)c3ccc4c(c3)CNC4)cc(F)c2N[C@@H]1O

>  <HIPPO Compound ID>  (2141) 
32612

>  <fragmenstein_runtime>  (2141) 
6.404491

$$$$
Cc1cc(C(=O)C(=O)c2cc(F)c3[nH]c(NC(C)(C)CO)c(C4CCNCC4)c3c2)cc2c1CNC2
     RDKit          3D

 36 40  0  0  0  0  0  0  0  0999 V2000
   -9.2997    2.1567   -7.8262 C   0  0  0  0  0  0  0  0  0  0  0  0
   -8.8303    3.2828   -8.6887 C   0  0  0  0  0  0  0  0  0  0  0  0
   -8.6157    3.0817  -10.0519 C   0  0  0  0  0  0  0  0  0  0  0  0
   -8.1881    4.1334  -10.8836 C   0  0  0  0  0  0  0  0  0  0  0  0
   -7.8562    3.7699  -12.2724 C   0  0  0  0  0  0  0  0  0  0  0  0
   -8.1851    2.6787  -12.7150 O   0  0  0  0  0  0  0  0  0  0  0  0
   -7.0048    4.6697  -13.1272 C   0  0  0  0  0  0  0  0  0  0  0  0
   -6.1984    5.4241  -12.5897 O   0  0  0  0  0  0  0  0  0  0  0  0
   -7.0983    4.6434  -14.5979 C   0  0  0  0  0  0  0  0  0  0  0  0
   -8.2224    4.1948  -15.2903 C   0  0  0  0  0  0  0  0  0  0  0  0
   -8.2653    4.2903  -16.6768 C   0  0  0  0  0  0  0  0  0  0  0  0
   -9.3548    3.8870  -17.3449 F   0  0  0  0  0  0  0  0  0  0  0  0
   -7.1968    4.9060  -17.3316 C   0  0  0  0  0  0  0  0  0  0  0  0
   -7.0657    5.3143  -18.6326 N   0  0  0  0  0  0  0  0  0  0  0  0
   -5.8661    5.9564  -18.8030 C   0  0  0  0  0  0  0  0  0  0  0  0
   -5.5488    6.5540  -19.9790 N   0  0  0  0  0  0  0  0  0  0  0  0
   -4.9668    5.7185  -21.0489 C   0  0  0  0  0  0  0  0  0  0  0  0
   -5.0708    6.5320  -22.3596 C   0  0  0  0  0  0  0  0  0  0  0  0
   -5.7110    4.3879  -21.1676 C   0  0  0  0  0  0  0  0  0  0  0  0
   -3.4468    5.4460  -20.8107 C   0  0  0  0  0  0  0  0  0  0  0  0
   -2.8585    4.7387  -21.9106 O   0  0  0  0  0  0  0  0  0  0  0  0
   -5.1680    5.9236  -17.6214 C   0  0  0  0  0  0  0  0  0  0  0  0
   -3.8037    6.5072  -17.4280 C   0  0  0  0  0  0  0  0  0  0  0  0
   -3.8202    7.8028  -16.6197 C   0  0  0  0  0  0  0  0  0  0  0  0
   -2.4149    8.3965  -16.5877 C   0  0  0  0  0  0  0  0  0  0  0  0
   -1.4342    7.4486  -16.0573 N   0  0  0  0  0  0  0  0  0  0  0  0
   -1.4034    6.2044  -16.8318 C   0  0  0  0  0  0  0  0  0  0  0  0
   -2.7719    5.5254  -16.8702 C   0  0  0  0  0  0  0  0  0  0  0  0
   -6.0430    5.3230  -16.6687 C   0  0  0  0  0  0  0  0  0  0  0  0
   -5.9881    5.1626  -15.2807 C   0  0  0  0  0  0  0  0  0  0  0  0
   -8.0334    5.4278  -10.3749 C   0  0  0  0  0  0  0  0  0  0  0  0
   -8.2210    5.6115   -9.0175 C   0  0  0  0  0  0  0  0  0  0  0  0
   -8.5907    4.5544   -8.1866 C   0  0  0  0  0  0  0  0  0  0  0  0
   -8.7034    5.0538   -6.7834 C   0  0  0  0  0  0  0  0  0  0  0  0
   -8.0819    6.4069   -6.7887 N   0  0  0  0  0  0  0  0  0  0  0  0
   -8.1073    6.8568   -8.2057 C   0  0  0  0  0  0  0  0  0  0  0  0
  1  2  1  0
  2  3  2  0
  3  4  1  0
  4  5  1  0
  5  6  2  0
  5  7  1  0
  7  8  2  0
  7  9  1  0
  9 10  2  0
 10 11  1  0
 11 12  1  0
 11 13  2  0
 13 14  1  0
 14 15  1  0
 15 16  1  0
 16 17  1  0
 17 18  1  0
 17 19  1  0
 17 20  1  0
 20 21  1  0
 15 22  2  0
 22 23  1  0
 23 24  1  0
 24 25  1  0
 25 26  1  0
 26 27  1  0
 27 28  1  0
 22 29  1  0
 29 30  2  0
  4 31  2  0
 31 32  1  0
 32 33  2  0
 33 34  1  0
 34 35  1  0
 35 36  1  0
 33  2  1  0
 30  9  1  0
 36 32  1  0
 29 13  1  0
 28 23  1  0
M  END
>  <smiles>  (2142) 
C32619-P254

>  <fragmenstein_outcome>  (2142) 
acceptable

>  <inchikey>  (2142) 
UJBFGZGANOXCJL-UHFFFAOYSA-N

>  <fragmenstein_mode>  (2142) 
expansion

>  <HIPPO Pose ID>  (2142) 
26221

>  <Energy>  (2142) 
137.213587

>  <fragmenstein_error>  (2142) 


>  <tags>  (2142) 
{'openbind_xx01zvns2b_c1_fragmenstein', 'fragmenstein_placed'}

>  <ref_pdb>  (2142) 
175

>  <scratch_subdir>  (2142) 
/opt/xchem-fragalysis-2/maxwin/BulkDock/SCRATCH/511028/C32619-P254

>  <alias>  (2142) 
Cc1cc(C(=O)C(=O)c2cc(F)c3[nH]c(NC(C)(C)CO)c(C4CCNCC4)c3c2)cc2c1CNC2

>  <HIPPO Compound ID>  (2142) 
32619

>  <fragmenstein_runtime>  (2142) 
7.454629

$$$$
Cc1cc2c(cc1NC(O)(O)c1cc(F)c3[nH]cc(C4CCNCC4)c3c1)CNC2
     RDKit          3D

 30 34  0  0  0  0  0  0  0  0999 V2000
   -6.7342    6.6252  -10.9957 C   0  0  0  0  0  0  0  0  0  0  0  0
   -7.4165    5.3596  -10.5415 C   0  0  0  0  0  0  0  0  0  0  0  0
   -7.7961    5.2902   -9.1836 C   0  0  0  0  0  0  0  0  0  0  0  0
   -8.3076    4.1074   -8.6844 C   0  0  0  0  0  0  0  0  0  0  0  0
   -8.4704    3.0062   -9.5065 C   0  0  0  0  0  0  0  0  0  0  0  0
   -8.1514    3.0621  -10.8577 C   0  0  0  0  0  0  0  0  0  0  0  0
   -7.6199    4.2477  -11.4031 C   0  0  0  0  0  0  0  0  0  0  0  0
   -7.3221    4.3093  -12.7807 N   0  0  0  0  0  0  0  0  0  0  0  0
   -8.2662    4.8977  -13.7036 C   0  0  0  0  0  0  0  0  0  0  0  0
   -9.5375    4.3555  -13.5097 O   0  0  0  0  0  0  0  0  0  0  0  0
   -8.4116    6.2719  -13.4668 O   0  0  0  0  0  0  0  0  0  0  0  0
   -7.8724    4.6944  -15.1574 C   0  0  0  0  0  0  0  0  0  0  0  0
   -8.8069    4.1417  -16.0456 C   0  0  0  0  0  0  0  0  0  0  0  0
   -8.5639    4.0468  -17.4008 C   0  0  0  0  0  0  0  0  0  0  0  0
   -9.5176    3.5788  -18.2067 F   0  0  0  0  0  0  0  0  0  0  0  0
   -7.3613    4.5161  -17.8980 C   0  0  0  0  0  0  0  0  0  0  0  0
   -6.9511    4.6080  -19.1993 N   0  0  0  0  0  0  0  0  0  0  0  0
   -5.7056    5.1588  -19.2449 C   0  0  0  0  0  0  0  0  0  0  0  0
   -5.2988    5.4592  -17.9564 C   0  0  0  0  0  0  0  0  0  0  0  0
   -4.0009    6.1555  -17.6753 C   0  0  0  0  0  0  0  0  0  0  0  0
   -4.1934    7.5563  -17.0892 C   0  0  0  0  0  0  0  0  0  0  0  0
   -2.8393    8.2421  -16.9283 C   0  0  0  0  0  0  0  0  0  0  0  0
   -1.9254    7.4539  -16.0995 N   0  0  0  0  0  0  0  0  0  0  0  0
   -1.7138    6.1176  -16.6665 C   0  0  0  0  0  0  0  0  0  0  0  0
   -3.0235    5.3450  -16.8271 C   0  0  0  0  0  0  0  0  0  0  0  0
   -6.3624    5.0461  -17.0779 C   0  0  0  0  0  0  0  0  0  0  0  0
   -6.6241    5.1167  -15.6799 C   0  0  0  0  0  0  0  0  0  0  0  0
   -8.9506    1.8502   -8.6939 C   0  0  0  0  0  0  0  0  0  0  0  0
   -9.2425    2.3842   -7.3383 N   0  0  0  0  0  0  0  0  0  0  0  0
   -8.6900    3.7541   -7.2874 C   0  0  0  0  0  0  0  0  0  0  0  0
  1  2  1  0
  2  3  2  0
  3  4  1  0
  4  5  2  0
  5  6  1  0
  6  7  2  0
  7  8  1  0
  8  9  1  0
  9 10  1  0
  9 11  1  0
  9 12  1  0
 12 13  2  0
 13 14  1  0
 14 15  1  0
 14 16  2  0
 16 17  1  0
 17 18  1  0
 18 19  2  0
 19 20  1  0
 20 21  1  0
 21 22  1  0
 22 23  1  0
 23 24  1  0
 24 25  1  0
 19 26  1  0
 26 27  2  0
  5 28  1  0
 28 29  1  0
 29 30  1  0
  7  2  1  0
 27 12  1  0
 30  4  1  0
 26 16  1  0
 25 20  1  0
M  END
>  <smiles>  (2143) 
C32622-P254

>  <fragmenstein_outcome>  (2143) 
acceptable

>  <inchikey>  (2143) 
NOFCUNVXJMDPKR-UHFFFAOYSA-N

>  <fragmenstein_mode>  (2143) 
expansion

>  <HIPPO Pose ID>  (2143) 
26222

>  <Energy>  (2143) 
-75.003646

>  <fragmenstein_error>  (2143) 


>  <tags>  (2143) 
{'openbind_xx01zvns2b_c1_fragmenstein', 'fragmenstein_placed'}

>  <ref_pdb>  (2143) 
175

>  <scratch_subdir>  (2143) 
/opt/xchem-fragalysis-2/maxwin/BulkDock/SCRATCH/511028/C32622-P254

>  <alias>  (2143) 
Cc1cc2c(cc1NC(O)(O)c1cc(F)c3[nH]cc(C4CCNCC4)c3c1)CNC2

>  <HIPPO Compound ID>  (2143) 
32180

>  <fragmenstein_runtime>  (2143) 
6.953059

$$$$
NN1Cc2ccc(NC(=O)c3cc(F)c4[nH]cc([C@@]56CCNC7(CCCCC7)C[C@@H]5CC=N6)c4c3)cc2C1
     RDKit          3D

 38 44  0  0  0  0  0  0  0  0999 V2000
   -9.8022    1.6795   -6.0647 N   0  0  0  0  0  0  0  0  0  0  0  0
   -9.7103    2.4903   -7.2354 N   0  0  0  0  0  0  0  0  0  0  0  0
   -8.8337    3.6753   -7.0946 C   0  0  0  0  0  0  0  0  0  0  0  0
   -8.4610    3.9877   -8.5124 C   0  0  0  0  0  0  0  0  0  0  0  0
   -7.9919    5.1593   -9.0705 C   0  0  0  0  0  0  0  0  0  0  0  0
   -7.7757    5.1869  -10.4527 C   0  0  0  0  0  0  0  0  0  0  0  0
   -8.0228    4.0555  -11.2516 C   0  0  0  0  0  0  0  0  0  0  0  0
   -7.8194    4.0952  -12.6306 N   0  0  0  0  0  0  0  0  0  0  0  0
   -7.2683    5.2235  -13.5322 C   0  0  0  0  0  0  0  0  0  0  0  0
   -6.8263    6.2684  -13.2529 O   0  0  0  0  0  0  0  0  0  0  0  0
   -7.2935    4.8536  -14.9759 C   0  0  0  0  0  0  0  0  0  0  0  0
   -8.4166    4.2812  -15.5735 C   0  0  0  0  0  0  0  0  0  0  0  0
   -8.4460    4.0982  -16.9552 C   0  0  0  0  0  0  0  0  0  0  0  0
   -9.5399    3.5990  -17.5488 F   0  0  0  0  0  0  0  0  0  0  0  0
   -7.3514    4.5120  -17.7173 C   0  0  0  0  0  0  0  0  0  0  0  0
   -7.1698    4.5057  -19.0764 N   0  0  0  0  0  0  0  0  0  0  0  0
   -5.9534    5.0514  -19.3821 C   0  0  0  0  0  0  0  0  0  0  0  0
   -5.3249    5.4610  -18.2210 C   0  0  0  0  0  0  0  0  0  0  0  0
   -3.9865    6.2115  -18.1334 C   0  0  1  0  0  0  0  0  0  0  0  0
   -4.2379    7.6258  -17.5802 C   0  0  0  0  0  0  0  0  0  0  0  0
   -3.0591    8.5900  -17.6825 C   0  0  0  0  0  0  0  0  0  0  0  0
   -2.0934    8.4833  -16.6012 N   0  0  0  0  0  0  0  0  0  0  0  0
   -1.2096    7.3150  -16.5945 C   0  0  0  0  0  0  0  0  0  0  0  0
   -0.2866    7.5046  -15.3426 C   0  0  0  0  0  0  0  0  0  0  0  0
    0.6572    8.7056  -15.4415 C   0  0  0  0  0  0  0  0  0  0  0  0
    1.5132    8.6368  -16.6988 C   0  0  0  0  0  0  0  0  0  0  0  0
    0.6597    8.4616  -17.9479 C   0  0  0  0  0  0  0  0  0  0  0  0
   -0.2815    7.2585  -17.8297 C   0  0  0  0  0  0  0  0  0  0  0  0
   -2.0242    6.0233  -16.3415 C   0  0  0  0  0  0  0  0  0  0  0  0
   -2.9266    5.3640  -17.3971 C   0  0  2  0  0  0  0  0  0  0  0  0
   -2.1670    4.6684  -18.5144 C   0  0  0  0  0  0  0  0  0  0  0  0
   -2.5337    5.5046  -19.6833 C   0  0  0  0  0  0  0  0  0  0  0  0
   -3.4707    6.3785  -19.5278 N   0  0  0  0  0  0  0  0  0  0  0  0
   -6.2121    5.0873  -17.1498 C   0  0  0  0  0  0  0  0  0  0  0  0
   -6.1829    5.2400  -15.7490 C   0  0  0  0  0  0  0  0  0  0  0  0
   -8.4803    2.8712  -10.6687 C   0  0  0  0  0  0  0  0  0  0  0  0
   -8.6931    2.8558   -9.3001 C   0  0  0  0  0  0  0  0  0  0  0  0
   -9.1956    1.7513   -8.4176 C   0  0  0  0  0  0  0  0  0  0  0  0
  1  2  1  0
  2  3  1  0
  3  4  1  0
  4  5  2  0
  5  6  1  0
  6  7  2  0
  7  8  1  0
  8  9  1  0
  9 10  2  0
  9 11  1  0
 11 12  2  0
 12 13  1  0
 13 14  1  0
 13 15  2  0
 15 16  1  0
 16 17  1  0
 17 18  2  0
 19 18  1  6
 19 20  1  0
 20 21  1  0
 21 22  1  0
 22 23  1  0
 23 24  1  0
 24 25  1  0
 25 26  1  0
 26 27  1  0
 27 28  1  0
 23 29  1  0
 30 29  1  6
 30 31  1  0
 31 32  1  0
 32 33  2  0
 18 34  1  0
 34 35  2  0
  7 36  1  0
 36 37  2  0
 37 38  1  0
 38  2  1  0
 37  4  1  0
 35 11  1  0
 34 15  1  0
 30 19  1  0
 33 19  1  0
 28 23  1  0
M  END
>  <smiles>  (2144) 
C32625-P254

>  <fragmenstein_outcome>  (2144) 
acceptable

>  <inchikey>  (2144) 
ILOZDCUOGJEJCH-UHFFFAOYSA-N

>  <fragmenstein_mode>  (2144) 
expansion

>  <HIPPO Pose ID>  (2144) 
26224

>  <Energy>  (2144) 
143.304096

>  <fragmenstein_error>  (2144) 


>  <tags>  (2144) 
{'openbind_xx01zvns2b_c1_fragmenstein', 'fragmenstein_placed'}

>  <ref_pdb>  (2144) 
175

>  <scratch_subdir>  (2144) 
/opt/xchem-fragalysis-2/maxwin/BulkDock/SCRATCH/511028/C32625-P254

>  <alias>  (2144) 
NN1Cc2ccc(NC(=O)c3cc(F)c4[nH]cc([C@@]56CCNC7(CCCCC7)C[C@@H]5CC=N6)c4c3)cc2C1

>  <HIPPO Compound ID>  (2144) 
32625

>  <fragmenstein_runtime>  (2144) 
13.19604

$$$$
C[C@H]1CNCC[C@]1(C)c1c[nH]c2c(F)cc(C(=O)Nc3ccc4c(c3)CNC4)cc12
     RDKit          3D

 30 34  0  0  0  0  0  0  0  0999 V2000
   -2.2320    4.8215  -18.2401 C   0  0  0  0  0  0  0  0  0  0  0  0
   -2.8626    5.9140  -17.3855 C   0  0  1  0  0  0  0  0  0  0  0  0
   -1.7393    6.9166  -17.0266 C   0  0  0  0  0  0  0  0  0  0  0  0
   -2.2232    8.0414  -16.2357 N   0  0  0  0  0  0  0  0  0  0  0  0
   -3.2620    8.7702  -16.9544 C   0  0  0  0  0  0  0  0  0  0  0  0
   -4.4609    7.8777  -17.2646 C   0  0  0  0  0  0  0  0  0  0  0  0
   -4.0880    6.6016  -18.0757 C   0  0  1  0  0  0  0  0  0  0  0  0
   -3.7058    7.0892  -19.5102 C   0  0  0  0  0  0  0  0  0  0  0  0
   -5.3277    5.6668  -18.1549 C   0  0  0  0  0  0  0  0  0  0  0  0
   -5.9028    5.1954  -19.3233 C   0  0  0  0  0  0  0  0  0  0  0  0
   -7.0894    4.5728  -19.0396 N   0  0  0  0  0  0  0  0  0  0  0  0
   -7.2969    4.5635  -17.6859 C   0  0  0  0  0  0  0  0  0  0  0  0
   -8.4003    4.1087  -16.9544 C   0  0  0  0  0  0  0  0  0  0  0  0
   -9.4788    3.6052  -17.5770 F   0  0  0  0  0  0  0  0  0  0  0  0
   -8.4097    4.2768  -15.5722 C   0  0  0  0  0  0  0  0  0  0  0  0
   -7.3157    4.8686  -14.9441 C   0  0  0  0  0  0  0  0  0  0  0  0
   -7.3665    5.2582  -13.5071 C   0  0  0  0  0  0  0  0  0  0  0  0
   -7.0663    6.3556  -13.2395 O   0  0  0  0  0  0  0  0  0  0  0  0
   -7.8106    4.0896  -12.5960 N   0  0  0  0  0  0  0  0  0  0  0  0
   -8.0611    4.0549  -11.2225 C   0  0  0  0  0  0  0  0  0  0  0  0
   -7.8812    5.1975  -10.4254 C   0  0  0  0  0  0  0  0  0  0  0  0
   -8.0899    5.1516   -9.0423 C   0  0  0  0  0  0  0  0  0  0  0  0
   -8.4712    3.9495   -8.4759 C   0  0  0  0  0  0  0  0  0  0  0  0
   -8.6519    2.8173   -9.2593 C   0  0  0  0  0  0  0  0  0  0  0  0
   -8.4611    2.8521  -10.6340 C   0  0  0  0  0  0  0  0  0  0  0  0
   -9.0038    1.6622   -8.3833 C   0  0  0  0  0  0  0  0  0  0  0  0
   -9.2412    2.2281   -7.0293 N   0  0  0  0  0  0  0  0  0  0  0  0
   -8.7229    3.6117   -7.0464 C   0  0  0  0  0  0  0  0  0  0  0  0
   -6.1943    5.2939  -15.6856 C   0  0  0  0  0  0  0  0  0  0  0  0
   -6.1884    5.1800  -17.0936 C   0  0  0  0  0  0  0  0  0  0  0  0
  2  1  1  6
  2  3  1  0
  3  4  1  0
  4  5  1  0
  5  6  1  0
  6  7  1  0
  7  8  1  6
  7  9  1  0
  9 10  2  0
 10 11  1  0
 11 12  1  0
 12 13  2  0
 13 14  1  0
 13 15  1  0
 15 16  2  0
 16 17  1  0
 17 18  2  0
 17 19  1  0
 19 20  1  0
 20 21  2  0
 21 22  1  0
 22 23  2  0
 23 24  1  0
 24 25  2  0
 24 26  1  0
 26 27  1  0
 27 28  1  0
 16 29  1  0
 29 30  2  0
  7  2  1  0
 30  9  1  0
 30 12  1  0
 25 20  1  0
 28 23  1  0
M  END
>  <smiles>  (2145) 
C32628-P254

>  <fragmenstein_outcome>  (2145) 
acceptable

>  <inchikey>  (2145) 
HWLKOJBRILUVRN-UHFFFAOYSA-N

>  <fragmenstein_mode>  (2145) 
expansion

>  <HIPPO Pose ID>  (2145) 
26225

>  <Energy>  (2145) 
54.955811

>  <fragmenstein_error>  (2145) 


>  <tags>  (2145) 
{'openbind_xx01zvns2b_c1_fragmenstein', 'fragmenstein_placed'}

>  <ref_pdb>  (2145) 
175

>  <scratch_subdir>  (2145) 
/opt/xchem-fragalysis-2/maxwin/BulkDock/SCRATCH/511028/C32628-P254

>  <alias>  (2145) 
C[C@H]1CNCC[C@]1(C)c1c[nH]c2c(F)cc(C(=O)Nc3ccc4c(c3)CNC4)cc12

>  <HIPPO Compound ID>  (2145) 
31995

>  <fragmenstein_runtime>  (2145) 
10.608471

$$$$
CNC(=O)[C@@](O)(Nc1ccc2c(c1)CNC2)c1cc(F)c2[nH]cc(C3CCNCC3)c2c1
     RDKit          3D

 32 36  0  0  0  0  0  0  0  0999 V2000
   -9.3396    8.2400  -12.7052 C   0  0  0  0  0  0  0  0  0  0  0  0
   -8.7421    6.9566  -12.9224 N   0  0  0  0  0  0  0  0  0  0  0  0
   -7.2445    6.5408  -13.0093 C   0  0  0  0  0  0  0  0  0  0  0  0
   -6.2736    7.1952  -12.9938 O   0  0  0  0  0  0  0  0  0  0  0  0
   -7.2321    4.9284  -13.2188 C   0  0  1  0  0  0  0  0  0  0  0  0
   -6.0267    4.3180  -12.8066 O   0  0  0  0  0  0  0  0  0  0  0  0
   -8.3431    4.2629  -12.5099 N   0  0  0  0  0  0  0  0  0  0  0  0
   -8.3226    4.1496  -11.1002 C   0  0  0  0  0  0  0  0  0  0  0  0
   -8.0531    5.2350  -10.2397 C   0  0  0  0  0  0  0  0  0  0  0  0
   -8.1311    5.1178   -8.8457 C   0  0  0  0  0  0  0  0  0  0  0  0
   -8.4903    3.9003   -8.3097 C   0  0  0  0  0  0  0  0  0  0  0  0
   -8.7497    2.8154   -9.1321 C   0  0  0  0  0  0  0  0  0  0  0  0
   -8.6888    2.9255  -10.5151 C   0  0  0  0  0  0  0  0  0  0  0  0
   -9.0489    1.6225   -8.2880 C   0  0  0  0  0  0  0  0  0  0  0  0
   -9.2503    2.1440   -6.9104 N   0  0  0  0  0  0  0  0  0  0  0  0
   -8.6738    3.5034   -6.8855 C   0  0  0  0  0  0  0  0  0  0  0  0
   -7.3351    4.7068  -14.7413 C   0  0  0  0  0  0  0  0  0  0  0  0
   -8.4750    4.2529  -15.4265 C   0  0  0  0  0  0  0  0  0  0  0  0
   -8.5031    4.1584  -16.8283 C   0  0  0  0  0  0  0  0  0  0  0  0
   -9.6125    3.7422  -17.4600 F   0  0  0  0  0  0  0  0  0  0  0  0
   -7.3841    4.5749  -17.5512 C   0  0  0  0  0  0  0  0  0  0  0  0
   -7.1532    4.6678  -18.9037 N   0  0  0  0  0  0  0  0  0  0  0  0
   -5.9043    5.2031  -19.1283 C   0  0  0  0  0  0  0  0  0  0  0  0
   -5.3148    5.4705  -17.9101 C   0  0  0  0  0  0  0  0  0  0  0  0
   -3.9958    6.1199  -17.6133 C   0  0  0  0  0  0  0  0  0  0  0  0
   -3.7582    7.4143  -18.3859 C   0  0  0  0  0  0  0  0  0  0  0  0
   -2.5005    8.1145  -17.8572 C   0  0  0  0  0  0  0  0  0  0  0  0
   -1.4541    7.2121  -17.3597 N   0  0  0  0  0  0  0  0  0  0  0  0
   -1.4995    5.9154  -18.0411 C   0  0  0  0  0  0  0  0  0  0  0  0
   -2.8041    5.1655  -17.7592 C   0  0  0  0  0  0  0  0  0  0  0  0
   -6.2416    5.0437  -16.9136 C   0  0  0  0  0  0  0  0  0  0  0  0
   -6.2135    5.0751  -15.5086 C   0  0  0  0  0  0  0  0  0  0  0  0
  1  2  1  0
  2  3  1  0
  3  4  2  0
  3  5  1  0
  5  6  1  1
  5  7  1  0
  7  8  1  0
  8  9  2  0
  9 10  1  0
 10 11  2  0
 11 12  1  0
 12 13  2  0
 12 14  1  0
 14 15  1  0
 15 16  1  0
  5 17  1  0
 17 18  2  0
 18 19  1  0
 19 20  1  0
 19 21  2  0
 21 22  1  0
 22 23  1  0
 23 24  2  0
 24 25  1  0
 25 26  1  0
 26 27  1  0
 27 28  1  0
 28 29  1  0
 29 30  1  0
 24 31  1  0
 31 32  2  0
 13  8  1  0
 32 17  1  0
 16 11  1  0
 31 21  1  0
 30 25  1  0
M  END
>  <smiles>  (2146) 
C32634-P254

>  <fragmenstein_outcome>  (2146) 
acceptable

>  <inchikey>  (2146) 
QIDNDVNNQQTCIY-UHFFFAOYSA-N

>  <fragmenstein_mode>  (2146) 
expansion

>  <HIPPO Pose ID>  (2146) 
26227

>  <Energy>  (2146) 
89.362745

>  <fragmenstein_error>  (2146) 


>  <tags>  (2146) 
{'openbind_xx01zvns2b_c1_fragmenstein', 'fragmenstein_placed'}

>  <ref_pdb>  (2146) 
175

>  <scratch_subdir>  (2146) 
/opt/xchem-fragalysis-2/maxwin/BulkDock/SCRATCH/511028/C32634-P254

>  <alias>  (2146) 
CNC(=O)[C@@](O)(Nc1ccc2c(c1)CNC2)c1cc(F)c2[nH]cc(C3CCNCC3)c2c1

>  <HIPPO Compound ID>  (2146) 
40411

>  <fragmenstein_runtime>  (2146) 
7.857015

$$$$
CCc1cc(C(=O)Nc2ccc3c(c2)CNC3)c2c3c(c[nH]c13)[C@]1(CCNCC1(CC)CC)NC2
     RDKit          3D

 35 40  0  0  0  0  0  0  0  0999 V2000
  -10.5019    4.3879  -17.7394 C   0  0  0  0  0  0  0  0  0  0  0  0
   -9.2621    3.5342  -17.7763 C   0  0  0  0  0  0  0  0  0  0  0  0
   -8.1242    4.1777  -17.0601 C   0  0  0  0  0  0  0  0  0  0  0  0
   -8.1331    4.3563  -15.6509 C   0  0  0  0  0  0  0  0  0  0  0  0
   -7.0529    4.9458  -14.9740 C   0  0  0  0  0  0  0  0  0  0  0  0
   -7.1762    5.3289  -13.5383 C   0  0  0  0  0  0  0  0  0  0  0  0
   -6.9004    6.4264  -13.2469 O   0  0  0  0  0  0  0  0  0  0  0  0
   -7.6449    4.1456  -12.6588 N   0  0  0  0  0  0  0  0  0  0  0  0
   -7.9531    4.0933  -11.2965 C   0  0  0  0  0  0  0  0  0  0  0  0
   -7.8570    5.2414  -10.4910 C   0  0  0  0  0  0  0  0  0  0  0  0
   -8.1286    5.1879   -9.1186 C   0  0  0  0  0  0  0  0  0  0  0  0
   -8.5097    3.9767   -8.5748 C   0  0  0  0  0  0  0  0  0  0  0  0
   -8.6173    2.8382   -9.3675 C   0  0  0  0  0  0  0  0  0  0  0  0
   -8.3410    2.8758  -10.7274 C   0  0  0  0  0  0  0  0  0  0  0  0
   -9.0157    1.6861   -8.5028 C   0  0  0  0  0  0  0  0  0  0  0  0
   -9.4947    2.2977   -7.2344 N   0  0  0  0  0  0  0  0  0  0  0  0
   -8.8372    3.6208   -7.1630 C   0  0  0  0  0  0  0  0  0  0  0  0
   -5.9023    5.3100  -15.6813 C   0  0  0  0  0  0  0  0  0  0  0  0
   -5.9270    5.1681  -17.0667 C   0  0  0  0  0  0  0  0  0  0  0  0
   -4.9043    5.5172  -17.9718 C   0  0  0  0  0  0  0  0  0  0  0  0
   -5.4113    5.2502  -19.2282 C   0  0  0  0  0  0  0  0  0  0  0  0
   -6.6902    4.7515  -19.0828 N   0  0  0  0  0  0  0  0  0  0  0  0
   -7.0053    4.6546  -17.7439 C   0  0  0  0  0  0  0  0  0  0  0  0
   -3.5685    6.0748  -17.4565 C   0  0  1  0  0  0  0  0  0  0  0  0
   -2.4473    5.2735  -18.2041 C   0  0  0  0  0  0  0  0  0  0  0  0
   -1.0906    5.9433  -18.1437 C   0  0  0  0  0  0  0  0  0  0  0  0
   -1.0815    7.2737  -18.7463 N   0  0  0  0  0  0  0  0  0  0  0  0
   -2.4102    7.8646  -18.8975 C   0  0  0  0  0  0  0  0  0  0  0  0
   -3.3841    7.6703  -17.6941 C   0  0  0  0  0  0  0  0  0  0  0  0
   -2.8562    8.4939  -16.4587 C   0  0  0  0  0  0  0  0  0  0  0  0
   -1.5784    8.1057  -15.7305 C   0  0  0  0  0  0  0  0  0  0  0  0
   -4.7571    8.3456  -18.0915 C   0  0  0  0  0  0  0  0  0  0  0  0
   -4.7811    9.8575  -18.3147 C   0  0  0  0  0  0  0  0  0  0  0  0
   -3.4812    5.6639  -16.0037 N   0  0  0  0  0  0  0  0  0  0  0  0
   -4.6595    5.9364  -15.1353 C   0  0  0  0  0  0  0  0  0  0  0  0
  1  2  1  0
  2  3  1  0
  3  4  2  0
  4  5  1  0
  5  6  1  0
  6  7  2  0
  6  8  1  0
  8  9  1  0
  9 10  2  0
 10 11  1  0
 11 12  2  0
 12 13  1  0
 13 14  2  0
 13 15  1  0
 15 16  1  0
 16 17  1  0
  5 18  2  0
 18 19  1  0
 19 20  1  0
 20 21  2  0
 21 22  1  0
 22 23  1  0
 20 24  1  0
 24 25  1  6
 25 26  1  0
 26 27  1  0
 27 28  1  0
 28 29  1  0
 29 30  1  0
 30 31  1  0
 29 32  1  0
 32 33  1  0
 24 34  1  0
 34 35  1  0
 23  3  1  0
 29 24  1  0
 14  9  1  0
 35 18  1  0
 17 12  1  0
 23 19  2  0
M  END
>  <smiles>  (2147) 
C32636-P254

>  <fragmenstein_outcome>  (2147) 
acceptable

>  <inchikey>  (2147) 
BXCNYWNFSIIPLA-UHFFFAOYSA-N

>  <fragmenstein_mode>  (2147) 
expansion

>  <HIPPO Pose ID>  (2147) 
26228

>  <Energy>  (2147) 
88.598861

>  <fragmenstein_error>  (2147) 


>  <tags>  (2147) 
{'openbind_xx01zvns2b_c1_fragmenstein', 'fragmenstein_placed'}

>  <ref_pdb>  (2147) 
175

>  <scratch_subdir>  (2147) 
/opt/xchem-fragalysis-2/maxwin/BulkDock/SCRATCH/511028/C32636-P254

>  <alias>  (2147) 
CCc1cc(C(=O)Nc2ccc3c(c2)CNC3)c2c3c(c[nH]c13)[C@]1(CCNCC1(CC)CC)NC2

>  <HIPPO Compound ID>  (2147) 
32636

>  <fragmenstein_runtime>  (2147) 
8.118226

$$$$
O=C(NCc1cccnc1)[C@@](O)(Nc1ccc2c(c1)CNC2)[C@H]1C[C@H](F)c2[nH]cc(C3CCNCC3)c2C12CNNC2
     RDKit          3D

 42 48  0  0  0  0  0  0  0  0999 V2000
   -9.3949    6.7508  -13.4140 O   0  0  0  0  0  0  0  0  0  0  0  0
   -8.3230    6.5918  -12.9722 C   0  0  0  0  0  0  0  0  0  0  0  0
   -7.4036    7.5682  -12.1786 N   0  0  0  0  0  0  0  0  0  0  0  0
   -7.5776    8.9524  -11.8548 C   0  0  0  0  0  0  0  0  0  0  0  0
   -7.4295    9.1922  -10.3846 C   0  0  0  0  0  0  0  0  0  0  0  0
   -6.1716    9.3500   -9.7943 C   0  0  0  0  0  0  0  0  0  0  0  0
   -6.0732    9.5573   -8.4217 C   0  0  0  0  0  0  0  0  0  0  0  0
   -7.2410    9.5998   -7.6797 C   0  0  0  0  0  0  0  0  0  0  0  0
   -8.4717    9.4455   -8.2097 N   0  0  0  0  0  0  0  0  0  0  0  0
   -8.5397    9.2302   -9.5448 C   0  0  0  0  0  0  0  0  0  0  0  0
   -7.5013    5.1770  -13.0930 C   0  0  1  0  0  0  0  0  0  0  0  0
   -6.2558    5.1718  -12.4171 O   0  0  0  0  0  0  0  0  0  0  0  0
   -8.3208    4.1484  -12.4334 N   0  0  0  0  0  0  0  0  0  0  0  0
   -8.3789    4.0416  -11.0333 C   0  0  0  0  0  0  0  0  0  0  0  0
   -8.2610    5.1341  -10.1515 C   0  0  0  0  0  0  0  0  0  0  0  0
   -8.3707    5.0118   -8.7649 C   0  0  0  0  0  0  0  0  0  0  0  0
   -8.6524    3.7694   -8.2539 C   0  0  0  0  0  0  0  0  0  0  0  0
   -8.8069    2.6777   -9.0933 C   0  0  0  0  0  0  0  0  0  0  0  0
   -8.6884    2.7967  -10.4710 C   0  0  0  0  0  0  0  0  0  0  0  0
   -9.0648    1.4652   -8.2697 C   0  0  0  0  0  0  0  0  0  0  0  0
   -9.3273    1.9545   -6.8907 N   0  0  0  0  0  0  0  0  0  0  0  0
   -8.8557    3.3532   -6.8417 C   0  0  0  0  0  0  0  0  0  0  0  0
   -7.2975    4.7360  -14.6199 C   0  0  1  0  0  0  0  0  0  0  0  0
   -8.6440    4.7666  -15.4057 C   0  0  0  0  0  0  0  0  0  0  0  0
   -8.6113    4.2782  -16.8490 C   0  0  2  0  0  0  0  0  0  0  0  0
   -8.8076    2.9399  -16.9043 F   0  0  0  0  0  0  0  0  0  0  0  0
   -7.3347    4.6835  -17.4970 C   0  0  0  0  0  0  0  0  0  0  0  0
   -7.1841    4.6212  -18.8507 N   0  0  0  0  0  0  0  0  0  0  0  0
   -5.9498    5.0974  -19.1745 C   0  0  0  0  0  0  0  0  0  0  0  0
   -5.2629    5.4810  -18.0315 C   0  0  0  0  0  0  0  0  0  0  0  0
   -3.8651    6.0746  -18.1693 C   0  0  0  0  0  0  0  0  0  0  0  0
   -3.6549    7.4605  -17.5623 C   0  0  0  0  0  0  0  0  0  0  0  0
   -2.2872    8.0198  -17.9401 C   0  0  0  0  0  0  0  0  0  0  0  0
   -1.2198    7.1214  -17.4965 N   0  0  0  0  0  0  0  0  0  0  0  0
   -1.3620    5.8037  -18.1312 C   0  0  0  0  0  0  0  0  0  0  0  0
   -2.7047    5.1469  -17.7975 C   0  0  0  0  0  0  0  0  0  0  0  0
   -6.1686    5.1944  -16.9235 C   0  0  0  0  0  0  0  0  0  0  0  0
   -6.0424    5.3856  -15.3961 C   0  0  0  0  0  0  0  0  0  0  0  0
   -4.7395    4.7528  -14.8493 C   0  0  0  0  0  0  0  0  0  0  0  0
   -3.9283    5.8283  -14.2557 N   0  0  0  0  0  0  0  0  0  0  0  0
   -4.8319    6.8832  -13.9313 N   0  0  0  0  0  0  0  0  0  0  0  0
   -5.8265    6.8550  -15.0116 C   0  0  0  0  0  0  0  0  0  0  0  0
  1  2  2  0
  2  3  1  0
  3  4  1  0
  4  5  1  0
  5  6  2  0
  6  7  1  0
  7  8  2  0
  8  9  1  0
  9 10  2  0
  2 11  1  0
 11 12  1  1
 11 13  1  0
 13 14  1  0
 14 15  2  0
 15 16  1  0
 16 17  2  0
 17 18  1  0
 18 19  2  0
 18 20  1  0
 20 21  1  0
 21 22  1  0
 11 23  1  0
 23 24  1  6
 24 25  1  0
 25 26  1  1
 25 27  1  0
 27 28  1  0
 28 29  1  0
 29 30  2  0
 30 31  1  0
 31 32  1  0
 32 33  1  0
 33 34  1  0
 34 35  1  0
 35 36  1  0
 30 37  1  0
 37 38  1  0
 38 39  1  0
 39 40  1  0
 40 41  1  0
 41 42  1  0
 10  5  1  0
 19 14  1  0
 38 23  1  0
 22 17  1  0
 37 27  2  0
 42 38  1  0
 36 31  1  0
M  END
>  <smiles>  (2148) 
C32637-P254

>  <fragmenstein_outcome>  (2148) 
acceptable

>  <inchikey>  (2148) 
IRNFONUGOYHGJW-UHFFFAOYSA-N

>  <fragmenstein_mode>  (2148) 
expansion

>  <HIPPO Pose ID>  (2148) 
26229

>  <Energy>  (2148) 
155.721289

>  <fragmenstein_error>  (2148) 


>  <tags>  (2148) 
{'openbind_xx01zvns2b_c1_fragmenstein', 'fragmenstein_placed'}

>  <ref_pdb>  (2148) 
175

>  <scratch_subdir>  (2148) 
/opt/xchem-fragalysis-2/maxwin/BulkDock/SCRATCH/511028/C32637-P254

>  <alias>  (2148) 
O=C(NCc1cccnc1)[C@@](O)(Nc1ccc2c(c1)CNC2)[C@H]1C[C@H](F)c2[nH]cc(C3CCNCC3)c2C12CNNC2

>  <HIPPO Compound ID>  (2148) 
32637

>  <fragmenstein_runtime>  (2148) 
20.516717

$$$$
O=C1N=c2c(F)cc(C(=O)Nc3ccc4c(c3)CNC4)cc2=C1C1CCNCC1
     RDKit          3D

 29 33  0  0  0  0  0  0  0  0999 V2000
   -5.0486    5.0465  -20.3010 O   0  0  0  0  0  0  0  0  0  0  0  0
   -5.6722    4.9105  -19.2614 C   0  0  0  0  0  0  0  0  0  0  0  0
   -6.8745    4.2870  -19.0707 N   0  0  0  0  0  0  0  0  0  0  0  0
   -7.1317    4.4109  -17.8170 C   0  0  0  0  0  0  0  0  0  0  0  0
   -8.3232    3.9823  -17.0718 C   0  0  0  0  0  0  0  0  0  0  0  0
   -9.2697    3.3734  -17.8029 F   0  0  0  0  0  0  0  0  0  0  0  0
   -8.4380    4.2237  -15.7563 C   0  0  0  0  0  0  0  0  0  0  0  0
   -7.3786    4.9017  -15.0141 C   0  0  0  0  0  0  0  0  0  0  0  0
   -7.5469    5.3836  -13.5983 C   0  0  0  0  0  0  0  0  0  0  0  0
   -7.3242    6.4988  -13.3275 O   0  0  0  0  0  0  0  0  0  0  0  0
   -7.9941    4.2020  -12.7006 N   0  0  0  0  0  0  0  0  0  0  0  0
   -8.1623    4.1277  -11.3144 C   0  0  0  0  0  0  0  0  0  0  0  0
   -8.0110    5.2698  -10.5096 C   0  0  0  0  0  0  0  0  0  0  0  0
   -8.1624    5.1993   -9.1199 C   0  0  0  0  0  0  0  0  0  0  0  0
   -8.4761    3.9775   -8.5548 C   0  0  0  0  0  0  0  0  0  0  0  0
   -8.6325    2.8455   -9.3439 C   0  0  0  0  0  0  0  0  0  0  0  0
   -8.4771    2.8997  -10.7237 C   0  0  0  0  0  0  0  0  0  0  0  0
   -8.9464    1.6763   -8.4707 C   0  0  0  0  0  0  0  0  0  0  0  0
   -9.1647    2.2247   -7.1066 N   0  0  0  0  0  0  0  0  0  0  0  0
   -8.6909    3.6232   -7.1232 C   0  0  0  0  0  0  0  0  0  0  0  0
   -6.2453    5.3031  -15.6287 C   0  0  0  0  0  0  0  0  0  0  0  0
   -6.0943    5.0896  -17.0386 C   0  0  0  0  0  0  0  0  0  0  0  0
   -5.1789    5.4188  -17.9524 C   0  0  0  0  0  0  0  0  0  0  0  0
   -3.8816    6.1552  -17.8860 C   0  0  0  0  0  0  0  0  0  0  0  0
   -4.0213    7.5699  -17.3106 C   0  0  0  0  0  0  0  0  0  0  0  0
   -2.6620    8.2655  -17.2828 C   0  0  0  0  0  0  0  0  0  0  0  0
   -1.6853    7.4844  -16.5251 N   0  0  0  0  0  0  0  0  0  0  0  0
   -1.4963    6.1517  -17.1023 C   0  0  0  0  0  0  0  0  0  0  0  0
   -2.8067    5.3682  -17.1289 C   0  0  0  0  0  0  0  0  0  0  0  0
  1  2  2  0
  2  3  1  0
  3  4  2  0
  4  5  1  0
  5  6  1  0
  5  7  2  0
  7  8  1  0
  8  9  1  0
  9 10  2  0
  9 11  1  0
 11 12  1  0
 12 13  2  0
 13 14  1  0
 14 15  2  0
 15 16  1  0
 16 17  2  0
 16 18  1  0
 18 19  1  0
 19 20  1  0
  8 21  2  0
 21 22  1  0
 22 23  2  0
 23 24  1  0
 24 25  1  0
 25 26  1  0
 26 27  1  0
 27 28  1  0
 28 29  1  0
 23  2  1  0
 29 24  1  0
 22  4  1  0
 17 12  1  0
 20 15  1  0
M  END
>  <smiles>  (2149) 
C32635-P254

>  <fragmenstein_outcome>  (2149) 
acceptable

>  <inchikey>  (2149) 
TWCSNPOUZRFWBJ-UHFFFAOYSA-N

>  <fragmenstein_mode>  (2149) 
expansion

>  <HIPPO Pose ID>  (2149) 
26230

>  <Energy>  (2149) 
33.835246

>  <fragmenstein_error>  (2149) 


>  <tags>  (2149) 
{'openbind_xx01zvns2b_c1_fragmenstein', 'fragmenstein_placed'}

>  <ref_pdb>  (2149) 
175

>  <scratch_subdir>  (2149) 
/opt/xchem-fragalysis-2/maxwin/BulkDock/SCRATCH/511028/C32635-P254

>  <alias>  (2149) 
O=C1N=c2c(F)cc(C(=O)Nc3ccc4c(c3)CNC4)cc2=C1C1CCNCC1

>  <HIPPO Compound ID>  (2149) 
32635

>  <fragmenstein_runtime>  (2149) 
8.497848

$$$$
NNc1c(C(=O)Nc2ccc3c(c2)CNC3)cc(F)c2[nH]cc(C3CCNCC3)c12
     RDKit          3D

 30 34  0  0  0  0  0  0  0  0999 V2000
   -4.4891    4.9854  -14.0013 N   0  0  0  0  0  0  0  0  0  0  0  0
   -5.2974    5.9169  -14.7043 N   0  0  0  0  0  0  0  0  0  0  0  0
   -6.3545    5.2985  -15.4457 C   0  0  0  0  0  0  0  0  0  0  0  0
   -7.5466    4.8961  -14.7924 C   0  0  0  0  0  0  0  0  0  0  0  0
   -7.7400    5.3137  -13.3808 C   0  0  0  0  0  0  0  0  0  0  0  0
   -7.5772    6.4414  -13.1203 O   0  0  0  0  0  0  0  0  0  0  0  0
   -8.1104    4.1210  -12.4747 N   0  0  0  0  0  0  0  0  0  0  0  0
   -8.2605    4.0474  -11.0919 C   0  0  0  0  0  0  0  0  0  0  0  0
   -8.1100    5.1879  -10.2843 C   0  0  0  0  0  0  0  0  0  0  0  0
   -8.2696    5.1128   -8.8968 C   0  0  0  0  0  0  0  0  0  0  0  0
   -8.6044    3.8910   -8.3467 C   0  0  0  0  0  0  0  0  0  0  0  0
   -8.7444    2.7586   -9.1444 C   0  0  0  0  0  0  0  0  0  0  0  0
   -8.5644    2.8134  -10.5156 C   0  0  0  0  0  0  0  0  0  0  0  0
   -9.0842    1.5940   -8.2757 C   0  0  0  0  0  0  0  0  0  0  0  0
   -9.5384    2.1958   -6.9944 N   0  0  0  0  0  0  0  0  0  0  0  0
   -8.8751    3.5174   -6.9278 C   0  0  0  0  0  0  0  0  0  0  0  0
   -8.5930    4.2820  -15.4762 C   0  0  0  0  0  0  0  0  0  0  0  0
   -8.5047    4.0983  -16.8500 C   0  0  0  0  0  0  0  0  0  0  0  0
   -9.5394    3.5752  -17.5182 F   0  0  0  0  0  0  0  0  0  0  0  0
   -7.3615    4.5303  -17.5216 C   0  0  0  0  0  0  0  0  0  0  0  0
   -7.0804    4.5522  -18.8678 N   0  0  0  0  0  0  0  0  0  0  0  0
   -5.8259    5.0658  -19.0717 C   0  0  0  0  0  0  0  0  0  0  0  0
   -5.2744    5.3863  -17.8470 C   0  0  0  0  0  0  0  0  0  0  0  0
   -3.9233    5.9838  -17.5767 C   0  0  0  0  0  0  0  0  0  0  0  0
   -3.9610    7.5211  -17.6313 C   0  0  0  0  0  0  0  0  0  0  0  0
   -2.5957    8.1219  -17.9658 C   0  0  0  0  0  0  0  0  0  0  0  0
   -1.5053    7.3437  -17.3833 N   0  0  0  0  0  0  0  0  0  0  0  0
   -1.4446    5.9961  -17.9736 C   0  0  0  0  0  0  0  0  0  0  0  0
   -2.7944    5.4387  -18.4480 C   0  0  0  0  0  0  0  0  0  0  0  0
   -6.2704    5.0902  -16.8514 C   0  0  0  0  0  0  0  0  0  0  0  0
  1  2  1  0
  2  3  1  0
  3  4  2  0
  4  5  1  0
  5  6  2  0
  5  7  1  0
  7  8  1  0
  8  9  2  0
  9 10  1  0
 10 11  2  0
 11 12  1  0
 12 13  2  0
 12 14  1  0
 14 15  1  0
 15 16  1  0
  4 17  1  0
 17 18  2  0
 18 19  1  0
 18 20  1  0
 20 21  1  0
 21 22  1  0
 22 23  2  0
 23 24  1  0
 24 25  1  0
 25 26  1  0
 26 27  1  0
 27 28  1  0
 28 29  1  0
 23 30  1  0
 30  3  1  0
 13  8  1  0
 30 20  2  0
 16 11  1  0
 29 24  1  0
M  END
>  <smiles>  (2150) 
C32641-P254

>  <fragmenstein_outcome>  (2150) 
acceptable

>  <inchikey>  (2150) 
GLVMPVWQDWEMGX-UHFFFAOYSA-N

>  <fragmenstein_mode>  (2150) 
expansion

>  <HIPPO Pose ID>  (2150) 
26231

>  <Energy>  (2150) 
96.177291

>  <fragmenstein_error>  (2150) 


>  <tags>  (2150) 
{'openbind_xx01zvns2b_c1_fragmenstein', 'fragmenstein_placed'}

>  <ref_pdb>  (2150) 
175

>  <scratch_subdir>  (2150) 
/opt/xchem-fragalysis-2/maxwin/BulkDock/SCRATCH/511028/C32641-P254

>  <alias>  (2150) 
NNc1c(C(=O)Nc2ccc3c(c2)CNC3)cc(F)c2[nH]cc(C3CCNCC3)c12

>  <HIPPO Compound ID>  (2150) 
29593

>  <fragmenstein_runtime>  (2150) 
8.544595

$$$$
O=C(Nc1ccc2c(c1)CNC2)c1cc(F)c2[nH]cc([C@H]3CCN[C@H](F)C3)c2c1
     RDKit          3D

 29 33  0  0  0  0  0  0  0  0999 V2000
   -7.4605    6.4325  -13.3264 O   0  0  0  0  0  0  0  0  0  0  0  0
   -7.6848    5.3160  -13.5827 C   0  0  0  0  0  0  0  0  0  0  0  0
   -8.1141    4.1492  -12.6730 N   0  0  0  0  0  0  0  0  0  0  0  0
   -8.2615    4.0874  -11.2888 C   0  0  0  0  0  0  0  0  0  0  0  0
   -8.0950    5.2401  -10.5016 C   0  0  0  0  0  0  0  0  0  0  0  0
   -8.2163    5.1842   -9.1108 C   0  0  0  0  0  0  0  0  0  0  0  0
   -8.5156    3.9660   -8.5314 C   0  0  0  0  0  0  0  0  0  0  0  0
   -8.6830    2.8252   -9.3064 C   0  0  0  0  0  0  0  0  0  0  0  0
   -8.5564    2.8642  -10.6865 C   0  0  0  0  0  0  0  0  0  0  0  0
   -8.9647    1.6611   -8.4187 C   0  0  0  0  0  0  0  0  0  0  0  0
   -9.1704    2.2222   -7.0580 N   0  0  0  0  0  0  0  0  0  0  0  0
   -8.6976    3.6213   -7.0939 C   0  0  0  0  0  0  0  0  0  0  0  0
   -7.4923    4.8909  -14.9891 C   0  0  0  0  0  0  0  0  0  0  0  0
   -8.5178    4.3228  -15.7391 C   0  0  0  0  0  0  0  0  0  0  0  0
   -8.3732    4.2020  -17.1225 C   0  0  0  0  0  0  0  0  0  0  0  0
   -9.3939    3.7321  -17.8542 F   0  0  0  0  0  0  0  0  0  0  0  0
   -7.2012    4.6771  -17.7275 C   0  0  0  0  0  0  0  0  0  0  0  0
   -6.8498    4.8008  -19.0510 N   0  0  0  0  0  0  0  0  0  0  0  0
   -5.5874    5.3457  -19.1508 C   0  0  0  0  0  0  0  0  0  0  0  0
   -5.1032    5.5984  -17.8808 C   0  0  0  0  0  0  0  0  0  0  0  0
   -3.7491    6.1447  -17.4684 C   0  0  1  0  0  0  0  0  0  0  0  0
   -2.6591    5.0715  -17.6326 C   0  0  0  0  0  0  0  0  0  0  0  0
   -1.3178    5.6435  -18.0776 C   0  0  0  0  0  0  0  0  0  0  0  0
   -0.9995    6.8786  -17.3792 N   0  0  0  0  0  0  0  0  0  0  0  0
   -1.9371    7.9317  -17.7135 C   0  0  2  0  0  0  0  0  0  0  0  0
   -2.0093    8.7084  -16.6004 F   0  0  0  0  0  0  0  0  0  0  0  0
   -3.3492    7.4660  -18.1388 C   0  0  0  0  0  0  0  0  0  0  0  0
   -6.1419    5.1952  -16.9812 C   0  0  0  0  0  0  0  0  0  0  0  0
   -6.2850    5.2783  -15.5858 C   0  0  0  0  0  0  0  0  0  0  0  0
  1  2  2  0
  2  3  1  0
  3  4  1  0
  4  5  2  0
  5  6  1  0
  6  7  2  0
  7  8  1  0
  8  9  2  0
  8 10  1  0
 10 11  1  0
 11 12  1  0
  2 13  1  0
 13 14  2  0
 14 15  1  0
 15 16  1  0
 15 17  2  0
 17 18  1  0
 18 19  1  0
 19 20  2  0
 21 20  1  6
 21 22  1  0
 22 23  1  0
 23 24  1  0
 24 25  1  0
 25 26  1  1
 25 27  1  0
 20 28  1  0
 28 29  2  0
  9  4  1  0
 29 13  1  0
 12  7  1  0
 28 17  1  0
 27 21  1  0
M  END
>  <smiles>  (2151) 
C32644-P254

>  <fragmenstein_outcome>  (2151) 
acceptable

>  <inchikey>  (2151) 
LMIKIEDASYHWKV-UHFFFAOYSA-N

>  <fragmenstein_mode>  (2151) 
expansion

>  <HIPPO Pose ID>  (2151) 
26233

>  <Energy>  (2151) 
21.721083

>  <fragmenstein_error>  (2151) 


>  <tags>  (2151) 
{'openbind_xx01zvns2b_c1_fragmenstein', 'fragmenstein_placed'}

>  <ref_pdb>  (2151) 
175

>  <scratch_subdir>  (2151) 
/opt/xchem-fragalysis-2/maxwin/BulkDock/SCRATCH/511028/C32644-P254

>  <alias>  (2151) 
O=C(Nc1ccc2c(c1)CNC2)c1cc(F)c2[nH]cc([C@H]3CCN[C@H](F)C3)c2c1

>  <HIPPO Compound ID>  (2151) 
23574

>  <fragmenstein_runtime>  (2151) 
6.485725

$$$$
Cc1[nH]c2c(F)cc(C(=O)Nc3ccc4c(c3)CNC4)cc2c1C1CCNCC1
     RDKit          3D

 29 33  0  0  0  0  0  0  0  0999 V2000
   -5.2433    5.1721  -20.6220 C   0  0  0  0  0  0  0  0  0  0  0  0
   -5.7556    5.1005  -19.2296 C   0  0  0  0  0  0  0  0  0  0  0  0
   -7.0220    4.6430  -18.9625 N   0  0  0  0  0  0  0  0  0  0  0  0
   -7.2408    4.6334  -17.6081 C   0  0  0  0  0  0  0  0  0  0  0  0
   -8.3844    4.2900  -16.8882 C   0  0  0  0  0  0  0  0  0  0  0  0
   -9.5108    3.9740  -17.5341 F   0  0  0  0  0  0  0  0  0  0  0  0
   -8.3900    4.4238  -15.5037 C   0  0  0  0  0  0  0  0  0  0  0  0
   -7.2571    4.9153  -14.8591 C   0  0  0  0  0  0  0  0  0  0  0  0
   -7.2937    5.2806  -13.4165 C   0  0  0  0  0  0  0  0  0  0  0  0
   -6.8813    6.3308  -13.1133 O   0  0  0  0  0  0  0  0  0  0  0  0
   -7.9384    4.1704  -12.5553 N   0  0  0  0  0  0  0  0  0  0  0  0
   -8.1179    4.0841  -11.1750 C   0  0  0  0  0  0  0  0  0  0  0  0
   -7.9105    5.2038  -10.3512 C   0  0  0  0  0  0  0  0  0  0  0  0
   -8.1140    5.1291   -8.9691 C   0  0  0  0  0  0  0  0  0  0  0  0
   -8.5236    3.9227   -8.4357 C   0  0  0  0  0  0  0  0  0  0  0  0
   -8.7098    2.8062   -9.2460 C   0  0  0  0  0  0  0  0  0  0  0  0
   -8.5202    2.8683  -10.6172 C   0  0  0  0  0  0  0  0  0  0  0  0
   -9.0895    1.6463   -8.3863 C   0  0  0  0  0  0  0  0  0  0  0  0
   -9.5278    2.2502   -7.1006 N   0  0  0  0  0  0  0  0  0  0  0  0
   -8.8259    3.5514   -7.0221 C   0  0  0  0  0  0  0  0  0  0  0  0
   -6.1031    5.2580  -15.5874 C   0  0  0  0  0  0  0  0  0  0  0  0
   -6.0927    5.1255  -16.9920 C   0  0  0  0  0  0  0  0  0  0  0  0
   -5.1661    5.4692  -18.0311 C   0  0  0  0  0  0  0  0  0  0  0  0
   -3.8302    6.1507  -17.9092 C   0  0  0  0  0  0  0  0  0  0  0  0
   -3.9532    7.5640  -17.3240 C   0  0  0  0  0  0  0  0  0  0  0  0
   -2.5835    8.2311  -17.2544 C   0  0  0  0  0  0  0  0  0  0  0  0
   -1.6273    7.4284  -16.4912 N   0  0  0  0  0  0  0  0  0  0  0  0
   -1.4663    6.0963  -17.0811 C   0  0  0  0  0  0  0  0  0  0  0  0
   -2.7886    5.3327  -17.1437 C   0  0  0  0  0  0  0  0  0  0  0  0
  1  2  1  0
  2  3  1  0
  3  4  1  0
  4  5  2  0
  5  6  1  0
  5  7  1  0
  7  8  2  0
  8  9  1  0
  9 10  2  0
  9 11  1  0
 11 12  1  0
 12 13  2  0
 13 14  1  0
 14 15  2  0
 15 16  1  0
 16 17  2  0
 16 18  1  0
 18 19  1  0
 19 20  1  0
  8 21  1  0
 21 22  2  0
 22 23  1  0
 23 24  1  0
 24 25  1  0
 25 26  1  0
 26 27  1  0
 27 28  1  0
 28 29  1  0
 23  2  2  0
 29 24  1  0
 22  4  1  0
 17 12  1  0
 20 15  1  0
M  END
>  <smiles>  (2152) 
C32645-P254

>  <fragmenstein_outcome>  (2152) 
acceptable

>  <inchikey>  (2152) 
KTTIQFVXXBBECZ-UHFFFAOYSA-N

>  <fragmenstein_mode>  (2152) 
expansion

>  <HIPPO Pose ID>  (2152) 
26234

>  <Energy>  (2152) 
35.487284

>  <fragmenstein_error>  (2152) 


>  <tags>  (2152) 
{'openbind_xx01zvns2b_c1_fragmenstein', 'fragmenstein_placed'}

>  <ref_pdb>  (2152) 
175

>  <scratch_subdir>  (2152) 
/opt/xchem-fragalysis-2/maxwin/BulkDock/SCRATCH/511028/C32645-P254

>  <alias>  (2152) 
Cc1[nH]c2c(F)cc(C(=O)Nc3ccc4c(c3)CNC4)cc2c1C1CCNCC1

>  <HIPPO Compound ID>  (2152) 
41463

>  <fragmenstein_runtime>  (2152) 
7.952549

$$$$
O=C(Nc1ccc2c(c1)CNC2)c1cc2cnn3cc(C4CCNCC4)c(c1)c23
     RDKit          3D

 29 34  0  0  0  0  0  0  0  0999 V2000
   -7.2289    6.4668  -12.6911 O   0  0  0  0  0  0  0  0  0  0  0  0
   -7.5062    5.3787  -13.0065 C   0  0  0  0  0  0  0  0  0  0  0  0
   -8.0195    4.1951  -12.1650 N   0  0  0  0  0  0  0  0  0  0  0  0
   -8.2032    4.0758  -10.7948 C   0  0  0  0  0  0  0  0  0  0  0  0
   -8.0450    5.1824   -9.9447 C   0  0  0  0  0  0  0  0  0  0  0  0
   -8.2587    5.0616   -8.5700 C   0  0  0  0  0  0  0  0  0  0  0  0
   -8.6444    3.8292   -8.0809 C   0  0  0  0  0  0  0  0  0  0  0  0
   -8.7858    2.7302   -8.9246 C   0  0  0  0  0  0  0  0  0  0  0  0
   -8.5659    2.8303  -10.2839 C   0  0  0  0  0  0  0  0  0  0  0  0
   -9.1635    1.5409   -8.1102 C   0  0  0  0  0  0  0  0  0  0  0  0
   -9.6635    2.1063   -6.8319 N   0  0  0  0  0  0  0  0  0  0  0  0
   -8.9697    3.4070   -6.6872 C   0  0  0  0  0  0  0  0  0  0  0  0
   -7.4002    5.0002  -14.4351 C   0  0  0  0  0  0  0  0  0  0  0  0
   -8.5334    4.3956  -15.0814 C   0  0  0  0  0  0  0  0  0  0  0  0
   -8.4227    4.2059  -16.4567 C   0  0  0  0  0  0  0  0  0  0  0  0
   -9.0823    3.8041  -17.6531 C   0  0  0  0  0  0  0  0  0  0  0  0
   -8.3033    3.9337  -18.7700 N   0  0  0  0  0  0  0  0  0  0  0  0
   -7.2050    4.4373  -18.2640 N   0  0  0  0  0  0  0  0  0  0  0  0
   -6.0829    4.9371  -18.7699 C   0  0  0  0  0  0  0  0  0  0  0  0
   -5.3458    5.4123  -17.6448 C   0  0  0  0  0  0  0  0  0  0  0  0
   -4.0126    6.0944  -17.5772 C   0  0  0  0  0  0  0  0  0  0  0  0
   -3.8787    7.3019  -18.4964 C   0  0  0  0  0  0  0  0  0  0  0  0
   -2.5828    8.0589  -18.1744 C   0  0  0  0  0  0  0  0  0  0  0  0
   -1.5217    7.2196  -17.6067 N   0  0  0  0  0  0  0  0  0  0  0  0
   -1.5511    5.8652  -18.1562 C   0  0  0  0  0  0  0  0  0  0  0  0
   -2.8335    5.1322  -17.7570 C   0  0  0  0  0  0  0  0  0  0  0  0
   -6.1454    5.1745  -16.4706 C   0  0  0  0  0  0  0  0  0  0  0  0
   -6.1907    5.3879  -15.0952 C   0  0  0  0  0  0  0  0  0  0  0  0
   -7.2478    4.6019  -16.9782 C   0  0  0  0  0  0  0  0  0  0  0  0
  1  2  2  0
  2  3  1  0
  3  4  1  0
  4  5  2  0
  5  6  1  0
  6  7  2  0
  7  8  1  0
  8  9  2  0
  8 10  1  0
 10 11  1  0
 11 12  1  0
  2 13  1  0
 13 14  2  0
 14 15  1  0
 15 16  1  0
 16 17  2  0
 17 18  1  0
 18 19  1  0
 19 20  2  0
 20 21  1  0
 21 22  1  0
 22 23  1  0
 23 24  1  0
 24 25  1  0
 25 26  1  0
 20 27  1  0
 27 28  2  0
 27 29  1  0
  9  4  1  0
 28 13  1  0
 12  7  1  0
 29 15  2  0
 29 18  1  0
 26 21  1  0
M  END
>  <smiles>  (2153) 
C18126-P254

>  <fragmenstein_outcome>  (2153) 
acceptable

>  <inchikey>  (2153) 
PTCVQDUZPDFKCY-UHFFFAOYSA-N

>  <fragmenstein_mode>  (2153) 
expansion

>  <HIPPO Pose ID>  (2153) 
26237

>  <Energy>  (2153) 
74.611218

>  <fragmenstein_error>  (2153) 


>  <tags>  (2153) 
{'openbind_xx01zvns2b_c1_fragmenstein', 'fragmenstein_placed'}

>  <ref_pdb>  (2153) 
175

>  <scratch_subdir>  (2153) 
/opt/xchem-fragalysis-2/maxwin/BulkDock/SCRATCH/511028/C18126-P254

>  <alias>  (2153) 
O=C(Nc1ccc2c(c1)CNC2)c1cc2cnn3cc(C4CCNCC4)c(c1)c23

>  <HIPPO Compound ID>  (2153) 
35494

>  <fragmenstein_runtime>  (2153) 
7.782093

$$$$
O=C(Nc1ccc2c(c1)CNC2)[C@@H]1C[C@H](F)c2[nH]cc(C3CCNCC3)c2[C@]12CCNC2
     RDKit          3D

 32 37  0  0  0  0  0  0  0  0999 V2000
   -8.0463    6.7422  -12.6391 O   0  0  0  0  0  0  0  0  0  0  0  0
   -7.9332    5.6291  -12.9789 C   0  0  0  0  0  0  0  0  0  0  0  0
   -7.9058    4.3247  -12.1470 N   0  0  0  0  0  0  0  0  0  0  0  0
   -8.0991    4.1179  -10.7882 C   0  0  0  0  0  0  0  0  0  0  0  0
   -8.0543    5.2125   -9.9052 C   0  0  0  0  0  0  0  0  0  0  0  0
   -8.3021    5.0470   -8.5430 C   0  0  0  0  0  0  0  0  0  0  0  0
   -8.6361    3.7844   -8.1007 C   0  0  0  0  0  0  0  0  0  0  0  0
   -8.6812    2.7006   -8.9761 C   0  0  0  0  0  0  0  0  0  0  0  0
   -8.3856    2.8382  -10.3207 C   0  0  0  0  0  0  0  0  0  0  0  0
   -9.0758    1.4830   -8.2107 C   0  0  0  0  0  0  0  0  0  0  0  0
   -9.6419    2.0000   -6.9362 N   0  0  0  0  0  0  0  0  0  0  0  0
   -8.9971    3.3155   -6.7316 C   0  0  0  0  0  0  0  0  0  0  0  0
   -7.7584    5.3185  -14.4772 C   0  0  2  0  0  0  0  0  0  0  0  0
   -8.4612    4.0697  -15.0163 C   0  0  0  0  0  0  0  0  0  0  0  0
   -8.6948    4.2009  -16.5176 C   0  0  2  0  0  0  0  0  0  0  0  0
   -9.1232    3.0239  -17.0416 F   0  0  0  0  0  0  0  0  0  0  0  0
   -7.4455    4.6796  -17.1761 C   0  0  0  0  0  0  0  0  0  0  0  0
   -7.2791    4.5853  -18.5248 N   0  0  0  0  0  0  0  0  0  0  0  0
   -6.0660    5.1097  -18.8460 C   0  0  0  0  0  0  0  0  0  0  0  0
   -5.4108    5.5554  -17.7022 C   0  0  0  0  0  0  0  0  0  0  0  0
   -4.0067    6.1245  -17.8444 C   0  0  0  0  0  0  0  0  0  0  0  0
   -3.7344    7.4984  -17.2443 C   0  0  0  0  0  0  0  0  0  0  0  0
   -2.3627    8.0098  -17.6754 C   0  0  0  0  0  0  0  0  0  0  0  0
   -1.3110    7.0861  -17.2440 N   0  0  0  0  0  0  0  0  0  0  0  0
   -1.5210    5.7523  -17.8192 C   0  0  0  0  0  0  0  0  0  0  0  0
   -2.8862    5.1569  -17.4548 C   0  0  0  0  0  0  0  0  0  0  0  0
   -6.3354    5.3129  -16.6010 C   0  0  0  0  0  0  0  0  0  0  0  0
   -6.3066    5.5862  -15.0639 C   0  0  2  0  0  0  0  0  0  0  0  0
   -5.2292    4.7457  -14.3659 C   0  0  0  0  0  0  0  0  0  0  0  0
   -4.2981    5.7120  -13.6510 C   0  0  0  0  0  0  0  0  0  0  0  0
   -5.0351    6.9574  -13.4927 N   0  0  0  0  0  0  0  0  0  0  0  0
   -5.9118    7.0301  -14.6669 C   0  0  0  0  0  0  0  0  0  0  0  0
  1  2  2  0
  2  3  1  0
  3  4  1  0
  4  5  2  0
  5  6  1  0
  6  7  2  0
  7  8  1  0
  8  9  2  0
  8 10  1  0
 10 11  1  0
 11 12  1  0
 13  2  1  1
 13 14  1  0
 14 15  1  0
 15 16  1  6
 15 17  1  0
 17 18  1  0
 18 19  1  0
 19 20  2  0
 20 21  1  0
 21 22  1  0
 22 23  1  0
 23 24  1  0
 24 25  1  0
 25 26  1  0
 20 27  1  0
 27 28  1  0
 28 29  1  1
 29 30  1  0
 30 31  1  0
 31 32  1  0
  9  4  1  0
 28 13  1  0
 12  7  1  0
 27 17  2  0
 32 28  1  0
 26 21  1  0
M  END
>  <smiles>  (2154) 
C32650-P254

>  <fragmenstein_outcome>  (2154) 
acceptable

>  <inchikey>  (2154) 
PVIXYGGUGJKUNO-UHFFFAOYSA-N

>  <fragmenstein_mode>  (2154) 
expansion

>  <HIPPO Pose ID>  (2154) 
26239

>  <Energy>  (2154) 
65.059928

>  <fragmenstein_error>  (2154) 


>  <tags>  (2154) 
{'openbind_xx01zvns2b_c1_fragmenstein', 'fragmenstein_placed'}

>  <ref_pdb>  (2154) 
175

>  <scratch_subdir>  (2154) 
/opt/xchem-fragalysis-2/maxwin/BulkDock/SCRATCH/511028/C32650-P254

>  <alias>  (2154) 
O=C(Nc1ccc2c(c1)CNC2)[C@@H]1C[C@H](F)c2[nH]cc(C3CCNCC3)c2[C@]12CCNC2

>  <HIPPO Compound ID>  (2154) 
32650

>  <fragmenstein_runtime>  (2154) 
10.610351

$$$$
CC(C)N1CCC(c2c[nH]c3c(F)cc(C(=O)Nc4ccc5c(c4)CNC5)cc23)CC1
     RDKit          3D

 31 35  0  0  0  0  0  0  0  0999 V2000
   -0.3428    9.2783  -16.0785 C   0  0  0  0  0  0  0  0  0  0  0  0
   -0.3322    8.0147  -16.9475 C   0  0  0  0  0  0  0  0  0  0  0  0
    0.2806    8.3372  -18.3169 C   0  0  0  0  0  0  0  0  0  0  0  0
   -1.6680    7.3802  -16.9755 N   0  0  0  0  0  0  0  0  0  0  0  0
   -2.6939    8.1562  -17.6840 C   0  0  0  0  0  0  0  0  0  0  0  0
   -4.0712    7.4964  -17.5813 C   0  0  0  0  0  0  0  0  0  0  0  0
   -4.0086    6.0669  -18.1206 C   0  0  0  0  0  0  0  0  0  0  0  0
   -5.3488    5.3916  -18.1625 C   0  0  0  0  0  0  0  0  0  0  0  0
   -5.9670    4.9913  -19.3305 C   0  0  0  0  0  0  0  0  0  0  0  0
   -7.1886    4.4570  -19.0288 N   0  0  0  0  0  0  0  0  0  0  0  0
   -7.3774    4.4769  -17.6707 C   0  0  0  0  0  0  0  0  0  0  0  0
   -8.4706    4.0552  -16.9165 C   0  0  0  0  0  0  0  0  0  0  0  0
   -9.5359    3.5088  -17.5145 F   0  0  0  0  0  0  0  0  0  0  0  0
   -8.4665    4.2615  -15.5410 C   0  0  0  0  0  0  0  0  0  0  0  0
   -7.3634    4.8612  -14.9348 C   0  0  0  0  0  0  0  0  0  0  0  0
   -7.4020    5.2631  -13.4996 C   0  0  0  0  0  0  0  0  0  0  0  0
   -7.0384    6.3406  -13.2302 O   0  0  0  0  0  0  0  0  0  0  0  0
   -7.9809    4.1454  -12.5993 N   0  0  0  0  0  0  0  0  0  0  0  0
   -8.1391    4.0883  -11.2136 C   0  0  0  0  0  0  0  0  0  0  0  0
   -7.9310    5.2247  -10.4152 C   0  0  0  0  0  0  0  0  0  0  0  0
   -8.0916    5.1670   -9.0262 C   0  0  0  0  0  0  0  0  0  0  0  0
   -8.4586    3.9613   -8.4574 C   0  0  0  0  0  0  0  0  0  0  0  0
   -8.6615    2.8336   -9.2425 C   0  0  0  0  0  0  0  0  0  0  0  0
   -8.5130    2.8785  -10.6215 C   0  0  0  0  0  0  0  0  0  0  0  0
   -9.0001    1.6757   -8.3650 C   0  0  0  0  0  0  0  0  0  0  0  0
   -9.2176    2.2393   -7.0072 N   0  0  0  0  0  0  0  0  0  0  0  0
   -8.6839    3.6171   -7.0250 C   0  0  0  0  0  0  0  0  0  0  0  0
   -6.2415    5.2444  -15.6951 C   0  0  0  0  0  0  0  0  0  0  0  0
   -6.2481    5.0625  -17.0949 C   0  0  0  0  0  0  0  0  0  0  0  0
   -2.9397    5.2760  -17.3700 C   0  0  0  0  0  0  0  0  0  0  0  0
   -1.5936    5.9951  -17.4714 C   0  0  0  0  0  0  0  0  0  0  0  0
  1  2  1  0
  2  3  1  0
  2  4  1  0
  4  5  1  0
  5  6  1  0
  6  7  1  0
  7  8  1  0
  8  9  2  0
  9 10  1  0
 10 11  1  0
 11 12  2  0
 12 13  1  0
 12 14  1  0
 14 15  2  0
 15 16  1  0
 16 17  2  0
 16 18  1  0
 18 19  1  0
 19 20  2  0
 20 21  1  0
 21 22  2  0
 22 23  1  0
 23 24  2  0
 23 25  1  0
 25 26  1  0
 26 27  1  0
 15 28  1  0
 28 29  2  0
  7 30  1  0
 30 31  1  0
 31  4  1  0
 29  8  1  0
 29 11  1  0
 24 19  1  0
 27 22  1  0
M  END
>  <smiles>  (2155) 
C18143-P254

>  <fragmenstein_outcome>  (2155) 
acceptable

>  <inchikey>  (2155) 
PHNGUFDOVRDQLN-UHFFFAOYSA-N

>  <fragmenstein_mode>  (2155) 
expansion

>  <HIPPO Pose ID>  (2155) 
26247

>  <Energy>  (2155) 
40.196683

>  <fragmenstein_error>  (2155) 


>  <tags>  (2155) 
{'openbind_xx01zvns2b_c1_fragmenstein', 'fragmenstein_placed'}

>  <ref_pdb>  (2155) 
175

>  <scratch_subdir>  (2155) 
/opt/xchem-fragalysis-2/maxwin/BulkDock/SCRATCH/511028/C18143-P254

>  <alias>  (2155) 
CC(C)N1CCC(c2c[nH]c3c(F)cc(C(=O)Nc4ccc5c(c4)CNC5)cc23)CC1

>  <HIPPO Compound ID>  (2155) 
18143

>  <fragmenstein_runtime>  (2155) 
9.236637

$$$$
F[C@H]1C[C@@]2(Cc3c(C4CCNCC4)c[nH]c31)N=C2Nc1ccc2c(c1)CNC2
     RDKit          3D

 28 33  0  0  0  0  0  0  0  0999 V2000
   -9.0028    2.7970  -17.0725 F   0  0  0  0  0  0  0  0  0  0  0  0
   -8.8394    4.1459  -17.0640 C   0  0  1  0  0  0  0  0  0  0  0  0
   -9.0115    4.6552  -15.6260 C   0  0  0  0  0  0  0  0  0  0  0  0
   -7.7750    4.8689  -14.7573 C   0  0  1  0  0  0  0  0  0  0  0  0
   -6.4081    4.9731  -15.4055 C   0  0  0  0  0  0  0  0  0  0  0  0
   -6.4219    4.9342  -16.8908 C   0  0  0  0  0  0  0  0  0  0  0  0
   -5.4094    5.3366  -17.8074 C   0  0  0  0  0  0  0  0  0  0  0  0
   -4.0708    5.9148  -17.4361 C   0  0  0  0  0  0  0  0  0  0  0  0
   -4.0862    7.4545  -17.5154 C   0  0  0  0  0  0  0  0  0  0  0  0
   -2.7303    8.0403  -17.9071 C   0  0  0  0  0  0  0  0  0  0  0  0
   -1.6448    7.3094  -17.2704 N   0  0  0  0  0  0  0  0  0  0  0  0
   -1.5735    5.9174  -17.7321 C   0  0  0  0  0  0  0  0  0  0  0  0
   -2.9018    5.3397  -18.2324 C   0  0  0  0  0  0  0  0  0  0  0  0
   -5.9386    5.1364  -19.0684 C   0  0  0  0  0  0  0  0  0  0  0  0
   -7.2175    4.6408  -18.9470 N   0  0  0  0  0  0  0  0  0  0  0  0
   -7.5227    4.5398  -17.6180 C   0  0  0  0  0  0  0  0  0  0  0  0
   -7.9433    6.0014  -13.6082 N   0  0  0  0  0  0  0  0  0  0  0  0
   -7.9339    4.7856  -13.3478 C   0  0  0  0  0  0  0  0  0  0  0  0
   -8.0211    3.7516  -12.5199 N   0  0  0  0  0  0  0  0  0  0  0  0
   -8.2243    3.8441  -11.1323 C   0  0  0  0  0  0  0  0  0  0  0  0
   -8.0335    5.0408  -10.4099 C   0  0  0  0  0  0  0  0  0  0  0  0
   -8.2094    5.0942   -9.0207 C   0  0  0  0  0  0  0  0  0  0  0  0
   -8.5835    3.9372   -8.3659 C   0  0  0  0  0  0  0  0  0  0  0  0
   -8.7521    2.7470   -9.0617 C   0  0  0  0  0  0  0  0  0  0  0  0
   -8.5640    2.6818  -10.4294 C   0  0  0  0  0  0  0  0  0  0  0  0
   -9.1176    1.6635   -8.1049 C   0  0  0  0  0  0  0  0  0  0  0  0
   -9.5477    2.3777   -6.8743 N   0  0  0  0  0  0  0  0  0  0  0  0
   -8.8577    3.6878   -6.9212 C   0  0  0  0  0  0  0  0  0  0  0  0
  2  1  1  1
  2  3  1  0
  4  3  1  6
  4  5  1  0
  5  6  1  0
  6  7  1  0
  7  8  1  0
  8  9  1  0
  9 10  1  0
 10 11  1  0
 11 12  1  0
 12 13  1  0
  7 14  2  0
 14 15  1  0
 15 16  1  0
  4 17  1  0
 17 18  2  0
 18 19  1  0
 19 20  1  0
 20 21  2  0
 21 22  1  0
 22 23  2  0
 23 24  1  0
 24 25  2  0
 24 26  1  0
 26 27  1  0
 27 28  1  0
 16  2  1  0
 25 20  1  0
 18  4  1  0
 28 23  1  0
 16  6  2  0
 13  8  1  0
M  END
>  <smiles>  (2156) 
C32659-P254

>  <fragmenstein_outcome>  (2156) 
acceptable

>  <inchikey>  (2156) 
GDEXQLOLTGBEJQ-UHFFFAOYSA-N

>  <fragmenstein_mode>  (2156) 
expansion

>  <HIPPO Pose ID>  (2156) 
26248

>  <Energy>  (2156) 
50.783193

>  <fragmenstein_error>  (2156) 


>  <tags>  (2156) 
{'openbind_xx01zvns2b_c1_fragmenstein', 'fragmenstein_placed'}

>  <ref_pdb>  (2156) 
175

>  <scratch_subdir>  (2156) 
/opt/xchem-fragalysis-2/maxwin/BulkDock/SCRATCH/511028/C32659-P254

>  <alias>  (2156) 
F[C@H]1C[C@@]2(Cc3c(C4CCNCC4)c[nH]c31)N=C2Nc1ccc2c(c1)CNC2

>  <HIPPO Compound ID>  (2156) 
32659

>  <fragmenstein_runtime>  (2156) 
6.977534

$$$$
O=C(NCC(F)F)[C@](O)(Nc1ccc2c(c1)CNC2)c1cc(F)c2[nH]cc3c2c1C[C@@H]1CNCC[C@H]31
     RDKit          3D

 36 41  0  0  0  0  0  0  0  0999 V2000
   -5.0724    5.8602  -12.1756 O   0  0  0  0  0  0  0  0  0  0  0  0
   -5.6207    4.8981  -12.5631 C   0  0  0  0  0  0  0  0  0  0  0  0
   -5.2560    3.3943  -12.3977 N   0  0  0  0  0  0  0  0  0  0  0  0
   -4.1965    2.7622  -11.6425 C   0  0  0  0  0  0  0  0  0  0  0  0
   -4.6264    2.3084  -10.2478 C   0  0  0  0  0  0  0  0  0  0  0  0
   -5.3498    1.1659  -10.3459 F   0  0  0  0  0  0  0  0  0  0  0  0
   -3.5178    1.9976   -9.5185 F   0  0  0  0  0  0  0  0  0  0  0  0
   -7.0350    5.0225  -13.3171 C   0  0  2  0  0  0  0  0  0  0  0  0
   -7.4900    6.3742  -13.2462 O   0  0  0  0  0  0  0  0  0  0  0  0
   -8.0282    4.1661  -12.6340 N   0  0  0  0  0  0  0  0  0  0  0  0
   -8.1664    4.1228  -11.2419 C   0  0  0  0  0  0  0  0  0  0  0  0
   -8.0221    5.2538  -10.4151 C   0  0  0  0  0  0  0  0  0  0  0  0
   -8.1610    5.1799   -9.0220 C   0  0  0  0  0  0  0  0  0  0  0  0
   -8.4754    3.9609   -8.4573 C   0  0  0  0  0  0  0  0  0  0  0  0
   -8.6540    2.8406   -9.2519 C   0  0  0  0  0  0  0  0  0  0  0  0
   -8.5164    2.9064  -10.6322 C   0  0  0  0  0  0  0  0  0  0  0  0
   -8.9707    1.6652   -8.3897 C   0  0  0  0  0  0  0  0  0  0  0  0
   -9.1861    2.2077   -7.0216 N   0  0  0  0  0  0  0  0  0  0  0  0
   -8.6891    3.5984   -7.0283 C   0  0  0  0  0  0  0  0  0  0  0  0
   -7.0158    4.7482  -14.8400 C   0  0  0  0  0  0  0  0  0  0  0  0
   -8.2374    4.3067  -15.4407 C   0  0  0  0  0  0  0  0  0  0  0  0
   -8.4097    4.1492  -16.8195 C   0  0  0  0  0  0  0  0  0  0  0  0
   -9.5814    3.7365  -17.3216 F   0  0  0  0  0  0  0  0  0  0  0  0
   -7.3544    4.5145  -17.6363 C   0  0  0  0  0  0  0  0  0  0  0  0
   -7.2163    4.5685  -19.0042 N   0  0  0  0  0  0  0  0  0  0  0  0
   -5.9744    5.0740  -19.3300 C   0  0  0  0  0  0  0  0  0  0  0  0
   -5.3150    5.3528  -18.1598 C   0  0  0  0  0  0  0  0  0  0  0  0
   -6.1661    4.9697  -17.0978 C   0  0  0  0  0  0  0  0  0  0  0  0
   -5.9277    5.0658  -15.7102 C   0  0  0  0  0  0  0  0  0  0  0  0
   -4.5530    5.6066  -15.3393 C   0  0  0  0  0  0  0  0  0  0  0  0
   -3.4728    5.5104  -16.4907 C   0  0  2  0  0  0  0  0  0  0  0  0
   -2.1665    6.2618  -16.1538 C   0  0  0  0  0  0  0  0  0  0  0  0
   -2.2820    7.7163  -16.2495 N   0  0  0  0  0  0  0  0  0  0  0  0
   -2.7146    8.1210  -17.5857 C   0  0  0  0  0  0  0  0  0  0  0  0
   -4.0525    7.4964  -17.9636 C   0  0  0  0  0  0  0  0  0  0  0  0
   -3.9837    5.9651  -17.8886 C   0  0  2  0  0  0  0  0  0  0  0  0
  1  2  2  0
  2  3  1  0
  3  4  1  0
  4  5  1  0
  5  6  1  0
  5  7  1  0
  2  8  1  0
  8  9  1  6
  8 10  1  0
 10 11  1  0
 11 12  2  0
 12 13  1  0
 13 14  2  0
 14 15  1  0
 15 16  2  0
 15 17  1  0
 17 18  1  0
 18 19  1  0
  8 20  1  0
 20 21  2  0
 21 22  1  0
 22 23  1  0
 22 24  2  0
 24 25  1  0
 25 26  1  0
 26 27  2  0
 27 28  1  0
 28 29  2  0
 29 30  1  0
 31 30  1  1
 31 32  1  0
 32 33  1  0
 33 34  1  0
 34 35  1  0
 36 35  1  1
 16 11  1  0
 29 20  1  0
 36 31  1  0
 19 14  1  0
 28 24  1  0
 36 27  1  0
M  END
>  <smiles>  (2157) 
C32660-P254

>  <fragmenstein_outcome>  (2157) 
acceptable

>  <inchikey>  (2157) 
KAWGZIGQAJWGMQ-UHFFFAOYSA-N

>  <fragmenstein_mode>  (2157) 
expansion

>  <HIPPO Pose ID>  (2157) 
26249

>  <Energy>  (2157) 
130.902956

>  <fragmenstein_error>  (2157) 


>  <tags>  (2157) 
{'openbind_xx01zvns2b_c1_fragmenstein', 'fragmenstein_placed'}

>  <ref_pdb>  (2157) 
175

>  <scratch_subdir>  (2157) 
/opt/xchem-fragalysis-2/maxwin/BulkDock/SCRATCH/511028/C32660-P254

>  <alias>  (2157) 
O=C(NCC(F)F)[C@](O)(Nc1ccc2c(c1)CNC2)c1cc(F)c2[nH]cc3c2c1C[C@@H]1CNCC[C@H]31

>  <HIPPO Compound ID>  (2157) 
39824

>  <fragmenstein_runtime>  (2157) 
9.53992

$$$$
CC(C)c1c([C@](O)(Nc2ccc3c(c2)CNC3)C(=O)NCC(F)F)cc(F)c2[nH]cc(C3CCNCC3)c12
     RDKit          3D

 38 42  0  0  0  0  0  0  0  0999 V2000
   -3.4934    4.8093  -14.9429 C   0  0  0  0  0  0  0  0  0  0  0  0
   -4.8200    5.4951  -14.5731 C   0  0  0  0  0  0  0  0  0  0  0  0
   -4.6760    7.0136  -14.4020 C   0  0  0  0  0  0  0  0  0  0  0  0
   -6.0710    5.1208  -15.3897 C   0  0  0  0  0  0  0  0  0  0  0  0
   -7.3142    4.8273  -14.7005 C   0  0  0  0  0  0  0  0  0  0  0  0
   -7.6513    5.2182  -13.2237 C   0  0  2  0  0  0  0  0  0  0  0  0
   -6.5434    5.7277  -12.5094 O   0  0  0  0  0  0  0  0  0  0  0  0
   -8.0921    4.0585  -12.4459 N   0  0  0  0  0  0  0  0  0  0  0  0
   -8.3571    4.0377  -11.0715 C   0  0  0  0  0  0  0  0  0  0  0  0
   -8.1995    5.1442  -10.2088 C   0  0  0  0  0  0  0  0  0  0  0  0
   -8.3393    5.0443   -8.8182 C   0  0  0  0  0  0  0  0  0  0  0  0
   -8.6436    3.8139   -8.2814 C   0  0  0  0  0  0  0  0  0  0  0  0
   -8.7936    2.7066   -9.1004 C   0  0  0  0  0  0  0  0  0  0  0  0
   -8.6481    2.7996  -10.4793 C   0  0  0  0  0  0  0  0  0  0  0  0
   -9.0502    1.5050   -8.2559 C   0  0  0  0  0  0  0  0  0  0  0  0
   -9.3221    2.0215   -6.8876 N   0  0  0  0  0  0  0  0  0  0  0  0
   -8.8379    3.4156   -6.8597 C   0  0  0  0  0  0  0  0  0  0  0  0
   -8.7981    6.3652  -13.2887 C   0  0  0  0  0  0  0  0  0  0  0  0
   -9.8689    6.1804  -13.7235 O   0  0  0  0  0  0  0  0  0  0  0  0
   -8.1590    7.6558  -12.6978 N   0  0  0  0  0  0  0  0  0  0  0  0
   -8.7377    8.9534  -12.4349 C   0  0  0  0  0  0  0  0  0  0  0  0
   -7.8106   10.1186  -12.7549 C   0  0  0  0  0  0  0  0  0  0  0  0
   -6.6498    9.9950  -12.0611 F   0  0  0  0  0  0  0  0  0  0  0  0
   -7.4830   10.1255  -14.0715 F   0  0  0  0  0  0  0  0  0  0  0  0
   -8.3933    4.2797  -15.4370 C   0  0  0  0  0  0  0  0  0  0  0  0
   -8.3584    4.1291  -16.8108 C   0  0  0  0  0  0  0  0  0  0  0  0
   -9.4317    3.6619  -17.4671 F   0  0  0  0  0  0  0  0  0  0  0  0
   -7.2385    4.5817  -17.4882 C   0  0  0  0  0  0  0  0  0  0  0  0
   -7.0442    4.6444  -18.8466 N   0  0  0  0  0  0  0  0  0  0  0  0
   -5.8292    5.1987  -19.1125 C   0  0  0  0  0  0  0  0  0  0  0  0
   -5.2139    5.5093  -17.9153 C   0  0  0  0  0  0  0  0  0  0  0  0
   -3.8939    6.2084  -17.8140 C   0  0  0  0  0  0  0  0  0  0  0  0
   -3.9156    7.6494  -18.3414 C   0  0  0  0  0  0  0  0  0  0  0  0
   -2.4967    8.1782  -18.5786 C   0  0  0  0  0  0  0  0  0  0  0  0
   -1.5010    7.5432  -17.7148 N   0  0  0  0  0  0  0  0  0  0  0  0
   -1.4001    6.0999  -17.9972 C   0  0  0  0  0  0  0  0  0  0  0  0
   -2.7210    5.4397  -18.4179 C   0  0  0  0  0  0  0  0  0  0  0  0
   -6.1007    5.0857  -16.8404 C   0  0  0  0  0  0  0  0  0  0  0  0
  1  2  1  0
  2  3  1  0
  2  4  1  0
  4  5  2  0
  5  6  1  0
  6  7  1  1
  6  8  1  0
  8  9  1  0
  9 10  2  0
 10 11  1  0
 11 12  2  0
 12 13  1  0
 13 14  2  0
 13 15  1  0
 15 16  1  0
 16 17  1  0
  6 18  1  0
 18 19  2  0
 18 20  1  0
 20 21  1  0
 21 22  1  0
 22 23  1  0
 22 24  1  0
  5 25  1  0
 25 26  2  0
 26 27  1  0
 26 28  1  0
 28 29  1  0
 29 30  1  0
 30 31  2  0
 31 32  1  0
 32 33  1  0
 33 34  1  0
 34 35  1  0
 35 36  1  0
 36 37  1  0
 31 38  1  0
 38  4  1  0
 14  9  1  0
 38 28  2  0
 17 12  1  0
 37 32  1  0
M  END
>  <smiles>  (2158) 
C32667-P254

>  <fragmenstein_outcome>  (2158) 
acceptable

>  <inchikey>  (2158) 
ZMCBTMJFDJVIGC-UHFFFAOYSA-N

>  <fragmenstein_mode>  (2158) 
expansion

>  <HIPPO Pose ID>  (2158) 
26251

>  <Energy>  (2158) 
153.316843

>  <fragmenstein_error>  (2158) 


>  <tags>  (2158) 
{'openbind_xx01zvns2b_c1_fragmenstein', 'fragmenstein_placed'}

>  <ref_pdb>  (2158) 
175

>  <scratch_subdir>  (2158) 
/opt/xchem-fragalysis-2/maxwin/BulkDock/SCRATCH/511028/C32667-P254

>  <alias>  (2158) 
CC(C)c1c([C@](O)(Nc2ccc3c(c2)CNC3)C(=O)NCC(F)F)cc(F)c2[nH]cc(C3CCNCC3)c12

>  <HIPPO Compound ID>  (2158) 
43363

>  <fragmenstein_runtime>  (2158) 
13.865444

$$$$
O=C(Nc1ccc2c(c1)CNC2)c1cc(F)c2[nH]c3c(c2c1)CC1(CCNCC1)C3
     RDKit          3D

 30 35  0  0  0  0  0  0  0  0999 V2000
   -8.3372    6.2779  -13.2462 O   0  0  0  0  0  0  0  0  0  0  0  0
   -8.2527    5.1334  -13.4514 C   0  0  0  0  0  0  0  0  0  0  0  0
   -8.3197    3.9410  -12.4862 N   0  0  0  0  0  0  0  0  0  0  0  0
   -8.4072    3.9052  -11.0981 C   0  0  0  0  0  0  0  0  0  0  0  0
   -8.2445    5.0764  -10.3355 C   0  0  0  0  0  0  0  0  0  0  0  0
   -8.3426    5.0465   -8.9410 C   0  0  0  0  0  0  0  0  0  0  0  0
   -8.6394    3.8395   -8.3397 C   0  0  0  0  0  0  0  0  0  0  0  0
   -8.7868    2.6783   -9.0938 C   0  0  0  0  0  0  0  0  0  0  0  0
   -8.6512    2.6869  -10.4702 C   0  0  0  0  0  0  0  0  0  0  0  0
   -9.0937    1.5420   -8.1781 C   0  0  0  0  0  0  0  0  0  0  0  0
   -9.5273    2.1855   -6.9103 N   0  0  0  0  0  0  0  0  0  0  0  0
   -8.8700    3.5119   -6.9028 C   0  0  0  0  0  0  0  0  0  0  0  0
   -7.9349    4.7051  -14.8276 C   0  0  0  0  0  0  0  0  0  0  0  0
   -8.8658    4.1336  -15.6879 C   0  0  0  0  0  0  0  0  0  0  0  0
   -8.6054    4.0538  -17.0613 C   0  0  0  0  0  0  0  0  0  0  0  0
   -9.5529    3.6023  -17.8907 F   0  0  0  0  0  0  0  0  0  0  0  0
   -7.4010    4.5651  -17.5487 C   0  0  0  0  0  0  0  0  0  0  0  0
   -6.9329    4.7771  -18.8486 N   0  0  0  0  0  0  0  0  0  0  0  0
   -5.7289    5.4074  -18.7465 C   0  0  0  0  0  0  0  0  0  0  0  0
   -5.4144    5.5610  -17.4347 C   0  0  0  0  0  0  0  0  0  0  0  0
   -6.4428    5.0654  -16.6574 C   0  0  0  0  0  0  0  0  0  0  0  0
   -6.6887    5.1167  -15.2857 C   0  0  0  0  0  0  0  0  0  0  0  0
   -4.1812    6.3047  -17.2051 C   0  0  0  0  0  0  0  0  0  0  0  0
   -3.5569    6.3583  -18.6467 C   0  0  0  0  0  0  0  0  0  0  0  0
   -2.9315    7.7427  -18.8741 C   0  0  0  0  0  0  0  0  0  0  0  0
   -1.7568    7.9775  -17.9174 C   0  0  0  0  0  0  0  0  0  0  0  0
   -0.7389    6.9466  -18.0646 N   0  0  0  0  0  0  0  0  0  0  0  0
   -1.2560    5.5944  -17.8729 C   0  0  0  0  0  0  0  0  0  0  0  0
   -2.4452    5.2944  -18.7810 C   0  0  0  0  0  0  0  0  0  0  0  0
   -4.7478    6.0178  -19.6691 C   0  0  0  0  0  0  0  0  0  0  0  0
  1  2  2  0
  2  3  1  0
  3  4  1  0
  4  5  2  0
  5  6  1  0
  6  7  2  0
  7  8  1  0
  8  9  2  0
  8 10  1  0
 10 11  1  0
 11 12  1  0
  2 13  1  0
 13 14  2  0
 14 15  1  0
 15 16  1  0
 15 17  2  0
 17 18  1  0
 18 19  1  0
 19 20  2  0
 20 21  1  0
 21 22  2  0
 20 23  1  0
 23 24  1  0
 24 25  1  0
 25 26  1  0
 26 27  1  0
 27 28  1  0
 28 29  1  0
 24 30  1  0
  9  4  1  0
 22 13  1  0
 29 24  1  0
 12  7  1  0
 21 17  1  0
 30 19  1  0
M  END
>  <smiles>  (2159) 
C32669-P254

>  <fragmenstein_outcome>  (2159) 
acceptable

>  <inchikey>  (2159) 
BDJZWUVLEOIYGS-UHFFFAOYSA-N

>  <fragmenstein_mode>  (2159) 
expansion

>  <HIPPO Pose ID>  (2159) 
26252

>  <Energy>  (2159) 
71.434433

>  <fragmenstein_error>  (2159) 


>  <tags>  (2159) 
{'openbind_xx01zvns2b_c1_fragmenstein', 'fragmenstein_placed'}

>  <ref_pdb>  (2159) 
175

>  <scratch_subdir>  (2159) 
/opt/xchem-fragalysis-2/maxwin/BulkDock/SCRATCH/511028/C32669-P254

>  <alias>  (2159) 
O=C(Nc1ccc2c(c1)CNC2)c1cc(F)c2[nH]c3c(c2c1)CC1(CCNCC1)C3

>  <HIPPO Compound ID>  (2159) 
39835

>  <fragmenstein_runtime>  (2159) 
10.499455

$$$$
C[C@@H]1CNCC[C@H]1c1c[nH]c2c(F)cc(C(=O)Nc3ccc4c(c3)CNC4)cc12
     RDKit          3D

 29 33  0  0  0  0  0  0  0  0999 V2000
   -2.2859    4.7188  -17.9775 C   0  0  0  0  0  0  0  0  0  0  0  0
   -2.6974    6.1735  -18.0982 C   0  0  2  0  0  0  0  0  0  0  0  0
   -1.5659    7.0454  -17.4914 C   0  0  0  0  0  0  0  0  0  0  0  0
   -1.9666    8.3954  -17.0919 N   0  0  0  0  0  0  0  0  0  0  0  0
   -3.1459    8.8379  -17.8219 C   0  0  0  0  0  0  0  0  0  0  0  0
   -4.3643    7.9772  -17.4968 C   0  0  0  0  0  0  0  0  0  0  0  0
   -4.0310    6.4727  -17.3962 C   0  0  1  0  0  0  0  0  0  0  0  0
   -5.2337    5.6474  -17.8036 C   0  0  0  0  0  0  0  0  0  0  0  0
   -5.6885    5.3232  -19.0669 C   0  0  0  0  0  0  0  0  0  0  0  0
   -6.9134    4.6999  -18.9535 N   0  0  0  0  0  0  0  0  0  0  0  0
   -7.2652    4.5979  -17.6266 C   0  0  0  0  0  0  0  0  0  0  0  0
   -8.4320    4.1229  -17.0131 C   0  0  0  0  0  0  0  0  0  0  0  0
   -9.4529    3.6505  -17.7441 F   0  0  0  0  0  0  0  0  0  0  0  0
   -8.5729    4.2540  -15.6275 C   0  0  0  0  0  0  0  0  0  0  0  0
   -7.5573    4.8462  -14.8817 C   0  0  0  0  0  0  0  0  0  0  0  0
   -7.7354    5.2638  -13.4666 C   0  0  0  0  0  0  0  0  0  0  0  0
   -7.4768    6.3722  -13.2047 O   0  0  0  0  0  0  0  0  0  0  0  0
   -8.1809    4.0995  -12.5583 N   0  0  0  0  0  0  0  0  0  0  0  0
   -8.3068    4.0295  -11.1698 C   0  0  0  0  0  0  0  0  0  0  0  0
   -8.1083    5.1719  -10.3742 C   0  0  0  0  0  0  0  0  0  0  0  0
   -8.2168    5.1095   -8.9810 C   0  0  0  0  0  0  0  0  0  0  0  0
   -8.5340    3.8944   -8.4049 C   0  0  0  0  0  0  0  0  0  0  0  0
   -8.7261    2.7616   -9.1865 C   0  0  0  0  0  0  0  0  0  0  0  0
   -8.6151    2.8081  -10.5691 C   0  0  0  0  0  0  0  0  0  0  0  0
   -9.0143    1.5969   -8.3002 C   0  0  0  0  0  0  0  0  0  0  0  0
   -9.2415    2.1628   -6.9452 N   0  0  0  0  0  0  0  0  0  0  0  0
   -8.7191    3.5442   -6.9681 C   0  0  0  0  0  0  0  0  0  0  0  0
   -6.3685    5.2650  -15.4943 C   0  0  0  0  0  0  0  0  0  0  0  0
   -6.2249    5.1613  -16.8897 C   0  0  0  0  0  0  0  0  0  0  0  0
  2  1  1  1
  2  3  1  0
  3  4  1  0
  4  5  1  0
  5  6  1  0
  6  7  1  0
  7  8  1  6
  8  9  2  0
  9 10  1  0
 10 11  1  0
 11 12  2  0
 12 13  1  0
 12 14  1  0
 14 15  2  0
 15 16  1  0
 16 17  2  0
 16 18  1  0
 18 19  1  0
 19 20  2  0
 20 21  1  0
 21 22  2  0
 22 23  1  0
 23 24  2  0
 23 25  1  0
 25 26  1  0
 26 27  1  0
 15 28  1  0
 28 29  2  0
  7  2  1  0
 29  8  1  0
 29 11  1  0
 24 19  1  0
 27 22  1  0
M  END
>  <smiles>  (2160) 
C32671-P254

>  <fragmenstein_outcome>  (2160) 
acceptable

>  <inchikey>  (2160) 
OPOWYNFNOYRVIQ-UHFFFAOYSA-N

>  <fragmenstein_mode>  (2160) 
expansion

>  <HIPPO Pose ID>  (2160) 
26253

>  <Energy>  (2160) 
48.402051

>  <fragmenstein_error>  (2160) 


>  <tags>  (2160) 
{'openbind_xx01zvns2b_c1_fragmenstein', 'fragmenstein_placed'}

>  <ref_pdb>  (2160) 
175

>  <scratch_subdir>  (2160) 
/opt/xchem-fragalysis-2/maxwin/BulkDock/SCRATCH/511028/C32671-P254

>  <alias>  (2160) 
C[C@@H]1CNCC[C@H]1c1c[nH]c2c(F)cc(C(=O)Nc3ccc4c(c3)CNC4)cc12

>  <HIPPO Compound ID>  (2160) 
32671

>  <fragmenstein_runtime>  (2160) 
8.55403

$$$$
O=C(Nc1ccc2c(c1)CNC2)c1cc(F)c2[nH]c3c(c2c1)[C@@H]1CCNC[C@H]1NC3
     RDKit          3D

 30 35  0  0  0  0  0  0  0  0999 V2000
   -7.8391    6.4121  -13.1830 O   0  0  0  0  0  0  0  0  0  0  0  0
   -7.9394    5.2753  -13.4289 C   0  0  0  0  0  0  0  0  0  0  0  0
   -8.2204    4.0742  -12.5052 N   0  0  0  0  0  0  0  0  0  0  0  0
   -8.3396    4.0069  -11.1173 C   0  0  0  0  0  0  0  0  0  0  0  0
   -8.1438    5.1514  -10.3240 C   0  0  0  0  0  0  0  0  0  0  0  0
   -8.2456    5.0894   -8.9303 C   0  0  0  0  0  0  0  0  0  0  0  0
   -8.5556    3.8734   -8.3522 C   0  0  0  0  0  0  0  0  0  0  0  0
   -8.7425    2.7385   -9.1323 C   0  0  0  0  0  0  0  0  0  0  0  0
   -8.6329    2.7835  -10.5146 C   0  0  0  0  0  0  0  0  0  0  0  0
   -9.0251    1.5736   -8.2449 C   0  0  0  0  0  0  0  0  0  0  0  0
   -9.2618    2.1421   -6.8928 N   0  0  0  0  0  0  0  0  0  0  0  0
   -8.7377    3.5228   -6.9150 C   0  0  0  0  0  0  0  0  0  0  0  0
   -7.6857    4.8601  -14.8273 C   0  0  0  0  0  0  0  0  0  0  0  0
   -8.6639    4.2861  -15.6312 C   0  0  0  0  0  0  0  0  0  0  0  0
   -8.4474    4.1587  -17.0067 C   0  0  0  0  0  0  0  0  0  0  0  0
   -9.4276    3.6886  -17.7890 F   0  0  0  0  0  0  0  0  0  0  0  0
   -7.2388    4.6080  -17.5525 C   0  0  0  0  0  0  0  0  0  0  0  0
   -6.7898    4.6722  -18.8613 N   0  0  0  0  0  0  0  0  0  0  0  0
   -5.4973    5.1398  -18.8686 C   0  0  0  0  0  0  0  0  0  0  0  0
   -5.1560    5.4909  -17.5798 C   0  0  0  0  0  0  0  0  0  0  0  0
   -6.2327    5.1371  -16.7399 C   0  0  0  0  0  0  0  0  0  0  0  0
   -6.4527    5.2493  -15.3593 C   0  0  0  0  0  0  0  0  0  0  0  0
   -3.8014    6.0357  -17.2530 C   0  0  2  0  0  0  0  0  0  0  0  0
   -3.8152    7.3018  -16.3845 C   0  0  0  0  0  0  0  0  0  0  0  0
   -2.6178    8.2202  -16.6632 C   0  0  0  0  0  0  0  0  0  0  0  0
   -1.3926    7.4762  -16.9557 N   0  0  0  0  0  0  0  0  0  0  0  0
   -1.5387    6.6209  -18.1508 C   0  0  0  0  0  0  0  0  0  0  0  0
   -3.0122    6.3385  -18.5498 C   0  0  1  0  0  0  0  0  0  0  0  0
   -3.1783    5.2761  -19.5608 N   0  0  0  0  0  0  0  0  0  0  0  0
   -4.5854    5.2373  -20.0449 C   0  0  0  0  0  0  0  0  0  0  0  0
  1  2  2  0
  2  3  1  0
  3  4  1  0
  4  5  2  0
  5  6  1  0
  6  7  2  0
  7  8  1  0
  8  9  2  0
  8 10  1  0
 10 11  1  0
 11 12  1  0
  2 13  1  0
 13 14  2  0
 14 15  1  0
 15 16  1  0
 15 17  2  0
 17 18  1  0
 18 19  1  0
 19 20  2  0
 20 21  1  0
 21 22  2  0
 20 23  1  0
 23 24  1  6
 24 25  1  0
 25 26  1  0
 26 27  1  0
 28 27  1  1
 28 29  1  0
 29 30  1  0
  9  4  1  0
 22 13  1  0
 28 23  1  0
 12  7  1  0
 21 17  1  0
 30 19  1  0
M  END
>  <smiles>  (2161) 
C32676-P254

>  <fragmenstein_outcome>  (2161) 
acceptable

>  <inchikey>  (2161) 
VTAFLKDFSNMRSY-UHFFFAOYSA-N

>  <fragmenstein_mode>  (2161) 
expansion

>  <HIPPO Pose ID>  (2161) 
26256

>  <Energy>  (2161) 
72.100614

>  <fragmenstein_error>  (2161) 


>  <tags>  (2161) 
{'openbind_xx01zvns2b_c1_fragmenstein', 'fragmenstein_placed'}

>  <ref_pdb>  (2161) 
175

>  <scratch_subdir>  (2161) 
/opt/xchem-fragalysis-2/maxwin/BulkDock/SCRATCH/511028/C32676-P254

>  <alias>  (2161) 
O=C(Nc1ccc2c(c1)CNC2)c1cc(F)c2[nH]c3c(c2c1)[C@@H]1CCNC[C@H]1NC3

>  <HIPPO Compound ID>  (2161) 
32676

>  <fragmenstein_runtime>  (2161) 
7.828217

$$$$
O=C(Nc1cc2c(c(-c3ccncc3)c1)CNC2)c1cc(F)c2[nH]cc(C3CCNCC3)c2c1
     RDKit          3D

 34 39  0  0  0  0  0  0  0  0999 V2000
   -7.0316    6.2944  -13.2475 O   0  0  0  0  0  0  0  0  0  0  0  0
   -7.4142    5.2251  -13.5214 C   0  0  0  0  0  0  0  0  0  0  0  0
   -7.9083    4.0751  -12.6148 N   0  0  0  0  0  0  0  0  0  0  0  0
   -8.1175    4.0341  -11.2362 C   0  0  0  0  0  0  0  0  0  0  0  0
   -8.5100    2.8330  -10.6482 C   0  0  0  0  0  0  0  0  0  0  0  0
   -8.7039    2.8059   -9.2774 C   0  0  0  0  0  0  0  0  0  0  0  0
   -8.5217    3.9433   -8.4889 C   0  0  0  0  0  0  0  0  0  0  0  0
   -8.1121    5.1535   -9.0416 C   0  0  0  0  0  0  0  0  0  0  0  0
   -7.8870    6.3608   -8.2351 C   0  0  0  0  0  0  0  0  0  0  0  0
   -8.5677    7.5515   -8.5112 C   0  0  0  0  0  0  0  0  0  0  0  0
   -8.3238    8.6649   -7.7232 C   0  0  0  0  0  0  0  0  0  0  0  0
   -7.4571    8.6813   -6.6887 N   0  0  0  0  0  0  0  0  0  0  0  0
   -6.7981    7.5299   -6.4433 C   0  0  0  0  0  0  0  0  0  0  0  0
   -6.9744    6.3657   -7.1751 C   0  0  0  0  0  0  0  0  0  0  0  0
   -7.9189    5.1751  -10.4384 C   0  0  0  0  0  0  0  0  0  0  0  0
   -8.8408    3.5857   -7.0704 C   0  0  0  0  0  0  0  0  0  0  0  0
   -9.5334    2.2791   -7.1314 N   0  0  0  0  0  0  0  0  0  0  0  0
   -9.0853    1.6580   -8.4017 C   0  0  0  0  0  0  0  0  0  0  0  0
   -7.4016    4.8369  -14.9581 C   0  0  0  0  0  0  0  0  0  0  0  0
   -8.5180    4.2712  -15.5716 C   0  0  0  0  0  0  0  0  0  0  0  0
   -8.5296    4.0882  -16.9530 C   0  0  0  0  0  0  0  0  0  0  0  0
   -9.6260    3.6111  -17.5608 F   0  0  0  0  0  0  0  0  0  0  0  0
   -7.4163    4.4864  -17.6972 C   0  0  0  0  0  0  0  0  0  0  0  0
   -7.2121    4.4809  -19.0540 N   0  0  0  0  0  0  0  0  0  0  0  0
   -5.9782    5.0031  -19.3393 C   0  0  0  0  0  0  0  0  0  0  0  0
   -5.3680    5.3879  -18.1631 C   0  0  0  0  0  0  0  0  0  0  0  0
   -4.0345    6.0815  -18.0851 C   0  0  0  0  0  0  0  0  0  0  0  0
   -4.1493    7.5012  -17.5116 C   0  0  0  0  0  0  0  0  0  0  0  0
   -2.7809    8.1742  -17.4552 C   0  0  0  0  0  0  0  0  0  0  0  0
   -1.8154    7.3815  -16.6940 N   0  0  0  0  0  0  0  0  0  0  0  0
   -1.6512    6.0501  -17.2854 C   0  0  0  0  0  0  0  0  0  0  0  0
   -2.9695    5.2781  -17.3318 C   0  0  0  0  0  0  0  0  0  0  0  0
   -6.2775    5.0416  -17.1090 C   0  0  0  0  0  0  0  0  0  0  0  0
   -6.2714    5.2039  -15.7094 C   0  0  0  0  0  0  0  0  0  0  0  0
  1  2  2  0
  2  3  1  0
  3  4  1  0
  4  5  2  0
  5  6  1  0
  6  7  2  0
  7  8  1  0
  8  9  1  0
  9 10  2  0
 10 11  1  0
 11 12  2  0
 12 13  1  0
 13 14  2  0
  8 15  2  0
  7 16  1  0
 16 17  1  0
 17 18  1  0
  2 19  1  0
 19 20  2  0
 20 21  1  0
 21 22  1  0
 21 23  2  0
 23 24  1  0
 24 25  1  0
 25 26  2  0
 26 27  1  0
 27 28  1  0
 28 29  1  0
 29 30  1  0
 30 31  1  0
 31 32  1  0
 26 33  1  0
 33 34  2  0
 15  4  1  0
 34 19  1  0
 18  6  1  0
 33 23  1  0
 14  9  1  0
 32 27  1  0
M  END
>  <smiles>  (2162) 
C32678-P254

>  <fragmenstein_outcome>  (2162) 
acceptable

>  <inchikey>  (2162) 
QUBPSWPVLPIFKC-UHFFFAOYSA-N

>  <fragmenstein_mode>  (2162) 
expansion

>  <HIPPO Pose ID>  (2162) 
26257

>  <Energy>  (2162) 
44.364374

>  <fragmenstein_error>  (2162) 


>  <tags>  (2162) 
{'openbind_xx01zvns2b_c1_fragmenstein', 'fragmenstein_placed'}

>  <ref_pdb>  (2162) 
175

>  <scratch_subdir>  (2162) 
/opt/xchem-fragalysis-2/maxwin/BulkDock/SCRATCH/511028/C32678-P254

>  <alias>  (2162) 
O=C(Nc1cc2c(c(-c3ccncc3)c1)CNC2)c1cc(F)c2[nH]cc(C3CCNCC3)c2c1

>  <HIPPO Compound ID>  (2162) 
25858

>  <fragmenstein_runtime>  (2162) 
7.837635

$$$$
CC[C@@H]1NCc2cc(NC(=O)c3cc(F)c4[nH]cc(C5CCNCC5)c4c3)ccc21
     RDKit          3D

 30 34  0  0  0  0  0  0  0  0999 V2000
   -7.7045    5.5262   -5.5968 C   0  0  0  0  0  0  0  0  0  0  0  0
   -7.8474    4.0680   -6.0174 C   0  0  0  0  0  0  0  0  0  0  0  0
   -8.9650    3.8405   -7.0436 C   0  0  2  0  0  0  0  0  0  0  0  0
   -9.4175    2.4226   -7.0183 N   0  0  0  0  0  0  0  0  0  0  0  0
   -9.0112    1.8035   -8.3054 C   0  0  0  0  0  0  0  0  0  0  0  0
   -8.6698    2.9373   -9.2098 C   0  0  0  0  0  0  0  0  0  0  0  0
   -8.4503    2.9209  -10.5819 C   0  0  0  0  0  0  0  0  0  0  0  0
   -8.1294    4.1211  -11.2193 C   0  0  0  0  0  0  0  0  0  0  0  0
   -7.9525    4.1366  -12.6033 N   0  0  0  0  0  0  0  0  0  0  0  0
   -7.5304    5.2847  -13.5490 C   0  0  0  0  0  0  0  0  0  0  0  0
   -7.3392    6.4162  -13.3284 O   0  0  0  0  0  0  0  0  0  0  0  0
   -7.4440    4.8420  -14.9644 C   0  0  0  0  0  0  0  0  0  0  0  0
   -8.5471    4.2667  -15.5926 C   0  0  0  0  0  0  0  0  0  0  0  0
   -8.5382    4.0830  -16.9722 C   0  0  0  0  0  0  0  0  0  0  0  0
   -9.6292    3.6161  -17.5969 F   0  0  0  0  0  0  0  0  0  0  0  0
   -7.4153    4.4835  -17.6993 C   0  0  0  0  0  0  0  0  0  0  0  0
   -7.1978    4.4829  -19.0537 N   0  0  0  0  0  0  0  0  0  0  0  0
   -5.9626    5.0075  -19.3248 C   0  0  0  0  0  0  0  0  0  0  0  0
   -5.3648    5.3887  -18.1404 C   0  0  0  0  0  0  0  0  0  0  0  0
   -4.0315    6.0806  -18.0514 C   0  0  0  0  0  0  0  0  0  0  0  0
   -4.1440    7.5049  -17.4927 C   0  0  0  0  0  0  0  0  0  0  0  0
   -2.7747    8.1777  -17.4572 C   0  0  0  0  0  0  0  0  0  0  0  0
   -1.8109    7.3896  -16.6919 N   0  0  0  0  0  0  0  0  0  0  0  0
   -1.6510    6.0460  -17.2515 C   0  0  0  0  0  0  0  0  0  0  0  0
   -2.9749    5.2842  -17.2819 C   0  0  0  0  0  0  0  0  0  0  0  0
   -6.2854    5.0415  -17.0952 C   0  0  0  0  0  0  0  0  0  0  0  0
   -6.3009    5.2110  -15.6947 C   0  0  0  0  0  0  0  0  0  0  0  0
   -8.0150    5.3010  -10.4679 C   0  0  0  0  0  0  0  0  0  0  0  0
   -8.2506    5.3044   -9.0884 C   0  0  0  0  0  0  0  0  0  0  0  0
   -8.5838    4.1130   -8.4691 C   0  0  0  0  0  0  0  0  0  0  0  0
  1  2  1  0
  3  2  1  1
  3  4  1  0
  4  5  1  0
  5  6  1  0
  6  7  2  0
  7  8  1  0
  8  9  1  0
  9 10  1  0
 10 11  2  0
 10 12  1  0
 12 13  2  0
 13 14  1  0
 14 15  1  0
 14 16  2  0
 16 17  1  0
 17 18  1  0
 18 19  2  0
 19 20  1  0
 20 21  1  0
 21 22  1  0
 22 23  1  0
 23 24  1  0
 24 25  1  0
 19 26  1  0
 26 27  2  0
  8 28  2  0
 28 29  1  0
 29 30  2  0
 30  3  1  0
 30  6  1  0
 27 12  1  0
 26 16  1  0
 25 20  1  0
M  END
>  <smiles>  (2163) 
C18169-P254

>  <fragmenstein_outcome>  (2163) 
acceptable

>  <inchikey>  (2163) 
BWNLUJXIDNILOQ-UHFFFAOYSA-N

>  <fragmenstein_mode>  (2163) 
expansion

>  <HIPPO Pose ID>  (2163) 
26258

>  <Energy>  (2163) 
34.581138

>  <fragmenstein_error>  (2163) 


>  <tags>  (2163) 
{'openbind_xx01zvns2b_c1_fragmenstein', 'fragmenstein_placed'}

>  <ref_pdb>  (2163) 
175

>  <scratch_subdir>  (2163) 
/opt/xchem-fragalysis-2/maxwin/BulkDock/SCRATCH/511028/C18169-P254

>  <alias>  (2163) 
CC[C@@H]1NCc2cc(NC(=O)c3cc(F)c4[nH]cc(C5CCNCC5)c4c3)ccc21

>  <HIPPO Compound ID>  (2163) 
18169

>  <fragmenstein_runtime>  (2163) 
8.136913

$$$$
O=C(Nc1cc(F)c2c(c1)CNC2)c1cc(F)c2[nH]c3c(c2c1)[C@@H]1CCNC[C@@H]1NC3
     RDKit          3D

 31 36  0  0  0  0  0  0  0  0999 V2000
   -8.0140    6.4190  -13.1871 O   0  0  0  0  0  0  0  0  0  0  0  0
   -8.0401    5.2783  -13.4318 C   0  0  0  0  0  0  0  0  0  0  0  0
   -8.2477    4.0632  -12.5080 N   0  0  0  0  0  0  0  0  0  0  0  0
   -8.3685    3.9900  -11.1202 C   0  0  0  0  0  0  0  0  0  0  0  0
   -8.1941    5.1354  -10.3256 C   0  0  0  0  0  0  0  0  0  0  0  0
   -8.2944    5.0499   -8.9390 C   0  0  0  0  0  0  0  0  0  0  0  0
   -8.1240    6.1430   -8.1834 F   0  0  0  0  0  0  0  0  0  0  0  0
   -8.5826    3.8377   -8.3557 C   0  0  0  0  0  0  0  0  0  0  0  0
   -8.7495    2.7026   -9.1374 C   0  0  0  0  0  0  0  0  0  0  0  0
   -8.6361    2.7568  -10.5199 C   0  0  0  0  0  0  0  0  0  0  0  0
   -9.0177    1.5355   -8.2483 C   0  0  0  0  0  0  0  0  0  0  0  0
   -9.2667    2.1058   -6.8994 N   0  0  0  0  0  0  0  0  0  0  0  0
   -8.7594    3.4945   -6.9215 C   0  0  0  0  0  0  0  0  0  0  0  0
   -7.7353    4.8750  -14.8224 C   0  0  0  0  0  0  0  0  0  0  0  0
   -8.6697    4.2905  -15.6705 C   0  0  0  0  0  0  0  0  0  0  0  0
   -8.3883    4.1614  -17.0362 C   0  0  0  0  0  0  0  0  0  0  0  0
   -9.3289    3.6843  -17.8616 F   0  0  0  0  0  0  0  0  0  0  0  0
   -7.1543    4.6097  -17.5244 C   0  0  0  0  0  0  0  0  0  0  0  0
   -6.6309    4.6693  -18.8093 N   0  0  0  0  0  0  0  0  0  0  0  0
   -5.3418    5.1438  -18.7398 C   0  0  0  0  0  0  0  0  0  0  0  0
   -5.0800    5.4962  -17.4401 C   0  0  0  0  0  0  0  0  0  0  0  0
   -6.1956    5.1454  -16.6609 C   0  0  0  0  0  0  0  0  0  0  0  0
   -6.4837    5.2759  -15.2963 C   0  0  0  0  0  0  0  0  0  0  0  0
   -3.7767    6.1055  -17.0515 C   0  0  2  0  0  0  0  0  0  0  0  0
   -3.8923    7.6347  -17.0349 C   0  0  0  0  0  0  0  0  0  0  0  0
   -2.5724    8.2850  -16.6276 C   0  0  0  0  0  0  0  0  0  0  0  0
   -1.3697    7.6479  -17.1646 N   0  0  0  0  0  0  0  0  0  0  0  0
   -1.6654    6.8227  -18.3365 C   0  0  0  0  0  0  0  0  0  0  0  0
   -2.6250    5.6438  -18.0085 C   0  0  2  0  0  0  0  0  0  0  0  0
   -3.0146    4.9015  -19.2312 N   0  0  0  0  0  0  0  0  0  0  0  0
   -4.3233    5.2476  -19.8140 C   0  0  0  0  0  0  0  0  0  0  0  0
  1  2  2  0
  2  3  1  0
  3  4  1  0
  4  5  2  0
  5  6  1  0
  6  7  1  0
  6  8  2  0
  8  9  1  0
  9 10  2  0
  9 11  1  0
 11 12  1  0
 12 13  1  0
  2 14  1  0
 14 15  2  0
 15 16  1  0
 16 17  1  0
 16 18  2  0
 18 19  1  0
 19 20  1  0
 20 21  2  0
 21 22  1  0
 22 23  2  0
 21 24  1  0
 24 25  1  6
 25 26  1  0
 26 27  1  0
 27 28  1  0
 29 28  1  6
 29 30  1  0
 30 31  1  0
 10  4  1  0
 23 14  1  0
 29 24  1  0
 13  8  1  0
 22 18  1  0
 31 20  1  0
M  END
>  <smiles>  (2164) 
C32679-P254

>  <fragmenstein_outcome>  (2164) 
acceptable

>  <inchikey>  (2164) 
NOEIMYVGDXWEGP-UHFFFAOYSA-N

>  <fragmenstein_mode>  (2164) 
expansion

>  <HIPPO Pose ID>  (2164) 
26259

>  <Energy>  (2164) 
67.21439

>  <fragmenstein_error>  (2164) 


>  <tags>  (2164) 
{'openbind_xx01zvns2b_c1_fragmenstein', 'fragmenstein_placed'}

>  <ref_pdb>  (2164) 
175

>  <scratch_subdir>  (2164) 
/opt/xchem-fragalysis-2/maxwin/BulkDock/SCRATCH/511028/C32679-P254

>  <alias>  (2164) 
O=C(Nc1cc(F)c2c(c1)CNC2)c1cc(F)c2[nH]c3c(c2c1)[C@@H]1CCNC[C@@H]1NC3

>  <HIPPO Compound ID>  (2164) 
32679

>  <fragmenstein_runtime>  (2164) 
7.210479

$$$$
O=C(Nc1cc(F)c2c(c1)CNC2=O)c1cc(F)c2[nH]c3c(c2c1)[C@@H]1CCNC[C@@H]1NC3
     RDKit          3D

 32 37  0  0  0  0  0  0  0  0999 V2000
   -7.7043    6.3105  -13.2188 O   0  0  0  0  0  0  0  0  0  0  0  0
   -7.8925    5.1843  -13.4619 C   0  0  0  0  0  0  0  0  0  0  0  0
   -8.2572    4.0088  -12.5333 N   0  0  0  0  0  0  0  0  0  0  0  0
   -8.3706    3.9527  -11.1429 C   0  0  0  0  0  0  0  0  0  0  0  0
   -8.2217    5.1233  -10.3785 C   0  0  0  0  0  0  0  0  0  0  0  0
   -8.3183    5.0800   -8.9905 C   0  0  0  0  0  0  0  0  0  0  0  0
   -8.2120    6.2129   -8.2889 F   0  0  0  0  0  0  0  0  0  0  0  0
   -8.5561    3.8711   -8.3844 C   0  0  0  0  0  0  0  0  0  0  0  0
   -8.7117    2.7015   -9.1247 C   0  0  0  0  0  0  0  0  0  0  0  0
   -8.6192    2.7278  -10.5115 C   0  0  0  0  0  0  0  0  0  0  0  0
   -8.9506    1.5554   -8.1983 C   0  0  0  0  0  0  0  0  0  0  0  0
   -9.0206    2.2013   -6.9041 N   0  0  0  0  0  0  0  0  0  0  0  0
   -8.6963    3.5403   -6.9648 C   0  0  0  0  0  0  0  0  0  0  0  0
   -8.5313    4.2971   -6.0275 O   0  0  0  0  0  0  0  0  0  0  0  0
   -7.6726    4.7575  -14.8637 C   0  0  0  0  0  0  0  0  0  0  0  0
   -8.6916    4.2323  -15.6534 C   0  0  0  0  0  0  0  0  0  0  0  0
   -8.5280    4.1459  -17.0403 C   0  0  0  0  0  0  0  0  0  0  0  0
   -9.5534    3.7482  -17.8078 F   0  0  0  0  0  0  0  0  0  0  0  0
   -7.3289    4.5926  -17.6089 C   0  0  0  0  0  0  0  0  0  0  0  0
   -6.9443    4.7579  -18.9293 N   0  0  0  0  0  0  0  0  0  0  0  0
   -5.6672    5.2663  -18.9711 C   0  0  0  0  0  0  0  0  0  0  0  0
   -5.2316    5.4271  -17.6755 C   0  0  0  0  0  0  0  0  0  0  0  0
   -6.2761    5.0456  -16.8115 C   0  0  0  0  0  0  0  0  0  0  0  0
   -6.4421    5.1187  -15.4216 C   0  0  0  0  0  0  0  0  0  0  0  0
   -3.8835    5.9942  -17.3707 C   0  0  2  0  0  0  0  0  0  0  0  0
   -3.9957    7.4749  -16.9550 C   0  0  0  0  0  0  0  0  0  0  0  0
   -2.7912    8.3119  -17.3738 C   0  0  0  0  0  0  0  0  0  0  0  0
   -1.5708    7.5202  -17.3111 N   0  0  0  0  0  0  0  0  0  0  0  0
   -1.5838    6.4827  -18.3518 C   0  0  0  0  0  0  0  0  0  0  0  0
   -2.9695    5.8079  -18.6099 C   0  0  2  0  0  0  0  0  0  0  0  0
   -3.6373    6.3310  -19.8490 N   0  0  0  0  0  0  0  0  0  0  0  0
   -4.8709    5.5774  -20.1905 C   0  0  0  0  0  0  0  0  0  0  0  0
  1  2  2  0
  2  3  1  0
  3  4  1  0
  4  5  2  0
  5  6  1  0
  6  7  1  0
  6  8  2  0
  8  9  1  0
  9 10  2  0
  9 11  1  0
 11 12  1  0
 12 13  1  0
 13 14  2  0
  2 15  1  0
 15 16  2  0
 16 17  1  0
 17 18  1  0
 17 19  2  0
 19 20  1  0
 20 21  1  0
 21 22  2  0
 22 23  1  0
 23 24  2  0
 22 25  1  0
 25 26  1  6
 26 27  1  0
 27 28  1  0
 28 29  1  0
 30 29  1  1
 30 31  1  0
 31 32  1  0
 10  4  1  0
 24 15  1  0
 30 25  1  0
 13  8  1  0
 23 19  1  0
 32 21  1  0
M  END
>  <smiles>  (2165) 
C32693-P254

>  <fragmenstein_outcome>  (2165) 
acceptable

>  <inchikey>  (2165) 
HBGOOWKJLYYLQI-UHFFFAOYSA-N

>  <fragmenstein_mode>  (2165) 
expansion

>  <HIPPO Pose ID>  (2165) 
26262

>  <Energy>  (2165) 
50.110614

>  <fragmenstein_error>  (2165) 


>  <tags>  (2165) 
{'openbind_xx01zvns2b_c1_fragmenstein', 'fragmenstein_placed'}

>  <ref_pdb>  (2165) 
175

>  <scratch_subdir>  (2165) 
/opt/xchem-fragalysis-2/maxwin/BulkDock/SCRATCH/511028/C32693-P254

>  <alias>  (2165) 
O=C(Nc1cc(F)c2c(c1)CNC2=O)c1cc(F)c2[nH]c3c(c2c1)[C@@H]1CCNC[C@@H]1NC3

>  <HIPPO Compound ID>  (2165) 
32693

>  <fragmenstein_runtime>  (2165) 
6.992671

$$$$
C[C@H]1c2ccc(NC(=O)c3cc(F)c4[nH]c5c(c4c3)[C@@H]3CCNC[C@@H]3NC5)cc2CN1C
     RDKit          3D

 32 37  0  0  0  0  0  0  0  0999 V2000
   -7.6800    4.4985   -6.1528 C   0  0  0  0  0  0  0  0  0  0  0  0
   -8.8003    3.9720   -7.0438 C   0  0  1  0  0  0  0  0  0  0  0  0
   -8.5358    4.1936   -8.5029 C   0  0  0  0  0  0  0  0  0  0  0  0
   -8.3095    5.3780   -9.1768 C   0  0  0  0  0  0  0  0  0  0  0  0
   -8.1989    5.3315  -10.5666 C   0  0  0  0  0  0  0  0  0  0  0  0
   -8.2817    4.1118  -11.2621 C   0  0  0  0  0  0  0  0  0  0  0  0
   -8.1794    4.0940  -12.6505 N   0  0  0  0  0  0  0  0  0  0  0  0
   -8.1172    5.2496  -13.6623 C   0  0  0  0  0  0  0  0  0  0  0  0
   -8.2189    6.4005  -13.5031 O   0  0  0  0  0  0  0  0  0  0  0  0
   -7.7790    4.7835  -15.0193 C   0  0  0  0  0  0  0  0  0  0  0  0
   -8.7297    4.2541  -15.8857 C   0  0  0  0  0  0  0  0  0  0  0  0
   -8.4460    4.1496  -17.2504 C   0  0  0  0  0  0  0  0  0  0  0  0
   -9.4009    3.7263  -18.0891 F   0  0  0  0  0  0  0  0  0  0  0  0
   -7.1998    4.5896  -17.7161 C   0  0  0  0  0  0  0  0  0  0  0  0
   -6.6893    4.7309  -18.9980 N   0  0  0  0  0  0  0  0  0  0  0  0
   -5.3964    5.2010  -18.9199 C   0  0  0  0  0  0  0  0  0  0  0  0
   -5.0978    5.4074  -17.5936 C   0  0  0  0  0  0  0  0  0  0  0  0
   -6.2210    5.0470  -16.8299 C   0  0  0  0  0  0  0  0  0  0  0  0
   -6.5035    5.1339  -15.4620 C   0  0  0  0  0  0  0  0  0  0  0  0
   -3.7829    5.9703  -17.1664 C   0  0  2  0  0  0  0  0  0  0  0  0
   -3.9121    7.4781  -16.8643 C   0  0  0  0  0  0  0  0  0  0  0  0
   -2.6739    8.2790  -17.2577 C   0  0  0  0  0  0  0  0  0  0  0  0
   -1.4507    7.5269  -16.9971 N   0  0  0  0  0  0  0  0  0  0  0  0
   -1.3722    6.3633  -17.8943 C   0  0  0  0  0  0  0  0  0  0  0  0
   -2.7306    5.6859  -18.2670 C   0  0  2  0  0  0  0  0  0  0  0  0
   -3.2276    6.1445  -19.5954 N   0  0  0  0  0  0  0  0  0  0  0  0
   -4.4506    5.4299  -20.0472 C   0  0  0  0  0  0  0  0  0  0  0  0
   -8.4696    2.9187  -10.5672 C   0  0  0  0  0  0  0  0  0  0  0  0
   -8.6213    2.9844   -9.1887 C   0  0  0  0  0  0  0  0  0  0  0  0
   -8.9434    1.8849   -8.2254 C   0  0  0  0  0  0  0  0  0  0  0  0
   -8.9406    2.5129   -6.8792 N   0  0  0  0  0  0  0  0  0  0  0  0
  -10.1059    2.1415   -6.0943 C   0  0  0  0  0  0  0  0  0  0  0  0
  2  1  1  1
  2  3  1  0
  3  4  2  0
  4  5  1  0
  5  6  2  0
  6  7  1  0
  7  8  1  0
  8  9  2  0
  8 10  1  0
 10 11  2  0
 11 12  1  0
 12 13  1  0
 12 14  2  0
 14 15  1  0
 15 16  1  0
 16 17  2  0
 17 18  1  0
 18 19  2  0
 17 20  1  0
 20 21  1  6
 21 22  1  0
 22 23  1  0
 23 24  1  0
 25 24  1  1
 25 26  1  0
 26 27  1  0
  6 28  1  0
 28 29  2  0
 29 30  1  0
 30 31  1  0
 31 32  1  0
 31  2  1  0
 29  3  1  0
 19 10  1  0
 25 20  1  0
 18 14  1  0
 27 16  1  0
M  END
>  <smiles>  (2166) 
C32696-P254

>  <fragmenstein_outcome>  (2166) 
acceptable

>  <inchikey>  (2166) 
NQQGPQUMTFTHNW-UHFFFAOYSA-N

>  <fragmenstein_mode>  (2166) 
expansion

>  <HIPPO Pose ID>  (2166) 
26264

>  <Energy>  (2166) 
87.965746

>  <fragmenstein_error>  (2166) 


>  <tags>  (2166) 
{'openbind_xx01zvns2b_c1_fragmenstein', 'fragmenstein_placed'}

>  <ref_pdb>  (2166) 
175

>  <scratch_subdir>  (2166) 
/opt/xchem-fragalysis-2/maxwin/BulkDock/SCRATCH/511028/C32696-P254

>  <alias>  (2166) 
C[C@H]1c2ccc(NC(=O)c3cc(F)c4[nH]c5c(c4c3)[C@@H]3CCNC[C@@H]3NC5)cc2CN1C

>  <HIPPO Compound ID>  (2166) 
32888

>  <fragmenstein_runtime>  (2166) 
7.177216

$$$$
CC1(C)Cc2c3c(cc(NC(=O)c4cc(F)c5[nH]c6c(c5c4)[C@@H]4CCNC[C@@H]4NC6)c2O1)CNC3
     RDKit          3D

 35 41  0  0  0  0  0  0  0  0999 V2000
   -6.3010    7.7295   -9.4525 C   0  0  0  0  0  0  0  0  0  0  0  0
   -7.7613    7.2653   -9.4468 C   0  0  0  0  0  0  0  0  0  0  0  0
   -8.6944    8.4764   -9.5178 C   0  0  0  0  0  0  0  0  0  0  0  0
   -8.0725    6.3944   -8.2140 C   0  0  0  0  0  0  0  0  0  0  0  0
   -8.2712    5.0817   -8.8602 C   0  0  0  0  0  0  0  0  0  0  0  0
   -8.5646    3.8670   -8.2944 C   0  0  0  0  0  0  0  0  0  0  0  0
   -8.7408    2.7600   -9.1149 C   0  0  0  0  0  0  0  0  0  0  0  0
   -8.6272    2.8478  -10.5025 C   0  0  0  0  0  0  0  0  0  0  0  0
   -8.3324    4.0863  -11.0905 C   0  0  0  0  0  0  0  0  0  0  0  0
   -8.1964    4.1331  -12.4850 N   0  0  0  0  0  0  0  0  0  0  0  0
   -7.6341    5.2428  -13.4021 C   0  0  0  0  0  0  0  0  0  0  0  0
   -7.2671    6.3223  -13.1474 O   0  0  0  0  0  0  0  0  0  0  0  0
   -7.5160    4.8152  -14.8186 C   0  0  0  0  0  0  0  0  0  0  0  0
   -8.5751    4.2641  -15.5353 C   0  0  0  0  0  0  0  0  0  0  0  0
   -8.4825    4.1282  -16.9248 C   0  0  0  0  0  0  0  0  0  0  0  0
   -9.5235    3.6439  -17.6133 F   0  0  0  0  0  0  0  0  0  0  0  0
   -7.3290    4.5759  -17.5787 C   0  0  0  0  0  0  0  0  0  0  0  0
   -7.0194    4.7030  -18.9230 N   0  0  0  0  0  0  0  0  0  0  0  0
   -5.7456    5.2049  -19.0523 C   0  0  0  0  0  0  0  0  0  0  0  0
   -5.2368    5.3882  -17.7875 C   0  0  0  0  0  0  0  0  0  0  0  0
   -6.2366    5.0553  -16.8558 C   0  0  0  0  0  0  0  0  0  0  0  0
   -6.3223    5.1626  -15.4613 C   0  0  0  0  0  0  0  0  0  0  0  0
   -3.8540    5.8990  -17.5762 C   0  0  2  0  0  0  0  0  0  0  0  0
   -3.8665    7.3962  -17.2134 C   0  0  0  0  0  0  0  0  0  0  0  0
   -2.6304    8.1377  -17.7121 C   0  0  0  0  0  0  0  0  0  0  0  0
   -1.4626    7.2684  -17.6732 N   0  0  0  0  0  0  0  0  0  0  0  0
   -1.5892    6.1859  -18.6649 C   0  0  0  0  0  0  0  0  0  0  0  0
   -3.0221    5.6140  -18.8565 C   0  0  2  0  0  0  0  0  0  0  0  0
   -3.7128    6.1412  -20.0783 N   0  0  0  0  0  0  0  0  0  0  0  0
   -5.0108    5.4630  -20.3244 C   0  0  0  0  0  0  0  0  0  0  0  0
   -8.1759    5.1884  -10.2435 C   0  0  0  0  0  0  0  0  0  0  0  0
   -7.9715    6.4812  -10.6465 O   0  0  0  0  0  0  0  0  0  0  0  0
   -9.0196    1.5656   -8.2647 C   0  0  0  0  0  0  0  0  0  0  0  0
   -9.2683    2.0913   -6.8974 N   0  0  0  0  0  0  0  0  0  0  0  0
   -8.7567    3.4763   -6.8730 C   0  0  0  0  0  0  0  0  0  0  0  0
  1  2  1  0
  2  3  1  0
  2  4  1  0
  4  5  1  0
  5  6  2  0
  6  7  1  0
  7  8  2  0
  8  9  1  0
  9 10  1  0
 10 11  1  0
 11 12  2  0
 11 13  1  0
 13 14  2  0
 14 15  1  0
 15 16  1  0
 15 17  2  0
 17 18  1  0
 18 19  1  0
 19 20  2  0
 20 21  1  0
 21 22  2  0
 20 23  1  0
 23 24  1  6
 24 25  1  0
 25 26  1  0
 26 27  1  0
 28 27  1  1
 28 29  1  0
 29 30  1  0
  9 31  2  0
 31 32  1  0
  7 33  1  0
 33 34  1  0
 34 35  1  0
 32  2  1  0
 31  5  1  0
 35  6  1  0
 22 13  1  0
 28 23  1  0
 21 17  1  0
 30 19  1  0
M  END
>  <smiles>  (2167) 
C32697-P254

>  <fragmenstein_outcome>  (2167) 
acceptable

>  <inchikey>  (2167) 
KLUVYKYRVCWKDA-UHFFFAOYSA-N

>  <fragmenstein_mode>  (2167) 
expansion

>  <HIPPO Pose ID>  (2167) 
26265

>  <Energy>  (2167) 
106.490396

>  <fragmenstein_error>  (2167) 


>  <tags>  (2167) 
{'openbind_xx01zvns2b_c1_fragmenstein', 'fragmenstein_placed'}

>  <ref_pdb>  (2167) 
175

>  <scratch_subdir>  (2167) 
/opt/xchem-fragalysis-2/maxwin/BulkDock/SCRATCH/511028/C32697-P254

>  <alias>  (2167) 
CC1(C)Cc2c3c(cc(NC(=O)c4cc(F)c5[nH]c6c(c5c4)[C@@H]4CCNC[C@@H]4NC6)c2O1)CNC3

>  <HIPPO Compound ID>  (2167) 
21822

>  <fragmenstein_runtime>  (2167) 
8.573126

$$$$
O=C(Nc1cc(F)c2c(c1)CNC21CCCC1)[C@H]1C[C@@H]2[C@@H](N[C@@H]3CN[C@H]4CNCC[C@H]4[C@@H]23)[C@@H](F)C1
     RDKit          3D

 35 41  0  0  0  0  0  0  0  0999 V2000
   -7.8886    6.6525  -13.4470 O   0  0  0  0  0  0  0  0  0  0  0  0
   -7.9457    5.5062  -13.6795 C   0  0  0  0  0  0  0  0  0  0  0  0
   -8.1762    4.2994  -12.7336 N   0  0  0  0  0  0  0  0  0  0  0  0
   -8.2859    4.2454  -11.3367 C   0  0  0  0  0  0  0  0  0  0  0  0
   -8.2240    5.4385  -10.5952 C   0  0  0  0  0  0  0  0  0  0  0  0
   -8.3483    5.4281   -9.2077 C   0  0  0  0  0  0  0  0  0  0  0  0
   -8.2687    6.5801   -8.5282 F   0  0  0  0  0  0  0  0  0  0  0  0
   -8.5467    4.2367   -8.5471 C   0  0  0  0  0  0  0  0  0  0  0  0
   -8.6114    3.0511   -9.2767 C   0  0  0  0  0  0  0  0  0  0  0  0
   -8.4780    3.0326  -10.6680 C   0  0  0  0  0  0  0  0  0  0  0  0
   -8.8042    1.9063   -8.3378 C   0  0  0  0  0  0  0  0  0  0  0  0
   -8.8941    2.4971   -6.9766 N   0  0  0  0  0  0  0  0  0  0  0  0
   -8.6278    3.9552   -7.0835 C   0  0  0  0  0  0  0  0  0  0  0  0
   -9.6498    4.7343   -6.2363 C   0  0  0  0  0  0  0  0  0  0  0  0
   -9.1565    4.6168   -4.7892 C   0  0  0  0  0  0  0  0  0  0  0  0
   -7.6698    4.2836   -4.8762 C   0  0  0  0  0  0  0  0  0  0  0  0
   -7.3357    4.3762   -6.3584 C   0  0  0  0  0  0  0  0  0  0  0  0
   -7.7585    5.0654  -15.1398 C   0  0  2  0  0  0  0  0  0  0  0  0
   -8.5514    3.9561  -15.7948 C   0  0  0  0  0  0  0  0  0  0  0  0
   -8.4842    4.0379  -17.3418 C   0  0  2  0  0  0  0  0  0  0  0  0
   -8.6623    2.8025  -17.8653 F   0  0  0  0  0  0  0  0  0  0  0  0
   -7.2678    4.7997  -17.9723 C   0  0  2  0  0  0  0  0  0  0  0  0
   -6.5166    4.3720  -19.1886 N   0  0  0  0  0  0  0  0  0  0  0  0
   -5.3437    5.2853  -19.1976 C   0  0  2  0  0  0  0  0  0  0  0  0
   -4.1869    5.1256  -20.1987 C   0  0  0  0  0  0  0  0  0  0  0  0
   -2.9976    5.9121  -19.7935 N   0  0  0  0  0  0  0  0  0  0  0  0
   -2.5503    5.5658  -18.4184 C   0  0  1  0  0  0  0  0  0  0  0  0
   -1.2314    6.2963  -18.0321 C   0  0  0  0  0  0  0  0  0  0  0  0
   -1.3884    7.4771  -17.1610 N   0  0  0  0  0  0  0  0  0  0  0  0
   -2.5844    8.2224  -17.5474 C   0  0  0  0  0  0  0  0  0  0  0  0
   -3.8646    7.4236  -17.2832 C   0  0  0  0  0  0  0  0  0  0  0  0
   -3.6491    5.9006  -17.3931 C   0  0  1  0  0  0  0  0  0  0  0  0
   -4.8864    5.0895  -17.7532 C   0  0  1  0  0  0  0  0  0  0  0  0
   -6.1807    5.3467  -17.0162 C   0  0  2  0  0  0  0  0  0  0  0  0
   -6.2897    4.9871  -15.5458 C   0  0  0  0  0  0  0  0  0  0  0  0
  1  2  2  0
  2  3  1  0
  3  4  1  0
  4  5  2  0
  5  6  1  0
  6  7  1  0
  6  8  2  0
  8  9  1  0
  9 10  2  0
  9 11  1  0
 11 12  1  0
 12 13  1  0
 13 14  1  0
 14 15  1  0
 15 16  1  0
 16 17  1  0
 18  2  1  1
 18 19  1  0
 19 20  1  0
 20 21  1  6
 20 22  1  0
 22 23  1  6
 23 24  1  0
 24 25  1  6
 25 26  1  0
 26 27  1  0
 27 28  1  1
 28 29  1  0
 29 30  1  0
 30 31  1  0
 32 31  1  6
 32 33  1  0
 33 34  1  0
 34 35  1  1
 10  4  1  0
 17 13  1  0
 35 18  1  0
 13  8  1  0
 34 22  1  0
 33 24  1  6
 32 27  1  0
M  END
>  <smiles>  (2168) 
C32699-P254

>  <fragmenstein_outcome>  (2168) 
acceptable

>  <inchikey>  (2168) 
NMVDLTXXDUXRMH-UHFFFAOYSA-N

>  <fragmenstein_mode>  (2168) 
expansion

>  <HIPPO Pose ID>  (2168) 
26266

>  <Energy>  (2168) 
151.871431

>  <fragmenstein_error>  (2168) 


>  <tags>  (2168) 
{'openbind_xx01zvns2b_c1_fragmenstein', 'fragmenstein_placed'}

>  <ref_pdb>  (2168) 
175

>  <scratch_subdir>  (2168) 
/opt/xchem-fragalysis-2/maxwin/BulkDock/SCRATCH/511028/C32699-P254

>  <alias>  (2168) 
O=C(Nc1cc(F)c2c(c1)CNC21CCCC1)[C@H]1C[C@@H]2[C@@H](N[C@@H]3CN[C@H]4CNCC[C@H]4[C@@H]23)[C@@H](F)C1

>  <HIPPO Compound ID>  (2168) 
33697

>  <fragmenstein_runtime>  (2168) 
7.535337

$$$$
O=C(Nc1ccc2c(c1)CN(C(F)F)C2)[C@@H]1C[C@@H]2[C@@H](N[C@@H]3CN[C@@H]4CNCC[C@H]4[C@@H]23)[C@@H](F)C1
     RDKit          3D

 33 38  0  0  0  0  0  0  0  0999 V2000
   -7.7504    6.2734  -13.6143 O   0  0  0  0  0  0  0  0  0  0  0  0
   -7.8105    5.1083  -13.7197 C   0  0  0  0  0  0  0  0  0  0  0  0
   -7.9792    4.0027  -12.6324 N   0  0  0  0  0  0  0  0  0  0  0  0
   -8.1944    4.1091  -11.2619 C   0  0  0  0  0  0  0  0  0  0  0  0
   -8.1098    5.3413  -10.5985 C   0  0  0  0  0  0  0  0  0  0  0  0
   -8.2515    5.4108   -9.2087 C   0  0  0  0  0  0  0  0  0  0  0  0
   -8.5042    4.2410   -8.5125 C   0  0  0  0  0  0  0  0  0  0  0  0
   -8.6178    3.0237   -9.1707 C   0  0  0  0  0  0  0  0  0  0  0  0
   -8.4505    2.9362  -10.5428 C   0  0  0  0  0  0  0  0  0  0  0  0
   -8.9338    1.9420   -8.1862 C   0  0  0  0  0  0  0  0  0  0  0  0
   -8.9522    2.6020   -6.8608 N   0  0  0  0  0  0  0  0  0  0  0  0
  -10.2035    2.3711   -6.1877 C   0  0  0  0  0  0  0  0  0  0  0  0
  -10.1642    2.9429   -4.9540 F   0  0  0  0  0  0  0  0  0  0  0  0
  -10.4011    1.0461   -6.0104 F   0  0  0  0  0  0  0  0  0  0  0  0
   -8.7021    4.0370   -7.0475 C   0  0  0  0  0  0  0  0  0  0  0  0
   -7.6118    4.3948  -15.0722 C   0  0  1  0  0  0  0  0  0  0  0  0
   -8.8501    4.5653  -15.9417 C   0  0  0  0  0  0  0  0  0  0  0  0
   -8.6468    4.1839  -17.4051 C   0  0  2  0  0  0  0  0  0  0  0  0
   -8.5636    2.8379  -17.4807 F   0  0  0  0  0  0  0  0  0  0  0  0
   -7.4268    4.8709  -18.0388 C   0  0  2  0  0  0  0  0  0  0  0  0
   -6.7639    4.3543  -19.2512 N   0  0  0  0  0  0  0  0  0  0  0  0
   -5.5562    5.2065  -19.3466 C   0  0  2  0  0  0  0  0  0  0  0  0
   -4.5040    4.9171  -20.4252 C   0  0  0  0  0  0  0  0  0  0  0  0
   -3.1117    5.1509  -20.0042 N   0  0  0  0  0  0  0  0  0  0  0  0
   -3.0102    6.2040  -18.9911 C   0  0  2  0  0  0  0  0  0  0  0  0
   -1.5430    6.5462  -18.6061 C   0  0  0  0  0  0  0  0  0  0  0  0
   -1.4112    7.3377  -17.3617 N   0  0  0  0  0  0  0  0  0  0  0  0
   -2.6331    8.0812  -17.0600 C   0  0  0  0  0  0  0  0  0  0  0  0
   -3.8563    7.1671  -16.8641 C   0  0  0  0  0  0  0  0  0  0  0  0
   -3.7472    5.8646  -17.6791 C   0  0  1  0  0  0  0  0  0  0  0  0
   -5.0248    5.0649  -17.9291 C   0  0  1  0  0  0  0  0  0  0  0  0
   -6.2875    5.3154  -17.1132 C   0  0  2  0  0  0  0  0  0  0  0  0
   -6.2738    4.8463  -15.6756 C   0  0  0  0  0  0  0  0  0  0  0  0
  1  2  2  0
  2  3  1  0
  3  4  1  0
  4  5  2  0
  5  6  1  0
  6  7  2  0
  7  8  1  0
  8  9  2  0
  8 10  1  0
 10 11  1  0
 11 12  1  0
 12 13  1  0
 12 14  1  0
 11 15  1  0
 16  2  1  1
 16 17  1  0
 17 18  1  0
 18 19  1  1
 18 20  1  0
 20 21  1  6
 21 22  1  0
 22 23  1  6
 23 24  1  0
 24 25  1  0
 25 26  1  1
 26 27  1  0
 27 28  1  0
 28 29  1  0
 30 29  1  6
 30 31  1  0
 31 32  1  0
 32 33  1  1
  9  4  1  0
 33 16  1  0
 15  7  1  0
 32 20  1  0
 31 22  1  6
 30 25  1  0
M  END
>  <smiles>  (2169) 
C32702-P254

>  <fragmenstein_outcome>  (2169) 
acceptable

>  <inchikey>  (2169) 
DEAJZBIOBCNNGB-UHFFFAOYSA-N

>  <fragmenstein_mode>  (2169) 
expansion

>  <HIPPO Pose ID>  (2169) 
26267

>  <Energy>  (2169) 
111.739486

>  <fragmenstein_error>  (2169) 


>  <tags>  (2169) 
{'openbind_xx01zvns2b_c1_fragmenstein', 'fragmenstein_placed'}

>  <ref_pdb>  (2169) 
175

>  <scratch_subdir>  (2169) 
/opt/xchem-fragalysis-2/maxwin/BulkDock/SCRATCH/511028/C32702-P254

>  <alias>  (2169) 
O=C(Nc1ccc2c(c1)CN(C(F)F)C2)[C@@H]1C[C@@H]2[C@@H](N[C@@H]3CN[C@@H]4CNCC[C@H]4[C@@H]23)[C@@H](F)C1

>  <HIPPO Compound ID>  (2169) 
32702

>  <fragmenstein_runtime>  (2169) 
8.852227

$$$$
O=Nc1cc(C(=O)Nc2ccc3c(c2)CNC3)cc2c(C3CCNCC3)c[nH]c12
     RDKit          3D

 29 33  0  0  0  0  0  0  0  0999 V2000
   -9.2261    2.5340  -17.8315 O   0  0  0  0  0  0  0  0  0  0  0  0
   -9.3990    3.7151  -17.5151 N   0  0  0  0  0  0  0  0  0  0  0  0
   -8.2863    4.2170  -16.8937 C   0  0  0  0  0  0  0  0  0  0  0  0
   -8.2670    4.4033  -15.5091 C   0  0  0  0  0  0  0  0  0  0  0  0
   -7.1475    4.9615  -14.8975 C   0  0  0  0  0  0  0  0  0  0  0  0
   -7.1937    5.3392  -13.4614 C   0  0  0  0  0  0  0  0  0  0  0  0
   -6.9395    6.4442  -13.1806 O   0  0  0  0  0  0  0  0  0  0  0  0
   -7.6340    4.1544  -12.5704 N   0  0  0  0  0  0  0  0  0  0  0  0
   -7.9349    4.1073  -11.2090 C   0  0  0  0  0  0  0  0  0  0  0  0
   -7.8006    5.2448  -10.3954 C   0  0  0  0  0  0  0  0  0  0  0  0
   -8.0847    5.1879   -9.0262 C   0  0  0  0  0  0  0  0  0  0  0  0
   -8.5044    3.9830   -8.4960 C   0  0  0  0  0  0  0  0  0  0  0  0
   -8.6370    2.8538   -9.2982 C   0  0  0  0  0  0  0  0  0  0  0  0
   -8.3615    2.8965  -10.6556 C   0  0  0  0  0  0  0  0  0  0  0  0
   -9.0521    1.7003   -8.4454 C   0  0  0  0  0  0  0  0  0  0  0  0
   -9.5309    2.3106   -7.1770 N   0  0  0  0  0  0  0  0  0  0  0  0
   -8.8505    3.6218   -7.0899 C   0  0  0  0  0  0  0  0  0  0  0  0
   -6.0212    5.3339  -15.6492 C   0  0  0  0  0  0  0  0  0  0  0  0
   -6.0325    5.1778  -17.0526 C   0  0  0  0  0  0  0  0  0  0  0  0
   -5.1244    5.5157  -18.1100 C   0  0  0  0  0  0  0  0  0  0  0  0
   -3.7797    6.1759  -18.0282 C   0  0  0  0  0  0  0  0  0  0  0  0
   -3.8644    7.5998  -17.4658 C   0  0  0  0  0  0  0  0  0  0  0  0
   -2.4815    8.2411  -17.4274 C   0  0  0  0  0  0  0  0  0  0  0  0
   -1.5376    7.4261  -16.6651 N   0  0  0  0  0  0  0  0  0  0  0  0
   -1.4041    6.0828  -17.2330 C   0  0  0  0  0  0  0  0  0  0  0  0
   -2.7433    5.3505  -17.2622 C   0  0  0  0  0  0  0  0  0  0  0  0
   -5.7415    5.1594  -19.2916 C   0  0  0  0  0  0  0  0  0  0  0  0
   -6.9719    4.6374  -19.0067 N   0  0  0  0  0  0  0  0  0  0  0  0
   -7.1737    4.6319  -17.6438 C   0  0  0  0  0  0  0  0  0  0  0  0
  1  2  2  0
  2  3  1  0
  3  4  2  0
  4  5  1  0
  5  6  1  0
  6  7  2  0
  6  8  1  0
  8  9  1  0
  9 10  2  0
 10 11  1  0
 11 12  2  0
 12 13  1  0
 13 14  2  0
 13 15  1  0
 15 16  1  0
 16 17  1  0
  5 18  2  0
 18 19  1  0
 19 20  1  0
 20 21  1  0
 21 22  1  0
 22 23  1  0
 23 24  1  0
 24 25  1  0
 25 26  1  0
 20 27  2  0
 27 28  1  0
 28 29  1  0
 29  3  1  0
 14  9  1  0
 29 19  2  0
 17 12  1  0
 26 21  1  0
M  END
>  <smiles>  (2170) 
C32703-P254

>  <fragmenstein_outcome>  (2170) 
acceptable

>  <inchikey>  (2170) 
PBOQBIXZAYNIKD-UHFFFAOYSA-N

>  <fragmenstein_mode>  (2170) 
expansion

>  <HIPPO Pose ID>  (2170) 
26268

>  <Energy>  (2170) 
38.631355

>  <fragmenstein_error>  (2170) 


>  <tags>  (2170) 
{'openbind_xx01zvns2b_c1_fragmenstein', 'fragmenstein_placed'}

>  <ref_pdb>  (2170) 
175

>  <scratch_subdir>  (2170) 
/opt/xchem-fragalysis-2/maxwin/BulkDock/SCRATCH/511028/C32703-P254

>  <alias>  (2170) 
O=Nc1cc(C(=O)Nc2ccc3c(c2)CNC3)cc2c(C3CCNCC3)c[nH]c12

>  <HIPPO Compound ID>  (2170) 
19428

>  <fragmenstein_runtime>  (2170) 
8.422933

$$$$
NC1(c2c[nH]c3c(F)cc(C(=O)Nc4ccc5c(c4)CNC5)cc23)CCNCC1
     RDKit          3D

 29 33  0  0  0  0  0  0  0  0999 V2000
   -4.1937    7.6488  -17.1010 N   0  0  0  0  0  0  0  0  0  0  0  0
   -3.8015    6.3687  -17.7267 C   0  0  0  0  0  0  0  0  0  0  0  0
   -5.1129    5.6471  -18.0049 C   0  0  0  0  0  0  0  0  0  0  0  0
   -5.6463    5.2887  -19.2309 C   0  0  0  0  0  0  0  0  0  0  0  0
   -6.8741    4.7017  -19.0372 N   0  0  0  0  0  0  0  0  0  0  0  0
   -7.1575    4.6396  -17.6947 C   0  0  0  0  0  0  0  0  0  0  0  0
   -8.2847    4.1592  -17.0190 C   0  0  0  0  0  0  0  0  0  0  0  0
   -9.3105    3.6184  -17.6891 F   0  0  0  0  0  0  0  0  0  0  0  0
   -8.3767    4.3207  -15.6364 C   0  0  0  0  0  0  0  0  0  0  0  0
   -7.3423    4.9471  -14.9468 C   0  0  0  0  0  0  0  0  0  0  0  0
   -7.4859    5.3520  -13.5211 C   0  0  0  0  0  0  0  0  0  0  0  0
   -7.2115    6.4532  -13.2445 O   0  0  0  0  0  0  0  0  0  0  0  0
   -7.9930    4.1930  -12.6338 N   0  0  0  0  0  0  0  0  0  0  0  0
   -8.1722    4.1211  -11.2514 C   0  0  0  0  0  0  0  0  0  0  0  0
   -8.0052    5.2616  -10.4471 C   0  0  0  0  0  0  0  0  0  0  0  0
   -8.1650    5.1945   -9.0592 C   0  0  0  0  0  0  0  0  0  0  0  0
   -8.4976    3.9763   -8.4973 C   0  0  0  0  0  0  0  0  0  0  0  0
   -8.6664    2.8465   -9.2879 C   0  0  0  0  0  0  0  0  0  0  0  0
   -8.5093    2.8984  -10.6661 C   0  0  0  0  0  0  0  0  0  0  0  0
   -8.9855    1.6785   -8.4165 C   0  0  0  0  0  0  0  0  0  0  0  0
   -9.2143    2.2302   -7.0556 N   0  0  0  0  0  0  0  0  0  0  0  0
   -8.7169    3.6210   -7.0669 C   0  0  0  0  0  0  0  0  0  0  0  0
   -6.1891    5.3795  -15.6226 C   0  0  0  0  0  0  0  0  0  0  0  0
   -6.0889    5.2337  -17.0236 C   0  0  0  0  0  0  0  0  0  0  0  0
   -2.9064    5.5579  -16.7568 C   0  0  0  0  0  0  0  0  0  0  0  0
   -1.4127    5.8639  -16.8943 C   0  0  0  0  0  0  0  0  0  0  0  0
   -1.1770    7.2416  -17.3088 N   0  0  0  0  0  0  0  0  0  0  0  0
   -1.6696    7.4483  -18.6712 C   0  0  0  0  0  0  0  0  0  0  0  0
   -2.9683    6.6796  -18.9915 C   0  0  0  0  0  0  0  0  0  0  0  0
  1  2  1  0
  2  3  1  0
  3  4  2  0
  4  5  1  0
  5  6  1  0
  6  7  2  0
  7  8  1  0
  7  9  1  0
  9 10  2  0
 10 11  1  0
 11 12  2  0
 11 13  1  0
 13 14  1  0
 14 15  2  0
 15 16  1  0
 16 17  2  0
 17 18  1  0
 18 19  2  0
 18 20  1  0
 20 21  1  0
 21 22  1  0
 10 23  1  0
 23 24  2  0
  2 25  1  0
 25 26  1  0
 26 27  1  0
 27 28  1  0
 28 29  1  0
 29  2  1  0
 24  3  1  0
 24  6  1  0
 19 14  1  0
 22 17  1  0
M  END
>  <smiles>  (2171) 
C32706-P254

>  <fragmenstein_outcome>  (2171) 
acceptable

>  <inchikey>  (2171) 
XEEPQSVERQUIEH-UHFFFAOYSA-N

>  <fragmenstein_mode>  (2171) 
expansion

>  <HIPPO Pose ID>  (2171) 
26270

>  <Energy>  (2171) 
38.085412

>  <fragmenstein_error>  (2171) 


>  <tags>  (2171) 
{'openbind_xx01zvns2b_c1_fragmenstein', 'fragmenstein_placed'}

>  <ref_pdb>  (2171) 
175

>  <scratch_subdir>  (2171) 
/opt/xchem-fragalysis-2/maxwin/BulkDock/SCRATCH/511028/C32706-P254

>  <alias>  (2171) 
NC1(c2c[nH]c3c(F)cc(C(=O)Nc4ccc5c(c4)CNC5)cc23)CCNCC1

>  <HIPPO Compound ID>  (2171) 
21914

>  <fragmenstein_runtime>  (2171) 
7.997089

$$$$
CC(C)NC(=O)[C@](O)(Nc1ccc2c(c1)CNC2)c1cc(F)c2[nH]cc(C3CCNCC3)c2c1
     RDKit          3D

 34 38  0  0  0  0  0  0  0  0999 V2000
   -4.4592    3.5599   -9.9030 C   0  0  0  0  0  0  0  0  0  0  0  0
   -4.3447    3.1083  -11.3574 C   0  0  0  0  0  0  0  0  0  0  0  0
   -4.2081    1.5933  -11.4306 C   0  0  0  0  0  0  0  0  0  0  0  0
   -5.4849    3.5775  -12.1126 N   0  0  0  0  0  0  0  0  0  0  0  0
   -5.9101    5.0219  -12.5087 C   0  0  0  0  0  0  0  0  0  0  0  0
   -5.3606    6.0468  -12.3501 O   0  0  0  0  0  0  0  0  0  0  0  0
   -7.3856    4.9884  -13.1760 C   0  0  2  0  0  0  0  0  0  0  0  0
   -7.9538    6.2982  -13.1142 O   0  0  0  0  0  0  0  0  0  0  0  0
   -8.2766    4.0675  -12.4692 N   0  0  0  0  0  0  0  0  0  0  0  0
   -8.3650    4.0306  -11.0753 C   0  0  0  0  0  0  0  0  0  0  0  0
   -8.1663    5.1614  -10.2559 C   0  0  0  0  0  0  0  0  0  0  0  0
   -8.2507    5.0934   -8.8592 C   0  0  0  0  0  0  0  0  0  0  0  0
   -8.5634    3.8807   -8.2823 C   0  0  0  0  0  0  0  0  0  0  0  0
   -8.7807    2.7594   -9.0679 C   0  0  0  0  0  0  0  0  0  0  0  0
   -8.6972    2.8189  -10.4515 C   0  0  0  0  0  0  0  0  0  0  0  0
   -9.0561    1.5877   -8.1884 C   0  0  0  0  0  0  0  0  0  0  0  0
   -9.2741    2.1470   -6.8288 N   0  0  0  0  0  0  0  0  0  0  0  0
   -8.7288    3.5204   -6.8464 C   0  0  0  0  0  0  0  0  0  0  0  0
   -7.3552    4.7086  -14.6822 C   0  0  0  0  0  0  0  0  0  0  0  0
   -8.4785    4.2314  -15.3833 C   0  0  0  0  0  0  0  0  0  0  0  0
   -8.4927    4.1218  -16.7794 C   0  0  0  0  0  0  0  0  0  0  0  0
   -9.5902    3.6829  -17.4110 F   0  0  0  0  0  0  0  0  0  0  0  0
   -7.3759    4.5483  -17.4949 C   0  0  0  0  0  0  0  0  0  0  0  0
   -7.1411    4.6342  -18.8470 N   0  0  0  0  0  0  0  0  0  0  0  0
   -5.9002    5.1849  -19.0685 C   0  0  0  0  0  0  0  0  0  0  0  0
   -5.3212    5.4715  -17.8485 C   0  0  0  0  0  0  0  0  0  0  0  0
   -4.0038    6.1331  -17.5615 C   0  0  0  0  0  0  0  0  0  0  0  0
   -3.7587    7.3934  -18.3881 C   0  0  0  0  0  0  0  0  0  0  0  0
   -2.4889    8.1037  -17.9052 C   0  0  0  0  0  0  0  0  0  0  0  0
   -1.4683    7.2065  -17.3564 N   0  0  0  0  0  0  0  0  0  0  0  0
   -1.5066    5.8872  -17.9821 C   0  0  0  0  0  0  0  0  0  0  0  0
   -2.8179    5.1650  -17.6690 C   0  0  0  0  0  0  0  0  0  0  0  0
   -6.2482    5.0439  -16.8500 C   0  0  0  0  0  0  0  0  0  0  0  0
   -6.2362    5.1004  -15.4401 C   0  0  0  0  0  0  0  0  0  0  0  0
  1  2  1  0
  2  3  1  0
  2  4  1  0
  4  5  1  0
  5  6  2  0
  5  7  1  0
  7  8  1  6
  7  9  1  0
  9 10  1  0
 10 11  2  0
 11 12  1  0
 12 13  2  0
 13 14  1  0
 14 15  2  0
 14 16  1  0
 16 17  1  0
 17 18  1  0
  7 19  1  0
 19 20  2  0
 20 21  1  0
 21 22  1  0
 21 23  2  0
 23 24  1  0
 24 25  1  0
 25 26  2  0
 26 27  1  0
 27 28  1  0
 28 29  1  0
 29 30  1  0
 30 31  1  0
 31 32  1  0
 26 33  1  0
 33 34  2  0
 15 10  1  0
 34 19  1  0
 18 13  1  0
 33 23  1  0
 32 27  1  0
M  END
>  <smiles>  (2172) 
C32631-P254

>  <fragmenstein_outcome>  (2172) 
acceptable

>  <inchikey>  (2172) 
DCGVTOIURCOUTG-UHFFFAOYSA-N

>  <fragmenstein_mode>  (2172) 
expansion

>  <HIPPO Pose ID>  (2172) 
26274

>  <Energy>  (2172) 
93.378199

>  <fragmenstein_error>  (2172) 


>  <tags>  (2172) 
{'openbind_xx01zvns2b_c1_fragmenstein', 'fragmenstein_placed'}

>  <ref_pdb>  (2172) 
175

>  <scratch_subdir>  (2172) 
/opt/xchem-fragalysis-2/maxwin/BulkDock/SCRATCH/511028/C32631-P254

>  <alias>  (2172) 
CC(C)NC(=O)[C@](O)(Nc1ccc2c(c1)CNC2)c1cc(F)c2[nH]cc(C3CCNCC3)c2c1

>  <HIPPO Compound ID>  (2172) 
32631

>  <fragmenstein_runtime>  (2172) 
8.205008

$$$$
NC[C@H]1Nc2[nH]c3c(F)cc(C(=O)Nc4ccc5c(c4)CNC5)cc3c2[C@@H]2CCNC[C@H]12
     RDKit          3D

 32 37  0  0  0  0  0  0  0  0999 V2000
   -3.1015    5.4194  -22.3744 N   0  0  0  0  0  0  0  0  0  0  0  0
   -2.5692    5.3390  -21.0025 C   0  0  0  0  0  0  0  0  0  0  0  0
   -3.5225    5.9017  -19.9119 C   0  0  1  0  0  0  0  0  0  0  0  0
   -4.8538    5.2569  -20.0775 N   0  0  0  0  0  0  0  0  0  0  0  0
   -5.6349    5.1136  -18.9911 C   0  0  0  0  0  0  0  0  0  0  0  0
   -6.9262    4.6457  -18.9925 N   0  0  0  0  0  0  0  0  0  0  0  0
   -7.3760    4.5674  -17.6830 C   0  0  0  0  0  0  0  0  0  0  0  0
   -8.5931    4.1567  -17.1222 C   0  0  0  0  0  0  0  0  0  0  0  0
   -9.6155    3.7425  -17.8830 F   0  0  0  0  0  0  0  0  0  0  0  0
   -8.7751    4.2775  -15.7370 C   0  0  0  0  0  0  0  0  0  0  0  0
   -7.7730    4.8241  -14.9420 C   0  0  0  0  0  0  0  0  0  0  0  0
   -7.9743    5.2491  -13.5360 C   0  0  0  0  0  0  0  0  0  0  0  0
   -7.7866    6.3754  -13.2930 O   0  0  0  0  0  0  0  0  0  0  0  0
   -8.3100    4.0687  -12.6046 N   0  0  0  0  0  0  0  0  0  0  0  0
   -8.3900    4.0063  -11.2118 C   0  0  0  0  0  0  0  0  0  0  0  0
   -8.1859    5.1577  -10.4299 C   0  0  0  0  0  0  0  0  0  0  0  0
   -8.2539    5.1046   -9.0337 C   0  0  0  0  0  0  0  0  0  0  0  0
   -8.5427    3.8908   -8.4405 C   0  0  0  0  0  0  0  0  0  0  0  0
   -8.7376    2.7488   -9.2081 C   0  0  0  0  0  0  0  0  0  0  0  0
   -8.6572    2.7846  -10.5931 C   0  0  0  0  0  0  0  0  0  0  0  0
   -9.0019    1.5904   -8.3061 C   0  0  0  0  0  0  0  0  0  0  0  0
   -9.2137    2.1684   -6.9540 N   0  0  0  0  0  0  0  0  0  0  0  0
   -8.6991    3.5522   -6.9975 C   0  0  0  0  0  0  0  0  0  0  0  0
   -6.5432    5.1814  -15.4944 C   0  0  0  0  0  0  0  0  0  0  0  0
   -6.3458    5.0554  -16.8740 C   0  0  0  0  0  0  0  0  0  0  0  0
   -5.2664    5.3971  -17.7085 C   0  0  0  0  0  0  0  0  0  0  0  0
   -3.9508    5.9968  -17.3685 C   0  0  2  0  0  0  0  0  0  0  0  0
   -4.0900    7.5122  -17.1298 C   0  0  0  0  0  0  0  0  0  0  0  0
   -2.8167    8.2909  -17.4347 C   0  0  0  0  0  0  0  0  0  0  0  0
   -1.6289    7.4752  -17.2282 N   0  0  0  0  0  0  0  0  0  0  0  0
   -1.5785    6.3896  -18.2129 C   0  0  0  0  0  0  0  0  0  0  0  0
   -2.9230    5.6565  -18.4732 C   0  0  2  0  0  0  0  0  0  0  0  0
  1  2  1  0
  3  2  1  6
  3  4  1  0
  4  5  1  0
  5  6  1  0
  6  7  1  0
  7  8  2  0
  8  9  1  0
  8 10  1  0
 10 11  2  0
 11 12  1  0
 12 13  2  0
 12 14  1  0
 14 15  1  0
 15 16  2  0
 16 17  1  0
 17 18  2  0
 18 19  1  0
 19 20  2  0
 19 21  1  0
 21 22  1  0
 22 23  1  0
 11 24  1  0
 24 25  2  0
 25 26  1  0
 26 27  1  0
 27 28  1  6
 28 29  1  0
 29 30  1  0
 30 31  1  0
 32 31  1  1
 32  3  1  0
 26  5  2  0
 32 27  1  0
 25  7  1  0
 20 15  1  0
 23 18  1  0
M  END
>  <smiles>  (2173) 
C32713-P254

>  <fragmenstein_outcome>  (2173) 
acceptable

>  <inchikey>  (2173) 
XUDOREOZCWVXJX-UHFFFAOYSA-N

>  <fragmenstein_mode>  (2173) 
expansion

>  <HIPPO Pose ID>  (2173) 
26279

>  <Energy>  (2173) 
67.062065

>  <fragmenstein_error>  (2173) 


>  <tags>  (2173) 
{'openbind_xx01zvns2b_c1_fragmenstein', 'fragmenstein_placed'}

>  <ref_pdb>  (2173) 
175

>  <scratch_subdir>  (2173) 
/opt/xchem-fragalysis-2/maxwin/BulkDock/SCRATCH/511028/C32713-P254

>  <alias>  (2173) 
NC[C@H]1Nc2[nH]c3c(F)cc(C(=O)Nc4ccc5c(c4)CNC5)cc3c2[C@@H]2CCNC[C@H]12

>  <HIPPO Compound ID>  (2173) 
27177

>  <fragmenstein_runtime>  (2173) 
8.587838

$$$$
Nc1ccc(C(=O)NC2CCC3(CC2)CNC3)cc1
     RDKit          3D

 19 21  0  0  0  0  0  0  0  0999 V2000
   -7.8235    4.1020  -19.4163 N   0  0  0  0  0  0  0  0  0  0  0  0
   -7.8284    4.5040  -18.0765 C   0  0  0  0  0  0  0  0  0  0  0  0
   -6.7446    5.2182  -17.5605 C   0  0  0  0  0  0  0  0  0  0  0  0
   -6.6981    5.5556  -16.2058 C   0  0  0  0  0  0  0  0  0  0  0  0
   -7.7237    5.1418  -15.3523 C   0  0  0  0  0  0  0  0  0  0  0  0
   -7.6885    5.5445  -13.9156 C   0  0  0  0  0  0  0  0  0  0  0  0
   -7.3562    6.6297  -13.6496 O   0  0  0  0  0  0  0  0  0  0  0  0
   -8.1079    4.3767  -13.0028 N   0  0  0  0  0  0  0  0  0  0  0  0
   -8.2991    4.3258  -11.5683 C   0  0  0  0  0  0  0  0  0  0  0  0
   -8.8635    2.9710  -11.1572 C   0  0  0  0  0  0  0  0  0  0  0  0
   -9.1312    2.8934   -9.6610 C   0  0  0  0  0  0  0  0  0  0  0  0
   -7.9701    3.4350   -8.8282 C   0  0  0  0  0  0  0  0  0  0  0  0
   -6.7054    3.6726   -9.6643 C   0  0  0  0  0  0  0  0  0  0  0  0
   -7.0015    4.6499  -10.8127 C   0  0  0  0  0  0  0  0  0  0  0  0
   -8.2620    4.6116   -7.8497 C   0  0  0  0  0  0  0  0  0  0  0  0
   -7.5340    3.8709   -6.7909 N   0  0  0  0  0  0  0  0  0  0  0  0
   -7.8677    2.6163   -7.5047 C   0  0  0  0  0  0  0  0  0  0  0  0
   -8.7906    4.4001  -15.8624 C   0  0  0  0  0  0  0  0  0  0  0  0
   -8.8322    4.0684  -17.2152 C   0  0  0  0  0  0  0  0  0  0  0  0
  1  2  1  0
  2  3  2  0
  3  4  1  0
  4  5  2  0
  5  6  1  0
  6  7  2  0
  6  8  1  0
  8  9  1  0
  9 10  1  0
 10 11  1  0
 11 12  1  0
 12 13  1  0
 13 14  1  0
 12 15  1  0
 15 16  1  0
 16 17  1  0
  5 18  1  0
 18 19  2  0
 19  2  1  0
 14  9  1  0
 17 12  1  0
M  END
>  <smiles>  (2174) 
C32722-P111

>  <fragmenstein_outcome>  (2174) 
acceptable

>  <inchikey>  (2174) 
RVHXGBWYROWIJR-UHFFFAOYSA-N

>  <fragmenstein_mode>  (2174) 
expansion

>  <HIPPO Pose ID>  (2174) 
26312

>  <Energy>  (2174) 
48.5909

>  <fragmenstein_error>  (2174) 


>  <tags>  (2174) 
{'openbind_xx01zvns2b_c1_fragmenstein', 'fragmenstein_placed'}

>  <ref_pdb>  (2174) 
175

>  <scratch_subdir>  (2174) 
/opt/xchem-fragalysis-2/maxwin/BulkDock/SCRATCH/511028/C32722-P111

>  <alias>  (2174) 
Nc1ccc(C(=O)NC2CCC3(CC2)CNC3)cc1

>  <HIPPO Compound ID>  (2174) 
32722

>  <fragmenstein_runtime>  (2174) 
4.693053

$$$$
CN(C)Cn1cc2c(C(=O)Nc3ccc4c(c3)CNC4)cc(Cl)cc2c1C1CNC1
     RDKit          3D

 30 34  0  0  0  0  0  0  0  0999 V2000
   -1.0365    7.6439  -17.0824 C   0  0  0  0  0  0  0  0  0  0  0  0
   -2.4834    7.5027  -16.8927 N   0  0  0  0  0  0  0  0  0  0  0  0
   -3.1524    8.7892  -17.0820 C   0  0  0  0  0  0  0  0  0  0  0  0
   -2.9670    6.4921  -17.8308 C   0  0  0  0  0  0  0  0  0  0  0  0
   -4.3238    6.0062  -17.5387 N   0  0  0  0  0  0  0  0  0  0  0  0
   -4.9026    5.8790  -16.2840 C   0  0  0  0  0  0  0  0  0  0  0  0
   -6.1406    5.3037  -16.4412 C   0  0  0  0  0  0  0  0  0  0  0  0
   -7.1131    5.0279  -15.4688 C   0  0  0  0  0  0  0  0  0  0  0  0
   -7.0760    5.4541  -14.0551 C   0  0  0  0  0  0  0  0  0  0  0  0
   -6.7641    6.5529  -13.8084 O   0  0  0  0  0  0  0  0  0  0  0  0
   -7.5806    4.3208  -13.1263 N   0  0  0  0  0  0  0  0  0  0  0  0
   -7.8855    4.3333  -11.7644 C   0  0  0  0  0  0  0  0  0  0  0  0
   -7.8428    5.5214  -11.0175 C   0  0  0  0  0  0  0  0  0  0  0  0
   -8.1288    5.5195   -9.6468 C   0  0  0  0  0  0  0  0  0  0  0  0
   -8.4589    4.3180   -9.0476 C   0  0  0  0  0  0  0  0  0  0  0  0
   -8.5248    3.1418   -9.7866 C   0  0  0  0  0  0  0  0  0  0  0  0
   -8.2437    3.1302  -11.1444 C   0  0  0  0  0  0  0  0  0  0  0  0
   -8.8685    2.0101   -8.8729 C   0  0  0  0  0  0  0  0  0  0  0  0
   -9.3129    2.6494   -7.6060 N   0  0  0  0  0  0  0  0  0  0  0  0
   -8.7294    4.0066   -7.6142 C   0  0  0  0  0  0  0  0  0  0  0  0
   -8.2942    4.4875  -16.0414 C   0  0  0  0  0  0  0  0  0  0  0  0
   -8.4448    4.2473  -17.4446 C   0  0  0  0  0  0  0  0  0  0  0  0
   -9.9951    3.7523  -18.0175 Cl  0  0  0  0  0  0  0  0  0  0  0  0
   -7.4479    4.4889  -18.4122 C   0  0  0  0  0  0  0  0  0  0  0  0
   -6.3058    5.0397  -17.8373 C   0  0  0  0  0  0  0  0  0  0  0  0
   -5.1696    5.4542  -18.4980 C   0  0  0  0  0  0  0  0  0  0  0  0
   -4.9234    5.3240  -20.0540 C   0  0  0  0  0  0  0  0  0  0  0  0
   -3.4942    5.0467  -20.5586 C   0  0  0  0  0  0  0  0  0  0  0  0
   -3.5970    6.1853  -21.4863 N   0  0  0  0  0  0  0  0  0  0  0  0
   -4.8251    6.6547  -20.8179 C   0  0  0  0  0  0  0  0  0  0  0  0
  1  2  1  0
  2  3  1  0
  2  4  1  0
  4  5  1  0
  5  6  1  0
  6  7  2  0
  7  8  1  0
  8  9  1  0
  9 10  2  0
  9 11  1  0
 11 12  1  0
 12 13  2  0
 13 14  1  0
 14 15  2  0
 15 16  1  0
 16 17  2  0
 16 18  1  0
 18 19  1  0
 19 20  1  0
  8 21  2  0
 21 22  1  0
 22 23  1  0
 22 24  2  0
 24 25  1  0
 25 26  2  0
 26 27  1  0
 27 28  1  0
 28 29  1  0
 29 30  1  0
 26  5  1  0
 30 27  1  0
 25  7  1  0
 17 12  1  0
 20 15  1  0
M  END
>  <smiles>  (2175) 
C33064-P256

>  <fragmenstein_outcome>  (2175) 
acceptable

>  <inchikey>  (2175) 
XITVNMPNYKYMNK-UHFFFAOYSA-N

>  <fragmenstein_mode>  (2175) 
expansion

>  <HIPPO Pose ID>  (2175) 
26444

>  <Energy>  (2175) 
109.294689

>  <fragmenstein_error>  (2175) 


>  <tags>  (2175) 
{'openbind_xx01zvns2b_c1_fragmenstein', 'fragmenstein_placed'}

>  <ref_pdb>  (2175) 
175

>  <scratch_subdir>  (2175) 
/opt/xchem-fragalysis-2/maxwin/BulkDock/SCRATCH/511028/C33064-P256

>  <alias>  (2175) 
CN(C)Cn1cc2c(C(=O)Nc3ccc4c(c3)CNC4)cc(Cl)cc2c1C1CNC1

>  <HIPPO Compound ID>  (2175) 
41100

>  <fragmenstein_runtime>  (2175) 
7.788248

$$$$
C[C@@H]1CNCC[C@H]1c1[nH]nc2c(N)cc(C(=O)Nc3ccc4c(c3)CNC4)cc12
     RDKit          3D

 29 33  0  0  0  0  0  0  0  0999 V2000
   -1.9053    6.0093  -19.7467 C   0  0  0  0  0  0  0  0  0  0  0  0
   -3.1610    6.4762  -18.9924 C   0  0  2  0  0  0  0  0  0  0  0  0
   -2.8983    7.8059  -18.2750 C   0  0  0  0  0  0  0  0  0  0  0  0
   -1.9821    7.6694  -17.1461 N   0  0  0  0  0  0  0  0  0  0  0  0
   -2.5689    6.7769  -16.1472 C   0  0  0  0  0  0  0  0  0  0  0  0
   -2.8122    5.3848  -16.7121 C   0  0  0  0  0  0  0  0  0  0  0  0
   -3.6115    5.3615  -18.0171 C   0  0  1  0  0  0  0  0  0  0  0  0
   -5.1105    5.1876  -17.9192 C   0  0  0  0  0  0  0  0  0  0  0  0
   -5.8088    4.8660  -19.0688 N   0  0  0  0  0  0  0  0  0  0  0  0
   -7.0626    4.4545  -18.8794 N   0  0  0  0  0  0  0  0  0  0  0  0
   -7.2703    4.5673  -17.5654 C   0  0  0  0  0  0  0  0  0  0  0  0
   -8.4426    4.2594  -16.8330 C   0  0  0  0  0  0  0  0  0  0  0  0
   -9.6175    3.7457  -17.4023 N   0  0  0  0  0  0  0  0  0  0  0  0
   -8.3182    4.4997  -15.4537 C   0  0  0  0  0  0  0  0  0  0  0  0
   -7.1292    5.0325  -14.8581 C   0  0  0  0  0  0  0  0  0  0  0  0
   -7.1640    5.4009  -13.4167 C   0  0  0  0  0  0  0  0  0  0  0  0
   -6.8246    6.4770  -13.1145 O   0  0  0  0  0  0  0  0  0  0  0  0
   -7.6812    4.2321  -12.5472 N   0  0  0  0  0  0  0  0  0  0  0  0
   -7.9685    4.1757  -11.1851 C   0  0  0  0  0  0  0  0  0  0  0  0
   -7.8593    5.3149  -10.3721 C   0  0  0  0  0  0  0  0  0  0  0  0
   -8.1207    5.2445   -8.9996 C   0  0  0  0  0  0  0  0  0  0  0  0
   -8.4926    4.0249   -8.4644 C   0  0  0  0  0  0  0  0  0  0  0  0
   -8.6157    2.8996   -9.2687 C   0  0  0  0  0  0  0  0  0  0  0  0
   -8.3608    2.9546  -10.6308 C   0  0  0  0  0  0  0  0  0  0  0  0
   -8.9948    1.7275   -8.4290 C   0  0  0  0  0  0  0  0  0  0  0  0
   -9.2766    2.2650   -7.0712 N   0  0  0  0  0  0  0  0  0  0  0  0
   -8.7880    3.6593   -7.0506 C   0  0  0  0  0  0  0  0  0  0  0  0
   -5.9420    5.3432  -15.5687 C   0  0  0  0  0  0  0  0  0  0  0  0
   -6.0730    5.0866  -16.9325 C   0  0  0  0  0  0  0  0  0  0  0  0
  2  1  1  1
  2  3  1  0
  3  4  1  0
  4  5  1  0
  5  6  1  0
  6  7  1  0
  7  8  1  1
  8  9  1  0
  9 10  1  0
 10 11  2  0
 11 12  1  0
 12 13  1  0
 12 14  2  0
 14 15  1  0
 15 16  1  0
 16 17  2  0
 16 18  1  0
 18 19  1  0
 19 20  2  0
 20 21  1  0
 21 22  2  0
 22 23  1  0
 23 24  2  0
 23 25  1  0
 25 26  1  0
 26 27  1  0
 15 28  2  0
 28 29  1  0
  7  2  1  0
 29  8  2  0
 29 11  1  0
 24 19  1  0
 27 22  1  0
M  END
>  <smiles>  (2176) 
C33077-P256

>  <fragmenstein_outcome>  (2176) 
acceptable

>  <inchikey>  (2176) 
HFCXSSHPHVKWBA-UHFFFAOYSA-N

>  <fragmenstein_mode>  (2176) 
expansion

>  <HIPPO Pose ID>  (2176) 
26451

>  <Energy>  (2176) 
83.432207

>  <fragmenstein_error>  (2176) 


>  <tags>  (2176) 
{'openbind_xx01zvns2b_c1_fragmenstein', 'fragmenstein_placed'}

>  <ref_pdb>  (2176) 
175

>  <scratch_subdir>  (2176) 
/opt/xchem-fragalysis-2/maxwin/BulkDock/SCRATCH/511028/C33077-P256

>  <alias>  (2176) 
C[C@@H]1CNCC[C@H]1c1[nH]nc2c(N)cc(C(=O)Nc3ccc4c(c3)CNC4)cc12

>  <HIPPO Compound ID>  (2176) 
29455

>  <fragmenstein_runtime>  (2176) 
5.255756

$$$$
Nn1nc2ccc(C(=O)Nc3ccc4c(c3)CNC4)cc2c1C1CCNCC1
     RDKit          3D

 28 32  0  0  0  0  0  0  0  0999 V2000
   -4.8214    5.1489  -20.1822 N   0  0  0  0  0  0  0  0  0  0  0  0
   -5.4837    5.0593  -18.9517 N   0  0  0  0  0  0  0  0  0  0  0  0
   -6.6715    4.4602  -18.8850 N   0  0  0  0  0  0  0  0  0  0  0  0
   -7.0550    4.5552  -17.6096 C   0  0  0  0  0  0  0  0  0  0  0  0
   -8.2379    4.1224  -16.9849 C   0  0  0  0  0  0  0  0  0  0  0  0
   -8.2973    4.4151  -15.6033 C   0  0  0  0  0  0  0  0  0  0  0  0
   -7.2404    5.0810  -14.9008 C   0  0  0  0  0  0  0  0  0  0  0  0
   -7.4342    5.4798  -13.4803 C   0  0  0  0  0  0  0  0  0  0  0  0
   -7.2328    6.5933  -13.1918 O   0  0  0  0  0  0  0  0  0  0  0  0
   -7.8982    4.2889  -12.6129 N   0  0  0  0  0  0  0  0  0  0  0  0
   -8.1127    4.1991  -11.2382 C   0  0  0  0  0  0  0  0  0  0  0  0
   -8.0102    5.3343  -10.4161 C   0  0  0  0  0  0  0  0  0  0  0  0
   -8.2275    5.2469   -9.0373 C   0  0  0  0  0  0  0  0  0  0  0  0
   -8.5683    4.0170   -8.5091 C   0  0  0  0  0  0  0  0  0  0  0  0
   -8.6721    2.8904   -9.3203 C   0  0  0  0  0  0  0  0  0  0  0  0
   -8.4381    2.9584  -10.6843 C   0  0  0  0  0  0  0  0  0  0  0  0
   -9.0337    1.7156   -8.4726 C   0  0  0  0  0  0  0  0  0  0  0  0
   -9.5099    2.2987   -7.1894 N   0  0  0  0  0  0  0  0  0  0  0  0
   -8.8683    3.6288   -7.1005 C   0  0  0  0  0  0  0  0  0  0  0  0
   -6.0375    5.5118  -15.5055 C   0  0  0  0  0  0  0  0  0  0  0  0
   -6.0224    5.2238  -16.8663 C   0  0  0  0  0  0  0  0  0  0  0  0
   -5.0297    5.5684  -17.7579 C   0  0  0  0  0  0  0  0  0  0  0  0
   -3.7255    6.2849  -17.5415 C   0  0  0  0  0  0  0  0  0  0  0  0
   -2.5439    5.3126  -17.5035 C   0  0  0  0  0  0  0  0  0  0  0  0
   -1.2394    6.0603  -17.2306 C   0  0  0  0  0  0  0  0  0  0  0  0
   -1.0081    7.1358  -18.1964 N   0  0  0  0  0  0  0  0  0  0  0  0
   -2.1105    8.0976  -18.1904 C   0  0  0  0  0  0  0  0  0  0  0  0
   -3.4505    7.4374  -18.5138 C   0  0  0  0  0  0  0  0  0  0  0  0
  1  2  1  0
  2  3  1  0
  3  4  2  0
  4  5  1  0
  5  6  2  0
  6  7  1  0
  7  8  1  0
  8  9  2  0
  8 10  1  0
 10 11  1  0
 11 12  2  0
 12 13  1  0
 13 14  2  0
 14 15  1  0
 15 16  2  0
 15 17  1  0
 17 18  1  0
 18 19  1  0
  7 20  2  0
 20 21  1  0
 21 22  2  0
 22 23  1  0
 23 24  1  0
 24 25  1  0
 25 26  1  0
 26 27  1  0
 27 28  1  0
 22  2  1  0
 28 23  1  0
 21  4  1  0
 16 11  1  0
 19 14  1  0
M  END
>  <smiles>  (2177) 
C33082-P256

>  <fragmenstein_outcome>  (2177) 
acceptable

>  <inchikey>  (2177) 
GQHAZXGWQQMAIL-UHFFFAOYSA-N

>  <fragmenstein_mode>  (2177) 
expansion

>  <HIPPO Pose ID>  (2177) 
26452

>  <Energy>  (2177) 
-16.009107

>  <fragmenstein_error>  (2177) 


>  <tags>  (2177) 
{'openbind_xx01zvns2b_c1_fragmenstein', 'fragmenstein_placed'}

>  <ref_pdb>  (2177) 
175

>  <scratch_subdir>  (2177) 
/opt/xchem-fragalysis-2/maxwin/BulkDock/SCRATCH/511028/C33082-P256

>  <alias>  (2177) 
Nn1nc2ccc(C(=O)Nc3ccc4c(c3)CNC4)cc2c1C1CCNCC1

>  <HIPPO Compound ID>  (2177) 
33082

>  <fragmenstein_runtime>  (2177) 
5.593444

$$$$
Cc1cc(C(=O)Nc2ccc3c(c2)CNC3)cc2c(C3CCNCC3)n(CN)nc12
     RDKit          3D

 30 34  0  0  0  0  0  0  0  0999 V2000
   -9.6278    3.7754  -17.4058 C   0  0  0  0  0  0  0  0  0  0  0  0
   -8.4670    4.3012  -16.6433 C   0  0  0  0  0  0  0  0  0  0  0  0
   -8.4366    4.5518  -15.2574 C   0  0  0  0  0  0  0  0  0  0  0  0
   -7.3012    5.1326  -14.5942 C   0  0  0  0  0  0  0  0  0  0  0  0
   -7.4147    5.5178  -13.1631 C   0  0  0  0  0  0  0  0  0  0  0  0
   -7.0766    6.5913  -12.8533 O   0  0  0  0  0  0  0  0  0  0  0  0
   -8.0031    4.3708  -12.3153 N   0  0  0  0  0  0  0  0  0  0  0  0
   -8.2037    4.2732  -10.9436 C   0  0  0  0  0  0  0  0  0  0  0  0
   -8.0195    5.3901  -10.1122 C   0  0  0  0  0  0  0  0  0  0  0  0
   -8.2126    5.2942   -8.7325 C   0  0  0  0  0  0  0  0  0  0  0  0
   -8.5953    4.0729   -8.2124 C   0  0  0  0  0  0  0  0  0  0  0  0
   -8.7790    2.9682   -9.0364 C   0  0  0  0  0  0  0  0  0  0  0  0
   -8.5895    3.0457  -10.4054 C   0  0  0  0  0  0  0  0  0  0  0  0
   -9.1334    1.7868   -8.2020 C   0  0  0  0  0  0  0  0  0  0  0  0
   -9.4225    2.3192   -6.8468 N   0  0  0  0  0  0  0  0  0  0  0  0
   -8.8577    3.6831   -6.7978 C   0  0  0  0  0  0  0  0  0  0  0  0
   -6.0919    5.5010  -15.2352 C   0  0  0  0  0  0  0  0  0  0  0  0
   -6.1579    5.2667  -16.6013 C   0  0  0  0  0  0  0  0  0  0  0  0
   -5.2397    5.6241  -17.5697 C   0  0  0  0  0  0  0  0  0  0  0  0
   -3.9105    6.3253  -17.6486 C   0  0  0  0  0  0  0  0  0  0  0  0
   -3.6826    7.4825  -16.6705 C   0  0  0  0  0  0  0  0  0  0  0  0
   -2.1921    7.7058  -16.3883 C   0  0  0  0  0  0  0  0  0  0  0  0
   -1.3862    7.4579  -17.5783 N   0  0  0  0  0  0  0  0  0  0  0  0
   -1.4350    6.0540  -17.9961 C   0  0  0  0  0  0  0  0  0  0  0  0
   -2.7401    5.3420  -17.6197 C   0  0  0  0  0  0  0  0  0  0  0  0
   -5.8344    5.1757  -18.7260 N   0  0  0  0  0  0  0  0  0  0  0  0
   -5.3404    5.2502  -20.0798 C   0  0  0  0  0  0  0  0  0  0  0  0
   -5.7772    6.5190  -20.6609 N   0  0  0  0  0  0  0  0  0  0  0  0
   -7.0101    4.5718  -18.5755 N   0  0  0  0  0  0  0  0  0  0  0  0
   -7.2806    4.6722  -17.2827 C   0  0  0  0  0  0  0  0  0  0  0  0
  1  2  1  0
  2  3  2  0
  3  4  1  0
  4  5  1  0
  5  6  2  0
  5  7  1  0
  7  8  1  0
  8  9  2  0
  9 10  1  0
 10 11  2  0
 11 12  1  0
 12 13  2  0
 12 14  1  0
 14 15  1  0
 15 16  1  0
  4 17  2  0
 17 18  1  0
 18 19  2  0
 19 20  1  0
 20 21  1  0
 21 22  1  0
 22 23  1  0
 23 24  1  0
 24 25  1  0
 19 26  1  0
 26 27  1  0
 27 28  1  0
 26 29  1  0
 29 30  2  0
 30  2  1  0
 13  8  1  0
 30 18  1  0
 16 11  1  0
 25 20  1  0
M  END
>  <smiles>  (2178) 
C33084-P257

>  <fragmenstein_outcome>  (2178) 
acceptable

>  <inchikey>  (2178) 
HTCMXUALPRQONI-UHFFFAOYSA-N

>  <fragmenstein_mode>  (2178) 
expansion

>  <HIPPO Pose ID>  (2178) 
26453

>  <Energy>  (2178) 
99.667001

>  <fragmenstein_error>  (2178) 


>  <tags>  (2178) 
{'openbind_xx01zvns2b_c1_fragmenstein', 'fragmenstein_placed'}

>  <ref_pdb>  (2178) 
175

>  <scratch_subdir>  (2178) 
/opt/xchem-fragalysis-2/maxwin/BulkDock/SCRATCH/511028/C33084-P257

>  <alias>  (2178) 
Cc1cc(C(=O)Nc2ccc3c(c2)CNC3)cc2c(C3CCNCC3)n(CN)nc12

>  <HIPPO Compound ID>  (2178) 
33084

>  <fragmenstein_runtime>  (2178) 
7.192015

$$$$
CNn1nc2ccc(C(=O)Nc3ccc4c(c3)CNC4)cc2c1C1CCNCC1
     RDKit          3D

 29 33  0  0  0  0  0  0  0  0999 V2000
   -5.3932    6.8083  -20.4046 C   0  0  0  0  0  0  0  0  0  0  0  0
   -5.2782    5.3795  -20.1295 N   0  0  0  0  0  0  0  0  0  0  0  0
   -5.7953    5.0747  -18.8644 N   0  0  0  0  0  0  0  0  0  0  0  0
   -6.9719    4.4465  -18.7767 N   0  0  0  0  0  0  0  0  0  0  0  0
   -7.3186    4.5190  -17.4917 C   0  0  0  0  0  0  0  0  0  0  0  0
   -8.5147    4.1484  -16.8565 C   0  0  0  0  0  0  0  0  0  0  0  0
   -8.5350    4.4405  -15.4757 C   0  0  0  0  0  0  0  0  0  0  0  0
   -7.4256    5.0275  -14.7864 C   0  0  0  0  0  0  0  0  0  0  0  0
   -7.5832    5.4577  -13.3752 C   0  0  0  0  0  0  0  0  0  0  0  0
   -7.3579    6.5732  -13.1153 O   0  0  0  0  0  0  0  0  0  0  0  0
   -8.0426    4.2933  -12.4728 N   0  0  0  0  0  0  0  0  0  0  0  0
   -8.2236    4.2350  -11.0945 C   0  0  0  0  0  0  0  0  0  0  0  0
   -8.0217    5.3691  -10.2904 C   0  0  0  0  0  0  0  0  0  0  0  0
   -8.1905    5.3045   -8.9042 C   0  0  0  0  0  0  0  0  0  0  0  0
   -8.5643    4.0961   -8.3478 C   0  0  0  0  0  0  0  0  0  0  0  0
   -8.7616    2.9733   -9.1428 C   0  0  0  0  0  0  0  0  0  0  0  0
   -8.5967    3.0205  -10.5174 C   0  0  0  0  0  0  0  0  0  0  0  0
   -9.1056    1.8114   -8.2761 C   0  0  0  0  0  0  0  0  0  0  0  0
   -9.3695    2.3749   -6.9282 N   0  0  0  0  0  0  0  0  0  0  0  0
   -8.8042    3.7394   -6.9201 C   0  0  0  0  0  0  0  0  0  0  0  0
   -6.1922    5.3515  -15.3931 C   0  0  0  0  0  0  0  0  0  0  0  0
   -6.2214    5.0841  -16.7555 C   0  0  0  0  0  0  0  0  0  0  0  0
   -5.1989    5.3323  -17.6487 C   0  0  0  0  0  0  0  0  0  0  0  0
   -3.7872    5.8081  -17.4012 C   0  0  0  0  0  0  0  0  0  0  0  0
   -3.7396    7.3176  -17.1252 C   0  0  0  0  0  0  0  0  0  0  0  0
   -2.3143    7.7744  -16.8252 C   0  0  0  0  0  0  0  0  0  0  0  0
   -1.3870    7.4078  -17.8936 N   0  0  0  0  0  0  0  0  0  0  0  0
   -1.3565    5.9562  -18.0843 C   0  0  0  0  0  0  0  0  0  0  0  0
   -2.7362    5.4104  -18.4513 C   0  0  0  0  0  0  0  0  0  0  0  0
  1  2  1  0
  2  3  1  0
  3  4  1  0
  4  5  2  0
  5  6  1  0
  6  7  2  0
  7  8  1  0
  8  9  1  0
  9 10  2  0
  9 11  1  0
 11 12  1  0
 12 13  2  0
 13 14  1  0
 14 15  2  0
 15 16  1  0
 16 17  2  0
 16 18  1  0
 18 19  1  0
 19 20  1  0
  8 21  2  0
 21 22  1  0
 22 23  2  0
 23 24  1  0
 24 25  1  0
 25 26  1  0
 26 27  1  0
 27 28  1  0
 28 29  1  0
 23  3  1  0
 29 24  1  0
 22  5  1  0
 17 12  1  0
 20 15  1  0
M  END
>  <smiles>  (2179) 
C33099-P257

>  <fragmenstein_outcome>  (2179) 
acceptable

>  <inchikey>  (2179) 
RZPWBYBLZYAIDC-UHFFFAOYSA-N

>  <fragmenstein_mode>  (2179) 
expansion

>  <HIPPO Pose ID>  (2179) 
26458

>  <Energy>  (2179) 
0.960485

>  <fragmenstein_error>  (2179) 


>  <tags>  (2179) 
{'openbind_xx01zvns2b_c1_fragmenstein', 'fragmenstein_placed'}

>  <ref_pdb>  (2179) 
175

>  <scratch_subdir>  (2179) 
/opt/xchem-fragalysis-2/maxwin/BulkDock/SCRATCH/511028/C33099-P257

>  <alias>  (2179) 
CNn1nc2ccc(C(=O)Nc3ccc4c(c3)CNC4)cc2c1C1CCNCC1

>  <HIPPO Compound ID>  (2179) 
32143

>  <fragmenstein_runtime>  (2179) 
4.046757

$$$$
Cc1cc([C@](O)(F)Nc2ccc3c(c2)CNC3)cc2c3n(nc12)CCCNC31CCNCC1
     RDKit          3D

 33 38  0  0  0  0  0  0  0  0999 V2000
   -9.4910    3.8459  -17.7515 C   0  0  0  0  0  0  0  0  0  0  0  0
   -8.3298    4.3217  -16.9555 C   0  0  0  0  0  0  0  0  0  0  0  0
   -8.3238    4.3623  -15.5380 C   0  0  0  0  0  0  0  0  0  0  0  0
   -7.2169    4.8289  -14.7506 C   0  0  0  0  0  0  0  0  0  0  0  0
   -7.1991    4.7967  -13.2268 C   0  0  2  0  0  0  0  0  0  0  0  0
   -6.8309    6.0894  -12.7923 O   0  0  0  0  0  0  0  0  0  0  0  0
   -6.2152    3.9824  -12.7611 F   0  0  0  0  0  0  0  0  0  0  0  0
   -8.4507    4.3870  -12.6289 N   0  0  0  0  0  0  0  0  0  0  0  0
   -8.4576    4.2840  -11.2185 C   0  0  0  0  0  0  0  0  0  0  0  0
   -8.3041    5.4216  -10.3952 C   0  0  0  0  0  0  0  0  0  0  0  0
   -8.3624    5.3369   -9.0004 C   0  0  0  0  0  0  0  0  0  0  0  0
   -8.6317    4.1061   -8.4399 C   0  0  0  0  0  0  0  0  0  0  0  0
   -8.7921    2.9767   -9.2355 C   0  0  0  0  0  0  0  0  0  0  0  0
   -8.6934    3.0414  -10.6149 C   0  0  0  0  0  0  0  0  0  0  0  0
   -9.0877    1.8057   -8.3605 C   0  0  0  0  0  0  0  0  0  0  0  0
   -9.4943    2.3974   -7.0587 N   0  0  0  0  0  0  0  0  0  0  0  0
   -8.8501    3.7280   -7.0135 C   0  0  0  0  0  0  0  0  0  0  0  0
   -6.0308    5.3261  -15.3606 C   0  0  0  0  0  0  0  0  0  0  0  0
   -6.0512    5.2927  -16.7505 C   0  0  0  0  0  0  0  0  0  0  0  0
   -5.0647    5.7323  -17.6220 C   0  0  0  0  0  0  0  0  0  0  0  0
   -5.6802    5.5978  -18.8485 N   0  0  0  0  0  0  0  0  0  0  0  0
   -6.8141    4.8932  -18.8200 N   0  0  0  0  0  0  0  0  0  0  0  0
   -7.1422    4.7968  -17.5348 C   0  0  0  0  0  0  0  0  0  0  0  0
   -5.2426    6.0390  -20.1557 C   0  0  0  0  0  0  0  0  0  0  0  0
   -4.4269    7.3133  -20.1766 C   0  0  0  0  0  0  0  0  0  0  0  0
   -2.9951    7.0266  -19.7682 C   0  0  0  0  0  0  0  0  0  0  0  0
   -2.8545    6.1075  -18.6564 N   0  0  0  0  0  0  0  0  0  0  0  0
   -3.6734    6.3063  -17.4338 C   0  0  0  0  0  0  0  0  0  0  0  0
   -2.8720    5.4969  -16.3810 C   0  0  0  0  0  0  0  0  0  0  0  0
   -1.7248    6.3204  -15.8045 C   0  0  0  0  0  0  0  0  0  0  0  0
   -2.2028    7.4711  -15.0338 N   0  0  0  0  0  0  0  0  0  0  0  0
   -3.4705    8.0210  -15.5104 C   0  0  0  0  0  0  0  0  0  0  0  0
   -3.7269    7.8018  -17.0005 C   0  0  0  0  0  0  0  0  0  0  0  0
  1  2  1  0
  2  3  2  0
  3  4  1  0
  4  5  1  0
  5  6  1  1
  5  7  1  0
  5  8  1  0
  8  9  1  0
  9 10  2  0
 10 11  1  0
 11 12  2  0
 12 13  1  0
 13 14  2  0
 13 15  1  0
 15 16  1  0
 16 17  1  0
  4 18  2  0
 18 19  1  0
 19 20  2  0
 20 21  1  0
 21 22  1  0
 22 23  2  0
 21 24  1  0
 24 25  1  0
 25 26  1  0
 26 27  1  0
 27 28  1  0
 28 29  1  0
 29 30  1  0
 30 31  1  0
 31 32  1  0
 32 33  1  0
 23  2  1  0
 33 28  1  0
 14  9  1  0
 23 19  1  0
 17 12  1  0
 28 20  1  0
M  END
>  <smiles>  (2180) 
C33113-P257

>  <fragmenstein_outcome>  (2180) 
acceptable

>  <inchikey>  (2180) 
OCWLVEAEKHMRFG-UHFFFAOYSA-N

>  <fragmenstein_mode>  (2180) 
expansion

>  <HIPPO Pose ID>  (2180) 
26462

>  <Energy>  (2180) 
-6.002042

>  <fragmenstein_error>  (2180) 


>  <tags>  (2180) 
{'openbind_xx01zvns2b_c1_fragmenstein', 'fragmenstein_placed'}

>  <ref_pdb>  (2180) 
175

>  <scratch_subdir>  (2180) 
/opt/xchem-fragalysis-2/maxwin/BulkDock/SCRATCH/511028/C33113-P257

>  <alias>  (2180) 
Cc1cc([C@](O)(F)Nc2ccc3c(c2)CNC3)cc2c3n(nc12)CCCNC31CCNCC1

>  <HIPPO Compound ID>  (2180) 
33113

>  <fragmenstein_runtime>  (2180) 
8.542887

$$$$
Cc1cc2c(c(N)c1NC(=O)c1ccc3n[nH]c(C4CCNCC4)c3c1)CNC2
     RDKit          3D

 29 33  0  0  0  0  0  0  0  0999 V2000
   -7.9747    7.0841  -10.7749 C   0  0  0  0  0  0  0  0  0  0  0  0
   -8.1008    5.6675  -10.3058 C   0  0  0  0  0  0  0  0  0  0  0  0
   -8.3009    5.4793   -8.9194 C   0  0  0  0  0  0  0  0  0  0  0  0
   -8.5517    4.2129   -8.4203 C   0  0  0  0  0  0  0  0  0  0  0  0
   -8.5860    3.1123   -9.2577 C   0  0  0  0  0  0  0  0  0  0  0  0
   -8.2830    3.2411  -10.6039 C   0  0  0  0  0  0  0  0  0  0  0  0
   -8.4126    2.1370  -11.4905 N   0  0  0  0  0  0  0  0  0  0  0  0
   -8.0648    4.5386  -11.1480 C   0  0  0  0  0  0  0  0  0  0  0  0
   -7.8187    4.4919  -12.5303 N   0  0  0  0  0  0  0  0  0  0  0  0
   -7.4336    5.6113  -13.5182 C   0  0  0  0  0  0  0  0  0  0  0  0
   -7.1844    6.7356  -13.3283 O   0  0  0  0  0  0  0  0  0  0  0  0
   -7.3604    5.1020  -14.9082 C   0  0  0  0  0  0  0  0  0  0  0  0
   -8.5038    4.4611  -15.4876 C   0  0  0  0  0  0  0  0  0  0  0  0
   -8.5718    4.0955  -16.8500 C   0  0  0  0  0  0  0  0  0  0  0  0
   -7.4253    4.4422  -17.5831 C   0  0  0  0  0  0  0  0  0  0  0  0
   -7.1495    4.2799  -18.8805 N   0  0  0  0  0  0  0  0  0  0  0  0
   -5.9832    4.9201  -19.0756 N   0  0  0  0  0  0  0  0  0  0  0  0
   -5.3423    5.2867  -17.9160 C   0  0  0  0  0  0  0  0  0  0  0  0
   -3.9307    5.7826  -17.8154 C   0  0  0  0  0  0  0  0  0  0  0  0
   -3.8669    7.2886  -17.5433 C   0  0  0  0  0  0  0  0  0  0  0  0
   -2.4159    7.7318  -17.3701 C   0  0  0  0  0  0  0  0  0  0  0  0
   -1.6192    7.3944  -18.5493 N   0  0  0  0  0  0  0  0  0  0  0  0
   -1.6257    5.9557  -18.8155 C   0  0  0  0  0  0  0  0  0  0  0  0
   -3.0493    5.4361  -19.0213 C   0  0  0  0  0  0  0  0  0  0  0  0
   -6.2969    5.0705  -16.9501 C   0  0  0  0  0  0  0  0  0  0  0  0
   -6.1785    5.4114  -15.6111 C   0  0  0  0  0  0  0  0  0  0  0  0
   -8.9561    1.9052   -8.4643 C   0  0  0  0  0  0  0  0  0  0  0  0
   -9.2832    2.3842   -7.0959 N   0  0  0  0  0  0  0  0  0  0  0  0
   -8.8371    3.7889   -7.0203 C   0  0  0  0  0  0  0  0  0  0  0  0
  1  2  1  0
  2  3  2  0
  3  4  1  0
  4  5  2  0
  5  6  1  0
  6  7  1  0
  6  8  2  0
  8  9  1  0
  9 10  1  0
 10 11  2  0
 10 12  1  0
 12 13  1  0
 13 14  2  0
 14 15  1  0
 15 16  2  0
 16 17  1  0
 17 18  1  0
 18 19  1  0
 19 20  1  0
 20 21  1  0
 21 22  1  0
 22 23  1  0
 23 24  1  0
 18 25  2  0
 25 26  1  0
  5 27  1  0
 27 28  1  0
 28 29  1  0
  8  2  1  0
 26 12  2  0
 29  4  1  0
 25 15  1  0
 24 19  1  0
M  END
>  <smiles>  (2181) 
C33137-P257

>  <fragmenstein_outcome>  (2181) 
acceptable

>  <inchikey>  (2181) 
YRJVUGHKAXIDIB-UHFFFAOYSA-N

>  <fragmenstein_mode>  (2181) 
expansion

>  <HIPPO Pose ID>  (2181) 
26476

>  <Energy>  (2181) 
78.131301

>  <fragmenstein_error>  (2181) 


>  <tags>  (2181) 
{'openbind_xx01zvns2b_c1_fragmenstein', 'fragmenstein_placed'}

>  <ref_pdb>  (2181) 
175

>  <scratch_subdir>  (2181) 
/opt/xchem-fragalysis-2/maxwin/BulkDock/SCRATCH/511028/C33137-P257

>  <alias>  (2181) 
Cc1cc2c(c(N)c1NC(=O)c1ccc3n[nH]c(C4CCNCC4)c3c1)CNC2

>  <HIPPO Compound ID>  (2181) 
33137

>  <fragmenstein_runtime>  (2181) 
4.018377

$$$$
CSc1cc2c(cc1NC(=O)c1cc(F)c3n[nH]c(C4CCNCC4)c3c1)CNC2
     RDKit          3D

 30 34  0  0  0  0  0  0  0  0999 V2000
   -8.9315    8.2136   -9.7356 C   0  0  0  0  0  0  0  0  0  0  0  0
   -8.1691    7.1863  -11.0182 S   0  0  0  0  0  0  0  0  0  0  0  0
   -8.2115    5.5136  -10.3436 C   0  0  0  0  0  0  0  0  0  0  0  0
   -8.3241    5.3455   -8.9504 C   0  0  0  0  0  0  0  0  0  0  0  0
   -8.6200    4.0955   -8.4390 C   0  0  0  0  0  0  0  0  0  0  0  0
   -8.7613    2.9959   -9.2706 C   0  0  0  0  0  0  0  0  0  0  0  0
   -8.5863    3.1069  -10.6362 C   0  0  0  0  0  0  0  0  0  0  0  0
   -8.2812    4.3646  -11.1865 C   0  0  0  0  0  0  0  0  0  0  0  0
   -8.0967    4.3658  -12.5796 N   0  0  0  0  0  0  0  0  0  0  0  0
   -7.2052    5.2616  -13.4759 C   0  0  0  0  0  0  0  0  0  0  0  0
   -6.5449    6.1873  -13.2039 O   0  0  0  0  0  0  0  0  0  0  0  0
   -7.2611    4.8925  -14.9220 C   0  0  0  0  0  0  0  0  0  0  0  0
   -8.4423    4.3585  -15.5277 C   0  0  0  0  0  0  0  0  0  0  0  0
   -8.5269    4.0830  -16.9071 C   0  0  0  0  0  0  0  0  0  0  0  0
   -9.6379    3.5671  -17.4419 F   0  0  0  0  0  0  0  0  0  0  0  0
   -7.3902    4.4209  -17.6638 C   0  0  0  0  0  0  0  0  0  0  0  0
   -7.1137    4.3041  -18.9680 N   0  0  0  0  0  0  0  0  0  0  0  0
   -5.9409    4.9347  -19.1445 N   0  0  0  0  0  0  0  0  0  0  0  0
   -5.2932    5.2495  -17.9742 C   0  0  0  0  0  0  0  0  0  0  0  0
   -3.8846    5.7500  -17.8525 C   0  0  0  0  0  0  0  0  0  0  0  0
   -3.8400    7.2430  -17.5060 C   0  0  0  0  0  0  0  0  0  0  0  0
   -2.3948    7.6967  -17.3145 C   0  0  0  0  0  0  0  0  0  0  0  0
   -1.5858    7.4296  -18.5039 N   0  0  0  0  0  0  0  0  0  0  0  0
   -1.5853    6.0058  -18.8448 C   0  0  0  0  0  0  0  0  0  0  0  0
   -3.0023    5.4748  -19.0755 C   0  0  0  0  0  0  0  0  0  0  0  0
   -6.2403    4.9835  -17.0133 C   0  0  0  0  0  0  0  0  0  0  0  0
   -6.0932    5.2203  -15.6544 C   0  0  0  0  0  0  0  0  0  0  0  0
   -9.0831    1.7991   -8.4404 C   0  0  0  0  0  0  0  0  0  0  0  0
   -9.5245    2.3521   -7.1341 N   0  0  0  0  0  0  0  0  0  0  0  0
   -8.8796    3.6777   -7.0299 C   0  0  0  0  0  0  0  0  0  0  0  0
  1  2  1  0
  2  3  1  0
  3  4  2  0
  4  5  1  0
  5  6  2  0
  6  7  1  0
  7  8  2  0
  8  9  1  0
  9 10  1  0
 10 11  2  0
 10 12  1  0
 12 13  1  0
 13 14  2  0
 14 15  1  0
 14 16  1  0
 16 17  2  0
 17 18  1  0
 18 19  1  0
 19 20  1  0
 20 21  1  0
 21 22  1  0
 22 23  1  0
 23 24  1  0
 24 25  1  0
 19 26  2  0
 26 27  1  0
  6 28  1  0
 28 29  1  0
 29 30  1  0
  8  3  1  0
 27 12  2  0
 30  5  1  0
 26 16  1  0
 25 20  1  0
M  END
>  <smiles>  (2182) 
C33214-P257

>  <fragmenstein_outcome>  (2182) 
acceptable

>  <inchikey>  (2182) 
KSMAONFYWZLUPF-UHFFFAOYSA-N

>  <fragmenstein_mode>  (2182) 
expansion

>  <HIPPO Pose ID>  (2182) 
26495

>  <Energy>  (2182) 
95.96583

>  <fragmenstein_error>  (2182) 


>  <tags>  (2182) 
{'openbind_xx01zvns2b_c1_fragmenstein', 'fragmenstein_placed'}

>  <ref_pdb>  (2182) 
175

>  <scratch_subdir>  (2182) 
/opt/xchem-fragalysis-2/maxwin/BulkDock/SCRATCH/511028/C33214-P257

>  <alias>  (2182) 
CSc1cc2c(cc1NC(=O)c1cc(F)c3n[nH]c(C4CCNCC4)c3c1)CNC2

>  <HIPPO Compound ID>  (2182) 
33214

>  <fragmenstein_runtime>  (2182) 
4.117113

$$$$
CCOC(C)(C)NC1(c2[nH]nc3c(F)cc(C(=O)Nc4ccc5c(c4)CNC5)cc23)CCNCC1
     RDKit          3D

 35 39  0  0  0  0  0  0  0  0999 V2000
   -4.1169    9.2277  -13.5601 C   0  0  0  0  0  0  0  0  0  0  0  0
   -3.5673    7.8175  -13.4515 C   0  0  0  0  0  0  0  0  0  0  0  0
   -3.6650    7.2161  -14.7355 O   0  0  0  0  0  0  0  0  0  0  0  0
   -3.0804    5.9372  -14.9265 C   0  0  0  0  0  0  0  0  0  0  0  0
   -1.5455    6.0216  -14.9137 C   0  0  0  0  0  0  0  0  0  0  0  0
   -3.4716    4.9527  -13.7966 C   0  0  0  0  0  0  0  0  0  0  0  0
   -3.5736    5.3294  -16.1541 N   0  0  0  0  0  0  0  0  0  0  0  0
   -4.0010    5.9530  -17.4101 C   0  0  0  0  0  0  0  0  0  0  0  0
   -5.3992    5.3808  -17.6726 C   0  0  0  0  0  0  0  0  0  0  0  0
   -5.8668    4.9486  -18.8940 N   0  0  0  0  0  0  0  0  0  0  0  0
   -7.0184    4.2623  -18.8448 N   0  0  0  0  0  0  0  0  0  0  0  0
   -7.4701    4.4275  -17.5952 C   0  0  0  0  0  0  0  0  0  0  0  0
   -8.6540    4.0100  -16.9586 C   0  0  0  0  0  0  0  0  0  0  0  0
   -9.6158    3.3205  -17.5782 F   0  0  0  0  0  0  0  0  0  0  0  0
   -8.7780    4.3720  -15.6039 C   0  0  0  0  0  0  0  0  0  0  0  0
   -7.7856    5.1343  -14.9271 C   0  0  0  0  0  0  0  0  0  0  0  0
   -7.9764    5.5636  -13.5194 C   0  0  0  0  0  0  0  0  0  0  0  0
   -7.8464    6.6945  -13.2624 O   0  0  0  0  0  0  0  0  0  0  0  0
   -8.2568    4.3554  -12.6021 N   0  0  0  0  0  0  0  0  0  0  0  0
   -8.3391    4.2730  -11.2146 C   0  0  0  0  0  0  0  0  0  0  0  0
   -8.1790    5.4148  -10.4101 C   0  0  0  0  0  0  0  0  0  0  0  0
   -8.3017    5.3364   -9.0196 C   0  0  0  0  0  0  0  0  0  0  0  0
   -8.6145    4.1113   -8.4642 C   0  0  0  0  0  0  0  0  0  0  0  0
   -8.7570    2.9768   -9.2589 C   0  0  0  0  0  0  0  0  0  0  0  0
   -8.6027    3.0318  -10.6330 C   0  0  0  0  0  0  0  0  0  0  0  0
   -9.0826    1.8120   -8.3857 C   0  0  0  0  0  0  0  0  0  0  0  0
   -9.5198    2.4122   -7.0974 N   0  0  0  0  0  0  0  0  0  0  0  0
   -8.8684    3.7390   -7.0418 C   0  0  0  0  0  0  0  0  0  0  0  0
   -6.5966    5.5799  -15.5316 C   0  0  0  0  0  0  0  0  0  0  0  0
   -6.4886    5.1741  -16.8544 C   0  0  0  0  0  0  0  0  0  0  0  0
   -4.0988    7.4905  -17.5112 C   0  0  0  0  0  0  0  0  0  0  0  0
   -2.7477    8.1964  -17.5670 C   0  0  0  0  0  0  0  0  0  0  0  0
   -1.8715    7.6752  -18.6185 N   0  0  0  0  0  0  0  0  0  0  0  0
   -1.6870    6.2296  -18.5065 C   0  0  0  0  0  0  0  0  0  0  0  0
   -3.0206    5.4902  -18.5339 C   0  0  0  0  0  0  0  0  0  0  0  0
  1  2  1  0
  2  3  1  0
  3  4  1  0
  4  5  1  0
  4  6  1  0
  4  7  1  0
  7  8  1  0
  8  9  1  0
  9 10  1  0
 10 11  1  0
 11 12  2  0
 12 13  1  0
 13 14  1  0
 13 15  2  0
 15 16  1  0
 16 17  1  0
 17 18  2  0
 17 19  1  0
 19 20  1  0
 20 21  2  0
 21 22  1  0
 22 23  2  0
 23 24  1  0
 24 25  2  0
 24 26  1  0
 26 27  1  0
 27 28  1  0
 16 29  2  0
 29 30  1  0
  8 31  1  0
 31 32  1  0
 32 33  1  0
 33 34  1  0
 34 35  1  0
 35  8  1  0
 30  9  2  0
 30 12  1  0
 25 20  1  0
 28 23  1  0
M  END
>  <smiles>  (2183) 
C33218-P257

>  <fragmenstein_outcome>  (2183) 
acceptable

>  <inchikey>  (2183) 
UCCWHJONSKISKW-UHFFFAOYSA-N

>  <fragmenstein_mode>  (2183) 
expansion

>  <HIPPO Pose ID>  (2183) 
26496

>  <Energy>  (2183) 
48.910286

>  <fragmenstein_error>  (2183) 


>  <tags>  (2183) 
{'openbind_xx01zvns2b_c1_fragmenstein', 'fragmenstein_placed'}

>  <ref_pdb>  (2183) 
175

>  <scratch_subdir>  (2183) 
/opt/xchem-fragalysis-2/maxwin/BulkDock/SCRATCH/511028/C33218-P257

>  <alias>  (2183) 
CCOC(C)(C)NC1(c2[nH]nc3c(F)cc(C(=O)Nc4ccc5c(c4)CNC5)cc23)CCNCC1

>  <HIPPO Compound ID>  (2183) 
33218

>  <fragmenstein_runtime>  (2183) 
10.049964

$$$$
CC[C@H]1NCc2cc(NC(=O)c3cc(F)c4n[nH]c(C5CCNCC5)c4c3)ccc21
     RDKit          3D

 30 34  0  0  0  0  0  0  0  0999 V2000
   -8.6033    6.0349   -5.7318 C   0  0  0  0  0  0  0  0  0  0  0  0
   -9.3827    4.7638   -6.0353 C   0  0  0  0  0  0  0  0  0  0  0  0
   -8.6809    3.7991   -6.9979 C   0  0  1  0  0  0  0  0  0  0  0  0
   -9.4365    2.5157   -7.0444 N   0  0  0  0  0  0  0  0  0  0  0  0
   -9.0955    1.9010   -8.3473 C   0  0  0  0  0  0  0  0  0  0  0  0
   -8.7531    3.0541   -9.2303 C   0  0  0  0  0  0  0  0  0  0  0  0
   -8.5971    3.0711  -10.6088 C   0  0  0  0  0  0  0  0  0  0  0  0
   -8.2075    4.2661  -11.2118 C   0  0  0  0  0  0  0  0  0  0  0  0
   -7.9930    4.2927  -12.5870 N   0  0  0  0  0  0  0  0  0  0  0  0
   -7.5237    5.4415  -13.5075 C   0  0  0  0  0  0  0  0  0  0  0  0
   -7.1696    6.5234  -13.2472 O   0  0  0  0  0  0  0  0  0  0  0  0
   -7.4477    5.0150  -14.9292 C   0  0  0  0  0  0  0  0  0  0  0  0
   -8.5699    4.3877  -15.5494 C   0  0  0  0  0  0  0  0  0  0  0  0
   -8.5850    4.0624  -16.9175 C   0  0  0  0  0  0  0  0  0  0  0  0
   -9.6493    3.4811  -17.4784 F   0  0  0  0  0  0  0  0  0  0  0  0
   -7.4317    4.4220  -17.6389 C   0  0  0  0  0  0  0  0  0  0  0  0
   -7.1060    4.2760  -18.9290 N   0  0  0  0  0  0  0  0  0  0  0  0
   -5.9436    4.9290  -19.0793 N   0  0  0  0  0  0  0  0  0  0  0  0
   -5.3448    5.2901  -17.8956 C   0  0  0  0  0  0  0  0  0  0  0  0
   -3.9394    5.7952  -17.7516 C   0  0  0  0  0  0  0  0  0  0  0  0
   -3.8982    7.2995  -17.4632 C   0  0  0  0  0  0  0  0  0  0  0  0
   -2.4560    7.7580  -17.2568 C   0  0  0  0  0  0  0  0  0  0  0  0
   -1.6186    7.4426  -18.4136 N   0  0  0  0  0  0  0  0  0  0  0  0
   -1.6133    6.0069  -18.6983 C   0  0  0  0  0  0  0  0  0  0  0  0
   -3.0259    5.4715  -18.9421 C   0  0  0  0  0  0  0  0  0  0  0  0
   -6.3273    5.0520  -16.9622 C   0  0  0  0  0  0  0  0  0  0  0  0
   -6.2547    5.3599  -15.6087 C   0  0  0  0  0  0  0  0  0  0  0  0
   -7.9902    5.4093  -10.4290 C   0  0  0  0  0  0  0  0  0  0  0  0
   -8.1364    5.3710   -9.0376 C   0  0  0  0  0  0  0  0  0  0  0  0
   -8.5265    4.1864   -8.4422 C   0  0  0  0  0  0  0  0  0  0  0  0
  1  2  1  0
  3  2  1  1
  3  4  1  0
  4  5  1  0
  5  6  1  0
  6  7  2  0
  7  8  1  0
  8  9  1  0
  9 10  1  0
 10 11  2  0
 10 12  1  0
 12 13  1  0
 13 14  2  0
 14 15  1  0
 14 16  1  0
 16 17  2  0
 17 18  1  0
 18 19  1  0
 19 20  1  0
 20 21  1  0
 21 22  1  0
 22 23  1  0
 23 24  1  0
 24 25  1  0
 19 26  2  0
 26 27  1  0
  8 28  2  0
 28 29  1  0
 29 30  2  0
 30  3  1  0
 30  6  1  0
 27 12  2  0
 26 16  1  0
 25 20  1  0
M  END
>  <smiles>  (2184) 
C33227-P257

>  <fragmenstein_outcome>  (2184) 
acceptable

>  <inchikey>  (2184) 
GTCZSDOSRCVRCR-UHFFFAOYSA-N

>  <fragmenstein_mode>  (2184) 
expansion

>  <HIPPO Pose ID>  (2184) 
26498

>  <Energy>  (2184) 
69.584159

>  <fragmenstein_error>  (2184) 


>  <tags>  (2184) 
{'openbind_xx01zvns2b_c1_fragmenstein', 'fragmenstein_placed'}

>  <ref_pdb>  (2184) 
175

>  <scratch_subdir>  (2184) 
/opt/xchem-fragalysis-2/maxwin/BulkDock/SCRATCH/511028/C33227-P257

>  <alias>  (2184) 
CC[C@H]1NCc2cc(NC(=O)c3cc(F)c4n[nH]c(C5CCNCC5)c4c3)ccc21

>  <HIPPO Compound ID>  (2184) 
33227

>  <fragmenstein_runtime>  (2184) 
5.4457

$$$$
CNCn1nc2c(Cl)cc(C(=O)Nc3ccc4c(c3)CNC4)cc2c1C1CCNCC1
     RDKit          3D

 31 35  0  0  0  0  0  0  0  0999 V2000
   -4.1830    7.4934  -21.4968 C   0  0  0  0  0  0  0  0  0  0  0  0
   -4.5311    7.1240  -20.1300 N   0  0  0  0  0  0  0  0  0  0  0  0
   -5.1037    5.7759  -20.1110 C   0  0  0  0  0  0  0  0  0  0  0  0
   -5.5594    5.3986  -18.7703 N   0  0  0  0  0  0  0  0  0  0  0  0
   -6.7336    4.7353  -18.7079 N   0  0  0  0  0  0  0  0  0  0  0  0
   -7.0745    4.7159  -17.4160 C   0  0  0  0  0  0  0  0  0  0  0  0
   -8.2440    4.3108  -16.7493 C   0  0  0  0  0  0  0  0  0  0  0  0
   -9.5277    3.7146  -17.6665 Cl  0  0  0  0  0  0  0  0  0  0  0  0
   -8.2840    4.5255  -15.3653 C   0  0  0  0  0  0  0  0  0  0  0  0
   -7.1709    5.0876  -14.6704 C   0  0  0  0  0  0  0  0  0  0  0  0
   -7.3176    5.4791  -13.2444 C   0  0  0  0  0  0  0  0  0  0  0  0
   -6.9734    6.5517  -12.9382 O   0  0  0  0  0  0  0  0  0  0  0  0
   -7.9343    4.3462  -12.3971 N   0  0  0  0  0  0  0  0  0  0  0  0
   -8.1614    4.2635  -11.0270 C   0  0  0  0  0  0  0  0  0  0  0  0
   -7.9862    5.3872  -10.2025 C   0  0  0  0  0  0  0  0  0  0  0  0
   -8.1915    5.3028   -8.8230 C   0  0  0  0  0  0  0  0  0  0  0  0
   -8.5753    4.0853   -8.2946 C   0  0  0  0  0  0  0  0  0  0  0  0
   -8.7534    2.9744   -9.1110 C   0  0  0  0  0  0  0  0  0  0  0  0
   -8.5554    3.0418  -10.4804 C   0  0  0  0  0  0  0  0  0  0  0  0
   -9.1122    1.7989   -8.2693 C   0  0  0  0  0  0  0  0  0  0  0  0
   -9.3998    2.3392   -6.9170 N   0  0  0  0  0  0  0  0  0  0  0  0
   -8.8429    3.7064   -6.8778 C   0  0  0  0  0  0  0  0  0  0  0  0
   -5.9415    5.4376  -15.2825 C   0  0  0  0  0  0  0  0  0  0  0  0
   -5.9724    5.2421  -16.6600 C   0  0  0  0  0  0  0  0  0  0  0  0
   -4.9501    5.5366  -17.5397 C   0  0  0  0  0  0  0  0  0  0  0  0
   -3.5330    5.9646  -17.2595 C   0  0  0  0  0  0  0  0  0  0  0  0
   -3.4359    7.4752  -17.0172 C   0  0  0  0  0  0  0  0  0  0  0  0
   -1.9973    7.8947  -16.7379 C   0  0  0  0  0  0  0  0  0  0  0  0
   -1.0910    7.4571  -17.7990 N   0  0  0  0  0  0  0  0  0  0  0  0
   -1.0869    5.9968  -17.9010 C   0  0  0  0  0  0  0  0  0  0  0  0
   -2.4724    5.4595  -18.2503 C   0  0  0  0  0  0  0  0  0  0  0  0
  1  2  1  0
  2  3  1  0
  3  4  1  0
  4  5  1  0
  5  6  2  0
  6  7  1  0
  7  8  1  0
  7  9  2  0
  9 10  1  0
 10 11  1  0
 11 12  2  0
 11 13  1  0
 13 14  1  0
 14 15  2  0
 15 16  1  0
 16 17  2  0
 17 18  1  0
 18 19  2  0
 18 20  1  0
 20 21  1  0
 21 22  1  0
 10 23  2  0
 23 24  1  0
 24 25  2  0
 25 26  1  0
 26 27  1  0
 27 28  1  0
 28 29  1  0
 29 30  1  0
 30 31  1  0
 25  4  1  0
 31 26  1  0
 24  6  1  0
 19 14  1  0
 22 17  1  0
M  END
>  <smiles>  (2185) 
C33233-P257

>  <fragmenstein_outcome>  (2185) 
acceptable

>  <inchikey>  (2185) 
AKXYBXUGJNRYPT-UHFFFAOYSA-N

>  <fragmenstein_mode>  (2185) 
expansion

>  <HIPPO Pose ID>  (2185) 
26501

>  <Energy>  (2185) 
106.362735

>  <fragmenstein_error>  (2185) 


>  <tags>  (2185) 
{'openbind_xx01zvns2b_c1_fragmenstein', 'fragmenstein_placed'}

>  <ref_pdb>  (2185) 
175

>  <scratch_subdir>  (2185) 
/opt/xchem-fragalysis-2/maxwin/BulkDock/SCRATCH/511028/C33233-P257

>  <alias>  (2185) 
CNCn1nc2c(Cl)cc(C(=O)Nc3ccc4c(c3)CNC4)cc2c1C1CCNCC1

>  <HIPPO Compound ID>  (2185) 
18273

>  <fragmenstein_runtime>  (2185) 
5.125467

$$$$
CNCn1nc2c(Cl)cc(C(=O)N[C@H]3CC4=C(CNC4)C[C@@]34CCCC4=O)cc2c1C1CCNCC1
     RDKit          3D

 36 41  0  0  0  0  0  0  0  0999 V2000
   -5.0080    7.8428  -21.5790 C   0  0  0  0  0  0  0  0  0  0  0  0
   -5.2876    7.3865  -20.2238 N   0  0  0  0  0  0  0  0  0  0  0  0
   -5.2868    5.9164  -20.1965 C   0  0  0  0  0  0  0  0  0  0  0  0
   -5.6440    5.4582  -18.8540 N   0  0  0  0  0  0  0  0  0  0  0  0
   -6.7671    4.7367  -18.7238 N   0  0  0  0  0  0  0  0  0  0  0  0
   -7.0240    4.7119  -17.4139 C   0  0  0  0  0  0  0  0  0  0  0  0
   -8.1518    4.2823  -16.6930 C   0  0  0  0  0  0  0  0  0  0  0  0
   -9.4792    3.7004  -17.5632 Cl  0  0  0  0  0  0  0  0  0  0  0  0
   -8.1250    4.4759  -15.3058 C   0  0  0  0  0  0  0  0  0  0  0  0
   -6.9782    5.0213  -14.6512 C   0  0  0  0  0  0  0  0  0  0  0  0
   -7.0210    5.3810  -13.1995 C   0  0  0  0  0  0  0  0  0  0  0  0
   -6.4665    6.3555  -12.8841 O   0  0  0  0  0  0  0  0  0  0  0  0
   -7.8613    4.3993  -12.3678 N   0  0  0  0  0  0  0  0  0  0  0  0
   -8.2848    4.4586  -10.9673 C   0  0  1  0  0  0  0  0  0  0  0  0
   -8.4060    3.0084  -10.4360 C   0  0  0  0  0  0  0  0  0  0  0  0
   -8.7074    2.9689   -8.9856 C   0  0  0  0  0  0  0  0  0  0  0  0
   -8.6152    4.0064   -8.1584 C   0  0  0  0  0  0  0  0  0  0  0  0
   -8.9727    3.6065   -6.7764 C   0  0  0  0  0  0  0  0  0  0  0  0
   -9.4397    2.2143   -6.8819 N   0  0  0  0  0  0  0  0  0  0  0  0
   -9.1034    1.7489   -8.2475 C   0  0  0  0  0  0  0  0  0  0  0  0
   -8.1732    5.3612   -8.5607 C   0  0  0  0  0  0  0  0  0  0  0  0
   -7.5299    5.3892   -9.9814 C   0  0  1  0  0  0  0  0  0  0  0  0
   -6.0267    5.1003   -9.8957 C   0  0  0  0  0  0  0  0  0  0  0  0
   -5.3809    6.4153   -9.4616 C   0  0  0  0  0  0  0  0  0  0  0  0
   -6.1986    7.5196  -10.1214 C   0  0  0  0  0  0  0  0  0  0  0  0
   -7.5366    6.8594  -10.3663 C   0  0  0  0  0  0  0  0  0  0  0  0
   -8.5266    7.4708  -10.7561 O   0  0  0  0  0  0  0  0  0  0  0  0
   -5.7959    5.4160  -15.3342 C   0  0  0  0  0  0  0  0  0  0  0  0
   -5.8865    5.2683  -16.7168 C   0  0  0  0  0  0  0  0  0  0  0  0
   -4.9803    5.7023  -17.6658 C   0  0  0  0  0  0  0  0  0  0  0  0
   -3.6437    6.4014  -17.6665 C   0  0  0  0  0  0  0  0  0  0  0  0
   -3.1963    7.0108  -16.3437 C   0  0  0  0  0  0  0  0  0  0  0  0
   -1.9520    7.8834  -16.5587 C   0  0  0  0  0  0  0  0  0  0  0  0
   -1.0672    7.4330  -17.6403 N   0  0  0  0  0  0  0  0  0  0  0  0
   -1.1257    5.9822  -17.7956 C   0  0  0  0  0  0  0  0  0  0  0  0
   -2.5161    5.5159  -18.2353 C   0  0  0  0  0  0  0  0  0  0  0  0
  1  2  1  0
  2  3  1  0
  3  4  1  0
  4  5  1  0
  5  6  2  0
  6  7  1  0
  7  8  1  0
  7  9  2  0
  9 10  1  0
 10 11  1  0
 11 12  2  0
 11 13  1  0
 14 13  1  6
 14 15  1  0
 15 16  1  0
 16 17  2  0
 17 18  1  0
 18 19  1  0
 19 20  1  0
 17 21  1  0
 22 21  1  1
 22 23  1  0
 23 24  1  0
 24 25  1  0
 25 26  1  0
 26 27  2  0
 10 28  2  0
 28 29  1  0
 29 30  2  0
 30 31  1  0
 31 32  1  0
 32 33  1  0
 33 34  1  0
 34 35  1  0
 35 36  1  0
 30  4  1  0
 36 31  1  0
 29  6  1  0
 22 14  1  0
 20 16  1  0
 26 22  1  0
M  END
>  <smiles>  (2186) 
C33247-P257

>  <fragmenstein_outcome>  (2186) 
acceptable

>  <inchikey>  (2186) 
QJOSBMZWHIFYDS-UHFFFAOYSA-N

>  <fragmenstein_mode>  (2186) 
expansion

>  <HIPPO Pose ID>  (2186) 
26502

>  <Energy>  (2186) 
101.944873

>  <fragmenstein_error>  (2186) 


>  <tags>  (2186) 
{'openbind_xx01zvns2b_c1_fragmenstein', 'fragmenstein_placed'}

>  <ref_pdb>  (2186) 
175

>  <scratch_subdir>  (2186) 
/opt/xchem-fragalysis-2/maxwin/BulkDock/SCRATCH/511028/C33247-P257

>  <alias>  (2186) 
CNCn1nc2c(Cl)cc(C(=O)N[C@H]3CC4=C(CNC4)C[C@@]34CCCC4=O)cc2c1C1CCNCC1

>  <HIPPO Compound ID>  (2186) 
22244

>  <fragmenstein_runtime>  (2186) 
12.810697

$$$$
CNCn1nc2c(Cl)cc(C(=O)Nc3ccc4c(c3)CN(CC(F)F)C4)cc2c1C1CCNCC1
     RDKit          3D

 35 39  0  0  0  0  0  0  0  0999 V2000
   -5.2979    8.1046  -20.1038 C   0  0  0  0  0  0  0  0  0  0  0  0
   -5.6174    6.8374  -20.7211 N   0  0  0  0  0  0  0  0  0  0  0  0
   -4.9710    5.6849  -20.1066 C   0  0  0  0  0  0  0  0  0  0  0  0
   -5.5451    5.4061  -18.7977 N   0  0  0  0  0  0  0  0  0  0  0  0
   -6.7108    4.7414  -18.7504 N   0  0  0  0  0  0  0  0  0  0  0  0
   -7.0707    4.7418  -17.4652 C   0  0  0  0  0  0  0  0  0  0  0  0
   -8.2484    4.3250  -16.8155 C   0  0  0  0  0  0  0  0  0  0  0  0
   -9.5373    3.7416  -17.7405 Cl  0  0  0  0  0  0  0  0  0  0  0  0
   -8.3146    4.5655  -15.4412 C   0  0  0  0  0  0  0  0  0  0  0  0
   -7.2251    5.1755  -14.7582 C   0  0  0  0  0  0  0  0  0  0  0  0
   -7.3886    5.6095  -13.3644 C   0  0  0  0  0  0  0  0  0  0  0  0
   -7.1368    6.7177  -13.1035 O   0  0  0  0  0  0  0  0  0  0  0  0
   -7.7879    4.4371  -12.4542 N   0  0  0  0  0  0  0  0  0  0  0  0
   -8.0442    4.4012  -11.0965 C   0  0  0  0  0  0  0  0  0  0  0  0
   -7.8989    5.5812  -10.3470 C   0  0  0  0  0  0  0  0  0  0  0  0
   -8.0806    5.5749   -8.9749 C   0  0  0  0  0  0  0  0  0  0  0  0
   -8.4182    4.3756   -8.3882 C   0  0  0  0  0  0  0  0  0  0  0  0
   -8.5903    3.2072   -9.1241 C   0  0  0  0  0  0  0  0  0  0  0  0
   -8.4012    3.1963  -10.4919 C   0  0  0  0  0  0  0  0  0  0  0  0
   -9.0084    2.1014   -8.2109 C   0  0  0  0  0  0  0  0  0  0  0  0
   -9.0092    2.6964   -6.8526 N   0  0  0  0  0  0  0  0  0  0  0  0
  -10.2167    2.3734   -6.0929 C   0  0  0  0  0  0  0  0  0  0  0  0
  -10.4276    3.1241   -4.7738 C   0  0  0  0  0  0  0  0  0  0  0  0
   -9.3364    3.1482   -3.9742 F   0  0  0  0  0  0  0  0  0  0  0  0
  -10.7174    4.4290   -5.0224 F   0  0  0  0  0  0  0  0  0  0  0  0
   -8.7262    4.1305   -6.9588 C   0  0  0  0  0  0  0  0  0  0  0  0
   -5.9911    5.5480  -15.3366 C   0  0  0  0  0  0  0  0  0  0  0  0
   -5.9872    5.3279  -16.7011 C   0  0  0  0  0  0  0  0  0  0  0  0
   -4.9961    5.7093  -17.5750 C   0  0  0  0  0  0  0  0  0  0  0  0
   -3.6461    6.3622  -17.4983 C   0  0  0  0  0  0  0  0  0  0  0  0
   -3.3437    7.1906  -16.2578 C   0  0  0  0  0  0  0  0  0  0  0  0
   -2.0442    7.9832  -16.4660 C   0  0  0  0  0  0  0  0  0  0  0  0
   -1.1810    7.4374  -17.5191 N   0  0  0  0  0  0  0  0  0  0  0  0
   -1.1310    5.9803  -17.4746 C   0  0  0  0  0  0  0  0  0  0  0  0
   -2.5094    5.3512  -17.7041 C   0  0  0  0  0  0  0  0  0  0  0  0
  1  2  1  0
  2  3  1  0
  3  4  1  0
  4  5  1  0
  5  6  2  0
  6  7  1  0
  7  8  1  0
  7  9  2  0
  9 10  1  0
 10 11  1  0
 11 12  2  0
 11 13  1  0
 13 14  1  0
 14 15  2  0
 15 16  1  0
 16 17  2  0
 17 18  1  0
 18 19  2  0
 18 20  1  0
 20 21  1  0
 21 22  1  0
 22 23  1  0
 23 24  1  0
 23 25  1  0
 21 26  1  0
 10 27  2  0
 27 28  1  0
 28 29  2  0
 29 30  1  0
 30 31  1  0
 31 32  1  0
 32 33  1  0
 33 34  1  0
 34 35  1  0
 29  4  1  0
 35 30  1  0
 28  6  1  0
 19 14  1  0
 26 17  1  0
M  END
>  <smiles>  (2187) 
C33255-P257

>  <fragmenstein_outcome>  (2187) 
acceptable

>  <inchikey>  (2187) 
CTXHHKZEQAYWRN-UHFFFAOYSA-N

>  <fragmenstein_mode>  (2187) 
expansion

>  <HIPPO Pose ID>  (2187) 
26504

>  <Energy>  (2187) 
164.792524

>  <fragmenstein_error>  (2187) 


>  <tags>  (2187) 
{'openbind_xx01zvns2b_c1_fragmenstein', 'fragmenstein_placed'}

>  <ref_pdb>  (2187) 
175

>  <scratch_subdir>  (2187) 
/opt/xchem-fragalysis-2/maxwin/BulkDock/SCRATCH/511028/C33255-P257

>  <alias>  (2187) 
CNCn1nc2c(Cl)cc(C(=O)Nc3ccc4c(c3)CN(CC(F)F)C4)cc2c1C1CCNCC1

>  <HIPPO Compound ID>  (2187) 
33255

>  <fragmenstein_runtime>  (2187) 
10.417532

$$$$
CNCn1nc2c(F)cc(C(=O)Nc3ccc4c(c3)CNC4)cc2c1C1CCNCC1
     RDKit          3D

 31 35  0  0  0  0  0  0  0  0999 V2000
   -4.0056    7.6171  -21.8404 C   0  0  0  0  0  0  0  0  0  0  0  0
   -4.2818    6.4634  -20.9908 N   0  0  0  0  0  0  0  0  0  0  0  0
   -5.5454    6.6625  -20.2716 C   0  0  0  0  0  0  0  0  0  0  0  0
   -5.6312    5.7823  -19.0919 N   0  0  0  0  0  0  0  0  0  0  0  0
   -6.6050    4.8498  -19.0188 N   0  0  0  0  0  0  0  0  0  0  0  0
   -6.9246    4.7767  -17.7186 C   0  0  0  0  0  0  0  0  0  0  0  0
   -8.0377    4.2073  -17.0508 C   0  0  0  0  0  0  0  0  0  0  0  0
   -9.0485    3.5941  -17.6814 F   0  0  0  0  0  0  0  0  0  0  0  0
   -8.0963    4.4162  -15.6590 C   0  0  0  0  0  0  0  0  0  0  0  0
   -7.0687    5.1125  -14.9587 C   0  0  0  0  0  0  0  0  0  0  0  0
   -7.2552    5.4950  -13.5280 C   0  0  0  0  0  0  0  0  0  0  0  0
   -6.9943    6.5954  -13.2344 O   0  0  0  0  0  0  0  0  0  0  0  0
   -7.7147    4.3069  -12.6532 N   0  0  0  0  0  0  0  0  0  0  0  0
   -8.0300    4.2500  -11.2955 C   0  0  0  0  0  0  0  0  0  0  0  0
   -7.9346    5.3964  -10.4877 C   0  0  0  0  0  0  0  0  0  0  0  0
   -8.1807    5.3323   -9.1123 C   0  0  0  0  0  0  0  0  0  0  0  0
   -8.5325    4.1124   -8.5677 C   0  0  0  0  0  0  0  0  0  0  0  0
   -8.6509    2.9816   -9.3662 C   0  0  0  0  0  0  0  0  0  0  0  0
   -8.4035    3.0284  -10.7312 C   0  0  0  0  0  0  0  0  0  0  0  0
   -9.0123    1.8132   -8.5136 C   0  0  0  0  0  0  0  0  0  0  0  0
   -9.3076    2.3610   -7.1643 N   0  0  0  0  0  0  0  0  0  0  0  0
   -8.8121    3.7519   -7.1487 C   0  0  0  0  0  0  0  0  0  0  0  0
   -5.9030    5.6373  -15.5780 C   0  0  0  0  0  0  0  0  0  0  0  0
   -5.8964    5.4713  -16.9626 C   0  0  0  0  0  0  0  0  0  0  0  0
   -5.0276    6.0569  -17.8664 C   0  0  0  0  0  0  0  0  0  0  0  0
   -3.8105    6.9614  -17.8482 C   0  0  0  0  0  0  0  0  0  0  0  0
   -3.4855    7.7012  -16.5502 C   0  0  0  0  0  0  0  0  0  0  0  0
   -2.4815    6.9819  -15.6604 C   0  0  0  0  0  0  0  0  0  0  0  0
   -1.2899    6.5936  -16.4086 N   0  0  0  0  0  0  0  0  0  0  0  0
   -1.6628    5.6488  -17.4554 C   0  0  0  0  0  0  0  0  0  0  0  0
   -2.5731    6.2905  -18.4758 C   0  0  0  0  0  0  0  0  0  0  0  0
  1  2  1  0
  2  3  1  0
  3  4  1  0
  4  5  1  0
  5  6  2  0
  6  7  1  0
  7  8  1  0
  7  9  2  0
  9 10  1  0
 10 11  1  0
 11 12  2  0
 11 13  1  0
 13 14  1  0
 14 15  2  0
 15 16  1  0
 16 17  2  0
 17 18  1  0
 18 19  2  0
 18 20  1  0
 20 21  1  0
 21 22  1  0
 10 23  2  0
 23 24  1  0
 24 25  2  0
 25 26  1  0
 26 27  1  0
 27 28  1  0
 28 29  1  0
 29 30  1  0
 30 31  1  0
 25  4  1  0
 31 26  1  0
 24  6  1  0
 19 14  1  0
 22 17  1  0
M  END
>  <smiles>  (2188) 
C33239-P257

>  <fragmenstein_outcome>  (2188) 
acceptable

>  <inchikey>  (2188) 
ZAJMDUVKRGDKJU-UHFFFAOYSA-N

>  <fragmenstein_mode>  (2188) 
expansion

>  <HIPPO Pose ID>  (2188) 
26505

>  <Energy>  (2188) 
115.367568

>  <fragmenstein_error>  (2188) 


>  <tags>  (2188) 
{'openbind_xx01zvns2b_c1_fragmenstein', 'fragmenstein_placed'}

>  <ref_pdb>  (2188) 
175

>  <scratch_subdir>  (2188) 
/opt/xchem-fragalysis-2/maxwin/BulkDock/SCRATCH/511028/C33239-P257

>  <alias>  (2188) 
CNCn1nc2c(F)cc(C(=O)Nc3ccc4c(c3)CNC4)cc2c1C1CCNCC1

>  <HIPPO Compound ID>  (2188) 
33239

>  <fragmenstein_runtime>  (2188) 
5.461464

$$$$
CO[C@@H]1C[C@]2(CCN1)C[C@@H](NC(=O)c1cc(Cl)cc3c1cnn3C1CNC1)C[C@@H]1CNC[C@@H]12
     RDKit          3D

 33 38  0  0  0  0  0  0  0  0999 V2000
   -9.1437    7.5925   -5.7151 C   0  0  0  0  0  0  0  0  0  0  0  0
   -8.5116    6.7723   -6.6830 O   0  0  0  0  0  0  0  0  0  0  0  0
   -8.3650    7.4167   -7.9402 C   0  0  2  0  0  0  0  0  0  0  0  0
   -8.4002    6.3643   -9.0566 C   0  0  0  0  0  0  0  0  0  0  0  0
   -7.2713    5.3065   -8.9965 C   0  0  2  0  0  0  0  0  0  0  0  0
   -6.0844    5.9109   -8.1858 C   0  0  0  0  0  0  0  0  0  0  0  0
   -5.9531    7.4218   -8.3804 C   0  0  0  0  0  0  0  0  0  0  0  0
   -7.1287    8.1913   -7.9659 N   0  0  0  0  0  0  0  0  0  0  0  0
   -6.8028    5.0165  -10.4408 C   0  0  0  0  0  0  0  0  0  0  0  0
   -7.9224    4.4068  -11.2840 C   0  0  1  0  0  0  0  0  0  0  0  0
   -7.5485    4.3732  -12.6809 N   0  0  0  0  0  0  0  0  0  0  0  0
   -7.0255    5.4870  -13.6014 C   0  0  0  0  0  0  0  0  0  0  0  0
   -6.7391    6.5906  -13.3638 O   0  0  0  0  0  0  0  0  0  0  0  0
   -6.9880    5.0596  -15.0130 C   0  0  0  0  0  0  0  0  0  0  0  0
   -8.1202    4.4856  -15.5929 C   0  0  0  0  0  0  0  0  0  0  0  0
   -8.1405    4.2723  -16.9605 C   0  0  0  0  0  0  0  0  0  0  0  0
   -9.5396    3.5997  -17.6613 Cl  0  0  0  0  0  0  0  0  0  0  0  0
   -7.0792    4.6399  -17.7921 C   0  0  0  0  0  0  0  0  0  0  0  0
   -5.9349    5.1888  -17.1944 C   0  0  0  0  0  0  0  0  0  0  0  0
   -5.8729    5.3825  -15.8107 C   0  0  0  0  0  0  0  0  0  0  0  0
   -4.5918    5.9203  -15.5809 C   0  0  0  0  0  0  0  0  0  0  0  0
   -3.8844    6.0591  -16.7003 N   0  0  0  0  0  0  0  0  0  0  0  0
   -4.7371    5.6865  -17.6820 N   0  0  0  0  0  0  0  0  0  0  0  0
   -4.3922    6.0787  -19.0646 C   0  0  0  0  0  0  0  0  0  0  0  0
   -4.7004    5.1243  -20.2120 C   0  0  0  0  0  0  0  0  0  0  0  0
   -5.2417    6.2693  -20.9763 N   0  0  0  0  0  0  0  0  0  0  0  0
   -5.4349    6.9944  -19.7040 C   0  0  0  0  0  0  0  0  0  0  0  0
   -8.3616    3.0373  -10.7793 C   0  0  0  0  0  0  0  0  0  0  0  0
   -8.1447    2.7883   -9.2883 C   0  0  2  0  0  0  0  0  0  0  0  0
   -9.3591    2.2058   -8.5699 C   0  0  0  0  0  0  0  0  0  0  0  0
   -9.1323    2.5195   -7.1546 N   0  0  0  0  0  0  0  0  0  0  0  0
   -8.6121    3.8942   -7.1778 C   0  0  0  0  0  0  0  0  0  0  0  0
   -7.6590    3.9339   -8.3748 C   0  0  2  0  0  0  0  0  0  0  0  0
  1  2  1  0
  3  2  1  1
  3  4  1  0
  5  4  1  6
  5  6  1  0
  6  7  1  0
  7  8  1  0
  5  9  1  0
  9 10  1  0
 10 11  1  6
 11 12  1  0
 12 13  2  0
 12 14  1  0
 14 15  2  0
 15 16  1  0
 16 17  1  0
 16 18  2  0
 18 19  1  0
 19 20  2  0
 20 21  1  0
 21 22  2  0
 22 23  1  0
 23 24  1  0
 24 25  1  0
 25 26  1  0
 26 27  1  0
 10 28  1  0
 29 28  1  6
 29 30  1  0
 30 31  1  0
 31 32  1  0
 33 32  1  1
  8  3  1  0
 20 14  1  0
 27 24  1  0
 33 29  1  0
 33  5  1  0
 23 19  1  0
M  END
>  <smiles>  (2189) 
C33379-P258

>  <fragmenstein_outcome>  (2189) 
acceptable

>  <inchikey>  (2189) 
JFXRPEUTSJYODF-UHFFFAOYSA-N

>  <fragmenstein_mode>  (2189) 
expansion

>  <HIPPO Pose ID>  (2189) 
26545

>  <Energy>  (2189) 
69.330355

>  <fragmenstein_error>  (2189) 


>  <tags>  (2189) 
{'openbind_xx01zvns2b_c1_fragmenstein', 'fragmenstein_placed'}

>  <ref_pdb>  (2189) 
175

>  <scratch_subdir>  (2189) 
/opt/xchem-fragalysis-2/maxwin/BulkDock/SCRATCH/511028/C33379-P258

>  <alias>  (2189) 
CO[C@@H]1C[C@]2(CCN1)C[C@@H](NC(=O)c1cc(Cl)cc3c1cnn3C1CNC1)C[C@@H]1CNC[C@@H]12

>  <HIPPO Compound ID>  (2189) 
33379

>  <fragmenstein_runtime>  (2189) 
5.059047

$$$$
CN(C)Cn1cc2c(C(=O)N[C@@H]3CC[C@@H]4CNC[C@@H]4C3)cc(Cl)cc2c1C1CNC1
     RDKit          3D

 30 34  0  0  0  0  0  0  0  0999 V2000
   -3.6270    9.0813  -15.6444 C   0  0  0  0  0  0  0  0  0  0  0  0
   -2.8468    8.1088  -16.4138 N   0  0  0  0  0  0  0  0  0  0  0  0
   -1.4517    8.5436  -16.4913 C   0  0  0  0  0  0  0  0  0  0  0  0
   -2.9107    6.7654  -15.8291 C   0  0  0  0  0  0  0  0  0  0  0  0
   -4.2556    6.2156  -16.0144 N   0  0  0  0  0  0  0  0  0  0  0  0
   -5.1081    6.0576  -14.9363 C   0  0  0  0  0  0  0  0  0  0  0  0
   -6.2450    5.4554  -15.3900 C   0  0  0  0  0  0  0  0  0  0  0  0
   -7.3624    5.1086  -14.6414 C   0  0  0  0  0  0  0  0  0  0  0  0
   -7.5899    5.5202  -13.2570 C   0  0  0  0  0  0  0  0  0  0  0  0
   -7.6681    6.6571  -13.0232 O   0  0  0  0  0  0  0  0  0  0  0  0
   -7.7705    4.3034  -12.3437 N   0  0  0  0  0  0  0  0  0  0  0  0
   -8.1790    4.2206  -10.9684 C   0  0  2  0  0  0  0  0  0  0  0  0
   -7.2483    5.0235  -10.0495 C   0  0  0  0  0  0  0  0  0  0  0  0
   -7.3252    4.5803   -8.5844 C   0  0  0  0  0  0  0  0  0  0  0  0
   -8.7062    4.0394   -8.2342 C   0  0  2  0  0  0  0  0  0  0  0  0
   -8.8385    3.4842   -6.8186 C   0  0  0  0  0  0  0  0  0  0  0  0
   -9.5527    2.2113   -6.9616 N   0  0  0  0  0  0  0  0  0  0  0  0
   -9.0832    1.6650   -8.2461 C   0  0  0  0  0  0  0  0  0  0  0  0
   -9.1375    2.8803   -9.1427 C   0  0  2  0  0  0  0  0  0  0  0  0
   -8.3768    2.7952  -10.4624 C   0  0  0  0  0  0  0  0  0  0  0  0
   -8.3413    4.4610  -15.4157 C   0  0  0  0  0  0  0  0  0  0  0  0
   -8.1818    4.2434  -16.8209 C   0  0  0  0  0  0  0  0  0  0  0  0
   -9.4758    3.4795  -17.6469 Cl  0  0  0  0  0  0  0  0  0  0  0  0
   -7.0612    4.6367  -17.5902 C   0  0  0  0  0  0  0  0  0  0  0  0
   -6.0941    5.2340  -16.7851 C   0  0  0  0  0  0  0  0  0  0  0  0
   -4.8646    5.7346  -17.1667 C   0  0  0  0  0  0  0  0  0  0  0  0
   -4.3690    5.7623  -18.6443 C   0  0  0  0  0  0  0  0  0  0  0  0
   -4.3463    7.1480  -19.3087 C   0  0  0  0  0  0  0  0  0  0  0  0
   -3.1625    6.7032  -20.0947 N   0  0  0  0  0  0  0  0  0  0  0  0
   -2.8811    5.7119  -19.0137 C   0  0  0  0  0  0  0  0  0  0  0  0
  1  2  1  0
  2  3  1  0
  2  4  1  0
  4  5  1  0
  5  6  1  0
  6  7  2  0
  7  8  1  0
  8  9  1  0
  9 10  2  0
  9 11  1  0
 12 11  1  6
 12 13  1  0
 13 14  1  0
 15 14  1  6
 15 16  1  0
 16 17  1  0
 17 18  1  0
 19 18  1  1
 19 20  1  0
  8 21  2  0
 21 22  1  0
 22 23  1  0
 22 24  2  0
 24 25  1  0
 25 26  2  0
 26 27  1  0
 27 28  1  0
 28 29  1  0
 29 30  1  0
 26  5  1  0
 30 27  1  0
 25  7  1  0
 20 12  1  0
 19 15  1  0
M  END
>  <smiles>  (2190) 
C33429-P258

>  <fragmenstein_outcome>  (2190) 
acceptable

>  <inchikey>  (2190) 
RNUCZCMDLWNCFD-UHFFFAOYSA-N

>  <fragmenstein_mode>  (2190) 
expansion

>  <HIPPO Pose ID>  (2190) 
26581

>  <Energy>  (2190) 
104.444056

>  <fragmenstein_error>  (2190) 


>  <tags>  (2190) 
{'openbind_xx01zvns2b_c1_fragmenstein', 'fragmenstein_placed'}

>  <ref_pdb>  (2190) 
175

>  <scratch_subdir>  (2190) 
/opt/xchem-fragalysis-2/maxwin/BulkDock/SCRATCH/511028/C33429-P258

>  <alias>  (2190) 
CN(C)Cn1cc2c(C(=O)N[C@@H]3CC[C@@H]4CNC[C@@H]4C3)cc(Cl)cc2c1C1CNC1

>  <HIPPO Compound ID>  (2190) 
33094

>  <fragmenstein_runtime>  (2190) 
8.092554

$$$$
CNNc1cc(Cl)cc(C(=O)N[C@@H]2CCC3=CN=C[C@@H]3C2)c1
     RDKit          3D

 22 24  0  0  0  0  0  0  0  0999 V2000
   -3.8529    7.8425  -17.3711 C   0  0  0  0  0  0  0  0  0  0  0  0
   -3.8209    6.3835  -17.3989 N   0  0  0  0  0  0  0  0  0  0  0  0
   -5.0274    5.9280  -17.9370 N   0  0  0  0  0  0  0  0  0  0  0  0
   -5.9899    5.3615  -17.0680 C   0  0  0  0  0  0  0  0  0  0  0  0
   -7.0622    4.6992  -17.6607 C   0  0  0  0  0  0  0  0  0  0  0  0
   -8.1022    4.2130  -16.8841 C   0  0  0  0  0  0  0  0  0  0  0  0
   -9.4098    3.4865  -17.6813 Cl  0  0  0  0  0  0  0  0  0  0  0  0
   -8.1200    4.3739  -15.5078 C   0  0  0  0  0  0  0  0  0  0  0  0
   -7.0689    5.0627  -14.9025 C   0  0  0  0  0  0  0  0  0  0  0  0
   -7.2467    5.4843  -13.4885 C   0  0  0  0  0  0  0  0  0  0  0  0
   -7.1516    6.6213  -13.2475 O   0  0  0  0  0  0  0  0  0  0  0  0
   -7.6368    4.2991  -12.5813 N   0  0  0  0  0  0  0  0  0  0  0  0
   -8.0857    4.2763  -11.2064 C   0  0  2  0  0  0  0  0  0  0  0  0
   -7.3102    5.1982  -10.2561 C   0  0  0  0  0  0  0  0  0  0  0  0
   -8.0721    5.3731   -8.9329 C   0  0  0  0  0  0  0  0  0  0  0  0
   -8.5589    4.0685   -8.4094 C   0  0  0  0  0  0  0  0  0  0  0  0
   -8.5734    3.5930   -7.1624 C   0  0  0  0  0  0  0  0  0  0  0  0
   -8.9698    2.2861   -7.0807 N   0  0  0  0  0  0  0  0  0  0  0  0
   -9.1226    1.9098   -8.3143 C   0  0  0  0  0  0  0  0  0  0  0  0
   -9.0603    3.0075   -9.3392 C   0  0  2  0  0  0  0  0  0  0  0  0
   -8.2175    2.8676  -10.5938 C   0  0  0  0  0  0  0  0  0  0  0  0
   -6.0171    5.5691  -15.6790 C   0  0  0  0  0  0  0  0  0  0  0  0
  1  2  1  0
  2  3  1  0
  3  4  1  0
  4  5  2  0
  5  6  1  0
  6  7  1  0
  6  8  2  0
  8  9  1  0
  9 10  1  0
 10 11  2  0
 10 12  1  0
 13 12  1  6
 13 14  1  0
 14 15  1  0
 15 16  1  0
 16 17  2  0
 17 18  1  0
 18 19  2  0
 19 20  1  0
 20 21  1  6
  9 22  2  0
 22  4  1  0
 21 13  1  0
 20 16  1  0
M  END
>  <smiles>  (2191) 
C33454-P258

>  <fragmenstein_outcome>  (2191) 
acceptable

>  <inchikey>  (2191) 
OXSGBTRFWCPVST-UHFFFAOYSA-N

>  <fragmenstein_mode>  (2191) 
expansion

>  <HIPPO Pose ID>  (2191) 
26596

>  <Energy>  (2191) 
61.996664

>  <fragmenstein_error>  (2191) 


>  <tags>  (2191) 
{'openbind_xx01zvns2b_c1_fragmenstein', 'fragmenstein_placed'}

>  <ref_pdb>  (2191) 
175

>  <scratch_subdir>  (2191) 
/opt/xchem-fragalysis-2/maxwin/BulkDock/SCRATCH/511028/C33454-P258

>  <alias>  (2191) 
CNNc1cc(Cl)cc(C(=O)N[C@@H]2CCC3=CN=C[C@@H]3C2)c1

>  <HIPPO Compound ID>  (2191) 
38744

>  <fragmenstein_runtime>  (2191) 
4.057921

$$$$
O=C(O)N=C(Nc1ccc2c(c1)CNC2)c1cc(Cl)cc2c(C3CN(C4CCOCC4)C3)[nH]nc12
     RDKit          3D

 35 40  0  0  0  0  0  0  0  0999 V2000
   -6.1496    7.9951  -14.8290 O   0  0  0  0  0  0  0  0  0  0  0  0
   -5.8433    7.2677  -13.8999 C   0  0  0  0  0  0  0  0  0  0  0  0
   -4.6054    7.3325  -13.3758 O   0  0  0  0  0  0  0  0  0  0  0  0
   -6.6080    6.4102  -13.2046 N   0  0  0  0  0  0  0  0  0  0  0  0
   -7.2401    5.4334  -13.5663 C   0  0  0  0  0  0  0  0  0  0  0  0
   -8.1328    4.4130  -12.7292 N   0  0  0  0  0  0  0  0  0  0  0  0
   -8.3510    4.3147  -11.3552 C   0  0  0  0  0  0  0  0  0  0  0  0
   -8.1259    5.4484  -10.5412 C   0  0  0  0  0  0  0  0  0  0  0  0
   -8.2203    5.4016   -9.1486 C   0  0  0  0  0  0  0  0  0  0  0  0
   -8.5314    4.1935   -8.5659 C   0  0  0  0  0  0  0  0  0  0  0  0
   -8.7528    3.0624   -9.3433 C   0  0  0  0  0  0  0  0  0  0  0  0
   -8.6742    3.1065  -10.7340 C   0  0  0  0  0  0  0  0  0  0  0  0
   -8.9801    1.8989   -8.4341 C   0  0  0  0  0  0  0  0  0  0  0  0
   -9.1836    2.4740   -7.0789 N   0  0  0  0  0  0  0  0  0  0  0  0
   -8.6361    3.8427   -7.1215 C   0  0  0  0  0  0  0  0  0  0  0  0
   -7.3167    5.0633  -15.0572 C   0  0  0  0  0  0  0  0  0  0  0  0
   -8.5395    4.7121  -15.7092 C   0  0  0  0  0  0  0  0  0  0  0  0
   -8.6573    4.4980  -17.1265 C   0  0  0  0  0  0  0  0  0  0  0  0
  -10.2014    4.1108  -17.8093 Cl  0  0  0  0  0  0  0  0  0  0  0  0
   -7.5996    4.6473  -18.0369 C   0  0  0  0  0  0  0  0  0  0  0  0
   -6.4186    4.9519  -17.3778 C   0  0  0  0  0  0  0  0  0  0  0  0
   -5.2179    5.2075  -17.9742 C   0  0  0  0  0  0  0  0  0  0  0  0
   -4.8456    5.2824  -19.4867 C   0  0  0  0  0  0  0  0  0  0  0  0
   -3.3701    4.9451  -19.8075 C   0  0  0  0  0  0  0  0  0  0  0  0
   -3.0399    6.3866  -19.6234 N   0  0  0  0  0  0  0  0  0  0  0  0
   -2.1158    6.8461  -20.6786 C   0  0  0  0  0  0  0  0  0  0  0  0
   -0.7312    6.1959  -20.4906 C   0  0  0  0  0  0  0  0  0  0  0  0
    0.3794    7.0064  -21.1510 C   0  0  0  0  0  0  0  0  0  0  0  0
   -0.1439    7.7939  -22.2143 O   0  0  0  0  0  0  0  0  0  0  0  0
   -1.0073    8.8313  -21.7459 C   0  0  0  0  0  0  0  0  0  0  0  0
   -1.9521    8.3678  -20.6370 C   0  0  0  0  0  0  0  0  0  0  0  0
   -4.4610    6.6975  -19.9834 C   0  0  0  0  0  0  0  0  0  0  0  0
   -4.3558    5.4490  -16.9499 N   0  0  0  0  0  0  0  0  0  0  0  0
   -4.9059    5.3488  -15.7318 N   0  0  0  0  0  0  0  0  0  0  0  0
   -6.2186    5.1257  -15.9485 C   0  0  0  0  0  0  0  0  0  0  0  0
  1  2  2  0
  2  3  1  0
  2  4  1  0
  4  5  2  3
  5  6  1  0
  6  7  1  0
  7  8  2  0
  8  9  1  0
  9 10  2  0
 10 11  1  0
 11 12  2  0
 11 13  1  0
 13 14  1  0
 14 15  1  0
  5 16  1  0
 16 17  2  0
 17 18  1  0
 18 19  1  0
 18 20  2  0
 20 21  1  0
 21 22  2  0
 22 23  1  0
 23 24  1  0
 24 25  1  0
 25 26  1  0
 26 27  1  0
 27 28  1  0
 28 29  1  0
 29 30  1  0
 30 31  1  0
 25 32  1  0
 22 33  1  0
 33 34  1  0
 34 35  2  0
 12  7  1  0
 35 16  1  0
 15 10  1  0
 35 21  1  0
 32 23  1  0
 31 26  1  0
M  END
>  <smiles>  (2192) 
C33626-P259

>  <fragmenstein_outcome>  (2192) 
acceptable

>  <inchikey>  (2192) 
TXIBEIGDHVMIDJ-UHFFFAOYSA-N

>  <fragmenstein_mode>  (2192) 
expansion

>  <HIPPO Pose ID>  (2192) 
26672

>  <Energy>  (2192) 
45.830246

>  <fragmenstein_error>  (2192) 


>  <tags>  (2192) 
{'openbind_xx01zvns2b_c1_fragmenstein', 'fragmenstein_placed'}

>  <ref_pdb>  (2192) 
175

>  <scratch_subdir>  (2192) 
/opt/xchem-fragalysis-2/maxwin/BulkDock/SCRATCH/511028/C33626-P259

>  <alias>  (2192) 
O=C(O)N=C(Nc1ccc2c(c1)CNC2)c1cc(Cl)cc2c(C3CN(C4CCOCC4)C3)[nH]nc12

>  <HIPPO Compound ID>  (2192) 
33626

>  <fragmenstein_runtime>  (2192) 
4.779165

$$$$
CC(C)NC(=O)[C@](O)(Nc1ccc2c(c1)CNC2)c1cc(Cl)cc2c1N[C@]13CCCC[C@H]1O[C@@H]1[C@H](CCN1C1CCOCC1)[C@@H]23
     RDKit          3D

 45 52  0  0  0  0  0  0  0  0999 V2000
   -3.3607    1.8692  -13.0771 C   0  0  0  0  0  0  0  0  0  0  0  0
   -3.9830    2.7131  -11.9749 C   0  0  0  0  0  0  0  0  0  0  0  0
   -4.5801    1.8411  -10.8734 C   0  0  0  0  0  0  0  0  0  0  0  0
   -4.9709    3.6166  -12.5206 N   0  0  0  0  0  0  0  0  0  0  0  0
   -6.2910    3.3639  -13.0702 C   0  0  0  0  0  0  0  0  0  0  0  0
   -6.8651    2.3316  -13.2833 O   0  0  0  0  0  0  0  0  0  0  0  0
   -6.9930    4.8002  -13.3527 C   0  0  2  0  0  0  0  0  0  0  0  0
   -6.2498    5.8817  -12.7863 O   0  0  0  0  0  0  0  0  0  0  0  0
   -8.3394    4.9267  -12.7504 N   0  0  0  0  0  0  0  0  0  0  0  0
   -8.4358    4.7740  -11.3511 C   0  0  0  0  0  0  0  0  0  0  0  0
   -8.3492    5.9092  -10.5100 C   0  0  0  0  0  0  0  0  0  0  0  0
   -8.3686    5.7925   -9.1173 C   0  0  0  0  0  0  0  0  0  0  0  0
   -8.5091    4.5302   -8.5766 C   0  0  0  0  0  0  0  0  0  0  0  0
   -8.5977    3.4043   -9.3902 C   0  0  0  0  0  0  0  0  0  0  0  0
   -8.5410    3.5048  -10.7723 C   0  0  0  0  0  0  0  0  0  0  0  0
   -8.7529    2.1923   -8.5283 C   0  0  0  0  0  0  0  0  0  0  0  0
   -9.1173    2.7240   -7.1840 N   0  0  0  0  0  0  0  0  0  0  0  0
   -8.5985    4.1056   -7.1493 C   0  0  0  0  0  0  0  0  0  0  0  0
   -7.0863    4.9794  -14.8717 C   0  0  0  0  0  0  0  0  0  0  0  0
   -8.1660    4.4150  -15.5939 C   0  0  0  0  0  0  0  0  0  0  0  0
   -8.2370    4.4779  -16.9973 C   0  0  0  0  0  0  0  0  0  0  0  0
   -9.6289    3.8880  -17.8223 Cl  0  0  0  0  0  0  0  0  0  0  0  0
   -7.2262    5.0769  -17.7410 C   0  0  0  0  0  0  0  0  0  0  0  0
   -6.1714    5.6330  -17.0463 C   0  0  0  0  0  0  0  0  0  0  0  0
   -6.0935    5.5898  -15.6376 C   0  0  0  0  0  0  0  0  0  0  0  0
   -4.9721    6.3461  -15.1363 N   0  0  0  0  0  0  0  0  0  0  0  0
   -4.1114    6.5024  -16.3394 C   0  0  2  0  0  0  0  0  0  0  0  0
   -3.1148    5.3096  -16.3080 C   0  0  0  0  0  0  0  0  0  0  0  0
   -2.1667    5.3782  -15.0959 C   0  0  0  0  0  0  0  0  0  0  0  0
   -2.0686    6.7470  -14.4299 C   0  0  0  0  0  0  0  0  0  0  0  0
   -2.0975    7.8843  -15.4380 C   0  0  0  0  0  0  0  0  0  0  0  0
   -3.2453    7.7893  -16.4558 C   0  0  1  0  0  0  0  0  0  0  0  0
   -2.6083    7.8433  -17.7750 O   0  0  0  0  0  0  0  0  0  0  0  0
   -3.5386    7.7921  -18.8483 C   0  0  2  0  0  0  0  0  0  0  0  0
   -4.3758    6.5104  -18.8271 C   0  0  2  0  0  0  0  0  0  0  0  0
   -5.1206    6.6376  -20.1388 C   0  0  0  0  0  0  0  0  0  0  0  0
   -4.0757    7.2910  -21.0599 C   0  0  0  0  0  0  0  0  0  0  0  0
   -2.9571    7.6790  -20.1752 N   0  0  0  0  0  0  0  0  0  0  0  0
   -2.1253    8.8069  -20.6055 C   0  0  0  0  0  0  0  0  0  0  0  0
   -1.4774    8.5263  -21.9728 C   0  0  0  0  0  0  0  0  0  0  0  0
   -0.5841    9.6881  -22.3859 C   0  0  0  0  0  0  0  0  0  0  0  0
   -1.3228   10.9085  -22.4095 O   0  0  0  0  0  0  0  0  0  0  0  0
   -1.8356   11.2483  -21.1239 C   0  0  0  0  0  0  0  0  0  0  0  0
   -2.8094   10.1850  -20.6287 C   0  0  0  0  0  0  0  0  0  0  0  0
   -5.1217    6.5613  -17.5241 C   0  0  1  0  0  0  0  0  0  0  0  0
  1  2  1  0
  2  3  1  0
  2  4  1  0
  4  5  1  0
  5  6  2  0
  5  7  1  0
  7  8  1  1
  7  9  1  0
  9 10  1  0
 10 11  2  0
 11 12  1  0
 12 13  2  0
 13 14  1  0
 14 15  2  0
 14 16  1  0
 16 17  1  0
 17 18  1  0
  7 19  1  0
 19 20  2  0
 20 21  1  0
 21 22  1  0
 21 23  2  0
 23 24  1  0
 24 25  2  0
 25 26  1  0
 26 27  1  0
 27 28  1  6
 28 29  1  0
 29 30  1  0
 30 31  1  0
 32 31  1  1
 32 33  1  0
 34 33  1  1
 34 35  1  0
 35 36  1  6
 36 37  1  0
 37 38  1  0
 38 39  1  0
 39 40  1  0
 40 41  1  0
 41 42  1  0
 42 43  1  0
 43 44  1  0
 35 45  1  0
 15 10  1  0
 25 19  1  0
 32 27  1  0
 38 34  1  0
 44 39  1  0
 18 13  1  0
 45 24  1  1
 45 27  1  0
M  END
>  <smiles>  (2193) 
C33666-P259

>  <fragmenstein_outcome>  (2193) 
acceptable

>  <inchikey>  (2193) 
CRRMKAGLAULBAJ-UHFFFAOYSA-N

>  <fragmenstein_mode>  (2193) 
expansion

>  <HIPPO Pose ID>  (2193) 
26686

>  <Energy>  (2193) 
140.756675

>  <fragmenstein_error>  (2193) 


>  <tags>  (2193) 
{'openbind_xx01zvns2b_c1_fragmenstein', 'fragmenstein_placed'}

>  <ref_pdb>  (2193) 
175

>  <scratch_subdir>  (2193) 
/opt/xchem-fragalysis-2/maxwin/BulkDock/SCRATCH/511028/C33666-P259

>  <alias>  (2193) 
CC(C)NC(=O)[C@](O)(Nc1ccc2c(c1)CNC2)c1cc(Cl)cc2c1N[C@]13CCCC[C@H]1O[C@@H]1[C@H](CCN1C1CCOCC1)[C@@H]23

>  <HIPPO Compound ID>  (2193) 
33666

>  <fragmenstein_runtime>  (2193) 
24.633339

$$$$
Nc1c(C(=O)Nc2ccc3c(c2)CNC3)cc(Cl)c2[nH]cc(C3CCNCC3)c12
     RDKit          3D

 29 33  0  0  0  0  0  0  0  0999 V2000
   -4.9474    6.0522  -14.8313 N   0  0  0  0  0  0  0  0  0  0  0  0
   -6.0327    5.4830  -15.5473 C   0  0  0  0  0  0  0  0  0  0  0  0
   -7.2044    5.0521  -14.8673 C   0  0  0  0  0  0  0  0  0  0  0  0
   -7.3802    5.4289  -13.4344 C   0  0  0  0  0  0  0  0  0  0  0  0
   -7.1161    6.5274  -13.1338 O   0  0  0  0  0  0  0  0  0  0  0  0
   -7.9092    4.2549  -12.5781 N   0  0  0  0  0  0  0  0  0  0  0  0
   -8.1262    4.1621  -11.2033 C   0  0  0  0  0  0  0  0  0  0  0  0
   -7.9859    5.2929  -10.3803 C   0  0  0  0  0  0  0  0  0  0  0  0
   -8.1792    5.2071   -8.9984 C   0  0  0  0  0  0  0  0  0  0  0  0
   -8.5194    3.9802   -8.4616 C   0  0  0  0  0  0  0  0  0  0  0  0
   -8.6650    2.8612   -9.2716 C   0  0  0  0  0  0  0  0  0  0  0  0
   -8.4748    2.9307  -10.6449 C   0  0  0  0  0  0  0  0  0  0  0  0
   -8.9975    1.6796   -8.4253 C   0  0  0  0  0  0  0  0  0  0  0  0
   -9.2292    2.2013   -7.0524 N   0  0  0  0  0  0  0  0  0  0  0  0
   -8.7737    3.6071   -7.0420 C   0  0  0  0  0  0  0  0  0  0  0  0
   -8.2709    4.4667  -15.5477 C   0  0  0  0  0  0  0  0  0  0  0  0
   -8.2136    4.3350  -16.9314 C   0  0  0  0  0  0  0  0  0  0  0  0
   -9.5550    3.7415  -17.7997 Cl  0  0  0  0  0  0  0  0  0  0  0  0
   -7.0894    4.7941  -17.6168 C   0  0  0  0  0  0  0  0  0  0  0  0
   -6.8424    4.8454  -18.9701 N   0  0  0  0  0  0  0  0  0  0  0  0
   -5.6019    5.3691  -19.1975 C   0  0  0  0  0  0  0  0  0  0  0  0
   -5.0410    5.7144  -17.9832 C   0  0  0  0  0  0  0  0  0  0  0  0
   -3.6942    6.3512  -17.7764 C   0  0  0  0  0  0  0  0  0  0  0  0
   -3.3896    7.4602  -18.7885 C   0  0  0  0  0  0  0  0  0  0  0  0
   -2.0578    8.1366  -18.4500 C   0  0  0  0  0  0  0  0  0  0  0  0
   -1.0430    7.2354  -17.8995 N   0  0  0  0  0  0  0  0  0  0  0  0
   -1.2503    5.8516  -18.3165 C   0  0  0  0  0  0  0  0  0  0  0  0
   -2.5676    5.3041  -17.7666 C   0  0  0  0  0  0  0  0  0  0  0  0
   -5.9905    5.3515  -16.9622 C   0  0  0  0  0  0  0  0  0  0  0  0
  1  2  1  0
  2  3  2  0
  3  4  1  0
  4  5  2  0
  4  6  1  0
  6  7  1  0
  7  8  2  0
  8  9  1  0
  9 10  2  0
 10 11  1  0
 11 12  2  0
 11 13  1  0
 13 14  1  0
 14 15  1  0
  3 16  1  0
 16 17  2  0
 17 18  1  0
 17 19  1  0
 19 20  1  0
 20 21  1  0
 21 22  2  0
 22 23  1  0
 23 24  1  0
 24 25  1  0
 25 26  1  0
 26 27  1  0
 27 28  1  0
 22 29  1  0
 29  2  1  0
 12  7  1  0
 29 19  2  0
 15 10  1  0
 28 23  1  0
M  END
>  <smiles>  (2194) 
C32452-P260

>  <fragmenstein_outcome>  (2194) 
acceptable

>  <inchikey>  (2194) 
VTPRSJVYLOGQFT-UHFFFAOYSA-N

>  <fragmenstein_mode>  (2194) 
expansion

>  <HIPPO Pose ID>  (2194) 
26707

>  <Energy>  (2194) 
68.633015

>  <fragmenstein_error>  (2194) 


>  <tags>  (2194) 
{'openbind_xx01zvns2b_c1_fragmenstein', 'fragmenstein_placed'}

>  <ref_pdb>  (2194) 
175

>  <scratch_subdir>  (2194) 
/opt/xchem-fragalysis-2/maxwin/BulkDock/SCRATCH/511028/C32452-P260

>  <alias>  (2194) 
Nc1c(C(=O)Nc2ccc3c(c2)CNC3)cc(Cl)c2[nH]cc(C3CCNCC3)c12

>  <HIPPO Compound ID>  (2194) 
35262

>  <fragmenstein_runtime>  (2194) 
4.359617

$$$$
O=C(Nc1ccc2c(c1)CNC2)c1cc(Cl)c2[nH]cc([C@H]3C[C@@H]4C[C@H]5CCCC[C@@]4(C5)C[C@@H]3C(=O)O)c2c1
     RDKit          3D

 38 44  0  0  0  0  0  0  0  0999 V2000
   -6.7277    6.4515  -13.2129 O   0  0  0  0  0  0  0  0  0  0  0  0
   -7.1034    5.3892  -13.5244 C   0  0  0  0  0  0  0  0  0  0  0  0
   -7.7525    4.2655  -12.6779 N   0  0  0  0  0  0  0  0  0  0  0  0
   -7.9792    4.1822  -11.3027 C   0  0  0  0  0  0  0  0  0  0  0  0
   -7.8140    5.3058  -10.4752 C   0  0  0  0  0  0  0  0  0  0  0  0
   -8.0678    5.2331   -9.1007 C   0  0  0  0  0  0  0  0  0  0  0  0
   -8.4876    4.0255   -8.5772 C   0  0  0  0  0  0  0  0  0  0  0  0
   -8.6424    2.9067   -9.3906 C   0  0  0  0  0  0  0  0  0  0  0  0
   -8.3998    2.9660  -10.7549 C   0  0  0  0  0  0  0  0  0  0  0  0
   -9.0508    1.7476   -8.5417 C   0  0  0  0  0  0  0  0  0  0  0  0
   -9.5137    2.3485   -7.2631 N   0  0  0  0  0  0  0  0  0  0  0  0
   -8.8248    3.6552   -7.1712 C   0  0  0  0  0  0  0  0  0  0  0  0
   -7.0585    5.0440  -14.9770 C   0  0  0  0  0  0  0  0  0  0  0  0
   -8.1548    4.4476  -15.5987 C   0  0  0  0  0  0  0  0  0  0  0  0
   -8.1662    4.3032  -16.9833 C   0  0  0  0  0  0  0  0  0  0  0  0
   -9.5276    3.6680  -17.7849 Cl  0  0  0  0  0  0  0  0  0  0  0  0
   -7.0879    4.7743  -17.7299 C   0  0  0  0  0  0  0  0  0  0  0  0
   -6.9092    4.8021  -19.0918 N   0  0  0  0  0  0  0  0  0  0  0  0
   -5.7194    5.3956  -19.3902 C   0  0  0  0  0  0  0  0  0  0  0  0
   -5.1159    5.7938  -18.2159 C   0  0  0  0  0  0  0  0  0  0  0  0
   -3.8114    6.5449  -18.1754 C   0  0  1  0  0  0  0  0  0  0  0  0
   -3.9700    7.9073  -17.4913 C   0  0  0  0  0  0  0  0  0  0  0  0
   -2.6935    8.7543  -17.5171 C   0  0  2  0  0  0  0  0  0  0  0  0
   -2.4789    9.4867  -18.8633 C   0  0  0  0  0  0  0  0  0  0  0  0
   -0.9724    9.3870  -19.1313 C   0  0  1  0  0  0  0  0  0  0  0  0
   -0.1982   10.4981  -18.3979 C   0  0  0  0  0  0  0  0  0  0  0  0
    1.0880   10.0523  -17.7061 C   0  0  0  0  0  0  0  0  0  0  0  0
    0.9232    9.0465  -16.5556 C   0  0  0  0  0  0  0  0  0  0  0  0
   -0.5132    8.6780  -16.1672 C   0  0  0  0  0  0  0  0  0  0  0  0
   -1.3821    7.9437  -17.2549 C   0  0  2  0  0  0  0  0  0  0  0  0
   -0.7031    7.9696  -18.6381 C   0  0  0  0  0  0  0  0  0  0  0  0
   -1.6934    6.5184  -16.7434 C   0  0  0  0  0  0  0  0  0  0  0  0
   -2.6693    5.6889  -17.5996 C   0  0  2  0  0  0  0  0  0  0  0  0
   -1.9914    4.9416  -18.7354 C   0  0  0  0  0  0  0  0  0  0  0  0
   -2.5272    4.4658  -19.7237 O   0  0  0  0  0  0  0  0  0  0  0  0
   -0.6648    4.8258  -18.5633 O   0  0  0  0  0  0  0  0  0  0  0  0
   -5.9766    5.3773  -17.1439 C   0  0  0  0  0  0  0  0  0  0  0  0
   -5.9598    5.4966  -15.7357 C   0  0  0  0  0  0  0  0  0  0  0  0
  1  2  2  0
  2  3  1  0
  3  4  1  0
  4  5  2  0
  5  6  1  0
  6  7  2  0
  7  8  1  0
  8  9  2  0
  8 10  1  0
 10 11  1  0
 11 12  1  0
  2 13  1  0
 13 14  2  0
 14 15  1  0
 15 16  1  0
 15 17  2  0
 17 18  1  0
 18 19  1  0
 19 20  2  0
 21 20  1  1
 21 22  1  0
 23 22  1  6
 23 24  1  0
 25 24  1  1
 25 26  1  0
 26 27  1  0
 27 28  1  0
 28 29  1  0
 30 29  1  1
 30 31  1  0
 30 32  1  0
 32 33  1  0
 33 34  1  6
 34 35  2  0
 34 36  1  0
 20 37  1  0
 37 38  2  0
  9  4  1  0
 38 13  1  0
 12  7  1  0
 37 17  1  0
 33 21  1  0
 30 23  1  0
 31 25  1  0
M  END
>  <smiles>  (2195) 
C33710-P260

>  <fragmenstein_outcome>  (2195) 
acceptable

>  <inchikey>  (2195) 
MLTSGUNODIOABB-UHFFFAOYSA-N

>  <fragmenstein_mode>  (2195) 
expansion

>  <HIPPO Pose ID>  (2195) 
26719

>  <Energy>  (2195) 
74.743777

>  <fragmenstein_error>  (2195) 


>  <tags>  (2195) 
{'openbind_xx01zvns2b_c1_fragmenstein', 'fragmenstein_placed'}

>  <ref_pdb>  (2195) 
175

>  <scratch_subdir>  (2195) 
/opt/xchem-fragalysis-2/maxwin/BulkDock/SCRATCH/511028/C33710-P260

>  <alias>  (2195) 
O=C(Nc1ccc2c(c1)CNC2)c1cc(Cl)c2[nH]cc([C@H]3C[C@@H]4C[C@H]5CCCC[C@@]4(C5)C[C@@H]3C(=O)O)c2c1

>  <HIPPO Compound ID>  (2195) 
33710

>  <fragmenstein_runtime>  (2195) 
6.631812

$$$$
Cc1c(NC(=O)c2cc(Cl)c3[nH]cc(C4CCNCC4)c3c2)ccc2c1CNC2
     RDKit          3D

 29 33  0  0  0  0  0  0  0  0999 V2000
   -8.4977    2.1301  -11.2766 C   0  0  0  0  0  0  0  0  0  0  0  0
   -8.3679    3.4019  -10.5223 C   0  0  0  0  0  0  0  0  0  0  0  0
   -7.9745    4.6140  -11.1199 C   0  0  0  0  0  0  0  0  0  0  0  0
   -7.7492    4.6490  -12.5036 N   0  0  0  0  0  0  0  0  0  0  0  0
   -7.2231    5.7832  -13.4038 C   0  0  0  0  0  0  0  0  0  0  0  0
   -6.9661    6.8926  -13.1503 O   0  0  0  0  0  0  0  0  0  0  0  0
   -7.1223    5.3189  -14.8220 C   0  0  0  0  0  0  0  0  0  0  0  0
   -8.1804    4.6481  -15.4422 C   0  0  0  0  0  0  0  0  0  0  0  0
   -8.1383    4.3979  -16.8158 C   0  0  0  0  0  0  0  0  0  0  0  0
   -9.4531    3.6634  -17.6174 Cl  0  0  0  0  0  0  0  0  0  0  0  0
   -7.0352    4.8359  -17.5494 C   0  0  0  0  0  0  0  0  0  0  0  0
   -6.7969    4.8176  -18.9056 N   0  0  0  0  0  0  0  0  0  0  0  0
   -5.5569    5.3361  -19.1650 C   0  0  0  0  0  0  0  0  0  0  0  0
   -4.9929    5.7407  -17.9713 C   0  0  0  0  0  0  0  0  0  0  0  0
   -3.6471    6.3675  -17.7705 C   0  0  0  0  0  0  0  0  0  0  0  0
   -3.3758    7.5343  -18.7205 C   0  0  0  0  0  0  0  0  0  0  0  0
   -2.0476    8.2066  -18.3602 C   0  0  0  0  0  0  0  0  0  0  0  0
   -1.0113    7.2948  -17.8630 N   0  0  0  0  0  0  0  0  0  0  0  0
   -1.2068    5.9321  -18.3616 C   0  0  0  0  0  0  0  0  0  0  0  0
   -2.5146    5.3295  -17.8460 C   0  0  0  0  0  0  0  0  0  0  0  0
   -5.9440    5.4524  -16.9435 C   0  0  0  0  0  0  0  0  0  0  0  0
   -5.9874    5.6919  -15.5538 C   0  0  0  0  0  0  0  0  0  0  0  0
   -7.8370    5.7596  -10.3250 C   0  0  0  0  0  0  0  0  0  0  0  0
   -8.0601    5.7089   -8.9405 C   0  0  0  0  0  0  0  0  0  0  0  0
   -8.4380    4.5067   -8.3694 C   0  0  0  0  0  0  0  0  0  0  0  0
   -8.5953    3.3714   -9.1479 C   0  0  0  0  0  0  0  0  0  0  0  0
   -8.9963    2.2229   -8.2727 C   0  0  0  0  0  0  0  0  0  0  0  0
   -9.3522    2.8299   -6.9641 N   0  0  0  0  0  0  0  0  0  0  0  0
   -8.7085    4.1598   -6.9447 C   0  0  0  0  0  0  0  0  0  0  0  0
  1  2  1  0
  2  3  2  0
  3  4  1  0
  4  5  1  0
  5  6  2  0
  5  7  1  0
  7  8  2  0
  8  9  1  0
  9 10  1  0
  9 11  2  0
 11 12  1  0
 12 13  1  0
 13 14  2  0
 14 15  1  0
 15 16  1  0
 16 17  1  0
 17 18  1  0
 18 19  1  0
 19 20  1  0
 14 21  1  0
 21 22  2  0
  3 23  1  0
 23 24  2  0
 24 25  1  0
 25 26  2  0
 26 27  1  0
 27 28  1  0
 28 29  1  0
 26  2  1  0
 22  7  1  0
 29 25  1  0
 21 11  1  0
 20 15  1  0
M  END
>  <smiles>  (2196) 
C33711-P260

>  <fragmenstein_outcome>  (2196) 
acceptable

>  <inchikey>  (2196) 
JQYQVLNBXJAVCN-UHFFFAOYSA-N

>  <fragmenstein_mode>  (2196) 
expansion

>  <HIPPO Pose ID>  (2196) 
26720

>  <Energy>  (2196) 
47.837961

>  <fragmenstein_error>  (2196) 


>  <tags>  (2196) 
{'openbind_xx01zvns2b_c1_fragmenstein', 'fragmenstein_placed'}

>  <ref_pdb>  (2196) 
175

>  <scratch_subdir>  (2196) 
/opt/xchem-fragalysis-2/maxwin/BulkDock/SCRATCH/511028/C33711-P260

>  <alias>  (2196) 
Cc1c(NC(=O)c2cc(Cl)c3[nH]cc(C4CCNCC4)c3c2)ccc2c1CNC2

>  <HIPPO Compound ID>  (2196) 
33711

>  <fragmenstein_runtime>  (2196) 
4.918376

$$$$
O=C1N=c2c(Cl)cc(C(=O)Nc3ccc4c(c3)CNC4)cc2=C1C1CCNCC1
     RDKit          3D

 29 33  0  0  0  0  0  0  0  0999 V2000
   -4.9129    5.1580  -20.0738 O   0  0  0  0  0  0  0  0  0  0  0  0
   -5.5386    5.0659  -19.0322 C   0  0  0  0  0  0  0  0  0  0  0  0
   -6.7646    4.4941  -18.8401 N   0  0  0  0  0  0  0  0  0  0  0  0
   -7.0235    4.6216  -17.5860 C   0  0  0  0  0  0  0  0  0  0  0  0
   -8.2218    4.2171  -16.8247 C   0  0  0  0  0  0  0  0  0  0  0  0
   -9.5095    3.5370  -17.6979 Cl  0  0  0  0  0  0  0  0  0  0  0  0
   -8.2879    4.4497  -15.5038 C   0  0  0  0  0  0  0  0  0  0  0  0
   -7.2108    5.1092  -14.7779 C   0  0  0  0  0  0  0  0  0  0  0  0
   -7.3603    5.5495  -13.3505 C   0  0  0  0  0  0  0  0  0  0  0  0
   -7.1127    6.6469  -13.0348 O   0  0  0  0  0  0  0  0  0  0  0  0
   -7.8758    4.3543  -12.5093 N   0  0  0  0  0  0  0  0  0  0  0  0
   -8.0947    4.2407  -11.1371 C   0  0  0  0  0  0  0  0  0  0  0  0
   -7.9661    5.3563  -10.2938 C   0  0  0  0  0  0  0  0  0  0  0  0
   -8.1730    5.2424   -8.9158 C   0  0  0  0  0  0  0  0  0  0  0  0
   -8.5157    4.0046   -8.4051 C   0  0  0  0  0  0  0  0  0  0  0  0
   -8.6500    2.9001   -9.2364 C   0  0  0  0  0  0  0  0  0  0  0  0
   -8.4447    2.9965  -10.6052 C   0  0  0  0  0  0  0  0  0  0  0  0
   -8.9943    1.7030   -8.4167 C   0  0  0  0  0  0  0  0  0  0  0  0
   -9.2392    2.1992   -7.0373 N   0  0  0  0  0  0  0  0  0  0  0  0
   -8.7861    3.6051   -6.9954 C   0  0  0  0  0  0  0  0  0  0  0  0
   -6.0931    5.5149  -15.4113 C   0  0  0  0  0  0  0  0  0  0  0  0
   -5.9685    5.2841  -16.8187 C   0  0  0  0  0  0  0  0  0  0  0  0
   -5.0393    5.5757  -17.7292 C   0  0  0  0  0  0  0  0  0  0  0  0
   -3.7227    6.2570  -17.5682 C   0  0  0  0  0  0  0  0  0  0  0  0
   -3.5541    7.4931  -18.4583 C   0  0  0  0  0  0  0  0  0  0  0  0
   -2.2212    8.1919  -18.1630 C   0  0  0  0  0  0  0  0  0  0  0  0
   -1.1537    7.2888  -17.7243 N   0  0  0  0  0  0  0  0  0  0  0  0
   -1.2964    5.9560  -18.3044 C   0  0  0  0  0  0  0  0  0  0  0  0
   -2.5546    5.2755  -17.7662 C   0  0  0  0  0  0  0  0  0  0  0  0
  1  2  2  0
  2  3  1  0
  3  4  2  0
  4  5  1  0
  5  6  1  0
  5  7  2  0
  7  8  1  0
  8  9  1  0
  9 10  2  0
  9 11  1  0
 11 12  1  0
 12 13  2  0
 13 14  1  0
 14 15  2  0
 15 16  1  0
 16 17  2  0
 16 18  1  0
 18 19  1  0
 19 20  1  0
  8 21  2  0
 21 22  1  0
 22 23  2  0
 23 24  1  0
 24 25  1  0
 25 26  1  0
 26 27  1  0
 27 28  1  0
 28 29  1  0
 23  2  1  0
 29 24  1  0
 22  4  1  0
 17 12  1  0
 20 15  1  0
M  END
>  <smiles>  (2197) 
C32477-P260

>  <fragmenstein_outcome>  (2197) 
acceptable

>  <inchikey>  (2197) 
NTPDNIOPEODEFW-UHFFFAOYSA-N

>  <fragmenstein_mode>  (2197) 
expansion

>  <HIPPO Pose ID>  (2197) 
26722

>  <Energy>  (2197) 
38.780834

>  <fragmenstein_error>  (2197) 


>  <tags>  (2197) 
{'openbind_xx01zvns2b_c1_fragmenstein', 'fragmenstein_placed'}

>  <ref_pdb>  (2197) 
175

>  <scratch_subdir>  (2197) 
/opt/xchem-fragalysis-2/maxwin/BulkDock/SCRATCH/511028/C32477-P260

>  <alias>  (2197) 
O=C1N=c2c(Cl)cc(C(=O)Nc3ccc4c(c3)CNC4)cc2=C1C1CCNCC1

>  <HIPPO Compound ID>  (2197) 
32477

>  <fragmenstein_runtime>  (2197) 
3.448745

$$$$
C[C@]1(c2c[nH]c3c(Cl)cc(C(=O)Nc4ccc5c(c4)CNC5)cc23)CCNC[C@@H]1O
     RDKit          3D

 30 34  0  0  0  0  0  0  0  0999 V2000
   -3.2361    6.5411  -19.8565 C   0  0  0  0  0  0  0  0  0  0  0  0
   -3.6975    6.3388  -18.3756 C   0  0  2  0  0  0  0  0  0  0  0  0
   -5.0843    5.6679  -18.3446 C   0  0  0  0  0  0  0  0  0  0  0  0
   -5.7740    5.2539  -19.4694 C   0  0  0  0  0  0  0  0  0  0  0  0
   -6.9732    4.7249  -19.0994 N   0  0  0  0  0  0  0  0  0  0  0  0
   -7.0876    4.7374  -17.7345 C   0  0  0  0  0  0  0  0  0  0  0  0
   -8.1449    4.3007  -16.9360 C   0  0  0  0  0  0  0  0  0  0  0  0
   -9.5417    3.6391  -17.6566 Cl  0  0  0  0  0  0  0  0  0  0  0  0
   -8.0766    4.4764  -15.5604 C   0  0  0  0  0  0  0  0  0  0  0  0
   -6.9462    5.0676  -15.0002 C   0  0  0  0  0  0  0  0  0  0  0  0
   -6.9472    5.4230  -13.5516 C   0  0  0  0  0  0  0  0  0  0  0  0
   -6.6483    6.5161  -13.2631 O   0  0  0  0  0  0  0  0  0  0  0  0
   -7.4532    4.2527  -12.6679 N   0  0  0  0  0  0  0  0  0  0  0  0
   -7.7751    4.2154  -11.3090 C   0  0  0  0  0  0  0  0  0  0  0  0
   -7.6417    5.3534  -10.4986 C   0  0  0  0  0  0  0  0  0  0  0  0
   -7.9462    5.3045   -9.1332 C   0  0  0  0  0  0  0  0  0  0  0  0
   -8.3677    4.1023   -8.5955 C   0  0  0  0  0  0  0  0  0  0  0  0
   -8.5120    2.9764   -9.3936 C   0  0  0  0  0  0  0  0  0  0  0  0
   -8.2349    3.0156  -10.7539 C   0  0  0  0  0  0  0  0  0  0  0  0
   -8.9650    1.8287   -8.5569 C   0  0  0  0  0  0  0  0  0  0  0  0
   -9.0285    2.3230   -7.1545 N   0  0  0  0  0  0  0  0  0  0  0  0
   -8.7251    3.7702   -7.1887 C   0  0  0  0  0  0  0  0  0  0  0  0
   -5.8683    5.4884  -15.8105 C   0  0  0  0  0  0  0  0  0  0  0  0
   -5.9329    5.3293  -17.2174 C   0  0  0  0  0  0  0  0  0  0  0  0
   -3.7603    7.7330  -17.7098 C   0  0  0  0  0  0  0  0  0  0  0  0
   -2.3804    8.3690  -17.5372 C   0  0  0  0  0  0  0  0  0  0  0  0
   -1.4804    7.4983  -16.7883 N   0  0  0  0  0  0  0  0  0  0  0  0
   -1.3197    6.1926  -17.4321 C   0  0  0  0  0  0  0  0  0  0  0  0
   -2.6546    5.4557  -17.6325 C   0  0  2  0  0  0  0  0  0  0  0  0
   -2.3938    4.2533  -18.3584 O   0  0  0  0  0  0  0  0  0  0  0  0
  2  1  1  6
  2  3  1  0
  3  4  2  0
  4  5  1  0
  5  6  1  0
  6  7  2  0
  7  8  1  0
  7  9  1  0
  9 10  2  0
 10 11  1  0
 11 12  2  0
 11 13  1  0
 13 14  1  0
 14 15  2  0
 15 16  1  0
 16 17  2  0
 17 18  1  0
 18 19  2  0
 18 20  1  0
 20 21  1  0
 21 22  1  0
 10 23  1  0
 23 24  2  0
  2 25  1  0
 25 26  1  0
 26 27  1  0
 27 28  1  0
 28 29  1  0
 29 30  1  6
 29  2  1  0
 24  3  1  0
 24  6  1  0
 19 14  1  0
 22 17  1  0
M  END
>  <smiles>  (2198) 
C33713-P260

>  <fragmenstein_outcome>  (2198) 
acceptable

>  <inchikey>  (2198) 
VTERIDNKLCWUIZ-UHFFFAOYSA-N

>  <fragmenstein_mode>  (2198) 
expansion

>  <HIPPO Pose ID>  (2198) 
26724

>  <Energy>  (2198) 
82.453767

>  <fragmenstein_error>  (2198) 


>  <tags>  (2198) 
{'openbind_xx01zvns2b_c1_fragmenstein', 'fragmenstein_placed'}

>  <ref_pdb>  (2198) 
175

>  <scratch_subdir>  (2198) 
/opt/xchem-fragalysis-2/maxwin/BulkDock/SCRATCH/511028/C33713-P260

>  <alias>  (2198) 
C[C@]1(c2c[nH]c3c(Cl)cc(C(=O)Nc4ccc5c(c4)CNC5)cc23)CCNC[C@@H]1O

>  <HIPPO Compound ID>  (2198) 
33713

>  <fragmenstein_runtime>  (2198) 
6.871615

$$$$
NNc1c(C(=O)Nc2ccc3c(c2)CNC3)cc(Cl)c2[nH]cc(C3CCNCC3)c12
     RDKit          3D

 30 34  0  0  0  0  0  0  0  0999 V2000
   -4.0220    5.0073  -14.3127 N   0  0  0  0  0  0  0  0  0  0  0  0
   -4.9245    5.9921  -14.7857 N   0  0  0  0  0  0  0  0  0  0  0  0
   -6.0275    5.4594  -15.5158 C   0  0  0  0  0  0  0  0  0  0  0  0
   -7.1959    5.0314  -14.8311 C   0  0  0  0  0  0  0  0  0  0  0  0
   -7.3551    5.4042  -13.3989 C   0  0  0  0  0  0  0  0  0  0  0  0
   -7.1166    6.5098  -13.1023 O   0  0  0  0  0  0  0  0  0  0  0  0
   -7.8691    4.2255  -12.5417 N   0  0  0  0  0  0  0  0  0  0  0  0
   -8.0990    4.1364  -11.1700 C   0  0  0  0  0  0  0  0  0  0  0  0
   -7.9705    5.2666  -10.3434 C   0  0  0  0  0  0  0  0  0  0  0  0
   -8.2027    5.1834   -8.9668 C   0  0  0  0  0  0  0  0  0  0  0  0
   -8.5796    3.9620   -8.4446 C   0  0  0  0  0  0  0  0  0  0  0  0
   -8.7042    2.8403   -9.2603 C   0  0  0  0  0  0  0  0  0  0  0  0
   -8.4642    2.9048  -10.6231 C   0  0  0  0  0  0  0  0  0  0  0  0
   -9.0854    1.6709   -8.4150 C   0  0  0  0  0  0  0  0  0  0  0  0
   -9.5738    2.2616   -7.1409 N   0  0  0  0  0  0  0  0  0  0  0  0
   -8.9034    3.5772   -7.0395 C   0  0  0  0  0  0  0  0  0  0  0  0
   -8.2660    4.4420  -15.5001 C   0  0  0  0  0  0  0  0  0  0  0  0
   -8.2151    4.2991  -16.8814 C   0  0  0  0  0  0  0  0  0  0  0  0
   -9.5442    3.6492  -17.7259 Cl  0  0  0  0  0  0  0  0  0  0  0  0
   -7.1003    4.7660  -17.5784 C   0  0  0  0  0  0  0  0  0  0  0  0
   -6.8661    4.8138  -18.9340 N   0  0  0  0  0  0  0  0  0  0  0  0
   -5.6281    5.3377  -19.1743 C   0  0  0  0  0  0  0  0  0  0  0  0
   -5.0521    5.6804  -17.9663 C   0  0  0  0  0  0  0  0  0  0  0  0
   -3.6990    6.3106  -17.7834 C   0  0  0  0  0  0  0  0  0  0  0  0
   -3.4429    7.4796  -18.7394 C   0  0  0  0  0  0  0  0  0  0  0  0
   -2.1034    8.1477  -18.4118 C   0  0  0  0  0  0  0  0  0  0  0  0
   -1.0750    7.2282  -17.9172 N   0  0  0  0  0  0  0  0  0  0  0  0
   -1.2656    5.8715  -18.4214 C   0  0  0  0  0  0  0  0  0  0  0  0
   -2.5687    5.2722  -17.8931 C   0  0  0  0  0  0  0  0  0  0  0  0
   -5.9948    5.3250  -16.9341 C   0  0  0  0  0  0  0  0  0  0  0  0
  1  2  1  0
  2  3  1  0
  3  4  2  0
  4  5  1  0
  5  6  2  0
  5  7  1  0
  7  8  1  0
  8  9  2  0
  9 10  1  0
 10 11  2  0
 11 12  1  0
 12 13  2  0
 12 14  1  0
 14 15  1  0
 15 16  1  0
  4 17  1  0
 17 18  2  0
 18 19  1  0
 18 20  1  0
 20 21  1  0
 21 22  1  0
 22 23  2  0
 23 24  1  0
 24 25  1  0
 25 26  1  0
 26 27  1  0
 27 28  1  0
 28 29  1  0
 23 30  1  0
 30  3  1  0
 13  8  1  0
 30 20  2  0
 16 11  1  0
 29 24  1  0
M  END
>  <smiles>  (2199) 
C32480-P260

>  <fragmenstein_outcome>  (2199) 
acceptable

>  <inchikey>  (2199) 
CTODIYIJKCSOGH-UHFFFAOYSA-N

>  <fragmenstein_mode>  (2199) 
expansion

>  <HIPPO Pose ID>  (2199) 
26725

>  <Energy>  (2199) 
96.184108

>  <fragmenstein_error>  (2199) 


>  <tags>  (2199) 
{'openbind_xx01zvns2b_c1_fragmenstein', 'fragmenstein_placed'}

>  <ref_pdb>  (2199) 
175

>  <scratch_subdir>  (2199) 
/opt/xchem-fragalysis-2/maxwin/BulkDock/SCRATCH/511028/C32480-P260

>  <alias>  (2199) 
NNc1c(C(=O)Nc2ccc3c(c2)CNC3)cc(Cl)c2[nH]cc(C3CCNCC3)c12

>  <HIPPO Compound ID>  (2199) 
32910

>  <fragmenstein_runtime>  (2199) 
4.816263

$$$$
O=C(Nc1ccc2c(c1)CNC2)c1cc(Cl)c2[nH]cc(C3(F)CCNCC3)c2c1
     RDKit          3D

 29 33  0  0  0  0  0  0  0  0999 V2000
   -6.5746    6.4055  -13.1973 O   0  0  0  0  0  0  0  0  0  0  0  0
   -7.0138    5.3649  -13.4992 C   0  0  0  0  0  0  0  0  0  0  0  0
   -7.7109    4.2800  -12.6377 N   0  0  0  0  0  0  0  0  0  0  0  0
   -7.9190    4.2128  -11.2600 C   0  0  0  0  0  0  0  0  0  0  0  0
   -7.7197    5.3356  -10.4426 C   0  0  0  0  0  0  0  0  0  0  0  0
   -7.9597    5.2717   -9.0655 C   0  0  0  0  0  0  0  0  0  0  0  0
   -8.3849    4.0709   -8.5267 C   0  0  0  0  0  0  0  0  0  0  0  0
   -8.5796    2.9569   -9.3310 C   0  0  0  0  0  0  0  0  0  0  0  0
   -8.3663    3.0108  -10.7012 C   0  0  0  0  0  0  0  0  0  0  0  0
   -8.9931    1.7997   -8.4873 C   0  0  0  0  0  0  0  0  0  0  0  0
   -9.1529    2.3211   -7.1033 N   0  0  0  0  0  0  0  0  0  0  0  0
   -8.6919    3.7264   -7.1107 C   0  0  0  0  0  0  0  0  0  0  0  0
   -7.0211    5.0073  -14.9484 C   0  0  0  0  0  0  0  0  0  0  0  0
   -8.1809    4.4816  -15.5148 C   0  0  0  0  0  0  0  0  0  0  0  0
   -8.2605    4.3110  -16.8900 C   0  0  0  0  0  0  0  0  0  0  0  0
   -9.7122    3.7812  -17.6071 Cl  0  0  0  0  0  0  0  0  0  0  0  0
   -7.1753    4.6731  -17.6854 C   0  0  0  0  0  0  0  0  0  0  0  0
   -7.0529    4.6492  -19.0522 N   0  0  0  0  0  0  0  0  0  0  0  0
   -5.8245    5.1088  -19.4111 C   0  0  0  0  0  0  0  0  0  0  0  0
   -5.1292    5.4776  -18.2756 C   0  0  0  0  0  0  0  0  0  0  0  0
   -3.7577    6.0921  -18.3353 C   0  0  0  0  0  0  0  0  0  0  0  0
   -3.3909    6.1423  -19.6645 F   0  0  0  0  0  0  0  0  0  0  0  0
   -3.7617    7.5398  -17.8435 C   0  0  0  0  0  0  0  0  0  0  0  0
   -2.3616    8.1353  -17.9231 C   0  0  0  0  0  0  0  0  0  0  0  0
   -1.3871    7.3272  -17.1918 N   0  0  0  0  0  0  0  0  0  0  0  0
   -1.3338    5.9671  -17.7364 C   0  0  0  0  0  0  0  0  0  0  0  0
   -2.6856    5.2634  -17.6356 C   0  0  0  0  0  0  0  0  0  0  0  0
   -5.9916    5.1957  -17.1586 C   0  0  0  0  0  0  0  0  0  0  0  0
   -5.9208    5.3668  -15.7551 C   0  0  0  0  0  0  0  0  0  0  0  0
  1  2  2  0
  2  3  1  0
  3  4  1  0
  4  5  2  0
  5  6  1  0
  6  7  2  0
  7  8  1  0
  8  9  2  0
  8 10  1  0
 10 11  1  0
 11 12  1  0
  2 13  1  0
 13 14  2  0
 14 15  1  0
 15 16  1  0
 15 17  2  0
 17 18  1  0
 18 19  1  0
 19 20  2  0
 20 21  1  0
 21 22  1  0
 21 23  1  0
 23 24  1  0
 24 25  1  0
 25 26  1  0
 26 27  1  0
 20 28  1  0
 28 29  2  0
  9  4  1  0
 29 13  1  0
 12  7  1  0
 28 17  1  0
 27 21  1  0
M  END
>  <smiles>  (2200) 
C33714-P260

>  <fragmenstein_outcome>  (2200) 
acceptable

>  <inchikey>  (2200) 
NDSQHIIDDLZEKA-UHFFFAOYSA-N

>  <fragmenstein_mode>  (2200) 
expansion

>  <HIPPO Pose ID>  (2200) 
26726

>  <Energy>  (2200) 
40.469834

>  <fragmenstein_error>  (2200) 


>  <tags>  (2200) 
{'openbind_xx01zvns2b_c1_fragmenstein', 'fragmenstein_placed'}

>  <ref_pdb>  (2200) 
175

>  <scratch_subdir>  (2200) 
/opt/xchem-fragalysis-2/maxwin/BulkDock/SCRATCH/511028/C33714-P260

>  <alias>  (2200) 
O=C(Nc1ccc2c(c1)CNC2)c1cc(Cl)c2[nH]cc(C3(F)CCNCC3)c2c1

>  <HIPPO Compound ID>  (2200) 
33714

>  <fragmenstein_runtime>  (2200) 
5.539918

$$$$
Cc1ccc(S(=O)(=O)CNC(=O)[C@@](O)(Nc2ccc3c(c2)CNC3)[C@@H]2C[C@@H](Cl)c3[nH]cc(C4CCNCC4)c3C23CNNC3)cc1
     RDKit          3D

 46 52  0  0  0  0  0  0  0  0999 V2000
   -7.4522   13.7031  -15.4463 C   0  0  0  0  0  0  0  0  0  0  0  0
   -8.2586   12.6622  -14.7267 C   0  0  0  0  0  0  0  0  0  0  0  0
   -9.5678   12.3715  -15.1333 C   0  0  0  0  0  0  0  0  0  0  0  0
  -10.3294   11.4311  -14.4383 C   0  0  0  0  0  0  0  0  0  0  0  0
   -9.7790   10.7803  -13.3286 C   0  0  0  0  0  0  0  0  0  0  0  0
  -10.7681    9.5890  -12.4504 S   0  0  0  0  0  0  0  0  0  0  0  0
  -10.1157    9.2825  -11.1939 O   0  0  0  0  0  0  0  0  0  0  0  0
  -12.1284   10.1073  -12.4707 O   0  0  0  0  0  0  0  0  0  0  0  0
  -10.7186    8.1462  -13.5250 C   0  0  0  0  0  0  0  0  0  0  0  0
   -9.6948    7.1036  -13.3824 N   0  0  0  0  0  0  0  0  0  0  0  0
   -8.2138    7.2011  -12.9315 C   0  0  0  0  0  0  0  0  0  0  0  0
   -7.6031    8.1130  -12.5308 O   0  0  0  0  0  0  0  0  0  0  0  0
   -7.5298    5.7338  -13.1381 C   0  0  1  0  0  0  0  0  0  0  0  0
   -6.2741    5.6547  -12.5142 O   0  0  0  0  0  0  0  0  0  0  0  0
   -8.3648    4.6782  -12.5297 N   0  0  0  0  0  0  0  0  0  0  0  0
   -8.3876    4.4997  -11.1217 C   0  0  0  0  0  0  0  0  0  0  0  0
   -8.3032    5.5544  -10.1897 C   0  0  0  0  0  0  0  0  0  0  0  0
   -8.3885    5.3327   -8.8085 C   0  0  0  0  0  0  0  0  0  0  0  0
   -8.6387    4.0519   -8.3651 C   0  0  0  0  0  0  0  0  0  0  0  0
   -8.7640    3.0004   -9.2630 C   0  0  0  0  0  0  0  0  0  0  0  0
   -8.6433    3.2034  -10.6293 C   0  0  0  0  0  0  0  0  0  0  0  0
   -9.0474    1.7480   -8.5007 C   0  0  0  0  0  0  0  0  0  0  0  0
   -9.4997    2.2139   -7.1624 N   0  0  0  0  0  0  0  0  0  0  0  0
   -8.8716    3.5424   -6.9822 C   0  0  0  0  0  0  0  0  0  0  0  0
   -7.3849    5.5034  -14.7193 C   0  0  2  0  0  0  0  0  0  0  0  0
   -8.1516    4.2538  -15.2636 C   0  0  0  0  0  0  0  0  0  0  0  0
   -8.1737    4.0569  -16.7907 C   0  0  1  0  0  0  0  0  0  0  0  0
   -9.7643    4.2607  -17.5306 Cl  0  0  0  0  0  0  0  0  0  0  0  0
   -7.1038    4.8152  -17.4717 C   0  0  0  0  0  0  0  0  0  0  0  0
   -6.9848    4.8994  -18.8331 N   0  0  0  0  0  0  0  0  0  0  0  0
   -5.7643    5.4351  -19.1324 C   0  0  0  0  0  0  0  0  0  0  0  0
   -5.1165    5.7613  -17.9563 C   0  0  0  0  0  0  0  0  0  0  0  0
   -3.7138    6.2862  -17.8638 C   0  0  0  0  0  0  0  0  0  0  0  0
   -3.4909    7.5761  -18.6504 C   0  0  0  0  0  0  0  0  0  0  0  0
   -2.1130    8.1580  -18.3162 C   0  0  0  0  0  0  0  0  0  0  0  0
   -1.0928    7.1627  -17.9717 N   0  0  0  0  0  0  0  0  0  0  0  0
   -1.3271    5.8884  -18.6551 C   0  0  0  0  0  0  0  0  0  0  0  0
   -2.6530    5.2406  -18.2447 C   0  0  0  0  0  0  0  0  0  0  0  0
   -6.0346    5.4708  -16.8849 C   0  0  0  0  0  0  0  0  0  0  0  0
   -5.9248    5.6892  -15.3633 C   0  0  0  0  0  0  0  0  0  0  0  0
   -5.3797    7.0975  -15.0334 C   0  0  0  0  0  0  0  0  0  0  0  0
   -4.1067    6.9692  -14.3137 N   0  0  0  0  0  0  0  0  0  0  0  0
   -4.0279    5.6068  -13.8417 N   0  0  0  0  0  0  0  0  0  0  0  0
   -4.8386    4.7923  -14.7628 C   0  0  0  0  0  0  0  0  0  0  0  0
   -8.4931   11.0882  -12.8900 C   0  0  0  0  0  0  0  0  0  0  0  0
   -7.7343   12.0248  -13.5934 C   0  0  0  0  0  0  0  0  0  0  0  0
  1  2  1  0
  2  3  2  0
  3  4  1  0
  4  5  2  0
  5  6  1  0
  6  7  2  0
  6  8  2  0
  6  9  1  0
  9 10  1  0
 10 11  1  0
 11 12  2  0
 11 13  1  0
 13 14  1  1
 13 15  1  0
 15 16  1  0
 16 17  2  0
 17 18  1  0
 18 19  2  0
 19 20  1  0
 20 21  2  0
 20 22  1  0
 22 23  1  0
 23 24  1  0
 13 25  1  0
 25 26  1  1
 26 27  1  0
 27 28  1  6
 27 29  1  0
 29 30  1  0
 30 31  1  0
 31 32  2  0
 32 33  1  0
 33 34  1  0
 34 35  1  0
 35 36  1  0
 36 37  1  0
 37 38  1  0
 32 39  1  0
 39 40  1  0
 40 41  1  0
 41 42  1  0
 42 43  1  0
 43 44  1  0
  5 45  1  0
 45 46  2  0
 46  2  1  0
 21 16  1  0
 40 25  1  0
 24 19  1  0
 39 29  2  0
 44 40  1  0
 38 33  1  0
M  END
>  <smiles>  (2201) 
C33718-P260

>  <fragmenstein_outcome>  (2201) 
acceptable

>  <inchikey>  (2201) 
WEHXOAGONQNFDD-UHFFFAOYSA-N

>  <fragmenstein_mode>  (2201) 
expansion

>  <HIPPO Pose ID>  (2201) 
26728

>  <Energy>  (2201) 
244.446239

>  <fragmenstein_error>  (2201) 


>  <tags>  (2201) 
{'openbind_xx01zvns2b_c1_fragmenstein', 'fragmenstein_placed'}

>  <ref_pdb>  (2201) 
175

>  <scratch_subdir>  (2201) 
/opt/xchem-fragalysis-2/maxwin/BulkDock/SCRATCH/511028/C33718-P260

>  <alias>  (2201) 
Cc1ccc(S(=O)(=O)CNC(=O)[C@@](O)(Nc2ccc3c(c2)CNC3)[C@@H]2C[C@@H](Cl)c3[nH]cc(C4CCNCC4)c3C23CNNC3)cc1

>  <HIPPO Compound ID>  (2201) 
33718

>  <fragmenstein_runtime>  (2201) 
23.829103

$$$$
CN[C@@]1(O)CNC[C@@H](C)[C@]1(C)c1c[nH]c2c(Cl)cc(C(=O)Nc3ccc4c(c3)CNC4)cc12
     RDKit          3D

 33 37  0  0  0  0  0  0  0  0999 V2000
   -1.8093    4.1295  -18.9319 C   0  0  0  0  0  0  0  0  0  0  0  0
   -2.7795    4.4546  -17.9227 N   0  0  0  0  0  0  0  0  0  0  0  0
   -2.8055    5.8327  -17.4779 C   0  0  1  0  0  0  0  0  0  0  0  0
   -3.1322    5.7010  -16.0924 O   0  0  0  0  0  0  0  0  0  0  0  0
   -1.4416    6.5938  -17.4615 C   0  0  0  0  0  0  0  0  0  0  0  0
   -1.5492    7.8937  -16.7700 N   0  0  0  0  0  0  0  0  0  0  0  0
   -2.5674    8.7492  -17.3812 C   0  0  0  0  0  0  0  0  0  0  0  0
   -3.9692    8.0997  -17.4768 C   0  0  1  0  0  0  0  0  0  0  0  0
   -4.9411    9.1091  -18.1032 C   0  0  0  0  0  0  0  0  0  0  0  0
   -3.9064    6.7196  -18.2102 C   0  0  1  0  0  0  0  0  0  0  0  0
   -3.4905    6.9801  -19.7024 C   0  0  0  0  0  0  0  0  0  0  0  0
   -5.2725    5.9736  -18.2069 C   0  0  0  0  0  0  0  0  0  0  0  0
   -5.8976    5.4990  -19.3491 C   0  0  0  0  0  0  0  0  0  0  0  0
   -7.0470    4.8554  -19.0070 N   0  0  0  0  0  0  0  0  0  0  0  0
   -7.1822    4.8415  -17.6450 C   0  0  0  0  0  0  0  0  0  0  0  0
   -8.2020    4.2929  -16.8688 C   0  0  0  0  0  0  0  0  0  0  0  0
   -9.5025    3.5004  -17.6308 Cl  0  0  0  0  0  0  0  0  0  0  0  0
   -8.1787    4.4603  -15.4898 C   0  0  0  0  0  0  0  0  0  0  0  0
   -7.1292    5.1623  -14.9038 C   0  0  0  0  0  0  0  0  0  0  0  0
   -7.1580    5.4936  -13.4484 C   0  0  0  0  0  0  0  0  0  0  0  0
   -6.8535    6.5763  -13.1307 O   0  0  0  0  0  0  0  0  0  0  0  0
   -7.6413    4.2948  -12.5939 N   0  0  0  0  0  0  0  0  0  0  0  0
   -7.9306    4.2114  -11.2318 C   0  0  0  0  0  0  0  0  0  0  0  0
   -7.8238    5.3361  -10.3971 C   0  0  0  0  0  0  0  0  0  0  0  0
   -8.1116    5.2488   -9.0303 C   0  0  0  0  0  0  0  0  0  0  0  0
   -8.5156    4.0281   -8.5245 C   0  0  0  0  0  0  0  0  0  0  0  0
   -8.6260    2.9117   -9.3480 C   0  0  0  0  0  0  0  0  0  0  0  0
   -8.3377    2.9822  -10.7023 C   0  0  0  0  0  0  0  0  0  0  0  0
   -9.0434    1.7408   -8.5198 C   0  0  0  0  0  0  0  0  0  0  0  0
   -9.5403    2.3241   -7.2462 N   0  0  0  0  0  0  0  0  0  0  0  0
   -8.8723    3.6392   -7.1283 C   0  0  0  0  0  0  0  0  0  0  0  0
   -6.0942    5.7018  -15.6952 C   0  0  0  0  0  0  0  0  0  0  0  0
   -6.1086    5.5491  -17.1025 C   0  0  0  0  0  0  0  0  0  0  0  0
  1  2  1  0
  2  3  1  0
  3  4  1  1
  3  5  1  0
  5  6  1  0
  6  7  1  0
  7  8  1  0
  8  9  1  6
  8 10  1  0
 10 11  1  6
 10 12  1  0
 12 13  2  0
 13 14  1  0
 14 15  1  0
 15 16  2  0
 16 17  1  0
 16 18  1  0
 18 19  2  0
 19 20  1  0
 20 21  2  0
 20 22  1  0
 22 23  1  0
 23 24  2  0
 24 25  1  0
 25 26  2  0
 26 27  1  0
 27 28  2  0
 27 29  1  0
 29 30  1  0
 30 31  1  0
 19 32  1  0
 32 33  2  0
 10  3  1  0
 33 12  1  0
 33 15  1  0
 28 23  1  0
 31 26  1  0
M  END
>  <smiles>  (2202) 
C33719-P260

>  <fragmenstein_outcome>  (2202) 
acceptable

>  <inchikey>  (2202) 
GKRCRPXNRJFSIF-UHFFFAOYSA-N

>  <fragmenstein_mode>  (2202) 
expansion

>  <HIPPO Pose ID>  (2202) 
26729

>  <Energy>  (2202) 
88.904994

>  <fragmenstein_error>  (2202) 


>  <tags>  (2202) 
{'openbind_xx01zvns2b_c1_fragmenstein', 'fragmenstein_placed'}

>  <ref_pdb>  (2202) 
175

>  <scratch_subdir>  (2202) 
/opt/xchem-fragalysis-2/maxwin/BulkDock/SCRATCH/511028/C33719-P260

>  <alias>  (2202) 
CN[C@@]1(O)CNC[C@@H](C)[C@]1(C)c1c[nH]c2c(Cl)cc(C(=O)Nc3ccc4c(c3)CNC4)cc12

>  <HIPPO Compound ID>  (2202) 
43150

>  <fragmenstein_runtime>  (2202) 
7.705941

$$$$
CCc1c([C@@](O)(Nc2ccc3c(c2)CNC3)C(=O)NCC(F)F)cc(Cl)c2[nH]cc(C3CCNCC3)c12
     RDKit          3D

 37 41  0  0  0  0  0  0  0  0999 V2000
   -4.7617    7.3322  -14.6682 C   0  0  0  0  0  0  0  0  0  0  0  0
   -4.7033    5.8339  -14.9300 C   0  0  0  0  0  0  0  0  0  0  0  0
   -5.9525    5.2976  -15.5999 C   0  0  0  0  0  0  0  0  0  0  0  0
   -7.1181    4.9175  -14.8399 C   0  0  0  0  0  0  0  0  0  0  0  0
   -7.2995    5.2050  -13.3194 C   0  0  1  0  0  0  0  0  0  0  0  0
   -7.8516    6.5088  -13.3389 O   0  0  0  0  0  0  0  0  0  0  0  0
   -8.3704    4.3660  -12.7163 N   0  0  0  0  0  0  0  0  0  0  0  0
   -8.4340    4.2678  -11.3034 C   0  0  0  0  0  0  0  0  0  0  0  0
   -8.2317    5.3738  -10.4453 C   0  0  0  0  0  0  0  0  0  0  0  0
   -8.2820    5.2505   -9.0521 C   0  0  0  0  0  0  0  0  0  0  0  0
   -8.5676    4.0140   -8.5150 C   0  0  0  0  0  0  0  0  0  0  0  0
   -8.7903    2.9181   -9.3346 C   0  0  0  0  0  0  0  0  0  0  0  0
   -8.7471    3.0295  -10.7196 C   0  0  0  0  0  0  0  0  0  0  0  0
   -9.0220    1.7133   -8.4859 C   0  0  0  0  0  0  0  0  0  0  0  0
   -9.1677    2.2107   -7.0930 N   0  0  0  0  0  0  0  0  0  0  0  0
   -8.6992    3.6124   -7.0873 C   0  0  0  0  0  0  0  0  0  0  0  0
   -5.9617    5.0463  -12.3950 C   0  0  0  0  0  0  0  0  0  0  0  0
   -5.4817    5.9657  -11.8469 O   0  0  0  0  0  0  0  0  0  0  0  0
   -5.5930    3.5277  -12.3373 N   0  0  0  0  0  0  0  0  0  0  0  0
   -4.5012    2.8501  -11.6685 C   0  0  0  0  0  0  0  0  0  0  0  0
   -4.6556    2.7755  -10.1469 C   0  0  0  0  0  0  0  0  0  0  0  0
   -3.7101    1.9379   -9.6397 F   0  0  0  0  0  0  0  0  0  0  0  0
   -4.4103    3.9888   -9.5871 F   0  0  0  0  0  0  0  0  0  0  0  0
   -8.2565    4.4579  -15.5491 C   0  0  0  0  0  0  0  0  0  0  0  0
   -8.2897    4.3514  -16.9359 C   0  0  0  0  0  0  0  0  0  0  0  0
   -9.7284    3.8734  -17.7362 Cl  0  0  0  0  0  0  0  0  0  0  0  0
   -7.1668    4.7477  -17.6520 C   0  0  0  0  0  0  0  0  0  0  0  0
   -6.9878    4.8033  -19.0137 N   0  0  0  0  0  0  0  0  0  0  0  0
   -5.7493    5.2898  -19.3058 C   0  0  0  0  0  0  0  0  0  0  0  0
   -5.1112    5.6111  -18.1252 C   0  0  0  0  0  0  0  0  0  0  0  0
   -3.7500    6.2519  -18.0497 C   0  0  0  0  0  0  0  0  0  0  0  0
   -3.5044    7.3413  -19.0986 C   0  0  0  0  0  0  0  0  0  0  0  0
   -2.1851    8.0641  -18.7926 C   0  0  0  0  0  0  0  0  0  0  0  0
   -1.1787    7.2196  -18.1407 N   0  0  0  0  0  0  0  0  0  0  0  0
   -1.2897    5.8255  -18.5618 C   0  0  0  0  0  0  0  0  0  0  0  0
   -2.6154    5.2144  -18.1033 C   0  0  0  0  0  0  0  0  0  0  0  0
   -6.0059    5.2294  -17.0410 C   0  0  0  0  0  0  0  0  0  0  0  0
  1  2  1  0
  2  3  1  0
  3  4  2  0
  4  5  1  0
  5  6  1  6
  5  7  1  0
  7  8  1  0
  8  9  2  0
  9 10  1  0
 10 11  2  0
 11 12  1  0
 12 13  2  0
 12 14  1  0
 14 15  1  0
 15 16  1  0
  5 17  1  0
 17 18  2  0
 17 19  1  0
 19 20  1  0
 20 21  1  0
 21 22  1  0
 21 23  1  0
  4 24  1  0
 24 25  2  0
 25 26  1  0
 25 27  1  0
 27 28  1  0
 28 29  1  0
 29 30  2  0
 30 31  1  0
 31 32  1  0
 32 33  1  0
 33 34  1  0
 34 35  1  0
 35 36  1  0
 30 37  1  0
 37  3  1  0
 13  8  1  0
 37 27  2  0
 16 11  1  0
 36 31  1  0
M  END
>  <smiles>  (2203) 
C32503-P260

>  <fragmenstein_outcome>  (2203) 
acceptable

>  <inchikey>  (2203) 
XCWFBSUDPANXSK-UHFFFAOYSA-N

>  <fragmenstein_mode>  (2203) 
expansion

>  <HIPPO Pose ID>  (2203) 
26735

>  <Energy>  (2203) 
143.935299

>  <fragmenstein_error>  (2203) 


>  <tags>  (2203) 
{'openbind_xx01zvns2b_c1_fragmenstein', 'fragmenstein_placed'}

>  <ref_pdb>  (2203) 
175

>  <scratch_subdir>  (2203) 
/opt/xchem-fragalysis-2/maxwin/BulkDock/SCRATCH/511028/C32503-P260

>  <alias>  (2203) 
CCc1c([C@@](O)(Nc2ccc3c(c2)CNC3)C(=O)NCC(F)F)cc(Cl)c2[nH]cc(C3CCNCC3)c12

>  <HIPPO Compound ID>  (2203) 
36972

>  <fragmenstein_runtime>  (2203) 
8.185206

$$$$
O=C(NCC(F)F)[C@](O)(Nc1ccc2c(c1)CNC2)c1cc(Cl)c2[nH]cc3c2c1CCC31CCNCC1
     RDKit          3D

 37 42  0  0  0  0  0  0  0  0999 V2000
   -5.5908    6.5119  -12.3059 O   0  0  0  0  0  0  0  0  0  0  0  0
   -5.9424    5.4185  -12.5463 C   0  0  0  0  0  0  0  0  0  0  0  0
   -5.2932    4.0461  -12.1869 N   0  0  0  0  0  0  0  0  0  0  0  0
   -4.1357    3.7395  -11.3803 C   0  0  0  0  0  0  0  0  0  0  0  0
   -2.7947    3.9370  -12.0803 C   0  0  0  0  0  0  0  0  0  0  0  0
   -2.7109    3.1578  -13.1877 F   0  0  0  0  0  0  0  0  0  0  0  0
   -2.6305    5.2192  -12.4873 F   0  0  0  0  0  0  0  0  0  0  0  0
   -7.3157    5.1196  -13.3223 C   0  0  2  0  0  0  0  0  0  0  0  0
   -8.1673    6.2614  -13.2719 O   0  0  0  0  0  0  0  0  0  0  0  0
   -7.9793    4.0076  -12.6189 N   0  0  0  0  0  0  0  0  0  0  0  0
   -8.2702    4.0303  -11.2470 C   0  0  0  0  0  0  0  0  0  0  0  0
   -8.1095    5.1593  -10.4123 C   0  0  0  0  0  0  0  0  0  0  0  0
   -8.2953    5.1023   -9.0246 C   0  0  0  0  0  0  0  0  0  0  0  0
   -8.6546    3.8957   -8.4689 C   0  0  0  0  0  0  0  0  0  0  0  0
   -8.8093    2.7682   -9.2649 C   0  0  0  0  0  0  0  0  0  0  0  0
   -8.6221    2.8176  -10.6383 C   0  0  0  0  0  0  0  0  0  0  0  0
   -9.1340    1.6059   -8.3881 C   0  0  0  0  0  0  0  0  0  0  0  0
   -9.5897    2.2105   -7.1078 N   0  0  0  0  0  0  0  0  0  0  0  0
   -8.9271    3.5323   -7.0483 C   0  0  0  0  0  0  0  0  0  0  0  0
   -7.1670    4.8478  -14.8398 C   0  0  0  0  0  0  0  0  0  0  0  0
   -8.3214    4.3991  -15.5369 C   0  0  0  0  0  0  0  0  0  0  0  0
   -8.3810    4.2711  -16.9316 C   0  0  0  0  0  0  0  0  0  0  0  0
   -9.8190    3.8126  -17.7136 Cl  0  0  0  0  0  0  0  0  0  0  0  0
   -7.2647    4.6266  -17.6666 C   0  0  0  0  0  0  0  0  0  0  0  0
   -7.0278    4.7035  -19.0201 N   0  0  0  0  0  0  0  0  0  0  0  0
   -5.7474    5.1545  -19.2462 C   0  0  0  0  0  0  0  0  0  0  0  0
   -5.1484    5.3654  -18.0255 C   0  0  0  0  0  0  0  0  0  0  0  0
   -6.1172    5.0497  -17.0354 C   0  0  0  0  0  0  0  0  0  0  0  0
   -6.0259    5.1646  -15.6303 C   0  0  0  0  0  0  0  0  0  0  0  0
   -4.7186    5.7324  -15.1606 C   0  0  0  0  0  0  0  0  0  0  0  0
   -3.5389    5.4904  -16.1398 C   0  0  0  0  0  0  0  0  0  0  0  0
   -3.7844    5.8904  -17.6413 C   0  0  0  0  0  0  0  0  0  0  0  0
   -3.7656    7.4245  -17.8239 C   0  0  0  0  0  0  0  0  0  0  0  0
   -2.4028    8.0460  -17.5088 C   0  0  0  0  0  0  0  0  0  0  0  0
   -1.2497    7.2136  -17.8501 N   0  0  0  0  0  0  0  0  0  0  0  0
   -1.5650    6.2580  -18.9074 C   0  0  0  0  0  0  0  0  0  0  0  0
   -2.6537    5.2599  -18.5037 C   0  0  0  0  0  0  0  0  0  0  0  0
  1  2  2  0
  2  3  1  0
  3  4  1  0
  4  5  1  0
  5  6  1  0
  5  7  1  0
  2  8  1  0
  8  9  1  6
  8 10  1  0
 10 11  1  0
 11 12  2  0
 12 13  1  0
 13 14  2  0
 14 15  1  0
 15 16  2  0
 15 17  1  0
 17 18  1  0
 18 19  1  0
  8 20  1  0
 20 21  2  0
 21 22  1  0
 22 23  1  0
 22 24  2  0
 24 25  1  0
 25 26  1  0
 26 27  2  0
 27 28  1  0
 28 29  2  0
 29 30  1  0
 30 31  1  0
 31 32  1  0
 32 33  1  0
 33 34  1  0
 34 35  1  0
 35 36  1  0
 36 37  1  0
 16 11  1  0
 29 20  1  0
 37 32  1  0
 19 14  1  0
 28 24  1  0
 32 27  1  0
M  END
>  <smiles>  (2204) 
C33723-P260

>  <fragmenstein_outcome>  (2204) 
acceptable

>  <inchikey>  (2204) 
DATORCKXSBIXAV-UHFFFAOYSA-N

>  <fragmenstein_mode>  (2204) 
expansion

>  <HIPPO Pose ID>  (2204) 
26736

>  <Energy>  (2204) 
145.845636

>  <fragmenstein_error>  (2204) 


>  <tags>  (2204) 
{'openbind_xx01zvns2b_c1_fragmenstein', 'fragmenstein_placed'}

>  <ref_pdb>  (2204) 
175

>  <scratch_subdir>  (2204) 
/opt/xchem-fragalysis-2/maxwin/BulkDock/SCRATCH/511028/C33723-P260

>  <alias>  (2204) 
O=C(NCC(F)F)[C@](O)(Nc1ccc2c(c1)CNC2)c1cc(Cl)c2[nH]cc3c2c1CCC31CCNCC1

>  <HIPPO Compound ID>  (2204) 
40336

>  <fragmenstein_runtime>  (2204) 
10.481061

$$$$
O=C(Nc1ccc2c(c1)CNC2)c1cc(Cl)c2c(c1)CC1(CCNCC1)CCN2
     RDKit          3D

 29 33  0  0  0  0  0  0  0  0999 V2000
   -7.2749    6.6272  -13.1554 O   0  0  0  0  0  0  0  0  0  0  0  0
   -7.5171    5.5248  -13.4534 C   0  0  0  0  0  0  0  0  0  0  0  0
   -7.9986    4.3380  -12.5919 N   0  0  0  0  0  0  0  0  0  0  0  0
   -8.1860    4.2363  -11.2133 C   0  0  0  0  0  0  0  0  0  0  0  0
   -8.0322    5.3582  -10.3802 C   0  0  0  0  0  0  0  0  0  0  0  0
   -8.2039    5.2557   -8.9959 C   0  0  0  0  0  0  0  0  0  0  0  0
   -8.5387    4.0225   -8.4687 C   0  0  0  0  0  0  0  0  0  0  0  0
   -8.6887    2.9106   -9.2887 C   0  0  0  0  0  0  0  0  0  0  0  0
   -8.5141    2.9954  -10.6624 C   0  0  0  0  0  0  0  0  0  0  0  0
   -9.0091    1.7194   -8.4506 C   0  0  0  0  0  0  0  0  0  0  0  0
   -9.2734    2.2379   -7.0840 N   0  0  0  0  0  0  0  0  0  0  0  0
   -8.7829    3.6321   -7.0510 C   0  0  0  0  0  0  0  0  0  0  0  0
   -7.3068    5.1311  -14.8653 C   0  0  0  0  0  0  0  0  0  0  0  0
   -8.3183    4.5850  -15.6394 C   0  0  0  0  0  0  0  0  0  0  0  0
   -8.0928    4.4014  -17.0081 C   0  0  0  0  0  0  0  0  0  0  0  0
   -9.4219    3.8042  -17.9350 Cl  0  0  0  0  0  0  0  0  0  0  0  0
   -6.8653    4.7447  -17.6360 C   0  0  0  0  0  0  0  0  0  0  0  0
   -5.8190    5.1790  -16.7988 C   0  0  0  0  0  0  0  0  0  0  0  0
   -6.0661    5.4096  -15.4334 C   0  0  0  0  0  0  0  0  0  0  0  0
   -4.3923    5.3269  -17.2717 C   0  0  0  0  0  0  0  0  0  0  0  0
   -4.0853    6.4212  -18.3254 C   0  0  0  0  0  0  0  0  0  0  0  0
   -3.9411    7.8166  -17.6600 C   0  0  0  0  0  0  0  0  0  0  0  0
   -2.5041    8.3486  -17.6527 C   0  0  0  0  0  0  0  0  0  0  0  0
   -1.5530    7.3421  -17.1982 N   0  0  0  0  0  0  0  0  0  0  0  0
   -1.5318    6.1631  -18.0667 C   0  0  0  0  0  0  0  0  0  0  0  0
   -2.7340    6.0501  -19.0085 C   0  0  0  0  0  0  0  0  0  0  0  0
   -5.2023    6.4885  -19.3988 C   0  0  0  0  0  0  0  0  0  0  0  0
   -5.6544    5.1038  -19.8350 C   0  0  0  0  0  0  0  0  0  0  0  0
   -6.7173    4.5530  -19.0081 N   0  0  0  0  0  0  0  0  0  0  0  0
  1  2  2  0
  2  3  1  0
  3  4  1  0
  4  5  2  0
  5  6  1  0
  6  7  2  0
  7  8  1  0
  8  9  2  0
  8 10  1  0
 10 11  1  0
 11 12  1  0
  2 13  1  0
 13 14  2  0
 14 15  1  0
 15 16  1  0
 15 17  2  0
 17 18  1  0
 18 19  2  0
 18 20  1  0
 20 21  1  0
 21 22  1  0
 22 23  1  0
 23 24  1  0
 24 25  1  0
 25 26  1  0
 21 27  1  0
 27 28  1  0
 28 29  1  0
  9  4  1  0
 19 13  1  0
 26 21  1  0
 12  7  1  0
 29 17  1  0
M  END
>  <smiles>  (2205) 
C33724-P260

>  <fragmenstein_outcome>  (2205) 
acceptable

>  <inchikey>  (2205) 
YXQBXRNVSPSHRN-UHFFFAOYSA-N

>  <fragmenstein_mode>  (2205) 
expansion

>  <HIPPO Pose ID>  (2205) 
26737

>  <Energy>  (2205) 
92.836851

>  <fragmenstein_error>  (2205) 


>  <tags>  (2205) 
{'openbind_xx01zvns2b_c1_fragmenstein', 'fragmenstein_placed'}

>  <ref_pdb>  (2205) 
175

>  <scratch_subdir>  (2205) 
/opt/xchem-fragalysis-2/maxwin/BulkDock/SCRATCH/511028/C33724-P260

>  <alias>  (2205) 
O=C(Nc1ccc2c(c1)CNC2)c1cc(Cl)c2c(c1)CC1(CCNCC1)CCN2

>  <HIPPO Compound ID>  (2205) 
24083

>  <fragmenstein_runtime>  (2205) 
5.792919

$$$$
Cc1cc(NC(=O)c2cc(Cl)c3c(c2)=C(C2CCNCC2)C(=O)N=3)cc2c1CNC2
     RDKit          3D

 30 34  0  0  0  0  0  0  0  0999 V2000
   -7.9929    6.4600   -8.0768 C   0  0  0  0  0  0  0  0  0  0  0  0
   -8.1660    5.2629   -8.9586 C   0  0  0  0  0  0  0  0  0  0  0  0
   -7.9308    5.3540  -10.3407 C   0  0  0  0  0  0  0  0  0  0  0  0
   -8.0549    4.2345  -11.1809 C   0  0  0  0  0  0  0  0  0  0  0  0
   -7.8007    4.3360  -12.5486 N   0  0  0  0  0  0  0  0  0  0  0  0
   -7.3594    5.5515  -13.4026 C   0  0  0  0  0  0  0  0  0  0  0  0
   -7.2150    6.6727  -13.1066 O   0  0  0  0  0  0  0  0  0  0  0  0
   -7.1390    5.1027  -14.8166 C   0  0  0  0  0  0  0  0  0  0  0  0
   -8.1858    4.4630  -15.5967 C   0  0  0  0  0  0  0  0  0  0  0  0
   -8.0579    4.2626  -16.9176 C   0  0  0  0  0  0  0  0  0  0  0  0
   -9.2953    3.5964  -17.8658 Cl  0  0  0  0  0  0  0  0  0  0  0  0
   -6.8289    4.6822  -17.6198 C   0  0  0  0  0  0  0  0  0  0  0  0
   -5.7836    5.2949  -16.7925 C   0  0  0  0  0  0  0  0  0  0  0  0
   -5.9841    5.4982  -15.3873 C   0  0  0  0  0  0  0  0  0  0  0  0
   -4.8202    5.5942  -17.6676 C   0  0  0  0  0  0  0  0  0  0  0  0
   -3.4685    6.2288  -17.5722 C   0  0  0  0  0  0  0  0  0  0  0  0
   -2.7831    6.1689  -16.2033 C   0  0  0  0  0  0  0  0  0  0  0  0
   -1.3539    6.7169  -16.3023 C   0  0  0  0  0  0  0  0  0  0  0  0
   -1.2135    7.8395  -17.2311 N   0  0  0  0  0  0  0  0  0  0  0  0
   -2.4532    8.5749  -17.4246 C   0  0  0  0  0  0  0  0  0  0  0  0
   -3.5220    7.6891  -18.0687 C   0  0  0  0  0  0  0  0  0  0  0  0
   -5.3063    5.1625  -19.0105 C   0  0  0  0  0  0  0  0  0  0  0  0
   -4.6686    5.3272  -20.0373 O   0  0  0  0  0  0  0  0  0  0  0  0
   -6.5422    4.6014  -18.8722 N   0  0  0  0  0  0  0  0  0  0  0  0
   -8.4189    2.9976  -10.6462 C   0  0  0  0  0  0  0  0  0  0  0  0
   -8.6364    2.9098   -9.2784 C   0  0  0  0  0  0  0  0  0  0  0  0
   -8.5093    4.0182   -8.4476 C   0  0  0  0  0  0  0  0  0  0  0  0
   -8.7844    3.6087   -7.0386 C   0  0  0  0  0  0  0  0  0  0  0  0
   -9.2116    2.1953   -7.0785 N   0  0  0  0  0  0  0  0  0  0  0  0
   -8.9813    1.7099   -8.4628 C   0  0  0  0  0  0  0  0  0  0  0  0
  1  2  1  0
  2  3  2  0
  3  4  1  0
  4  5  1  0
  5  6  1  0
  6  7  2  0
  6  8  1  0
  8  9  1  0
  9 10  2  0
 10 11  1  0
 10 12  1  0
 12 13  1  0
 13 14  1  0
 13 15  2  0
 15 16  1  0
 16 17  1  0
 17 18  1  0
 18 19  1  0
 19 20  1  0
 20 21  1  0
 15 22  1  0
 22 23  2  0
 22 24  1  0
  4 25  2  0
 25 26  1  0
 26 27  2  0
 27 28  1  0
 28 29  1  0
 29 30  1  0
 27  2  1  0
 14  8  2  0
 21 16  1  0
 30 26  1  0
 24 12  2  0
M  END
>  <smiles>  (2206) 
C32508-P260

>  <fragmenstein_outcome>  (2206) 
acceptable

>  <inchikey>  (2206) 
DNRHLJADQJELEO-UHFFFAOYSA-N

>  <fragmenstein_mode>  (2206) 
expansion

>  <HIPPO Pose ID>  (2206) 
26738

>  <Energy>  (2206) 
43.929552

>  <fragmenstein_error>  (2206) 


>  <tags>  (2206) 
{'openbind_xx01zvns2b_c1_fragmenstein', 'fragmenstein_placed'}

>  <ref_pdb>  (2206) 
175

>  <scratch_subdir>  (2206) 
/opt/xchem-fragalysis-2/maxwin/BulkDock/SCRATCH/511028/C32508-P260

>  <alias>  (2206) 
Cc1cc(NC(=O)c2cc(Cl)c3c(c2)=C(C2CCNCC2)C(=O)N=3)cc2c1CNC2

>  <HIPPO Compound ID>  (2206) 
32508

>  <fragmenstein_runtime>  (2206) 
5.237736

$$$$
CSc1cc2c(cc1NC(=O)c1cc(Cl)c3[nH]cc(C4CCNCC4)c3c1)CNC2
     RDKit          3D

 30 34  0  0  0  0  0  0  0  0999 V2000
   -8.6037    7.9380  -10.8145 C   0  0  0  0  0  0  0  0  0  0  0  0
   -7.0833    7.0496  -10.4040 S   0  0  0  0  0  0  0  0  0  0  0  0
   -7.7770    5.4201  -10.1447 C   0  0  0  0  0  0  0  0  0  0  0  0
   -8.0811    5.2032   -8.7797 C   0  0  0  0  0  0  0  0  0  0  0  0
   -8.5098    3.9641   -8.3531 C   0  0  0  0  0  0  0  0  0  0  0  0
   -8.6431    2.9252   -9.2489 C   0  0  0  0  0  0  0  0  0  0  0  0
   -8.3799    3.1089  -10.5993 C   0  0  0  0  0  0  0  0  0  0  0  0
   -7.9404    4.3656  -11.0822 C   0  0  0  0  0  0  0  0  0  0  0  0
   -7.6974    4.3600  -12.4781 N   0  0  0  0  0  0  0  0  0  0  0  0
   -7.2704    5.5036  -13.4287 C   0  0  0  0  0  0  0  0  0  0  0  0
   -6.9778    6.6102  -13.1981 O   0  0  0  0  0  0  0  0  0  0  0  0
   -7.1963    5.0680  -14.8458 C   0  0  0  0  0  0  0  0  0  0  0  0
   -8.2813    4.4689  -15.4789 C   0  0  0  0  0  0  0  0  0  0  0  0
   -8.2653    4.3078  -16.8666 C   0  0  0  0  0  0  0  0  0  0  0  0
   -9.6391    3.7048  -17.6810 Cl  0  0  0  0  0  0  0  0  0  0  0  0
   -7.1524    4.7444  -17.5928 C   0  0  0  0  0  0  0  0  0  0  0  0
   -6.9209    4.7824  -18.9496 N   0  0  0  0  0  0  0  0  0  0  0  0
   -5.6766    5.3015  -19.1963 C   0  0  0  0  0  0  0  0  0  0  0  0
   -5.0977    5.6483  -17.9924 C   0  0  0  0  0  0  0  0  0  0  0  0
   -3.7526    6.2771  -17.7768 C   0  0  0  0  0  0  0  0  0  0  0  0
   -3.4929    7.4795  -18.6863 C   0  0  0  0  0  0  0  0  0  0  0  0
   -2.1696    8.1522  -18.3070 C   0  0  0  0  0  0  0  0  0  0  0  0
   -1.1255    7.2351  -17.8371 N   0  0  0  0  0  0  0  0  0  0  0  0
   -1.3064    5.8884  -18.3827 C   0  0  0  0  0  0  0  0  0  0  0  0
   -2.6104    5.2542  -17.8940 C   0  0  0  0  0  0  0  0  0  0  0  0
   -6.0384    5.3032  -16.9715 C   0  0  0  0  0  0  0  0  0  0  0  0
   -6.0618    5.4615  -15.5728 C   0  0  0  0  0  0  0  0  0  0  0  0
   -9.0267    1.6874   -8.5118 C   0  0  0  0  0  0  0  0  0  0  0  0
   -9.3017    2.1033   -7.1107 N   0  0  0  0  0  0  0  0  0  0  0  0
   -8.8441    3.5016   -6.9789 C   0  0  0  0  0  0  0  0  0  0  0  0
  1  2  1  0
  2  3  1  0
  3  4  2  0
  4  5  1  0
  5  6  2  0
  6  7  1  0
  7  8  2  0
  8  9  1  0
  9 10  1  0
 10 11  2  0
 10 12  1  0
 12 13  2  0
 13 14  1  0
 14 15  1  0
 14 16  2  0
 16 17  1  0
 17 18  1  0
 18 19  2  0
 19 20  1  0
 20 21  1  0
 21 22  1  0
 22 23  1  0
 23 24  1  0
 24 25  1  0
 19 26  1  0
 26 27  2  0
  6 28  1  0
 28 29  1  0
 29 30  1  0
  8  3  1  0
 27 12  1  0
 30  5  1  0
 26 16  1  0
 25 20  1  0
M  END
>  <smiles>  (2207) 
C32509-P260

>  <fragmenstein_outcome>  (2207) 
acceptable

>  <inchikey>  (2207) 
VCDOAUHEGFAYMF-UHFFFAOYSA-N

>  <fragmenstein_mode>  (2207) 
expansion

>  <HIPPO Pose ID>  (2207) 
26739

>  <Energy>  (2207) 
67.086534

>  <fragmenstein_error>  (2207) 


>  <tags>  (2207) 
{'openbind_xx01zvns2b_c1_fragmenstein', 'fragmenstein_placed'}

>  <ref_pdb>  (2207) 
175

>  <scratch_subdir>  (2207) 
/opt/xchem-fragalysis-2/maxwin/BulkDock/SCRATCH/511028/C32509-P260

>  <alias>  (2207) 
CSc1cc2c(cc1NC(=O)c1cc(Cl)c3[nH]cc(C4CCNCC4)c3c1)CNC2

>  <HIPPO Compound ID>  (2207) 
23581

>  <fragmenstein_runtime>  (2207) 
8.895588

$$$$
CCOC(C)(C)[C@@H]1CNCC[C@H]1c1c[nH]c2c(Cl)cc(C(=O)Nc3ccc4c(c3)CNC4)cc12
     RDKit          3D

 34 38  0  0  0  0  0  0  0  0999 V2000
   -2.2978    9.7731  -14.3109 C   0  0  0  0  0  0  0  0  0  0  0  0
   -1.7680    8.3508  -14.3170 C   0  0  0  0  0  0  0  0  0  0  0  0
   -2.2170    7.7279  -15.5144 O   0  0  0  0  0  0  0  0  0  0  0  0
   -1.8951    6.3386  -15.7310 C   0  0  0  0  0  0  0  0  0  0  0  0
   -0.3656    6.1526  -15.6817 C   0  0  0  0  0  0  0  0  0  0  0  0
   -2.5168    5.4888  -14.6034 C   0  0  0  0  0  0  0  0  0  0  0  0
   -2.5486    5.8833  -17.1215 C   0  0  2  0  0  0  0  0  0  0  0  0
   -1.5877    5.9385  -18.3254 C   0  0  0  0  0  0  0  0  0  0  0  0
   -1.1381    7.2862  -18.6680 N   0  0  0  0  0  0  0  0  0  0  0  0
   -2.1917    8.2946  -18.5847 C   0  0  0  0  0  0  0  0  0  0  0  0
   -3.5993    7.7155  -18.6183 C   0  0  0  0  0  0  0  0  0  0  0  0
   -3.8414    6.6875  -17.4883 C   0  0  1  0  0  0  0  0  0  0  0  0
   -5.0489    5.8134  -17.7933 C   0  0  0  0  0  0  0  0  0  0  0  0
   -5.4585    5.3104  -19.0155 C   0  0  0  0  0  0  0  0  0  0  0  0
   -6.6902    4.7259  -18.8625 N   0  0  0  0  0  0  0  0  0  0  0  0
   -7.0468    4.7335  -17.5336 C   0  0  0  0  0  0  0  0  0  0  0  0
   -8.1861    4.2413  -16.8900 C   0  0  0  0  0  0  0  0  0  0  0  0
   -9.4231    3.4847  -17.7849 Cl  0  0  0  0  0  0  0  0  0  0  0  0
   -8.3341    4.4337  -15.5160 C   0  0  0  0  0  0  0  0  0  0  0  0
   -7.3675    5.1453  -14.8148 C   0  0  0  0  0  0  0  0  0  0  0  0
   -7.5576    5.5269  -13.3915 C   0  0  0  0  0  0  0  0  0  0  0  0
   -7.3580    6.6388  -13.0949 O   0  0  0  0  0  0  0  0  0  0  0  0
   -7.9964    4.3232  -12.5278 N   0  0  0  0  0  0  0  0  0  0  0  0
   -8.1831    4.2174  -11.1504 C   0  0  0  0  0  0  0  0  0  0  0  0
   -8.0548    5.3413  -10.3179 C   0  0  0  0  0  0  0  0  0  0  0  0
   -8.2272    5.2341   -8.9345 C   0  0  0  0  0  0  0  0  0  0  0  0
   -8.5417    3.9950   -8.4085 C   0  0  0  0  0  0  0  0  0  0  0  0
   -8.6738    2.8825   -9.2294 C   0  0  0  0  0  0  0  0  0  0  0  0
   -8.4935    2.9708  -10.6019 C   0  0  0  0  0  0  0  0  0  0  0  0
   -8.9866    1.6864   -8.3969 C   0  0  0  0  0  0  0  0  0  0  0  0
   -9.2230    2.1902   -7.0174 N   0  0  0  0  0  0  0  0  0  0  0  0
   -8.7811    3.6006   -6.9922 C   0  0  0  0  0  0  0  0  0  0  0  0
   -6.2340    5.6476  -15.4685 C   0  0  0  0  0  0  0  0  0  0  0  0
   -6.0496    5.4193  -16.8454 C   0  0  0  0  0  0  0  0  0  0  0  0
  1  2  1  0
  2  3  1  0
  3  4  1  0
  4  5  1  0
  4  6  1  0
  7  4  1  1
  7  8  1  0
  8  9  1  0
  9 10  1  0
 10 11  1  0
 11 12  1  0
 12 13  1  6
 13 14  2  0
 14 15  1  0
 15 16  1  0
 16 17  2  0
 17 18  1  0
 17 19  1  0
 19 20  2  0
 20 21  1  0
 21 22  2  0
 21 23  1  0
 23 24  1  0
 24 25  2  0
 25 26  1  0
 26 27  2  0
 27 28  1  0
 28 29  2  0
 28 30  1  0
 30 31  1  0
 31 32  1  0
 20 33  1  0
 33 34  2  0
 12  7  1  0
 34 13  1  0
 34 16  1  0
 29 24  1  0
 32 27  1  0
M  END
>  <smiles>  (2208) 
C33727-P260

>  <fragmenstein_outcome>  (2208) 
acceptable

>  <inchikey>  (2208) 
NMPAEEBUNALSLZ-UHFFFAOYSA-N

>  <fragmenstein_mode>  (2208) 
expansion

>  <HIPPO Pose ID>  (2208) 
26741

>  <Energy>  (2208) 
74.59288

>  <fragmenstein_error>  (2208) 


>  <tags>  (2208) 
{'openbind_xx01zvns2b_c1_fragmenstein', 'fragmenstein_placed'}

>  <ref_pdb>  (2208) 
175

>  <scratch_subdir>  (2208) 
/opt/xchem-fragalysis-2/maxwin/BulkDock/SCRATCH/511028/C33727-P260

>  <alias>  (2208) 
CCOC(C)(C)[C@@H]1CNCC[C@H]1c1c[nH]c2c(Cl)cc(C(=O)Nc3ccc4c(c3)CNC4)cc12

>  <HIPPO Compound ID>  (2208) 
33727

>  <fragmenstein_runtime>  (2208) 
13.171715

$$$$
O=C(Nc1ccc2c(c1)CNC2)c1cc(Cl)c2c(c1)=C1C(=N[C@H]3CNCC[C@@H]13)N=2
     RDKit          3D

 29 34  0  0  0  0  0  0  0  0999 V2000
   -7.5439    6.6838  -12.9884 O   0  0  0  0  0  0  0  0  0  0  0  0
   -7.6709    5.5654  -13.2981 C   0  0  0  0  0  0  0  0  0  0  0  0
   -8.0388    4.3266  -12.4502 N   0  0  0  0  0  0  0  0  0  0  0  0
   -8.2274    4.1942  -11.0770 C   0  0  0  0  0  0  0  0  0  0  0  0
   -8.1083    5.3074  -10.2260 C   0  0  0  0  0  0  0  0  0  0  0  0
   -8.2950    5.1821   -8.8467 C   0  0  0  0  0  0  0  0  0  0  0  0
   -8.6298    3.9389   -8.3489 C   0  0  0  0  0  0  0  0  0  0  0  0
   -8.7428    2.8341   -9.1896 C   0  0  0  0  0  0  0  0  0  0  0  0
   -8.5317    2.9365  -10.5542 C   0  0  0  0  0  0  0  0  0  0  0  0
   -9.0930    1.6389   -8.3676 C   0  0  0  0  0  0  0  0  0  0  0  0
   -9.5808    2.1929   -7.0778 N   0  0  0  0  0  0  0  0  0  0  0  0
   -8.9302    3.5156   -6.9496 C   0  0  0  0  0  0  0  0  0  0  0  0
   -7.3871    5.1173  -14.6928 C   0  0  0  0  0  0  0  0  0  0  0  0
   -8.3849    4.5010  -15.5542 C   0  0  0  0  0  0  0  0  0  0  0  0
   -8.1859    4.3093  -16.8725 C   0  0  0  0  0  0  0  0  0  0  0  0
   -9.4167    3.6975  -17.8817 Cl  0  0  0  0  0  0  0  0  0  0  0  0
   -6.8825    4.6825  -17.4825 C   0  0  0  0  0  0  0  0  0  0  0  0
   -5.8984    5.2431  -16.5312 C   0  0  0  0  0  0  0  0  0  0  0  0
   -6.1785    5.4709  -15.1589 C   0  0  0  0  0  0  0  0  0  0  0  0
   -4.8571    5.5029  -17.2948 C   0  0  0  0  0  0  0  0  0  0  0  0
   -5.1602    5.0353  -18.6289 C   0  0  0  0  0  0  0  0  0  0  0  0
   -4.2023    5.0641  -19.4950 N   0  0  0  0  0  0  0  0  0  0  0  0
   -2.9970    5.3953  -18.6386 C   0  0  1  0  0  0  0  0  0  0  0  0
   -2.0257    6.3137  -19.3879 C   0  0  0  0  0  0  0  0  0  0  0  0
   -1.2367    7.1222  -18.4502 N   0  0  0  0  0  0  0  0  0  0  0  0
   -2.0693    8.0773  -17.7232 C   0  0  0  0  0  0  0  0  0  0  0  0
   -3.4852    7.5682  -17.4422 C   0  0  0  0  0  0  0  0  0  0  0  0
   -3.5024    6.0440  -17.3245 C   0  0  1  0  0  0  0  0  0  0  0  0
   -6.4504    4.6142  -18.7047 N   0  0  0  0  0  0  0  0  0  0  0  0
  1  2  2  0
  2  3  1  0
  3  4  1  0
  4  5  2  0
  5  6  1  0
  6  7  2  0
  7  8  1  0
  8  9  2  0
  8 10  1  0
 10 11  1  0
 11 12  1  0
  2 13  1  0
 13 14  1  0
 14 15  2  0
 15 16  1  0
 15 17  1  0
 17 18  1  0
 18 19  1  0
 18 20  2  0
 20 21  1  0
 21 22  2  0
 22 23  1  0
 23 24  1  6
 24 25  1  0
 25 26  1  0
 26 27  1  0
 28 27  1  6
 21 29  1  0
  9  4  1  0
 19 13  2  0
 28 20  1  0
 12  7  1  0
 29 17  2  0
 28 23  1  0
M  END
>  <smiles>  (2209) 
C33728-P260

>  <fragmenstein_outcome>  (2209) 
acceptable

>  <inchikey>  (2209) 
AVCVABWKYQANGS-UHFFFAOYSA-N

>  <fragmenstein_mode>  (2209) 
expansion

>  <HIPPO Pose ID>  (2209) 
26743

>  <Energy>  (2209) 
71.423177

>  <fragmenstein_error>  (2209) 


>  <tags>  (2209) 
{'openbind_xx01zvns2b_c1_fragmenstein', 'fragmenstein_placed'}

>  <ref_pdb>  (2209) 
175

>  <scratch_subdir>  (2209) 
/opt/xchem-fragalysis-2/maxwin/BulkDock/SCRATCH/511028/C33728-P260

>  <alias>  (2209) 
O=C(Nc1ccc2c(c1)CNC2)c1cc(Cl)c2c(c1)=C1C(=N[C@H]3CNCC[C@@H]13)N=2

>  <HIPPO Compound ID>  (2209) 
33728

>  <fragmenstein_runtime>  (2209) 
5.041965

$$$$
CC[C@@H]1NCc2cc(NC(=O)c3cc(Cl)c4[nH]cc(C5CCNCC5)c4c3)ccc21
     RDKit          3D

 30 34  0  0  0  0  0  0  0  0999 V2000
   -7.8970    5.5310   -5.4907 C   0  0  0  0  0  0  0  0  0  0  0  0
   -7.9514    4.0904   -5.9879 C   0  0  0  0  0  0  0  0  0  0  0  0
   -8.9950    3.8742   -7.0925 C   0  0  2  0  0  0  0  0  0  0  0  0
   -9.4434    2.4552   -7.1313 N   0  0  0  0  0  0  0  0  0  0  0  0
   -8.9803    1.8754   -8.4175 C   0  0  0  0  0  0  0  0  0  0  0  0
   -8.5509    3.0294   -9.2577 C   0  0  0  0  0  0  0  0  0  0  0  0
   -8.1955    3.0422  -10.6027 C   0  0  0  0  0  0  0  0  0  0  0  0
   -7.7834    4.2495  -11.1763 C   0  0  0  0  0  0  0  0  0  0  0  0
   -7.4430    4.2795  -12.5318 N   0  0  0  0  0  0  0  0  0  0  0  0
   -6.8715    5.4303  -13.4020 C   0  0  0  0  0  0  0  0  0  0  0  0
   -6.5252    6.5064  -13.1028 O   0  0  0  0  0  0  0  0  0  0  0  0
   -6.8687    5.0797  -14.8544 C   0  0  0  0  0  0  0  0  0  0  0  0
   -8.0076    4.5079  -15.4220 C   0  0  0  0  0  0  0  0  0  0  0  0
   -8.0804    4.3383  -16.8007 C   0  0  0  0  0  0  0  0  0  0  0  0
   -9.4815    3.6912  -17.5323 Cl  0  0  0  0  0  0  0  0  0  0  0  0
   -7.0168    4.7611  -17.5966 C   0  0  0  0  0  0  0  0  0  0  0  0
   -6.9010    4.7620  -18.9660 N   0  0  0  0  0  0  0  0  0  0  0  0
   -5.6861    5.2608  -19.3259 C   0  0  0  0  0  0  0  0  0  0  0  0
   -4.9986    5.6227  -18.1840 C   0  0  0  0  0  0  0  0  0  0  0  0
   -3.6293    6.2294  -18.2271 C   0  0  0  0  0  0  0  0  0  0  0  0
   -3.5861    7.6593  -17.6907 C   0  0  0  0  0  0  0  0  0  0  0  0
   -2.1789    8.2323  -17.8369 C   0  0  0  0  0  0  0  0  0  0  0  0
   -1.1836    7.3831  -17.1843 N   0  0  0  0  0  0  0  0  0  0  0  0
   -1.1885    6.0223  -17.7264 C   0  0  0  0  0  0  0  0  0  0  0  0
   -2.5573    5.3632  -17.5684 C   0  0  0  0  0  0  0  0  0  0  0  0
   -5.8522    5.3191  -17.0667 C   0  0  0  0  0  0  0  0  0  0  0  0
   -5.7826    5.4822  -15.6612 C   0  0  0  0  0  0  0  0  0  0  0  0
   -7.7498    5.4128  -10.3931 C   0  0  0  0  0  0  0  0  0  0  0  0
   -8.1272    5.3876   -9.0434 C   0  0  0  0  0  0  0  0  0  0  0  0
   -8.5197    4.1845   -8.4821 C   0  0  0  0  0  0  0  0  0  0  0  0
  1  2  1  0
  3  2  1  1
  3  4  1  0
  4  5  1  0
  5  6  1  0
  6  7  2  0
  7  8  1  0
  8  9  1  0
  9 10  1  0
 10 11  2  0
 10 12  1  0
 12 13  2  0
 13 14  1  0
 14 15  1  0
 14 16  2  0
 16 17  1  0
 17 18  1  0
 18 19  2  0
 19 20  1  0
 20 21  1  0
 21 22  1  0
 22 23  1  0
 23 24  1  0
 24 25  1  0
 19 26  1  0
 26 27  2  0
  8 28  2  0
 28 29  1  0
 29 30  2  0
 30  3  1  0
 30  6  1  0
 27 12  1  0
 26 16  1  0
 25 20  1  0
M  END
>  <smiles>  (2210) 
C32519-P260

>  <fragmenstein_outcome>  (2210) 
acceptable

>  <inchikey>  (2210) 
QBGVQHPTBMSRHE-UHFFFAOYSA-N

>  <fragmenstein_mode>  (2210) 
expansion

>  <HIPPO Pose ID>  (2210) 
26745

>  <Energy>  (2210) 
36.542293

>  <fragmenstein_error>  (2210) 


>  <tags>  (2210) 
{'openbind_xx01zvns2b_c1_fragmenstein', 'fragmenstein_placed'}

>  <ref_pdb>  (2210) 
175

>  <scratch_subdir>  (2210) 
/opt/xchem-fragalysis-2/maxwin/BulkDock/SCRATCH/511028/C32519-P260

>  <alias>  (2210) 
CC[C@@H]1NCc2cc(NC(=O)c3cc(Cl)c4[nH]cc(C5CCNCC5)c4c3)ccc21

>  <HIPPO Compound ID>  (2210) 
32519

>  <fragmenstein_runtime>  (2210) 
5.237648

$$$$
O=Cc1[nH]c2c(Cl)cc(C(=O)Nc3ccc4c(c3)CNC4)cc2c1C1CCNCC1
     RDKit          3D

 30 34  0  0  0  0  0  0  0  0999 V2000
   -5.5894    5.4906  -21.8351 O   0  0  0  0  0  0  0  0  0  0  0  0
   -4.9767    5.3641  -20.7794 C   0  0  0  0  0  0  0  0  0  0  0  0
   -5.5414    5.2872  -19.4472 C   0  0  0  0  0  0  0  0  0  0  0  0
   -6.8198    4.8719  -19.1647 N   0  0  0  0  0  0  0  0  0  0  0  0
   -7.0192    4.7959  -17.8031 C   0  0  0  0  0  0  0  0  0  0  0  0
   -8.1311    4.3693  -17.0625 C   0  0  0  0  0  0  0  0  0  0  0  0
   -9.5433    3.8011  -17.8421 Cl  0  0  0  0  0  0  0  0  0  0  0  0
   -8.1158    4.4947  -15.6719 C   0  0  0  0  0  0  0  0  0  0  0  0
   -7.0003    5.0383  -15.0402 C   0  0  0  0  0  0  0  0  0  0  0  0
   -7.0389    5.3853  -13.5902 C   0  0  0  0  0  0  0  0  0  0  0  0
   -6.6534    6.4451  -13.2826 O   0  0  0  0  0  0  0  0  0  0  0  0
   -7.6138    4.2361  -12.7252 N   0  0  0  0  0  0  0  0  0  0  0  0
   -7.9119    4.1891  -11.3611 C   0  0  0  0  0  0  0  0  0  0  0  0
   -7.7755    5.3302  -10.5538 C   0  0  0  0  0  0  0  0  0  0  0  0
   -8.0347    5.2771   -9.1794 C   0  0  0  0  0  0  0  0  0  0  0  0
   -8.4204    4.0687   -8.6299 C   0  0  0  0  0  0  0  0  0  0  0  0
   -8.5686    2.9399   -9.4235 C   0  0  0  0  0  0  0  0  0  0  0  0
   -8.3315    2.9821  -10.7922 C   0  0  0  0  0  0  0  0  0  0  0  0
   -8.9599    1.7816   -8.5701 C   0  0  0  0  0  0  0  0  0  0  0  0
   -9.0998    2.3014   -7.1828 N   0  0  0  0  0  0  0  0  0  0  0  0
   -8.7209    3.7302   -7.2112 C   0  0  0  0  0  0  0  0  0  0  0  0
   -5.8715    5.4290  -15.7859 C   0  0  0  0  0  0  0  0  0  0  0  0
   -5.8720    5.3037  -17.1934 C   0  0  0  0  0  0  0  0  0  0  0  0
   -4.9405    5.6256  -18.2389 C   0  0  0  0  0  0  0  0  0  0  0  0
   -3.5767    6.2533  -18.1304 C   0  0  0  0  0  0  0  0  0  0  0  0
   -3.5969    7.6557  -17.5236 C   0  0  0  0  0  0  0  0  0  0  0  0
   -2.1942    8.2574  -17.5698 C   0  0  0  0  0  0  0  0  0  0  0  0
   -1.2222    7.3917  -16.9054 N   0  0  0  0  0  0  0  0  0  0  0  0
   -1.1732    6.0530  -17.4955 C   0  0  0  0  0  0  0  0  0  0  0  0
   -2.5395    5.3689  -17.4458 C   0  0  0  0  0  0  0  0  0  0  0  0
  1  2  2  0
  2  3  1  0
  3  4  1  0
  4  5  1  0
  5  6  2  0
  6  7  1  0
  6  8  1  0
  8  9  2  0
  9 10  1  0
 10 11  2  0
 10 12  1  0
 12 13  1  0
 13 14  2  0
 14 15  1  0
 15 16  2  0
 16 17  1  0
 17 18  2  0
 17 19  1  0
 19 20  1  0
 20 21  1  0
  9 22  1  0
 22 23  2  0
 23 24  1  0
 24 25  1  0
 25 26  1  0
 26 27  1  0
 27 28  1  0
 28 29  1  0
 29 30  1  0
 24  3  2  0
 30 25  1  0
 23  5  1  0
 18 13  1  0
 21 16  1  0
M  END
>  <smiles>  (2211) 
C32521-P260

>  <fragmenstein_outcome>  (2211) 
acceptable

>  <inchikey>  (2211) 
CLDGEEFPBAULBP-UHFFFAOYSA-N

>  <fragmenstein_mode>  (2211) 
expansion

>  <HIPPO Pose ID>  (2211) 
26746

>  <Energy>  (2211) 
40.70442

>  <fragmenstein_error>  (2211) 


>  <tags>  (2211) 
{'openbind_xx01zvns2b_c1_fragmenstein', 'fragmenstein_placed'}

>  <ref_pdb>  (2211) 
175

>  <scratch_subdir>  (2211) 
/opt/xchem-fragalysis-2/maxwin/BulkDock/SCRATCH/511028/C32521-P260

>  <alias>  (2211) 
O=Cc1[nH]c2c(Cl)cc(C(=O)Nc3ccc4c(c3)CNC4)cc2c1C1CCNCC1

>  <HIPPO Compound ID>  (2211) 
28086

>  <fragmenstein_runtime>  (2211) 
5.762597

$$$$
CN1CCC(c2c[nH]c3c(Cl)cc(C(=O)Nc4ccc5c(c4)CNC5)cc23)CC1
     RDKit          3D

 29 33  0  0  0  0  0  0  0  0999 V2000
   -1.3691    7.4118  -15.7071 C   0  0  0  0  0  0  0  0  0  0  0  0
   -1.3047    7.3801  -17.1673 N   0  0  0  0  0  0  0  0  0  0  0  0
   -2.3516    8.1990  -17.7884 C   0  0  0  0  0  0  0  0  0  0  0  0
   -3.7535    7.5945  -17.6995 C   0  0  0  0  0  0  0  0  0  0  0  0
   -3.7555    6.1679  -18.2501 C   0  0  0  0  0  0  0  0  0  0  0  0
   -5.1191    5.5410  -18.2408 C   0  0  0  0  0  0  0  0  0  0  0  0
   -5.7794    5.1801  -19.3978 C   0  0  0  0  0  0  0  0  0  0  0  0
   -7.0115    4.6964  -19.0706 N   0  0  0  0  0  0  0  0  0  0  0  0
   -7.1674    4.6967  -17.7066 C   0  0  0  0  0  0  0  0  0  0  0  0
   -8.2655    4.3089  -16.9377 C   0  0  0  0  0  0  0  0  0  0  0  0
   -9.7022    3.7630  -17.6816 Cl  0  0  0  0  0  0  0  0  0  0  0  0
   -8.2150    4.4720  -15.5589 C   0  0  0  0  0  0  0  0  0  0  0  0
   -7.0759    5.0134  -14.9650 C   0  0  0  0  0  0  0  0  0  0  0  0
   -7.1198    5.3832  -13.5212 C   0  0  0  0  0  0  0  0  0  0  0  0
   -6.7880    6.4652  -13.2274 O   0  0  0  0  0  0  0  0  0  0  0  0
   -7.7162    4.2444  -12.6539 N   0  0  0  0  0  0  0  0  0  0  0  0
   -7.9314    4.1719  -11.2777 C   0  0  0  0  0  0  0  0  0  0  0  0
   -7.7397    5.2901  -10.4499 C   0  0  0  0  0  0  0  0  0  0  0  0
   -8.0072    5.2237   -9.0771 C   0  0  0  0  0  0  0  0  0  0  0  0
   -8.4586    4.0261   -8.5557 C   0  0  0  0  0  0  0  0  0  0  0  0
   -8.6304    2.9103   -9.3689 C   0  0  0  0  0  0  0  0  0  0  0  0
   -8.3824    2.9655  -10.7315 C   0  0  0  0  0  0  0  0  0  0  0  0
   -9.0584    1.7572   -8.5221 C   0  0  0  0  0  0  0  0  0  0  0  0
   -9.5188    2.3651   -7.2460 N   0  0  0  0  0  0  0  0  0  0  0  0
   -8.8126    3.6628   -7.1519 C   0  0  0  0  0  0  0  0  0  0  0  0
   -5.9628    5.3907  -15.7429 C   0  0  0  0  0  0  0  0  0  0  0  0
   -6.0030    5.2310  -17.1484 C   0  0  0  0  0  0  0  0  0  0  0  0
   -2.6794    5.3108  -17.5859 C   0  0  0  0  0  0  0  0  0  0  0  0
   -1.3182    6.0058  -17.6907 C   0  0  0  0  0  0  0  0  0  0  0  0
  1  2  1  0
  2  3  1  0
  3  4  1  0
  4  5  1  0
  5  6  1  0
  6  7  2  0
  7  8  1  0
  8  9  1  0
  9 10  2  0
 10 11  1  0
 10 12  1  0
 12 13  2  0
 13 14  1  0
 14 15  2  0
 14 16  1  0
 16 17  1  0
 17 18  2  0
 18 19  1  0
 19 20  2  0
 20 21  1  0
 21 22  2  0
 21 23  1  0
 23 24  1  0
 24 25  1  0
 13 26  1  0
 26 27  2  0
  5 28  1  0
 28 29  1  0
 29  2  1  0
 27  6  1  0
 27  9  1  0
 22 17  1  0
 25 20  1  0
M  END
>  <smiles>  (2212) 
C30253-P260

>  <fragmenstein_outcome>  (2212) 
acceptable

>  <inchikey>  (2212) 
LWXCJZXZNRSZOU-UHFFFAOYSA-N

>  <fragmenstein_mode>  (2212) 
expansion

>  <HIPPO Pose ID>  (2212) 
26747

>  <Energy>  (2212) 
44.283104

>  <fragmenstein_error>  (2212) 


>  <tags>  (2212) 
{'openbind_xx01zvns2b_c1_fragmenstein', 'fragmenstein_placed'}

>  <ref_pdb>  (2212) 
175

>  <scratch_subdir>  (2212) 
/opt/xchem-fragalysis-2/maxwin/BulkDock/SCRATCH/511028/C30253-P260

>  <alias>  (2212) 
CN1CCC(c2c[nH]c3c(Cl)cc(C(=O)Nc4ccc5c(c4)CNC5)cc23)CC1

>  <HIPPO Compound ID>  (2212) 
30253

>  <fragmenstein_runtime>  (2212) 
6.38723

$$$$
O=C(Nc1ccc2c(c1)CNC2)c1cc(Cl)c2c(c1)C(C1CCNCC1)=C[N@H+]2[O-]
     RDKit          3D

 29 33  0  0  0  0  0  0  0  0999 V2000
   -6.6022    6.4073  -13.2310 O   0  0  0  0  0  0  0  0  0  0  0  0
   -7.0194    5.3591  -13.5420 C   0  0  0  0  0  0  0  0  0  0  0  0
   -7.7000    4.2517  -12.6882 N   0  0  0  0  0  0  0  0  0  0  0  0
   -7.9136    4.1713  -11.3056 C   0  0  0  0  0  0  0  0  0  0  0  0
   -7.7390    5.2873  -10.4723 C   0  0  0  0  0  0  0  0  0  0  0  0
   -7.9884    5.2075   -9.0942 C   0  0  0  0  0  0  0  0  0  0  0  0
   -8.4006    3.9975   -8.5649 C   0  0  0  0  0  0  0  0  0  0  0  0
   -8.5710    2.8882   -9.3809 C   0  0  0  0  0  0  0  0  0  0  0  0
   -8.3465    2.9587  -10.7520 C   0  0  0  0  0  0  0  0  0  0  0  0
   -8.9704    1.7182   -8.5452 C   0  0  0  0  0  0  0  0  0  0  0  0
   -9.1941    2.2393   -7.1725 N   0  0  0  0  0  0  0  0  0  0  0  0
   -8.7121    3.6353   -7.1527 C   0  0  0  0  0  0  0  0  0  0  0  0
   -7.0079    5.0204  -15.0034 C   0  0  0  0  0  0  0  0  0  0  0  0
   -8.1576    4.4609  -15.5831 C   0  0  0  0  0  0  0  0  0  0  0  0
   -8.2307    4.2965  -16.9651 C   0  0  0  0  0  0  0  0  0  0  0  0
   -9.6741    3.7479  -17.6774 Cl  0  0  0  0  0  0  0  0  0  0  0  0
   -7.1724    4.6854  -17.7594 C   0  0  0  0  0  0  0  0  0  0  0  0
   -6.0245    5.2595  -17.2019 C   0  0  0  0  0  0  0  0  0  0  0  0
   -5.9314    5.4321  -15.8194 C   0  0  0  0  0  0  0  0  0  0  0  0
   -5.1380    5.5985  -18.3172 C   0  0  0  0  0  0  0  0  0  0  0  0
   -3.7749    6.2072  -18.2985 C   0  0  0  0  0  0  0  0  0  0  0  0
   -3.7554    7.6388  -17.7579 C   0  0  0  0  0  0  0  0  0  0  0  0
   -2.3447    8.2191  -17.8501 C   0  0  0  0  0  0  0  0  0  0  0  0
   -1.3727    7.3750  -17.1590 N   0  0  0  0  0  0  0  0  0  0  0  0
   -1.3472    6.0161  -17.7065 C   0  0  0  0  0  0  0  0  0  0  0  0
   -2.7173    5.3456  -17.6028 C   0  0  0  0  0  0  0  0  0  0  0  0
   -5.7712    5.2206  -19.4449 C   0  0  0  0  0  0  0  0  0  0  0  0
   -7.0919    4.5895  -19.2263 N   0  0  1  0  0  0  0  0  0  0  0  0
   -6.9988    3.3067  -19.5984 O   0  0  0  0  0  0  0  0  0  0  0  0
  1  2  2  0
  2  3  1  0
  3  4  1  0
  4  5  2  0
  5  6  1  0
  6  7  2  0
  7  8  1  0
  8  9  2  0
  8 10  1  0
 10 11  1  0
 11 12  1  0
  2 13  1  0
 13 14  2  0
 14 15  1  0
 15 16  1  0
 15 17  2  0
 17 18  1  0
 18 19  2  0
 18 20  1  0
 20 21  1  0
 21 22  1  0
 22 23  1  0
 23 24  1  0
 24 25  1  0
 25 26  1  0
 20 27  2  0
 27 28  1  0
 28 29  1  1
  9  4  1  0
 19 13  1  0
 26 21  1  0
 12  7  1  0
 28 17  1  0
M  CHG  2  28   1  29  -1
M  END
>  <smiles>  (2213) 
C32493-P260

>  <fragmenstein_outcome>  (2213) 
acceptable

>  <inchikey>  (2213) 
OIYYJFZWHULVLG-UHFFFAOYSA-N

>  <fragmenstein_mode>  (2213) 
expansion

>  <HIPPO Pose ID>  (2213) 
26748

>  <Energy>  (2213) 
52.618478

>  <fragmenstein_error>  (2213) 


>  <tags>  (2213) 
{'openbind_xx01zvns2b_c1_fragmenstein', 'fragmenstein_placed'}

>  <ref_pdb>  (2213) 
175

>  <scratch_subdir>  (2213) 
/opt/xchem-fragalysis-2/maxwin/BulkDock/SCRATCH/511028/C32493-P260

>  <alias>  (2213) 
O=C(Nc1ccc2c(c1)CNC2)c1cc(Cl)c2c(c1)C(C1CCNCC1)=C[N@H+]2[O-]

>  <HIPPO Compound ID>  (2213) 
20108

>  <fragmenstein_runtime>  (2213) 
3.62375

$$$$
CNCc1[nH]c2c(Cl)cc(C(=O)Nc3cc(Br)c4c(c3)CNC4)cc2c1C1CCNCC1
     RDKit          3D

 32 36  0  0  0  0  0  0  0  0999 V2000
   -3.4981    6.2476  -22.2462 C   0  0  0  0  0  0  0  0  0  0  0  0
   -3.9336    5.4642  -21.1047 N   0  0  0  0  0  0  0  0  0  0  0  0
   -5.3381    5.7319  -20.8008 C   0  0  0  0  0  0  0  0  0  0  0  0
   -5.6815    5.4142  -19.3792 C   0  0  0  0  0  0  0  0  0  0  0  0
   -6.8884    4.8317  -19.0755 N   0  0  0  0  0  0  0  0  0  0  0  0
   -7.0674    4.7596  -17.7155 C   0  0  0  0  0  0  0  0  0  0  0  0
   -8.1676    4.3148  -16.9742 C   0  0  0  0  0  0  0  0  0  0  0  0
   -9.5867    3.7559  -17.7455 Cl  0  0  0  0  0  0  0  0  0  0  0  0
   -8.1413    4.4338  -15.5884 C   0  0  0  0  0  0  0  0  0  0  0  0
   -7.0195    4.9724  -14.9625 C   0  0  0  0  0  0  0  0  0  0  0  0
   -7.0760    5.3224  -13.5166 C   0  0  0  0  0  0  0  0  0  0  0  0
   -6.7052    6.3858  -13.2044 O   0  0  0  0  0  0  0  0  0  0  0  0
   -7.7337    4.2017  -12.6745 N   0  0  0  0  0  0  0  0  0  0  0  0
   -7.9765    4.1230  -11.3037 C   0  0  0  0  0  0  0  0  0  0  0  0
   -7.8387    5.2604  -10.4947 C   0  0  0  0  0  0  0  0  0  0  0  0
   -8.1147    5.1993   -9.1271 C   0  0  0  0  0  0  0  0  0  0  0  0
   -7.9521    6.7632   -8.0886 Br  0  0  0  0  0  0  0  0  0  0  0  0
   -8.5204    3.9988   -8.5792 C   0  0  0  0  0  0  0  0  0  0  0  0
   -8.6490    2.8675   -9.3822 C   0  0  0  0  0  0  0  0  0  0  0  0
   -8.3901    2.9109  -10.7450 C   0  0  0  0  0  0  0  0  0  0  0  0
   -9.0528    1.7101   -8.5289 C   0  0  0  0  0  0  0  0  0  0  0  0
   -9.5308    2.3135   -7.2596 N   0  0  0  0  0  0  0  0  0  0  0  0
   -8.8646    3.6327   -7.1740 C   0  0  0  0  0  0  0  0  0  0  0  0
   -5.8989    5.3796  -15.7101 C   0  0  0  0  0  0  0  0  0  0  0  0
   -5.9235    5.2891  -17.1197 C   0  0  0  0  0  0  0  0  0  0  0  0
   -5.0364    5.6915  -18.1783 C   0  0  0  0  0  0  0  0  0  0  0  0
   -3.6834    6.3411  -18.0825 C   0  0  0  0  0  0  0  0  0  0  0  0
   -3.6515    7.6509  -17.3013 C   0  0  0  0  0  0  0  0  0  0  0  0
   -2.2540    8.2639  -17.3965 C   0  0  0  0  0  0  0  0  0  0  0  0
   -1.2227    7.3363  -16.9290 N   0  0  0  0  0  0  0  0  0  0  0  0
   -1.2355    6.0778  -17.6809 C   0  0  0  0  0  0  0  0  0  0  0  0
   -2.5944    5.3864  -17.5944 C   0  0  0  0  0  0  0  0  0  0  0  0
  1  2  1  0
  2  3  1  0
  3  4  1  0
  4  5  1  0
  5  6  1  0
  6  7  2  0
  7  8  1  0
  7  9  1  0
  9 10  2  0
 10 11  1  0
 11 12  2  0
 11 13  1  0
 13 14  1  0
 14 15  2  0
 15 16  1  0
 16 17  1  0
 16 18  2  0
 18 19  1  0
 19 20  2  0
 19 21  1  0
 21 22  1  0
 22 23  1  0
 10 24  1  0
 24 25  2  0
 25 26  1  0
 26 27  1  0
 27 28  1  0
 28 29  1  0
 29 30  1  0
 30 31  1  0
 31 32  1  0
 26  4  2  0
 32 27  1  0
 25  6  1  0
 20 14  1  0
 23 18  1  0
M  END
>  <smiles>  (2214) 
C32523-P260

>  <fragmenstein_outcome>  (2214) 
acceptable

>  <inchikey>  (2214) 
HRMUPGAZIBCZKC-UHFFFAOYSA-N

>  <fragmenstein_mode>  (2214) 
expansion

>  <HIPPO Pose ID>  (2214) 
26749

>  <Energy>  (2214) 
19.795589

>  <fragmenstein_error>  (2214) 


>  <tags>  (2214) 
{'openbind_xx01zvns2b_c1_fragmenstein', 'fragmenstein_placed'}

>  <ref_pdb>  (2214) 
175

>  <scratch_subdir>  (2214) 
/opt/xchem-fragalysis-2/maxwin/BulkDock/SCRATCH/511028/C32523-P260

>  <alias>  (2214) 
CNCc1[nH]c2c(Cl)cc(C(=O)Nc3cc(Br)c4c(c3)CNC4)cc2c1C1CCNCC1

>  <HIPPO Compound ID>  (2214) 
32523

>  <fragmenstein_runtime>  (2214) 
9.307883

$$$$
CC(C)NC(=O)[C@@](O)(Nc1ccc2c(c1)CNC2)c1cc(Cl)c2[nH]cc([C@@]3(F)CCNC[C@@H]3F)c2c1
     RDKit          3D

 36 40  0  0  0  0  0  0  0  0999 V2000
   -8.3505    9.6301  -12.5683 C   0  0  0  0  0  0  0  0  0  0  0  0
   -9.2589    8.4082  -12.4721 C   0  0  0  0  0  0  0  0  0  0  0  0
  -10.5565    8.6518  -13.2413 C   0  0  0  0  0  0  0  0  0  0  0  0
   -8.6025    7.1713  -12.8721 N   0  0  0  0  0  0  0  0  0  0  0  0
   -7.0907    6.8602  -13.1247 C   0  0  0  0  0  0  0  0  0  0  0  0
   -6.1580    7.5723  -13.1239 O   0  0  0  0  0  0  0  0  0  0  0  0
   -6.9472    5.2625  -13.3682 C   0  0  1  0  0  0  0  0  0  0  0  0
   -5.6908    4.7514  -12.9703 O   0  0  0  0  0  0  0  0  0  0  0  0
   -7.9768    4.4601  -12.6663 N   0  0  0  0  0  0  0  0  0  0  0  0
   -8.0415    4.3243  -11.2656 C   0  0  0  0  0  0  0  0  0  0  0  0
   -7.8130    5.3814  -10.3615 C   0  0  0  0  0  0  0  0  0  0  0  0
   -8.0246    5.2435   -8.9814 C   0  0  0  0  0  0  0  0  0  0  0  0
   -8.4700    4.0303   -8.5041 C   0  0  0  0  0  0  0  0  0  0  0  0
   -8.6796    2.9652   -9.3679 C   0  0  0  0  0  0  0  0  0  0  0  0
   -8.4974    3.1010  -10.7371 C   0  0  0  0  0  0  0  0  0  0  0  0
   -9.0815    1.7706   -8.5671 C   0  0  0  0  0  0  0  0  0  0  0  0
   -9.5211    2.3192   -7.2568 N   0  0  0  0  0  0  0  0  0  0  0  0
   -8.8013    3.6049   -7.1126 C   0  0  0  0  0  0  0  0  0  0  0  0
   -7.0409    5.0255  -14.8928 C   0  0  0  0  0  0  0  0  0  0  0  0
   -8.1991    4.5146  -15.4985 C   0  0  0  0  0  0  0  0  0  0  0  0
   -8.2722    4.3374  -16.8791 C   0  0  0  0  0  0  0  0  0  0  0  0
   -9.6938    3.7454  -17.6166 Cl  0  0  0  0  0  0  0  0  0  0  0  0
   -7.1859    4.7047  -17.6679 C   0  0  0  0  0  0  0  0  0  0  0  0
   -7.0542    4.6766  -19.0334 N   0  0  0  0  0  0  0  0  0  0  0  0
   -5.8199    5.1260  -19.3845 C   0  0  0  0  0  0  0  0  0  0  0  0
   -5.1334    5.4976  -18.2452 C   0  0  0  0  0  0  0  0  0  0  0  0
   -3.7582    6.1044  -18.3005 C   0  0  1  0  0  0  0  0  0  0  0  0
   -3.4196    6.2314  -19.6368 F   0  0  0  0  0  0  0  0  0  0  0  0
   -3.7414    7.5299  -17.7443 C   0  0  0  0  0  0  0  0  0  0  0  0
   -2.3498    8.1396  -17.8827 C   0  0  0  0  0  0  0  0  0  0  0  0
   -1.3397    7.3165  -17.2185 N   0  0  0  0  0  0  0  0  0  0  0  0
   -1.3211    5.9578  -17.7796 C   0  0  0  0  0  0  0  0  0  0  0  0
   -2.6708    5.2481  -17.6536 C   0  0  2  0  0  0  0  0  0  0  0  0
   -2.5769    4.0450  -18.2897 F   0  0  0  0  0  0  0  0  0  0  0  0
   -6.0052    5.2205  -17.1339 C   0  0  0  0  0  0  0  0  0  0  0  0
   -5.9405    5.3709  -15.7265 C   0  0  0  0  0  0  0  0  0  0  0  0
  1  2  1  0
  2  3  1  0
  2  4  1  0
  4  5  1  0
  5  6  2  0
  5  7  1  0
  7  8  1  1
  7  9  1  0
  9 10  1  0
 10 11  2  0
 11 12  1  0
 12 13  2  0
 13 14  1  0
 14 15  2  0
 14 16  1  0
 16 17  1  0
 17 18  1  0
  7 19  1  0
 19 20  2  0
 20 21  1  0
 21 22  1  0
 21 23  2  0
 23 24  1  0
 24 25  1  0
 25 26  2  0
 26 27  1  0
 27 28  1  6
 27 29  1  0
 29 30  1  0
 30 31  1  0
 31 32  1  0
 32 33  1  0
 33 34  1  6
 26 35  1  0
 35 36  2  0
 15 10  1  0
 36 19  1  0
 18 13  1  0
 35 23  1  0
 33 27  1  0
M  END
>  <smiles>  (2215) 
C32529-P260

>  <fragmenstein_outcome>  (2215) 
acceptable

>  <inchikey>  (2215) 
IOBOVRGRYHOHKI-UHFFFAOYSA-N

>  <fragmenstein_mode>  (2215) 
expansion

>  <HIPPO Pose ID>  (2215) 
26751

>  <Energy>  (2215) 
127.249704

>  <fragmenstein_error>  (2215) 


>  <tags>  (2215) 
{'openbind_xx01zvns2b_c1_fragmenstein', 'fragmenstein_placed'}

>  <ref_pdb>  (2215) 
175

>  <scratch_subdir>  (2215) 
/opt/xchem-fragalysis-2/maxwin/BulkDock/SCRATCH/511028/C32529-P260

>  <alias>  (2215) 
CC(C)NC(=O)[C@@](O)(Nc1ccc2c(c1)CNC2)c1cc(Cl)c2[nH]cc([C@@]3(F)CCNC[C@@H]3F)c2c1

>  <HIPPO Compound ID>  (2215) 
32529

>  <fragmenstein_runtime>  (2215) 
6.40092

$$$$
O=C(Nc1ccc2c(c1)CNC2)c1cc(Cl)c2[nH]c3c(c2c1)CC1(CCNCC1)C3
     RDKit          3D

 30 35  0  0  0  0  0  0  0  0999 V2000
   -7.6422    6.5302  -12.9876 O   0  0  0  0  0  0  0  0  0  0  0  0
   -7.7543    5.4017  -13.2629 C   0  0  0  0  0  0  0  0  0  0  0  0
   -8.0983    4.1876  -12.3796 N   0  0  0  0  0  0  0  0  0  0  0  0
   -8.2776    4.0931  -11.0033 C   0  0  0  0  0  0  0  0  0  0  0  0
   -8.1124    5.2234  -10.1835 C   0  0  0  0  0  0  0  0  0  0  0  0
   -8.2691    5.1362   -8.7983 C   0  0  0  0  0  0  0  0  0  0  0  0
   -8.6021    3.9094   -8.2580 C   0  0  0  0  0  0  0  0  0  0  0  0
   -8.7626    2.7904   -9.0667 C   0  0  0  0  0  0  0  0  0  0  0  0
   -8.6010    2.8592  -10.4414 C   0  0  0  0  0  0  0  0  0  0  0  0
   -9.0666    1.6070   -8.2144 C   0  0  0  0  0  0  0  0  0  0  0  0
   -9.3254    2.1385   -6.8511 N   0  0  0  0  0  0  0  0  0  0  0  0
   -8.8317    3.5315   -6.8354 C   0  0  0  0  0  0  0  0  0  0  0  0
   -7.5112    5.0181  -14.6706 C   0  0  0  0  0  0  0  0  0  0  0  0
   -8.4770    4.3807  -15.4429 C   0  0  0  0  0  0  0  0  0  0  0  0
   -8.3127    4.2836  -16.8296 C   0  0  0  0  0  0  0  0  0  0  0  0
   -9.5599    3.6371  -17.7899 Cl  0  0  0  0  0  0  0  0  0  0  0  0
   -7.1702    4.8285  -17.4215 C   0  0  0  0  0  0  0  0  0  0  0  0
   -6.8011    4.9793  -18.7614 N   0  0  0  0  0  0  0  0  0  0  0  0
   -5.6075    5.6259  -18.7815 C   0  0  0  0  0  0  0  0  0  0  0  0
   -5.2132    5.8868  -17.5065 C   0  0  0  0  0  0  0  0  0  0  0  0
   -6.1757    5.4155  -16.6279 C   0  0  0  0  0  0  0  0  0  0  0  0
   -6.3342    5.5019  -15.2422 C   0  0  0  0  0  0  0  0  0  0  0  0
   -3.9495    6.6205  -17.4403 C   0  0  0  0  0  0  0  0  0  0  0  0
   -3.4030    6.4516  -18.9142 C   0  0  0  0  0  0  0  0  0  0  0  0
   -2.6716    7.7308  -19.3429 C   0  0  0  0  0  0  0  0  0  0  0  0
   -1.4061    7.9459  -18.5082 C   0  0  0  0  0  0  0  0  0  0  0  0
   -0.5080    6.8053  -18.6178 N   0  0  0  0  0  0  0  0  0  0  0  0
   -1.1329    5.5532  -18.2001 C   0  0  0  0  0  0  0  0  0  0  0  0
   -2.4101    5.2673  -18.9813 C   0  0  0  0  0  0  0  0  0  0  0  0
   -4.6788    6.1200  -19.8179 C   0  0  0  0  0  0  0  0  0  0  0  0
  1  2  2  0
  2  3  1  0
  3  4  1  0
  4  5  2  0
  5  6  1  0
  6  7  2  0
  7  8  1  0
  8  9  2  0
  8 10  1  0
 10 11  1  0
 11 12  1  0
  2 13  1  0
 13 14  2  0
 14 15  1  0
 15 16  1  0
 15 17  2  0
 17 18  1  0
 18 19  1  0
 19 20  2  0
 20 21  1  0
 21 22  2  0
 20 23  1  0
 23 24  1  0
 24 25  1  0
 25 26  1  0
 26 27  1  0
 27 28  1  0
 28 29  1  0
 24 30  1  0
  9  4  1  0
 22 13  1  0
 29 24  1  0
 12  7  1  0
 21 17  1  0
 30 19  1  0
M  END
>  <smiles>  (2216) 
C33732-P260

>  <fragmenstein_outcome>  (2216) 
acceptable

>  <inchikey>  (2216) 
PAEZTHGHUVQVNS-UHFFFAOYSA-N

>  <fragmenstein_mode>  (2216) 
expansion

>  <HIPPO Pose ID>  (2216) 
26752

>  <Energy>  (2216) 
69.305971

>  <fragmenstein_error>  (2216) 


>  <tags>  (2216) 
{'openbind_xx01zvns2b_c1_fragmenstein', 'fragmenstein_placed'}

>  <ref_pdb>  (2216) 
175

>  <scratch_subdir>  (2216) 
/opt/xchem-fragalysis-2/maxwin/BulkDock/SCRATCH/511028/C33732-P260

>  <alias>  (2216) 
O=C(Nc1ccc2c(c1)CNC2)c1cc(Cl)c2[nH]c3c(c2c1)CC1(CCNCC1)C3

>  <HIPPO Compound ID>  (2216) 
33732

>  <fragmenstein_runtime>  (2216) 
6.51554

$$$$
CNCc1[nH]c2c(Cl)cc(C(=O)Nc3ccc4c(c3)CN(C)[C@H]4C)cc2c1C1CCNCC1
     RDKit          3D

 33 37  0  0  0  0  0  0  0  0999 V2000
   -2.9183    4.9013  -20.7335 C   0  0  0  0  0  0  0  0  0  0  0  0
   -3.8537    5.9862  -20.9855 N   0  0  0  0  0  0  0  0  0  0  0  0
   -5.2460    5.6391  -20.7058 C   0  0  0  0  0  0  0  0  0  0  0  0
   -5.6191    5.4509  -19.2633 C   0  0  0  0  0  0  0  0  0  0  0  0
   -6.8439    4.8791  -18.9848 N   0  0  0  0  0  0  0  0  0  0  0  0
   -7.0629    4.8077  -17.6315 C   0  0  0  0  0  0  0  0  0  0  0  0
   -8.1720    4.3403  -16.9136 C   0  0  0  0  0  0  0  0  0  0  0  0
   -9.5564    3.7550  -17.7358 Cl  0  0  0  0  0  0  0  0  0  0  0  0
   -8.1806    4.4635  -15.5226 C   0  0  0  0  0  0  0  0  0  0  0  0
   -7.0914    5.0459  -14.8789 C   0  0  0  0  0  0  0  0  0  0  0  0
   -7.1516    5.4292  -13.4423 C   0  0  0  0  0  0  0  0  0  0  0  0
   -6.7914    6.5075  -13.1697 O   0  0  0  0  0  0  0  0  0  0  0  0
   -7.6891    4.2929  -12.5395 N   0  0  0  0  0  0  0  0  0  0  0  0
   -7.9751    4.2789  -11.1734 C   0  0  0  0  0  0  0  0  0  0  0  0
   -7.8448    5.4570  -10.4183 C   0  0  0  0  0  0  0  0  0  0  0  0
   -8.1054    5.4711   -9.0464 C   0  0  0  0  0  0  0  0  0  0  0  0
   -8.4858    4.2894   -8.4396 C   0  0  0  0  0  0  0  0  0  0  0  0
   -8.6212    3.1177   -9.1827 C   0  0  0  0  0  0  0  0  0  0  0  0
   -8.3805    3.0936  -10.5528 C   0  0  0  0  0  0  0  0  0  0  0  0
   -9.0595    2.0070   -8.2794 C   0  0  0  0  0  0  0  0  0  0  0  0
   -9.0164    2.5711   -6.9097 N   0  0  0  0  0  0  0  0  0  0  0  0
  -10.1433    2.1624   -6.0921 C   0  0  0  0  0  0  0  0  0  0  0  0
   -8.8541    4.0309   -7.0083 C   0  0  1  0  0  0  0  0  0  0  0  0
   -7.8017    4.5241   -6.0205 C   0  0  0  0  0  0  0  0  0  0  0  0
   -5.9677    5.4772  -15.6077 C   0  0  0  0  0  0  0  0  0  0  0  0
   -5.9505    5.3683  -17.0126 C   0  0  0  0  0  0  0  0  0  0  0  0
   -5.0319    5.7744  -18.0421 C   0  0  0  0  0  0  0  0  0  0  0  0
   -3.6981    6.4423  -17.8543 C   0  0  0  0  0  0  0  0  0  0  0  0
   -3.7646    7.8437  -17.2563 C   0  0  0  0  0  0  0  0  0  0  0  0
   -2.3623    8.4570  -17.2741 C   0  0  0  0  0  0  0  0  0  0  0  0
   -1.3797    7.6222  -16.5743 N   0  0  0  0  0  0  0  0  0  0  0  0
   -1.3174    6.2693  -17.1388 C   0  0  0  0  0  0  0  0  0  0  0  0
   -2.6808    5.5821  -17.1010 C   0  0  0  0  0  0  0  0  0  0  0  0
  1  2  1  0
  2  3  1  0
  3  4  1  0
  4  5  1  0
  5  6  1  0
  6  7  2  0
  7  8  1  0
  7  9  1  0
  9 10  2  0
 10 11  1  0
 11 12  2  0
 11 13  1  0
 13 14  1  0
 14 15  2  0
 15 16  1  0
 16 17  2  0
 17 18  1  0
 18 19  2  0
 18 20  1  0
 20 21  1  0
 21 22  1  0
 21 23  1  0
 23 24  1  1
 10 25  1  0
 25 26  2  0
 26 27  1  0
 27 28  1  0
 28 29  1  0
 29 30  1  0
 30 31  1  0
 31 32  1  0
 32 33  1  0
 27  4  2  0
 33 28  1  0
 26  6  1  0
 19 14  1  0
 23 17  1  0
M  END
>  <smiles>  (2217) 
C18187-P260

>  <fragmenstein_outcome>  (2217) 
acceptable

>  <inchikey>  (2217) 
RTJUISKPTNTZLZ-UHFFFAOYSA-N

>  <fragmenstein_mode>  (2217) 
expansion

>  <HIPPO Pose ID>  (2217) 
26755

>  <Energy>  (2217) 
41.380403

>  <fragmenstein_error>  (2217) 


>  <tags>  (2217) 
{'openbind_xx01zvns2b_c1_fragmenstein', 'fragmenstein_placed'}

>  <ref_pdb>  (2217) 
175

>  <scratch_subdir>  (2217) 
/opt/xchem-fragalysis-2/maxwin/BulkDock/SCRATCH/511028/C18187-P260

>  <alias>  (2217) 
CNCc1[nH]c2c(Cl)cc(C(=O)Nc3ccc4c(c3)CN(C)[C@H]4C)cc2c1C1CCNCC1

>  <HIPPO Compound ID>  (2217) 
18187

>  <fragmenstein_runtime>  (2217) 
7.512684

$$$$
CNCc1[nH]c2c(Cl)cc(C(=O)Nc3cc(C#N)c4c(c3)CNC4)cc2c1C1CCNCC1
     RDKit          3D

 33 37  0  0  0  0  0  0  0  0999 V2000
   -4.8536    7.6193  -21.0894 C   0  0  0  0  0  0  0  0  0  0  0  0
   -5.4678    6.3758  -21.5027 N   0  0  0  0  0  0  0  0  0  0  0  0
   -5.1079    5.2205  -20.6894 C   0  0  0  0  0  0  0  0  0  0  0  0
   -5.6252    5.2646  -19.2899 C   0  0  0  0  0  0  0  0  0  0  0  0
   -6.8819    4.8020  -18.9973 N   0  0  0  0  0  0  0  0  0  0  0  0
   -7.0816    4.7812  -17.6395 C   0  0  0  0  0  0  0  0  0  0  0  0
   -8.1876    4.3437  -16.9066 C   0  0  0  0  0  0  0  0  0  0  0  0
   -9.5701    3.7244  -17.6979 Cl  0  0  0  0  0  0  0  0  0  0  0  0
   -8.1841    4.4961  -15.5240 C   0  0  0  0  0  0  0  0  0  0  0  0
   -7.0808    5.0693  -14.8932 C   0  0  0  0  0  0  0  0  0  0  0  0
   -7.1564    5.4173  -13.4449 C   0  0  0  0  0  0  0  0  0  0  0  0
   -6.8634    6.5054  -13.1348 O   0  0  0  0  0  0  0  0  0  0  0  0
   -7.7267    4.2510  -12.5986 N   0  0  0  0  0  0  0  0  0  0  0  0
   -7.9571    4.1557  -11.2258 C   0  0  0  0  0  0  0  0  0  0  0  0
   -7.7590    5.2566  -10.3747 C   0  0  0  0  0  0  0  0  0  0  0  0
   -8.0239    5.1574   -9.0004 C   0  0  0  0  0  0  0  0  0  0  0  0
   -7.8110    6.2685   -8.1245 C   0  0  0  0  0  0  0  0  0  0  0  0
   -7.6476    7.1386   -7.3733 N   0  0  0  0  0  0  0  0  0  0  0  0
   -8.4914    3.9515   -8.5057 C   0  0  0  0  0  0  0  0  0  0  0  0
   -8.6652    2.8552   -9.3451 C   0  0  0  0  0  0  0  0  0  0  0  0
   -8.4113    2.9394  -10.7052 C   0  0  0  0  0  0  0  0  0  0  0  0
   -9.0929    1.6833   -8.5247 C   0  0  0  0  0  0  0  0  0  0  0  0
   -9.5592    2.2629   -7.2414 N   0  0  0  0  0  0  0  0  0  0  0  0
   -8.8583    3.5580   -7.1107 C   0  0  0  0  0  0  0  0  0  0  0  0
   -5.9564    5.4830  -15.6357 C   0  0  0  0  0  0  0  0  0  0  0  0
   -5.9500    5.3372  -17.0423 C   0  0  0  0  0  0  0  0  0  0  0  0
   -5.0258    5.6522  -18.0990 C   0  0  0  0  0  0  0  0  0  0  0  0
   -3.6549    6.2627  -18.0269 C   0  0  0  0  0  0  0  0  0  0  0  0
   -3.6331    7.6619  -17.4156 C   0  0  0  0  0  0  0  0  0  0  0  0
   -2.2282    8.2491  -17.5293 C   0  0  0  0  0  0  0  0  0  0  0  0
   -1.2348    7.3777  -16.9045 N   0  0  0  0  0  0  0  0  0  0  0  0
   -1.2324    6.0339  -17.4866 C   0  0  0  0  0  0  0  0  0  0  0  0
   -2.6049    5.3677  -17.3758 C   0  0  0  0  0  0  0  0  0  0  0  0
  1  2  1  0
  2  3  1  0
  3  4  1  0
  4  5  1  0
  5  6  1  0
  6  7  2  0
  7  8  1  0
  7  9  1  0
  9 10  2  0
 10 11  1  0
 11 12  2  0
 11 13  1  0
 13 14  1  0
 14 15  2  0
 15 16  1  0
 16 17  1  0
 17 18  3  0
 16 19  2  0
 19 20  1  0
 20 21  2  0
 20 22  1  0
 22 23  1  0
 23 24  1  0
 10 25  1  0
 25 26  2  0
 26 27  1  0
 27 28  1  0
 28 29  1  0
 29 30  1  0
 30 31  1  0
 31 32  1  0
 32 33  1  0
 27  4  2  0
 33 28  1  0
 26  6  1  0
 21 14  1  0
 24 19  1  0
M  END
>  <smiles>  (2218) 
C18192-P260

>  <fragmenstein_outcome>  (2218) 
acceptable

>  <inchikey>  (2218) 
NQNFGSIKYACVIR-UHFFFAOYSA-N

>  <fragmenstein_mode>  (2218) 
expansion

>  <HIPPO Pose ID>  (2218) 
26756

>  <Energy>  (2218) 
25.870334

>  <fragmenstein_error>  (2218) 


>  <tags>  (2218) 
{'openbind_xx01zvns2b_c1_fragmenstein', 'fragmenstein_placed'}

>  <ref_pdb>  (2218) 
175

>  <scratch_subdir>  (2218) 
/opt/xchem-fragalysis-2/maxwin/BulkDock/SCRATCH/511028/C18192-P260

>  <alias>  (2218) 
CNCc1[nH]c2c(Cl)cc(C(=O)Nc3cc(C#N)c4c(c3)CNC4)cc2c1C1CCNCC1

>  <HIPPO Compound ID>  (2218) 
18192

>  <fragmenstein_runtime>  (2218) 
5.563141

$$$$
CNCc1[nH]c2c(Cl)cc(C(=O)Nc3ccc4c(c3)CN(F)[C@@H]4O)cc2c1C1CCNCC1
     RDKit          3D

 33 37  0  0  0  0  0  0  0  0999 V2000
   -2.9226    5.2576  -20.8457 C   0  0  0  0  0  0  0  0  0  0  0  0
   -4.2821    5.4252  -21.3170 N   0  0  0  0  0  0  0  0  0  0  0  0
   -5.0753    6.3517  -20.5274 C   0  0  0  0  0  0  0  0  0  0  0  0
   -5.4639    5.8371  -19.1796 C   0  0  0  0  0  0  0  0  0  0  0  0
   -6.6191    5.0852  -19.0372 N   0  0  0  0  0  0  0  0  0  0  0  0
   -6.9313    4.9224  -17.7056 C   0  0  0  0  0  0  0  0  0  0  0  0
   -8.0481    4.3617  -17.0704 C   0  0  0  0  0  0  0  0  0  0  0  0
   -9.3224    3.6562  -17.9569 Cl  0  0  0  0  0  0  0  0  0  0  0  0
   -8.1712    4.4837  -15.6848 C   0  0  0  0  0  0  0  0  0  0  0  0
   -7.1673    5.1179  -14.9608 C   0  0  0  0  0  0  0  0  0  0  0  0
   -7.3500    5.5056  -13.5430 C   0  0  0  0  0  0  0  0  0  0  0  0
   -7.0711    6.5936  -13.2302 O   0  0  0  0  0  0  0  0  0  0  0  0
   -7.9019    4.3386  -12.7078 N   0  0  0  0  0  0  0  0  0  0  0  0
   -8.1306    4.2357  -11.3435 C   0  0  0  0  0  0  0  0  0  0  0  0
   -7.9877    5.3479  -10.4939 C   0  0  0  0  0  0  0  0  0  0  0  0
   -8.1820    5.2276   -9.1151 C   0  0  0  0  0  0  0  0  0  0  0  0
   -8.5243    3.9864   -8.6179 C   0  0  0  0  0  0  0  0  0  0  0  0
   -8.6761    2.8925   -9.4698 C   0  0  0  0  0  0  0  0  0  0  0  0
   -8.4858    2.9924  -10.8319 C   0  0  0  0  0  0  0  0  0  0  0  0
   -9.0079    1.6871   -8.6661 C   0  0  0  0  0  0  0  0  0  0  0  0
   -9.3639    2.2019   -7.3351 N   0  0  0  0  0  0  0  0  0  0  0  0
   -8.8949    1.3452   -6.3776 F   0  0  0  0  0  0  0  0  0  0  0  0
   -8.7476    3.5273   -7.2140 C   0  0  2  0  0  0  0  0  0  0  0  0
   -9.6196    4.3903   -6.5103 O   0  0  0  0  0  0  0  0  0  0  0  0
   -6.0027    5.5719  -15.5849 C   0  0  0  0  0  0  0  0  0  0  0  0
   -5.8970    5.5058  -16.9849 C   0  0  0  0  0  0  0  0  0  0  0  0
   -4.9268    6.0160  -17.9093 C   0  0  0  0  0  0  0  0  0  0  0  0
   -3.6453    6.6740  -17.4540 C   0  0  0  0  0  0  0  0  0  0  0  0
   -3.1669    7.8663  -18.2758 C   0  0  0  0  0  0  0  0  0  0  0  0
   -1.9229    8.4819  -17.6368 C   0  0  0  0  0  0  0  0  0  0  0  0
   -0.9086    7.5177  -17.2021 N   0  0  0  0  0  0  0  0  0  0  0  0
   -1.1578    6.1594  -17.6810 C   0  0  0  0  0  0  0  0  0  0  0  0
   -2.5212    5.6449  -17.2242 C   0  0  0  0  0  0  0  0  0  0  0  0
  1  2  1  0
  2  3  1  0
  3  4  1  0
  4  5  1  0
  5  6  1  0
  6  7  2  0
  7  8  1  0
  7  9  1  0
  9 10  2  0
 10 11  1  0
 11 12  2  0
 11 13  1  0
 13 14  1  0
 14 15  2  0
 15 16  1  0
 16 17  2  0
 17 18  1  0
 18 19  2  0
 18 20  1  0
 20 21  1  0
 21 22  1  0
 21 23  1  0
 23 24  1  6
 10 25  1  0
 25 26  2  0
 26 27  1  0
 27 28  1  0
 28 29  1  0
 29 30  1  0
 30 31  1  0
 31 32  1  0
 32 33  1  0
 27  4  2  0
 33 28  1  0
 26  6  1  0
 19 14  1  0
 23 17  1  0
M  END
>  <smiles>  (2219) 
C18193-P260

>  <fragmenstein_outcome>  (2219) 
acceptable

>  <inchikey>  (2219) 
FURFZXBRQWVWTD-UHFFFAOYSA-N

>  <fragmenstein_mode>  (2219) 
expansion

>  <HIPPO Pose ID>  (2219) 
26757

>  <Energy>  (2219) 
24.990866

>  <fragmenstein_error>  (2219) 


>  <tags>  (2219) 
{'openbind_xx01zvns2b_c1_fragmenstein', 'fragmenstein_placed'}

>  <ref_pdb>  (2219) 
175

>  <scratch_subdir>  (2219) 
/opt/xchem-fragalysis-2/maxwin/BulkDock/SCRATCH/511028/C18193-P260

>  <alias>  (2219) 
CNCc1[nH]c2c(Cl)cc(C(=O)Nc3ccc4c(c3)CN(F)[C@@H]4O)cc2c1C1CCNCC1

>  <HIPPO Compound ID>  (2219) 
18193

>  <fragmenstein_runtime>  (2219) 
7.533365

$$$$
O=C(Nc1ccc2c(c1)CNC2)c1cc(Cl)c2c(c1)[C@@H](C1CCNCC1)[C@@]1(CCNC1)N2
     RDKit          3D

 32 37  0  0  0  0  0  0  0  0999 V2000
   -7.0303    6.5029  -13.1536 O   0  0  0  0  0  0  0  0  0  0  0  0
   -7.2975    5.4072  -13.4588 C   0  0  0  0  0  0  0  0  0  0  0  0
   -7.8537    4.2401  -12.6141 N   0  0  0  0  0  0  0  0  0  0  0  0
   -8.1004    4.1500  -11.2431 C   0  0  0  0  0  0  0  0  0  0  0  0
   -7.9696    5.2837  -10.4216 C   0  0  0  0  0  0  0  0  0  0  0  0
   -8.1751    5.2034   -9.0410 C   0  0  0  0  0  0  0  0  0  0  0  0
   -8.5168    3.9780   -8.5027 C   0  0  0  0  0  0  0  0  0  0  0  0
   -8.6568    2.8566   -9.3105 C   0  0  0  0  0  0  0  0  0  0  0  0
   -8.4568    2.9216  -10.6834 C   0  0  0  0  0  0  0  0  0  0  0  0
   -8.9917    1.6773   -8.4617 C   0  0  0  0  0  0  0  0  0  0  0  0
   -9.2197    2.2000   -7.0883 N   0  0  0  0  0  0  0  0  0  0  0  0
   -8.7756    3.6092   -7.0829 C   0  0  0  0  0  0  0  0  0  0  0  0
   -7.0800    5.0379  -14.8853 C   0  0  0  0  0  0  0  0  0  0  0  0
   -8.0722    4.4087  -15.6503 C   0  0  0  0  0  0  0  0  0  0  0  0
   -7.9328    4.3444  -17.0460 C   0  0  0  0  0  0  0  0  0  0  0  0
   -9.2389    3.7091  -17.9648 Cl  0  0  0  0  0  0  0  0  0  0  0  0
   -6.8217    4.9239  -17.6648 C   0  0  0  0  0  0  0  0  0  0  0  0
   -5.8280    5.5080  -16.8821 C   0  0  0  0  0  0  0  0  0  0  0  0
   -5.9373    5.5663  -15.5004 C   0  0  0  0  0  0  0  0  0  0  0  0
   -4.9268    6.3337  -17.7517 C   0  0  1  0  0  0  0  0  0  0  0  0
   -3.4668    6.5611  -17.3441 C   0  0  0  0  0  0  0  0  0  0  0  0
   -2.8713    7.7467  -18.1240 C   0  0  0  0  0  0  0  0  0  0  0  0
   -1.4562    8.0620  -17.6531 C   0  0  0  0  0  0  0  0  0  0  0  0
   -0.6034    6.8886  -17.4870 N   0  0  0  0  0  0  0  0  0  0  0  0
   -1.1899    5.6707  -18.0449 C   0  0  0  0  0  0  0  0  0  0  0  0
   -2.5320    5.3442  -17.3736 C   0  0  0  0  0  0  0  0  0  0  0  0
   -5.3406    5.9082  -19.1935 C   0  0  2  0  0  0  0  0  0  0  0  0
   -4.3637    5.2356  -20.1688 C   0  0  0  0  0  0  0  0  0  0  0  0
   -4.2980    6.1265  -21.4051 C   0  0  0  0  0  0  0  0  0  0  0  0
   -5.5518    6.8763  -21.3927 N   0  0  0  0  0  0  0  0  0  0  0  0
   -5.6964    7.1868  -19.9688 C   0  0  0  0  0  0  0  0  0  0  0  0
   -6.5312    5.0096  -19.0432 N   0  0  0  0  0  0  0  0  0  0  0  0
  1  2  2  0
  2  3  1  0
  3  4  1  0
  4  5  2  0
  5  6  1  0
  6  7  2  0
  7  8  1  0
  8  9  2  0
  8 10  1  0
 10 11  1  0
 11 12  1  0
  2 13  1  0
 13 14  2  0
 14 15  1  0
 15 16  1  0
 15 17  2  0
 17 18  1  0
 18 19  2  0
 18 20  1  0
 20 21  1  1
 21 22  1  0
 22 23  1  0
 23 24  1  0
 24 25  1  0
 25 26  1  0
 20 27  1  0
 27 28  1  6
 28 29  1  0
 29 30  1  0
 30 31  1  0
 27 32  1  0
  9  4  1  0
 19 13  1  0
 26 21  1  0
 31 27  1  0
 12  7  1  0
 32 17  1  0
M  END
>  <smiles>  (2220) 
C32543-P260

>  <fragmenstein_outcome>  (2220) 
acceptable

>  <inchikey>  (2220) 
XCUCWQHBCLYTQW-UHFFFAOYSA-N

>  <fragmenstein_mode>  (2220) 
expansion

>  <HIPPO Pose ID>  (2220) 
26758

>  <Energy>  (2220) 
135.105669

>  <fragmenstein_error>  (2220) 


>  <tags>  (2220) 
{'openbind_xx01zvns2b_c1_fragmenstein', 'fragmenstein_placed'}

>  <ref_pdb>  (2220) 
175

>  <scratch_subdir>  (2220) 
/opt/xchem-fragalysis-2/maxwin/BulkDock/SCRATCH/511028/C32543-P260

>  <alias>  (2220) 
O=C(Nc1ccc2c(c1)CNC2)c1cc(Cl)c2c(c1)[C@@H](C1CCNCC1)[C@@]1(CCNC1)N2

>  <HIPPO Compound ID>  (2220) 
32543

>  <fragmenstein_runtime>  (2220) 
6.102935

$$$$
O=C(Nc1ccc2c(c1)CNC2)[C@@H]1C[C@H](Br)[C@H]2NCN3[C@@H]2[C@H]1CN3C1CNC1
     RDKit          3D

 28 33  0  0  0  0  0  0  0  0999 V2000
   -6.0725    6.4653  -12.8767 O   0  0  0  0  0  0  0  0  0  0  0  0
   -6.6701    5.5445  -13.2885 C   0  0  0  0  0  0  0  0  0  0  0  0
   -7.4490    4.4257  -12.5320 N   0  0  0  0  0  0  0  0  0  0  0  0
   -7.7203    4.2720  -11.1726 C   0  0  0  0  0  0  0  0  0  0  0  0
   -7.5133    5.3329  -10.2761 C   0  0  0  0  0  0  0  0  0  0  0  0
   -7.8609    5.2125   -8.9257 C   0  0  0  0  0  0  0  0  0  0  0  0
   -8.3934    4.0140   -8.4914 C   0  0  0  0  0  0  0  0  0  0  0  0
   -8.5728    2.9501   -9.3701 C   0  0  0  0  0  0  0  0  0  0  0  0
   -8.2641    3.0653  -10.7178 C   0  0  0  0  0  0  0  0  0  0  0  0
   -9.0688    1.7709   -8.5991 C   0  0  0  0  0  0  0  0  0  0  0  0
   -9.5586    2.3255   -7.3110 N   0  0  0  0  0  0  0  0  0  0  0  0
   -8.8259    3.5976   -7.1243 C   0  0  0  0  0  0  0  0  0  0  0  0
   -6.8443    5.4008  -14.8143 C   0  0  2  0  0  0  0  0  0  0  0  0
   -7.9193    4.4069  -15.3868 C   0  0  0  0  0  0  0  0  0  0  0  0
   -8.0342    4.4849  -16.9232 C   0  0  2  0  0  0  0  0  0  0  0  0
   -9.3748    3.3747  -17.6705 Br  0  0  0  0  0  0  0  0  0  0  0  0
   -6.7229    4.3861  -17.6477 C   0  0  1  0  0  0  0  0  0  0  0  0
   -6.4634    4.6920  -19.0627 N   0  0  0  0  0  0  0  0  0  0  0  0
   -5.2085    5.4936  -19.0908 C   0  0  0  0  0  0  0  0  0  0  0  0
   -4.6697    5.3419  -17.7341 N   0  0  0  0  0  0  0  0  0  0  0  0
   -5.8959    5.4247  -17.0119 C   0  0  2  0  0  0  0  0  0  0  0  0
   -5.5211    5.2531  -15.5872 C   0  0  1  0  0  0  0  0  0  0  0  0
   -4.3604    6.2710  -15.6109 C   0  0  0  0  0  0  0  0  0  0  0  0
   -3.9045    6.3860  -17.0820 N   0  0  0  0  0  0  0  0  0  0  0  0
   -2.4815    5.9693  -17.2136 C   0  0  0  0  0  0  0  0  0  0  0  0
   -1.5299    6.9921  -16.5594 C   0  0  0  0  0  0  0  0  0  0  0  0
   -1.5341    7.7881  -17.8102 N   0  0  0  0  0  0  0  0  0  0  0  0
   -1.9080    6.5458  -18.5360 C   0  0  0  0  0  0  0  0  0  0  0  0
  1  2  2  0
  2  3  1  0
  3  4  1  0
  4  5  2  0
  5  6  1  0
  6  7  2  0
  7  8  1  0
  8  9  2  0
  8 10  1  0
 10 11  1  0
 11 12  1  0
 13  2  1  1
 13 14  1  0
 14 15  1  0
 15 16  1  6
 15 17  1  0
 17 18  1  6
 18 19  1  0
 19 20  1  0
 21 20  1  6
 21 22  1  0
 22 23  1  1
 23 24  1  0
 24 25  1  0
 25 26  1  0
 26 27  1  0
 27 28  1  0
  9  4  1  0
 22 13  1  0
 28 25  1  0
 12  7  1  0
 21 17  1  0
 24 20  1  0
M  END
>  <smiles>  (2221) 
C33736-P260

>  <fragmenstein_outcome>  (2221) 
acceptable

>  <inchikey>  (2221) 
LEETZQLKPJJLQV-UHFFFAOYSA-N

>  <fragmenstein_mode>  (2221) 
expansion

>  <HIPPO Pose ID>  (2221) 
26760

>  <Energy>  (2221) 
143.602283

>  <fragmenstein_error>  (2221) 


>  <tags>  (2221) 
{'openbind_xx01zvns2b_c1_fragmenstein', 'fragmenstein_placed'}

>  <ref_pdb>  (2221) 
175

>  <scratch_subdir>  (2221) 
/opt/xchem-fragalysis-2/maxwin/BulkDock/SCRATCH/511028/C33736-P260

>  <alias>  (2221) 
O=C(Nc1ccc2c(c1)CNC2)[C@@H]1C[C@H](Br)[C@H]2NCN3[C@@H]2[C@H]1CN3C1CNC1

>  <HIPPO Compound ID>  (2221) 
33736

>  <fragmenstein_runtime>  (2221) 
7.45547

$$$$
O=C(Nc1ccc2c(c1)CNC2)c1cc(Br)cc2c1CN(C1CNC1)[C@]21CCCN1
     RDKit          3D

 30 35  0  0  0  0  0  0  0  0999 V2000
   -6.4342    6.4723  -13.5204 O   0  0  0  0  0  0  0  0  0  0  0  0
   -6.8772    5.4286  -13.8019 C   0  0  0  0  0  0  0  0  0  0  0  0
   -7.5096    4.3332  -12.9092 N   0  0  0  0  0  0  0  0  0  0  0  0
   -7.8039    4.3340  -11.5472 C   0  0  0  0  0  0  0  0  0  0  0  0
   -7.6504    5.4951  -10.7729 C   0  0  0  0  0  0  0  0  0  0  0  0
   -7.9227    5.4830   -9.4007 C   0  0  0  0  0  0  0  0  0  0  0  0
   -8.3394    4.2963   -8.8260 C   0  0  0  0  0  0  0  0  0  0  0  0
   -8.5127    3.1507   -9.5937 C   0  0  0  0  0  0  0  0  0  0  0  0
   -8.2619    3.1521  -10.9574 C   0  0  0  0  0  0  0  0  0  0  0  0
   -8.9372    2.0226   -8.7135 C   0  0  0  0  0  0  0  0  0  0  0  0
   -9.2150    2.6271   -7.3876 N   0  0  0  0  0  0  0  0  0  0  0  0
   -8.6289    3.9827   -7.3974 C   0  0  0  0  0  0  0  0  0  0  0  0
   -6.9460    5.0638  -15.2444 C   0  0  0  0  0  0  0  0  0  0  0  0
   -8.1312    4.5518  -15.7677 C   0  0  0  0  0  0  0  0  0  0  0  0
   -8.2548    4.3842  -17.1485 C   0  0  0  0  0  0  0  0  0  0  0  0
   -9.9327    3.9362  -17.8256 Br  0  0  0  0  0  0  0  0  0  0  0  0
   -7.2277    4.6976  -18.0342 C   0  0  0  0  0  0  0  0  0  0  0  0
   -6.0633    5.2304  -17.5108 C   0  0  0  0  0  0  0  0  0  0  0  0
   -5.9287    5.4031  -16.1329 C   0  0  0  0  0  0  0  0  0  0  0  0
   -4.6005    6.0066  -15.8444 C   0  0  0  0  0  0  0  0  0  0  0  0
   -3.9545    6.2747  -17.1591 N   0  0  0  0  0  0  0  0  0  0  0  0
   -2.5824    5.7512  -17.1574 C   0  0  0  0  0  0  0  0  0  0  0  0
   -1.7109    6.5115  -16.1196 C   0  0  0  0  0  0  0  0  0  0  0  0
   -0.6470    6.6244  -17.1467 N   0  0  0  0  0  0  0  0  0  0  0  0
   -1.6973    6.5059  -18.1845 C   0  0  0  0  0  0  0  0  0  0  0  0
   -4.8747    5.8185  -18.2299 C   0  0  2  0  0  0  0  0  0  0  0  0
   -5.3042    7.0541  -19.0477 C   0  0  0  0  0  0  0  0  0  0  0  0
   -4.6502    6.8862  -20.4004 C   0  0  0  0  0  0  0  0  0  0  0  0
   -4.6009    5.3886  -20.5440 C   0  0  0  0  0  0  0  0  0  0  0  0
   -4.2878    4.8965  -19.1995 N   0  0  0  0  0  0  0  0  0  0  0  0
  1  2  2  0
  2  3  1  0
  3  4  1  0
  4  5  2  0
  5  6  1  0
  6  7  2  0
  7  8  1  0
  8  9  2  0
  8 10  1  0
 10 11  1  0
 11 12  1  0
  2 13  1  0
 13 14  2  0
 14 15  1  0
 15 16  1  0
 15 17  2  0
 17 18  1  0
 18 19  2  0
 19 20  1  0
 20 21  1  0
 21 22  1  0
 22 23  1  0
 23 24  1  0
 24 25  1  0
 21 26  1  0
 26 27  1  6
 27 28  1  0
 28 29  1  0
 29 30  1  0
  9  4  1  0
 19 13  1  0
 25 22  1  0
 30 26  1  0
 12  7  1  0
 26 18  1  0
M  END
>  <smiles>  (2222) 
C33746-P260

>  <fragmenstein_outcome>  (2222) 
acceptable

>  <inchikey>  (2222) 
VNJSKBYBBDFAMT-UHFFFAOYSA-N

>  <fragmenstein_mode>  (2222) 
expansion

>  <HIPPO Pose ID>  (2222) 
26763

>  <Energy>  (2222) 
55.275583

>  <fragmenstein_error>  (2222) 


>  <tags>  (2222) 
{'openbind_xx01zvns2b_c1_fragmenstein', 'fragmenstein_placed'}

>  <ref_pdb>  (2222) 
175

>  <scratch_subdir>  (2222) 
/opt/xchem-fragalysis-2/maxwin/BulkDock/SCRATCH/511028/C33746-P260

>  <alias>  (2222) 
O=C(Nc1ccc2c(c1)CNC2)c1cc(Br)cc2c1CN(C1CNC1)[C@]21CCCN1

>  <HIPPO Compound ID>  (2222) 
33746

>  <fragmenstein_runtime>  (2222) 
6.846737

$$$$
O=C(Nc1ccc2c(c1)CNC2)c1cc(Br)cc2nn(C3CNC3)cc12
     RDKit          3D

 26 30  0  0  0  0  0  0  0  0999 V2000
   -6.5770    6.5671  -13.6224 O   0  0  0  0  0  0  0  0  0  0  0  0
   -6.9305    5.4807  -13.8631 C   0  0  0  0  0  0  0  0  0  0  0  0
   -7.4728    4.3737  -12.9305 N   0  0  0  0  0  0  0  0  0  0  0  0
   -7.7713    4.4027  -11.5727 C   0  0  0  0  0  0  0  0  0  0  0  0
   -7.6016    5.5748  -10.8204 C   0  0  0  0  0  0  0  0  0  0  0  0
   -7.8631    5.5853   -9.4488 C   0  0  0  0  0  0  0  0  0  0  0  0
   -8.2739    4.4072   -8.8538 C   0  0  0  0  0  0  0  0  0  0  0  0
   -8.4683    3.2528   -9.6012 C   0  0  0  0  0  0  0  0  0  0  0  0
   -8.2374    3.2333  -10.9664 C   0  0  0  0  0  0  0  0  0  0  0  0
   -8.9260    2.1516   -8.7079 C   0  0  0  0  0  0  0  0  0  0  0  0
   -8.8443    2.6812   -7.3199 N   0  0  0  0  0  0  0  0  0  0  0  0
   -8.5647    4.1290   -7.4214 C   0  0  0  0  0  0  0  0  0  0  0  0
   -6.9880    5.0534  -15.2655 C   0  0  0  0  0  0  0  0  0  0  0  0
   -8.1827    4.6078  -15.8474 C   0  0  0  0  0  0  0  0  0  0  0  0
   -8.3071    4.3726  -17.2444 C   0  0  0  0  0  0  0  0  0  0  0  0
  -10.0357    4.0076  -17.8580 Br  0  0  0  0  0  0  0  0  0  0  0  0
   -7.2792    4.5224  -18.1941 C   0  0  0  0  0  0  0  0  0  0  0  0
   -6.0775    4.9557  -17.6234 C   0  0  0  0  0  0  0  0  0  0  0  0
   -4.8972    5.2186  -18.2053 N   0  0  0  0  0  0  0  0  0  0  0  0
   -4.0860    5.5776  -17.1956 N   0  0  0  0  0  0  0  0  0  0  0  0
   -2.6477    5.8141  -17.3524 C   0  0  0  0  0  0  0  0  0  0  0  0
   -2.1544    6.0638  -18.7845 C   0  0  0  0  0  0  0  0  0  0  0  0
   -1.3015    7.1648  -18.2449 N   0  0  0  0  0  0  0  0  0  0  0  0
   -2.2691    7.2880  -17.1270 C   0  0  0  0  0  0  0  0  0  0  0  0
   -4.6910    5.6119  -15.9714 C   0  0  0  0  0  0  0  0  0  0  0  0
   -5.9748    5.2099  -16.2055 C   0  0  0  0  0  0  0  0  0  0  0  0
  1  2  2  0
  2  3  1  0
  3  4  1  0
  4  5  2  0
  5  6  1  0
  6  7  2  0
  7  8  1  0
  8  9  2  0
  8 10  1  0
 10 11  1  0
 11 12  1  0
  2 13  1  0
 13 14  2  0
 14 15  1  0
 15 16  1  0
 15 17  2  0
 17 18  1  0
 18 19  2  0
 19 20  1  0
 20 21  1  0
 21 22  1  0
 22 23  1  0
 23 24  1  0
 20 25  1  0
 25 26  2  0
  9  4  1  0
 26 13  1  0
 12  7  1  0
 26 18  1  0
 24 21  1  0
M  END
>  <smiles>  (2223) 
C237-P260

>  <fragmenstein_outcome>  (2223) 
acceptable

>  <inchikey>  (2223) 
XGVHCDWCHRDRGB-UHFFFAOYSA-N

>  <fragmenstein_mode>  (2223) 
expansion

>  <HIPPO Pose ID>  (2223) 
26768

>  <Energy>  (2223) 
51.978399

>  <fragmenstein_error>  (2223) 


>  <tags>  (2223) 
{'openbind_xx01zvns2b_c1_fragmenstein', 'fragmenstein_placed'}

>  <ref_pdb>  (2223) 
175

>  <scratch_subdir>  (2223) 
/opt/xchem-fragalysis-2/maxwin/BulkDock/SCRATCH/511028/C237-P260

>  <alias>  (2223) 
O=C(Nc1ccc2c(c1)CNC2)c1cc(Br)cc2nn(C3CNC3)cc12

>  <HIPPO Compound ID>  (2223) 
237

>  <fragmenstein_runtime>  (2223) 
2.629394

$$$$
C=N[C@H]1CC2=C(CN(C3CNC3)N2)[C@@H](C(=O)Nc2ccc3c(c2)CNC3)C1
     RDKit          3D

 27 31  0  0  0  0  0  0  0  0999 V2000
  -10.8479    4.3378  -17.9371 C   0  0  0  0  0  0  0  0  0  0  0  0
   -9.9806    3.4326  -17.7016 N   0  0  0  0  0  0  0  0  0  0  0  0
   -8.6758    3.8322  -17.2086 C   0  0  1  0  0  0  0  0  0  0  0  0
   -7.8475    4.5947  -18.2443 C   0  0  0  0  0  0  0  0  0  0  0  0
   -6.6707    5.2253  -17.5894 C   0  0  0  0  0  0  0  0  0  0  0  0
   -6.4434    5.2237  -16.2677 C   0  0  0  0  0  0  0  0  0  0  0  0
   -5.0414    5.6512  -16.0448 C   0  0  0  0  0  0  0  0  0  0  0  0
   -4.4629    5.6157  -17.4233 N   0  0  0  0  0  0  0  0  0  0  0  0
   -3.5219    6.7193  -17.5917 C   0  0  0  0  0  0  0  0  0  0  0  0
   -2.7822    6.6187  -18.9380 C   0  0  0  0  0  0  0  0  0  0  0  0
   -1.5024    6.8525  -18.2080 N   0  0  0  0  0  0  0  0  0  0  0  0
   -2.1595    6.2978  -16.9974 C   0  0  0  0  0  0  0  0  0  0  0  0
   -5.5831    5.6968  -18.2959 N   0  0  0  0  0  0  0  0  0  0  0  0
   -7.3364    4.6299  -15.2347 C   0  0  1  0  0  0  0  0  0  0  0  0
   -7.4164    5.3234  -13.8524 C   0  0  0  0  0  0  0  0  0  0  0  0
   -7.2168    6.4647  -13.6668 O   0  0  0  0  0  0  0  0  0  0  0  0
   -7.7729    4.1737  -12.8390 N   0  0  0  0  0  0  0  0  0  0  0  0
   -8.0358    4.2234  -11.4687 C   0  0  0  0  0  0  0  0  0  0  0  0
   -7.9172    5.3972  -10.7140 C   0  0  0  0  0  0  0  0  0  0  0  0
   -8.1462    5.3805   -9.3289 C   0  0  0  0  0  0  0  0  0  0  0  0
   -8.4993    4.1833   -8.7274 C   0  0  0  0  0  0  0  0  0  0  0  0
   -8.6245    3.0189   -9.4749 C   0  0  0  0  0  0  0  0  0  0  0  0
   -8.3949    3.0204  -10.8407 C   0  0  0  0  0  0  0  0  0  0  0  0
   -8.9803    1.8857   -8.5680 C   0  0  0  0  0  0  0  0  0  0  0  0
   -9.4118    2.5302   -7.2986 N   0  0  0  0  0  0  0  0  0  0  0  0
   -8.7702    3.8641   -7.2941 C   0  0  0  0  0  0  0  0  0  0  0  0
   -8.7435    4.4458  -15.8065 C   0  0  0  0  0  0  0  0  0  0  0  0
  1  2  2  0
  3  2  1  6
  3  4  1  0
  4  5  1  0
  5  6  2  0
  6  7  1  0
  7  8  1  0
  8  9  1  0
  9 10  1  0
 10 11  1  0
 11 12  1  0
  8 13  1  0
  6 14  1  0
 14 15  1  1
 15 16  2  0
 15 17  1  0
 17 18  1  0
 18 19  2  0
 19 20  1  0
 20 21  2  0
 21 22  1  0
 22 23  2  0
 22 24  1  0
 24 25  1  0
 25 26  1  0
 14 27  1  0
 27  3  1  0
 13  5  1  0
 23 18  1  0
 12  9  1  0
 26 21  1  0
M  END
>  <smiles>  (2224) 
C29608-P260

>  <fragmenstein_outcome>  (2224) 
acceptable

>  <inchikey>  (2224) 
NYERIKDQMKXPRU-UHFFFAOYSA-N

>  <fragmenstein_mode>  (2224) 
expansion

>  <HIPPO Pose ID>  (2224) 
26770

>  <Energy>  (2224) 
124.162752

>  <fragmenstein_error>  (2224) 


>  <tags>  (2224) 
{'openbind_xx01zvns2b_c1_fragmenstein', 'fragmenstein_placed'}

>  <ref_pdb>  (2224) 
175

>  <scratch_subdir>  (2224) 
/opt/xchem-fragalysis-2/maxwin/BulkDock/SCRATCH/511028/C29608-P260

>  <alias>  (2224) 
C=N[C@H]1CC2=C(CN(C3CNC3)N2)[C@@H](C(=O)Nc2ccc3c(c2)CNC3)C1

>  <HIPPO Compound ID>  (2224) 
29608

>  <fragmenstein_runtime>  (2224) 
13.625854

$$$$
Cc1ccc(OO)cc1C(=O)Nc1ccc2c(c1)CNC2
     RDKit          3D

 21 23  0  0  0  0  0  0  0  0999 V2000
   -5.0625    5.9170  -15.1724 C   0  0  0  0  0  0  0  0  0  0  0  0
   -6.2432    5.2796  -15.8519 C   0  0  0  0  0  0  0  0  0  0  0  0
   -6.1766    5.0219  -17.2304 C   0  0  0  0  0  0  0  0  0  0  0  0
   -7.2577    4.4498  -17.8985 C   0  0  0  0  0  0  0  0  0  0  0  0
   -8.4085    4.1218  -17.1899 C   0  0  0  0  0  0  0  0  0  0  0  0
   -9.4505    3.5550  -17.8755 O   0  0  0  0  0  0  0  0  0  0  0  0
  -10.4236    4.6179  -18.0693 O   0  0  0  0  0  0  0  0  0  0  0  0
   -8.5034    4.3636  -15.8210 C   0  0  0  0  0  0  0  0  0  0  0  0
   -7.4313    4.9698  -15.1556 C   0  0  0  0  0  0  0  0  0  0  0  0
   -7.6039    5.4110  -13.7401 C   0  0  0  0  0  0  0  0  0  0  0  0
   -7.3889    6.5316  -13.4894 O   0  0  0  0  0  0  0  0  0  0  0  0
   -8.0316    4.2422  -12.8213 N   0  0  0  0  0  0  0  0  0  0  0  0
   -8.1867    4.1886  -11.4331 C   0  0  0  0  0  0  0  0  0  0  0  0
   -8.0319    5.3407  -10.6443 C   0  0  0  0  0  0  0  0  0  0  0  0
   -8.1705    5.2862   -9.2524 C   0  0  0  0  0  0  0  0  0  0  0  0
   -8.4723    4.0692   -8.6694 C   0  0  0  0  0  0  0  0  0  0  0  0
   -8.6315    2.9279   -9.4432 C   0  0  0  0  0  0  0  0  0  0  0  0
   -8.4904    2.9665  -10.8247 C   0  0  0  0  0  0  0  0  0  0  0  0
   -8.9382    1.7676   -8.5578 C   0  0  0  0  0  0  0  0  0  0  0  0
   -9.0774    2.3126   -7.1813 N   0  0  0  0  0  0  0  0  0  0  0  0
   -8.6783    3.7348   -7.2327 C   0  0  0  0  0  0  0  0  0  0  0  0
  1  2  1  0
  2  3  2  0
  3  4  1  0
  4  5  2  0
  5  6  1  0
  6  7  1  0
  5  8  1  0
  8  9  2  0
  9 10  1  0
 10 11  2  0
 10 12  1  0
 12 13  1  0
 13 14  2  0
 14 15  1  0
 15 16  2  0
 16 17  1  0
 17 18  2  0
 17 19  1  0
 19 20  1  0
 20 21  1  0
  9  2  1  0
 18 13  1  0
 21 16  1  0
M  END
>  <smiles>  (2225) 
C33772-P260

>  <fragmenstein_outcome>  (2225) 
acceptable

>  <inchikey>  (2225) 
RXYSVBWUJAJLCL-UHFFFAOYSA-N

>  <fragmenstein_mode>  (2225) 
expansion

>  <HIPPO Pose ID>  (2225) 
26776

>  <Energy>  (2225) 
56.117237

>  <fragmenstein_error>  (2225) 


>  <tags>  (2225) 
{'openbind_xx01zvns2b_c1_fragmenstein', 'fragmenstein_placed'}

>  <ref_pdb>  (2225) 
175

>  <scratch_subdir>  (2225) 
/opt/xchem-fragalysis-2/maxwin/BulkDock/SCRATCH/511028/C33772-P260

>  <alias>  (2225) 
Cc1ccc(OO)cc1C(=O)Nc1ccc2c(c1)CNC2

>  <HIPPO Compound ID>  (2225) 
33772

>  <fragmenstein_runtime>  (2225) 
1.939257

$$$$
O=C(Nc1ccc2c(c1)CNC2)c1cc(Br)cc2nn(C3CNC3)c(Br)c12
     RDKit          3D

 27 31  0  0  0  0  0  0  0  0999 V2000
   -6.8496    6.4967  -14.1411 O   0  0  0  0  0  0  0  0  0  0  0  0
   -7.2147    5.4054  -14.3379 C   0  0  0  0  0  0  0  0  0  0  0  0
   -7.7018    4.3176  -13.3511 N   0  0  0  0  0  0  0  0  0  0  0  0
   -7.9230    4.3762  -11.9752 C   0  0  0  0  0  0  0  0  0  0  0  0
   -8.2705    3.1881  -11.3102 C   0  0  0  0  0  0  0  0  0  0  0  0
   -8.4358    3.1558   -9.9224 C   0  0  0  0  0  0  0  0  0  0  0  0
   -8.2545    4.3295   -9.2201 C   0  0  0  0  0  0  0  0  0  0  0  0
   -7.9553    5.5192   -9.8767 C   0  0  0  0  0  0  0  0  0  0  0  0
   -7.7855    5.5636  -11.2538 C   0  0  0  0  0  0  0  0  0  0  0  0
   -7.8753    6.6181   -8.8724 C   0  0  0  0  0  0  0  0  0  0  0  0
   -7.7795    5.9419   -7.5482 N   0  0  0  0  0  0  0  0  0  0  0  0
   -8.3273    4.5710   -7.7520 C   0  0  0  0  0  0  0  0  0  0  0  0
   -7.2796    4.9191  -15.7279 C   0  0  0  0  0  0  0  0  0  0  0  0
   -8.5309    4.5267  -16.2521 C   0  0  0  0  0  0  0  0  0  0  0  0
   -8.7390    4.2583  -17.6314 C   0  0  0  0  0  0  0  0  0  0  0  0
  -10.5086    3.9944  -18.2257 Br  0  0  0  0  0  0  0  0  0  0  0  0
   -7.7350    4.3056  -18.6071 C   0  0  0  0  0  0  0  0  0  0  0  0
   -6.4816    4.6842  -18.1146 C   0  0  0  0  0  0  0  0  0  0  0  0
   -5.3473    4.8521  -18.8035 N   0  0  0  0  0  0  0  0  0  0  0  0
   -4.4435    5.2512  -17.8987 N   0  0  0  0  0  0  0  0  0  0  0  0
   -3.0723    5.6762  -18.2813 C   0  0  0  0  0  0  0  0  0  0  0  0
   -2.6410    5.3353  -19.7162 C   0  0  0  0  0  0  0  0  0  0  0  0
   -3.1356    6.6601  -20.1630 N   0  0  0  0  0  0  0  0  0  0  0  0
   -3.0563    7.1363  -18.7651 C   0  0  0  0  0  0  0  0  0  0  0  0
   -4.9414    5.3260  -16.6201 C   0  0  0  0  0  0  0  0  0  0  0  0
   -3.9171    5.8113  -15.1061 Br  0  0  0  0  0  0  0  0  0  0  0  0
   -6.2698    4.9856  -16.7086 C   0  0  0  0  0  0  0  0  0  0  0  0
  1  2  2  0
  2  3  1  0
  3  4  1  0
  4  5  2  0
  5  6  1  0
  6  7  2  0
  7  8  1  0
  8  9  2  0
  8 10  1  0
 10 11  1  0
 11 12  1  0
  2 13  1  0
 13 14  2  0
 14 15  1  0
 15 16  1  0
 15 17  2  0
 17 18  1  0
 18 19  2  0
 19 20  1  0
 20 21  1  0
 21 22  1  0
 22 23  1  0
 23 24  1  0
 20 25  1  0
 25 26  1  0
 25 27  2  0
  9  4  1  0
 27 13  1  0
 12  7  1  0
 27 18  1  0
 24 21  1  0
M  END
>  <smiles>  (2226) 
C33795-P261

>  <fragmenstein_outcome>  (2226) 
acceptable

>  <inchikey>  (2226) 
BNPMGSZCUHGGQR-UHFFFAOYSA-N

>  <fragmenstein_mode>  (2226) 
expansion

>  <HIPPO Pose ID>  (2226) 
26787

>  <Energy>  (2226) 
58.068394

>  <fragmenstein_error>  (2226) 


>  <tags>  (2226) 
{'openbind_xx01zvns2b_c1_fragmenstein', 'fragmenstein_placed'}

>  <ref_pdb>  (2226) 
175

>  <scratch_subdir>  (2226) 
/opt/xchem-fragalysis-2/maxwin/BulkDock/SCRATCH/511028/C33795-P261

>  <alias>  (2226) 
O=C(Nc1ccc2c(c1)CNC2)c1cc(Br)cc2nn(C3CNC3)c(Br)c12

>  <HIPPO Compound ID>  (2226) 
37040

>  <fragmenstein_runtime>  (2226) 
3.347294

$$$$
O=C(NCC(F)F)[C@](O)(Nc1ccc2c(c1)CNC2)c1cc(Br)cc2nn(C3CNC3)cc12
     RDKit          3D

 33 37  0  0  0  0  0  0  0  0999 V2000
   -5.2972    6.2861  -12.9672 O   0  0  0  0  0  0  0  0  0  0  0  0
   -5.8711    5.2920  -13.2056 C   0  0  0  0  0  0  0  0  0  0  0  0
   -5.4617    3.8116  -12.9693 N   0  0  0  0  0  0  0  0  0  0  0  0
   -4.3048    3.2513  -12.3048 C   0  0  0  0  0  0  0  0  0  0  0  0
   -4.0730    1.7680  -12.5439 C   0  0  0  0  0  0  0  0  0  0  0  0
   -3.8073    1.5557  -13.8606 F   0  0  0  0  0  0  0  0  0  0  0  0
   -2.9730    1.3672  -11.8538 F   0  0  0  0  0  0  0  0  0  0  0  0
   -7.3187    5.3270  -13.8977 C   0  0  2  0  0  0  0  0  0  0  0  0
   -7.8196    6.6611  -13.8705 O   0  0  0  0  0  0  0  0  0  0  0  0
   -8.2663    4.4705  -13.1677 N   0  0  0  0  0  0  0  0  0  0  0  0
   -8.3129    4.4346  -11.7726 C   0  0  0  0  0  0  0  0  0  0  0  0
   -8.6009    3.2084  -11.1385 C   0  0  0  0  0  0  0  0  0  0  0  0
   -8.5949    3.0700   -9.7465 C   0  0  0  0  0  0  0  0  0  0  0  0
   -8.3266    4.1862   -8.9853 C   0  0  0  0  0  0  0  0  0  0  0  0
   -8.0827    5.4138   -9.5836 C   0  0  0  0  0  0  0  0  0  0  0  0
   -8.0772    5.5548  -10.9639 C   0  0  0  0  0  0  0  0  0  0  0  0
   -7.8193    6.4297   -8.5246 C   0  0  0  0  0  0  0  0  0  0  0  0
   -8.2274    5.7874   -7.2422 N   0  0  0  0  0  0  0  0  0  0  0  0
   -8.2182    4.3211   -7.5073 C   0  0  0  0  0  0  0  0  0  0  0  0
   -7.2782    4.9571  -15.3784 C   0  0  0  0  0  0  0  0  0  0  0  0
   -8.4694    4.5708  -16.0750 C   0  0  0  0  0  0  0  0  0  0  0  0
   -8.5660    4.3205  -17.4806 C   0  0  0  0  0  0  0  0  0  0  0  0
  -10.2721    3.9674  -18.2173 Br  0  0  0  0  0  0  0  0  0  0  0  0
   -7.4923    4.4214  -18.3704 C   0  0  0  0  0  0  0  0  0  0  0  0
   -6.3082    4.8237  -17.7500 C   0  0  0  0  0  0  0  0  0  0  0  0
   -5.1184    5.0629  -18.3183 N   0  0  0  0  0  0  0  0  0  0  0  0
   -4.3387    5.5003  -17.3273 N   0  0  0  0  0  0  0  0  0  0  0  0
   -2.9446    5.9233  -17.5155 C   0  0  0  0  0  0  0  0  0  0  0  0
   -2.4476    5.9638  -18.9736 C   0  0  0  0  0  0  0  0  0  0  0  0
   -1.7793    7.2622  -18.6511 N   0  0  0  0  0  0  0  0  0  0  0  0
   -2.7897    7.4514  -17.5790 C   0  0  0  0  0  0  0  0  0  0  0  0
   -4.9516    5.5130  -16.1015 C   0  0  0  0  0  0  0  0  0  0  0  0
   -6.2332    5.0760  -16.3186 C   0  0  0  0  0  0  0  0  0  0  0  0
  1  2  2  0
  2  3  1  0
  3  4  1  0
  4  5  1  0
  5  6  1  0
  5  7  1  0
  2  8  1  0
  8  9  1  6
  8 10  1  0
 10 11  1  0
 11 12  2  0
 12 13  1  0
 13 14  2  0
 14 15  1  0
 15 16  2  0
 15 17  1  0
 17 18  1  0
 18 19  1  0
  8 20  1  0
 20 21  2  0
 21 22  1  0
 22 23  1  0
 22 24  2  0
 24 25  1  0
 25 26  2  0
 26 27  1  0
 27 28  1  0
 28 29  1  0
 29 30  1  0
 30 31  1  0
 27 32  1  0
 32 33  2  0
 16 11  1  0
 33 20  1  0
 19 14  1  0
 33 25  1  0
 31 28  1  0
M  END
>  <smiles>  (2227) 
C33826-P261

>  <fragmenstein_outcome>  (2227) 
acceptable

>  <inchikey>  (2227) 
UKSRMUURYAVJDV-UHFFFAOYSA-N

>  <fragmenstein_mode>  (2227) 
expansion

>  <HIPPO Pose ID>  (2227) 
26799

>  <Energy>  (2227) 
125.908535

>  <fragmenstein_error>  (2227) 


>  <tags>  (2227) 
{'openbind_xx01zvns2b_c1_fragmenstein', 'fragmenstein_placed'}

>  <ref_pdb>  (2227) 
175

>  <scratch_subdir>  (2227) 
/opt/xchem-fragalysis-2/maxwin/BulkDock/SCRATCH/511028/C33826-P261

>  <alias>  (2227) 
O=C(NCC(F)F)[C@](O)(Nc1ccc2c(c1)CNC2)c1cc(Br)cc2nn(C3CNC3)cc12

>  <HIPPO Compound ID>  (2227) 
33826

>  <fragmenstein_runtime>  (2227) 
6.075057

$$$$
O=C(NC1CCOCC1)[C@@](O)(Nc1ccc2c(c1)CNC2)c1cc(Br)cc2nn(C3CNC3)cc12
     RDKit          3D

 35 40  0  0  0  0  0  0  0  0999 V2000
   -6.3230    7.5245  -13.6068 O   0  0  0  0  0  0  0  0  0  0  0  0
   -7.2856    6.8549  -13.5490 C   0  0  0  0  0  0  0  0  0  0  0  0
   -8.7669    7.2345  -13.2018 N   0  0  0  0  0  0  0  0  0  0  0  0
   -9.3411    8.5010  -12.7617 C   0  0  0  0  0  0  0  0  0  0  0  0
  -10.7303    8.7584  -13.3453 C   0  0  0  0  0  0  0  0  0  0  0  0
  -11.3516   10.0001  -12.7061 C   0  0  0  0  0  0  0  0  0  0  0  0
  -10.3769   10.9424  -12.2459 O   0  0  0  0  0  0  0  0  0  0  0  0
   -9.2346   11.0103  -13.0892 C   0  0  0  0  0  0  0  0  0  0  0  0
   -8.4364    9.7127  -13.0126 C   0  0  0  0  0  0  0  0  0  0  0  0
   -7.2439    5.2406  -13.8024 C   0  0  1  0  0  0  0  0  0  0  0  0
   -6.0392    4.6223  -13.3940 O   0  0  0  0  0  0  0  0  0  0  0  0
   -8.3469    4.5504  -13.0941 N   0  0  0  0  0  0  0  0  0  0  0  0
   -8.3025    4.4110  -11.6845 C   0  0  0  0  0  0  0  0  0  0  0  0
   -8.7702    3.2063  -11.1175 C   0  0  0  0  0  0  0  0  0  0  0  0
   -8.8251    2.9998   -9.7333 C   0  0  0  0  0  0  0  0  0  0  0  0
   -8.4334    4.0274   -8.9062 C   0  0  0  0  0  0  0  0  0  0  0  0
   -8.0013    5.2325   -9.4357 C   0  0  0  0  0  0  0  0  0  0  0  0
   -7.9322    5.4395  -10.8052 C   0  0  0  0  0  0  0  0  0  0  0  0
   -7.7104    6.1776   -8.3207 C   0  0  0  0  0  0  0  0  0  0  0  0
   -7.6468    5.3341   -7.0962 N   0  0  0  0  0  0  0  0  0  0  0  0
   -8.4335    4.1070   -7.4185 C   0  0  0  0  0  0  0  0  0  0  0  0
   -7.3187    4.9944  -15.3099 C   0  0  0  0  0  0  0  0  0  0  0  0
   -8.4829    4.5471  -16.0042 C   0  0  0  0  0  0  0  0  0  0  0  0
   -8.5619    4.3418  -17.4236 C   0  0  0  0  0  0  0  0  0  0  0  0
  -10.2480    3.9299  -18.1853 Br  0  0  0  0  0  0  0  0  0  0  0  0
   -7.4977    4.5409  -18.3155 C   0  0  0  0  0  0  0  0  0  0  0  0
   -6.3474    5.0193  -17.6851 C   0  0  0  0  0  0  0  0  0  0  0  0
   -5.1896    5.4119  -18.2382 N   0  0  0  0  0  0  0  0  0  0  0  0
   -4.4415    5.8476  -17.2116 N   0  0  0  0  0  0  0  0  0  0  0  0
   -3.2132    6.6234  -17.4405 C   0  0  0  0  0  0  0  0  0  0  0  0
   -2.0837    6.3575  -16.4293 C   0  0  0  0  0  0  0  0  0  0  0  0
   -1.1337    6.3847  -17.5681 N   0  0  0  0  0  0  0  0  0  0  0  0
   -2.2550    5.9694  -18.4547 C   0  0  0  0  0  0  0  0  0  0  0  0
   -5.0586    5.7485  -15.9966 C   0  0  0  0  0  0  0  0  0  0  0  0
   -6.2959    5.2182  -16.2529 C   0  0  0  0  0  0  0  0  0  0  0  0
  1  2  2  0
  2  3  1  0
  3  4  1  0
  4  5  1  0
  5  6  1  0
  6  7  1  0
  7  8  1  0
  8  9  1  0
  2 10  1  0
 10 11  1  1
 10 12  1  0
 12 13  1  0
 13 14  2  0
 14 15  1  0
 15 16  2  0
 16 17  1  0
 17 18  2  0
 17 19  1  0
 19 20  1  0
 20 21  1  0
 10 22  1  0
 22 23  2  0
 23 24  1  0
 24 25  1  0
 24 26  2  0
 26 27  1  0
 27 28  2  0
 28 29  1  0
 29 30  1  0
 30 31  1  0
 31 32  1  0
 32 33  1  0
 29 34  1  0
 34 35  2  0
  9  4  1  0
 18 13  1  0
 35 22  1  0
 21 16  1  0
 35 27  1  0
 33 30  1  0
M  END
>  <smiles>  (2228) 
C33834-P261

>  <fragmenstein_outcome>  (2228) 
acceptable

>  <inchikey>  (2228) 
GOOLHOVJRNIKFR-UHFFFAOYSA-N

>  <fragmenstein_mode>  (2228) 
expansion

>  <HIPPO Pose ID>  (2228) 
26802

>  <Energy>  (2228) 
99.656445

>  <fragmenstein_error>  (2228) 


>  <tags>  (2228) 
{'openbind_xx01zvns2b_c1_fragmenstein', 'fragmenstein_placed'}

>  <ref_pdb>  (2228) 
175

>  <scratch_subdir>  (2228) 
/opt/xchem-fragalysis-2/maxwin/BulkDock/SCRATCH/511028/C33834-P261

>  <alias>  (2228) 
O=C(NC1CCOCC1)[C@@](O)(Nc1ccc2c(c1)CNC2)c1cc(Br)cc2nn(C3CNC3)cc12

>  <HIPPO Compound ID>  (2228) 
33834

>  <fragmenstein_runtime>  (2228) 
7.359412

$$$$
O=C(Nc1ccc2c(c1)CNC2)c1cc(Br)cc2c1[C@@]1(CCNC1)N(C1CNC1)N2
     RDKit          3D

 30 35  0  0  0  0  0  0  0  0999 V2000
   -7.0857    6.5606  -13.8912 O   0  0  0  0  0  0  0  0  0  0  0  0
   -7.4269    5.4631  -14.0935 C   0  0  0  0  0  0  0  0  0  0  0  0
   -7.9719    4.3898  -13.1260 N   0  0  0  0  0  0  0  0  0  0  0  0
   -8.1171    4.4104  -11.7386 C   0  0  0  0  0  0  0  0  0  0  0  0
   -7.9374    5.6098  -11.0265 C   0  0  0  0  0  0  0  0  0  0  0  0
   -8.0619    5.6491   -9.6350 C   0  0  0  0  0  0  0  0  0  0  0  0
   -8.3685    4.4750   -8.9768 C   0  0  0  0  0  0  0  0  0  0  0  0
   -8.5488    3.2844   -9.6749 C   0  0  0  0  0  0  0  0  0  0  0  0
   -8.4326    3.2331  -11.0570 C   0  0  0  0  0  0  0  0  0  0  0  0
   -8.8214    2.1910   -8.6925 C   0  0  0  0  0  0  0  0  0  0  0  0
   -9.1662    2.8869   -7.4203 N   0  0  0  0  0  0  0  0  0  0  0  0
   -8.5295    4.2172   -7.5169 C   0  0  0  0  0  0  0  0  0  0  0  0
   -7.3845    4.9854  -15.4946 C   0  0  0  0  0  0  0  0  0  0  0  0
   -8.5900    4.5826  -16.0831 C   0  0  0  0  0  0  0  0  0  0  0  0
   -8.6452    4.3210  -17.4567 C   0  0  0  0  0  0  0  0  0  0  0  0
  -10.3076    3.9707  -18.2640 Br  0  0  0  0  0  0  0  0  0  0  0  0
   -7.5130    4.4125  -18.2547 C   0  0  0  0  0  0  0  0  0  0  0  0
   -6.3271    4.7730  -17.6493 C   0  0  0  0  0  0  0  0  0  0  0  0
   -6.2419    5.0770  -16.2881 C   0  0  0  0  0  0  0  0  0  0  0  0
   -4.7899    5.4506  -16.0053 C   0  0  2  0  0  0  0  0  0  0  0  0
   -4.2128    4.5851  -14.8705 C   0  0  0  0  0  0  0  0  0  0  0  0
   -3.5100    5.5644  -13.9462 C   0  0  0  0  0  0  0  0  0  0  0  0
   -4.2653    6.8147  -14.0475 N   0  0  0  0  0  0  0  0  0  0  0  0
   -4.6113    6.9040  -15.4814 C   0  0  0  0  0  0  0  0  0  0  0  0
   -4.0911    5.1166  -17.2974 N   0  0  0  0  0  0  0  0  0  0  0  0
   -3.0099    6.0091  -17.7550 C   0  0  0  0  0  0  0  0  0  0  0  0
   -2.4481    5.5568  -19.1270 C   0  0  0  0  0  0  0  0  0  0  0  0
   -3.3681    6.5141  -19.7985 N   0  0  0  0  0  0  0  0  0  0  0  0
   -3.5093    7.2538  -18.5298 C   0  0  0  0  0  0  0  0  0  0  0  0
   -5.0711    4.7652  -18.2507 N   0  0  0  0  0  0  0  0  0  0  0  0
  1  2  2  0
  2  3  1  0
  3  4  1  0
  4  5  2  0
  5  6  1  0
  6  7  2  0
  7  8  1  0
  8  9  2  0
  8 10  1  0
 10 11  1  0
 11 12  1  0
  2 13  1  0
 13 14  2  0
 14 15  1  0
 15 16  1  0
 15 17  2  0
 17 18  1  0
 18 19  2  0
 19 20  1  0
 20 21  1  1
 21 22  1  0
 22 23  1  0
 23 24  1  0
 20 25  1  0
 25 26  1  0
 26 27  1  0
 27 28  1  0
 28 29  1  0
 25 30  1  0
  9  4  1  0
 19 13  1  0
 24 20  1  0
 29 26  1  0
 12  7  1  0
 30 18  1  0
M  END
>  <smiles>  (2229) 
C33842-P261

>  <fragmenstein_outcome>  (2229) 
acceptable

>  <inchikey>  (2229) 
ORAVXFKICOXBFN-UHFFFAOYSA-N

>  <fragmenstein_mode>  (2229) 
expansion

>  <HIPPO Pose ID>  (2229) 
26804

>  <Energy>  (2229) 
147.629324

>  <fragmenstein_error>  (2229) 


>  <tags>  (2229) 
{'openbind_xx01zvns2b_c1_fragmenstein', 'fragmenstein_placed'}

>  <ref_pdb>  (2229) 
175

>  <scratch_subdir>  (2229) 
/opt/xchem-fragalysis-2/maxwin/BulkDock/SCRATCH/511028/C33842-P261

>  <alias>  (2229) 
O=C(Nc1ccc2c(c1)CNC2)c1cc(Br)cc2c1[C@@]1(CCNC1)N(C1CNC1)N2

>  <HIPPO Compound ID>  (2229) 
28602

>  <fragmenstein_runtime>  (2229) 
3.653953

$$$$
O=C(Nc1ccc2c(c1)CNC2)[C@@H]1C[C@]2(Cc3nn(C4CNC4)cc31)C[C@H](F)CO2
     RDKit          3D

 30 35  0  0  0  0  0  0  0  0999 V2000
   -7.1510    6.7808  -13.5044 O   0  0  0  0  0  0  0  0  0  0  0  0
   -7.5261    5.7113  -13.8051 C   0  0  0  0  0  0  0  0  0  0  0  0
   -7.9586    4.5082  -12.9180 N   0  0  0  0  0  0  0  0  0  0  0  0
   -8.1030    4.4096  -11.5396 C   0  0  0  0  0  0  0  0  0  0  0  0
   -8.4579    3.1701  -10.9884 C   0  0  0  0  0  0  0  0  0  0  0  0
   -8.5820    3.0133   -9.6057 C   0  0  0  0  0  0  0  0  0  0  0  0
   -8.3662    4.1155   -8.8022 C   0  0  0  0  0  0  0  0  0  0  0  0
   -8.0354    5.3509   -9.3471 C   0  0  0  0  0  0  0  0  0  0  0  0
   -7.8938    5.5168  -10.7141 C   0  0  0  0  0  0  0  0  0  0  0  0
   -7.8322    6.3326   -8.2435 C   0  0  0  0  0  0  0  0  0  0  0  0
   -8.3814    5.6783   -7.0206 N   0  0  0  0  0  0  0  0  0  0  0  0
   -8.3789    4.2173   -7.3166 C   0  0  0  0  0  0  0  0  0  0  0  0
   -7.6828    5.3605  -15.2985 C   0  0  2  0  0  0  0  0  0  0  0  0
   -8.5379    4.1986  -15.7664 C   0  0  0  0  0  0  0  0  0  0  0  0
   -8.7627    4.1537  -17.3029 C   0  0  2  0  0  0  0  0  0  0  0  0
   -7.5202    4.5102  -18.1929 C   0  0  0  0  0  0  0  0  0  0  0  0
   -6.3557    5.0160  -17.4258 C   0  0  0  0  0  0  0  0  0  0  0  0
   -5.1729    5.2725  -17.9909 N   0  0  0  0  0  0  0  0  0  0  0  0
   -4.4404    5.7838  -16.9821 N   0  0  0  0  0  0  0  0  0  0  0  0
   -3.1919    6.5205  -17.2309 C   0  0  0  0  0  0  0  0  0  0  0  0
   -2.0835    6.2672  -16.2008 C   0  0  0  0  0  0  0  0  0  0  0  0
   -1.1114    6.2134  -17.3222 N   0  0  0  0  0  0  0  0  0  0  0  0
   -2.2390    5.8341  -18.2201 C   0  0  0  0  0  0  0  0  0  0  0  0
   -5.1407    5.8683  -15.8046 C   0  0  0  0  0  0  0  0  0  0  0  0
   -6.4064    5.4002  -16.0718 C   0  0  0  0  0  0  0  0  0  0  0  0
  -10.0313    4.8368  -17.8164 C   0  0  0  0  0  0  0  0  0  0  0  0
  -10.9545    3.8236  -18.3394 C   0  0  2  0  0  0  0  0  0  0  0  0
  -11.7450    3.4004  -17.3476 F   0  0  0  0  0  0  0  0  0  0  0  0
   -9.9826    2.7609  -18.6494 C   0  0  0  0  0  0  0  0  0  0  0  0
   -9.1144    2.7977  -17.5327 O   0  0  0  0  0  0  0  0  0  0  0  0
  1  2  2  0
  2  3  1  0
  3  4  1  0
  4  5  2  0
  5  6  1  0
  6  7  2  0
  7  8  1  0
  8  9  2  0
  8 10  1  0
 10 11  1  0
 11 12  1  0
 13  2  1  1
 13 14  1  0
 15 14  1  1
 15 16  1  0
 16 17  1  0
 17 18  2  0
 18 19  1  0
 19 20  1  0
 20 21  1  0
 21 22  1  0
 22 23  1  0
 19 24  1  0
 24 25  2  0
 15 26  1  0
 26 27  1  0
 27 28  1  1
 27 29  1  0
 29 30  1  0
  9  4  1  0
 25 13  1  0
 12  7  1  0
 30 15  1  0
 25 17  1  0
 23 20  1  0
M  END
>  <smiles>  (2230) 
C33843-P261

>  <fragmenstein_outcome>  (2230) 
acceptable

>  <inchikey>  (2230) 
AXIJZDVIDRYESV-UHFFFAOYSA-N

>  <fragmenstein_mode>  (2230) 
expansion

>  <HIPPO Pose ID>  (2230) 
26805

>  <Energy>  (2230) 
111.500555

>  <fragmenstein_error>  (2230) 


>  <tags>  (2230) 
{'openbind_xx01zvns2b_c1_fragmenstein', 'fragmenstein_placed'}

>  <ref_pdb>  (2230) 
175

>  <scratch_subdir>  (2230) 
/opt/xchem-fragalysis-2/maxwin/BulkDock/SCRATCH/511028/C33843-P261

>  <alias>  (2230) 
O=C(Nc1ccc2c(c1)CNC2)[C@@H]1C[C@]2(Cc3nn(C4CNC4)cc31)C[C@H](F)CO2

>  <HIPPO Compound ID>  (2230) 
40393

>  <fragmenstein_runtime>  (2230) 
4.579392

$$$$
O=C(NC[C@H]1CCCO1)[C@@H](Nc1ccc2c(c1)CNC2)c1cc(Br)cc2nn(C3CNC3)cc12
     RDKit          3D

 34 39  0  0  0  0  0  0  0  0999 V2000
   -6.4246    7.5389  -14.0232 O   0  0  0  0  0  0  0  0  0  0  0  0
   -7.3024    6.8528  -13.6667 C   0  0  0  0  0  0  0  0  0  0  0  0
   -8.6425    7.2140  -12.9750 N   0  0  0  0  0  0  0  0  0  0  0  0
   -9.2209    8.5000  -12.6652 C   0  0  0  0  0  0  0  0  0  0  0  0
   -8.3608    9.3100  -11.6772 C   0  0  1  0  0  0  0  0  0  0  0  0
   -9.0253   10.6152  -11.2721 C   0  0  0  0  0  0  0  0  0  0  0  0
   -9.9452   10.1841  -10.1547 C   0  0  0  0  0  0  0  0  0  0  0  0
   -9.1855    9.0443   -9.5064 C   0  0  0  0  0  0  0  0  0  0  0  0
   -8.2007    8.5856  -10.4448 O   0  0  0  0  0  0  0  0  0  0  0  0
   -7.2671    5.2714  -13.8378 C   0  0  1  0  0  0  0  0  0  0  0  0
   -8.3602    4.5659  -13.1070 N   0  0  0  0  0  0  0  0  0  0  0  0
   -8.1975    4.3377  -11.7159 C   0  0  0  0  0  0  0  0  0  0  0  0
   -8.8410    3.2152  -11.1513 C   0  0  0  0  0  0  0  0  0  0  0  0
   -8.8921    2.9928   -9.7705 C   0  0  0  0  0  0  0  0  0  0  0  0
   -8.3068    3.9223   -8.9436 C   0  0  0  0  0  0  0  0  0  0  0  0
   -7.6619    5.0313   -9.4703 C   0  0  0  0  0  0  0  0  0  0  0  0
   -7.5989    5.2526  -10.8391 C   0  0  0  0  0  0  0  0  0  0  0  0
   -7.1434    5.8659   -8.3483 C   0  0  0  0  0  0  0  0  0  0  0  0
   -7.2050    4.9866   -7.1450 N   0  0  0  0  0  0  0  0  0  0  0  0
   -8.2643    3.9831   -7.4563 C   0  0  0  0  0  0  0  0  0  0  0  0
   -7.3033    4.9366  -15.3224 C   0  0  0  0  0  0  0  0  0  0  0  0
   -8.4712    4.5415  -16.0351 C   0  0  0  0  0  0  0  0  0  0  0  0
   -8.5272    4.3213  -17.4520 C   0  0  0  0  0  0  0  0  0  0  0  0
  -10.2114    3.9398  -18.2320 Br  0  0  0  0  0  0  0  0  0  0  0  0
   -7.4361    4.4714  -18.3232 C   0  0  0  0  0  0  0  0  0  0  0  0
   -6.2747    4.8900  -17.6683 C   0  0  0  0  0  0  0  0  0  0  0  0
   -5.0815    5.2248  -18.1888 N   0  0  0  0  0  0  0  0  0  0  0  0
   -4.3633    5.6732  -17.1427 N   0  0  0  0  0  0  0  0  0  0  0  0
   -3.1663    6.5002  -17.3413 C   0  0  0  0  0  0  0  0  0  0  0  0
   -2.1678    5.9084  -18.3521 C   0  0  0  0  0  0  0  0  0  0  0  0
   -1.0778    6.3525  -17.4441 N   0  0  0  0  0  0  0  0  0  0  0  0
   -2.0399    6.2823  -16.3179 C   0  0  0  0  0  0  0  0  0  0  0  0
   -4.9974    5.5576  -15.9382 C   0  0  0  0  0  0  0  0  0  0  0  0
   -6.2470    5.0846  -16.2344 C   0  0  0  0  0  0  0  0  0  0  0  0
  1  2  2  0
  2  3  1  0
  3  4  1  0
  5  4  1  6
  5  6  1  0
  6  7  1  0
  7  8  1  0
  8  9  1  0
  2 10  1  0
 10 11  1  1
 11 12  1  0
 12 13  2  0
 13 14  1  0
 14 15  2  0
 15 16  1  0
 16 17  2  0
 16 18  1  0
 18 19  1  0
 19 20  1  0
 10 21  1  0
 21 22  2  0
 22 23  1  0
 23 24  1  0
 23 25  2  0
 25 26  1  0
 26 27  2  0
 27 28  1  0
 28 29  1  0
 29 30  1  0
 30 31  1  0
 31 32  1  0
 28 33  1  0
 33 34  2  0
  9  5  1  0
 17 12  1  0
 34 21  1  0
 20 15  1  0
 34 26  1  0
 32 29  1  0
M  END
>  <smiles>  (2231) 
C33846-P261

>  <fragmenstein_outcome>  (2231) 
acceptable

>  <inchikey>  (2231) 
UHYLSOUKJDOSTN-UHFFFAOYSA-N

>  <fragmenstein_mode>  (2231) 
expansion

>  <HIPPO Pose ID>  (2231) 
26806

>  <Energy>  (2231) 
116.147592

>  <fragmenstein_error>  (2231) 


>  <tags>  (2231) 
{'openbind_xx01zvns2b_c1_fragmenstein', 'fragmenstein_placed'}

>  <ref_pdb>  (2231) 
175

>  <scratch_subdir>  (2231) 
/opt/xchem-fragalysis-2/maxwin/BulkDock/SCRATCH/511028/C33846-P261

>  <alias>  (2231) 
O=C(NC[C@H]1CCCO1)[C@@H](Nc1ccc2c(c1)CNC2)c1cc(Br)cc2nn(C3CNC3)cc12

>  <HIPPO Compound ID>  (2231) 
31111

>  <fragmenstein_runtime>  (2231) 
7.934707

$$$$
[O-][n+]1c2cc(Br)c3c(c2cn1C1CNC1)[C@H](Nc1ccc2c(c1)CNC2)N=C3
     RDKit          3D

 28 33  0  0  0  0  0  0  0  0999 V2000
   -4.4479    4.9588  -19.6330 O   0  0  0  0  0  0  0  0  0  0  0  0
   -4.8446    4.9084  -18.4444 N   0  0  0  0  0  0  0  0  0  0  0  0
   -6.0535    4.6548  -17.9125 C   0  0  0  0  0  0  0  0  0  0  0  0
   -7.2439    4.3325  -18.5599 C   0  0  0  0  0  0  0  0  0  0  0  0
   -8.3244    4.3375  -17.6701 C   0  0  0  0  0  0  0  0  0  0  0  0
  -10.0560    4.0297  -18.3700 Br  0  0  0  0  0  0  0  0  0  0  0  0
   -8.1428    4.6319  -16.2904 C   0  0  0  0  0  0  0  0  0  0  0  0
   -6.9635    4.8225  -15.5632 C   0  0  0  0  0  0  0  0  0  0  0  0
   -5.8941    4.8698  -16.4427 C   0  0  0  0  0  0  0  0  0  0  0  0
   -4.6020    5.2680  -16.1171 C   0  0  0  0  0  0  0  0  0  0  0  0
   -3.9652    5.3534  -17.3424 N   0  0  0  0  0  0  0  0  0  0  0  0
   -2.6187    5.8836  -17.6058 C   0  0  0  0  0  0  0  0  0  0  0  0
   -2.6470    7.1784  -18.4453 C   0  0  0  0  0  0  0  0  0  0  0  0
   -1.5480    7.7022  -17.5932 N   0  0  0  0  0  0  0  0  0  0  0  0
   -2.0035    6.7835  -16.5198 C   0  0  0  0  0  0  0  0  0  0  0  0
   -7.3231    5.1986  -14.1502 C   0  0  2  0  0  0  0  0  0  0  0  0
   -7.2301    4.0525  -13.2735 N   0  0  0  0  0  0  0  0  0  0  0  0
   -7.6291    4.1929  -11.9262 C   0  0  0  0  0  0  0  0  0  0  0  0
   -7.8641    3.0088  -11.1941 C   0  0  0  0  0  0  0  0  0  0  0  0
   -8.1446    3.0188   -9.8245 C   0  0  0  0  0  0  0  0  0  0  0  0
   -8.1551    4.2332   -9.1765 C   0  0  0  0  0  0  0  0  0  0  0  0
   -7.9309    5.4147   -9.8705 C   0  0  0  0  0  0  0  0  0  0  0  0
   -7.6619    5.4129  -11.2341 C   0  0  0  0  0  0  0  0  0  0  0  0
   -8.0308    6.5585   -8.9200 C   0  0  0  0  0  0  0  0  0  0  0  0
   -7.9679    5.9534   -7.5576 N   0  0  0  0  0  0  0  0  0  0  0  0
   -8.3634    4.5264   -7.7346 C   0  0  0  0  0  0  0  0  0  0  0  0
   -8.7269    5.6604  -14.2601 N   0  0  0  0  0  0  0  0  0  0  0  0
   -9.1196    5.2422  -15.4247 C   0  0  0  0  0  0  0  0  0  0  0  0
  1  2  1  0
  2  3  2  0
  3  4  1  0
  4  5  2  0
  5  6  1  0
  5  7  1  0
  7  8  2  0
  8  9  1  0
  9 10  2  0
 10 11  1  0
 11 12  1  0
 12 13  1  0
 13 14  1  0
 14 15  1  0
  8 16  1  0
 16 17  1  1
 17 18  1  0
 18 19  2  0
 19 20  1  0
 20 21  2  0
 21 22  1  0
 22 23  2  0
 22 24  1  0
 24 25  1  0
 25 26  1  0
 16 27  1  0
 27 28  2  0
 11  2  1  0
 15 12  1  0
 23 18  1  0
  9  3  1  0
 26 21  1  0
 28  7  1  0
M  CHG  2   1  -1   2   1
M  END
>  <smiles>  (2232) 
C33858-P261

>  <fragmenstein_outcome>  (2232) 
acceptable

>  <inchikey>  (2232) 
HGWIMLPNGHLAGI-UHFFFAOYSA-N

>  <fragmenstein_mode>  (2232) 
expansion

>  <HIPPO Pose ID>  (2232) 
26814

>  <Energy>  (2232) 
62.189454

>  <fragmenstein_error>  (2232) 


>  <tags>  (2232) 
{'openbind_xx01zvns2b_c1_fragmenstein', 'fragmenstein_placed'}

>  <ref_pdb>  (2232) 
175

>  <scratch_subdir>  (2232) 
/opt/xchem-fragalysis-2/maxwin/BulkDock/SCRATCH/511028/C33858-P261

>  <alias>  (2232) 
[O-][n+]1c2cc(Br)c3c(c2cn1C1CNC1)[C@H](Nc1ccc2c(c1)CNC2)N=C3

>  <HIPPO Compound ID>  (2232) 
35221

>  <fragmenstein_runtime>  (2232) 
2.389257

$$$$
O=C(Nc1ccc2c(c1)CNC2)c1cc(Br)cc2c1cn(C1CNC1)[n+]2[O-]
     RDKit          3D

 27 31  0  0  0  0  0  0  0  0999 V2000
   -7.1208    6.2653  -13.7510 O   0  0  0  0  0  0  0  0  0  0  0  0
   -7.6026    5.2182  -13.9414 C   0  0  0  0  0  0  0  0  0  0  0  0
   -8.1276    4.1607  -12.9440 N   0  0  0  0  0  0  0  0  0  0  0  0
   -8.2524    4.2081  -11.5544 C   0  0  0  0  0  0  0  0  0  0  0  0
   -7.9655    5.3842  -10.8432 C   0  0  0  0  0  0  0  0  0  0  0  0
   -8.0309    5.4147   -9.4454 C   0  0  0  0  0  0  0  0  0  0  0  0
   -8.3686    4.2522   -8.7775 C   0  0  0  0  0  0  0  0  0  0  0  0
   -8.6565    3.0878   -9.4744 C   0  0  0  0  0  0  0  0  0  0  0  0
   -8.6189    3.0529  -10.8623 C   0  0  0  0  0  0  0  0  0  0  0  0
   -8.9235    1.9864   -8.5040 C   0  0  0  0  0  0  0  0  0  0  0  0
   -8.9554    2.6136   -7.1569 N   0  0  0  0  0  0  0  0  0  0  0  0
   -8.4600    3.9960   -7.3130 C   0  0  0  0  0  0  0  0  0  0  0  0
   -7.6765    4.7542  -15.3407 C   0  0  0  0  0  0  0  0  0  0  0  0
   -8.8789    4.3988  -15.9813 C   0  0  0  0  0  0  0  0  0  0  0  0
   -9.0011    4.2158  -17.4036 C   0  0  0  0  0  0  0  0  0  0  0  0
  -10.7303    4.0165  -18.1323 Br  0  0  0  0  0  0  0  0  0  0  0  0
   -7.9528    4.3094  -18.3370 C   0  0  0  0  0  0  0  0  0  0  0  0
   -6.7691    4.6317  -17.7027 C   0  0  0  0  0  0  0  0  0  0  0  0
   -6.6193    4.8517  -16.2496 C   0  0  0  0  0  0  0  0  0  0  0  0
   -5.3118    5.1926  -15.9170 C   0  0  0  0  0  0  0  0  0  0  0  0
   -4.6594    5.2250  -17.1259 N   0  0  0  0  0  0  0  0  0  0  0  0
   -3.2723    5.6377  -17.3757 C   0  0  0  0  0  0  0  0  0  0  0  0
   -2.5098    6.2319  -16.1870 C   0  0  0  0  0  0  0  0  0  0  0  0
   -2.9467    7.5848  -16.5967 N   0  0  0  0  0  0  0  0  0  0  0  0
   -3.2002    7.0630  -17.9604 C   0  0  0  0  0  0  0  0  0  0  0  0
   -5.5525    4.8514  -18.2313 N   0  0  0  0  0  0  0  0  0  0  0  0
   -5.1226    4.8432  -19.4084 O   0  0  0  0  0  0  0  0  0  0  0  0
  1  2  2  0
  2  3  1  0
  3  4  1  0
  4  5  2  0
  5  6  1  0
  6  7  2  0
  7  8  1  0
  8  9  2  0
  8 10  1  0
 10 11  1  0
 11 12  1  0
  2 13  1  0
 13 14  2  0
 14 15  1  0
 15 16  1  0
 15 17  2  0
 17 18  1  0
 18 19  1  0
 19 20  2  0
 20 21  1  0
 21 22  1  0
 22 23  1  0
 23 24  1  0
 24 25  1  0
 21 26  1  0
 26 27  1  0
  9  4  1  0
 19 13  1  0
 25 22  1  0
 12  7  1  0
 26 18  2  0
M  CHG  2  26   1  27  -1
M  END
>  <smiles>  (2233) 
C33828-P261

>  <fragmenstein_outcome>  (2233) 
acceptable

>  <inchikey>  (2233) 
RDGPABGENMVFQK-UHFFFAOYSA-N

>  <fragmenstein_mode>  (2233) 
expansion

>  <HIPPO Pose ID>  (2233) 
26818

>  <Energy>  (2233) 
93.755723

>  <fragmenstein_error>  (2233) 


>  <tags>  (2233) 
{'openbind_xx01zvns2b_c1_fragmenstein', 'fragmenstein_placed'}

>  <ref_pdb>  (2233) 
175

>  <scratch_subdir>  (2233) 
/opt/xchem-fragalysis-2/maxwin/BulkDock/SCRATCH/511028/C33828-P261

>  <alias>  (2233) 
O=C(Nc1ccc2c(c1)CNC2)c1cc(Br)cc2c1cn(C1CNC1)[n+]2[O-]

>  <HIPPO Compound ID>  (2233) 
33828

>  <fragmenstein_runtime>  (2233) 
10.739021

$$$$
O=C1NCc2cc(NC(=O)c3cc(Br)cc4c3cn(C3CNC3)[n+]4[O-])ccc21
     RDKit          3D

 28 32  0  0  0  0  0  0  0  0999 V2000
   -8.3999    4.9522   -6.6436 O   0  0  0  0  0  0  0  0  0  0  0  0
   -8.5418    4.1423   -7.5396 C   0  0  0  0  0  0  0  0  0  0  0  0
   -8.8654    2.8090   -7.4196 N   0  0  0  0  0  0  0  0  0  0  0  0
   -8.7995    2.1099   -8.6847 C   0  0  0  0  0  0  0  0  0  0  0  0
   -8.5516    3.2140   -9.6614 C   0  0  0  0  0  0  0  0  0  0  0  0
   -8.4425    3.1809  -11.0455 C   0  0  0  0  0  0  0  0  0  0  0  0
   -8.1081    4.3625  -11.7211 C   0  0  0  0  0  0  0  0  0  0  0  0
   -7.9516    4.3358  -13.1088 N   0  0  0  0  0  0  0  0  0  0  0  0
   -7.3025    5.3649  -14.0680 C   0  0  0  0  0  0  0  0  0  0  0  0
   -6.8674    6.4286  -13.8557 O   0  0  0  0  0  0  0  0  0  0  0  0
   -7.3159    4.8972  -15.4700 C   0  0  0  0  0  0  0  0  0  0  0  0
   -8.5110    4.4869  -16.1069 C   0  0  0  0  0  0  0  0  0  0  0  0
   -8.6173    4.2614  -17.5209 C   0  0  0  0  0  0  0  0  0  0  0  0
  -10.3438    3.9583  -18.2324 Br  0  0  0  0  0  0  0  0  0  0  0  0
   -7.5625    4.3730  -18.4468 C   0  0  0  0  0  0  0  0  0  0  0  0
   -6.3912    4.7771  -17.8258 C   0  0  0  0  0  0  0  0  0  0  0  0
   -6.2511    5.0413  -16.3767 C   0  0  0  0  0  0  0  0  0  0  0  0
   -4.9714    5.5058  -16.0744 C   0  0  0  0  0  0  0  0  0  0  0  0
   -4.3183    5.5643  -17.2939 N   0  0  0  0  0  0  0  0  0  0  0  0
   -3.0463    6.2946  -17.4620 C   0  0  0  0  0  0  0  0  0  0  0  0
   -3.1680    7.5131  -18.3980 C   0  0  0  0  0  0  0  0  0  0  0  0
   -1.8546    7.1498  -18.9691 N   0  0  0  0  0  0  0  0  0  0  0  0
   -2.0582    5.7542  -18.5098 C   0  0  0  0  0  0  0  0  0  0  0  0
   -5.1953    5.0679  -18.3792 N   0  0  0  0  0  0  0  0  0  0  0  0
   -4.8108    5.0544  -19.5723 O   0  0  0  0  0  0  0  0  0  0  0  0
   -7.9208    5.5597  -11.0040 C   0  0  0  0  0  0  0  0  0  0  0  0
   -8.0637    5.5951   -9.6128 C   0  0  0  0  0  0  0  0  0  0  0  0
   -8.3741    4.4113   -8.9739 C   0  0  0  0  0  0  0  0  0  0  0  0
  1  2  2  0
  2  3  1  0
  3  4  1  0
  4  5  1  0
  5  6  2  0
  6  7  1  0
  7  8  1  0
  8  9  1  0
  9 10  2  0
  9 11  1  0
 11 12  2  0
 12 13  1  0
 13 14  1  0
 13 15  2  0
 15 16  1  0
 16 17  1  0
 17 18  2  0
 18 19  1  0
 19 20  1  0
 20 21  1  0
 21 22  1  0
 22 23  1  0
 19 24  1  0
 24 25  1  0
  7 26  2  0
 26 27  1  0
 27 28  2  0
 28  2  1  0
 28  5  1  0
 17 11  1  0
 23 20  1  0
 24 16  2  0
M  CHG  2  24   1  25  -1
M  END
>  <smiles>  (2234) 
C33874-P261

>  <fragmenstein_outcome>  (2234) 
acceptable

>  <inchikey>  (2234) 
VHMRANIFAPNBJX-UHFFFAOYSA-N

>  <fragmenstein_mode>  (2234) 
expansion

>  <HIPPO Pose ID>  (2234) 
26821

>  <Energy>  (2234) 
76.338677

>  <fragmenstein_error>  (2234) 


>  <tags>  (2234) 
{'openbind_xx01zvns2b_c1_fragmenstein', 'fragmenstein_placed'}

>  <ref_pdb>  (2234) 
175

>  <scratch_subdir>  (2234) 
/opt/xchem-fragalysis-2/maxwin/BulkDock/SCRATCH/511028/C33874-P261

>  <alias>  (2234) 
O=C1NCc2cc(NC(=O)c3cc(Br)cc4c3cn(C3CNC3)[n+]4[O-])ccc21

>  <HIPPO Compound ID>  (2234) 
33874

>  <fragmenstein_runtime>  (2234) 
3.238315

$$$$
CNCc1c2cc(Br)cc(C(=O)Nc3ccc4c(c3)CNC4)c2cn1C1CNC1
     RDKit          3D

 29 33  0  0  0  0  0  0  0  0999 V2000
   -4.1906    6.1754  -21.5095 C   0  0  0  0  0  0  0  0  0  0  0  0
   -4.6464    6.3198  -20.1332 N   0  0  0  0  0  0  0  0  0  0  0  0
   -4.7984    4.9998  -19.5283 C   0  0  0  0  0  0  0  0  0  0  0  0
   -5.2098    5.1023  -18.0957 C   0  0  0  0  0  0  0  0  0  0  0  0
   -6.4497    4.8188  -17.5422 C   0  0  0  0  0  0  0  0  0  0  0  0
   -7.5906    4.4373  -18.2403 C   0  0  0  0  0  0  0  0  0  0  0  0
   -8.6898    4.2837  -17.3678 C   0  0  0  0  0  0  0  0  0  0  0  0
  -10.3701    3.9738  -18.1834 Br  0  0  0  0  0  0  0  0  0  0  0  0
   -8.6490    4.4754  -15.9454 C   0  0  0  0  0  0  0  0  0  0  0  0
   -7.4821    4.8805  -15.2626 C   0  0  0  0  0  0  0  0  0  0  0  0
   -7.4829    5.3375  -13.8606 C   0  0  0  0  0  0  0  0  0  0  0  0
   -7.1081    6.4244  -13.6493 O   0  0  0  0  0  0  0  0  0  0  0  0
   -8.0454    4.2647  -12.8962 N   0  0  0  0  0  0  0  0  0  0  0  0
   -8.1707    4.2718  -11.5053 C   0  0  0  0  0  0  0  0  0  0  0  0
   -7.8837    5.4304  -10.7655 C   0  0  0  0  0  0  0  0  0  0  0  0
   -7.9732    5.4361   -9.3692 C   0  0  0  0  0  0  0  0  0  0  0  0
   -8.3322    4.2647   -8.7296 C   0  0  0  0  0  0  0  0  0  0  0  0
   -8.6165    3.1154   -9.4531 C   0  0  0  0  0  0  0  0  0  0  0  0
   -8.5577    3.1053  -10.8419 C   0  0  0  0  0  0  0  0  0  0  0  0
   -8.9131    2.0005   -8.5069 C   0  0  0  0  0  0  0  0  0  0  0  0
   -8.9465    2.5994   -7.1457 N   0  0  0  0  0  0  0  0  0  0  0  0
   -8.4575    3.9870   -7.2719 C   0  0  0  0  0  0  0  0  0  0  0  0
   -6.4002    5.0294  -16.1365 C   0  0  0  0  0  0  0  0  0  0  0  0
   -5.1271    5.4280  -15.8403 C   0  0  0  0  0  0  0  0  0  0  0  0
   -4.4072    5.4836  -17.0228 N   0  0  0  0  0  0  0  0  0  0  0  0
   -3.0001    5.9733  -16.9359 C   0  0  0  0  0  0  0  0  0  0  0  0
   -2.9078    7.4994  -17.1414 C   0  0  0  0  0  0  0  0  0  0  0  0
   -2.3649    7.2590  -18.4936 N   0  0  0  0  0  0  0  0  0  0  0  0
   -2.0217    5.8780  -18.1064 C   0  0  0  0  0  0  0  0  0  0  0  0
  1  2  1  0
  2  3  1  0
  3  4  1  0
  4  5  2  0
  5  6  1  0
  6  7  2  0
  7  8  1  0
  7  9  1  0
  9 10  2  0
 10 11  1  0
 11 12  2  0
 11 13  1  0
 13 14  1  0
 14 15  2  0
 15 16  1  0
 16 17  2  0
 17 18  1  0
 18 19  2  0
 18 20  1  0
 20 21  1  0
 21 22  1  0
 10 23  1  0
 23 24  2  0
 24 25  1  0
 25 26  1  0
 26 27  1  0
 27 28  1  0
 28 29  1  0
 25  4  1  0
 29 26  1  0
 23  5  1  0
 19 14  1  0
 22 17  1  0
M  END
>  <smiles>  (2235) 
C33875-P261

>  <fragmenstein_outcome>  (2235) 
acceptable

>  <inchikey>  (2235) 
DTHSRFMJGIQHPN-UHFFFAOYSA-N

>  <fragmenstein_mode>  (2235) 
expansion

>  <HIPPO Pose ID>  (2235) 
26823

>  <Energy>  (2235) 
63.41752

>  <fragmenstein_error>  (2235) 


>  <tags>  (2235) 
{'openbind_xx01zvns2b_c1_fragmenstein', 'fragmenstein_placed'}

>  <ref_pdb>  (2235) 
175

>  <scratch_subdir>  (2235) 
/opt/xchem-fragalysis-2/maxwin/BulkDock/SCRATCH/511028/C33875-P261

>  <alias>  (2235) 
CNCc1c2cc(Br)cc(C(=O)Nc3ccc4c(c3)CNC4)c2cn1C1CNC1

>  <HIPPO Compound ID>  (2235) 
33875

>  <fragmenstein_runtime>  (2235) 
7.201612

$$$$
O=C(Nc1ccc2c(c1)CNC2)c1cc(Br)cc2c3n(cc12)[C@H]1CCN[C@H]1NC3
     RDKit          3D

 29 34  0  0  0  0  0  0  0  0999 V2000
   -6.1739    3.0465  -13.8628 O   0  0  0  0  0  0  0  0  0  0  0  0
   -6.8392    3.9860  -14.0585 C   0  0  0  0  0  0  0  0  0  0  0  0
   -7.6345    4.8756  -13.0717 N   0  0  0  0  0  0  0  0  0  0  0  0
   -7.8459    4.7413  -11.6952 C   0  0  0  0  0  0  0  0  0  0  0  0
   -8.0794    5.9049  -10.9432 C   0  0  0  0  0  0  0  0  0  0  0  0
   -8.3087    5.8388   -9.5635 C   0  0  0  0  0  0  0  0  0  0  0  0
   -8.3928    4.5931   -8.9708 C   0  0  0  0  0  0  0  0  0  0  0  0
   -8.2416    3.4321   -9.7212 C   0  0  0  0  0  0  0  0  0  0  0  0
   -7.9142    3.4854  -11.0751 C   0  0  0  0  0  0  0  0  0  0  0  0
   -8.5046    2.2530   -8.8359 C   0  0  0  0  0  0  0  0  0  0  0  0
   -9.0081    2.8130   -7.5483 N   0  0  0  0  0  0  0  0  0  0  0  0
   -8.6231    4.2326   -7.5424 C   0  0  0  0  0  0  0  0  0  0  0  0
   -7.0889    4.3994  -15.4565 C   0  0  0  0  0  0  0  0  0  0  0  0
   -8.3806    4.1821  -16.0118 C   0  0  0  0  0  0  0  0  0  0  0  0
   -8.6532    4.2292  -17.4182 C   0  0  0  0  0  0  0  0  0  0  0  0
  -10.4146    3.9824  -18.0486 Br  0  0  0  0  0  0  0  0  0  0  0  0
   -7.6989    4.4744  -18.4134 C   0  0  0  0  0  0  0  0  0  0  0  0
   -6.4770    4.7632  -17.8450 C   0  0  0  0  0  0  0  0  0  0  0  0
   -5.3559    5.0814  -18.5560 C   0  0  0  0  0  0  0  0  0  0  0  0
   -4.4327    5.5011  -17.6271 N   0  0  0  0  0  0  0  0  0  0  0  0
   -4.8570    5.2024  -16.3431 C   0  0  0  0  0  0  0  0  0  0  0  0
   -6.1593    4.7558  -16.4471 C   0  0  0  0  0  0  0  0  0  0  0  0
   -3.3059    6.3088  -18.0554 C   0  0  1  0  0  0  0  0  0  0  0  0
   -2.0031    5.5443  -18.1782 C   0  0  0  0  0  0  0  0  0  0  0  0
   -1.2556    6.2886  -19.2632 C   0  0  0  0  0  0  0  0  0  0  0  0
   -2.2778    6.6326  -20.2464 N   0  0  0  0  0  0  0  0  0  0  0  0
   -3.4899    6.9187  -19.4885 C   0  0  1  0  0  0  0  0  0  0  0  0
   -4.5835    6.4796  -20.3337 N   0  0  0  0  0  0  0  0  0  0  0  0
   -5.0240    5.1310  -19.9990 C   0  0  0  0  0  0  0  0  0  0  0  0
  1  2  2  0
  2  3  1  0
  3  4  1  0
  4  5  2  0
  5  6  1  0
  6  7  2  0
  7  8  1  0
  8  9  2  0
  8 10  1  0
 10 11  1  0
 11 12  1  0
  2 13  1  0
 13 14  2  0
 14 15  1  0
 15 16  1  0
 15 17  2  0
 17 18  1  0
 18 19  2  0
 19 20  1  0
 20 21  1  0
 21 22  2  0
 20 23  1  0
 23 24  1  6
 24 25  1  0
 25 26  1  0
 27 26  1  6
 27 28  1  0
 28 29  1  0
  9  4  1  0
 22 13  1  0
 27 23  1  0
 12  7  1  0
 22 18  1  0
 29 19  1  0
M  END
>  <smiles>  (2236) 
C33880-P261

>  <fragmenstein_outcome>  (2236) 
acceptable

>  <inchikey>  (2236) 
KZEVXNGNZJUDJX-UHFFFAOYSA-N

>  <fragmenstein_mode>  (2236) 
expansion

>  <HIPPO Pose ID>  (2236) 
26825

>  <Energy>  (2236) 
32.689191

>  <fragmenstein_error>  (2236) 


>  <tags>  (2236) 
{'openbind_xx01zvns2b_c1_fragmenstein', 'fragmenstein_placed'}

>  <ref_pdb>  (2236) 
175

>  <scratch_subdir>  (2236) 
/opt/xchem-fragalysis-2/maxwin/BulkDock/SCRATCH/511028/C33880-P261

>  <alias>  (2236) 
O=C(Nc1ccc2c(c1)CNC2)c1cc(Br)cc2c3n(cc12)[C@H]1CCN[C@H]1NC3

>  <HIPPO Compound ID>  (2236) 
32923

>  <fragmenstein_runtime>  (2236) 
6.59969

$$$$
CNCc1c2cc(Br)cc(C(=O)Nc3cc(Br)c4c(c3)CNC4)c2cn1C1CNC1
     RDKit          3D

 30 34  0  0  0  0  0  0  0  0999 V2000
   -4.2656    6.2248  -21.5245 C   0  0  0  0  0  0  0  0  0  0  0  0
   -4.7768    6.3903  -20.1673 N   0  0  0  0  0  0  0  0  0  0  0  0
   -4.9086    5.0781  -19.5384 C   0  0  0  0  0  0  0  0  0  0  0  0
   -5.3551    5.1847  -18.1148 C   0  0  0  0  0  0  0  0  0  0  0  0
   -6.5658    4.8432  -17.5406 C   0  0  0  0  0  0  0  0  0  0  0  0
   -7.6989    4.4263  -18.2249 C   0  0  0  0  0  0  0  0  0  0  0  0
   -8.7822    4.2616  -17.3365 C   0  0  0  0  0  0  0  0  0  0  0  0
  -10.4732    3.9772  -18.1322 Br  0  0  0  0  0  0  0  0  0  0  0  0
   -8.7248    4.4455  -15.9135 C   0  0  0  0  0  0  0  0  0  0  0  0
   -7.5614    4.8777  -15.2422 C   0  0  0  0  0  0  0  0  0  0  0  0
   -7.5620    5.3302  -13.8378 C   0  0  0  0  0  0  0  0  0  0  0  0
   -7.1997    6.4208  -13.6242 O   0  0  0  0  0  0  0  0  0  0  0  0
   -8.1101    4.2479  -12.8748 N   0  0  0  0  0  0  0  0  0  0  0  0
   -8.2329    4.2498  -11.4828 C   0  0  0  0  0  0  0  0  0  0  0  0
   -7.9511    5.4050  -10.7377 C   0  0  0  0  0  0  0  0  0  0  0  0
   -8.0421    5.3936   -9.3416 C   0  0  0  0  0  0  0  0  0  0  0  0
   -7.6494    6.9648   -8.3681 Br  0  0  0  0  0  0  0  0  0  0  0  0
   -8.4008    4.2231   -8.7005 C   0  0  0  0  0  0  0  0  0  0  0  0
   -8.6776    3.0774   -9.4364 C   0  0  0  0  0  0  0  0  0  0  0  0
   -8.6140    3.0777  -10.8255 C   0  0  0  0  0  0  0  0  0  0  0  0
   -8.9603    1.9491   -8.5002 C   0  0  0  0  0  0  0  0  0  0  0  0
   -9.0852    2.5559   -7.1517 N   0  0  0  0  0  0  0  0  0  0  0  0
   -8.5240    3.9188   -7.2466 C   0  0  0  0  0  0  0  0  0  0  0  0
   -6.5002    5.0645  -16.1337 C   0  0  0  0  0  0  0  0  0  0  0  0
   -5.2536    5.5623  -15.8658 C   0  0  0  0  0  0  0  0  0  0  0  0
   -4.5713    5.6434  -17.0625 N   0  0  0  0  0  0  0  0  0  0  0  0
   -3.3229    6.4290  -17.1828 C   0  0  0  0  0  0  0  0  0  0  0  0
   -2.1969    5.8218  -18.0350 C   0  0  0  0  0  0  0  0  0  0  0  0
   -1.2280    6.2589  -16.9953 N   0  0  0  0  0  0  0  0  0  0  0  0
   -2.3362    6.2246  -16.0131 C   0  0  0  0  0  0  0  0  0  0  0  0
  1  2  1  0
  2  3  1  0
  3  4  1  0
  4  5  2  0
  5  6  1  0
  6  7  2  0
  7  8  1  0
  7  9  1  0
  9 10  2  0
 10 11  1  0
 11 12  2  0
 11 13  1  0
 13 14  1  0
 14 15  2  0
 15 16  1  0
 16 17  1  0
 16 18  2  0
 18 19  1  0
 19 20  2  0
 19 21  1  0
 21 22  1  0
 22 23  1  0
 10 24  1  0
 24 25  2  0
 25 26  1  0
 26 27  1  0
 27 28  1  0
 28 29  1  0
 29 30  1  0
 26  4  1  0
 30 27  1  0
 24  5  1  0
 20 14  1  0
 23 18  1  0
M  END
>  <smiles>  (2237) 
C33886-P261

>  <fragmenstein_outcome>  (2237) 
acceptable

>  <inchikey>  (2237) 
RIXOHFOHSMHTJC-UHFFFAOYSA-N

>  <fragmenstein_mode>  (2237) 
expansion

>  <HIPPO Pose ID>  (2237) 
26828

>  <Energy>  (2237) 
55.58909

>  <fragmenstein_error>  (2237) 


>  <tags>  (2237) 
{'openbind_xx01zvns2b_c1_fragmenstein', 'fragmenstein_placed'}

>  <ref_pdb>  (2237) 
175

>  <scratch_subdir>  (2237) 
/opt/xchem-fragalysis-2/maxwin/BulkDock/SCRATCH/511028/C33886-P261

>  <alias>  (2237) 
CNCc1c2cc(Br)cc(C(=O)Nc3cc(Br)c4c(c3)CNC4)c2cn1C1CNC1

>  <HIPPO Compound ID>  (2237) 
33886

>  <fragmenstein_runtime>  (2237) 
13.417543

$$$$
CN1CCc2c3cc(Br)cc(C(=O)Nc4ccc5c(c4)CNC5)c3cn2[C@@H]2CCN[C@@H]2C1
     RDKit          3D

 32 37  0  0  0  0  0  0  0  0999 V2000
   -2.8401    4.4728  -20.0162 C   0  0  0  0  0  0  0  0  0  0  0  0
   -2.7998    5.9016  -19.7390 N   0  0  0  0  0  0  0  0  0  0  0  0
   -4.0434    6.5560  -20.1261 C   0  0  0  0  0  0  0  0  0  0  0  0
   -5.3632    6.0551  -19.5526 C   0  0  0  0  0  0  0  0  0  0  0  0
   -5.5552    5.8818  -18.0688 C   0  0  0  0  0  0  0  0  0  0  0  0
   -6.5841    5.1686  -17.4726 C   0  0  0  0  0  0  0  0  0  0  0  0
   -7.6388    4.5869  -18.1604 C   0  0  0  0  0  0  0  0  0  0  0  0
   -8.6862    4.2628  -17.2743 C   0  0  0  0  0  0  0  0  0  0  0  0
  -10.3438    3.8834  -18.1096 Br  0  0  0  0  0  0  0  0  0  0  0  0
   -8.6392    4.4062  -15.8427 C   0  0  0  0  0  0  0  0  0  0  0  0
   -7.5252    4.9557  -15.1637 C   0  0  0  0  0  0  0  0  0  0  0  0
   -7.5455    5.3860  -13.7456 C   0  0  0  0  0  0  0  0  0  0  0  0
   -7.1450    6.4564  -13.5036 O   0  0  0  0  0  0  0  0  0  0  0  0
   -8.0387    4.2637  -12.8033 N   0  0  0  0  0  0  0  0  0  0  0  0
   -8.2251    4.2582  -11.4198 C   0  0  0  0  0  0  0  0  0  0  0  0
   -7.9977    5.4220  -10.6633 C   0  0  0  0  0  0  0  0  0  0  0  0
   -8.1289    5.4175   -9.2705 C   0  0  0  0  0  0  0  0  0  0  0  0
   -8.4884    4.2352   -8.6547 C   0  0  0  0  0  0  0  0  0  0  0  0
   -8.7135    3.0794   -9.3964 C   0  0  0  0  0  0  0  0  0  0  0  0
   -8.5957    3.0752  -10.7796 C   0  0  0  0  0  0  0  0  0  0  0  0
   -9.0253    1.9609   -8.4546 C   0  0  0  0  0  0  0  0  0  0  0  0
   -9.3647    2.6229   -7.1671 N   0  0  0  0  0  0  0  0  0  0  0  0
   -8.6778    3.9312   -7.2064 C   0  0  0  0  0  0  0  0  0  0  0  0
   -6.5230    5.3335  -16.0668 C   0  0  0  0  0  0  0  0  0  0  0  0
   -5.3847    6.0474  -15.8098 C   0  0  0  0  0  0  0  0  0  0  0  0
   -4.8847    6.5079  -17.0246 N   0  0  0  0  0  0  0  0  0  0  0  0
   -3.9615    7.6253  -17.0418 C   0  0  2  0  0  0  0  0  0  0  0  0
   -4.5055    8.9391  -17.6027 C   0  0  0  0  0  0  0  0  0  0  0  0
   -3.2345    9.7046  -17.9338 C   0  0  0  0  0  0  0  0  0  0  0  0
   -2.3509    8.6784  -18.4730 N   0  0  0  0  0  0  0  0  0  0  0  0
   -2.5639    7.4598  -17.6603 C   0  0  2  0  0  0  0  0  0  0  0  0
   -2.3095    6.1193  -18.3750 C   0  0  0  0  0  0  0  0  0  0  0  0
  1  2  1  0
  2  3  1  0
  3  4  1  0
  4  5  1  0
  5  6  2  0
  6  7  1  0
  7  8  2  0
  8  9  1  0
  8 10  1  0
 10 11  2  0
 11 12  1  0
 12 13  2  0
 12 14  1  0
 14 15  1  0
 15 16  2  0
 16 17  1  0
 17 18  2  0
 18 19  1  0
 19 20  2  0
 19 21  1  0
 21 22  1  0
 22 23  1  0
 11 24  1  0
 24 25  2  0
 25 26  1  0
 26 27  1  0
 27 28  1  6
 28 29  1  0
 29 30  1  0
 30 31  1  0
 31 32  1  6
 32  2  1  0
 26  5  1  0
 31 27  1  0
 24  6  1  0
 20 15  1  0
 23 18  1  0
M  END
>  <smiles>  (2238) 
C33893-P261

>  <fragmenstein_outcome>  (2238) 
acceptable

>  <inchikey>  (2238) 
YVIZVVXUTJJPBD-UHFFFAOYSA-N

>  <fragmenstein_mode>  (2238) 
expansion

>  <HIPPO Pose ID>  (2238) 
26834

>  <Energy>  (2238) 
139.814634

>  <fragmenstein_error>  (2238) 


>  <tags>  (2238) 
{'openbind_xx01zvns2b_c1_fragmenstein', 'fragmenstein_placed'}

>  <ref_pdb>  (2238) 
175

>  <scratch_subdir>  (2238) 
/opt/xchem-fragalysis-2/maxwin/BulkDock/SCRATCH/511028/C33893-P261

>  <alias>  (2238) 
CN1CCc2c3cc(Br)cc(C(=O)Nc4ccc5c(c4)CNC5)c3cn2[C@@H]2CCN[C@@H]2C1

>  <HIPPO Compound ID>  (2238) 
33893

>  <fragmenstein_runtime>  (2238) 
10.73825

$$$$
CNCc1c2cc(Br)cc(C(=O)Nc3ccc4c(c3)CN(C)C4)c2cn1C1CNC1
     RDKit          3D

 30 34  0  0  0  0  0  0  0  0999 V2000
   -4.3586    6.2940  -21.6883 C   0  0  0  0  0  0  0  0  0  0  0  0
   -4.9775    6.2979  -20.3698 N   0  0  0  0  0  0  0  0  0  0  0  0
   -4.7267    5.0222  -19.7037 C   0  0  0  0  0  0  0  0  0  0  0  0
   -5.1769    5.1202  -18.2880 C   0  0  0  0  0  0  0  0  0  0  0  0
   -6.3954    4.8321  -17.7108 C   0  0  0  0  0  0  0  0  0  0  0  0
   -7.5401    4.4210  -18.3798 C   0  0  0  0  0  0  0  0  0  0  0  0
   -8.6189    4.2865  -17.4798 C   0  0  0  0  0  0  0  0  0  0  0  0
  -10.3216    3.9567  -18.2358 Br  0  0  0  0  0  0  0  0  0  0  0  0
   -8.5484    4.5071  -16.0625 C   0  0  0  0  0  0  0  0  0  0  0  0
   -7.3669    4.9250  -15.4104 C   0  0  0  0  0  0  0  0  0  0  0  0
   -7.3377    5.3844  -14.0115 C   0  0  0  0  0  0  0  0  0  0  0  0
   -6.9298    6.4587  -13.8005 O   0  0  0  0  0  0  0  0  0  0  0  0
   -7.9419    4.3345  -13.0496 N   0  0  0  0  0  0  0  0  0  0  0  0
   -8.0782    4.3501  -11.6628 C   0  0  0  0  0  0  0  0  0  0  0  0
   -7.7527    5.4987  -10.9196 C   0  0  0  0  0  0  0  0  0  0  0  0
   -7.8903    5.5219   -9.5271 C   0  0  0  0  0  0  0  0  0  0  0  0
   -8.3503    4.3809   -8.9009 C   0  0  0  0  0  0  0  0  0  0  0  0
   -8.6648    3.2361   -9.6351 C   0  0  0  0  0  0  0  0  0  0  0  0
   -8.5421    3.2043  -11.0148 C   0  0  0  0  0  0  0  0  0  0  0  0
   -9.1073    2.1673   -8.6823 C   0  0  0  0  0  0  0  0  0  0  0  0
   -9.4900    2.9306   -7.4730 N   0  0  0  0  0  0  0  0  0  0  0  0
   -9.4473    2.1275   -6.2691 C   0  0  0  0  0  0  0  0  0  0  0  0
   -8.6011    4.1054   -7.4484 C   0  0  0  0  0  0  0  0  0  0  0  0
   -6.3076    5.0740  -16.3101 C   0  0  0  0  0  0  0  0  0  0  0  0
   -5.0250    5.4827  -16.0462 C   0  0  0  0  0  0  0  0  0  0  0  0
   -4.3696    5.5733  -17.2538 N   0  0  0  0  0  0  0  0  0  0  0  0
   -2.9662    6.0137  -17.4214 C   0  0  0  0  0  0  0  0  0  0  0  0
   -2.3552    6.8101  -16.2439 C   0  0  0  0  0  0  0  0  0  0  0  0
   -1.7116    7.6914  -17.2477 N   0  0  0  0  0  0  0  0  0  0  0  0
   -2.8192    7.3527  -18.1795 C   0  0  0  0  0  0  0  0  0  0  0  0
  1  2  1  0
  2  3  1  0
  3  4  1  0
  4  5  2  0
  5  6  1  0
  6  7  2  0
  7  8  1  0
  7  9  1  0
  9 10  2  0
 10 11  1  0
 11 12  2  0
 11 13  1  0
 13 14  1  0
 14 15  2  0
 15 16  1  0
 16 17  2  0
 17 18  1  0
 18 19  2  0
 18 20  1  0
 20 21  1  0
 21 22  1  0
 21 23  1  0
 10 24  1  0
 24 25  2  0
 25 26  1  0
 26 27  1  0
 27 28  1  0
 28 29  1  0
 29 30  1  0
 26  4  1  0
 30 27  1  0
 24  5  1  0
 19 14  1  0
 23 17  1  0
M  END
>  <smiles>  (2239) 
C33900-P261

>  <fragmenstein_outcome>  (2239) 
acceptable

>  <inchikey>  (2239) 
BDKWAMUVARKYHI-UHFFFAOYSA-N

>  <fragmenstein_mode>  (2239) 
expansion

>  <HIPPO Pose ID>  (2239) 
26837

>  <Energy>  (2239) 
65.226102

>  <fragmenstein_error>  (2239) 


>  <tags>  (2239) 
{'openbind_xx01zvns2b_c1_fragmenstein', 'fragmenstein_placed'}

>  <ref_pdb>  (2239) 
175

>  <scratch_subdir>  (2239) 
/opt/xchem-fragalysis-2/maxwin/BulkDock/SCRATCH/511028/C33900-P261

>  <alias>  (2239) 
CNCc1c2cc(Br)cc(C(=O)Nc3ccc4c(c3)CN(C)C4)c2cn1C1CNC1

>  <HIPPO Compound ID>  (2239) 
33900

>  <fragmenstein_runtime>  (2239) 
5.458035

$$$$
CNCc1c2cc(Br)cc(C(=O)Nc3cc(F)c4c(c3)CNC4)c2cn1C1CNC1
     RDKit          3D

 30 34  0  0  0  0  0  0  0  0999 V2000
   -4.1990    6.2806  -21.7429 C   0  0  0  0  0  0  0  0  0  0  0  0
   -4.6450    6.4414  -20.3647 N   0  0  0  0  0  0  0  0  0  0  0  0
   -4.7515    5.1241  -19.7394 C   0  0  0  0  0  0  0  0  0  0  0  0
   -5.1686    5.2361  -18.3106 C   0  0  0  0  0  0  0  0  0  0  0  0
   -6.3687    4.8943  -17.7144 C   0  0  0  0  0  0  0  0  0  0  0  0
   -7.5085    4.4463  -18.3708 C   0  0  0  0  0  0  0  0  0  0  0  0
   -8.5804    4.2896  -17.4657 C   0  0  0  0  0  0  0  0  0  0  0  0
  -10.2802    3.9318  -18.2183 Br  0  0  0  0  0  0  0  0  0  0  0  0
   -8.5081    4.5133  -16.0489 C   0  0  0  0  0  0  0  0  0  0  0  0
   -7.3357    4.9704  -15.4062 C   0  0  0  0  0  0  0  0  0  0  0  0
   -7.3030    5.4122  -13.9979 C   0  0  0  0  0  0  0  0  0  0  0  0
   -6.8311    6.4554  -13.7646 O   0  0  0  0  0  0  0  0  0  0  0  0
   -7.8877    4.3398  -13.0462 N   0  0  0  0  0  0  0  0  0  0  0  0
   -8.0927    4.3678  -11.6664 C   0  0  0  0  0  0  0  0  0  0  0  0
   -7.8459    5.5373  -10.9315 C   0  0  0  0  0  0  0  0  0  0  0  0
   -7.9778    5.5340   -9.5450 C   0  0  0  0  0  0  0  0  0  0  0  0
   -7.7159    6.6440   -8.8428 F   0  0  0  0  0  0  0  0  0  0  0  0
   -8.3470    4.3747   -8.9010 C   0  0  0  0  0  0  0  0  0  0  0  0
   -8.6062    3.2192   -9.6237 C   0  0  0  0  0  0  0  0  0  0  0  0
   -8.4965    3.2002  -11.0091 C   0  0  0  0  0  0  0  0  0  0  0  0
   -8.9194    2.1132   -8.6709 C   0  0  0  0  0  0  0  0  0  0  0  0
   -9.0651    2.7505   -7.3353 N   0  0  0  0  0  0  0  0  0  0  0  0
   -8.4860    4.1063   -7.4462 C   0  0  0  0  0  0  0  0  0  0  0  0
   -6.2849    5.1486  -16.3151 C   0  0  0  0  0  0  0  0  0  0  0  0
   -5.0340    5.6544  -16.0747 C   0  0  0  0  0  0  0  0  0  0  0  0
   -4.3672    5.7162  -17.2811 N   0  0  0  0  0  0  0  0  0  0  0  0
   -3.1206    6.5057  -17.4410 C   0  0  0  0  0  0  0  0  0  0  0  0
   -1.9946    5.8532  -18.2637 C   0  0  0  0  0  0  0  0  0  0  0  0
   -1.0213    6.3502  -17.2577 N   0  0  0  0  0  0  0  0  0  0  0  0
   -2.1250    6.3709  -16.2681 C   0  0  0  0  0  0  0  0  0  0  0  0
  1  2  1  0
  2  3  1  0
  3  4  1  0
  4  5  2  0
  5  6  1  0
  6  7  2  0
  7  8  1  0
  7  9  1  0
  9 10  2  0
 10 11  1  0
 11 12  2  0
 11 13  1  0
 13 14  1  0
 14 15  2  0
 15 16  1  0
 16 17  1  0
 16 18  2  0
 18 19  1  0
 19 20  2  0
 19 21  1  0
 21 22  1  0
 22 23  1  0
 10 24  1  0
 24 25  2  0
 25 26  1  0
 26 27  1  0
 27 28  1  0
 28 29  1  0
 29 30  1  0
 26  4  1  0
 30 27  1  0
 24  5  1  0
 20 14  1  0
 23 18  1  0
M  END
>  <smiles>  (2240) 
C33901-P261

>  <fragmenstein_outcome>  (2240) 
acceptable

>  <inchikey>  (2240) 
YGUUFHYZFHGSHY-UHFFFAOYSA-N

>  <fragmenstein_mode>  (2240) 
expansion

>  <HIPPO Pose ID>  (2240) 
26838

>  <Energy>  (2240) 
50.779317

>  <fragmenstein_error>  (2240) 


>  <tags>  (2240) 
{'openbind_xx01zvns2b_c1_fragmenstein', 'fragmenstein_placed'}

>  <ref_pdb>  (2240) 
175

>  <scratch_subdir>  (2240) 
/opt/xchem-fragalysis-2/maxwin/BulkDock/SCRATCH/511028/C33901-P261

>  <alias>  (2240) 
CNCc1c2cc(Br)cc(C(=O)Nc3cc(F)c4c(c3)CNC4)c2cn1C1CNC1

>  <HIPPO Compound ID>  (2240) 
33901

>  <fragmenstein_runtime>  (2240) 
5.731025

$$$$
CNCc1c2cc(Br)cc(C(=O)Nc3cc(C#N)c4c(c3)CNC4)c2cn1C1CNC1
     RDKit          3D

 31 35  0  0  0  0  0  0  0  0999 V2000
   -4.3619    6.2610  -21.6854 C   0  0  0  0  0  0  0  0  0  0  0  0
   -4.9729    6.2790  -20.3638 N   0  0  0  0  0  0  0  0  0  0  0  0
   -4.7716    4.9898  -19.7069 C   0  0  0  0  0  0  0  0  0  0  0  0
   -5.2140    5.0972  -18.2890 C   0  0  0  0  0  0  0  0  0  0  0  0
   -6.4312    4.8213  -17.7040 C   0  0  0  0  0  0  0  0  0  0  0  0
   -7.5794    4.4153  -18.3685 C   0  0  0  0  0  0  0  0  0  0  0  0
   -8.6541    4.2846  -17.4643 C   0  0  0  0  0  0  0  0  0  0  0  0
  -10.3601    3.9657  -18.2177 Br  0  0  0  0  0  0  0  0  0  0  0  0
   -8.5767    4.5041  -16.0466 C   0  0  0  0  0  0  0  0  0  0  0  0
   -7.3923    4.9198  -15.3973 C   0  0  0  0  0  0  0  0  0  0  0  0
   -7.3542    5.3730  -13.9938 C   0  0  0  0  0  0  0  0  0  0  0  0
   -6.8551    6.4059  -13.7726 O   0  0  0  0  0  0  0  0  0  0  0  0
   -8.0345    4.3624  -13.0386 N   0  0  0  0  0  0  0  0  0  0  0  0
   -8.1536    4.3686  -11.6487 C   0  0  0  0  0  0  0  0  0  0  0  0
   -7.8149    5.5186  -10.9153 C   0  0  0  0  0  0  0  0  0  0  0  0
   -7.8694    5.5195   -9.5157 C   0  0  0  0  0  0  0  0  0  0  0  0
   -7.4676    6.6722   -8.7683 C   0  0  0  0  0  0  0  0  0  0  0  0
   -7.1198    7.5784   -8.1311 N   0  0  0  0  0  0  0  0  0  0  0  0
   -8.2701    4.3600   -8.8725 C   0  0  0  0  0  0  0  0  0  0  0  0
   -8.6119    3.2234   -9.5970 C   0  0  0  0  0  0  0  0  0  0  0  0
   -8.5719    3.2131  -10.9853 C   0  0  0  0  0  0  0  0  0  0  0  0
   -8.9176    2.1128   -8.6467 C   0  0  0  0  0  0  0  0  0  0  0  0
   -8.9974    2.7382   -7.3034 N   0  0  0  0  0  0  0  0  0  0  0  0
   -8.3614    4.0643   -7.4115 C   0  0  0  0  0  0  0  0  0  0  0  0
   -6.3351    5.0644  -16.3033 C   0  0  0  0  0  0  0  0  0  0  0  0
   -5.0474    5.4662  -16.0494 C   0  0  0  0  0  0  0  0  0  0  0  0
   -4.3955    5.5402  -17.2600 N   0  0  0  0  0  0  0  0  0  0  0  0
   -2.9839    5.9426  -17.4440 C   0  0  0  0  0  0  0  0  0  0  0  0
   -2.8117    7.3010  -18.1565 C   0  0  0  0  0  0  0  0  0  0  0  0
   -1.6627    7.5768  -17.2482 N   0  0  0  0  0  0  0  0  0  0  0  0
   -2.3067    6.6685  -16.2619 C   0  0  0  0  0  0  0  0  0  0  0  0
  1  2  1  0
  2  3  1  0
  3  4  1  0
  4  5  2  0
  5  6  1  0
  6  7  2  0
  7  8  1  0
  7  9  1  0
  9 10  2  0
 10 11  1  0
 11 12  2  0
 11 13  1  0
 13 14  1  0
 14 15  2  0
 15 16  1  0
 16 17  1  0
 17 18  3  0
 16 19  2  0
 19 20  1  0
 20 21  2  0
 20 22  1  0
 22 23  1  0
 23 24  1  0
 10 25  1  0
 25 26  2  0
 26 27  1  0
 27 28  1  0
 28 29  1  0
 29 30  1  0
 30 31  1  0
 27  4  1  0
 31 28  1  0
 25  5  1  0
 21 14  1  0
 24 19  1  0
M  END
>  <smiles>  (2241) 
C33904-P261

>  <fragmenstein_outcome>  (2241) 
acceptable

>  <inchikey>  (2241) 
JZQHRTCBURZZMM-UHFFFAOYSA-N

>  <fragmenstein_mode>  (2241) 
expansion

>  <HIPPO Pose ID>  (2241) 
26840

>  <Energy>  (2241) 
58.830329

>  <fragmenstein_error>  (2241) 


>  <tags>  (2241) 
{'openbind_xx01zvns2b_c1_fragmenstein', 'fragmenstein_placed'}

>  <ref_pdb>  (2241) 
175

>  <scratch_subdir>  (2241) 
/opt/xchem-fragalysis-2/maxwin/BulkDock/SCRATCH/511028/C33904-P261

>  <alias>  (2241) 
CNCc1c2cc(Br)cc(C(=O)Nc3cc(C#N)c4c(c3)CNC4)c2cn1C1CNC1

>  <HIPPO Compound ID>  (2241) 
33904

>  <fragmenstein_runtime>  (2241) 
5.416895

$$$$
CNCc1c2cc(Br)cc(C(=O)Nc3ccc4c(c3)CN(F)C4)c2cn1C1CNC1
     RDKit          3D

 30 34  0  0  0  0  0  0  0  0999 V2000
   -4.2465    6.2888  -21.7161 C   0  0  0  0  0  0  0  0  0  0  0  0
   -4.8513    6.3544  -20.3927 N   0  0  0  0  0  0  0  0  0  0  0  0
   -4.8051    5.0349  -19.7674 C   0  0  0  0  0  0  0  0  0  0  0  0
   -5.2186    5.1533  -18.3425 C   0  0  0  0  0  0  0  0  0  0  0  0
   -6.4141    4.8283  -17.7349 C   0  0  0  0  0  0  0  0  0  0  0  0
   -7.5596    4.3873  -18.3836 C   0  0  0  0  0  0  0  0  0  0  0  0
   -8.6299    4.2631  -17.4738 C   0  0  0  0  0  0  0  0  0  0  0  0
  -10.3400    3.9442  -18.2174 Br  0  0  0  0  0  0  0  0  0  0  0  0
   -8.5471    4.4995  -16.0606 C   0  0  0  0  0  0  0  0  0  0  0  0
   -7.3660    4.9461  -15.4250 C   0  0  0  0  0  0  0  0  0  0  0  0
   -7.3357    5.4074  -14.0238 C   0  0  0  0  0  0  0  0  0  0  0  0
   -6.8720    6.4571  -13.8027 O   0  0  0  0  0  0  0  0  0  0  0  0
   -7.9871    4.3765  -13.0687 N   0  0  0  0  0  0  0  0  0  0  0  0
   -8.1131    4.3821  -11.6792 C   0  0  0  0  0  0  0  0  0  0  0  0
   -7.8203    5.5435  -10.9436 C   0  0  0  0  0  0  0  0  0  0  0  0
   -7.9149    5.5576   -9.5486 C   0  0  0  0  0  0  0  0  0  0  0  0
   -8.3021    4.3951   -8.9113 C   0  0  0  0  0  0  0  0  0  0  0  0
   -8.6004    3.2408   -9.6346 C   0  0  0  0  0  0  0  0  0  0  0  0
   -8.5189    3.2184  -11.0197 C   0  0  0  0  0  0  0  0  0  0  0  0
   -8.9496    2.1485   -8.6681 C   0  0  0  0  0  0  0  0  0  0  0  0
   -9.2233    2.8542   -7.3965 N   0  0  0  0  0  0  0  0  0  0  0  0
   -8.9137    2.0917   -6.2939 F   0  0  0  0  0  0  0  0  0  0  0  0
   -8.4517    4.1070   -7.4514 C   0  0  0  0  0  0  0  0  0  0  0  0
   -6.3187    5.1052  -16.3404 C   0  0  0  0  0  0  0  0  0  0  0  0
   -5.0683    5.6232  -16.1194 C   0  0  0  0  0  0  0  0  0  0  0  0
   -4.4173    5.6771  -17.3363 N   0  0  0  0  0  0  0  0  0  0  0  0
   -3.2076    6.5111  -17.5463 C   0  0  0  0  0  0  0  0  0  0  0  0
   -2.1947    6.4679  -16.3814 C   0  0  0  0  0  0  0  0  0  0  0  0
   -1.1004    6.4559  -17.3818 N   0  0  0  0  0  0  0  0  0  0  0  0
   -2.0639    5.8707  -18.3524 C   0  0  0  0  0  0  0  0  0  0  0  0
  1  2  1  0
  2  3  1  0
  3  4  1  0
  4  5  2  0
  5  6  1  0
  6  7  2  0
  7  8  1  0
  7  9  1  0
  9 10  2  0
 10 11  1  0
 11 12  2  0
 11 13  1  0
 13 14  1  0
 14 15  2  0
 15 16  1  0
 16 17  2  0
 17 18  1  0
 18 19  2  0
 18 20  1  0
 20 21  1  0
 21 22  1  0
 21 23  1  0
 10 24  1  0
 24 25  2  0
 25 26  1  0
 26 27  1  0
 27 28  1  0
 28 29  1  0
 29 30  1  0
 26  4  1  0
 30 27  1  0
 24  5  1  0
 19 14  1  0
 23 17  1  0
M  END
>  <smiles>  (2242) 
C33905-P261

>  <fragmenstein_outcome>  (2242) 
acceptable

>  <inchikey>  (2242) 
RLDYYEMISNZDBJ-UHFFFAOYSA-N

>  <fragmenstein_mode>  (2242) 
expansion

>  <HIPPO Pose ID>  (2242) 
26841

>  <Energy>  (2242) 
69.64476

>  <fragmenstein_error>  (2242) 


>  <tags>  (2242) 
{'openbind_xx01zvns2b_c1_fragmenstein', 'fragmenstein_placed'}

>  <ref_pdb>  (2242) 
175

>  <scratch_subdir>  (2242) 
/opt/xchem-fragalysis-2/maxwin/BulkDock/SCRATCH/511028/C33905-P261

>  <alias>  (2242) 
CNCc1c2cc(Br)cc(C(=O)Nc3ccc4c(c3)CN(F)C4)c2cn1C1CNC1

>  <HIPPO Compound ID>  (2242) 
33905

>  <fragmenstein_runtime>  (2242) 
10.609607

$$$$
C[C@@H]1Nc2c3cc(Br)cc(C(=O)Nc4ccc5c(c4)CNC5)c3cn2[C@H]2CCN[C@@H]12
     RDKit          3D

 30 35  0  0  0  0  0  0  0  0999 V2000
   -5.0445    7.7065  -21.0754 C   0  0  0  0  0  0  0  0  0  0  0  0
   -4.5646    6.2782  -20.8497 C   0  0  2  0  0  0  0  0  0  0  0  0
   -5.6063    5.4784  -20.2173 N   0  0  0  0  0  0  0  0  0  0  0  0
   -5.7037    5.3549  -18.8720 C   0  0  0  0  0  0  0  0  0  0  0  0
   -6.7126    4.8784  -18.0801 C   0  0  0  0  0  0  0  0  0  0  0  0
   -7.9079    4.3883  -18.5666 C   0  0  0  0  0  0  0  0  0  0  0  0
   -8.8319    4.2372  -17.5264 C   0  0  0  0  0  0  0  0  0  0  0  0
  -10.6137    3.9674  -18.0868 Br  0  0  0  0  0  0  0  0  0  0  0  0
   -8.5525    4.4541  -16.1349 C   0  0  0  0  0  0  0  0  0  0  0  0
   -7.2923    4.9045  -15.6507 C   0  0  0  0  0  0  0  0  0  0  0  0
   -7.0935    5.3114  -14.2373 C   0  0  0  0  0  0  0  0  0  0  0  0
   -6.5305    6.3143  -14.0234 O   0  0  0  0  0  0  0  0  0  0  0  0
   -7.7442    4.2934  -13.2592 N   0  0  0  0  0  0  0  0  0  0  0  0
   -7.9126    4.3474  -11.8721 C   0  0  0  0  0  0  0  0  0  0  0  0
   -7.6245    5.5083  -11.1390 C   0  0  0  0  0  0  0  0  0  0  0  0
   -7.7637    5.5320   -9.7422 C   0  0  0  0  0  0  0  0  0  0  0  0
   -8.1714    4.3777   -9.0953 C   0  0  0  0  0  0  0  0  0  0  0  0
   -8.4677    3.2332   -9.8182 C   0  0  0  0  0  0  0  0  0  0  0  0
   -8.3638    3.2049  -11.2038 C   0  0  0  0  0  0  0  0  0  0  0  0
   -8.8100    2.1339   -8.8710 C   0  0  0  0  0  0  0  0  0  0  0  0
   -8.8947    2.7427   -7.5250 N   0  0  0  0  0  0  0  0  0  0  0  0
   -8.3241    4.0964   -7.6356 C   0  0  0  0  0  0  0  0  0  0  0  0
   -6.3949    5.1320  -16.7108 C   0  0  0  0  0  0  0  0  0  0  0  0
   -5.1348    5.6925  -16.7038 C   0  0  0  0  0  0  0  0  0  0  0  0
   -4.7150    5.7944  -18.0245 N   0  0  0  0  0  0  0  0  0  0  0  0
   -3.5130    6.4532  -18.5153 C   0  0  1  0  0  0  0  0  0  0  0  0
   -2.2371    5.8727  -17.9328 C   0  0  0  0  0  0  0  0  0  0  0  0
   -1.8125    4.8025  -18.9282 C   0  0  0  0  0  0  0  0  0  0  0  0
   -2.5849    4.9784  -20.1351 N   0  0  0  0  0  0  0  0  0  0  0  0
   -3.2731    6.2635  -20.0300 C   0  0  1  0  0  0  0  0  0  0  0  0
  2  1  1  1
  2  3  1  0
  3  4  1  0
  4  5  2  0
  5  6  1  0
  6  7  2  0
  7  8  1  0
  7  9  1  0
  9 10  2  0
 10 11  1  0
 11 12  2  0
 11 13  1  0
 13 14  1  0
 14 15  2  0
 15 16  1  0
 16 17  2  0
 17 18  1  0
 18 19  2  0
 18 20  1  0
 20 21  1  0
 21 22  1  0
 10 23  1  0
 23 24  2  0
 24 25  1  0
 25 26  1  0
 26 27  1  1
 27 28  1  0
 28 29  1  0
 30 29  1  1
 30  2  1  0
 25  4  1  0
 30 26  1  0
 23  5  1  0
 19 14  1  0
 22 17  1  0
M  END
>  <smiles>  (2243) 
C33911-P261

>  <fragmenstein_outcome>  (2243) 
acceptable

>  <inchikey>  (2243) 
RAESRHZKLXTXTR-UHFFFAOYSA-N

>  <fragmenstein_mode>  (2243) 
expansion

>  <HIPPO Pose ID>  (2243) 
26843

>  <Energy>  (2243) 
107.192045

>  <fragmenstein_error>  (2243) 


>  <tags>  (2243) 
{'openbind_xx01zvns2b_c1_fragmenstein', 'fragmenstein_placed'}

>  <ref_pdb>  (2243) 
175

>  <scratch_subdir>  (2243) 
/opt/xchem-fragalysis-2/maxwin/BulkDock/SCRATCH/511028/C33911-P261

>  <alias>  (2243) 
C[C@@H]1Nc2c3cc(Br)cc(C(=O)Nc4ccc5c(c4)CNC5)c3cn2[C@H]2CCN[C@@H]12

>  <HIPPO Compound ID>  (2243) 
33911

>  <fragmenstein_runtime>  (2243) 
6.207657

$$$$
CNCc1c2cc(Br)cc(C(=O)Nc3cc(C)c4c(c3)CNC4)c2cn1C1CNC1
     RDKit          3D

 30 34  0  0  0  0  0  0  0  0999 V2000
   -3.3277    5.8025  -21.2786 C   0  0  0  0  0  0  0  0  0  0  0  0
   -3.6928    5.1815  -20.0147 N   0  0  0  0  0  0  0  0  0  0  0  0
   -5.1121    5.3669  -19.7385 C   0  0  0  0  0  0  0  0  0  0  0  0
   -5.4194    5.2913  -18.2751 C   0  0  0  0  0  0  0  0  0  0  0  0
   -6.5669    4.8525  -17.6432 C   0  0  0  0  0  0  0  0  0  0  0  0
   -7.7103    4.4069  -18.2858 C   0  0  0  0  0  0  0  0  0  0  0  0
   -8.7590    4.2268  -17.3610 C   0  0  0  0  0  0  0  0  0  0  0  0
  -10.4703    3.9579  -18.1238 Br  0  0  0  0  0  0  0  0  0  0  0  0
   -8.6534    4.4046  -15.9373 C   0  0  0  0  0  0  0  0  0  0  0  0
   -7.4667    4.8424  -15.3043 C   0  0  0  0  0  0  0  0  0  0  0  0
   -7.4099    5.2837  -13.8925 C   0  0  0  0  0  0  0  0  0  0  0  0
   -6.9303    6.3269  -13.6728 O   0  0  0  0  0  0  0  0  0  0  0  0
   -7.9867    4.2202  -12.9249 N   0  0  0  0  0  0  0  0  0  0  0  0
   -8.1732    4.2588  -11.5396 C   0  0  0  0  0  0  0  0  0  0  0  0
   -7.9390    5.4383  -10.8107 C   0  0  0  0  0  0  0  0  0  0  0  0
   -8.0923    5.4833   -9.4128 C   0  0  0  0  0  0  0  0  0  0  0  0
   -7.8268    6.7439   -8.6509 C   0  0  0  0  0  0  0  0  0  0  0  0
   -8.4603    4.3093   -8.7700 C   0  0  0  0  0  0  0  0  0  0  0  0
   -8.6849    3.1363   -9.4866 C   0  0  0  0  0  0  0  0  0  0  0  0
   -8.5633    3.0986  -10.8693 C   0  0  0  0  0  0  0  0  0  0  0  0
   -8.9935    2.0329   -8.5254 C   0  0  0  0  0  0  0  0  0  0  0  0
   -9.3223    2.7116   -7.2453 N   0  0  0  0  0  0  0  0  0  0  0  0
   -8.6483    4.0253   -7.3141 C   0  0  0  0  0  0  0  0  0  0  0  0
   -6.4469    5.0647  -16.2396 C   0  0  0  0  0  0  0  0  0  0  0  0
   -5.1971    5.5854  -16.0246 C   0  0  0  0  0  0  0  0  0  0  0  0
   -4.6335    5.8264  -17.2595 N   0  0  0  0  0  0  0  0  0  0  0  0
   -3.3935    6.6194  -17.4807 C   0  0  0  0  0  0  0  0  0  0  0  0
   -3.6758    7.9728  -18.1750 C   0  0  0  0  0  0  0  0  0  0  0  0
   -3.7028    8.6304  -16.8456 N   0  0  0  0  0  0  0  0  0  0  0  0
   -2.8948    7.5070  -16.3196 C   0  0  0  0  0  0  0  0  0  0  0  0
  1  2  1  0
  2  3  1  0
  3  4  1  0
  4  5  2  0
  5  6  1  0
  6  7  2  0
  7  8  1  0
  7  9  1  0
  9 10  2  0
 10 11  1  0
 11 12  2  0
 11 13  1  0
 13 14  1  0
 14 15  2  0
 15 16  1  0
 16 17  1  0
 16 18  2  0
 18 19  1  0
 19 20  2  0
 19 21  1  0
 21 22  1  0
 22 23  1  0
 10 24  1  0
 24 25  2  0
 25 26  1  0
 26 27  1  0
 27 28  1  0
 28 29  1  0
 29 30  1  0
 26  4  1  0
 30 27  1  0
 24  5  1  0
 20 14  1  0
 23 18  1  0
M  END
>  <smiles>  (2244) 
C33912-P261

>  <fragmenstein_outcome>  (2244) 
acceptable

>  <inchikey>  (2244) 
YDZRGOJJUZFMKL-UHFFFAOYSA-N

>  <fragmenstein_mode>  (2244) 
expansion

>  <HIPPO Pose ID>  (2244) 
26844

>  <Energy>  (2244) 
64.293398

>  <fragmenstein_error>  (2244) 


>  <tags>  (2244) 
{'openbind_xx01zvns2b_c1_fragmenstein', 'fragmenstein_placed'}

>  <ref_pdb>  (2244) 
175

>  <scratch_subdir>  (2244) 
/opt/xchem-fragalysis-2/maxwin/BulkDock/SCRATCH/511028/C33912-P261

>  <alias>  (2244) 
CNCc1c2cc(Br)cc(C(=O)Nc3cc(C)c4c(c3)CNC4)c2cn1C1CNC1

>  <HIPPO Compound ID>  (2244) 
33912

>  <fragmenstein_runtime>  (2244) 
6.467127

$$$$
O=C(Nc1ccc2c(c1)CNC2)c1cc(Br)cc2c1cn1c3c(ccc21)NCC3
     RDKit          3D

 29 34  0  0  0  0  0  0  0  0999 V2000
   -6.5318    6.2064  -13.7906 O   0  0  0  0  0  0  0  0  0  0  0  0
   -7.1368    5.2298  -14.0130 C   0  0  0  0  0  0  0  0  0  0  0  0
   -7.8402    4.2377  -13.0438 N   0  0  0  0  0  0  0  0  0  0  0  0
   -8.0178    4.2944  -11.6557 C   0  0  0  0  0  0  0  0  0  0  0  0
   -7.7174    5.4617  -10.9358 C   0  0  0  0  0  0  0  0  0  0  0  0
   -7.8567    5.5091   -9.5417 C   0  0  0  0  0  0  0  0  0  0  0  0
   -8.2706    4.3677   -8.8799 C   0  0  0  0  0  0  0  0  0  0  0  0
   -8.5744    3.2107   -9.5825 C   0  0  0  0  0  0  0  0  0  0  0  0
   -8.4785    3.1642  -10.9708 C   0  0  0  0  0  0  0  0  0  0  0  0
   -8.9280    2.1292   -8.6155 C   0  0  0  0  0  0  0  0  0  0  0  0
   -8.9629    2.7593   -7.2691 N   0  0  0  0  0  0  0  0  0  0  0  0
   -8.4328    4.1294   -7.4177 C   0  0  0  0  0  0  0  0  0  0  0  0
   -7.3057    4.8389  -15.4339 C   0  0  0  0  0  0  0  0  0  0  0  0
   -8.5612    4.4522  -15.9815 C   0  0  0  0  0  0  0  0  0  0  0  0
   -8.7805    4.2522  -17.3886 C   0  0  0  0  0  0  0  0  0  0  0  0
  -10.5356    3.9993  -18.0468 Br  0  0  0  0  0  0  0  0  0  0  0  0
   -7.7976    4.3723  -18.3810 C   0  0  0  0  0  0  0  0  0  0  0  0
   -6.5960    4.7668  -17.8276 C   0  0  0  0  0  0  0  0  0  0  0  0
   -6.3369    5.0015  -16.4439 C   0  0  0  0  0  0  0  0  0  0  0  0
   -5.0261    5.4246  -16.3612 C   0  0  0  0  0  0  0  0  0  0  0  0
   -4.4949    5.4631  -17.6487 N   0  0  0  0  0  0  0  0  0  0  0  0
   -3.2334    5.8257  -18.0989 C   0  0  0  0  0  0  0  0  0  0  0  0
   -2.9299    5.7828  -19.4040 C   0  0  0  0  0  0  0  0  0  0  0  0
   -3.9154    5.3835  -20.3654 C   0  0  0  0  0  0  0  0  0  0  0  0
   -5.1477    5.0338  -19.9515 C   0  0  0  0  0  0  0  0  0  0  0  0
   -5.4750    5.0550  -18.5571 C   0  0  0  0  0  0  0  0  0  0  0  0
   -1.6176    6.1192  -19.6518 N   0  0  0  0  0  0  0  0  0  0  0  0
   -0.9277    6.2689  -18.3598 C   0  0  0  0  0  0  0  0  0  0  0  0
   -2.0636    6.2843  -17.2999 C   0  0  0  0  0  0  0  0  0  0  0  0
  1  2  2  0
  2  3  1  0
  3  4  1  0
  4  5  2  0
  5  6  1  0
  6  7  2  0
  7  8  1  0
  8  9  2  0
  8 10  1  0
 10 11  1  0
 11 12  1  0
  2 13  1  0
 13 14  2  0
 14 15  1  0
 15 16  1  0
 15 17  2  0
 17 18  1  0
 18 19  1  0
 19 20  2  0
 20 21  1  0
 21 22  1  0
 22 23  2  0
 23 24  1  0
 24 25  2  0
 25 26  1  0
 23 27  1  0
 27 28  1  0
 28 29  1  0
  9  4  1  0
 19 13  1  0
 26 21  1  0
 12  7  1  0
 26 18  2  0
 29 22  1  0
M  END
>  <smiles>  (2245) 
C33916-P261

>  <fragmenstein_outcome>  (2245) 
acceptable

>  <inchikey>  (2245) 
RWWPWWGYOJLLAE-UHFFFAOYSA-N

>  <fragmenstein_mode>  (2245) 
expansion

>  <HIPPO Pose ID>  (2245) 
26846

>  <Energy>  (2245) 
74.522406

>  <fragmenstein_error>  (2245) 


>  <tags>  (2245) 
{'openbind_xx01zvns2b_c1_fragmenstein', 'fragmenstein_placed'}

>  <ref_pdb>  (2245) 
175

>  <scratch_subdir>  (2245) 
/opt/xchem-fragalysis-2/maxwin/BulkDock/SCRATCH/511028/C33916-P261

>  <alias>  (2245) 
O=C(Nc1ccc2c(c1)CNC2)c1cc(Br)cc2c1cn1c3c(ccc21)NCC3

>  <HIPPO Compound ID>  (2245) 
33916

>  <fragmenstein_runtime>  (2245) 
6.569017

$$$$
O=C(Nc1ccc2c(c1)CNC2)[C@@H]1C[C@@H](Br)C[C@H]2[C@H]1CN1C3=C(NCC3)NCN21
     RDKit          3D

 29 34  0  0  0  0  0  0  0  0999 V2000
   -5.5323    5.3845  -13.6960 O   0  0  0  0  0  0  0  0  0  0  0  0
   -6.6140    5.0190  -13.9588 C   0  0  0  0  0  0  0  0  0  0  0  0
   -7.7380    4.4487  -13.0410 N   0  0  0  0  0  0  0  0  0  0  0  0
   -7.7900    4.3080  -11.6575 C   0  0  0  0  0  0  0  0  0  0  0  0
   -7.0840    5.2352  -10.8721 C   0  0  0  0  0  0  0  0  0  0  0  0
   -7.2290    5.2587   -9.4847 C   0  0  0  0  0  0  0  0  0  0  0  0
   -8.0242    4.2957   -8.8983 C   0  0  0  0  0  0  0  0  0  0  0  0
   -8.6706    3.3305   -9.6637 C   0  0  0  0  0  0  0  0  0  0  0  0
   -8.6097    3.3522  -11.0534 C   0  0  0  0  0  0  0  0  0  0  0  0
   -9.3791    2.3892   -8.7442 C   0  0  0  0  0  0  0  0  0  0  0  0
   -8.9623    2.7574   -7.3616 N   0  0  0  0  0  0  0  0  0  0  0  0
   -8.3579    4.1015   -7.4591 C   0  0  0  0  0  0  0  0  0  0  0  0
   -7.1290    5.1847  -15.4061 C   0  0  2  0  0  0  0  0  0  0  0  0
   -8.4043    4.4719  -15.9190 C   0  0  0  0  0  0  0  0  0  0  0  0
   -8.5042    4.2661  -17.4485 C   0  0  1  0  0  0  0  0  0  0  0  0
  -10.3628    4.2320  -18.0375 Br  0  0  0  0  0  0  0  0  0  0  0  0
   -7.6522    5.0938  -18.4112 C   0  0  0  0  0  0  0  0  0  0  0  0
   -6.6546    5.9474  -17.6669 C   0  0  1  0  0  0  0  0  0  0  0  0
   -6.0484    5.1461  -16.5049 C   0  0  1  0  0  0  0  0  0  0  0  0
   -4.6636    5.7771  -16.3518 C   0  0  0  0  0  0  0  0  0  0  0  0
   -4.3863    6.2115  -17.7372 N   0  0  0  0  0  0  0  0  0  0  0  0
   -3.5897    5.5189  -18.6491 C   0  0  0  0  0  0  0  0  0  0  0  0
   -3.7836    5.4262  -19.9838 C   0  0  0  0  0  0  0  0  0  0  0  0
   -2.8433    4.6539  -20.6070 N   0  0  0  0  0  0  0  0  0  0  0  0
   -1.7681    4.3758  -19.6552 C   0  0  0  0  0  0  0  0  0  0  0  0
   -2.3744    4.7518  -18.2827 C   0  0  0  0  0  0  0  0  0  0  0  0
   -4.8220    6.0482  -20.6075 N   0  0  0  0  0  0  0  0  0  0  0  0
   -5.5641    6.9308  -19.7215 C   0  0  0  0  0  0  0  0  0  0  0  0
   -5.5925    6.7227  -18.2773 N   0  0  0  0  0  0  0  0  0  0  0  0
  1  2  2  0
  2  3  1  0
  3  4  1  0
  4  5  2  0
  5  6  1  0
  6  7  2  0
  7  8  1  0
  8  9  2  0
  8 10  1  0
 10 11  1  0
 11 12  1  0
 13  2  1  1
 13 14  1  0
 14 15  1  0
 15 16  1  6
 15 17  1  0
 18 17  1  6
 18 19  1  0
 19 20  1  1
 20 21  1  0
 21 22  1  0
 22 23  2  0
 23 24  1  0
 24 25  1  0
 25 26  1  0
 23 27  1  0
 27 28  1  0
 28 29  1  0
  9  4  1  0
 19 13  1  0
 29 21  1  0
 12  7  1  0
 29 18  1  0
 26 22  1  0
M  END
>  <smiles>  (2246) 
C33907-P250

>  <fragmenstein_outcome>  (2246) 
acceptable

>  <inchikey>  (2246) 
NTRRHWGNRAQPBF-UHFFFAOYSA-N

>  <fragmenstein_mode>  (2246) 
expansion

>  <HIPPO Pose ID>  (2246) 
26847

>  <Energy>  (2246) 
52.785753

>  <fragmenstein_error>  (2246) 


>  <tags>  (2246) 
{'openbind_xx01zvns2b_c1_fragmenstein', 'fragmenstein_placed'}

>  <ref_pdb>  (2246) 
175

>  <scratch_subdir>  (2246) 
/opt/xchem-fragalysis-2/maxwin/BulkDock/SCRATCH/511028/C33907-P250

>  <alias>  (2246) 
O=C(Nc1ccc2c(c1)CNC2)[C@@H]1C[C@@H](Br)C[C@H]2[C@H]1CN1C3=C(NCC3)NCN21

>  <HIPPO Compound ID>  (2246) 
33907

>  <fragmenstein_runtime>  (2246) 
6.627438

$$$$
NC[C@H]1Nc2c3cc(Br)cc(C(=O)Nc4ccc5c(c4)CNC5)c3cn2[C@@H]2CCN[C@@H]21
     RDKit          3D

 31 36  0  0  0  0  0  0  0  0999 V2000
   -2.9606    4.4042  -20.0215 N   0  0  0  0  0  0  0  0  0  0  0  0
   -3.2350    5.5899  -20.8282 C   0  0  0  0  0  0  0  0  0  0  0  0
   -4.2688    6.5647  -20.2207 C   0  0  1  0  0  0  0  0  0  0  0  0
   -5.4326    5.8285  -19.7229 N   0  0  0  0  0  0  0  0  0  0  0  0
   -5.6181    5.5478  -18.4147 C   0  0  0  0  0  0  0  0  0  0  0  0
   -6.6609    4.9506  -17.7604 C   0  0  0  0  0  0  0  0  0  0  0  0
   -7.8083    4.4842  -18.3718 C   0  0  0  0  0  0  0  0  0  0  0  0
   -8.8043    4.2440  -17.4104 C   0  0  0  0  0  0  0  0  0  0  0  0
  -10.5355    3.9573  -18.1141 Br  0  0  0  0  0  0  0  0  0  0  0  0
   -8.6396    4.3903  -15.9881 C   0  0  0  0  0  0  0  0  0  0  0  0
   -7.4329    4.8346  -15.3900 C   0  0  0  0  0  0  0  0  0  0  0  0
   -7.3406    5.2746  -13.9806 C   0  0  0  0  0  0  0  0  0  0  0  0
   -6.8435    6.3114  -13.7709 O   0  0  0  0  0  0  0  0  0  0  0  0
   -7.9332    4.2304  -13.0040 N   0  0  0  0  0  0  0  0  0  0  0  0
   -8.1171    4.2843  -11.6220 C   0  0  0  0  0  0  0  0  0  0  0  0
   -7.8686    5.4705  -10.9125 C   0  0  0  0  0  0  0  0  0  0  0  0
   -7.9840    5.5126   -9.5187 C   0  0  0  0  0  0  0  0  0  0  0  0
   -8.3303    4.3510   -8.8522 C   0  0  0  0  0  0  0  0  0  0  0  0
   -8.5904    3.1797   -9.5490 C   0  0  0  0  0  0  0  0  0  0  0  0
   -8.5075    3.1331  -10.9356 C   0  0  0  0  0  0  0  0  0  0  0  0
   -8.8857    2.0830   -8.5796 C   0  0  0  0  0  0  0  0  0  0  0  0
   -8.8936    2.7021   -7.2264 N   0  0  0  0  0  0  0  0  0  0  0  0
   -8.4572    4.1038   -7.3877 C   0  0  0  0  0  0  0  0  0  0  0  0
   -6.4595    5.1076  -16.3605 C   0  0  0  0  0  0  0  0  0  0  0  0
   -5.2045    5.6462  -16.1920 C   0  0  0  0  0  0  0  0  0  0  0  0
   -4.7270    5.9670  -17.4466 N   0  0  0  0  0  0  0  0  0  0  0  0
   -3.5466    6.7673  -17.7536 C   0  0  2  0  0  0  0  0  0  0  0  0
   -3.3602    7.9798  -16.8455 C   0  0  0  0  0  0  0  0  0  0  0  0
   -4.2633    9.0483  -17.4460 C   0  0  0  0  0  0  0  0  0  0  0  0
   -4.5617    8.6494  -18.8318 N   0  0  0  0  0  0  0  0  0  0  0  0
   -3.6780    7.4673  -19.1161 C   0  0  2  0  0  0  0  0  0  0  0  0
  1  2  1  0
  3  2  1  1
  3  4  1  0
  4  5  1  0
  5  6  2  0
  6  7  1  0
  7  8  2  0
  8  9  1  0
  8 10  1  0
 10 11  2  0
 11 12  1  0
 12 13  2  0
 12 14  1  0
 14 15  1  0
 15 16  2  0
 16 17  1  0
 17 18  2  0
 18 19  1  0
 19 20  2  0
 19 21  1  0
 21 22  1  0
 22 23  1  0
 11 24  1  0
 24 25  2  0
 25 26  1  0
 26 27  1  0
 27 28  1  1
 28 29  1  0
 29 30  1  0
 31 30  1  1
 31  3  1  0
 26  5  1  0
 31 27  1  0
 24  6  1  0
 20 15  1  0
 23 18  1  0
M  END
>  <smiles>  (2247) 
C33918-P261

>  <fragmenstein_outcome>  (2247) 
acceptable

>  <inchikey>  (2247) 
JFEIZMBEEHOIQN-UHFFFAOYSA-N

>  <fragmenstein_mode>  (2247) 
expansion

>  <HIPPO Pose ID>  (2247) 
26848

>  <Energy>  (2247) 
130.932483

>  <fragmenstein_error>  (2247) 


>  <tags>  (2247) 
{'openbind_xx01zvns2b_c1_fragmenstein', 'fragmenstein_placed'}

>  <ref_pdb>  (2247) 
175

>  <scratch_subdir>  (2247) 
/opt/xchem-fragalysis-2/maxwin/BulkDock/SCRATCH/511028/C33918-P261

>  <alias>  (2247) 
NC[C@H]1Nc2c3cc(Br)cc(C(=O)Nc4ccc5c(c4)CNC5)c3cn2[C@@H]2CCN[C@@H]21

>  <HIPPO Compound ID>  (2247) 
33918

>  <fragmenstein_runtime>  (2247) 
10.770482

$$$$
CS(=O)(=O)c1cc2c(cc1N[C@@H](C(=O)NCC(F)F)c1cc(Cl)cc3cccnc13)CNC2
     RDKit          3D

 33 36  0  0  0  0  0  0  0  0999 V2000
   -6.9916    8.1439  -11.5656 C   0  0  0  0  0  0  0  0  0  0  0  0
   -8.5680    7.3683  -11.3833 S   0  0  0  0  0  0  0  0  0  0  0  0
   -9.2317    7.3314  -12.6736 O   0  0  0  0  0  0  0  0  0  0  0  0
   -9.2223    8.0647  -10.2846 O   0  0  0  0  0  0  0  0  0  0  0  0
   -8.2570    5.6871  -10.8200 C   0  0  0  0  0  0  0  0  0  0  0  0
   -8.3120    5.5610   -9.4083 C   0  0  0  0  0  0  0  0  0  0  0  0
   -8.4825    4.3162   -8.8378 C   0  0  0  0  0  0  0  0  0  0  0  0
   -8.5918    3.1956   -9.6311 C   0  0  0  0  0  0  0  0  0  0  0  0
   -8.4639    3.2867  -11.0089 C   0  0  0  0  0  0  0  0  0  0  0  0
   -8.2658    4.5382  -11.6521 C   0  0  0  0  0  0  0  0  0  0  0  0
   -8.1214    4.4593  -13.0364 N   0  0  0  0  0  0  0  0  0  0  0  0
   -7.1906    5.2690  -13.8657 C   0  0  1  0  0  0  0  0  0  0  0  0
   -5.7374    5.2823  -13.2696 C   0  0  0  0  0  0  0  0  0  0  0  0
   -5.2124    6.2946  -13.0115 O   0  0  0  0  0  0  0  0  0  0  0  0
   -5.2478    3.8241  -13.0906 N   0  0  0  0  0  0  0  0  0  0  0  0
   -4.0492    3.3055  -12.4691 C   0  0  0  0  0  0  0  0  0  0  0  0
   -3.7666    1.8311  -12.6683 C   0  0  0  0  0  0  0  0  0  0  0  0
   -3.6121    1.5702  -13.9927 F   0  0  0  0  0  0  0  0  0  0  0  0
   -2.5828    1.5140  -12.0824 F   0  0  0  0  0  0  0  0  0  0  0  0
   -7.3488    4.9124  -15.3506 C   0  0  0  0  0  0  0  0  0  0  0  0
   -8.6425    4.5844  -15.8146 C   0  0  0  0  0  0  0  0  0  0  0  0
   -8.8969    4.4109  -17.1670 C   0  0  0  0  0  0  0  0  0  0  0  0
  -10.4919    4.1870  -17.7114 Cl  0  0  0  0  0  0  0  0  0  0  0  0
   -7.8884    4.5495  -18.0957 C   0  0  0  0  0  0  0  0  0  0  0  0
   -6.6147    4.9077  -17.6697 C   0  0  0  0  0  0  0  0  0  0  0  0
   -5.6209    5.1220  -18.6284 C   0  0  0  0  0  0  0  0  0  0  0  0
   -4.3562    5.5031  -18.2277 C   0  0  0  0  0  0  0  0  0  0  0  0
   -4.1417    5.6551  -16.8730 C   0  0  0  0  0  0  0  0  0  0  0  0
   -5.0867    5.4635  -15.9220 N   0  0  0  0  0  0  0  0  0  0  0  0
   -6.3217    5.0914  -16.2925 C   0  0  0  0  0  0  0  0  0  0  0  0
   -8.8672    2.0023   -8.7791 C   0  0  0  0  0  0  0  0  0  0  0  0
   -9.0388    2.5171   -7.3963 N   0  0  0  0  0  0  0  0  0  0  0  0
   -8.6563    3.9421   -7.4068 C   0  0  0  0  0  0  0  0  0  0  0  0
  1  2  1  0
  2  3  2  0
  2  4  2  0
  2  5  1  0
  5  6  2  0
  6  7  1  0
  7  8  2  0
  8  9  1  0
  9 10  2  0
 10 11  1  0
 12 11  1  1
 12 13  1  0
 13 14  2  0
 13 15  1  0
 15 16  1  0
 16 17  1  0
 17 18  1  0
 17 19  1  0
 12 20  1  0
 20 21  2  0
 21 22  1  0
 22 23  1  0
 22 24  2  0
 24 25  1  0
 25 26  2  0
 26 27  1  0
 27 28  2  0
 28 29  1  0
 29 30  2  0
  8 31  1  0
 31 32  1  0
 32 33  1  0
 10  5  1  0
 30 20  1  0
 33  7  1  0
 30 25  1  0
M  END
>  <smiles>  (2248) 
C34163-P262

>  <fragmenstein_outcome>  (2248) 
acceptable

>  <inchikey>  (2248) 
SAKJZRKBVPCGIA-UHFFFAOYSA-N

>  <fragmenstein_mode>  (2248) 
expansion

>  <HIPPO Pose ID>  (2248) 
26944

>  <Energy>  (2248) 
187.343467

>  <fragmenstein_error>  (2248) 


>  <tags>  (2248) 
{'openbind_xx01zvns2b_c1_fragmenstein', 'fragmenstein_placed'}

>  <ref_pdb>  (2248) 
175

>  <scratch_subdir>  (2248) 
/opt/xchem-fragalysis-2/maxwin/BulkDock/SCRATCH/511028/C34163-P262

>  <alias>  (2248) 
CS(=O)(=O)c1cc2c(cc1N[C@@H](C(=O)NCC(F)F)c1cc(Cl)cc3cccnc13)CNC2

>  <HIPPO Compound ID>  (2248) 
30900

>  <fragmenstein_runtime>  (2248) 
4.615399

$$$$
O=C(NCC(F)F)[C@H](Nc1ccc2c(c1)CNC2)c1cc(Cl)cc2cccnc12
     RDKit          3D

 29 32  0  0  0  0  0  0  0  0999 V2000
   -5.7104    6.9110  -13.4212 O   0  0  0  0  0  0  0  0  0  0  0  0
   -6.0026    5.7787  -13.3615 C   0  0  0  0  0  0  0  0  0  0  0  0
   -5.1776    4.5491  -12.8855 N   0  0  0  0  0  0  0  0  0  0  0  0
   -3.8635    4.4745  -12.2987 C   0  0  0  0  0  0  0  0  0  0  0  0
   -2.7752    5.1116  -13.1559 C   0  0  0  0  0  0  0  0  0  0  0  0
   -2.4627    4.3006  -14.2021 F   0  0  0  0  0  0  0  0  0  0  0  0
   -1.6343    5.2280  -12.4219 F   0  0  0  0  0  0  0  0  0  0  0  0
   -7.3926    5.2343  -13.8488 C   0  0  2  0  0  0  0  0  0  0  0  0
   -7.8300    4.0710  -13.0325 N   0  0  0  0  0  0  0  0  0  0  0  0
   -8.1674    4.1968  -11.6771 C   0  0  0  0  0  0  0  0  0  0  0  0
   -8.0134    5.3832  -10.9297 C   0  0  0  0  0  0  0  0  0  0  0  0
   -8.2041    5.4178   -9.5400 C   0  0  0  0  0  0  0  0  0  0  0  0
   -8.5428    4.2471   -8.8932 C   0  0  0  0  0  0  0  0  0  0  0  0
   -8.7117    3.0726   -9.6062 C   0  0  0  0  0  0  0  0  0  0  0  0
   -8.5233    3.0312  -10.9809 C   0  0  0  0  0  0  0  0  0  0  0  0
   -9.0242    1.9584   -8.6661 C   0  0  0  0  0  0  0  0  0  0  0  0
   -9.2107    2.5864   -7.3303 N   0  0  0  0  0  0  0  0  0  0  0  0
   -8.7290    3.9789   -7.4398 C   0  0  0  0  0  0  0  0  0  0  0  0
   -7.4918    4.9183  -15.3466 C   0  0  0  0  0  0  0  0  0  0  0  0
   -8.7743    4.5791  -15.8251 C   0  0  0  0  0  0  0  0  0  0  0  0
   -9.0086    4.4111  -17.1810 C   0  0  0  0  0  0  0  0  0  0  0  0
  -10.5966    4.2049  -17.7497 Cl  0  0  0  0  0  0  0  0  0  0  0  0
   -7.9871    4.5485  -18.0955 C   0  0  0  0  0  0  0  0  0  0  0  0
   -6.7143    4.8857  -17.6523 C   0  0  0  0  0  0  0  0  0  0  0  0
   -5.7075    5.0777  -18.6036 C   0  0  0  0  0  0  0  0  0  0  0  0
   -4.4335    5.4128  -18.1941 C   0  0  0  0  0  0  0  0  0  0  0  0
   -4.2231    5.5396  -16.8375 C   0  0  0  0  0  0  0  0  0  0  0  0
   -5.1834    5.3774  -15.8955 N   0  0  0  0  0  0  0  0  0  0  0  0
   -6.4350    5.0602  -16.2708 C   0  0  0  0  0  0  0  0  0  0  0  0
  1  2  2  0
  2  3  1  0
  3  4  1  0
  4  5  1  0
  5  6  1  0
  5  7  1  0
  2  8  1  0
  8  9  1  1
  9 10  1  0
 10 11  2  0
 11 12  1  0
 12 13  2  0
 13 14  1  0
 14 15  2  0
 14 16  1  0
 16 17  1  0
 17 18  1  0
  8 19  1  0
 19 20  2  0
 20 21  1  0
 21 22  1  0
 21 23  2  0
 23 24  1  0
 24 25  2  0
 25 26  1  0
 26 27  2  0
 27 28  1  0
 28 29  2  0
 15 10  1  0
 29 19  1  0
 18 13  1  0
 29 24  1  0
M  END
>  <smiles>  (2249) 
C239-P262

>  <fragmenstein_outcome>  (2249) 
acceptable

>  <inchikey>  (2249) 
NANHWVFEXBOZDY-UHFFFAOYSA-N

>  <fragmenstein_mode>  (2249) 
expansion

>  <HIPPO Pose ID>  (2249) 
26946

>  <Energy>  (2249) 
125.995495

>  <fragmenstein_error>  (2249) 


>  <tags>  (2249) 
{'openbind_xx01zvns2b_c1_fragmenstein', 'fragmenstein_placed'}

>  <ref_pdb>  (2249) 
175

>  <scratch_subdir>  (2249) 
/opt/xchem-fragalysis-2/maxwin/BulkDock/SCRATCH/511028/C239-P262

>  <alias>  (2249) 
O=C(NCC(F)F)[C@H](Nc1ccc2c(c1)CNC2)c1cc(Cl)cc2cccnc12

>  <HIPPO Compound ID>  (2249) 
239

>  <fragmenstein_runtime>  (2249) 
5.035054

$$$$
CN[C@@H](N)c1cnc2c([C@@H](Nc3ccc4c(c3)CNC4)C(=O)NCC(F)F)cc(Cl)cc2c1
     RDKit          3D

 33 36  0  0  0  0  0  0  0  0999 V2000
   -2.9774    4.9901  -20.3035 C   0  0  0  0  0  0  0  0  0  0  0  0
   -3.7651    6.1985  -20.5362 N   0  0  0  0  0  0  0  0  0  0  0  0
   -4.0092    6.9053  -19.2952 C   0  0  1  0  0  0  0  0  0  0  0  0
   -4.7019    8.1009  -19.7315 N   0  0  0  0  0  0  0  0  0  0  0  0
   -4.8587    6.1631  -18.2983 C   0  0  0  0  0  0  0  0  0  0  0  0
   -4.5985    6.1862  -16.9343 C   0  0  0  0  0  0  0  0  0  0  0  0
   -5.4156    5.6720  -15.9730 N   0  0  0  0  0  0  0  0  0  0  0  0
   -6.5849    5.1268  -16.3468 C   0  0  0  0  0  0  0  0  0  0  0  0
   -7.5601    4.7326  -15.4131 C   0  0  0  0  0  0  0  0  0  0  0  0
   -7.3456    4.9246  -13.9031 C   0  0  1  0  0  0  0  0  0  0  0  0
   -8.4392    4.2565  -13.1221 N   0  0  0  0  0  0  0  0  0  0  0  0
   -8.3995    4.2972  -11.7156 C   0  0  0  0  0  0  0  0  0  0  0  0
   -8.0974    5.4706  -10.9991 C   0  0  0  0  0  0  0  0  0  0  0  0
   -8.1257    5.5000   -9.5970 C   0  0  0  0  0  0  0  0  0  0  0  0
   -8.4683    4.3446   -8.9206 C   0  0  0  0  0  0  0  0  0  0  0  0
   -8.7587    3.1757   -9.6101 C   0  0  0  0  0  0  0  0  0  0  0  0
   -8.7415    3.1395  -10.9944 C   0  0  0  0  0  0  0  0  0  0  0  0
   -9.0406    2.0842   -8.6305 C   0  0  0  0  0  0  0  0  0  0  0  0
   -9.2871    2.7838   -7.3402 N   0  0  0  0  0  0  0  0  0  0  0  0
   -8.5908    4.0849   -7.4571 C   0  0  0  0  0  0  0  0  0  0  0  0
   -5.9387    4.4749  -13.3517 C   0  0  0  0  0  0  0  0  0  0  0  0
   -5.1411    5.2465  -12.9782 O   0  0  0  0  0  0  0  0  0  0  0  0
   -5.9249    2.9179  -13.3261 N   0  0  0  0  0  0  0  0  0  0  0  0
   -4.9705    1.9971  -12.7501 C   0  0  0  0  0  0  0  0  0  0  0  0
   -3.5138    2.3021  -13.0725 C   0  0  0  0  0  0  0  0  0  0  0  0
   -3.2493    1.9625  -14.3614 F   0  0  0  0  0  0  0  0  0  0  0  0
   -2.6975    1.5240  -12.3093 F   0  0  0  0  0  0  0  0  0  0  0  0
   -8.8310    4.3513  -15.8987 C   0  0  0  0  0  0  0  0  0  0  0  0
   -9.1013    4.3049  -17.2607 C   0  0  0  0  0  0  0  0  0  0  0  0
  -10.6858    4.0986  -17.8405 Cl  0  0  0  0  0  0  0  0  0  0  0  0
   -8.1201    4.5745  -18.1812 C   0  0  0  0  0  0  0  0  0  0  0  0
   -6.8955    5.0271  -17.7278 C   0  0  0  0  0  0  0  0  0  0  0  0
   -6.0152    5.5075  -18.6848 C   0  0  0  0  0  0  0  0  0  0  0  0
  1  2  1  0
  2  3  1  0
  3  4  1  6
  3  5  1  0
  5  6  2  0
  6  7  1  0
  7  8  2  0
  8  9  1  0
  9 10  1  0
 10 11  1  1
 11 12  1  0
 12 13  2  0
 13 14  1  0
 14 15  2  0
 15 16  1  0
 16 17  2  0
 16 18  1  0
 18 19  1  0
 19 20  1  0
 10 21  1  0
 21 22  2  0
 21 23  1  0
 23 24  1  0
 24 25  1  0
 25 26  1  0
 25 27  1  0
  9 28  2  0
 28 29  1  0
 29 30  1  0
 29 31  2  0
 31 32  1  0
 32 33  2  0
 33  5  1  0
 32  8  1  0
 17 12  1  0
 20 15  1  0
M  END
>  <smiles>  (2250) 
C34167-P265

>  <fragmenstein_outcome>  (2250) 
acceptable

>  <inchikey>  (2250) 
ZUONQKHYLMEROW-UHFFFAOYSA-N

>  <fragmenstein_mode>  (2250) 
expansion

>  <HIPPO Pose ID>  (2250) 
26948

>  <Energy>  (2250) 
59.803234

>  <fragmenstein_error>  (2250) 


>  <tags>  (2250) 
{'openbind_xx01zvns2b_c1_fragmenstein', 'fragmenstein_placed'}

>  <ref_pdb>  (2250) 
175

>  <scratch_subdir>  (2250) 
/opt/xchem-fragalysis-2/maxwin/BulkDock/SCRATCH/511028/C34167-P265

>  <alias>  (2250) 
CN[C@@H](N)c1cnc2c([C@@H](Nc3ccc4c(c3)CNC4)C(=O)NCC(F)F)cc(Cl)cc2c1

>  <HIPPO Compound ID>  (2250) 
29547

>  <fragmenstein_runtime>  (2250) 
9.441778

$$$$
CNN(c1ccc2c(c1)CNC2)[C@H](C(=O)NCC(F)F)c1cc(Cl)cc2cccnc12
     RDKit          3D

 31 34  0  0  0  0  0  0  0  0999 V2000
   -6.2574    2.2232  -12.8050 C   0  0  0  0  0  0  0  0  0  0  0  0
   -7.4579    2.8505  -13.3495 N   0  0  0  0  0  0  0  0  0  0  0  0
   -7.6508    4.1932  -12.8463 N   0  0  0  0  0  0  0  0  0  0  0  0
   -7.8384    4.2668  -11.4388 C   0  0  0  0  0  0  0  0  0  0  0  0
   -7.2623    5.2564  -10.6170 C   0  0  0  0  0  0  0  0  0  0  0  0
   -7.4634    5.2919   -9.2248 C   0  0  0  0  0  0  0  0  0  0  0  0
   -8.1896    4.2803   -8.6322 C   0  0  0  0  0  0  0  0  0  0  0  0
   -8.7372    3.2704   -9.3998 C   0  0  0  0  0  0  0  0  0  0  0  0
   -8.6164    3.2787  -10.7824 C   0  0  0  0  0  0  0  0  0  0  0  0
   -9.4133    2.2818   -8.5123 C   0  0  0  0  0  0  0  0  0  0  0  0
   -9.0426    2.6618   -7.1229 N   0  0  0  0  0  0  0  0  0  0  0  0
   -8.5209    4.0446   -7.1990 C   0  0  0  0  0  0  0  0  0  0  0  0
   -6.9154    5.2302  -13.7049 C   0  0  2  0  0  0  0  0  0  0  0  0
   -7.1573    6.7429  -13.3548 C   0  0  0  0  0  0  0  0  0  0  0  0
   -6.3141    7.5376  -13.5114 O   0  0  0  0  0  0  0  0  0  0  0  0
   -8.6051    6.9061  -12.8250 N   0  0  0  0  0  0  0  0  0  0  0  0
   -9.2857    8.0683  -12.2873 C   0  0  0  0  0  0  0  0  0  0  0  0
   -8.4978    9.3796  -12.2897 C   0  0  0  0  0  0  0  0  0  0  0  0
   -8.5175    9.9451  -13.5228 F   0  0  0  0  0  0  0  0  0  0  0  0
   -9.1208   10.2666  -11.4645 F   0  0  0  0  0  0  0  0  0  0  0  0
   -7.2095    5.0157  -15.2113 C   0  0  0  0  0  0  0  0  0  0  0  0
   -8.5004    4.6599  -15.6599 C   0  0  0  0  0  0  0  0  0  0  0  0
   -8.7540    4.4864  -17.0187 C   0  0  0  0  0  0  0  0  0  0  0  0
  -10.3251    4.1589  -17.5973 Cl  0  0  0  0  0  0  0  0  0  0  0  0
   -7.7587    4.6720  -17.9563 C   0  0  0  0  0  0  0  0  0  0  0  0
   -6.4897    5.0418  -17.5359 C   0  0  0  0  0  0  0  0  0  0  0  0
   -5.5036    5.2604  -18.5007 C   0  0  0  0  0  0  0  0  0  0  0  0
   -4.2356    5.6306  -18.1033 C   0  0  0  0  0  0  0  0  0  0  0  0
   -4.0116    5.7639  -16.7469 C   0  0  0  0  0  0  0  0  0  0  0  0
   -4.9476    5.5628  -15.7884 N   0  0  0  0  0  0  0  0  0  0  0  0
   -6.1891    5.2101  -16.1582 C   0  0  0  0  0  0  0  0  0  0  0  0
  1  2  1  0
  2  3  1  0
  3  4  1  0
  4  5  2  0
  5  6  1  0
  6  7  2  0
  7  8  1  0
  8  9  2  0
  8 10  1  0
 10 11  1  0
 11 12  1  0
 13  3  1  1
 13 14  1  0
 14 15  2  0
 14 16  1  0
 16 17  1  0
 17 18  1  0
 18 19  1  0
 18 20  1  0
 13 21  1  0
 21 22  2  0
 22 23  1  0
 23 24  1  0
 23 25  2  0
 25 26  1  0
 26 27  2  0
 27 28  1  0
 28 29  2  0
 29 30  1  0
 30 31  2  0
  9  4  1  0
 31 21  1  0
 12  7  1  0
 31 26  1  0
M  END
>  <smiles>  (2251) 
C34190-P262

>  <fragmenstein_outcome>  (2251) 
acceptable

>  <inchikey>  (2251) 
MPZWTOHSFMUFDK-UHFFFAOYSA-N

>  <fragmenstein_mode>  (2251) 
expansion

>  <HIPPO Pose ID>  (2251) 
26959

>  <Energy>  (2251) 
183.288881

>  <fragmenstein_error>  (2251) 


>  <tags>  (2251) 
{'openbind_xx01zvns2b_c1_fragmenstein', 'fragmenstein_placed'}

>  <ref_pdb>  (2251) 
175

>  <scratch_subdir>  (2251) 
/opt/xchem-fragalysis-2/maxwin/BulkDock/SCRATCH/511028/C34190-P262

>  <alias>  (2251) 
CNN(c1ccc2c(c1)CNC2)[C@H](C(=O)NCC(F)F)c1cc(Cl)cc2cccnc12

>  <HIPPO Compound ID>  (2251) 
40308

>  <fragmenstein_runtime>  (2251) 
5.738343

$$$$
O=C(NCC(F)F)[C@H](Nc1ccc2c(c1)CNC2)c1cc(Cl)cc2c1N(CO)CC[C@@]21CCNC1
     RDKit          3D

 35 39  0  0  0  0  0  0  0  0999 V2000
   -6.9958    1.7511  -13.1600 O   0  0  0  0  0  0  0  0  0  0  0  0
   -6.4311    2.7646  -13.3203 C   0  0  0  0  0  0  0  0  0  0  0  0
   -4.9042    3.0804  -13.3218 N   0  0  0  0  0  0  0  0  0  0  0  0
   -3.7645    2.1989  -13.2214 C   0  0  0  0  0  0  0  0  0  0  0  0
   -3.5164    1.6405  -11.8239 C   0  0  0  0  0  0  0  0  0  0  0  0
   -2.4238    0.8261  -11.8730 F   0  0  0  0  0  0  0  0  0  0  0  0
   -3.1692    2.6654  -10.9935 F   0  0  0  0  0  0  0  0  0  0  0  0
   -7.1711    4.1574  -13.4776 C   0  0  2  0  0  0  0  0  0  0  0  0
   -8.5231    4.1042  -12.8509 N   0  0  0  0  0  0  0  0  0  0  0  0
   -8.5034    4.1435  -11.4364 C   0  0  0  0  0  0  0  0  0  0  0  0
   -8.1710    5.3256  -10.7479 C   0  0  0  0  0  0  0  0  0  0  0  0
   -8.1742    5.3740   -9.3474 C   0  0  0  0  0  0  0  0  0  0  0  0
   -8.5119    4.2269   -8.6510 C   0  0  0  0  0  0  0  0  0  0  0  0
   -8.8283    3.0554   -9.3224 C   0  0  0  0  0  0  0  0  0  0  0  0
   -8.8266    2.9951  -10.7041 C   0  0  0  0  0  0  0  0  0  0  0  0
   -9.1110    1.9716   -8.3410 C   0  0  0  0  0  0  0  0  0  0  0  0
   -9.1923    2.6412   -7.0163 N   0  0  0  0  0  0  0  0  0  0  0  0
   -8.6032    3.9865   -7.1822 C   0  0  0  0  0  0  0  0  0  0  0  0
   -7.2705    4.5687  -14.9572 C   0  0  0  0  0  0  0  0  0  0  0  0
   -8.4540    4.2915  -15.6623 C   0  0  0  0  0  0  0  0  0  0  0  0
   -8.5323    4.4798  -17.0306 C   0  0  0  0  0  0  0  0  0  0  0  0
  -10.0149    4.1812  -17.8298 Cl  0  0  0  0  0  0  0  0  0  0  0  0
   -7.4288    4.9160  -17.7468 C   0  0  0  0  0  0  0  0  0  0  0  0
   -6.2205    5.2050  -17.0913 C   0  0  0  0  0  0  0  0  0  0  0  0
   -6.1642    5.1225  -15.6710 C   0  0  0  0  0  0  0  0  0  0  0  0
   -5.0384    5.6093  -14.9634 N   0  0  0  0  0  0  0  0  0  0  0  0
   -5.3499    6.8493  -14.2263 C   0  0  0  0  0  0  0  0  0  0  0  0
   -5.3605    7.9664  -15.0984 O   0  0  0  0  0  0  0  0  0  0  0  0
   -3.7449    5.6861  -15.6723 C   0  0  0  0  0  0  0  0  0  0  0  0
   -3.7583    5.1124  -17.0772 C   0  0  0  0  0  0  0  0  0  0  0  0
   -4.9758    5.5860  -17.8900 C   0  0  1  0  0  0  0  0  0  0  0  0
   -4.8752    4.9670  -19.3137 C   0  0  0  0  0  0  0  0  0  0  0  0
   -4.9263    6.1408  -20.2781 C   0  0  0  0  0  0  0  0  0  0  0  0
   -4.2858    7.2022  -19.5184 N   0  0  0  0  0  0  0  0  0  0  0  0
   -4.9160    7.0958  -18.1963 C   0  0  0  0  0  0  0  0  0  0  0  0
  1  2  2  0
  2  3  1  0
  3  4  1  0
  4  5  1  0
  5  6  1  0
  5  7  1  0
  2  8  1  0
  8  9  1  6
  9 10  1  0
 10 11  2  0
 11 12  1  0
 12 13  2  0
 13 14  1  0
 14 15  2  0
 14 16  1  0
 16 17  1  0
 17 18  1  0
  8 19  1  0
 19 20  2  0
 20 21  1  0
 21 22  1  0
 21 23  2  0
 23 24  1  0
 24 25  2  0
 25 26  1  0
 26 27  1  0
 27 28  1  0
 26 29  1  0
 29 30  1  0
 31 30  1  1
 31 32  1  0
 32 33  1  0
 33 34  1  0
 34 35  1  0
 15 10  1  0
 25 19  1  0
 35 31  1  0
 18 13  1  0
 31 24  1  0
M  END
>  <smiles>  (2252) 
C34191-P262

>  <fragmenstein_outcome>  (2252) 
acceptable

>  <inchikey>  (2252) 
FAKVZYVRCODTRY-UHFFFAOYSA-N

>  <fragmenstein_mode>  (2252) 
expansion

>  <HIPPO Pose ID>  (2252) 
26960

>  <Energy>  (2252) 
114.562543

>  <fragmenstein_error>  (2252) 


>  <tags>  (2252) 
{'openbind_xx01zvns2b_c1_fragmenstein', 'fragmenstein_placed'}

>  <ref_pdb>  (2252) 
175

>  <scratch_subdir>  (2252) 
/opt/xchem-fragalysis-2/maxwin/BulkDock/SCRATCH/511028/C34191-P262

>  <alias>  (2252) 
O=C(NCC(F)F)[C@H](Nc1ccc2c(c1)CNC2)c1cc(Cl)cc2c1N(CO)CC[C@@]21CCNC1

>  <HIPPO Compound ID>  (2252) 
35094

>  <fragmenstein_runtime>  (2252) 
11.705844

$$$$
COc1cnc2c([C@@](C=O)(Nc3ccc4c(c3)CNC4)C(=O)NCC(F)F)cc(Cl)cc2c1
     RDKit          3D

 33 36  0  0  0  0  0  0  0  0999 V2000
   -4.2256    6.5586  -20.4998 C   0  0  0  0  0  0  0  0  0  0  0  0
   -3.7814    6.3649  -19.1597 O   0  0  0  0  0  0  0  0  0  0  0  0
   -4.6883    5.8608  -18.2763 C   0  0  0  0  0  0  0  0  0  0  0  0
   -4.3862    5.8941  -16.9211 C   0  0  0  0  0  0  0  0  0  0  0  0
   -5.2289    5.5160  -15.9120 N   0  0  0  0  0  0  0  0  0  0  0  0
   -6.4580    5.0869  -16.2233 C   0  0  0  0  0  0  0  0  0  0  0  0
   -7.4478    4.8104  -15.2512 C   0  0  0  0  0  0  0  0  0  0  0  0
   -7.2334    5.1109  -13.7323 C   0  0  1  0  0  0  0  0  0  0  0  0
   -7.6089    6.5945  -13.5441 C   0  0  0  0  0  0  0  0  0  0  0  0
   -6.9360    7.5772  -13.8484 O   0  0  0  0  0  0  0  0  0  0  0  0
   -8.2170    4.2738  -12.9227 N   0  0  0  0  0  0  0  0  0  0  0  0
   -8.2239    4.2418  -11.5147 C   0  0  0  0  0  0  0  0  0  0  0  0
   -7.9046    5.3425  -10.6930 C   0  0  0  0  0  0  0  0  0  0  0  0
   -8.0479    5.3001   -9.2959 C   0  0  0  0  0  0  0  0  0  0  0  0
   -8.5040    4.1368   -8.7154 C   0  0  0  0  0  0  0  0  0  0  0  0
   -8.7898    3.0280   -9.4962 C   0  0  0  0  0  0  0  0  0  0  0  0
   -8.6842    3.0732  -10.8798 C   0  0  0  0  0  0  0  0  0  0  0  0
   -9.1479    1.8889   -8.6001 C   0  0  0  0  0  0  0  0  0  0  0  0
   -9.4684    2.5119   -7.2912 N   0  0  0  0  0  0  0  0  0  0  0  0
   -8.7524    3.8067   -7.2813 C   0  0  0  0  0  0  0  0  0  0  0  0
   -5.7773    4.7969  -13.1941 C   0  0  0  0  0  0  0  0  0  0  0  0
   -5.0860    5.6158  -12.7239 O   0  0  0  0  0  0  0  0  0  0  0  0
   -5.5683    3.2569  -13.3336 N   0  0  0  0  0  0  0  0  0  0  0  0
   -4.4285    2.4333  -13.0088 C   0  0  0  0  0  0  0  0  0  0  0  0
   -3.1281    2.9327  -13.6192 C   0  0  0  0  0  0  0  0  0  0  0  0
   -2.1084    2.1085  -13.2581 F   0  0  0  0  0  0  0  0  0  0  0  0
   -3.2167    2.8542  -14.9734 F   0  0  0  0  0  0  0  0  0  0  0  0
   -8.7432    4.4560  -15.7023 C   0  0  0  0  0  0  0  0  0  0  0  0
   -9.0274    4.3476  -17.0597 C   0  0  0  0  0  0  0  0  0  0  0  0
  -10.6181    4.1668  -17.6365 Cl  0  0  0  0  0  0  0  0  0  0  0  0
   -8.0543    4.5547  -18.0049 C   0  0  0  0  0  0  0  0  0  0  0  0
   -6.8009    4.9634  -17.5982 C   0  0  0  0  0  0  0  0  0  0  0  0
   -5.9138    5.3347  -18.6066 C   0  0  0  0  0  0  0  0  0  0  0  0
  1  2  1  0
  2  3  1  0
  3  4  2  0
  4  5  1  0
  5  6  2  0
  6  7  1  0
  7  8  1  0
  8  9  1  0
  9 10  2  0
  8 11  1  1
 11 12  1  0
 12 13  2  0
 13 14  1  0
 14 15  2  0
 15 16  1  0
 16 17  2  0
 16 18  1  0
 18 19  1  0
 19 20  1  0
  8 21  1  0
 21 22  2  0
 21 23  1  0
 23 24  1  0
 24 25  1  0
 25 26  1  0
 25 27  1  0
  7 28  2  0
 28 29  1  0
 29 30  1  0
 29 31  2  0
 31 32  1  0
 32 33  2  0
 33  3  1  0
 32  6  1  0
 17 12  1  0
 20 15  1  0
M  END
>  <smiles>  (2253) 
C34195-P262

>  <fragmenstein_outcome>  (2253) 
acceptable

>  <inchikey>  (2253) 
YEGCDVBSAQLEAA-UHFFFAOYSA-N

>  <fragmenstein_mode>  (2253) 
expansion

>  <HIPPO Pose ID>  (2253) 
26963

>  <Energy>  (2253) 
188.268999

>  <fragmenstein_error>  (2253) 


>  <tags>  (2253) 
{'openbind_xx01zvns2b_c1_fragmenstein', 'fragmenstein_placed'}

>  <ref_pdb>  (2253) 
175

>  <scratch_subdir>  (2253) 
/opt/xchem-fragalysis-2/maxwin/BulkDock/SCRATCH/511028/C34195-P262

>  <alias>  (2253) 
COc1cnc2c([C@@](C=O)(Nc3ccc4c(c3)CNC4)C(=O)NCC(F)F)cc(Cl)cc2c1

>  <HIPPO Compound ID>  (2253) 
34195

>  <fragmenstein_runtime>  (2253) 
7.391118

$$$$
COCc1cnc2c([C@](C=O)(Nc3ccc4c(c3)CNC4)C(=O)NCC(F)F)cc(Cl)cc2c1
     RDKit          3D

 34 37  0  0  0  0  0  0  0  0999 V2000
   -2.3162    4.9313  -19.8069 C   0  0  0  0  0  0  0  0  0  0  0  0
   -3.4115    5.4370  -20.5615 O   0  0  0  0  0  0  0  0  0  0  0  0
   -4.0698    6.5044  -19.8652 C   0  0  0  0  0  0  0  0  0  0  0  0
   -4.8782    6.0007  -18.7060 C   0  0  0  0  0  0  0  0  0  0  0  0
   -4.5336    6.1929  -17.3753 C   0  0  0  0  0  0  0  0  0  0  0  0
   -5.3002    5.8268  -16.3049 N   0  0  0  0  0  0  0  0  0  0  0  0
   -6.5022    5.2523  -16.5402 C   0  0  0  0  0  0  0  0  0  0  0  0
   -7.4325    4.9682  -15.5140 C   0  0  0  0  0  0  0  0  0  0  0  0
   -7.1157    5.2474  -14.0158 C   0  0  2  0  0  0  0  0  0  0  0  0
   -5.7294    4.7449  -13.5836 C   0  0  0  0  0  0  0  0  0  0  0  0
   -5.1427    3.7641  -14.0408 O   0  0  0  0  0  0  0  0  0  0  0  0
   -8.0957    4.4485  -13.1676 N   0  0  0  0  0  0  0  0  0  0  0  0
   -8.1025    4.3950  -11.7636 C   0  0  0  0  0  0  0  0  0  0  0  0
   -7.8593    5.4945  -10.9193 C   0  0  0  0  0  0  0  0  0  0  0  0
   -8.0226    5.4282   -9.5262 C   0  0  0  0  0  0  0  0  0  0  0  0
   -8.4272    4.2375   -8.9677 C   0  0  0  0  0  0  0  0  0  0  0  0
   -8.6487    3.1272   -9.7655 C   0  0  0  0  0  0  0  0  0  0  0  0
   -8.5121    3.1958  -11.1470 C   0  0  0  0  0  0  0  0  0  0  0  0
   -9.0149    1.9739   -8.8881 C   0  0  0  0  0  0  0  0  0  0  0  0
   -9.3832    2.5794   -7.5800 N   0  0  0  0  0  0  0  0  0  0  0  0
   -8.6951    3.8874   -7.5431 C   0  0  0  0  0  0  0  0  0  0  0  0
   -7.2829    6.8323  -13.7884 C   0  0  0  0  0  0  0  0  0  0  0  0
   -8.2451    7.2656  -13.2797 O   0  0  0  0  0  0  0  0  0  0  0  0
   -5.9913    7.5542  -14.2876 N   0  0  0  0  0  0  0  0  0  0  0  0
   -5.5854    8.9399  -14.1743 C   0  0  0  0  0  0  0  0  0  0  0  0
   -4.7845    9.4694  -15.3590 C   0  0  0  0  0  0  0  0  0  0  0  0
   -5.5107    9.4094  -16.5039 F   0  0  0  0  0  0  0  0  0  0  0  0
   -3.6767    8.7093  -15.5559 F   0  0  0  0  0  0  0  0  0  0  0  0
   -8.7391    4.5612  -15.8771 C   0  0  0  0  0  0  0  0  0  0  0  0
   -9.0828    4.3645  -17.2064 C   0  0  0  0  0  0  0  0  0  0  0  0
  -10.7050    4.1685  -17.6794 Cl  0  0  0  0  0  0  0  0  0  0  0  0
   -8.1460    4.5049  -18.2007 C   0  0  0  0  0  0  0  0  0  0  0  0
   -6.8925    4.9946  -17.8797 C   0  0  0  0  0  0  0  0  0  0  0  0
   -6.0600    5.3303  -18.9401 C   0  0  0  0  0  0  0  0  0  0  0  0
  1  2  1  0
  2  3  1  0
  3  4  1  0
  4  5  2  0
  5  6  1  0
  6  7  2  0
  7  8  1  0
  8  9  1  0
  9 10  1  0
 10 11  2  0
  9 12  1  1
 12 13  1  0
 13 14  2  0
 14 15  1  0
 15 16  2  0
 16 17  1  0
 17 18  2  0
 17 19  1  0
 19 20  1  0
 20 21  1  0
  9 22  1  0
 22 23  2  0
 22 24  1  0
 24 25  1  0
 25 26  1  0
 26 27  1  0
 26 28  1  0
  8 29  2  0
 29 30  1  0
 30 31  1  0
 30 32  2  0
 32 33  1  0
 33 34  2  0
 34  4  1  0
 33  7  1  0
 18 13  1  0
 21 16  1  0
M  END
>  <smiles>  (2254) 
C34197-P262

>  <fragmenstein_outcome>  (2254) 
acceptable

>  <inchikey>  (2254) 
WFNHQCAZKZWAIY-UHFFFAOYSA-N

>  <fragmenstein_mode>  (2254) 
expansion

>  <HIPPO Pose ID>  (2254) 
26964

>  <Energy>  (2254) 
181.830416

>  <fragmenstein_error>  (2254) 


>  <tags>  (2254) 
{'openbind_xx01zvns2b_c1_fragmenstein', 'fragmenstein_placed'}

>  <ref_pdb>  (2254) 
175

>  <scratch_subdir>  (2254) 
/opt/xchem-fragalysis-2/maxwin/BulkDock/SCRATCH/511028/C34197-P262

>  <alias>  (2254) 
COCc1cnc2c([C@](C=O)(Nc3ccc4c(c3)CNC4)C(=O)NCC(F)F)cc(Cl)cc2c1

>  <HIPPO Compound ID>  (2254) 
32884

>  <fragmenstein_runtime>  (2254) 
13.08183

$$$$
CS(=O)(=O)c1cc2c(cc1N[C@@](O)(C(=O)NCC(F)F)c1cc(Cl)cc3cccnc13)CNC2
     RDKit          3D

 34 37  0  0  0  0  0  0  0  0999 V2000
   -8.5303    8.4126  -10.0715 C   0  0  0  0  0  0  0  0  0  0  0  0
   -7.4028    7.4552  -11.0571 S   0  0  0  0  0  0  0  0  0  0  0  0
   -6.0682    7.6777  -10.5355 O   0  0  0  0  0  0  0  0  0  0  0  0
   -7.7306    7.8244  -12.4165 O   0  0  0  0  0  0  0  0  0  0  0  0
   -7.8152    5.7381  -10.7535 C   0  0  0  0  0  0  0  0  0  0  0  0
   -7.9869    5.5308   -9.3561 C   0  0  0  0  0  0  0  0  0  0  0  0
   -8.3897    4.3129   -8.8686 C   0  0  0  0  0  0  0  0  0  0  0  0
   -8.5900    3.2633   -9.7278 C   0  0  0  0  0  0  0  0  0  0  0  0
   -8.3889    3.4181  -11.0932 C   0  0  0  0  0  0  0  0  0  0  0  0
   -7.9973    4.6648  -11.6775 C   0  0  0  0  0  0  0  0  0  0  0  0
   -7.7098    4.5152  -13.0418 N   0  0  0  0  0  0  0  0  0  0  0  0
   -7.3078    5.4907  -14.0691 C   0  0  1  0  0  0  0  0  0  0  0  0
   -8.3785    6.4031  -14.1537 O   0  0  0  0  0  0  0  0  0  0  0  0
   -5.8361    6.0881  -13.7142 C   0  0  0  0  0  0  0  0  0  0  0  0
   -5.4949    7.1705  -14.0087 O   0  0  0  0  0  0  0  0  0  0  0  0
   -5.0453    4.9305  -13.0253 N   0  0  0  0  0  0  0  0  0  0  0  0
   -3.7110    4.9047  -12.4771 C   0  0  0  0  0  0  0  0  0  0  0  0
   -3.4956    5.8129  -11.2728 C   0  0  0  0  0  0  0  0  0  0  0  0
   -2.1668    5.8372  -10.9710 F   0  0  0  0  0  0  0  0  0  0  0  0
   -4.1164    5.2896  -10.1830 F   0  0  0  0  0  0  0  0  0  0  0  0
   -7.3828    4.8908  -15.4979 C   0  0  0  0  0  0  0  0  0  0  0  0
   -8.6729    4.5013  -15.9424 C   0  0  0  0  0  0  0  0  0  0  0  0
   -8.9498    4.3410  -17.2877 C   0  0  0  0  0  0  0  0  0  0  0  0
  -10.5729    4.2163  -17.7942 Cl  0  0  0  0  0  0  0  0  0  0  0  0
   -7.9482    4.4665  -18.2254 C   0  0  0  0  0  0  0  0  0  0  0  0
   -6.6563    4.7891  -17.8163 C   0  0  0  0  0  0  0  0  0  0  0  0
   -5.6709    4.9729  -18.7937 C   0  0  0  0  0  0  0  0  0  0  0  0
   -4.3835    5.3066  -18.4225 C   0  0  0  0  0  0  0  0  0  0  0  0
   -4.1333    5.4315  -17.0738 C   0  0  0  0  0  0  0  0  0  0  0  0
   -5.0672    5.2647  -16.1080 N   0  0  0  0  0  0  0  0  0  0  0  0
   -6.3388    4.9775  -16.4450 C   0  0  0  0  0  0  0  0  0  0  0  0
   -8.9384    2.0455   -8.9403 C   0  0  0  0  0  0  0  0  0  0  0  0
   -9.1181    2.5002   -7.5353 N   0  0  0  0  0  0  0  0  0  0  0  0
   -8.6255    3.8887   -7.4629 C   0  0  0  0  0  0  0  0  0  0  0  0
  1  2  1  0
  2  3  2  0
  2  4  2  0
  2  5  1  0
  5  6  2  0
  6  7  1  0
  7  8  2  0
  8  9  1  0
  9 10  2  0
 10 11  1  0
 11 12  1  0
 12 13  1  6
 12 14  1  0
 14 15  2  0
 14 16  1  0
 16 17  1  0
 17 18  1  0
 18 19  1  0
 18 20  1  0
 12 21  1  0
 21 22  2  0
 22 23  1  0
 23 24  1  0
 23 25  2  0
 25 26  1  0
 26 27  2  0
 27 28  1  0
 28 29  2  0
 29 30  1  0
 30 31  2  0
  8 32  1  0
 32 33  1  0
 33 34  1  0
 10  5  1  0
 31 21  1  0
 34  7  1  0
 31 26  1  0
M  END
>  <smiles>  (2255) 
C34202-P262

>  <fragmenstein_outcome>  (2255) 
acceptable

>  <inchikey>  (2255) 
ZXGUOXWYKRAGJB-UHFFFAOYSA-N

>  <fragmenstein_mode>  (2255) 
expansion

>  <HIPPO Pose ID>  (2255) 
26967

>  <Energy>  (2255) 
181.815925

>  <fragmenstein_error>  (2255) 


>  <tags>  (2255) 
{'openbind_xx01zvns2b_c1_fragmenstein', 'fragmenstein_placed'}

>  <ref_pdb>  (2255) 
175

>  <scratch_subdir>  (2255) 
/opt/xchem-fragalysis-2/maxwin/BulkDock/SCRATCH/511028/C34202-P262

>  <alias>  (2255) 
CS(=O)(=O)c1cc2c(cc1N[C@@](O)(C(=O)NCC(F)F)c1cc(Cl)cc3cccnc13)CNC2

>  <HIPPO Compound ID>  (2255) 
34482

>  <fragmenstein_runtime>  (2255) 
6.131685

$$$$
O=C(NCC(F)F)[C@@](O)(Nc1ccc2c(c1)CNC2)c1cc(Cl)cc2cccnc12
     RDKit          3D

 30 33  0  0  0  0  0  0  0  0999 V2000
   -5.0536    5.2448  -12.7186 O   0  0  0  0  0  0  0  0  0  0  0  0
   -6.0489    5.5229  -13.2726 C   0  0  0  0  0  0  0  0  0  0  0  0
   -6.6599    6.9188  -13.6143 N   0  0  0  0  0  0  0  0  0  0  0  0
   -6.1250    8.2462  -13.4282 C   0  0  0  0  0  0  0  0  0  0  0  0
   -4.9479    8.5551  -14.3474 C   0  0  0  0  0  0  0  0  0  0  0  0
   -4.3936    9.7426  -13.9844 F   0  0  0  0  0  0  0  0  0  0  0  0
   -5.3962    8.7277  -15.6212 F   0  0  0  0  0  0  0  0  0  0  0  0
   -7.0603    4.3912  -13.8252 C   0  0  1  0  0  0  0  0  0  0  0  0
   -6.5614    3.0810  -13.6366 O   0  0  0  0  0  0  0  0  0  0  0  0
   -8.3608    4.4334  -13.1024 N   0  0  0  0  0  0  0  0  0  0  0  0
   -8.3484    4.4188  -11.6894 C   0  0  0  0  0  0  0  0  0  0  0  0
   -8.1583    5.6036  -10.9538 C   0  0  0  0  0  0  0  0  0  0  0  0
   -8.2071    5.6121   -9.5554 C   0  0  0  0  0  0  0  0  0  0  0  0
   -8.4765    4.4241   -8.9052 C   0  0  0  0  0  0  0  0  0  0  0  0
   -8.6601    3.2446   -9.6158 C   0  0  0  0  0  0  0  0  0  0  0  0
   -8.5788    3.2194  -10.9976 C   0  0  0  0  0  0  0  0  0  0  0  0
   -8.9410    2.1308   -8.6608 C   0  0  0  0  0  0  0  0  0  0  0  0
   -9.2451    2.8006   -7.3670 N   0  0  0  0  0  0  0  0  0  0  0  0
   -8.6266    4.1419   -7.4491 C   0  0  0  0  0  0  0  0  0  0  0  0
   -7.3248    4.5487  -15.3433 C   0  0  0  0  0  0  0  0  0  0  0  0
   -8.6263    4.3485  -15.8613 C   0  0  0  0  0  0  0  0  0  0  0  0
   -8.8779    4.4010  -17.2222 C   0  0  0  0  0  0  0  0  0  0  0  0
  -10.4804    4.2680  -17.7941 Cl  0  0  0  0  0  0  0  0  0  0  0  0
   -7.8529    4.6440  -18.1098 C   0  0  0  0  0  0  0  0  0  0  0  0
   -6.5693    4.8903  -17.6316 C   0  0  0  0  0  0  0  0  0  0  0  0
   -5.5564    5.1869  -18.5489 C   0  0  0  0  0  0  0  0  0  0  0  0
   -4.2749    5.4334  -18.0983 C   0  0  0  0  0  0  0  0  0  0  0  0
   -4.0635    5.3800  -16.7358 C   0  0  0  0  0  0  0  0  0  0  0  0
   -5.0256    5.1064  -15.8218 N   0  0  0  0  0  0  0  0  0  0  0  0
   -6.2788    4.8471  -16.2422 C   0  0  0  0  0  0  0  0  0  0  0  0
  1  2  2  0
  2  3  1  0
  3  4  1  0
  4  5  1  0
  5  6  1  0
  5  7  1  0
  2  8  1  0
  8  9  1  6
  8 10  1  0
 10 11  1  0
 11 12  2  0
 12 13  1  0
 13 14  2  0
 14 15  1  0
 15 16  2  0
 15 17  1  0
 17 18  1  0
 18 19  1  0
  8 20  1  0
 20 21  2  0
 21 22  1  0
 22 23  1  0
 22 24  2  0
 24 25  1  0
 25 26  2  0
 26 27  1  0
 27 28  2  0
 28 29  1  0
 29 30  2  0
 16 11  1  0
 30 20  1  0
 19 14  1  0
 30 25  1  0
M  END
>  <smiles>  (2256) 
C34205-P262

>  <fragmenstein_outcome>  (2256) 
acceptable

>  <inchikey>  (2256) 
XFKCUIKRNAYBMP-UHFFFAOYSA-N

>  <fragmenstein_mode>  (2256) 
expansion

>  <HIPPO Pose ID>  (2256) 
26971

>  <Energy>  (2256) 
118.60113

>  <fragmenstein_error>  (2256) 


>  <tags>  (2256) 
{'openbind_xx01zvns2b_c1_fragmenstein', 'fragmenstein_placed'}

>  <ref_pdb>  (2256) 
175

>  <scratch_subdir>  (2256) 
/opt/xchem-fragalysis-2/maxwin/BulkDock/SCRATCH/511028/C34205-P262

>  <alias>  (2256) 
O=C(NCC(F)F)[C@@](O)(Nc1ccc2c(c1)CNC2)c1cc(Cl)cc2cccnc12

>  <HIPPO Compound ID>  (2256) 
35161

>  <fragmenstein_runtime>  (2256) 
5.511444

$$$$
Cc1cc2c(c(N)c1N[C@](O)(C(=O)NCC(F)F)c1cc(Cl)cc3cccnc13)CNC2
     RDKit          3D

 32 35  0  0  0  0  0  0  0  0999 V2000
   -8.3733    7.2303  -11.3187 C   0  0  0  0  0  0  0  0  0  0  0  0
   -8.3179    5.8431  -10.7517 C   0  0  0  0  0  0  0  0  0  0  0  0
   -8.3805    5.7294   -9.3455 C   0  0  0  0  0  0  0  0  0  0  0  0
   -8.5356    4.4819   -8.7687 C   0  0  0  0  0  0  0  0  0  0  0  0
   -8.5537    3.3353   -9.5447 C   0  0  0  0  0  0  0  0  0  0  0  0
   -8.3322    3.4055  -10.9088 C   0  0  0  0  0  0  0  0  0  0  0  0
   -8.4000    2.2530  -11.7118 N   0  0  0  0  0  0  0  0  0  0  0  0
   -8.2825    4.6775  -11.5484 C   0  0  0  0  0  0  0  0  0  0  0  0
   -8.2905    4.7128  -12.9798 N   0  0  0  0  0  0  0  0  0  0  0  0
   -7.0037    4.6539  -13.7394 C   0  0  2  0  0  0  0  0  0  0  0  0
   -6.4729    3.3605  -13.5623 O   0  0  0  0  0  0  0  0  0  0  0  0
   -5.9812    5.8080  -13.2440 C   0  0  0  0  0  0  0  0  0  0  0  0
   -5.0151    5.5566  -12.6286 O   0  0  0  0  0  0  0  0  0  0  0  0
   -6.4948    7.1714  -13.8082 N   0  0  0  0  0  0  0  0  0  0  0  0
   -5.9739    8.5071  -13.6474 C   0  0  0  0  0  0  0  0  0  0  0  0
   -4.8349    8.8191  -14.6112 C   0  0  0  0  0  0  0  0  0  0  0  0
   -5.3324    8.9872  -15.8677 F   0  0  0  0  0  0  0  0  0  0  0  0
   -4.2721   10.0102  -14.2727 F   0  0  0  0  0  0  0  0  0  0  0  0
   -7.3130    4.7242  -15.2651 C   0  0  0  0  0  0  0  0  0  0  0  0
   -8.6186    4.4580  -15.7507 C   0  0  0  0  0  0  0  0  0  0  0  0
   -8.8910    4.4320  -17.1132 C   0  0  0  0  0  0  0  0  0  0  0  0
  -10.4842    4.2194  -17.6875 Cl  0  0  0  0  0  0  0  0  0  0  0  0
   -7.8894    4.6604  -18.0310 C   0  0  0  0  0  0  0  0  0  0  0  0
   -6.6059    4.9515  -17.5876 C   0  0  0  0  0  0  0  0  0  0  0  0
   -5.6206    5.2219  -18.5412 C   0  0  0  0  0  0  0  0  0  0  0  0
   -4.3342    5.5064  -18.1322 C   0  0  0  0  0  0  0  0  0  0  0  0
   -4.0919    5.5137  -16.7741 C   0  0  0  0  0  0  0  0  0  0  0  0
   -5.0295    5.2743  -15.8263 N   0  0  0  0  0  0  0  0  0  0  0  0
   -6.2884    4.9809  -16.2028 C   0  0  0  0  0  0  0  0  0  0  0  0
   -8.8493    2.1587   -8.6699 C   0  0  0  0  0  0  0  0  0  0  0  0
   -9.2750    2.7320   -7.3653 N   0  0  0  0  0  0  0  0  0  0  0  0
   -8.7383    4.1075   -7.3395 C   0  0  0  0  0  0  0  0  0  0  0  0
  1  2  1  0
  2  3  2  0
  3  4  1  0
  4  5  2  0
  5  6  1  0
  6  7  1  0
  6  8  2  0
  8  9  1  0
  9 10  1  0
 10 11  1  6
 10 12  1  0
 12 13  2  0
 12 14  1  0
 14 15  1  0
 15 16  1  0
 16 17  1  0
 16 18  1  0
 10 19  1  0
 19 20  2  0
 20 21  1  0
 21 22  1  0
 21 23  2  0
 23 24  1  0
 24 25  2  0
 25 26  1  0
 26 27  2  0
 27 28  1  0
 28 29  2  0
  5 30  1  0
 30 31  1  0
 31 32  1  0
  8  2  1  0
 29 19  1  0
 32  4  1  0
 29 24  1  0
M  END
>  <smiles>  (2257) 
C34212-P262

>  <fragmenstein_outcome>  (2257) 
acceptable

>  <inchikey>  (2257) 
NTMRWQMYPGDJME-UHFFFAOYSA-N

>  <fragmenstein_mode>  (2257) 
expansion

>  <HIPPO Pose ID>  (2257) 
26974

>  <Energy>  (2257) 
139.291093

>  <fragmenstein_error>  (2257) 


>  <tags>  (2257) 
{'openbind_xx01zvns2b_c1_fragmenstein', 'fragmenstein_placed'}

>  <ref_pdb>  (2257) 
175

>  <scratch_subdir>  (2257) 
/opt/xchem-fragalysis-2/maxwin/BulkDock/SCRATCH/511028/C34212-P262

>  <alias>  (2257) 
Cc1cc2c(c(N)c1N[C@](O)(C(=O)NCC(F)F)c1cc(Cl)cc3cccnc13)CNC2

>  <HIPPO Compound ID>  (2257) 
34212

>  <fragmenstein_runtime>  (2257) 
4.916074

$$$$
C[C@@H]1[C@H](O)C[C@H]2C[C@@H](Cl)C[C@@H]3[C@@H]2N1OO[C@@H](F)CN(CO)[C@@H](O)[C@]3(O)Nc1ccc2c(c1)CNC2
     RDKit          3D

 35 39  0  0  0  0  0  0  0  0999 V2000
   -1.9211    6.1464  -15.8330 C   0  0  0  0  0  0  0  0  0  0  0  0
   -3.2556    5.5480  -16.2868 C   0  0  2  0  0  0  0  0  0  0  0  0
   -3.5827    6.0117  -17.7205 C   0  0  2  0  0  0  0  0  0  0  0  0
   -3.7725    7.4257  -17.7959 O   0  0  0  0  0  0  0  0  0  0  0  0
   -4.8449    5.3210  -18.1900 C   0  0  0  0  0  0  0  0  0  0  0  0
   -5.9904    5.4616  -17.1772 C   0  0  1  0  0  0  0  0  0  0  0  0
   -7.1698    4.6543  -17.6937 C   0  0  0  0  0  0  0  0  0  0  0  0
   -8.3211    4.5107  -16.7252 C   0  0  1  0  0  0  0  0  0  0  0  0
   -9.4711    3.3824  -17.4518 Cl  0  0  0  0  0  0  0  0  0  0  0  0
   -7.9700    4.2325  -15.2824 C   0  0  0  0  0  0  0  0  0  0  0  0
   -6.8666    5.1994  -14.7611 C   0  0  2  0  0  0  0  0  0  0  0  0
   -5.6057    5.0954  -15.7149 C   0  0  2  0  0  0  0  0  0  0  0  0
   -4.3577    5.7877  -15.3140 N   0  0  0  0  0  0  0  0  0  0  0  0
   -4.5985    7.2121  -15.2770 O   0  0  0  0  0  0  0  0  0  0  0  0
   -5.0521    7.6264  -13.9690 O   0  0  0  0  0  0  0  0  0  0  0  0
   -3.9154    7.8288  -13.1510 C   0  0  1  0  0  0  0  0  0  0  0  0
   -4.2366    8.8589  -12.3121 F   0  0  0  0  0  0  0  0  0  0  0  0
   -3.5631    6.5976  -12.2815 C   0  0  0  0  0  0  0  0  0  0  0  0
   -4.7081    5.8486  -11.6832 N   0  0  0  0  0  0  0  0  0  0  0  0
   -4.3324    5.3296  -10.3755 C   0  0  0  0  0  0  0  0  0  0  0  0
   -3.2209    4.4587  -10.4604 O   0  0  0  0  0  0  0  0  0  0  0  0
   -5.2259    4.8007  -12.6110 C   0  0  1  0  0  0  0  0  0  0  0  0
   -5.1212    3.4839  -12.0431 O   0  0  0  0  0  0  0  0  0  0  0  0
   -6.7111    5.1306  -13.1716 C   0  0  1  0  0  0  0  0  0  0  0  0
   -7.0840    6.4630  -12.7750 O   0  0  0  0  0  0  0  0  0  0  0  0
   -7.7085    4.2099  -12.5579 N   0  0  0  0  0  0  0  0  0  0  0  0
   -8.0481    4.1703  -11.2001 C   0  0  0  0  0  0  0  0  0  0  0  0
   -8.0624    5.2932  -10.3506 C   0  0  0  0  0  0  0  0  0  0  0  0
   -8.3108    5.1929   -8.9750 C   0  0  0  0  0  0  0  0  0  0  0  0
   -8.6096    3.9534   -8.4567 C   0  0  0  0  0  0  0  0  0  0  0  0
   -8.6773    2.8409   -9.2827 C   0  0  0  0  0  0  0  0  0  0  0  0
   -8.4129    2.9322  -10.6416 C   0  0  0  0  0  0  0  0  0  0  0  0
   -9.0255    1.6477   -8.4566 C   0  0  0  0  0  0  0  0  0  0  0  0
   -9.5234    2.2006   -7.1682 N   0  0  0  0  0  0  0  0  0  0  0  0
   -8.9139    3.5430   -7.0564 C   0  0  0  0  0  0  0  0  0  0  0  0
  2  1  1  1
  2  3  1  0
  3  4  1  1
  3  5  1  0
  6  5  1  6
  6  7  1  0
  7  8  1  0
  8  9  1  6
  8 10  1  0
 11 10  1  6
 11 12  1  0
 12 13  1  1
 13 14  1  0
 14 15  1  0
 15 16  1  0
 16 17  1  1
 16 18  1  0
 18 19  1  0
 19 20  1  0
 20 21  1  0
 19 22  1  0
 22 23  1  1
 22 24  1  0
 24 25  1  1
 24 26  1  0
 26 27  1  0
 27 28  2  0
 28 29  1  0
 29 30  2  0
 30 31  1  0
 31 32  2  0
 31 33  1  0
 33 34  1  0
 34 35  1  0
 13  2  1  0
 32 27  1  0
 12  6  1  0
 35 30  1  0
 24 11  1  0
M  END
>  <smiles>  (2258) 
C34281-P263

>  <fragmenstein_outcome>  (2258) 
acceptable

>  <inchikey>  (2258) 
WKYTZOYTFTWAMR-UHFFFAOYSA-N

>  <fragmenstein_mode>  (2258) 
expansion

>  <HIPPO Pose ID>  (2258) 
27014

>  <Energy>  (2258) 
95.925525

>  <fragmenstein_error>  (2258) 


>  <tags>  (2258) 
{'openbind_xx01zvns2b_c1_fragmenstein', 'fragmenstein_placed'}

>  <ref_pdb>  (2258) 
175

>  <scratch_subdir>  (2258) 
/opt/xchem-fragalysis-2/maxwin/BulkDock/SCRATCH/511028/C34281-P263

>  <alias>  (2258) 
C[C@@H]1[C@H](O)C[C@H]2C[C@@H](Cl)C[C@@H]3[C@@H]2N1OO[C@@H](F)CN(CO)[C@@H](O)[C@]3(O)Nc1ccc2c(c1)CNC2

>  <HIPPO Compound ID>  (2258) 
21714

>  <fragmenstein_runtime>  (2258) 
6.387271

$$$$
CNCc1ccnc2c([C@@](O)(Nc3ccc4c(c3)CNC4)C(=O)NCC(F)F)cc(Cl)cc12
     RDKit          3D

 33 36  0  0  0  0  0  0  0  0999 V2000
   -1.6955    5.5063  -17.8946 C   0  0  0  0  0  0  0  0  0  0  0  0
   -2.9136    4.9132  -18.4079 N   0  0  0  0  0  0  0  0  0  0  0  0
   -4.1161    5.7373  -18.4137 C   0  0  0  0  0  0  0  0  0  0  0  0
   -4.8117    5.7834  -17.0749 C   0  0  0  0  0  0  0  0  0  0  0  0
   -4.1271    6.4619  -16.0737 C   0  0  0  0  0  0  0  0  0  0  0  0
   -4.6087    6.4349  -14.7940 C   0  0  0  0  0  0  0  0  0  0  0  0
   -5.7698    5.8572  -14.4487 N   0  0  0  0  0  0  0  0  0  0  0  0
   -6.5302    5.3084  -15.4151 C   0  0  0  0  0  0  0  0  0  0  0  0
   -7.8112    4.8715  -15.0687 C   0  0  0  0  0  0  0  0  0  0  0  0
   -8.3566    5.0377  -13.6409 C   0  0  1  0  0  0  0  0  0  0  0  0
   -9.5610    4.3042  -13.6022 O   0  0  0  0  0  0  0  0  0  0  0  0
   -7.4615    4.4067  -12.6571 N   0  0  0  0  0  0  0  0  0  0  0  0
   -7.8267    4.3317  -11.3048 C   0  0  0  0  0  0  0  0  0  0  0  0
   -7.6977    5.4260  -10.4317 C   0  0  0  0  0  0  0  0  0  0  0  0
   -8.0095    5.3280   -9.0692 C   0  0  0  0  0  0  0  0  0  0  0  0
   -8.4335    4.1088   -8.5803 C   0  0  0  0  0  0  0  0  0  0  0  0
   -8.5609    3.0146   -9.4228 C   0  0  0  0  0  0  0  0  0  0  0  0
   -8.2727    3.1099  -10.7790 C   0  0  0  0  0  0  0  0  0  0  0  0
   -8.9609    1.8211   -8.6228 C   0  0  0  0  0  0  0  0  0  0  0  0
   -9.2763    2.3226   -7.2591 N   0  0  0  0  0  0  0  0  0  0  0  0
   -8.7637    3.7069   -7.1838 C   0  0  0  0  0  0  0  0  0  0  0  0
   -8.7504    6.5912  -13.3412 C   0  0  0  0  0  0  0  0  0  0  0  0
   -9.8680    6.9366  -13.3760 O   0  0  0  0  0  0  0  0  0  0  0  0
   -7.4518    7.4101  -13.1088 N   0  0  0  0  0  0  0  0  0  0  0  0
   -7.2686    8.8048  -12.7773 C   0  0  0  0  0  0  0  0  0  0  0  0
   -7.8171    9.2181  -11.4151 C   0  0  0  0  0  0  0  0  0  0  0  0
   -7.7628   10.5737  -11.3141 F   0  0  0  0  0  0  0  0  0  0  0  0
   -6.9999    8.7366  -10.4395 F   0  0  0  0  0  0  0  0  0  0  0  0
   -8.6372    4.3223  -16.0693 C   0  0  0  0  0  0  0  0  0  0  0  0
   -8.2040    4.2085  -17.3763 C   0  0  0  0  0  0  0  0  0  0  0  0
   -9.2827    3.5967  -18.5527 Cl  0  0  0  0  0  0  0  0  0  0  0  0
   -6.9372    4.6460  -17.7320 C   0  0  0  0  0  0  0  0  0  0  0  0
   -6.0813    5.2228  -16.7683 C   0  0  0  0  0  0  0  0  0  0  0  0
  1  2  1  0
  2  3  1  0
  3  4  1  0
  4  5  2  0
  5  6  1  0
  6  7  2  0
  7  8  1  0
  8  9  2  0
  9 10  1  0
 10 11  1  6
 10 12  1  0
 12 13  1  0
 13 14  2  0
 14 15  1  0
 15 16  2  0
 16 17  1  0
 17 18  2  0
 17 19  1  0
 19 20  1  0
 20 21  1  0
 10 22  1  0
 22 23  2  0
 22 24  1  0
 24 25  1  0
 25 26  1  0
 26 27  1  0
 26 28  1  0
  9 29  1  0
 29 30  2  0
 30 31  1  0
 30 32  1  0
 32 33  2  0
 33  4  1  0
 33  8  1  0
 18 13  1  0
 21 16  1  0
M  END
>  <smiles>  (2259) 
C34297-P263

>  <fragmenstein_outcome>  (2259) 
acceptable

>  <inchikey>  (2259) 
SKBNQNGAPRQBLQ-UHFFFAOYSA-N

>  <fragmenstein_mode>  (2259) 
expansion

>  <HIPPO Pose ID>  (2259) 
27026

>  <Energy>  (2259) 
130.240628

>  <fragmenstein_error>  (2259) 


>  <tags>  (2259) 
{'openbind_xx01zvns2b_c1_fragmenstein', 'fragmenstein_placed'}

>  <ref_pdb>  (2259) 
175

>  <scratch_subdir>  (2259) 
/opt/xchem-fragalysis-2/maxwin/BulkDock/SCRATCH/511028/C34297-P263

>  <alias>  (2259) 
CNCc1ccnc2c([C@@](O)(Nc3ccc4c(c3)CNC4)C(=O)NCC(F)F)cc(Cl)cc12

>  <HIPPO Compound ID>  (2259) 
26985

>  <fragmenstein_runtime>  (2259) 
8.2365

$$$$
Nc1cnc2c([C@@](O)(Nc3ccc4c(c3)CNC4)C(=O)NCC(F)F)cc(Cl)cc2c1
     RDKit          3D

 31 34  0  0  0  0  0  0  0  0999 V2000
   -3.8192    5.6956  -19.5200 N   0  0  0  0  0  0  0  0  0  0  0  0
   -4.6622    5.3257  -18.4738 C   0  0  0  0  0  0  0  0  0  0  0  0
   -4.4018    5.5945  -17.1386 C   0  0  0  0  0  0  0  0  0  0  0  0
   -5.2795    5.3843  -16.1217 N   0  0  0  0  0  0  0  0  0  0  0  0
   -6.5057    4.9062  -16.4068 C   0  0  0  0  0  0  0  0  0  0  0  0
   -7.5137    4.7085  -15.4440 C   0  0  0  0  0  0  0  0  0  0  0  0
   -7.3621    5.0769  -13.9569 C   0  0  1  0  0  0  0  0  0  0  0  0
   -8.1901    6.2324  -13.8063 O   0  0  0  0  0  0  0  0  0  0  0  0
   -7.8912    4.0100  -13.0882 N   0  0  0  0  0  0  0  0  0  0  0  0
   -8.0951    4.1177  -11.7100 C   0  0  0  0  0  0  0  0  0  0  0  0
   -7.8459    5.2794  -10.9509 C   0  0  0  0  0  0  0  0  0  0  0  0
   -7.9924    5.3076   -9.5555 C   0  0  0  0  0  0  0  0  0  0  0  0
   -8.3713    4.1480   -8.9139 C   0  0  0  0  0  0  0  0  0  0  0  0
   -8.5887    2.9818   -9.6318 C   0  0  0  0  0  0  0  0  0  0  0  0
   -8.4533    2.9517  -11.0120 C   0  0  0  0  0  0  0  0  0  0  0  0
   -8.9122    1.8776   -8.6795 C   0  0  0  0  0  0  0  0  0  0  0  0
   -9.2545    2.5582   -7.4011 N   0  0  0  0  0  0  0  0  0  0  0  0
   -8.5770    3.8722   -7.4632 C   0  0  0  0  0  0  0  0  0  0  0  0
   -5.8714    5.4408  -13.4827 C   0  0  0  0  0  0  0  0  0  0  0  0
   -5.4967    6.5518  -13.4395 O   0  0  0  0  0  0  0  0  0  0  0  0
   -5.1427    4.1154  -13.1132 N   0  0  0  0  0  0  0  0  0  0  0  0
   -3.8423    3.8927  -12.5271 C   0  0  0  0  0  0  0  0  0  0  0  0
   -3.5982    4.6518  -11.2268 C   0  0  0  0  0  0  0  0  0  0  0  0
   -4.1461    3.9879  -10.1793 F   0  0  0  0  0  0  0  0  0  0  0  0
   -2.2585    4.7008  -10.9844 F   0  0  0  0  0  0  0  0  0  0  0  0
   -8.8007    4.3127  -15.9000 C   0  0  0  0  0  0  0  0  0  0  0  0
   -9.0764    4.1104  -17.2480 C   0  0  0  0  0  0  0  0  0  0  0  0
  -10.6594    3.9118  -17.8512 Cl  0  0  0  0  0  0  0  0  0  0  0  0
   -8.0818    4.2356  -18.1801 C   0  0  0  0  0  0  0  0  0  0  0  0
   -6.8337    4.6506  -17.7657 C   0  0  0  0  0  0  0  0  0  0  0  0
   -5.9206    4.8750  -18.7764 C   0  0  0  0  0  0  0  0  0  0  0  0
  1  2  1  0
  2  3  2  0
  3  4  1  0
  4  5  2  0
  5  6  1  0
  6  7  1  0
  7  8  1  6
  7  9  1  0
  9 10  1  0
 10 11  2  0
 11 12  1  0
 12 13  2  0
 13 14  1  0
 14 15  2  0
 14 16  1  0
 16 17  1  0
 17 18  1  0
  7 19  1  0
 19 20  2  0
 19 21  1  0
 21 22  1  0
 22 23  1  0
 23 24  1  0
 23 25  1  0
  6 26  2  0
 26 27  1  0
 27 28  1  0
 27 29  2  0
 29 30  1  0
 30 31  2  0
 31  2  1  0
 30  5  1  0
 15 10  1  0
 18 13  1  0
M  END
>  <smiles>  (2260) 
C34335-P263

>  <fragmenstein_outcome>  (2260) 
acceptable

>  <inchikey>  (2260) 
QGYSCUSJBWROQZ-UHFFFAOYSA-N

>  <fragmenstein_mode>  (2260) 
expansion

>  <HIPPO Pose ID>  (2260) 
27032

>  <Energy>  (2260) 
138.914324

>  <fragmenstein_error>  (2260) 


>  <tags>  (2260) 
{'openbind_xx01zvns2b_c1_fragmenstein', 'fragmenstein_placed'}

>  <ref_pdb>  (2260) 
175

>  <scratch_subdir>  (2260) 
/opt/xchem-fragalysis-2/maxwin/BulkDock/SCRATCH/511028/C34335-P263

>  <alias>  (2260) 
Nc1cnc2c([C@@](O)(Nc3ccc4c(c3)CNC4)C(=O)NCC(F)F)cc(Cl)cc2c1

>  <HIPPO Compound ID>  (2260) 
34335

>  <fragmenstein_runtime>  (2260) 
4.389434

$$$$
CN1CCC([C@@H]2C(=O)[C@@](C)(OCCCO)c3c(C(=O)Nc4ccc5c(c4)CNC5)cc(F)cc32)CC1
     RDKit          3D

 36 40  0  0  0  0  0  0  0  0999 V2000
   -4.3416    8.7406  -21.0614 C   0  0  0  0  0  0  0  0  0  0  0  0
   -3.6092    7.4913  -21.2252 N   0  0  0  0  0  0  0  0  0  0  0  0
   -4.4681    6.3801  -21.6337 C   0  0  0  0  0  0  0  0  0  0  0  0
   -5.2548    5.7426  -20.4897 C   0  0  0  0  0  0  0  0  0  0  0  0
   -4.4128    5.4060  -19.2414 C   0  0  0  0  0  0  0  0  0  0  0  0
   -5.0483    6.0616  -17.9995 C   0  0  2  0  0  0  0  0  0  0  0  0
   -4.1198    6.3294  -16.8164 C   0  0  0  0  0  0  0  0  0  0  0  0
   -3.0469    6.9222  -16.8886 O   0  0  0  0  0  0  0  0  0  0  0  0
   -4.7768    5.9113  -15.4802 C   0  0  1  0  0  0  0  0  0  0  0  0
   -3.9085    4.7867  -14.9118 C   0  0  0  0  0  0  0  0  0  0  0  0
   -4.7500    6.9199  -14.4933 O   0  0  0  0  0  0  0  0  0  0  0  0
   -5.1722    8.2281  -14.8500 C   0  0  0  0  0  0  0  0  0  0  0  0
   -4.3424    9.2551  -14.0806 C   0  0  0  0  0  0  0  0  0  0  0  0
   -2.9859    9.5388  -14.7221 C   0  0  0  0  0  0  0  0  0  0  0  0
   -2.1104    8.4264  -14.6538 O   0  0  0  0  0  0  0  0  0  0  0  0
   -6.1291    5.3821  -15.9295 C   0  0  0  0  0  0  0  0  0  0  0  0
   -7.2153    4.9470  -15.1599 C   0  0  0  0  0  0  0  0  0  0  0  0
   -7.3776    5.3492  -13.7414 C   0  0  0  0  0  0  0  0  0  0  0  0
   -7.3541    6.4905  -13.5031 O   0  0  0  0  0  0  0  0  0  0  0  0
   -7.5896    4.1385  -12.8114 N   0  0  0  0  0  0  0  0  0  0  0  0
   -7.9011    4.0831  -11.4532 C   0  0  0  0  0  0  0  0  0  0  0  0
   -7.9031    5.2550  -10.6768 C   0  0  0  0  0  0  0  0  0  0  0  0
   -8.1543    5.2095   -9.3023 C   0  0  0  0  0  0  0  0  0  0  0  0
   -8.4363    3.9840   -8.7306 C   0  0  0  0  0  0  0  0  0  0  0  0
   -8.4776    2.8296   -9.5015 C   0  0  0  0  0  0  0  0  0  0  0  0
   -8.1943    2.8543  -10.8604 C   0  0  0  0  0  0  0  0  0  0  0  0
   -8.8226    1.6681   -8.6329 C   0  0  0  0  0  0  0  0  0  0  0  0
   -9.1190    2.2257   -7.2859 N   0  0  0  0  0  0  0  0  0  0  0  0
   -8.7043    3.6429   -7.3058 C   0  0  0  0  0  0  0  0  0  0  0  0
   -8.3062    4.3328  -15.7906 C   0  0  0  0  0  0  0  0  0  0  0  0
   -8.3112    4.1855  -17.1769 C   0  0  0  0  0  0  0  0  0  0  0  0
   -9.3715    3.6198  -17.7707 F   0  0  0  0  0  0  0  0  0  0  0  0
   -7.2765    4.6896  -17.9643 C   0  0  0  0  0  0  0  0  0  0  0  0
   -6.1936    5.3052  -17.3414 C   0  0  0  0  0  0  0  0  0  0  0  0
   -2.9410    5.7501  -19.5333 C   0  0  0  0  0  0  0  0  0  0  0  0
   -2.7796    7.1839  -20.0476 C   0  0  0  0  0  0  0  0  0  0  0  0
  1  2  1  0
  2  3  1  0
  3  4  1  0
  4  5  1  0
  6  5  1  6
  6  7  1  0
  7  8  2  0
  7  9  1  0
  9 10  1  1
  9 11  1  0
 11 12  1  0
 12 13  1  0
 13 14  1  0
 14 15  1  0
  9 16  1  0
 16 17  2  0
 17 18  1  0
 18 19  2  0
 18 20  1  0
 20 21  1  0
 21 22  2  0
 22 23  1  0
 23 24  2  0
 24 25  1  0
 25 26  2  0
 25 27  1  0
 27 28  1  0
 28 29  1  0
 17 30  1  0
 30 31  2  0
 31 32  1  0
 31 33  1  0
 33 34  2  0
  5 35  1  0
 35 36  1  0
 36  2  1  0
 34  6  1  0
 34 16  1  0
 26 21  1  0
 29 24  1  0
M  END
>  <smiles>  (2261) 
C34498-P264

>  <fragmenstein_outcome>  (2261) 
acceptable

>  <inchikey>  (2261) 
WEQNNTUJRNJQJC-UHFFFAOYSA-N

>  <fragmenstein_mode>  (2261) 
expansion

>  <HIPPO Pose ID>  (2261) 
27103

>  <Energy>  (2261) 
124.959644

>  <fragmenstein_error>  (2261) 


>  <tags>  (2261) 
{'openbind_xx01zvns2b_c1_fragmenstein', 'fragmenstein_placed'}

>  <ref_pdb>  (2261) 
175

>  <scratch_subdir>  (2261) 
/opt/xchem-fragalysis-2/maxwin/BulkDock/SCRATCH/511028/C34498-P264

>  <alias>  (2261) 
CN1CCC([C@@H]2C(=O)[C@@](C)(OCCCO)c3c(C(=O)Nc4ccc5c(c4)CNC5)cc(F)cc32)CC1

>  <HIPPO Compound ID>  (2261) 
34498

>  <fragmenstein_runtime>  (2261) 
9.449206

$$$$
Cc1c2c(C(=O)Nc3ccc4c(c3)CNC4)cccc2c2n1C[C@@H]1CN(C)CC[C@@H]21
     RDKit          3D

 30 35  0  0  0  0  0  0  0  0999 V2000
   -4.9380    5.6222  -14.1796 C   0  0  0  0  0  0  0  0  0  0  0  0
   -5.4539    5.3995  -15.5547 C   0  0  0  0  0  0  0  0  0  0  0  0
   -6.6793    4.9747  -16.0463 C   0  0  0  0  0  0  0  0  0  0  0  0
   -7.8346    4.6897  -15.3156 C   0  0  0  0  0  0  0  0  0  0  0  0
   -8.0501    5.1694  -13.9405 C   0  0  0  0  0  0  0  0  0  0  0  0
   -8.0008    6.3195  -13.7512 O   0  0  0  0  0  0  0  0  0  0  0  0
   -8.2357    4.0031  -12.9542 N   0  0  0  0  0  0  0  0  0  0  0  0
   -8.3029    3.9964  -11.5614 C   0  0  0  0  0  0  0  0  0  0  0  0
   -8.1524    5.1882  -10.8292 C   0  0  0  0  0  0  0  0  0  0  0  0
   -8.2267    5.1918   -9.4327 C   0  0  0  0  0  0  0  0  0  0  0  0
   -8.4878    3.9957   -8.7943 C   0  0  0  0  0  0  0  0  0  0  0  0
   -8.6350    2.8144   -9.5153 C   0  0  0  0  0  0  0  0  0  0  0  0
   -8.5223    2.7909  -10.8958 C   0  0  0  0  0  0  0  0  0  0  0  0
   -8.9068    1.6966   -8.5641 C   0  0  0  0  0  0  0  0  0  0  0  0
   -9.2817    2.3601   -7.2858 N   0  0  0  0  0  0  0  0  0  0  0  0
   -8.6633    3.7030   -7.3427 C   0  0  0  0  0  0  0  0  0  0  0  0
   -8.8598    4.1664  -16.1360 C   0  0  0  0  0  0  0  0  0  0  0  0
   -8.7444    4.0180  -17.5651 C   0  0  0  0  0  0  0  0  0  0  0  0
   -7.6085    4.4064  -18.3161 C   0  0  0  0  0  0  0  0  0  0  0  0
   -6.5979    4.8665  -17.4830 C   0  0  0  0  0  0  0  0  0  0  0  0
   -5.4089    5.4288  -17.8352 C   0  0  0  0  0  0  0  0  0  0  0  0
   -4.6967    5.5910  -16.6636 N   0  0  0  0  0  0  0  0  0  0  0  0
   -3.3220    6.0251  -16.8838 C   0  0  0  0  0  0  0  0  0  0  0  0
   -3.1759    5.7433  -18.3769 C   0  0  2  0  0  0  0  0  0  0  0  0
   -2.1707    6.5986  -19.1247 C   0  0  0  0  0  0  0  0  0  0  0  0
   -2.5488    6.7369  -20.5426 N   0  0  0  0  0  0  0  0  0  0  0  0
   -1.3782    7.0141  -21.3690 C   0  0  0  0  0  0  0  0  0  0  0  0
   -3.3271    5.5972  -21.0545 C   0  0  0  0  0  0  0  0  0  0  0  0
   -4.6909    5.4438  -20.3480 C   0  0  0  0  0  0  0  0  0  0  0  0
   -4.5989    5.9654  -18.9414 C   0  0  1  0  0  0  0  0  0  0  0  0
  1  2  1  0
  2  3  2  0
  3  4  1  0
  4  5  1  0
  5  6  2  0
  5  7  1  0
  7  8  1  0
  8  9  2  0
  9 10  1  0
 10 11  2  0
 11 12  1  0
 12 13  2  0
 12 14  1  0
 14 15  1  0
 15 16  1  0
  4 17  2  0
 17 18  1  0
 18 19  2  0
 19 20  1  0
 20 21  2  0
 21 22  1  0
 22 23  1  0
 24 23  1  1
 24 25  1  0
 25 26  1  0
 26 27  1  0
 26 28  1  0
 28 29  1  0
 30 29  1  6
 22  2  1  0
 30 24  1  0
 20  3  1  0
 30 21  1  0
 13  8  1  0
 16 11  1  0
M  END
>  <smiles>  (2262) 
C34502-P264

>  <fragmenstein_outcome>  (2262) 
acceptable

>  <inchikey>  (2262) 
YZCXOEICVVFKLW-UHFFFAOYSA-N

>  <fragmenstein_mode>  (2262) 
expansion

>  <HIPPO Pose ID>  (2262) 
27107

>  <Energy>  (2262) 
98.281934

>  <fragmenstein_error>  (2262) 


>  <tags>  (2262) 
{'openbind_xx01zvns2b_c1_fragmenstein', 'fragmenstein_placed'}

>  <ref_pdb>  (2262) 
175

>  <scratch_subdir>  (2262) 
/opt/xchem-fragalysis-2/maxwin/BulkDock/SCRATCH/511028/C34502-P264

>  <alias>  (2262) 
Cc1c2c(C(=O)Nc3ccc4c(c3)CNC4)cccc2c2n1C[C@@H]1CN(C)CC[C@@H]21

>  <HIPPO Compound ID>  (2262) 
34502

>  <fragmenstein_runtime>  (2262) 
10.061402

$$$$
Cc1c2c(C(=O)Nc3ccc4c(c3)CNC4)cccc2c2n1C[C@@H]1CN(C)CC[C@H]21
     RDKit          3D

 30 35  0  0  0  0  0  0  0  0999 V2000
   -4.9077    5.6876  -14.2700 C   0  0  0  0  0  0  0  0  0  0  0  0
   -5.4169    5.4223  -15.6414 C   0  0  0  0  0  0  0  0  0  0  0  0
   -6.6649    5.0625  -16.1258 C   0  0  0  0  0  0  0  0  0  0  0  0
   -7.8328    4.8393  -15.3922 C   0  0  0  0  0  0  0  0  0  0  0  0
   -8.0364    5.3410  -14.0223 C   0  0  0  0  0  0  0  0  0  0  0  0
   -7.9756    6.4970  -13.8658 O   0  0  0  0  0  0  0  0  0  0  0  0
   -8.2075    4.2000  -12.9970 N   0  0  0  0  0  0  0  0  0  0  0  0
   -8.2436    4.2325  -11.6001 C   0  0  0  0  0  0  0  0  0  0  0  0
   -7.9998    5.4266  -10.9004 C   0  0  0  0  0  0  0  0  0  0  0  0
   -8.0122    5.4607   -9.5004 C   0  0  0  0  0  0  0  0  0  0  0  0
   -8.2869    4.2907   -8.8189 C   0  0  0  0  0  0  0  0  0  0  0  0
   -8.5276    3.1050   -9.5030 C   0  0  0  0  0  0  0  0  0  0  0  0
   -8.4998    3.0578  -10.8912 C   0  0  0  0  0  0  0  0  0  0  0  0
   -8.7721    2.0171   -8.5070 C   0  0  0  0  0  0  0  0  0  0  0  0
   -9.0222    2.7140   -7.2159 N   0  0  0  0  0  0  0  0  0  0  0  0
   -8.3735    4.0368   -7.3515 C   0  0  0  0  0  0  0  0  0  0  0  0
   -8.8537    4.3020  -16.2047 C   0  0  0  0  0  0  0  0  0  0  0  0
   -8.7329    4.1047  -17.6279 C   0  0  0  0  0  0  0  0  0  0  0  0
   -7.5790    4.4179  -18.3822 C   0  0  0  0  0  0  0  0  0  0  0  0
   -6.5664    4.8746  -17.5515 C   0  0  0  0  0  0  0  0  0  0  0  0
   -5.2982    5.2250  -17.9097 C   0  0  0  0  0  0  0  0  0  0  0  0
   -4.6188    5.4455  -16.7428 N   0  0  0  0  0  0  0  0  0  0  0  0
   -3.1905    5.5688  -16.9122 C   0  0  0  0  0  0  0  0  0  0  0  0
   -2.9965    5.5025  -18.4354 C   0  0  2  0  0  0  0  0  0  0  0  0
   -2.2739    6.7647  -18.9026 C   0  0  0  0  0  0  0  0  0  0  0  0
   -2.2588    6.9017  -20.3520 N   0  0  0  0  0  0  0  0  0  0  0  0
   -1.2431    6.0698  -20.9908 C   0  0  0  0  0  0  0  0  0  0  0  0
   -3.5844    6.7547  -20.9750 C   0  0  0  0  0  0  0  0  0  0  0  0
   -4.7385    6.5234  -19.9922 C   0  0  0  0  0  0  0  0  0  0  0  0
   -4.4123    5.3410  -19.0865 C   0  0  2  0  0  0  0  0  0  0  0  0
  1  2  1  0
  2  3  2  0
  3  4  1  0
  4  5  1  0
  5  6  2  0
  5  7  1  0
  7  8  1  0
  8  9  2  0
  9 10  1  0
 10 11  2  0
 11 12  1  0
 12 13  2  0
 12 14  1  0
 14 15  1  0
 15 16  1  0
  4 17  2  0
 17 18  1  0
 18 19  2  0
 19 20  1  0
 20 21  2  0
 21 22  1  0
 22 23  1  0
 24 23  1  1
 24 25  1  0
 25 26  1  0
 26 27  1  0
 26 28  1  0
 28 29  1  0
 30 29  1  1
 22  2  1  0
 30 24  1  0
 20  3  1  0
 30 21  1  0
 13  8  1  0
 16 11  1  0
M  END
>  <smiles>  (2263) 
C34502-P102

>  <fragmenstein_outcome>  (2263) 
acceptable

>  <inchikey>  (2263) 
DCAKSEDOZAWDDY-UHFFFAOYSA-N

>  <fragmenstein_mode>  (2263) 
expansion

>  <HIPPO Pose ID>  (2263) 
27108

>  <Energy>  (2263) 
91.267663

>  <fragmenstein_error>  (2263) 


>  <tags>  (2263) 
{'openbind_xx01zvns2b_c1_fragmenstein', 'fragmenstein_placed'}

>  <ref_pdb>  (2263) 
175

>  <scratch_subdir>  (2263) 
/opt/xchem-fragalysis-2/maxwin/BulkDock/SCRATCH/511028/C34502-P102

>  <alias>  (2263) 
Cc1c2c(C(=O)Nc3ccc4c(c3)CNC4)cccc2c2n1C[C@@H]1CN(C)CC[C@H]21

>  <HIPPO Compound ID>  (2263) 
38393

>  <fragmenstein_runtime>  (2263) 
5.730808

$$$$
CC(C)Nn1c(=O)[nH]c2ccc(C(=O)Nc3ccc4c(c3)CNC4)cc21
     RDKit          3D

 26 29  0  0  0  0  0  0  0  0999 V2000
   -3.0012    7.1419  -16.5339 C   0  0  0  0  0  0  0  0  0  0  0  0
   -2.6047    5.9452  -17.3894 C   0  0  0  0  0  0  0  0  0  0  0  0
   -2.2057    6.3745  -18.7970 C   0  0  0  0  0  0  0  0  0  0  0  0
   -3.5973    4.8687  -17.3898 N   0  0  0  0  0  0  0  0  0  0  0  0
   -4.8941    5.2260  -17.7940 N   0  0  0  0  0  0  0  0  0  0  0  0
   -5.3462    5.0744  -19.1450 C   0  0  0  0  0  0  0  0  0  0  0  0
   -4.6698    5.1274  -20.1597 O   0  0  0  0  0  0  0  0  0  0  0  0
   -6.7295    4.8116  -19.0717 N   0  0  0  0  0  0  0  0  0  0  0  0
   -7.1057    4.7037  -17.7368 C   0  0  0  0  0  0  0  0  0  0  0  0
   -8.3302    4.3911  -17.1833 C   0  0  0  0  0  0  0  0  0  0  0  0
   -8.4387    4.4790  -15.7866 C   0  0  0  0  0  0  0  0  0  0  0  0
   -7.3221    4.8585  -15.0071 C   0  0  0  0  0  0  0  0  0  0  0  0
   -7.4845    5.2759  -13.5958 C   0  0  0  0  0  0  0  0  0  0  0  0
   -7.1978    6.3736  -13.3225 O   0  0  0  0  0  0  0  0  0  0  0  0
   -8.0036    4.1285  -12.7083 N   0  0  0  0  0  0  0  0  0  0  0  0
   -8.1840    4.0620  -11.3273 C   0  0  0  0  0  0  0  0  0  0  0  0
   -8.0090    5.2044  -10.5253 C   0  0  0  0  0  0  0  0  0  0  0  0
   -8.1747    5.1454   -9.1379 C   0  0  0  0  0  0  0  0  0  0  0  0
   -8.5290    3.9344   -8.5780 C   0  0  0  0  0  0  0  0  0  0  0  0
   -8.6953    2.8002   -9.3682 C   0  0  0  0  0  0  0  0  0  0  0  0
   -8.5261    2.8421  -10.7427 C   0  0  0  0  0  0  0  0  0  0  0  0
   -9.0205    1.6438   -8.4834 C   0  0  0  0  0  0  0  0  0  0  0  0
   -9.4487    2.2525   -7.1963 N   0  0  0  0  0  0  0  0  0  0  0  0
   -8.7833    3.5746   -7.1521 C   0  0  0  0  0  0  0  0  0  0  0  0
   -6.0644    5.0640  -15.5811 C   0  0  0  0  0  0  0  0  0  0  0  0
   -5.9897    4.9856  -16.9506 C   0  0  0  0  0  0  0  0  0  0  0  0
  1  2  1  0
  2  3  1  0
  2  4  1  0
  4  5  1  0
  5  6  1  0
  6  7  2  0
  6  8  1  0
  8  9  1  0
  9 10  2  0
 10 11  1  0
 11 12  2  0
 12 13  1  0
 13 14  2  0
 13 15  1  0
 15 16  1  0
 16 17  2  0
 17 18  1  0
 18 19  2  0
 19 20  1  0
 20 21  2  0
 20 22  1  0
 22 23  1  0
 23 24  1  0
 12 25  1  0
 25 26  2  0
 26  5  1  0
 26  9  1  0
 21 16  1  0
 24 19  1  0
M  END
>  <smiles>  (2264) 
C34565-P264

>  <fragmenstein_outcome>  (2264) 
acceptable

>  <inchikey>  (2264) 
NJDFDQWAJFNLJY-UHFFFAOYSA-N

>  <fragmenstein_mode>  (2264) 
expansion

>  <HIPPO Pose ID>  (2264) 
27148

>  <Energy>  (2264) 
71.023903

>  <fragmenstein_error>  (2264) 


>  <tags>  (2264) 
{'openbind_xx01zvns2b_c1_fragmenstein', 'fragmenstein_placed'}

>  <ref_pdb>  (2264) 
175

>  <scratch_subdir>  (2264) 
/opt/xchem-fragalysis-2/maxwin/BulkDock/SCRATCH/511028/C34565-P264

>  <alias>  (2264) 
CC(C)Nn1c(=O)[nH]c2ccc(C(=O)Nc3ccc4c(c3)CNC4)cc21

>  <HIPPO Compound ID>  (2264) 
34565

>  <fragmenstein_runtime>  (2264) 
6.734265

$$$$
CNC(=O)[C@](O)(Nc1ccc2c(c1)CNC2)c1cc(Cl)c2c(c1)=NC(=O)N=2
     RDKit          3D

 27 30  0  0  0  0  0  0  0  0999 V2000
   -3.8085    4.3364  -11.7595 C   0  0  0  0  0  0  0  0  0  0  0  0
   -5.0015    4.6197  -12.4978 N   0  0  0  0  0  0  0  0  0  0  0  0
   -6.0009    3.6602  -13.2126 C   0  0  0  0  0  0  0  0  0  0  0  0
   -5.9575    2.5007  -13.3711 O   0  0  0  0  0  0  0  0  0  0  0  0
   -7.1978    4.6070  -13.7518 C   0  0  2  0  0  0  0  0  0  0  0  0
   -6.9958    5.9987  -13.5696 O   0  0  0  0  0  0  0  0  0  0  0  0
   -8.4498    4.2738  -13.0457 N   0  0  0  0  0  0  0  0  0  0  0  0
   -8.4125    4.2642  -11.6222 C   0  0  0  0  0  0  0  0  0  0  0  0
   -8.1223    5.4170  -10.8614 C   0  0  0  0  0  0  0  0  0  0  0  0
   -8.1414    5.4019   -9.4596 C   0  0  0  0  0  0  0  0  0  0  0  0
   -8.4626    4.2228   -8.8192 C   0  0  0  0  0  0  0  0  0  0  0  0
   -8.7506    3.0789   -9.5460 C   0  0  0  0  0  0  0  0  0  0  0  0
   -8.7354    3.0821  -10.9344 C   0  0  0  0  0  0  0  0  0  0  0  0
   -9.0305    1.9536   -8.6081 C   0  0  0  0  0  0  0  0  0  0  0  0
   -9.1054    2.5586   -7.2521 N   0  0  0  0  0  0  0  0  0  0  0  0
   -8.5707    3.9304   -7.3623 C   0  0  0  0  0  0  0  0  0  0  0  0
   -7.3403    4.4622  -15.2797 C   0  0  0  0  0  0  0  0  0  0  0  0
   -8.6716    4.3362  -15.8885 C   0  0  0  0  0  0  0  0  0  0  0  0
   -8.8899    4.2278  -17.2068 C   0  0  0  0  0  0  0  0  0  0  0  0
  -10.4398    4.2093  -17.9041 Cl  0  0  0  0  0  0  0  0  0  0  0  0
   -7.7473    4.2334  -18.1105 C   0  0  0  0  0  0  0  0  0  0  0  0
   -6.4090    4.4725  -17.5342 C   0  0  0  0  0  0  0  0  0  0  0  0
   -6.2524    4.5733  -16.0782 C   0  0  0  0  0  0  0  0  0  0  0  0
   -5.5417    4.5491  -18.4806 N   0  0  0  0  0  0  0  0  0  0  0  0
   -6.2997    4.2923  -19.6249 C   0  0  0  0  0  0  0  0  0  0  0  0
   -5.8181    4.2249  -20.7477 O   0  0  0  0  0  0  0  0  0  0  0  0
   -7.6435    4.0931  -19.3801 N   0  0  0  0  0  0  0  0  0  0  0  0
  1  2  1  0
  2  3  1  0
  3  4  2  0
  3  5  1  0
  5  6  1  6
  5  7  1  0
  7  8  1  0
  8  9  2  0
  9 10  1  0
 10 11  2  0
 11 12  1  0
 12 13  2  0
 12 14  1  0
 14 15  1  0
 15 16  1  0
  5 17  1  0
 17 18  1  0
 18 19  2  0
 19 20  1  0
 19 21  1  0
 21 22  1  0
 22 23  1  0
 22 24  2  0
 24 25  1  0
 25 26  2  0
 25 27  1  0
 13  8  1  0
 23 17  2  0
 16 11  1  0
 27 21  2  0
M  END
>  <smiles>  (2265) 
C34662-P265

>  <fragmenstein_outcome>  (2265) 
acceptable

>  <inchikey>  (2265) 
HYPHMYGODLZJJQ-UHFFFAOYSA-N

>  <fragmenstein_mode>  (2265) 
expansion

>  <HIPPO Pose ID>  (2265) 
27154

>  <Energy>  (2265) 
64.657338

>  <fragmenstein_error>  (2265) 


>  <tags>  (2265) 
{'openbind_xx01zvns2b_c1_fragmenstein', 'fragmenstein_placed'}

>  <ref_pdb>  (2265) 
175

>  <scratch_subdir>  (2265) 
/opt/xchem-fragalysis-2/maxwin/BulkDock/SCRATCH/511028/C34662-P265

>  <alias>  (2265) 
CNC(=O)[C@](O)(Nc1ccc2c(c1)CNC2)c1cc(Cl)c2c(c1)=NC(=O)N=2

>  <HIPPO Compound ID>  (2265) 
34662

>  <fragmenstein_runtime>  (2265) 
4.241778

$$$$
O=C1N=C2C(=N1)[C@]1(CNCN1)[C@@H](C(=O)Nc1ccc3c(c1)CNC3)C[C@H]2Cl
     RDKit          3D

 27 31  0  0  0  0  0  0  0  0999 V2000
   -6.0056    4.1057  -20.8681 O   0  0  0  0  0  0  0  0  0  0  0  0
   -6.4366    4.2366  -19.7305 C   0  0  0  0  0  0  0  0  0  0  0  0
   -7.7316    3.9086  -19.3824 N   0  0  0  0  0  0  0  0  0  0  0  0
   -7.8006    4.1885  -18.1252 C   0  0  0  0  0  0  0  0  0  0  0  0
   -6.4694    4.6429  -17.6559 C   0  0  0  0  0  0  0  0  0  0  0  0
   -5.6555    4.6684  -18.6641 N   0  0  0  0  0  0  0  0  0  0  0  0
   -6.2319    5.0591  -16.2191 C   0  0  1  0  0  0  0  0  0  0  0  0
   -4.8131    4.6655  -15.7657 C   0  0  0  0  0  0  0  0  0  0  0  0
   -4.1740    5.9346  -15.3901 N   0  0  0  0  0  0  0  0  0  0  0  0
   -4.7773    6.8855  -16.3004 C   0  0  0  0  0  0  0  0  0  0  0  0
   -6.1930    6.5496  -16.2451 N   0  0  0  0  0  0  0  0  0  0  0  0
   -7.3272    4.4658  -15.2771 C   0  0  1  0  0  0  0  0  0  0  0  0
   -7.2814    5.0686  -13.8523 C   0  0  0  0  0  0  0  0  0  0  0  0
   -6.8051    6.1172  -13.6407 O   0  0  0  0  0  0  0  0  0  0  0  0
   -8.0029    4.0740  -12.8912 N   0  0  0  0  0  0  0  0  0  0  0  0
   -8.1918    4.1257  -11.5106 C   0  0  0  0  0  0  0  0  0  0  0  0
   -7.9434    5.3037  -10.7862 C   0  0  0  0  0  0  0  0  0  0  0  0
   -8.1176    5.3427   -9.3975 C   0  0  0  0  0  0  0  0  0  0  0  0
   -8.5314    4.1895   -8.7582 C   0  0  0  0  0  0  0  0  0  0  0  0
   -8.7676    3.0198   -9.4730 C   0  0  0  0  0  0  0  0  0  0  0  0
   -8.6178    2.9722  -10.8489 C   0  0  0  0  0  0  0  0  0  0  0  0
   -9.1154    1.9279   -8.5157 C   0  0  0  0  0  0  0  0  0  0  0  0
   -9.4630    2.6232   -7.2490 N   0  0  0  0  0  0  0  0  0  0  0  0
   -8.7629    3.9253   -7.3076 C   0  0  0  0  0  0  0  0  0  0  0  0
   -8.7372    4.6885  -15.8455 C   0  0  0  0  0  0  0  0  0  0  0  0
   -8.9306    3.9927  -17.1862 C   0  0  1  0  0  0  0  0  0  0  0  0
  -10.4203    4.5201  -17.9699 Cl  0  0  0  0  0  0  0  0  0  0  0  0
  1  2  2  0
  2  3  1  0
  3  4  2  0
  4  5  1  0
  5  6  2  0
  5  7  1  0
  7  8  1  1
  8  9  1  0
  9 10  1  0
 10 11  1  0
  7 12  1  0
 12 13  1  1
 13 14  2  0
 13 15  1  0
 15 16  1  0
 16 17  2  0
 17 18  1  0
 18 19  2  0
 19 20  1  0
 20 21  2  0
 20 22  1  0
 22 23  1  0
 23 24  1  0
 12 25  1  0
 25 26  1  0
 26 27  1  6
  6  2  1  0
 11  7  1  0
 21 16  1  0
 26  4  1  0
 24 19  1  0
M  END
>  <smiles>  (2266) 
C34668-P265

>  <fragmenstein_outcome>  (2266) 
acceptable

>  <inchikey>  (2266) 
VDDSEECFTNXHJW-UHFFFAOYSA-N

>  <fragmenstein_mode>  (2266) 
expansion

>  <HIPPO Pose ID>  (2266) 
27157

>  <Energy>  (2266) 
10.774917

>  <fragmenstein_error>  (2266) 


>  <tags>  (2266) 
{'openbind_xx01zvns2b_c1_fragmenstein', 'fragmenstein_placed'}

>  <ref_pdb>  (2266) 
175

>  <scratch_subdir>  (2266) 
/opt/xchem-fragalysis-2/maxwin/BulkDock/SCRATCH/511028/C34668-P265

>  <alias>  (2266) 
O=C1N=C2C(=N1)[C@]1(CNCN1)[C@@H](C(=O)Nc1ccc3c(c1)CNC3)C[C@H]2Cl

>  <HIPPO Compound ID>  (2266) 
34668

>  <fragmenstein_runtime>  (2266) 
3.383238

$$$$
CC(C)CNC(=O)[C@@](O)(Nc1ccc2c(c1)CNC2)[C@H]1C[C@H](Cl)C2=NC(=O)N=C2C12CNNC2
     RDKit          3D

 34 38  0  0  0  0  0  0  0  0999 V2000
   -9.0853    9.0389  -12.2429 C   0  0  0  0  0  0  0  0  0  0  0  0
   -7.7504    9.4270  -12.8802 C   0  0  0  0  0  0  0  0  0  0  0  0
   -7.3319   10.8196  -12.4054 C   0  0  0  0  0  0  0  0  0  0  0  0
   -6.6425    8.4180  -12.5737 C   0  0  0  0  0  0  0  0  0  0  0  0
   -6.9059    7.0770  -13.0313 N   0  0  0  0  0  0  0  0  0  0  0  0
   -6.0891    5.7643  -12.8389 C   0  0  0  0  0  0  0  0  0  0  0  0
   -5.0411    5.5882  -12.3463 O   0  0  0  0  0  0  0  0  0  0  0  0
   -6.9136    4.5506  -13.4783 C   0  0  1  0  0  0  0  0  0  0  0  0
   -6.2616    3.3319  -13.1502 O   0  0  0  0  0  0  0  0  0  0  0  0
   -8.2820    4.4440  -12.9006 N   0  0  0  0  0  0  0  0  0  0  0  0
   -8.3899    4.3343  -11.4862 C   0  0  0  0  0  0  0  0  0  0  0  0
   -8.2661    5.4622  -10.6506 C   0  0  0  0  0  0  0  0  0  0  0  0
   -8.3601    5.3767   -9.2574 C   0  0  0  0  0  0  0  0  0  0  0  0
   -8.6236    4.1448   -8.7034 C   0  0  0  0  0  0  0  0  0  0  0  0
   -8.7579    3.0170   -9.5049 C   0  0  0  0  0  0  0  0  0  0  0  0
   -8.6252    3.0874  -10.8856 C   0  0  0  0  0  0  0  0  0  0  0  0
   -9.0414    1.8411   -8.6275 C   0  0  0  0  0  0  0  0  0  0  0  0
   -9.4581    2.4259   -7.3227 N   0  0  0  0  0  0  0  0  0  0  0  0
   -8.8273    3.7610   -7.2768 C   0  0  0  0  0  0  0  0  0  0  0  0
   -7.0118    4.5269  -15.0716 C   0  0  1  0  0  0  0  0  0  0  0  0
   -8.2945    5.1799  -15.6611 C   0  0  0  0  0  0  0  0  0  0  0  0
   -8.5923    4.7081  -17.0832 C   0  0  2  0  0  0  0  0  0  0  0  0
   -9.3011    3.1299  -17.1003 Cl  0  0  0  0  0  0  0  0  0  0  0  0
   -7.4053    4.6066  -17.9454 C   0  0  0  0  0  0  0  0  0  0  0  0
   -7.3665    4.4276  -19.2196 N   0  0  0  0  0  0  0  0  0  0  0  0
   -6.0213    4.4260  -19.5122 C   0  0  0  0  0  0  0  0  0  0  0  0
   -5.5980    4.3184  -20.6538 O   0  0  0  0  0  0  0  0  0  0  0  0
   -5.2033    4.5975  -18.3980 N   0  0  0  0  0  0  0  0  0  0  0  0
   -6.0291    4.6782  -17.4038 C   0  0  0  0  0  0  0  0  0  0  0  0
   -5.7561    4.9610  -15.9405 C   0  0  0  0  0  0  0  0  0  0  0  0
   -4.4342    4.2964  -15.5229 C   0  0  0  0  0  0  0  0  0  0  0  0
   -3.4520    5.3846  -15.4130 N   0  0  0  0  0  0  0  0  0  0  0  0
   -4.2055    6.5568  -15.0958 N   0  0  0  0  0  0  0  0  0  0  0  0
   -5.4124    6.4560  -15.8969 C   0  0  0  0  0  0  0  0  0  0  0  0
  1  2  1  0
  2  3  1  0
  2  4  1  0
  4  5  1  0
  5  6  1  0
  6  7  2  0
  6  8  1  0
  8  9  1  1
  8 10  1  0
 10 11  1  0
 11 12  2  0
 12 13  1  0
 13 14  2  0
 14 15  1  0
 15 16  2  0
 15 17  1  0
 17 18  1  0
 18 19  1  0
  8 20  1  0
 20 21  1  1
 21 22  1  0
 22 23  1  1
 22 24  1  0
 24 25  2  0
 25 26  1  0
 26 27  2  0
 26 28  1  0
 28 29  2  0
 29 30  1  0
 30 31  1  0
 31 32  1  0
 32 33  1  0
 33 34  1  0
 16 11  1  0
 30 20  1  0
 19 14  1  0
 29 24  1  0
 34 30  1  0
M  END
>  <smiles>  (2267) 
C34672-P265

>  <fragmenstein_outcome>  (2267) 
acceptable

>  <inchikey>  (2267) 
MMDMYFZKIZTTTN-UHFFFAOYSA-N

>  <fragmenstein_mode>  (2267) 
expansion

>  <HIPPO Pose ID>  (2267) 
27158

>  <Energy>  (2267) 
98.50312

>  <fragmenstein_error>  (2267) 


>  <tags>  (2267) 
{'openbind_xx01zvns2b_c1_fragmenstein', 'fragmenstein_placed'}

>  <ref_pdb>  (2267) 
175

>  <scratch_subdir>  (2267) 
/opt/xchem-fragalysis-2/maxwin/BulkDock/SCRATCH/511028/C34672-P265

>  <alias>  (2267) 
CC(C)CNC(=O)[C@@](O)(Nc1ccc2c(c1)CNC2)[C@H]1C[C@H](Cl)C2=NC(=O)N=C2C12CNNC2

>  <HIPPO Compound ID>  (2267) 
34672

>  <fragmenstein_runtime>  (2267) 
8.258478

$$$$
O=C1N=c2cc(C(=O)N[C@H]3CC4=C(CNC4)C4(CCOCC4)C3)cc(F)c2=N1
     RDKit          3D

 28 32  0  0  0  0  0  0  0  0999 V2000
   -6.1311    4.1603  -20.6572 O   0  0  0  0  0  0  0  0  0  0  0  0
   -6.5357    4.2870  -19.5084 C   0  0  0  0  0  0  0  0  0  0  0  0
   -5.6960    4.6075  -18.4388 N   0  0  0  0  0  0  0  0  0  0  0  0
   -6.4727    4.5200  -17.4178 C   0  0  0  0  0  0  0  0  0  0  0  0
   -6.1988    4.6676  -15.9839 C   0  0  0  0  0  0  0  0  0  0  0  0
   -7.2104    4.4830  -15.1076 C   0  0  0  0  0  0  0  0  0  0  0  0
   -6.8464    4.7739  -13.6647 C   0  0  0  0  0  0  0  0  0  0  0  0
   -6.0630    5.6173  -13.4620 O   0  0  0  0  0  0  0  0  0  0  0  0
   -7.6603    3.9000  -12.6754 N   0  0  0  0  0  0  0  0  0  0  0  0
   -7.7496    3.9500  -11.2124 C   0  0  1  0  0  0  0  0  0  0  0  0
   -7.9788    5.4157  -10.8232 C   0  0  0  0  0  0  0  0  0  0  0  0
   -8.2421    5.5642   -9.3807 C   0  0  0  0  0  0  0  0  0  0  0  0
   -8.6356    4.5936   -8.5489 C   0  0  0  0  0  0  0  0  0  0  0  0
   -8.6680    5.1852   -7.1737 C   0  0  0  0  0  0  0  0  0  0  0  0
   -8.0616    6.5336   -7.2680 N   0  0  0  0  0  0  0  0  0  0  0  0
   -8.0385    6.8639   -8.6970 C   0  0  0  0  0  0  0  0  0  0  0  0
   -8.9552    3.1564   -8.9848 C   0  0  0  0  0  0  0  0  0  0  0  0
   -8.0489    2.1404   -8.3309 C   0  0  0  0  0  0  0  0  0  0  0  0
   -8.4043    1.8590   -6.8250 C   0  0  0  0  0  0  0  0  0  0  0  0
   -9.7411    1.5073   -6.5542 O   0  0  0  0  0  0  0  0  0  0  0  0
  -10.5317    2.5498   -7.0259 C   0  0  0  0  0  0  0  0  0  0  0  0
  -10.2915    2.5797   -8.5285 C   0  0  0  0  0  0  0  0  0  0  0  0
   -8.8181    3.0369  -10.5718 C   0  0  0  0  0  0  0  0  0  0  0  0
   -8.5739    4.2449  -15.5585 C   0  0  0  0  0  0  0  0  0  0  0  0
   -8.8855    4.1074  -16.8536 C   0  0  0  0  0  0  0  0  0  0  0  0
  -10.1380    3.8959  -17.2839 F   0  0  0  0  0  0  0  0  0  0  0  0
   -7.8449    4.2013  -17.8701 C   0  0  0  0  0  0  0  0  0  0  0  0
   -7.8537    4.0622  -19.1437 N   0  0  0  0  0  0  0  0  0  0  0  0
  1  2  2  0
  2  3  1  0
  3  4  2  0
  4  5  1  0
  5  6  2  0
  6  7  1  0
  7  8  2  0
  7  9  1  0
 10  9  1  6
 10 11  1  0
 11 12  1  0
 12 13  2  0
 13 14  1  0
 14 15  1  0
 15 16  1  0
 13 17  1  0
 17 18  1  0
 18 19  1  0
 19 20  1  0
 20 21  1  0
 21 22  1  0
 17 23  1  0
  6 24  1  0
 24 25  2  0
 25 26  1  0
 25 27  1  0
 27 28  2  0
 28  2  1  0
 27  4  1  0
 23 10  1  0
 16 12  1  0
 22 17  1  0
M  END
>  <smiles>  (2268) 
C34689-P265

>  <fragmenstein_outcome>  (2268) 
acceptable

>  <inchikey>  (2268) 
JJZFNDPTTJIJLF-UHFFFAOYSA-N

>  <fragmenstein_mode>  (2268) 
expansion

>  <HIPPO Pose ID>  (2268) 
27168

>  <Energy>  (2268) 
30.839055

>  <fragmenstein_error>  (2268) 


>  <tags>  (2268) 
{'openbind_xx01zvns2b_c1_fragmenstein', 'fragmenstein_placed'}

>  <ref_pdb>  (2268) 
175

>  <scratch_subdir>  (2268) 
/opt/xchem-fragalysis-2/maxwin/BulkDock/SCRATCH/511028/C34689-P265

>  <alias>  (2268) 
O=C1N=c2cc(C(=O)N[C@H]3CC4=C(CNC4)C4(CCOCC4)C3)cc(F)c2=N1

>  <HIPPO Compound ID>  (2268) 
34689

>  <fragmenstein_runtime>  (2268) 
9.617263

$$$$
O=C1N=c2ccc3c(c2=[N+]1[O-])C=N[C@@H]3Nc1ccc2c(c1)CNC2
     RDKit          3D

 24 28  0  0  0  0  0  0  0  0999 V2000
   -5.9690    4.2363  -20.8575 O   0  0  0  0  0  0  0  0  0  0  0  0
   -6.4907    4.3141  -19.7481 C   0  0  0  0  0  0  0  0  0  0  0  0
   -7.7859    3.8754  -19.4930 N   0  0  0  0  0  0  0  0  0  0  0  0
   -7.9700    4.1114  -18.2370 C   0  0  0  0  0  0  0  0  0  0  0  0
   -9.1691    3.8786  -17.4201 C   0  0  0  0  0  0  0  0  0  0  0  0
   -9.0989    4.1382  -16.1036 C   0  0  0  0  0  0  0  0  0  0  0  0
   -7.9217    4.6770  -15.4654 C   0  0  0  0  0  0  0  0  0  0  0  0
   -6.8129    4.9566  -16.1514 C   0  0  0  0  0  0  0  0  0  0  0  0
   -6.7742    4.6960  -17.5641 C   0  0  0  0  0  0  0  0  0  0  0  0
   -5.8835    4.8551  -18.4866 N   0  0  0  0  0  0  0  0  0  0  0  0
   -4.7270    5.3646  -18.3570 O   0  0  0  0  0  0  0  0  0  0  0  0
   -5.9480    5.5470  -15.1582 C   0  0  0  0  0  0  0  0  0  0  0  0
   -6.4379    5.6953  -13.9626 N   0  0  0  0  0  0  0  0  0  0  0  0
   -7.7992    5.0976  -14.0216 C   0  0  2  0  0  0  0  0  0  0  0  0
   -8.0106    3.9592  -13.1515 N   0  0  0  0  0  0  0  0  0  0  0  0
   -8.2030    4.1162  -11.7696 C   0  0  0  0  0  0  0  0  0  0  0  0
   -7.9260    5.3023  -11.0619 C   0  0  0  0  0  0  0  0  0  0  0  0
   -8.0736    5.3868   -9.6664 C   0  0  0  0  0  0  0  0  0  0  0  0
   -8.4724    4.2594   -8.9752 C   0  0  0  0  0  0  0  0  0  0  0  0
   -8.7046    3.0677   -9.6447 C   0  0  0  0  0  0  0  0  0  0  0  0
   -8.5673    2.9815  -11.0225 C   0  0  0  0  0  0  0  0  0  0  0  0
   -9.0299    2.0015   -8.6505 C   0  0  0  0  0  0  0  0  0  0  0  0
   -9.3454    2.7304   -7.3920 N   0  0  0  0  0  0  0  0  0  0  0  0
   -8.6648    4.0390   -7.5123 C   0  0  0  0  0  0  0  0  0  0  0  0
  1  2  2  0
  2  3  1  0
  3  4  2  0
  4  5  1  0
  5  6  2  0
  6  7  1  0
  7  8  2  0
  8  9  1  0
  9 10  2  0
 10 11  1  0
  8 12  1  0
 12 13  2  0
 13 14  1  0
 14 15  1  1
 15 16  1  0
 16 17  2  0
 17 18  1  0
 18 19  2  0
 19 20  1  0
 20 21  2  0
 20 22  1  0
 22 23  1  0
 23 24  1  0
 10  2  1  0
 21 16  1  0
  9  4  1  0
 24 19  1  0
 14  7  1  0
M  CHG  2  10   1  11  -1
M  END
>  <smiles>  (2269) 
C34700-P265

>  <fragmenstein_outcome>  (2269) 
acceptable

>  <inchikey>  (2269) 
CQPZBNCLCXVCRO-UHFFFAOYSA-N

>  <fragmenstein_mode>  (2269) 
expansion

>  <HIPPO Pose ID>  (2269) 
27173

>  <Energy>  (2269) 
39.653651

>  <fragmenstein_error>  (2269) 


>  <tags>  (2269) 
{'openbind_xx01zvns2b_c1_fragmenstein', 'fragmenstein_placed'}

>  <ref_pdb>  (2269) 
175

>  <scratch_subdir>  (2269) 
/opt/xchem-fragalysis-2/maxwin/BulkDock/SCRATCH/511028/C34700-P265

>  <alias>  (2269) 
O=C1N=c2ccc3c(c2=[N+]1[O-])C=N[C@@H]3Nc1ccc2c(c1)CNC2

>  <HIPPO Compound ID>  (2269) 
25297

>  <fragmenstein_runtime>  (2269) 
1.713237

$$$$
C[C@@]1(OCCCO)C(=O)C2=c3c1c(C(=O)Nc1ccc4c(c1)CNC4)cc(F)c3=NC2=O
     RDKit          3D

 32 36  0  0  0  0  0  0  0  0999 V2000
   -4.3603    4.4522  -14.5038 C   0  0  0  0  0  0  0  0  0  0  0  0
   -4.9865    5.4027  -15.5239 C   0  0  1  0  0  0  0  0  0  0  0  0
   -4.9710    6.6985  -14.9578 O   0  0  0  0  0  0  0  0  0  0  0  0
   -4.8411    7.7753  -15.8841 C   0  0  0  0  0  0  0  0  0  0  0  0
   -5.0858    9.0811  -15.1373 C   0  0  0  0  0  0  0  0  0  0  0  0
   -4.8368   10.2986  -16.0130 C   0  0  0  0  0  0  0  0  0  0  0  0
   -5.6980   10.2906  -17.1473 O   0  0  0  0  0  0  0  0  0  0  0  0
   -4.2787    5.1621  -16.9356 C   0  0  0  0  0  0  0  0  0  0  0  0
   -3.0935    5.3338  -17.1792 O   0  0  0  0  0  0  0  0  0  0  0  0
   -5.2554    4.7325  -17.9105 C   0  0  0  0  0  0  0  0  0  0  0  0
   -6.3607    4.6451  -17.2173 C   0  0  0  0  0  0  0  0  0  0  0  0
   -6.4136    4.9818  -15.8546 C   0  0  0  0  0  0  0  0  0  0  0  0
   -7.6291    4.9155  -15.2807 C   0  0  0  0  0  0  0  0  0  0  0  0
   -7.8149    5.4680  -13.9052 C   0  0  0  0  0  0  0  0  0  0  0  0
   -7.7317    6.6147  -13.7020 O   0  0  0  0  0  0  0  0  0  0  0  0
   -8.1100    4.2955  -12.9366 N   0  0  0  0  0  0  0  0  0  0  0  0
   -8.2641    4.2827  -11.5500 C   0  0  0  0  0  0  0  0  0  0  0  0
   -8.0891    5.4515  -10.7906 C   0  0  0  0  0  0  0  0  0  0  0  0
   -8.2078    5.4275   -9.3963 C   0  0  0  0  0  0  0  0  0  0  0  0
   -8.5122    4.2258   -8.7841 C   0  0  0  0  0  0  0  0  0  0  0  0
   -8.6990    3.0709   -9.5319 C   0  0  0  0  0  0  0  0  0  0  0  0
   -8.5729    3.0772  -10.9138 C   0  0  0  0  0  0  0  0  0  0  0  0
   -8.9933    1.9301   -8.6177 C   0  0  0  0  0  0  0  0  0  0  0  0
   -9.1484    2.5167   -7.2597 N   0  0  0  0  0  0  0  0  0  0  0  0
   -8.6713    3.9128   -7.3360 C   0  0  0  0  0  0  0  0  0  0  0  0
   -8.7786    4.4204  -16.0678 C   0  0  0  0  0  0  0  0  0  0  0  0
   -8.7032    4.1183  -17.3830 C   0  0  0  0  0  0  0  0  0  0  0  0
   -9.7551    3.6574  -18.0783 F   0  0  0  0  0  0  0  0  0  0  0  0
   -7.4144    4.2506  -18.0996 C   0  0  0  0  0  0  0  0  0  0  0  0
   -6.9747    4.0876  -19.3036 N   0  0  0  0  0  0  0  0  0  0  0  0
   -5.6130    4.4205  -19.2748 C   0  0  0  0  0  0  0  0  0  0  0  0
   -4.8403    4.4553  -20.2163 O   0  0  0  0  0  0  0  0  0  0  0  0
  2  1  1  1
  2  3  1  0
  3  4  1  0
  4  5  1  0
  5  6  1  0
  6  7  1  0
  2  8  1  0
  8  9  2  0
  8 10  1  0
 10 11  2  0
 11 12  1  0
 12 13  2  0
 13 14  1  0
 14 15  2  0
 14 16  1  0
 16 17  1  0
 17 18  2  0
 18 19  1  0
 19 20  2  0
 20 21  1  0
 21 22  2  0
 21 23  1  0
 23 24  1  0
 24 25  1  0
 13 26  1  0
 26 27  2  0
 27 28  1  0
 27 29  1  0
 29 30  2  0
 30 31  1  0
 31 32  2  0
 12  2  1  0
 22 17  1  0
 31 10  1  0
 29 11  1  0
 25 20  1  0
M  END
>  <smiles>  (2270) 
C34701-P265

>  <fragmenstein_outcome>  (2270) 
acceptable

>  <inchikey>  (2270) 
VVEQVZZQQZJTQX-UHFFFAOYSA-N

>  <fragmenstein_mode>  (2270) 
expansion

>  <HIPPO Pose ID>  (2270) 
27174

>  <Energy>  (2270) 
79.449591

>  <fragmenstein_error>  (2270) 


>  <tags>  (2270) 
{'openbind_xx01zvns2b_c1_fragmenstein', 'fragmenstein_placed'}

>  <ref_pdb>  (2270) 
175

>  <scratch_subdir>  (2270) 
/opt/xchem-fragalysis-2/maxwin/BulkDock/SCRATCH/511028/C34701-P265

>  <alias>  (2270) 
C[C@@]1(OCCCO)C(=O)C2=c3c1c(C(=O)Nc1ccc4c(c1)CNC4)cc(F)c3=NC2=O

>  <HIPPO Compound ID>  (2270) 
34701

>  <fragmenstein_runtime>  (2270) 
5.63959

$$$$
O=C(Nc1ccc2c(c1)CNC2)c1cc(F)c2[nH]c(=O)n3ncc1c23
     RDKit          3D

 25 29  0  0  0  0  0  0  0  0999 V2000
   -6.9269    6.2760  -13.9088 O   0  0  0  0  0  0  0  0  0  0  0  0
   -7.3886    5.2190  -14.1030 C   0  0  0  0  0  0  0  0  0  0  0  0
   -7.9203    4.1533  -13.1043 N   0  0  0  0  0  0  0  0  0  0  0  0
   -8.0750    4.2076  -11.7147 C   0  0  0  0  0  0  0  0  0  0  0  0
   -7.7984    5.3730  -10.9833 C   0  0  0  0  0  0  0  0  0  0  0  0
   -7.9779    5.4096   -9.5926 C   0  0  0  0  0  0  0  0  0  0  0  0
   -8.4179    4.2646   -8.9533 C   0  0  0  0  0  0  0  0  0  0  0  0
   -8.6737    3.1016   -9.6698 C   0  0  0  0  0  0  0  0  0  0  0  0
   -8.5238    3.0599  -11.0484 C   0  0  0  0  0  0  0  0  0  0  0  0
   -9.0448    2.0137   -8.7143 C   0  0  0  0  0  0  0  0  0  0  0  0
   -9.3617    2.7071   -7.4386 N   0  0  0  0  0  0  0  0  0  0  0  0
   -8.6551    4.0051   -7.5024 C   0  0  0  0  0  0  0  0  0  0  0  0
   -7.5911    4.8074  -15.5112 C   0  0  0  0  0  0  0  0  0  0  0  0
   -8.8801    4.3324  -15.9518 C   0  0  0  0  0  0  0  0  0  0  0  0
   -9.1532    4.0188  -17.3018 C   0  0  0  0  0  0  0  0  0  0  0  0
  -10.3645    3.6222  -17.6962 F   0  0  0  0  0  0  0  0  0  0  0  0
   -8.1438    4.1375  -18.2054 C   0  0  0  0  0  0  0  0  0  0  0  0
   -7.8763    3.9173  -19.5605 N   0  0  0  0  0  0  0  0  0  0  0  0
   -6.5252    4.2779  -19.8776 C   0  0  0  0  0  0  0  0  0  0  0  0
   -5.9071    4.2179  -20.9253 O   0  0  0  0  0  0  0  0  0  0  0  0
   -6.0186    4.7274  -18.6363 N   0  0  0  0  0  0  0  0  0  0  0  0
   -4.8903    5.2389  -18.1032 N   0  0  0  0  0  0  0  0  0  0  0  0
   -5.2448    5.3871  -16.7877 C   0  0  0  0  0  0  0  0  0  0  0  0
   -6.5865    4.9742  -16.4885 C   0  0  0  0  0  0  0  0  0  0  0  0
   -6.9805    4.6081  -17.7207 C   0  0  0  0  0  0  0  0  0  0  0  0
  1  2  2  0
  2  3  1  0
  3  4  1  0
  4  5  2  0
  5  6  1  0
  6  7  2  0
  7  8  1  0
  8  9  2  0
  8 10  1  0
 10 11  1  0
 11 12  1  0
  2 13  1  0
 13 14  2  0
 14 15  1  0
 15 16  1  0
 15 17  2  0
 17 18  1  0
 18 19  1  0
 19 20  2  0
 19 21  1  0
 21 22  1  0
 22 23  2  0
 23 24  1  0
 24 25  2  0
  9  4  1  0
 24 13  1  0
 12  7  1  0
 25 17  1  0
 25 21  1  0
M  END
>  <smiles>  (2271) 
C34703-P265

>  <fragmenstein_outcome>  (2271) 
acceptable

>  <inchikey>  (2271) 
BEMZHPSPHLYWGK-UHFFFAOYSA-N

>  <fragmenstein_mode>  (2271) 
expansion

>  <HIPPO Pose ID>  (2271) 
27176

>  <Energy>  (2271) 
137.75108

>  <fragmenstein_error>  (2271) 


>  <tags>  (2271) 
{'openbind_xx01zvns2b_c1_fragmenstein', 'fragmenstein_placed'}

>  <ref_pdb>  (2271) 
175

>  <scratch_subdir>  (2271) 
/opt/xchem-fragalysis-2/maxwin/BulkDock/SCRATCH/511028/C34703-P265

>  <alias>  (2271) 
O=C(Nc1ccc2c(c1)CNC2)c1cc(F)c2[nH]c(=O)n3ncc1c23

>  <HIPPO Compound ID>  (2271) 
34703

>  <fragmenstein_runtime>  (2271) 
2.581354

$$$$
CC(C)Oc1c([C@](O)(Nc2ccc3c(c2)CNC3)C(=O)NCC(F)F)cc(Cl)c2c1=NC(=O)N=2
     RDKit          3D

 34 37  0  0  0  0  0  0  0  0999 V2000
   -3.5067    6.9370  -16.5103 C   0  0  0  0  0  0  0  0  0  0  0  0
   -4.9618    6.7745  -16.0917 C   0  0  0  0  0  0  0  0  0  0  0  0
   -5.3646    7.7676  -15.0063 C   0  0  0  0  0  0  0  0  0  0  0  0
   -5.1541    5.4298  -15.5995 O   0  0  0  0  0  0  0  0  0  0  0  0
   -6.3245    4.8831  -16.0812 C   0  0  0  0  0  0  0  0  0  0  0  0
   -7.3019    4.3559  -15.3016 C   0  0  0  0  0  0  0  0  0  0  0  0
   -7.1532    3.9312  -13.8136 C   0  0  2  0  0  0  0  0  0  0  0  0
   -7.7025    2.6282  -13.7447 O   0  0  0  0  0  0  0  0  0  0  0  0
   -7.9936    4.8114  -12.9674 N   0  0  0  0  0  0  0  0  0  0  0  0
   -8.0871    4.5756  -11.5673 C   0  0  0  0  0  0  0  0  0  0  0  0
   -8.0270    5.7061  -10.7238 C   0  0  0  0  0  0  0  0  0  0  0  0
   -8.1756    5.6003   -9.3363 C   0  0  0  0  0  0  0  0  0  0  0  0
   -8.4332    4.3542   -8.7992 C   0  0  0  0  0  0  0  0  0  0  0  0
   -8.5490    3.2402   -9.6159 C   0  0  0  0  0  0  0  0  0  0  0  0
   -8.3767    3.3295  -10.9931 C   0  0  0  0  0  0  0  0  0  0  0  0
   -8.8772    2.0442   -8.7853 C   0  0  0  0  0  0  0  0  0  0  0  0
   -9.0169    2.5311   -7.3851 N   0  0  0  0  0  0  0  0  0  0  0  0
   -8.6420    3.9588   -7.3785 C   0  0  0  0  0  0  0  0  0  0  0  0
   -5.6150    3.8134  -13.3667 C   0  0  0  0  0  0  0  0  0  0  0  0
   -4.9805    2.8764  -13.6664 O   0  0  0  0  0  0  0  0  0  0  0  0
   -5.2048    5.1055  -12.6135 N   0  0  0  0  0  0  0  0  0  0  0  0
   -3.9506    5.4718  -11.9886 C   0  0  0  0  0  0  0  0  0  0  0  0
   -2.8195    5.7007  -12.9921 C   0  0  0  0  0  0  0  0  0  0  0  0
   -1.6188    5.4317  -12.4202 F   0  0  0  0  0  0  0  0  0  0  0  0
   -2.7726    7.0168  -13.3318 F   0  0  0  0  0  0  0  0  0  0  0  0
   -8.6352    4.1385  -15.9084 C   0  0  0  0  0  0  0  0  0  0  0  0
   -8.8789    4.1494  -17.2242 C   0  0  0  0  0  0  0  0  0  0  0  0
  -10.4316    4.1751  -17.9056 Cl  0  0  0  0  0  0  0  0  0  0  0  0
   -7.7505    4.2781  -18.1261 C   0  0  0  0  0  0  0  0  0  0  0  0
   -6.4671    4.7194  -17.5544 C   0  0  0  0  0  0  0  0  0  0  0  0
   -5.6108    4.8655  -18.5064 N   0  0  0  0  0  0  0  0  0  0  0  0
   -6.3115    4.4544  -19.6363 C   0  0  0  0  0  0  0  0  0  0  0  0
   -5.8065    4.3877  -20.7484 O   0  0  0  0  0  0  0  0  0  0  0  0
   -7.6223    4.1000  -19.3891 N   0  0  0  0  0  0  0  0  0  0  0  0
  1  2  1  0
  2  3  1  0
  2  4  1  0
  4  5  1  0
  5  6  2  0
  6  7  1  0
  7  8  1  6
  7  9  1  0
  9 10  1  0
 10 11  2  0
 11 12  1  0
 12 13  2  0
 13 14  1  0
 14 15  2  0
 14 16  1  0
 16 17  1  0
 17 18  1  0
  7 19  1  0
 19 20  2  0
 19 21  1  0
 21 22  1  0
 22 23  1  0
 23 24  1  0
 23 25  1  0
  6 26  1  0
 26 27  2  0
 27 28  1  0
 27 29  1  0
 29 30  1  0
 30 31  2  0
 31 32  1  0
 32 33  2  0
 32 34  1  0
 30  5  1  0
 15 10  1  0
 34 29  2  0
 18 13  1  0
M  END
>  <smiles>  (2272) 
C24115-P265

>  <fragmenstein_outcome>  (2272) 
acceptable

>  <inchikey>  (2272) 
ZANRKBGZXOSPCI-UHFFFAOYSA-N

>  <fragmenstein_mode>  (2272) 
expansion

>  <HIPPO Pose ID>  (2272) 
27177

>  <Energy>  (2272) 
119.019279

>  <fragmenstein_error>  (2272) 


>  <tags>  (2272) 
{'openbind_xx01zvns2b_c1_fragmenstein', 'fragmenstein_placed'}

>  <ref_pdb>  (2272) 
175

>  <scratch_subdir>  (2272) 
/opt/xchem-fragalysis-2/maxwin/BulkDock/SCRATCH/511028/C24115-P265

>  <alias>  (2272) 
CC(C)Oc1c([C@](O)(Nc2ccc3c(c2)CNC3)C(=O)NCC(F)F)cc(Cl)c2c1=NC(=O)N=2

>  <HIPPO Compound ID>  (2272) 
24115

>  <fragmenstein_runtime>  (2272) 
13.083347

$$$$
CCc1c([C@](O)(Nc2ccc3c(c2)CNC3)C(=O)NCC(F)F)cc(Cl)c2c1=NC(=O)N=2
     RDKit          3D

 32 35  0  0  0  0  0  0  0  0999 V2000
   -4.3427    6.5269  -15.4276 C   0  0  0  0  0  0  0  0  0  0  0  0
   -4.7911    5.0812  -15.2328 C   0  0  0  0  0  0  0  0  0  0  0  0
   -6.2165    4.8383  -15.6835 C   0  0  0  0  0  0  0  0  0  0  0  0
   -7.3437    4.6575  -14.9408 C   0  0  0  0  0  0  0  0  0  0  0  0
   -7.2940    4.7191  -13.3917 C   0  0  2  0  0  0  0  0  0  0  0  0
   -6.2872    3.8122  -12.9741 O   0  0  0  0  0  0  0  0  0  0  0  0
   -8.5480    4.2784  -12.7596 N   0  0  0  0  0  0  0  0  0  0  0  0
   -8.5988    4.2451  -11.3464 C   0  0  0  0  0  0  0  0  0  0  0  0
   -8.4646    5.4098  -10.5675 C   0  0  0  0  0  0  0  0  0  0  0  0
   -8.3790    5.3595   -9.1714 C   0  0  0  0  0  0  0  0  0  0  0  0
   -8.4852    4.1306   -8.5533 C   0  0  0  0  0  0  0  0  0  0  0  0
   -8.6704    2.9742   -9.2970 C   0  0  0  0  0  0  0  0  0  0  0  0
   -8.7187    3.0129  -10.6838 C   0  0  0  0  0  0  0  0  0  0  0  0
   -8.7691    1.8053   -8.3719 C   0  0  0  0  0  0  0  0  0  0  0  0
   -8.8798    2.3836   -7.0107 N   0  0  0  0  0  0  0  0  0  0  0  0
   -8.4422    3.7898   -7.1028 C   0  0  0  0  0  0  0  0  0  0  0  0
   -6.9708    6.2700  -13.0488 C   0  0  0  0  0  0  0  0  0  0  0  0
   -7.5884    7.1691  -13.4765 O   0  0  0  0  0  0  0  0  0  0  0  0
   -5.6915    6.2572  -12.1539 N   0  0  0  0  0  0  0  0  0  0  0  0
   -4.9723    7.3456  -11.5282 C   0  0  0  0  0  0  0  0  0  0  0  0
   -5.7844    8.1530  -10.5212 C   0  0  0  0  0  0  0  0  0  0  0  0
   -5.9385    7.4370   -9.3773 F   0  0  0  0  0  0  0  0  0  0  0  0
   -5.0859    9.2679  -10.1786 F   0  0  0  0  0  0  0  0  0  0  0  0
   -8.6467    4.4503  -15.6169 C   0  0  0  0  0  0  0  0  0  0  0  0
   -8.8186    4.3564  -16.9446 C   0  0  0  0  0  0  0  0  0  0  0  0
  -10.3180    4.1454  -17.7347 Cl  0  0  0  0  0  0  0  0  0  0  0  0
   -7.6529    4.5261  -17.7934 C   0  0  0  0  0  0  0  0  0  0  0  0
   -6.3563    4.7860  -17.1454 C   0  0  0  0  0  0  0  0  0  0  0  0
   -5.4565    4.9576  -18.0436 N   0  0  0  0  0  0  0  0  0  0  0  0
   -6.1626    4.8297  -19.2250 C   0  0  0  0  0  0  0  0  0  0  0  0
   -5.6206    5.0198  -20.2934 O   0  0  0  0  0  0  0  0  0  0  0  0
   -7.5014    4.5289  -19.0669 N   0  0  0  0  0  0  0  0  0  0  0  0
  1  2  1  0
  2  3  1  0
  3  4  2  0
  4  5  1  0
  5  6  1  1
  5  7  1  0
  7  8  1  0
  8  9  2  0
  9 10  1  0
 10 11  2  0
 11 12  1  0
 12 13  2  0
 12 14  1  0
 14 15  1  0
 15 16  1  0
  5 17  1  0
 17 18  2  0
 17 19  1  0
 19 20  1  0
 20 21  1  0
 21 22  1  0
 21 23  1  0
  4 24  1  0
 24 25  2  0
 25 26  1  0
 25 27  1  0
 27 28  1  0
 28 29  2  0
 29 30  1  0
 30 31  2  0
 30 32  1  0
 28  3  1  0
 13  8  1  0
 32 27  2  0
 16 11  1  0
M  END
>  <smiles>  (2273) 
C34658-P112

>  <fragmenstein_outcome>  (2273) 
acceptable

>  <inchikey>  (2273) 
ZLLPSKVEUKEHHE-UHFFFAOYSA-N

>  <fragmenstein_mode>  (2273) 
expansion

>  <HIPPO Pose ID>  (2273) 
27181

>  <Energy>  (2273) 
101.838418

>  <fragmenstein_error>  (2273) 


>  <tags>  (2273) 
{'openbind_xx01zvns2b_c1_fragmenstein', 'fragmenstein_placed'}

>  <ref_pdb>  (2273) 
175

>  <scratch_subdir>  (2273) 
/opt/xchem-fragalysis-2/maxwin/BulkDock/SCRATCH/511028/C34658-P112

>  <alias>  (2273) 
CCc1c([C@](O)(Nc2ccc3c(c2)CNC3)C(=O)NCC(F)F)cc(Cl)c2c1=NC(=O)N=2

>  <HIPPO Compound ID>  (2273) 
34658

>  <fragmenstein_runtime>  (2273) 
4.36576

$$$$
O=C1N=c2c(F)cc(C(=O)Nc3ccc4c(c3)CNC4)c3c2=C1C(C1CNC1)=C3
     RDKit          3D

 29 34  0  0  0  0  0  0  0  0999 V2000
   -5.8800    4.3441  -20.9438 O   0  0  0  0  0  0  0  0  0  0  0  0
   -6.4838    4.3826  -19.8833 C   0  0  0  0  0  0  0  0  0  0  0  0
   -7.7555    3.8426  -19.6229 N   0  0  0  0  0  0  0  0  0  0  0  0
   -7.9905    4.0570  -18.3737 C   0  0  0  0  0  0  0  0  0  0  0  0
   -9.0653    3.8784  -17.3842 C   0  0  0  0  0  0  0  0  0  0  0  0
  -10.2248    3.3902  -17.8479 F   0  0  0  0  0  0  0  0  0  0  0  0
   -8.8760    4.2524  -16.0934 C   0  0  0  0  0  0  0  0  0  0  0  0
   -7.6324    4.9254  -15.5910 C   0  0  0  0  0  0  0  0  0  0  0  0
   -7.5469    5.4632  -14.1871 C   0  0  0  0  0  0  0  0  0  0  0  0
   -7.1608    6.5489  -13.9815 O   0  0  0  0  0  0  0  0  0  0  0  0
   -7.9934    4.3447  -13.1956 N   0  0  0  0  0  0  0  0  0  0  0  0
   -8.1396    4.3699  -11.8030 C   0  0  0  0  0  0  0  0  0  0  0  0
   -7.9091    5.5397  -11.0630 C   0  0  0  0  0  0  0  0  0  0  0  0
   -8.0316    5.5456   -9.6663 C   0  0  0  0  0  0  0  0  0  0  0  0
   -8.3789    4.3692   -9.0261 C   0  0  0  0  0  0  0  0  0  0  0  0
   -8.6199    3.2111   -9.7498 C   0  0  0  0  0  0  0  0  0  0  0  0
   -8.5110    3.1936  -11.1363 C   0  0  0  0  0  0  0  0  0  0  0  0
   -8.9723    2.1045   -8.8125 C   0  0  0  0  0  0  0  0  0  0  0  0
   -8.9095    2.6736   -7.4395 N   0  0  0  0  0  0  0  0  0  0  0  0
   -8.5555    4.1016   -7.5712 C   0  0  0  0  0  0  0  0  0  0  0  0
   -6.6601    5.1970  -16.4857 C   0  0  0  0  0  0  0  0  0  0  0  0
   -6.8818    4.6680  -17.7631 C   0  0  0  0  0  0  0  0  0  0  0  0
   -5.9724    4.9756  -18.6472 C   0  0  0  0  0  0  0  0  0  0  0  0
   -5.0357    5.8251  -17.9737 C   0  0  0  0  0  0  0  0  0  0  0  0
   -3.9960    6.5794  -18.6910 C   0  0  0  0  0  0  0  0  0  0  0  0
   -4.4821    7.8783  -19.3853 C   0  0  0  0  0  0  0  0  0  0  0  0
   -3.9597    8.6508  -18.2379 N   0  0  0  0  0  0  0  0  0  0  0  0
   -3.0591    7.5255  -17.9101 C   0  0  0  0  0  0  0  0  0  0  0  0
   -5.3980    5.9339  -16.6557 C   0  0  0  0  0  0  0  0  0  0  0  0
  1  2  2  0
  2  3  1  0
  3  4  2  0
  4  5  1  0
  5  6  1  0
  5  7  2  0
  7  8  1  0
  8  9  1  0
  9 10  2  0
  9 11  1  0
 11 12  1  0
 12 13  2  0
 13 14  1  0
 14 15  2  0
 15 16  1  0
 16 17  2  0
 16 18  1  0
 18 19  1  0
 19 20  1  0
  8 21  2  0
 21 22  1  0
 22 23  2  0
 23 24  1  0
 24 25  1  0
 25 26  1  0
 26 27  1  0
 27 28  1  0
 24 29  2  0
 23  2  1  0
 28 25  1  0
 22  4  1  0
 17 12  1  0
 29 21  1  0
 20 15  1  0
M  END
>  <smiles>  (2274) 
C34720-P265

>  <fragmenstein_outcome>  (2274) 
acceptable

>  <inchikey>  (2274) 
QJHQLVJZBWBXNY-UHFFFAOYSA-N

>  <fragmenstein_mode>  (2274) 
expansion

>  <HIPPO Pose ID>  (2274) 
27182

>  <Energy>  (2274) 
139.645706

>  <fragmenstein_error>  (2274) 


>  <tags>  (2274) 
{'openbind_xx01zvns2b_c1_fragmenstein', 'fragmenstein_placed'}

>  <ref_pdb>  (2274) 
175

>  <scratch_subdir>  (2274) 
/opt/xchem-fragalysis-2/maxwin/BulkDock/SCRATCH/511028/C34720-P265

>  <alias>  (2274) 
O=C1N=c2c(F)cc(C(=O)Nc3ccc4c(c3)CNC4)c3c2=C1C(C1CNC1)=C3

>  <HIPPO Compound ID>  (2274) 
34720

>  <fragmenstein_runtime>  (2274) 
5.570534

$$$$
CCc1c([C@@](O)(Nc2ccc3c(c2)CNC3)C(=O)NCCCF)cc(Cl)c2c1=NC(=O)N=2
     RDKit          3D

 32 35  0  0  0  0  0  0  0  0999 V2000
   -4.5795    6.6992  -15.7214 C   0  0  0  0  0  0  0  0  0  0  0  0
   -4.7555    5.1889  -15.7939 C   0  0  0  0  0  0  0  0  0  0  0  0
   -6.1826    4.8009  -16.1100 C   0  0  0  0  0  0  0  0  0  0  0  0
   -7.2630    4.6882  -15.2807 C   0  0  0  0  0  0  0  0  0  0  0  0
   -7.2737    5.0144  -13.7536 C   0  0  1  0  0  0  0  0  0  0  0  0
   -7.6991    6.3624  -13.7360 O   0  0  0  0  0  0  0  0  0  0  0  0
   -8.3409    4.2741  -13.0330 N   0  0  0  0  0  0  0  0  0  0  0  0
   -8.3459    4.2579  -11.6143 C   0  0  0  0  0  0  0  0  0  0  0  0
   -8.0071    5.3819  -10.8258 C   0  0  0  0  0  0  0  0  0  0  0  0
   -8.0655    5.3568   -9.4261 C   0  0  0  0  0  0  0  0  0  0  0  0
   -8.4603    4.1907   -8.8079 C   0  0  0  0  0  0  0  0  0  0  0  0
   -8.7898    3.0715   -9.5554 C   0  0  0  0  0  0  0  0  0  0  0  0
   -8.7634    3.0946  -10.9457 C   0  0  0  0  0  0  0  0  0  0  0  0
   -9.0959    1.9420   -8.6303 C   0  0  0  0  0  0  0  0  0  0  0  0
   -9.1796    2.5334   -7.2702 N   0  0  0  0  0  0  0  0  0  0  0  0
   -8.5928    3.8863   -7.3559 C   0  0  0  0  0  0  0  0  0  0  0  0
   -5.8576    4.7112  -13.0175 C   0  0  0  0  0  0  0  0  0  0  0  0
   -5.1675    5.5648  -12.6042 O   0  0  0  0  0  0  0  0  0  0  0  0
   -5.6427    3.1605  -13.0504 N   0  0  0  0  0  0  0  0  0  0  0  0
   -4.5858    2.3511  -12.4986 C   0  0  0  0  0  0  0  0  0  0  0  0
   -5.0128    1.6871  -11.1984 C   0  0  0  0  0  0  0  0  0  0  0  0
   -3.8681    0.8882  -10.6059 C   0  0  0  0  0  0  0  0  0  0  0  0
   -2.8722    1.7434  -10.2461 F   0  0  0  0  0  0  0  0  0  0  0  0
   -8.5998    4.4464  -15.8724 C   0  0  0  0  0  0  0  0  0  0  0  0
   -8.8445    4.2552  -17.1738 C   0  0  0  0  0  0  0  0  0  0  0  0
  -10.4026    4.1569  -17.8422 Cl  0  0  0  0  0  0  0  0  0  0  0  0
   -7.7280    4.2583  -18.0979 C   0  0  0  0  0  0  0  0  0  0  0  0
   -6.3914    4.5826  -17.5686 C   0  0  0  0  0  0  0  0  0  0  0  0
   -5.5590    4.6352  -18.5510 N   0  0  0  0  0  0  0  0  0  0  0  0
   -6.3326    4.2992  -19.6564 C   0  0  0  0  0  0  0  0  0  0  0  0
   -5.8799    4.2097  -20.7896 O   0  0  0  0  0  0  0  0  0  0  0  0
   -7.6569    4.0532  -19.3621 N   0  0  0  0  0  0  0  0  0  0  0  0
  1  2  1  0
  2  3  1  0
  3  4  2  0
  4  5  1  0
  5  6  1  6
  5  7  1  0
  7  8  1  0
  8  9  2  0
  9 10  1  0
 10 11  2  0
 11 12  1  0
 12 13  2  0
 12 14  1  0
 14 15  1  0
 15 16  1  0
  5 17  1  0
 17 18  2  0
 17 19  1  0
 19 20  1  0
 20 21  1  0
 21 22  1  0
 22 23  1  0
  4 24  1  0
 24 25  2  0
 25 26  1  0
 25 27  1  0
 27 28  1  0
 28 29  2  0
 29 30  1  0
 30 31  2  0
 30 32  1  0
 28  3  1  0
 13  8  1  0
 32 27  2  0
 16 11  1  0
M  END
>  <smiles>  (2275) 
C34724-P265

>  <fragmenstein_outcome>  (2275) 
acceptable

>  <inchikey>  (2275) 
GIUHBHVCSLUVNC-UHFFFAOYSA-N

>  <fragmenstein_mode>  (2275) 
expansion

>  <HIPPO Pose ID>  (2275) 
27183

>  <Energy>  (2275) 
74.676035

>  <fragmenstein_error>  (2275) 


>  <tags>  (2275) 
{'openbind_xx01zvns2b_c1_fragmenstein', 'fragmenstein_placed'}

>  <ref_pdb>  (2275) 
175

>  <scratch_subdir>  (2275) 
/opt/xchem-fragalysis-2/maxwin/BulkDock/SCRATCH/511028/C34724-P265

>  <alias>  (2275) 
CCc1c([C@@](O)(Nc2ccc3c(c2)CNC3)C(=O)NCCCF)cc(Cl)c2c1=NC(=O)N=2

>  <HIPPO Compound ID>  (2275) 
39987

>  <fragmenstein_runtime>  (2275) 
7.521123

$$$$
CCC1=c2cc([C@](O)(Nc3ccc4c(c3)CNC4)C(=O)NCCCF)cc(Cl)c2=NC1=O
     RDKit          3D

 32 35  0  0  0  0  0  0  0  0999 V2000
   -3.0559    4.4820  -18.8169 C   0  0  0  0  0  0  0  0  0  0  0  0
   -4.1629    5.3870  -18.3095 C   0  0  0  0  0  0  0  0  0  0  0  0
   -5.5404    4.8306  -18.3547 C   0  0  0  0  0  0  0  0  0  0  0  0
   -6.3893    4.5629  -17.3596 C   0  0  0  0  0  0  0  0  0  0  0  0
   -6.2820    4.5134  -15.9289 C   0  0  0  0  0  0  0  0  0  0  0  0
   -7.3587    4.2026  -15.1622 C   0  0  0  0  0  0  0  0  0  0  0  0
   -7.2657    3.9050  -13.6351 C   0  0  2  0  0  0  0  0  0  0  0  0
   -7.1839    2.5023  -13.4944 O   0  0  0  0  0  0  0  0  0  0  0  0
   -8.5213    4.3447  -12.9765 N   0  0  0  0  0  0  0  0  0  0  0  0
   -8.5642    4.2672  -11.5566 C   0  0  0  0  0  0  0  0  0  0  0  0
   -8.5101    5.4492  -10.7944 C   0  0  0  0  0  0  0  0  0  0  0  0
   -8.5303    5.4228   -9.3937 C   0  0  0  0  0  0  0  0  0  0  0  0
   -8.6532    4.1992   -8.7660 C   0  0  0  0  0  0  0  0  0  0  0  0
   -8.7535    3.0295   -9.5043 C   0  0  0  0  0  0  0  0  0  0  0  0
   -8.6858    3.0405  -10.8896 C   0  0  0  0  0  0  0  0  0  0  0  0
   -8.9306    1.8721   -8.5818 C   0  0  0  0  0  0  0  0  0  0  0  0
   -9.0929    2.4524   -7.2211 N   0  0  0  0  0  0  0  0  0  0  0  0
   -8.7103    3.8753   -7.3138 C   0  0  0  0  0  0  0  0  0  0  0  0
   -5.9496    4.6194  -13.0735 C   0  0  0  0  0  0  0  0  0  0  0  0
   -4.9610    4.0247  -12.8695 O   0  0  0  0  0  0  0  0  0  0  0  0
   -6.2484    6.1433  -12.9725 N   0  0  0  0  0  0  0  0  0  0  0  0
   -5.4269    7.2240  -12.5127 C   0  0  0  0  0  0  0  0  0  0  0  0
   -5.4514    7.3763  -10.9951 C   0  0  0  0  0  0  0  0  0  0  0  0
   -4.9537    6.1556  -10.2430 C   0  0  0  0  0  0  0  0  0  0  0  0
   -5.8047    5.1180  -10.4043 F   0  0  0  0  0  0  0  0  0  0  0  0
   -8.6667    4.1153  -15.8384 C   0  0  0  0  0  0  0  0  0  0  0  0
   -8.8242    4.1371  -17.1715 C   0  0  0  0  0  0  0  0  0  0  0  0
  -10.3591    4.2114  -17.9089 Cl  0  0  0  0  0  0  0  0  0  0  0  0
   -7.6437    4.2563  -18.0421 C   0  0  0  0  0  0  0  0  0  0  0  0
   -7.5503    4.1813  -19.3240 N   0  0  0  0  0  0  0  0  0  0  0  0
   -6.2510    4.4949  -19.6189 C   0  0  0  0  0  0  0  0  0  0  0  0
   -5.7314    4.4858  -20.7243 O   0  0  0  0  0  0  0  0  0  0  0  0
  1  2  1  0
  2  3  1  0
  3  4  2  0
  4  5  1  0
  5  6  2  0
  6  7  1  0
  7  8  1  6
  7  9  1  0
  9 10  1  0
 10 11  2  0
 11 12  1  0
 12 13  2  0
 13 14  1  0
 14 15  2  0
 14 16  1  0
 16 17  1  0
 17 18  1  0
  7 19  1  0
 19 20  2  0
 19 21  1  0
 21 22  1  0
 22 23  1  0
 23 24  1  0
 24 25  1  0
  6 26  1  0
 26 27  2  0
 27 28  1  0
 27 29  1  0
 29 30  2  0
 30 31  1  0
 31 32  2  0
 31  3  1  0
 29  4  1  0
 15 10  1  0
 18 13  1  0
M  END
>  <smiles>  (2276) 
C34725-P265

>  <fragmenstein_outcome>  (2276) 
acceptable

>  <inchikey>  (2276) 
ZKOMOSSSASDFPP-UHFFFAOYSA-N

>  <fragmenstein_mode>  (2276) 
expansion

>  <HIPPO Pose ID>  (2276) 
27184

>  <Energy>  (2276) 
91.960285

>  <fragmenstein_error>  (2276) 


>  <tags>  (2276) 
{'openbind_xx01zvns2b_c1_fragmenstein', 'fragmenstein_placed'}

>  <ref_pdb>  (2276) 
175

>  <scratch_subdir>  (2276) 
/opt/xchem-fragalysis-2/maxwin/BulkDock/SCRATCH/511028/C34725-P265

>  <alias>  (2276) 
CCC1=c2cc([C@](O)(Nc3ccc4c(c3)CNC4)C(=O)NCCCF)cc(Cl)c2=NC1=O

>  <HIPPO Compound ID>  (2276) 
39336

>  <fragmenstein_runtime>  (2276) 
6.966519

$$$$
O=C(Nc1ccc2c(c1)CNC2)c1cc(F)c2[nH]c(=O)n3c2c1CN3
     RDKit          3D

 25 29  0  0  0  0  0  0  0  0999 V2000
   -6.8455    6.1956  -13.8889 O   0  0  0  0  0  0  0  0  0  0  0  0
   -7.4162    5.1943  -14.0887 C   0  0  0  0  0  0  0  0  0  0  0  0
   -8.1150    4.2195  -13.1010 N   0  0  0  0  0  0  0  0  0  0  0  0
   -8.1708    4.2279  -11.7039 C   0  0  0  0  0  0  0  0  0  0  0  0
   -7.8475    5.3795  -10.9687 C   0  0  0  0  0  0  0  0  0  0  0  0
   -7.9757    5.4016   -9.5728 C   0  0  0  0  0  0  0  0  0  0  0  0
   -8.4114    4.2553   -8.9334 C   0  0  0  0  0  0  0  0  0  0  0  0
   -8.7006    3.1019   -9.6537 C   0  0  0  0  0  0  0  0  0  0  0  0
   -8.6026    3.0749  -11.0372 C   0  0  0  0  0  0  0  0  0  0  0  0
   -9.0576    2.0104   -8.6973 C   0  0  0  0  0  0  0  0  0  0  0  0
   -9.3481    2.6999   -7.4129 N   0  0  0  0  0  0  0  0  0  0  0  0
   -8.6260    3.9894   -7.4804 C   0  0  0  0  0  0  0  0  0  0  0  0
   -7.6172    4.7935  -15.5083 C   0  0  0  0  0  0  0  0  0  0  0  0
   -8.9118    4.3545  -15.9558 C   0  0  0  0  0  0  0  0  0  0  0  0
   -9.1913    4.0663  -17.3173 C   0  0  0  0  0  0  0  0  0  0  0  0
  -10.4136    3.6972  -17.7124 F   0  0  0  0  0  0  0  0  0  0  0  0
   -8.1768    4.1934  -18.2092 C   0  0  0  0  0  0  0  0  0  0  0  0
   -7.9475    3.9373  -19.5606 N   0  0  0  0  0  0  0  0  0  0  0  0
   -6.5642    4.2672  -19.8741 C   0  0  0  0  0  0  0  0  0  0  0  0
   -6.0203    4.0827  -20.9514 O   0  0  0  0  0  0  0  0  0  0  0  0
   -6.0480    4.7874  -18.6576 N   0  0  0  0  0  0  0  0  0  0  0  0
   -7.0042    4.6596  -17.7109 C   0  0  0  0  0  0  0  0  0  0  0  0
   -6.6211    4.9597  -16.4475 C   0  0  0  0  0  0  0  0  0  0  0  0
   -5.1813    5.3679  -16.5874 C   0  0  0  0  0  0  0  0  0  0  0  0
   -4.8252    5.1526  -18.0819 N   0  0  0  0  0  0  0  0  0  0  0  0
  1  2  2  0
  2  3  1  0
  3  4  1  0
  4  5  2  0
  5  6  1  0
  6  7  2  0
  7  8  1  0
  8  9  2  0
  8 10  1  0
 10 11  1  0
 11 12  1  0
  2 13  1  0
 13 14  2  0
 14 15  1  0
 15 16  1  0
 15 17  2  0
 17 18  1  0
 18 19  1  0
 19 20  2  0
 19 21  1  0
 21 22  1  0
 22 23  2  0
 23 24  1  0
 24 25  1  0
  9  4  1  0
 23 13  1  0
 12  7  1  0
 22 17  1  0
 25 21  1  0
M  END
>  <smiles>  (2277) 
C34732-P265

>  <fragmenstein_outcome>  (2277) 
acceptable

>  <inchikey>  (2277) 
ABBSKXZODKTBEC-UHFFFAOYSA-N

>  <fragmenstein_mode>  (2277) 
expansion

>  <HIPPO Pose ID>  (2277) 
27187

>  <Energy>  (2277) 
93.371816

>  <fragmenstein_error>  (2277) 


>  <tags>  (2277) 
{'openbind_xx01zvns2b_c1_fragmenstein', 'fragmenstein_placed'}

>  <ref_pdb>  (2277) 
175

>  <scratch_subdir>  (2277) 
/opt/xchem-fragalysis-2/maxwin/BulkDock/SCRATCH/511028/C34732-P265

>  <alias>  (2277) 
O=C(Nc1ccc2c(c1)CNC2)c1cc(F)c2[nH]c(=O)n3c2c1CN3

>  <HIPPO Compound ID>  (2277) 
18813

>  <fragmenstein_runtime>  (2277) 
4.582786

$$$$
O=C(Nc1ccc2c(c1)CNC2)c1cc(Cl)c2[nH]c(=O)n3c2c1CN3
     RDKit          3D

 25 29  0  0  0  0  0  0  0  0999 V2000
   -6.5794    6.2262  -13.7793 O   0  0  0  0  0  0  0  0  0  0  0  0
   -7.2029    5.2611  -13.9971 C   0  0  0  0  0  0  0  0  0  0  0  0
   -7.8925    4.2668  -13.0226 N   0  0  0  0  0  0  0  0  0  0  0  0
   -8.0315    4.3076  -11.6332 C   0  0  0  0  0  0  0  0  0  0  0  0
   -7.6561    5.4425  -10.8984 C   0  0  0  0  0  0  0  0  0  0  0  0
   -7.7984    5.4773   -9.5060 C   0  0  0  0  0  0  0  0  0  0  0  0
   -8.2930    4.3560   -8.8665 C   0  0  0  0  0  0  0  0  0  0  0  0
   -8.6664    3.2292   -9.5869 C   0  0  0  0  0  0  0  0  0  0  0  0
   -8.5616    3.1928  -10.9713 C   0  0  0  0  0  0  0  0  0  0  0  0
   -9.1716    2.1897   -8.6437 C   0  0  0  0  0  0  0  0  0  0  0  0
   -8.8847    2.6953   -7.2744 N   0  0  0  0  0  0  0  0  0  0  0  0
   -8.5355    4.1245   -7.4149 C   0  0  0  0  0  0  0  0  0  0  0  0
   -7.4169    4.8800  -15.4155 C   0  0  0  0  0  0  0  0  0  0  0  0
   -8.7287    4.5359  -15.8775 C   0  0  0  0  0  0  0  0  0  0  0  0
   -8.9960    4.2623  -17.2457 C   0  0  0  0  0  0  0  0  0  0  0  0
  -10.5789    4.1126  -17.8303 Cl  0  0  0  0  0  0  0  0  0  0  0  0
   -7.9502    4.2467  -18.1120 C   0  0  0  0  0  0  0  0  0  0  0  0
   -7.7371    4.0507  -19.4782 N   0  0  0  0  0  0  0  0  0  0  0  0
   -6.3487    4.3557  -19.7862 C   0  0  0  0  0  0  0  0  0  0  0  0
   -5.8456    4.3170  -20.8972 O   0  0  0  0  0  0  0  0  0  0  0  0
   -5.7771    4.6661  -18.5223 N   0  0  0  0  0  0  0  0  0  0  0  0
   -6.7523    4.5957  -17.5906 C   0  0  0  0  0  0  0  0  0  0  0  0
   -6.4006    4.9708  -16.3399 C   0  0  0  0  0  0  0  0  0  0  0  0
   -4.9710    5.3963  -16.4714 C   0  0  0  0  0  0  0  0  0  0  0  0
   -4.6203    5.2323  -17.9773 N   0  0  0  0  0  0  0  0  0  0  0  0
  1  2  2  0
  2  3  1  0
  3  4  1  0
  4  5  2  0
  5  6  1  0
  6  7  2  0
  7  8  1  0
  8  9  2  0
  8 10  1  0
 10 11  1  0
 11 12  1  0
  2 13  1  0
 13 14  2  0
 14 15  1  0
 15 16  1  0
 15 17  2  0
 17 18  1  0
 18 19  1  0
 19 20  2  0
 19 21  1  0
 21 22  1  0
 22 23  2  0
 23 24  1  0
 24 25  1  0
  9  4  1  0
 23 13  1  0
 12  7  1  0
 22 17  1  0
 25 21  1  0
M  END
>  <smiles>  (2278) 
C34723-P265

>  <fragmenstein_outcome>  (2278) 
acceptable

>  <inchikey>  (2278) 
TWSFUCCAWJNCNH-UHFFFAOYSA-N

>  <fragmenstein_mode>  (2278) 
expansion

>  <HIPPO Pose ID>  (2278) 
27188

>  <Energy>  (2278) 
94.308704

>  <fragmenstein_error>  (2278) 


>  <tags>  (2278) 
{'openbind_xx01zvns2b_c1_fragmenstein', 'fragmenstein_placed'}

>  <ref_pdb>  (2278) 
175

>  <scratch_subdir>  (2278) 
/opt/xchem-fragalysis-2/maxwin/BulkDock/SCRATCH/511028/C34723-P265

>  <alias>  (2278) 
O=C(Nc1ccc2c(c1)CNC2)c1cc(Cl)c2[nH]c(=O)n3c2c1CN3

>  <HIPPO Compound ID>  (2278) 
29603

>  <fragmenstein_runtime>  (2278) 
3.011824

$$$$
O=C1N=c2c(Cl)cc(C(=O)Nc3ccc4c(c3)CNC4)cc2=C1CC1CNC1
     RDKit          3D

 28 32  0  0  0  0  0  0  0  0999 V2000
   -5.9299    4.2012  -20.8292 O   0  0  0  0  0  0  0  0  0  0  0  0
   -6.4169    4.3153  -19.7152 C   0  0  0  0  0  0  0  0  0  0  0  0
   -7.7044    4.0372  -19.3490 N   0  0  0  0  0  0  0  0  0  0  0  0
   -7.7699    4.2768  -18.0856 C   0  0  0  0  0  0  0  0  0  0  0  0
   -8.9349    4.2471  -17.1818 C   0  0  0  0  0  0  0  0  0  0  0  0
  -10.4736    4.1329  -17.8956 Cl  0  0  0  0  0  0  0  0  0  0  0  0
   -8.7680    4.4647  -15.8678 C   0  0  0  0  0  0  0  0  0  0  0  0
   -7.4765    4.7977  -15.2875 C   0  0  0  0  0  0  0  0  0  0  0  0
   -7.3626    5.2899  -13.8719 C   0  0  0  0  0  0  0  0  0  0  0  0
   -6.8473    6.3141  -13.6429 O   0  0  0  0  0  0  0  0  0  0  0  0
   -8.0577    4.2790  -12.9212 N   0  0  0  0  0  0  0  0  0  0  0  0
   -8.1738    4.2755  -11.5305 C   0  0  0  0  0  0  0  0  0  0  0  0
   -7.8468    5.4205  -10.7846 C   0  0  0  0  0  0  0  0  0  0  0  0
   -7.9655    5.4305   -9.3914 C   0  0  0  0  0  0  0  0  0  0  0  0
   -8.3937    4.2770   -8.7634 C   0  0  0  0  0  0  0  0  0  0  0  0
   -8.7163    3.1416   -9.4952 C   0  0  0  0  0  0  0  0  0  0  0  0
   -8.6286    3.1250  -10.8807 C   0  0  0  0  0  0  0  0  0  0  0  0
   -9.1470    2.0612   -8.5630 C   0  0  0  0  0  0  0  0  0  0  0  0
   -8.9301    2.5812   -7.1865 N   0  0  0  0  0  0  0  0  0  0  0  0
   -8.6107    4.0180   -7.3133 C   0  0  0  0  0  0  0  0  0  0  0  0
   -6.3862    4.9292  -16.0682 C   0  0  0  0  0  0  0  0  0  0  0  0
   -6.5007    4.6744  -17.4751 C   0  0  0  0  0  0  0  0  0  0  0  0
   -5.6736    4.7854  -18.5156 C   0  0  0  0  0  0  0  0  0  0  0  0
   -4.2711    5.2623  -18.5797 C   0  0  0  0  0  0  0  0  0  0  0  0
   -4.2128    6.7326  -18.2012 C   0  0  0  0  0  0  0  0  0  0  0  0
   -2.8788    7.4631  -18.4730 C   0  0  0  0  0  0  0  0  0  0  0  0
   -3.6778    8.6605  -18.8267 N   0  0  0  0  0  0  0  0  0  0  0  0
   -4.7948    7.7628  -19.2027 C   0  0  0  0  0  0  0  0  0  0  0  0
  1  2  2  0
  2  3  1  0
  3  4  2  0
  4  5  1  0
  5  6  1  0
  5  7  2  0
  7  8  1  0
  8  9  1  0
  9 10  2  0
  9 11  1  0
 11 12  1  0
 12 13  2  0
 13 14  1  0
 14 15  2  0
 15 16  1  0
 16 17  2  0
 16 18  1  0
 18 19  1  0
 19 20  1  0
  8 21  2  0
 21 22  1  0
 22 23  2  0
 23 24  1  0
 24 25  1  0
 25 26  1  0
 26 27  1  0
 27 28  1  0
 23  2  1  0
 28 25  1  0
 22  4  1  0
 17 12  1  0
 20 15  1  0
M  END
>  <smiles>  (2279) 
C34740-P265

>  <fragmenstein_outcome>  (2279) 
acceptable

>  <inchikey>  (2279) 
RITBSOYCRVFODO-UHFFFAOYSA-N

>  <fragmenstein_mode>  (2279) 
expansion

>  <HIPPO Pose ID>  (2279) 
27189

>  <Energy>  (2279) 
50.53187

>  <fragmenstein_error>  (2279) 


>  <tags>  (2279) 
{'openbind_xx01zvns2b_c1_fragmenstein', 'fragmenstein_placed'}

>  <ref_pdb>  (2279) 
175

>  <scratch_subdir>  (2279) 
/opt/xchem-fragalysis-2/maxwin/BulkDock/SCRATCH/511028/C34740-P265

>  <alias>  (2279) 
O=C1N=c2c(Cl)cc(C(=O)Nc3ccc4c(c3)CNC4)cc2=C1CC1CNC1

>  <HIPPO Compound ID>  (2279) 
18222

>  <fragmenstein_runtime>  (2279) 
5.678707

$$$$
CC1(C)Cc2c3c(cc(NC(=O)c4cc(Cl)c5[nH]c(=O)n6c5c4CN6)c2O1)CNC3
     RDKit          3D

 30 35  0  0  0  0  0  0  0  0999 V2000
   -8.0853    8.9281  -10.3358 C   0  0  0  0  0  0  0  0  0  0  0  0
   -7.3676    7.5880  -10.1669 C   0  0  0  0  0  0  0  0  0  0  0  0
   -5.8499    7.8072  -10.1416 C   0  0  0  0  0  0  0  0  0  0  0  0
   -7.8597    6.8497   -8.9057 C   0  0  0  0  0  0  0  0  0  0  0  0
   -8.0596    5.4960   -9.4634 C   0  0  0  0  0  0  0  0  0  0  0  0
   -8.4028    4.3279   -8.8286 C   0  0  0  0  0  0  0  0  0  0  0  0
   -8.6476    3.1916   -9.5869 C   0  0  0  0  0  0  0  0  0  0  0  0
   -8.5442    3.2040  -10.9796 C   0  0  0  0  0  0  0  0  0  0  0  0
   -8.1523    4.3850  -11.6325 C   0  0  0  0  0  0  0  0  0  0  0  0
   -8.0449    4.3625  -13.0283 N   0  0  0  0  0  0  0  0  0  0  0  0
   -7.2540    5.2897  -13.9958 C   0  0  0  0  0  0  0  0  0  0  0  0
   -6.6348    6.2588  -13.7804 O   0  0  0  0  0  0  0  0  0  0  0  0
   -7.4244    4.8719  -15.4081 C   0  0  0  0  0  0  0  0  0  0  0  0
   -8.7324    4.5626  -15.9014 C   0  0  0  0  0  0  0  0  0  0  0  0
   -8.9727    4.2866  -17.2708 C   0  0  0  0  0  0  0  0  0  0  0  0
  -10.5497    4.2175  -17.8931 Cl  0  0  0  0  0  0  0  0  0  0  0  0
   -7.8996    4.2169  -18.1033 C   0  0  0  0  0  0  0  0  0  0  0  0
   -7.6737    4.0811  -19.4743 N   0  0  0  0  0  0  0  0  0  0  0  0
   -6.2797    4.3717  -19.7504 C   0  0  0  0  0  0  0  0  0  0  0  0
   -5.7821    4.4592  -20.8613 O   0  0  0  0  0  0  0  0  0  0  0  0
   -5.6906    4.5370  -18.4609 N   0  0  0  0  0  0  0  0  0  0  0  0
   -6.6940    4.4906  -17.5503 C   0  0  0  0  0  0  0  0  0  0  0  0
   -6.3798    4.9129  -16.3035 C   0  0  0  0  0  0  0  0  0  0  0  0
   -4.9531    5.3518  -16.4075 C   0  0  0  0  0  0  0  0  0  0  0  0
   -4.5848    5.2158  -17.9106 N   0  0  0  0  0  0  0  0  0  0  0  0
   -7.9363    5.5184  -10.8498 C   0  0  0  0  0  0  0  0  0  0  0  0
   -7.6785    6.7781  -11.3293 O   0  0  0  0  0  0  0  0  0  0  0  0
   -9.0299    2.0692   -8.6809 C   0  0  0  0  0  0  0  0  0  0  0  0
   -8.9228    2.5924   -7.2916 N   0  0  0  0  0  0  0  0  0  0  0  0
   -8.6209    4.0353   -7.3888 C   0  0  0  0  0  0  0  0  0  0  0  0
  1  2  1  0
  2  3  1  0
  2  4  1  0
  4  5  1  0
  5  6  2  0
  6  7  1  0
  7  8  2  0
  8  9  1  0
  9 10  1  0
 10 11  1  0
 11 12  2  0
 11 13  1  0
 13 14  2  0
 14 15  1  0
 15 16  1  0
 15 17  2  0
 17 18  1  0
 18 19  1  0
 19 20  2  0
 19 21  1  0
 21 22  1  0
 22 23  2  0
 23 24  1  0
 24 25  1  0
  9 26  2  0
 26 27  1  0
  7 28  1  0
 28 29  1  0
 29 30  1  0
 27  2  1  0
 26  5  1  0
 30  6  1  0
 23 13  1  0
 22 17  1  0
 25 21  1  0
M  END
>  <smiles>  (2280) 
C34745-P265

>  <fragmenstein_outcome>  (2280) 
acceptable

>  <inchikey>  (2280) 
OTDMXPVGXUZRRH-UHFFFAOYSA-N

>  <fragmenstein_mode>  (2280) 
expansion

>  <HIPPO Pose ID>  (2280) 
27193

>  <Energy>  (2280) 
127.540064

>  <fragmenstein_error>  (2280) 


>  <tags>  (2280) 
{'openbind_xx01zvns2b_c1_fragmenstein', 'fragmenstein_placed'}

>  <ref_pdb>  (2280) 
175

>  <scratch_subdir>  (2280) 
/opt/xchem-fragalysis-2/maxwin/BulkDock/SCRATCH/511028/C34745-P265

>  <alias>  (2280) 
CC1(C)Cc2c3c(cc(NC(=O)c4cc(Cl)c5[nH]c(=O)n6c5c4CN6)c2O1)CNC3

>  <HIPPO Compound ID>  (2280) 
29609

>  <fragmenstein_runtime>  (2280) 
5.185067

$$$$
O=C(Nc1ccc2c(c1)CN(CC(F)F)C2)c1cc(Cl)c2[nH]c(=O)n3c2c1CN3
     RDKit          3D

 29 33  0  0  0  0  0  0  0  0999 V2000
   -6.6528    6.4545  -13.8586 O   0  0  0  0  0  0  0  0  0  0  0  0
   -7.1386    5.4171  -14.0870 C   0  0  0  0  0  0  0  0  0  0  0  0
   -7.7673    4.3704  -13.1326 N   0  0  0  0  0  0  0  0  0  0  0  0
   -7.8399    4.3427  -11.7428 C   0  0  0  0  0  0  0  0  0  0  0  0
   -7.4686    5.4453  -10.9573 C   0  0  0  0  0  0  0  0  0  0  0  0
   -7.6615    5.4339   -9.5703 C   0  0  0  0  0  0  0  0  0  0  0  0
   -8.2185    4.3063   -8.9997 C   0  0  0  0  0  0  0  0  0  0  0  0
   -8.5511    3.1945   -9.7768 C   0  0  0  0  0  0  0  0  0  0  0  0
   -8.3728    3.1955  -11.1462 C   0  0  0  0  0  0  0  0  0  0  0  0
   -9.1288    2.1375   -8.8895 C   0  0  0  0  0  0  0  0  0  0  0  0
   -9.5535    2.9179   -7.7187 N   0  0  0  0  0  0  0  0  0  0  0  0
   -9.8177    2.1231   -6.5304 C   0  0  0  0  0  0  0  0  0  0  0  0
  -10.3306    2.9039   -5.3107 C   0  0  0  0  0  0  0  0  0  0  0  0
  -11.3142    2.2094   -4.6865 F   0  0  0  0  0  0  0  0  0  0  0  0
  -10.8962    4.0912   -5.6671 F   0  0  0  0  0  0  0  0  0  0  0  0
   -8.6095    4.0326   -7.5798 C   0  0  0  0  0  0  0  0  0  0  0  0
   -7.3077    4.9979  -15.4946 C   0  0  0  0  0  0  0  0  0  0  0  0
   -8.6235    4.6557  -15.9542 C   0  0  0  0  0  0  0  0  0  0  0  0
   -8.8846    4.3321  -17.3070 C   0  0  0  0  0  0  0  0  0  0  0  0
  -10.4710    4.1609  -17.8815 Cl  0  0  0  0  0  0  0  0  0  0  0  0
   -7.8273    4.2749  -18.1578 C   0  0  0  0  0  0  0  0  0  0  0  0
   -7.6188    4.0731  -19.5225 N   0  0  0  0  0  0  0  0  0  0  0  0
   -6.2346    4.3802  -19.8337 C   0  0  0  0  0  0  0  0  0  0  0  0
   -5.7488    4.3851  -20.9530 O   0  0  0  0  0  0  0  0  0  0  0  0
   -5.6387    4.6368  -18.5655 N   0  0  0  0  0  0  0  0  0  0  0  0
   -6.6209    4.6046  -17.6361 C   0  0  0  0  0  0  0  0  0  0  0  0
   -6.2777    5.0376  -16.4015 C   0  0  0  0  0  0  0  0  0  0  0  0
   -4.8499    5.4613  -16.5382 C   0  0  0  0  0  0  0  0  0  0  0  0
   -4.5147    5.2970  -18.0464 N   0  0  0  0  0  0  0  0  0  0  0  0
  1  2  2  0
  2  3  1  0
  3  4  1  0
  4  5  2  0
  5  6  1  0
  6  7  2  0
  7  8  1  0
  8  9  2  0
  8 10  1  0
 10 11  1  0
 11 12  1  0
 12 13  1  0
 13 14  1  0
 13 15  1  0
 11 16  1  0
  2 17  1  0
 17 18  2  0
 18 19  1  0
 19 20  1  0
 19 21  2  0
 21 22  1  0
 22 23  1  0
 23 24  2  0
 23 25  1  0
 25 26  1  0
 26 27  2  0
 27 28  1  0
 28 29  1  0
  9  4  1  0
 27 17  1  0
 16  7  1  0
 26 21  1  0
 29 25  1  0
M  END
>  <smiles>  (2281) 
C34753-P265

>  <fragmenstein_outcome>  (2281) 
acceptable

>  <inchikey>  (2281) 
IQSZRMMYRBLOKU-UHFFFAOYSA-N

>  <fragmenstein_mode>  (2281) 
expansion

>  <HIPPO Pose ID>  (2281) 
27194

>  <Energy>  (2281) 
148.658824

>  <fragmenstein_error>  (2281) 


>  <tags>  (2281) 
{'openbind_xx01zvns2b_c1_fragmenstein', 'fragmenstein_placed'}

>  <ref_pdb>  (2281) 
175

>  <scratch_subdir>  (2281) 
/opt/xchem-fragalysis-2/maxwin/BulkDock/SCRATCH/511028/C34753-P265

>  <alias>  (2281) 
O=C(Nc1ccc2c(c1)CN(CC(F)F)C2)c1cc(Cl)c2[nH]c(=O)n3c2c1CN3

>  <HIPPO Compound ID>  (2281) 
34753

>  <fragmenstein_runtime>  (2281) 
4.596037

$$$$
O=C(Nc1ccc2c(c1)CNC2)c1cc(F)c2c(c1)C1(CNNC1)C(=O)N2
     RDKit          3D

 27 31  0  0  0  0  0  0  0  0999 V2000
   -7.1286    6.3579  -13.6564 O   0  0  0  0  0  0  0  0  0  0  0  0
   -7.5910    5.3081  -13.8806 C   0  0  0  0  0  0  0  0  0  0  0  0
   -8.1100    4.2132  -12.9162 N   0  0  0  0  0  0  0  0  0  0  0  0
   -8.2504    4.2207  -11.5287 C   0  0  0  0  0  0  0  0  0  0  0  0
   -8.0008    5.3811  -10.7769 C   0  0  0  0  0  0  0  0  0  0  0  0
   -8.1451    5.3807   -9.3844 C   0  0  0  0  0  0  0  0  0  0  0  0
   -8.5343    4.2066   -8.7680 C   0  0  0  0  0  0  0  0  0  0  0  0
   -8.7658    3.0513   -9.5076 C   0  0  0  0  0  0  0  0  0  0  0  0
   -8.6379    3.0407  -10.8872 C   0  0  0  0  0  0  0  0  0  0  0  0
   -9.0988    1.9360   -8.5718 C   0  0  0  0  0  0  0  0  0  0  0  0
   -9.4404    2.6003   -7.2866 N   0  0  0  0  0  0  0  0  0  0  0  0
   -8.7515    3.9091   -7.3219 C   0  0  0  0  0  0  0  0  0  0  0  0
   -7.6820    4.8892  -15.3056 C   0  0  0  0  0  0  0  0  0  0  0  0
   -8.8668    4.3399  -15.8202 C   0  0  0  0  0  0  0  0  0  0  0  0
   -8.9652    4.0575  -17.1777 C   0  0  0  0  0  0  0  0  0  0  0  0
  -10.1017    3.5727  -17.6869 F   0  0  0  0  0  0  0  0  0  0  0  0
   -7.8756    4.2950  -17.9862 C   0  0  0  0  0  0  0  0  0  0  0  0
   -6.6994    4.8555  -17.4955 C   0  0  0  0  0  0  0  0  0  0  0  0
   -6.5892    5.1614  -16.1475 C   0  0  0  0  0  0  0  0  0  0  0  0
   -5.7340    5.0482  -18.6483 C   0  0  0  0  0  0  0  0  0  0  0  0
   -5.5389    6.5169  -18.9899 C   0  0  0  0  0  0  0  0  0  0  0  0
   -4.3563    6.9215  -18.2047 N   0  0  0  0  0  0  0  0  0  0  0  0
   -3.4709    5.7825  -18.2701 N   0  0  0  0  0  0  0  0  0  0  0  0
   -4.3126    4.5775  -18.3900 C   0  0  0  0  0  0  0  0  0  0  0  0
   -6.4714    4.3255  -19.8019 C   0  0  0  0  0  0  0  0  0  0  0  0
   -6.0589    4.0845  -20.9278 O   0  0  0  0  0  0  0  0  0  0  0  0
   -7.7433    4.0062  -19.3347 N   0  0  0  0  0  0  0  0  0  0  0  0
  1  2  2  0
  2  3  1  0
  3  4  1  0
  4  5  2  0
  5  6  1  0
  6  7  2  0
  7  8  1  0
  8  9  2  0
  8 10  1  0
 10 11  1  0
 11 12  1  0
  2 13  1  0
 13 14  2  0
 14 15  1  0
 15 16  1  0
 15 17  2  0
 17 18  1  0
 18 19  2  0
 18 20  1  0
 20 21  1  0
 21 22  1  0
 22 23  1  0
 23 24  1  0
 20 25  1  0
 25 26  2  0
 25 27  1  0
  9  4  1  0
 19 13  1  0
 24 20  1  0
 12  7  1  0
 27 17  1  0
M  END
>  <smiles>  (2282) 
C34756-P265

>  <fragmenstein_outcome>  (2282) 
acceptable

>  <inchikey>  (2282) 
CKLYOCQVPIFOLU-UHFFFAOYSA-N

>  <fragmenstein_mode>  (2282) 
expansion

>  <HIPPO Pose ID>  (2282) 
27195

>  <Energy>  (2282) 
109.244969

>  <fragmenstein_error>  (2282) 


>  <tags>  (2282) 
{'openbind_xx01zvns2b_c1_fragmenstein', 'fragmenstein_placed'}

>  <ref_pdb>  (2282) 
175

>  <scratch_subdir>  (2282) 
/opt/xchem-fragalysis-2/maxwin/BulkDock/SCRATCH/511028/C34756-P265

>  <alias>  (2282) 
O=C(Nc1ccc2c(c1)CNC2)c1cc(F)c2c(c1)C1(CNNC1)C(=O)N2

>  <HIPPO Compound ID>  (2282) 
32959

>  <fragmenstein_runtime>  (2282) 
5.913313

$$$$
CNCC1=c2cc(C(=O)Nc3ccc4c(c3)CNC4)cc(Cl)c2=NC1=O
     RDKit          3D

 26 29  0  0  0  0  0  0  0  0999 V2000
   -2.5931    6.8939  -18.0235 C   0  0  0  0  0  0  0  0  0  0  0  0
   -3.8984    6.3247  -17.7136 N   0  0  0  0  0  0  0  0  0  0  0  0
   -4.3632    5.4601  -18.8053 C   0  0  0  0  0  0  0  0  0  0  0  0
   -5.7111    4.8892  -18.5776 C   0  0  0  0  0  0  0  0  0  0  0  0
   -6.5069    4.7757  -17.5111 C   0  0  0  0  0  0  0  0  0  0  0  0
   -6.3911    5.0694  -16.1080 C   0  0  0  0  0  0  0  0  0  0  0  0
   -7.4595    4.8914  -15.3052 C   0  0  0  0  0  0  0  0  0  0  0  0
   -7.3587    5.3640  -13.8795 C   0  0  0  0  0  0  0  0  0  0  0  0
   -6.9040    6.4117  -13.6276 O   0  0  0  0  0  0  0  0  0  0  0  0
   -8.0141    4.3015  -12.9535 N   0  0  0  0  0  0  0  0  0  0  0  0
   -8.1530    4.2716  -11.5642 C   0  0  0  0  0  0  0  0  0  0  0  0
   -7.9053    5.4163  -10.7881 C   0  0  0  0  0  0  0  0  0  0  0  0
   -8.0760    5.3952   -9.3986 C   0  0  0  0  0  0  0  0  0  0  0  0
   -8.4883    4.2161   -8.8078 C   0  0  0  0  0  0  0  0  0  0  0  0
   -8.7173    3.0748   -9.5695 C   0  0  0  0  0  0  0  0  0  0  0  0
   -8.5662    3.0855  -10.9482 C   0  0  0  0  0  0  0  0  0  0  0  0
   -9.0778    1.9492   -8.6552 C   0  0  0  0  0  0  0  0  0  0  0  0
   -9.4327    2.5966   -7.3650 N   0  0  0  0  0  0  0  0  0  0  0  0
   -8.7345    3.9003   -7.3700 C   0  0  0  0  0  0  0  0  0  0  0  0
   -8.7454    4.5025  -15.8628 C   0  0  0  0  0  0  0  0  0  0  0  0
   -8.9194    4.2487  -17.1679 C   0  0  0  0  0  0  0  0  0  0  0  0
  -10.4642    4.0891  -17.8581 Cl  0  0  0  0  0  0  0  0  0  0  0  0
   -7.7663    4.2913  -18.0852 C   0  0  0  0  0  0  0  0  0  0  0  0
   -7.7144    4.0015  -19.3389 N   0  0  0  0  0  0  0  0  0  0  0  0
   -6.4483    4.3205  -19.7378 C   0  0  0  0  0  0  0  0  0  0  0  0
   -5.9720    4.1718  -20.8532 O   0  0  0  0  0  0  0  0  0  0  0  0
  1  2  1  0
  2  3  1  0
  3  4  1  0
  4  5  2  0
  5  6  1  0
  6  7  2  0
  7  8  1  0
  8  9  2  0
  8 10  1  0
 10 11  1  0
 11 12  2  0
 12 13  1  0
 13 14  2  0
 14 15  1  0
 15 16  2  0
 15 17  1  0
 17 18  1  0
 18 19  1  0
  7 20  1  0
 20 21  2  0
 21 22  1  0
 21 23  1  0
 23 24  2  0
 24 25  1  0
 25 26  2  0
 25  4  1  0
 23  5  1  0
 16 11  1  0
 19 14  1  0
M  END
>  <smiles>  (2283) 
C34751-P265

>  <fragmenstein_outcome>  (2283) 
acceptable

>  <inchikey>  (2283) 
UZXWFXNHRNNKLO-UHFFFAOYSA-N

>  <fragmenstein_mode>  (2283) 
expansion

>  <HIPPO Pose ID>  (2283) 
27198

>  <Energy>  (2283) 
30.026997

>  <fragmenstein_error>  (2283) 


>  <tags>  (2283) 
{'openbind_xx01zvns2b_c1_fragmenstein', 'fragmenstein_placed'}

>  <ref_pdb>  (2283) 
175

>  <scratch_subdir>  (2283) 
/opt/xchem-fragalysis-2/maxwin/BulkDock/SCRATCH/511028/C34751-P265

>  <alias>  (2283) 
CNCC1=c2cc(C(=O)Nc3ccc4c(c3)CNC4)cc(Cl)c2=NC1=O

>  <HIPPO Compound ID>  (2283) 
34751

>  <fragmenstein_runtime>  (2283) 
3.26212

$$$$
O=C(Nc1ccc2c(c1)CNC2)c1cc(F)c2[nH]c(=O)n3c2c1NC3
     RDKit          3D

 25 29  0  0  0  0  0  0  0  0999 V2000
   -6.8749    6.2493  -13.8437 O   0  0  0  0  0  0  0  0  0  0  0  0
   -7.3743    5.2110  -14.0478 C   0  0  0  0  0  0  0  0  0  0  0  0
   -7.9470    4.1574  -13.0595 N   0  0  0  0  0  0  0  0  0  0  0  0
   -8.1033    4.2058  -11.6719 C   0  0  0  0  0  0  0  0  0  0  0  0
   -7.8532    5.3774  -10.9405 C   0  0  0  0  0  0  0  0  0  0  0  0
   -8.0304    5.4090   -9.5500 C   0  0  0  0  0  0  0  0  0  0  0  0
   -8.4487    4.2548   -8.9127 C   0  0  0  0  0  0  0  0  0  0  0  0
   -8.6843    3.0881   -9.6307 C   0  0  0  0  0  0  0  0  0  0  0  0
   -8.5291    3.0486  -11.0082 C   0  0  0  0  0  0  0  0  0  0  0  0
   -9.0466    1.9950   -8.6784 C   0  0  0  0  0  0  0  0  0  0  0  0
   -9.3802    2.6849   -7.4041 N   0  0  0  0  0  0  0  0  0  0  0  0
   -8.6836    3.9887   -7.4630 C   0  0  0  0  0  0  0  0  0  0  0  0
   -7.5743    4.7941  -15.4588 C   0  0  0  0  0  0  0  0  0  0  0  0
   -8.8850    4.3858  -15.8862 C   0  0  0  0  0  0  0  0  0  0  0  0
   -9.1841    4.0799  -17.2403 C   0  0  0  0  0  0  0  0  0  0  0  0
  -10.4255    3.7612  -17.6127 F   0  0  0  0  0  0  0  0  0  0  0  0
   -8.1743    4.1493  -18.1434 C   0  0  0  0  0  0  0  0  0  0  0  0
   -7.9533    3.9323  -19.5026 N   0  0  0  0  0  0  0  0  0  0  0  0
   -6.5710    4.2511  -19.8026 C   0  0  0  0  0  0  0  0  0  0  0  0
   -6.0424    4.1624  -20.8993 O   0  0  0  0  0  0  0  0  0  0  0  0
   -6.0181    4.6519  -18.5931 N   0  0  0  0  0  0  0  0  0  0  0  0
   -6.9794    4.5493  -17.6500 C   0  0  0  0  0  0  0  0  0  0  0  0
   -6.5769    4.8934  -16.4043 C   0  0  0  0  0  0  0  0  0  0  0  0
   -5.1971    5.2204  -16.4427 N   0  0  0  0  0  0  0  0  0  0  0  0
   -4.8278    5.1487  -17.9318 C   0  0  0  0  0  0  0  0  0  0  0  0
  1  2  2  0
  2  3  1  0
  3  4  1  0
  4  5  2  0
  5  6  1  0
  6  7  2  0
  7  8  1  0
  8  9  2  0
  8 10  1  0
 10 11  1  0
 11 12  1  0
  2 13  1  0
 13 14  2  0
 14 15  1  0
 15 16  1  0
 15 17  2  0
 17 18  1  0
 18 19  1  0
 19 20  2  0
 19 21  1  0
 21 22  1  0
 22 23  2  0
 23 24  1  0
 24 25  1  0
  9  4  1  0
 23 13  1  0
 12  7  1  0
 22 17  1  0
 25 21  1  0
M  END
>  <smiles>  (2284) 
C34773-P265

>  <fragmenstein_outcome>  (2284) 
acceptable

>  <inchikey>  (2284) 
JKXAOPSOBFLDTK-UHFFFAOYSA-N

>  <fragmenstein_mode>  (2284) 
expansion

>  <HIPPO Pose ID>  (2284) 
27200

>  <Energy>  (2284) 
44.552306

>  <fragmenstein_error>  (2284) 


>  <tags>  (2284) 
{'openbind_xx01zvns2b_c1_fragmenstein', 'fragmenstein_placed'}

>  <ref_pdb>  (2284) 
175

>  <scratch_subdir>  (2284) 
/opt/xchem-fragalysis-2/maxwin/BulkDock/SCRATCH/511028/C34773-P265

>  <alias>  (2284) 
O=C(Nc1ccc2c(c1)CNC2)c1cc(F)c2[nH]c(=O)n3c2c1NC3

>  <HIPPO Compound ID>  (2284) 
34773

>  <fragmenstein_runtime>  (2284) 
3.398444

$$$$
NNCc1c(C(=O)Nc2ccc3c(c2)CNC3)cc(Cl)c2c1=NC(=O)N=2
     RDKit          3D

 26 29  0  0  0  0  0  0  0  0999 V2000
   -2.7058    5.5170  -16.7115 N   0  0  0  0  0  0  0  0  0  0  0  0
   -4.1227    5.6588  -16.9533 N   0  0  0  0  0  0  0  0  0  0  0  0
   -4.8744    4.8679  -15.9553 C   0  0  0  0  0  0  0  0  0  0  0  0
   -6.3272    4.7019  -16.3183 C   0  0  0  0  0  0  0  0  0  0  0  0
   -7.4132    4.7616  -15.5135 C   0  0  0  0  0  0  0  0  0  0  0  0
   -7.2738    5.2409  -14.0850 C   0  0  0  0  0  0  0  0  0  0  0  0
   -6.7780    6.2748  -13.8563 O   0  0  0  0  0  0  0  0  0  0  0  0
   -7.9598    4.2196  -13.1332 N   0  0  0  0  0  0  0  0  0  0  0  0
   -8.0863    4.2198  -11.7386 C   0  0  0  0  0  0  0  0  0  0  0  0
   -7.8208    5.3788  -10.9892 C   0  0  0  0  0  0  0  0  0  0  0  0
   -7.9923    5.3961   -9.5980 C   0  0  0  0  0  0  0  0  0  0  0  0
   -8.4202    4.2395   -8.9743 C   0  0  0  0  0  0  0  0  0  0  0  0
   -8.6661    3.0831   -9.7064 C   0  0  0  0  0  0  0  0  0  0  0  0
   -8.5181    3.0583  -11.0873 C   0  0  0  0  0  0  0  0  0  0  0  0
   -9.0366    1.9849   -8.7613 C   0  0  0  0  0  0  0  0  0  0  0  0
   -9.3687    2.6660   -7.4826 N   0  0  0  0  0  0  0  0  0  0  0  0
   -8.6622    3.9640   -7.5272 C   0  0  0  0  0  0  0  0  0  0  0  0
   -8.7707    4.5880  -16.0192 C   0  0  0  0  0  0  0  0  0  0  0  0
   -9.0643    4.3403  -17.3000 C   0  0  0  0  0  0  0  0  0  0  0  0
  -10.6445    4.3285  -17.9143 Cl  0  0  0  0  0  0  0  0  0  0  0  0
   -7.9678    4.2167  -18.2453 C   0  0  0  0  0  0  0  0  0  0  0  0
   -6.5938    4.4340  -17.7517 C   0  0  0  0  0  0  0  0  0  0  0  0
   -5.7782    4.3733  -18.7498 N   0  0  0  0  0  0  0  0  0  0  0  0
   -6.6018    4.0854  -19.8287 C   0  0  0  0  0  0  0  0  0  0  0  0
   -6.1764    3.9338  -20.9665 O   0  0  0  0  0  0  0  0  0  0  0  0
   -7.9336    3.9642  -19.5013 N   0  0  0  0  0  0  0  0  0  0  0  0
  1  2  1  0
  2  3  1  0
  3  4  1  0
  4  5  2  0
  5  6  1  0
  6  7  2  0
  6  8  1  0
  8  9  1  0
  9 10  2  0
 10 11  1  0
 11 12  2  0
 12 13  1  0
 13 14  2  0
 13 15  1  0
 15 16  1  0
 16 17  1  0
  5 18  1  0
 18 19  2  0
 19 20  1  0
 19 21  1  0
 21 22  1  0
 22 23  2  0
 23 24  1  0
 24 25  2  0
 24 26  1  0
 22  4  1  0
 14  9  1  0
 26 21  2  0
 17 12  1  0
M  END
>  <smiles>  (2285) 
C34769-P265

>  <fragmenstein_outcome>  (2285) 
acceptable

>  <inchikey>  (2285) 
WEBVSWDRFXSKRJ-UHFFFAOYSA-N

>  <fragmenstein_mode>  (2285) 
expansion

>  <HIPPO Pose ID>  (2285) 
27204

>  <Energy>  (2285) 
59.061148

>  <fragmenstein_error>  (2285) 


>  <tags>  (2285) 
{'openbind_xx01zvns2b_c1_fragmenstein', 'fragmenstein_placed'}

>  <ref_pdb>  (2285) 
175

>  <scratch_subdir>  (2285) 
/opt/xchem-fragalysis-2/maxwin/BulkDock/SCRATCH/511028/C34769-P265

>  <alias>  (2285) 
NNCc1c(C(=O)Nc2ccc3c(c2)CNC3)cc(Cl)c2c1=NC(=O)N=2

>  <HIPPO Compound ID>  (2285) 
34769

>  <fragmenstein_runtime>  (2285) 
3.755949

$$$$
CC(C)NC(=O)[C@H](Nc1cc2c(cc1S(C)(=O)=O)CNC2)c1cc(Cl)cc(C(F)(F)F)n1
     RDKit          3D

 32 34  0  0  0  0  0  0  0  0999 V2000
   -3.5836    2.6938  -11.5693 C   0  0  0  0  0  0  0  0  0  0  0  0
   -4.7616    1.9086  -12.1384 C   0  0  0  0  0  0  0  0  0  0  0  0
   -5.3483    1.0022  -11.0601 C   0  0  0  0  0  0  0  0  0  0  0  0
   -5.7945    2.7791  -12.6656 N   0  0  0  0  0  0  0  0  0  0  0  0
   -5.6850    4.1373  -13.4154 C   0  0  0  0  0  0  0  0  0  0  0  0
   -4.7485    4.7987  -13.6539 O   0  0  0  0  0  0  0  0  0  0  0  0
   -7.1384    4.6194  -13.7871 C   0  0  2  0  0  0  0  0  0  0  0  0
   -8.2160    4.0416  -12.9245 N   0  0  0  0  0  0  0  0  0  0  0  0
   -8.3570    4.1993  -11.5436 C   0  0  0  0  0  0  0  0  0  0  0  0
   -8.6493    3.0039  -10.8358 C   0  0  0  0  0  0  0  0  0  0  0  0
   -8.7535    2.9884   -9.4537 C   0  0  0  0  0  0  0  0  0  0  0  0
   -8.5678    4.1385   -8.7142 C   0  0  0  0  0  0  0  0  0  0  0  0
   -8.2941    5.3331   -9.3454 C   0  0  0  0  0  0  0  0  0  0  0  0
   -8.2122    5.3729  -10.7623 C   0  0  0  0  0  0  0  0  0  0  0  0
   -8.1884    7.0338  -11.4294 S   0  0  0  0  0  0  0  0  0  0  0  0
   -6.4609    7.4358  -11.5016 C   0  0  0  0  0  0  0  0  0  0  0  0
   -8.7408    7.0322  -12.7721 O   0  0  0  0  0  0  0  0  0  0  0  0
   -8.7746    7.9189  -10.4354 O   0  0  0  0  0  0  0  0  0  0  0  0
   -8.7601    3.8291   -7.2672 C   0  0  0  0  0  0  0  0  0  0  0  0
   -9.4032    2.4975   -7.2361 N   0  0  0  0  0  0  0  0  0  0  0  0
   -9.0460    1.8537   -8.5279 C   0  0  0  0  0  0  0  0  0  0  0  0
   -7.4287    4.4803  -15.2970 C   0  0  0  0  0  0  0  0  0  0  0  0
   -8.7293    4.2877  -15.7582 C   0  0  0  0  0  0  0  0  0  0  0  0
   -8.9671    4.2866  -17.1263 C   0  0  0  0  0  0  0  0  0  0  0  0
  -10.5374    4.1713  -17.7793 Cl  0  0  0  0  0  0  0  0  0  0  0  0
   -7.9463    4.4746  -18.0227 C   0  0  0  0  0  0  0  0  0  0  0  0
   -6.6846    4.7218  -17.5249 C   0  0  0  0  0  0  0  0  0  0  0  0
   -5.6809    5.1742  -18.5693 C   0  0  0  0  0  0  0  0  0  0  0  0
   -5.7029    4.3981  -19.6955 F   0  0  0  0  0  0  0  0  0  0  0  0
   -4.3858    5.2249  -18.1663 F   0  0  0  0  0  0  0  0  0  0  0  0
   -5.9800    6.4390  -19.0002 F   0  0  0  0  0  0  0  0  0  0  0  0
   -6.4185    4.7315  -16.1808 N   0  0  0  0  0  0  0  0  0  0  0  0
  1  2  1  0
  2  3  1  0
  2  4  1  0
  4  5  1  0
  5  6  2  0
  5  7  1  0
  7  8  1  1
  8  9  1  0
  9 10  2  0
 10 11  1  0
 11 12  2  0
 12 13  1  0
 13 14  2  0
 14 15  1  0
 15 16  1  0
 15 17  2  0
 15 18  2  0
 12 19  1  0
 19 20  1  0
 20 21  1  0
  7 22  1  0
 22 23  2  0
 23 24  1  0
 24 25  1  0
 24 26  2  0
 26 27  1  0
 27 28  1  0
 28 29  1  0
 28 30  1  0
 28 31  1  0
 27 32  2  0
 14  9  1  0
 32 22  1  0
 21 11  1  0
M  END
>  <smiles>  (2286) 
C34790-P265

>  <fragmenstein_outcome>  (2286) 
acceptable

>  <inchikey>  (2286) 
GISUBLGMUIVURF-UHFFFAOYSA-N

>  <fragmenstein_mode>  (2286) 
expansion

>  <HIPPO Pose ID>  (2286) 
27207

>  <Energy>  (2286) 
212.991986

>  <fragmenstein_error>  (2286) 


>  <tags>  (2286) 
{'openbind_xx01zvns2b_c1_fragmenstein', 'fragmenstein_placed'}

>  <ref_pdb>  (2286) 
175

>  <scratch_subdir>  (2286) 
/opt/xchem-fragalysis-2/maxwin/BulkDock/SCRATCH/511028/C34790-P265

>  <alias>  (2286) 
CC(C)NC(=O)[C@H](Nc1cc2c(cc1S(C)(=O)=O)CNC2)c1cc(Cl)cc(C(F)(F)F)n1

>  <HIPPO Compound ID>  (2286) 
36156

>  <fragmenstein_runtime>  (2286) 
6.304123

$$$$
CC(C)NC(=O)[C@H](Nc1ccc2c(c1)CNC2)c1cc(Cl)c2cnn(OCF)c2n1
     RDKit          3D

 30 33  0  0  0  0  0  0  0  0999 V2000
   -4.3137    3.8376   -9.7300 C   0  0  0  0  0  0  0  0  0  0  0  0
   -4.5236    3.1006  -11.0461 C   0  0  0  0  0  0  0  0  0  0  0  0
   -3.2031    2.8899  -11.7788 C   0  0  0  0  0  0  0  0  0  0  0  0
   -5.4597    3.8058  -11.8921 N   0  0  0  0  0  0  0  0  0  0  0  0
   -6.2585    3.3219  -13.1383 C   0  0  0  0  0  0  0  0  0  0  0  0
   -6.2209    2.3052  -13.7130 O   0  0  0  0  0  0  0  0  0  0  0  0
   -7.2651    4.4720  -13.5311 C   0  0  2  0  0  0  0  0  0  0  0  0
   -8.5718    4.2326  -12.8477 N   0  0  0  0  0  0  0  0  0  0  0  0
   -8.5359    4.2571  -11.4380 C   0  0  0  0  0  0  0  0  0  0  0  0
   -8.2528    5.4435  -10.7343 C   0  0  0  0  0  0  0  0  0  0  0  0
   -8.2519    5.4689   -9.3344 C   0  0  0  0  0  0  0  0  0  0  0  0
   -8.5501    4.2990   -8.6588 C   0  0  0  0  0  0  0  0  0  0  0  0
   -8.8130    3.1201   -9.3458 C   0  0  0  0  0  0  0  0  0  0  0  0
   -8.8045    3.0792  -10.7261 C   0  0  0  0  0  0  0  0  0  0  0  0
   -9.0737    2.0224   -8.3696 C   0  0  0  0  0  0  0  0  0  0  0  0
   -9.3324    2.7191   -7.0805 N   0  0  0  0  0  0  0  0  0  0  0  0
   -8.6622    4.0328   -7.1952 C   0  0  0  0  0  0  0  0  0  0  0  0
   -7.4422    4.5441  -15.0694 C   0  0  0  0  0  0  0  0  0  0  0  0
   -8.6854    4.2611  -15.6452 C   0  0  0  0  0  0  0  0  0  0  0  0
   -8.7981    4.2172  -17.0215 C   0  0  0  0  0  0  0  0  0  0  0  0
  -10.2642    4.0352  -17.8426 Cl  0  0  0  0  0  0  0  0  0  0  0  0
   -7.6778    4.4074  -17.8099 C   0  0  0  0  0  0  0  0  0  0  0  0
   -7.3199    4.3436  -19.1691 C   0  0  0  0  0  0  0  0  0  0  0  0
   -6.0641    4.7459  -19.3913 N   0  0  0  0  0  0  0  0  0  0  0  0
   -5.6646    5.1313  -18.1687 N   0  0  0  0  0  0  0  0  0  0  0  0
   -4.7105    6.1354  -18.1109 O   0  0  0  0  0  0  0  0  0  0  0  0
   -3.4871    5.5428  -17.7641 C   0  0  0  0  0  0  0  0  0  0  0  0
   -2.5671    6.5482  -17.7933 F   0  0  0  0  0  0  0  0  0  0  0  0
   -6.5289    4.8065  -17.1499 C   0  0  0  0  0  0  0  0  0  0  0  0
   -6.3527    4.9257  -15.8082 N   0  0  0  0  0  0  0  0  0  0  0  0
  1  2  1  0
  2  3  1  0
  2  4  1  0
  4  5  1  0
  5  6  2  0
  5  7  1  0
  7  8  1  1
  8  9  1  0
  9 10  2  0
 10 11  1  0
 11 12  2  0
 12 13  1  0
 13 14  2  0
 13 15  1  0
 15 16  1  0
 16 17  1  0
  7 18  1  0
 18 19  2  0
 19 20  1  0
 20 21  1  0
 20 22  2  0
 22 23  1  0
 23 24  2  0
 24 25  1  0
 25 26  1  0
 26 27  1  0
 27 28  1  0
 25 29  1  0
 29 30  2  0
 14  9  1  0
 30 18  1  0
 17 12  1  0
 29 22  1  0
M  END
>  <smiles>  (2287) 
C34794-P265

>  <fragmenstein_outcome>  (2287) 
acceptable

>  <inchikey>  (2287) 
JMVUNPZIXZHIEG-UHFFFAOYSA-N

>  <fragmenstein_mode>  (2287) 
expansion

>  <HIPPO Pose ID>  (2287) 
27208

>  <Energy>  (2287) 
110.094694

>  <fragmenstein_error>  (2287) 


>  <tags>  (2287) 
{'openbind_xx01zvns2b_c1_fragmenstein', 'fragmenstein_placed'}

>  <ref_pdb>  (2287) 
175

>  <scratch_subdir>  (2287) 
/opt/xchem-fragalysis-2/maxwin/BulkDock/SCRATCH/511028/C34794-P265

>  <alias>  (2287) 
CC(C)NC(=O)[C@H](Nc1ccc2c(c1)CNC2)c1cc(Cl)c2cnn(OCF)c2n1

>  <HIPPO Compound ID>  (2287) 
31999

>  <fragmenstein_runtime>  (2287) 
6.834021

$$$$
CNc1cc([C@@H](Nc2ccc3c(c2)CNC3)C(=O)NC(C)C)c(C)c(C(F)(F)F)c1
     RDKit          3D

 30 32  0  0  0  0  0  0  0  0999 V2000
  -10.7739    4.8773  -18.5670 C   0  0  0  0  0  0  0  0  0  0  0  0
  -10.3338    4.1256  -17.4183 N   0  0  0  0  0  0  0  0  0  0  0  0
   -9.0193    4.3296  -16.9912 C   0  0  0  0  0  0  0  0  0  0  0  0
   -8.7419    4.2368  -15.6283 C   0  0  0  0  0  0  0  0  0  0  0  0
   -7.4576    4.4103  -15.0777 C   0  0  0  0  0  0  0  0  0  0  0  0
   -7.2681    4.2662  -13.5490 C   0  0  1  0  0  0  0  0  0  0  0  0
   -8.5794    4.1740  -12.8519 N   0  0  0  0  0  0  0  0  0  0  0  0
   -8.4893    4.2252  -11.4425 C   0  0  0  0  0  0  0  0  0  0  0  0
   -8.0876    5.4003  -10.7809 C   0  0  0  0  0  0  0  0  0  0  0  0
   -8.0501    5.4640   -9.3834 C   0  0  0  0  0  0  0  0  0  0  0  0
   -8.4151    4.3392   -8.6656 C   0  0  0  0  0  0  0  0  0  0  0  0
   -8.8078    3.1760   -9.3107 C   0  0  0  0  0  0  0  0  0  0  0  0
   -8.8491    3.0997  -10.6899 C   0  0  0  0  0  0  0  0  0  0  0  0
   -9.1969    2.1472   -8.3085 C   0  0  0  0  0  0  0  0  0  0  0  0
   -8.8257    2.7095   -6.9818 N   0  0  0  0  0  0  0  0  0  0  0  0
   -8.5270    4.1422   -7.1940 C   0  0  0  0  0  0  0  0  0  0  0  0
   -6.4196    2.9821  -13.1827 C   0  0  0  0  0  0  0  0  0  0  0  0
   -6.8041    1.8976  -13.3893 O   0  0  0  0  0  0  0  0  0  0  0  0
   -5.0552    3.4778  -12.6226 N   0  0  0  0  0  0  0  0  0  0  0  0
   -3.9283    2.7379  -12.1166 C   0  0  0  0  0  0  0  0  0  0  0  0
   -3.1820    3.5332  -11.0554 C   0  0  0  0  0  0  0  0  0  0  0  0
   -3.0203    2.3794  -13.2882 C   0  0  0  0  0  0  0  0  0  0  0  0
   -6.3988    4.7061  -15.9768 C   0  0  0  0  0  0  0  0  0  0  0  0
   -5.0041    4.9914  -15.4840 C   0  0  0  0  0  0  0  0  0  0  0  0
   -6.6420    4.6750  -17.3795 C   0  0  0  0  0  0  0  0  0  0  0  0
   -5.5637    4.8663  -18.4251 C   0  0  0  0  0  0  0  0  0  0  0  0
   -5.8814    4.3541  -19.6503 F   0  0  0  0  0  0  0  0  0  0  0  0
   -5.2999    6.1899  -18.6430 F   0  0  0  0  0  0  0  0  0  0  0  0
   -4.3576    4.3227  -18.0949 F   0  0  0  0  0  0  0  0  0  0  0  0
   -7.9498    4.4865  -17.8566 C   0  0  0  0  0  0  0  0  0  0  0  0
  1  2  1  0
  2  3  1  0
  3  4  2  0
  4  5  1  0
  5  6  1  0
  6  7  1  1
  7  8  1  0
  8  9  2  0
  9 10  1  0
 10 11  2  0
 11 12  1  0
 12 13  2  0
 12 14  1  0
 14 15  1  0
 15 16  1  0
  6 17  1  0
 17 18  2  0
 17 19  1  0
 19 20  1  0
 20 21  1  0
 20 22  1  0
  5 23  2  0
 23 24  1  0
 23 25  1  0
 25 26  1  0
 26 27  1  0
 26 28  1  0
 26 29  1  0
 25 30  2  0
 30  3  1  0
 13  8  1  0
 16 11  1  0
M  END
>  <smiles>  (2288) 
C34799-P265

>  <fragmenstein_outcome>  (2288) 
acceptable

>  <inchikey>  (2288) 
JPBOVCFUZSPFRY-UHFFFAOYSA-N

>  <fragmenstein_mode>  (2288) 
expansion

>  <HIPPO Pose ID>  (2288) 
27209

>  <Energy>  (2288) 
125.557464

>  <fragmenstein_error>  (2288) 


>  <tags>  (2288) 
{'openbind_xx01zvns2b_c1_fragmenstein', 'fragmenstein_placed'}

>  <ref_pdb>  (2288) 
175

>  <scratch_subdir>  (2288) 
/opt/xchem-fragalysis-2/maxwin/BulkDock/SCRATCH/511028/C34799-P265

>  <alias>  (2288) 
CNc1cc([C@@H](Nc2ccc3c(c2)CNC3)C(=O)NC(C)C)c(C)c(C(F)(F)F)c1

>  <HIPPO Compound ID>  (2288) 
30078

>  <fragmenstein_runtime>  (2288) 
12.046321

$$$$
CC(C)N[C@@](N)(O)[C@H](Nc1ccc2c(c1)CNC2)c1cc(Cl)cc(C(F)(F)F)n1
     RDKit          3D

 29 31  0  0  0  0  0  0  0  0999 V2000
   -5.0879    1.6720  -11.6054 C   0  0  0  0  0  0  0  0  0  0  0  0
   -4.4025    3.0418  -11.6545 C   0  0  0  0  0  0  0  0  0  0  0  0
   -3.7929    3.3456  -10.2824 C   0  0  0  0  0  0  0  0  0  0  0  0
   -5.3550    4.1248  -11.9515 N   0  0  0  0  0  0  0  0  0  0  0  0
   -5.6618    4.3739  -13.3472 C   0  0  1  0  0  0  0  0  0  0  0  0
   -4.7407    5.4598  -13.5931 N   0  0  0  0  0  0  0  0  0  0  0  0
   -5.2359    3.3127  -14.1599 O   0  0  0  0  0  0  0  0  0  0  0  0
   -7.2139    4.8035  -13.7098 C   0  0  2  0  0  0  0  0  0  0  0  0
   -8.2430    4.0256  -12.9601 N   0  0  0  0  0  0  0  0  0  0  0  0
   -8.4119    4.1708  -11.5804 C   0  0  0  0  0  0  0  0  0  0  0  0
   -8.2243    5.3918  -10.9025 C   0  0  0  0  0  0  0  0  0  0  0  0
   -8.2782    5.4686   -9.5038 C   0  0  0  0  0  0  0  0  0  0  0  0
   -8.5524    4.3168   -8.7917 C   0  0  0  0  0  0  0  0  0  0  0  0
   -8.8138    3.1257   -9.4476 C   0  0  0  0  0  0  0  0  0  0  0  0
   -8.7693    3.0414  -10.8294 C   0  0  0  0  0  0  0  0  0  0  0  0
   -9.1174    2.0584   -8.4554 C   0  0  0  0  0  0  0  0  0  0  0  0
   -8.8852    2.6603   -7.1139 N   0  0  0  0  0  0  0  0  0  0  0  0
   -8.6546    4.1060   -7.3219 C   0  0  0  0  0  0  0  0  0  0  0  0
   -7.4887    4.6985  -15.2354 C   0  0  0  0  0  0  0  0  0  0  0  0
   -8.7624    4.4694  -15.7425 C   0  0  0  0  0  0  0  0  0  0  0  0
   -8.9387    4.4125  -17.1227 C   0  0  0  0  0  0  0  0  0  0  0  0
  -10.4856    4.2093  -17.8186 Cl  0  0  0  0  0  0  0  0  0  0  0  0
   -7.8753    4.5707  -17.9867 C   0  0  0  0  0  0  0  0  0  0  0  0
   -6.6324    4.7996  -17.4372 C   0  0  0  0  0  0  0  0  0  0  0  0
   -5.4608    5.0155  -18.3705 C   0  0  0  0  0  0  0  0  0  0  0  0
   -5.5441    4.2785  -19.5173 F   0  0  0  0  0  0  0  0  0  0  0  0
   -5.3455    6.3122  -18.7833 F   0  0  0  0  0  0  0  0  0  0  0  0
   -4.2604    4.7177  -17.7957 F   0  0  0  0  0  0  0  0  0  0  0  0
   -6.4413    4.8806  -16.0855 N   0  0  0  0  0  0  0  0  0  0  0  0
  1  2  1  0
  2  3  1  0
  2  4  1  0
  4  5  1  0
  5  6  1  6
  5  7  1  0
  5  8  1  0
  8  9  1  1
  9 10  1  0
 10 11  2  0
 11 12  1  0
 12 13  2  0
 13 14  1  0
 14 15  2  0
 14 16  1  0
 16 17  1  0
 17 18  1  0
  8 19  1  0
 19 20  2  0
 20 21  1  0
 21 22  1  0
 21 23  2  0
 23 24  1  0
 24 25  1  0
 25 26  1  0
 25 27  1  0
 25 28  1  0
 24 29  2  0
 15 10  1  0
 29 19  1  0
 18 13  1  0
M  END
>  <smiles>  (2289) 
C34804-P265

>  <fragmenstein_outcome>  (2289) 
acceptable

>  <inchikey>  (2289) 
WVQBHRNVYMQPLZ-UHFFFAOYSA-N

>  <fragmenstein_mode>  (2289) 
expansion

>  <HIPPO Pose ID>  (2289) 
27210

>  <Energy>  (2289) 
50.830473

>  <fragmenstein_error>  (2289) 


>  <tags>  (2289) 
{'openbind_xx01zvns2b_c1_fragmenstein', 'fragmenstein_placed'}

>  <ref_pdb>  (2289) 
175

>  <scratch_subdir>  (2289) 
/opt/xchem-fragalysis-2/maxwin/BulkDock/SCRATCH/511028/C34804-P265

>  <alias>  (2289) 
CC(C)N[C@@](N)(O)[C@H](Nc1ccc2c(c1)CNC2)c1cc(Cl)cc(C(F)(F)F)n1

>  <HIPPO Compound ID>  (2289) 
34804

>  <fragmenstein_runtime>  (2289) 
5.186263

$$$$
CC(C)NC(=O)[C@](N)(Nc1ccc2c(c1)CNC2)c1cc2scnc2c(C(F)(F)F)n1
     RDKit          3D

 31 34  0  0  0  0  0  0  0  0999 V2000
   -2.9438    3.8306  -11.7375 C   0  0  0  0  0  0  0  0  0  0  0  0
   -4.2583    3.4810  -11.0510 C   0  0  0  0  0  0  0  0  0  0  0  0
   -4.2655    3.9292   -9.5956 C   0  0  0  0  0  0  0  0  0  0  0  0
   -5.3633    4.0655  -11.7671 N   0  0  0  0  0  0  0  0  0  0  0  0
   -6.2445    3.4867  -12.9131 C   0  0  0  0  0  0  0  0  0  0  0  0
   -6.2561    2.4201  -13.3958 O   0  0  0  0  0  0  0  0  0  0  0  0
   -7.3147    4.6528  -13.3026 C   0  0  2  0  0  0  0  0  0  0  0  0
   -6.7316    5.9938  -12.9860 N   0  0  0  0  0  0  0  0  0  0  0  0
   -8.6031    4.3134  -12.6532 N   0  0  0  0  0  0  0  0  0  0  0  0
   -8.5828    4.2706  -11.2369 C   0  0  0  0  0  0  0  0  0  0  0  0
   -8.3508    5.4241  -10.4610 C   0  0  0  0  0  0  0  0  0  0  0  0
   -8.3487    5.3787   -9.0626 C   0  0  0  0  0  0  0  0  0  0  0  0
   -8.6131    4.1700   -8.4496 C   0  0  0  0  0  0  0  0  0  0  0  0
   -8.8564    3.0291   -9.2008 C   0  0  0  0  0  0  0  0  0  0  0  0
   -8.8389    3.0568  -10.5843 C   0  0  0  0  0  0  0  0  0  0  0  0
   -9.0902    1.8738   -8.2912 C   0  0  0  0  0  0  0  0  0  0  0  0
   -9.2423    2.4585   -6.9325 N   0  0  0  0  0  0  0  0  0  0  0  0
   -8.7010    3.8317   -7.0012 C   0  0  0  0  0  0  0  0  0  0  0  0
   -7.4621    4.6167  -14.8578 C   0  0  0  0  0  0  0  0  0  0  0  0
   -8.6605    4.2794  -15.4689 C   0  0  0  0  0  0  0  0  0  0  0  0
   -8.6793    4.3153  -16.8576 C   0  0  0  0  0  0  0  0  0  0  0  0
   -9.9997    4.0719  -17.9110 S   0  0  0  0  0  0  0  0  0  0  0  0
   -8.9692    4.3185  -19.2406 C   0  0  0  0  0  0  0  0  0  0  0  0
   -7.7151    4.5654  -18.9736 N   0  0  0  0  0  0  0  0  0  0  0  0
   -7.5552    4.6292  -17.6116 C   0  0  0  0  0  0  0  0  0  0  0  0
   -6.3937    5.0287  -16.9550 C   0  0  0  0  0  0  0  0  0  0  0  0
   -5.2584    5.6168  -17.7427 C   0  0  0  0  0  0  0  0  0  0  0  0
   -4.9840    5.0149  -18.9352 F   0  0  0  0  0  0  0  0  0  0  0  0
   -4.0795    5.6071  -17.0540 F   0  0  0  0  0  0  0  0  0  0  0  0
   -5.4845    6.9363  -18.0388 F   0  0  0  0  0  0  0  0  0  0  0  0
   -6.3804    5.0444  -15.5774 N   0  0  0  0  0  0  0  0  0  0  0  0
  1  2  1  0
  2  3  1  0
  2  4  1  0
  4  5  1  0
  5  6  2  0
  5  7  1  0
  7  8  1  1
  7  9  1  0
  9 10  1  0
 10 11  2  0
 11 12  1  0
 12 13  2  0
 13 14  1  0
 14 15  2  0
 14 16  1  0
 16 17  1  0
 17 18  1  0
  7 19  1  0
 19 20  2  0
 20 21  1  0
 21 22  1  0
 22 23  1  0
 23 24  2  0
 24 25  1  0
 25 26  1  0
 26 27  1  0
 27 28  1  0
 27 29  1  0
 27 30  1  0
 26 31  2  0
 15 10  1  0
 31 19  1  0
 18 13  1  0
 25 21  2  0
M  END
>  <smiles>  (2290) 
C34806-P265

>  <fragmenstein_outcome>  (2290) 
acceptable

>  <inchikey>  (2290) 
BHKFBIOJSFKSOX-UHFFFAOYSA-N

>  <fragmenstein_mode>  (2290) 
expansion

>  <HIPPO Pose ID>  (2290) 
27211

>  <Energy>  (2290) 
172.412272

>  <fragmenstein_error>  (2290) 


>  <tags>  (2290) 
{'openbind_xx01zvns2b_c1_fragmenstein', 'fragmenstein_placed'}

>  <ref_pdb>  (2290) 
175

>  <scratch_subdir>  (2290) 
/opt/xchem-fragalysis-2/maxwin/BulkDock/SCRATCH/511028/C34806-P265

>  <alias>  (2290) 
CC(C)NC(=O)[C@](N)(Nc1ccc2c(c1)CNC2)c1cc2scnc2c(C(F)(F)F)n1

>  <HIPPO Compound ID>  (2290) 
34806

>  <fragmenstein_runtime>  (2290) 
6.915597

$$$$
CC(C)NC(=O)[C@@H](Nc1ccc2c(c1)CNC2)c1cc(Cl)c(Cl)c(C(F)(F)O[C@@H]2CCOC2)n1
     RDKit          3D

 34 37  0  0  0  0  0  0  0  0999 V2000
   -8.4243    9.0445  -11.2116 C   0  0  0  0  0  0  0  0  0  0  0  0
   -8.1417    8.9644  -12.7078 C   0  0  0  0  0  0  0  0  0  0  0  0
   -7.0646    9.9580  -13.1208 C   0  0  0  0  0  0  0  0  0  0  0  0
   -7.7603    7.6173  -13.0695 N   0  0  0  0  0  0  0  0  0  0  0  0
   -8.6384    6.3875  -13.4736 C   0  0  0  0  0  0  0  0  0  0  0  0
   -9.7955    6.3050  -13.6483 O   0  0  0  0  0  0  0  0  0  0  0  0
   -7.6705    5.1473  -13.6341 C   0  0  1  0  0  0  0  0  0  0  0  0
   -8.0855    4.0064  -12.7966 N   0  0  0  0  0  0  0  0  0  0  0  0
   -8.2217    4.0899  -11.4088 C   0  0  0  0  0  0  0  0  0  0  0  0
   -7.8130    5.1897  -10.6298 C   0  0  0  0  0  0  0  0  0  0  0  0
   -7.9786    5.2228   -9.2373 C   0  0  0  0  0  0  0  0  0  0  0  0
   -8.4951    4.1074   -8.6166 C   0  0  0  0  0  0  0  0  0  0  0  0
   -8.8090    2.9750   -9.3528 C   0  0  0  0  0  0  0  0  0  0  0  0
   -8.6865    2.9530  -10.7324 C   0  0  0  0  0  0  0  0  0  0  0  0
   -9.1939    1.8819   -8.4154 C   0  0  0  0  0  0  0  0  0  0  0  0
   -9.5194    2.5699   -7.1387 N   0  0  0  0  0  0  0  0  0  0  0  0
   -8.7581    3.8387   -7.1734 C   0  0  0  0  0  0  0  0  0  0  0  0
   -7.6422    4.7575  -15.1163 C   0  0  0  0  0  0  0  0  0  0  0  0
   -8.8182    4.4012  -15.7488 C   0  0  0  0  0  0  0  0  0  0  0  0
   -8.8273    4.2316  -17.1208 C   0  0  0  0  0  0  0  0  0  0  0  0
  -10.3551    4.0538  -17.8708 Cl  0  0  0  0  0  0  0  0  0  0  0  0
   -7.6526    4.2931  -17.8549 C   0  0  0  0  0  0  0  0  0  0  0  0
   -7.6947    3.9577  -19.5379 Cl  0  0  0  0  0  0  0  0  0  0  0  0
   -6.4848    4.6112  -17.1725 C   0  0  0  0  0  0  0  0  0  0  0  0
   -5.1647    4.7574  -17.9128 C   0  0  0  0  0  0  0  0  0  0  0  0
   -5.1832    4.4893  -19.2483 F   0  0  0  0  0  0  0  0  0  0  0  0
   -4.1693    3.9740  -17.4062 F   0  0  0  0  0  0  0  0  0  0  0  0
   -4.6946    6.0956  -17.7250 O   0  0  0  0  0  0  0  0  0  0  0  0
   -4.1743    6.7012  -18.8969 C   0  0  2  0  0  0  0  0  0  0  0  0
   -3.3357    7.8825  -18.4709 C   0  0  0  0  0  0  0  0  0  0  0  0
   -4.3892    8.9346  -18.2046 C   0  0  0  0  0  0  0  0  0  0  0  0
   -5.4516    8.7088  -19.1438 O   0  0  0  0  0  0  0  0  0  0  0  0
   -5.2979    7.3758  -19.6779 C   0  0  0  0  0  0  0  0  0  0  0  0
   -6.4817    4.8700  -15.8127 N   0  0  0  0  0  0  0  0  0  0  0  0
  1  2  1  0
  2  3  1  0
  2  4  1  0
  4  5  1  0
  5  6  2  0
  5  7  1  0
  7  8  1  1
  8  9  1  0
  9 10  2  0
 10 11  1  0
 11 12  2  0
 12 13  1  0
 13 14  2  0
 13 15  1  0
 15 16  1  0
 16 17  1  0
  7 18  1  0
 18 19  2  0
 19 20  1  0
 20 21  1  0
 20 22  2  0
 22 23  1  0
 22 24  1  0
 24 25  1  0
 25 26  1  0
 25 27  1  0
 25 28  1  0
 29 28  1  1
 29 30  1  0
 30 31  1  0
 31 32  1  0
 32 33  1  0
 24 34  2  0
 14  9  1  0
 34 18  1  0
 17 12  1  0
 33 29  1  0
M  END
>  <smiles>  (2291) 
C34816-P265

>  <fragmenstein_outcome>  (2291) 
acceptable

>  <inchikey>  (2291) 
OKIABLNOPQTMJW-UHFFFAOYSA-N

>  <fragmenstein_mode>  (2291) 
expansion

>  <HIPPO Pose ID>  (2291) 
27213

>  <Energy>  (2291) 
171.926704

>  <fragmenstein_error>  (2291) 


>  <tags>  (2291) 
{'openbind_xx01zvns2b_c1_fragmenstein', 'fragmenstein_placed'}

>  <ref_pdb>  (2291) 
175

>  <scratch_subdir>  (2291) 
/opt/xchem-fragalysis-2/maxwin/BulkDock/SCRATCH/511028/C34816-P265

>  <alias>  (2291) 
CC(C)NC(=O)[C@@H](Nc1ccc2c(c1)CNC2)c1cc(Cl)c(Cl)c(C(F)(F)O[C@@H]2CCOC2)n1

>  <HIPPO Compound ID>  (2291) 
34816

>  <fragmenstein_runtime>  (2291) 
7.222104

$$$$
CCOC(F)(F)c1cc(Cl)cc([C@@](O)(Nc2cc3c(cc2C)CNC3)C(=O)NC(C)C)n1
     RDKit          3D

 32 34  0  0  0  0  0  0  0  0999 V2000
   -5.0894    8.5365  -18.9879 C   0  0  0  0  0  0  0  0  0  0  0  0
   -5.1396    7.2623  -18.1672 C   0  0  0  0  0  0  0  0  0  0  0  0
   -5.5022    6.2056  -19.0335 O   0  0  0  0  0  0  0  0  0  0  0  0
   -5.4652    4.9233  -18.4079 C   0  0  0  0  0  0  0  0  0  0  0  0
   -5.4714    4.0449  -19.4505 F   0  0  0  0  0  0  0  0  0  0  0  0
   -4.2483    4.8032  -17.8074 F   0  0  0  0  0  0  0  0  0  0  0  0
   -6.6381    4.6904  -17.4639 C   0  0  0  0  0  0  0  0  0  0  0  0
   -7.8751    4.4623  -18.0355 C   0  0  0  0  0  0  0  0  0  0  0  0
   -8.9548    4.3237  -17.1937 C   0  0  0  0  0  0  0  0  0  0  0  0
  -10.5071    4.2091  -17.8931 Cl  0  0  0  0  0  0  0  0  0  0  0  0
   -8.7994    4.3784  -15.8151 C   0  0  0  0  0  0  0  0  0  0  0  0
   -7.5352    4.6093  -15.2789 C   0  0  0  0  0  0  0  0  0  0  0  0
   -7.3851    4.9804  -13.7786 C   0  0  1  0  0  0  0  0  0  0  0  0
   -7.5873    6.3939  -13.8311 O   0  0  0  0  0  0  0  0  0  0  0  0
   -8.4387    4.3732  -12.9293 N   0  0  0  0  0  0  0  0  0  0  0  0
   -8.4400    4.3837  -11.5225 C   0  0  0  0  0  0  0  0  0  0  0  0
   -8.7522    3.1548  -10.8886 C   0  0  0  0  0  0  0  0  0  0  0  0
   -8.8080    3.0650   -9.5067 C   0  0  0  0  0  0  0  0  0  0  0  0
   -8.5659    4.1688   -8.7122 C   0  0  0  0  0  0  0  0  0  0  0  0
   -8.2466    5.3825   -9.2790 C   0  0  0  0  0  0  0  0  0  0  0  0
   -8.2098    5.5124  -10.6890 C   0  0  0  0  0  0  0  0  0  0  0  0
   -7.9963    6.9130  -11.1893 C   0  0  0  0  0  0  0  0  0  0  0  0
   -8.7415    3.7955   -7.2796 C   0  0  0  0  0  0  0  0  0  0  0  0
   -9.4216    2.4821   -7.3013 N   0  0  0  0  0  0  0  0  0  0  0  0
   -9.0937    1.8936   -8.6269 C   0  0  0  0  0  0  0  0  0  0  0  0
   -5.8965    4.6828  -13.2556 C   0  0  0  0  0  0  0  0  0  0  0  0
   -5.0734    5.5185  -13.3100 O   0  0  0  0  0  0  0  0  0  0  0  0
   -5.8252    3.2300  -12.6936 N   0  0  0  0  0  0  0  0  0  0  0  0
   -4.7581    2.5428  -11.9992 C   0  0  0  0  0  0  0  0  0  0  0  0
   -3.7403    1.9823  -12.9837 C   0  0  0  0  0  0  0  0  0  0  0  0
   -5.3111    1.4524  -11.0894 C   0  0  0  0  0  0  0  0  0  0  0  0
   -6.4630    4.7833  -16.1055 N   0  0  0  0  0  0  0  0  0  0  0  0
  1  2  1  0
  2  3  1  0
  3  4  1  0
  4  5  1  0
  4  6  1  0
  4  7  1  0
  7  8  2  0
  8  9  1  0
  9 10  1  0
  9 11  2  0
 11 12  1  0
 12 13  1  0
 13 14  1  6
 13 15  1  0
 15 16  1  0
 16 17  2  0
 17 18  1  0
 18 19  2  0
 19 20  1  0
 20 21  2  0
 21 22  1  0
 19 23  1  0
 23 24  1  0
 24 25  1  0
 13 26  1  0
 26 27  2  0
 26 28  1  0
 28 29  1  0
 29 30  1  0
 29 31  1  0
 12 32  2  0
 32  7  1  0
 21 16  1  0
 25 18  1  0
M  END
>  <smiles>  (2292) 
C34840-P265

>  <fragmenstein_outcome>  (2292) 
acceptable

>  <inchikey>  (2292) 
MONPNCUPIZSLAI-UHFFFAOYSA-N

>  <fragmenstein_mode>  (2292) 
expansion

>  <HIPPO Pose ID>  (2292) 
27222

>  <Energy>  (2292) 
167.319903

>  <fragmenstein_error>  (2292) 


>  <tags>  (2292) 
{'openbind_xx01zvns2b_c1_fragmenstein', 'fragmenstein_placed'}

>  <ref_pdb>  (2292) 
175

>  <scratch_subdir>  (2292) 
/opt/xchem-fragalysis-2/maxwin/BulkDock/SCRATCH/511028/C34840-P265

>  <alias>  (2292) 
CCOC(F)(F)c1cc(Cl)cc([C@@](O)(Nc2cc3c(cc2C)CNC3)C(=O)NC(C)C)n1

>  <HIPPO Compound ID>  (2292) 
34840

>  <fragmenstein_runtime>  (2292) 
8.762294

$$$$
Cc1cc2c(c(N)c1N[C@@](O)(C(=O)NC(C)C)c1cc(Cl)cc(C(F)(F)F)n1)CNC2
     RDKit          3D

 31 33  0  0  0  0  0  0  0  0999 V2000
   -8.2108    7.2673  -11.6364 C   0  0  0  0  0  0  0  0  0  0  0  0
   -8.2486    5.9234  -10.9676 C   0  0  0  0  0  0  0  0  0  0  0  0
   -8.2244    5.8848   -9.5589 C   0  0  0  0  0  0  0  0  0  0  0  0
   -8.3859    4.6723   -8.9035 C   0  0  0  0  0  0  0  0  0  0  0  0
   -8.5252    3.4888   -9.6069 C   0  0  0  0  0  0  0  0  0  0  0  0
   -8.4255    3.4772  -10.9839 C   0  0  0  0  0  0  0  0  0  0  0  0
   -8.6155    2.2970  -11.7221 N   0  0  0  0  0  0  0  0  0  0  0  0
   -8.3448    4.7133  -11.6860 C   0  0  0  0  0  0  0  0  0  0  0  0
   -8.4161    4.6495  -13.1111 N   0  0  0  0  0  0  0  0  0  0  0  0
   -7.1389    4.7320  -13.8630 C   0  0  1  0  0  0  0  0  0  0  0  0
   -6.5449    6.0296  -13.6891 O   0  0  0  0  0  0  0  0  0  0  0  0
   -6.1058    3.6046  -13.3794 C   0  0  0  0  0  0  0  0  0  0  0  0
   -6.0635    2.5229  -13.8213 O   0  0  0  0  0  0  0  0  0  0  0  0
   -5.2721    4.2622  -12.2360 N   0  0  0  0  0  0  0  0  0  0  0  0
   -4.1596    3.7501  -11.4767 C   0  0  0  0  0  0  0  0  0  0  0  0
   -4.1381    4.3576  -10.0808 C   0  0  0  0  0  0  0  0  0  0  0  0
   -2.8535    4.0062  -12.2189 C   0  0  0  0  0  0  0  0  0  0  0  0
   -7.3959    4.6142  -15.3956 C   0  0  0  0  0  0  0  0  0  0  0  0
   -8.6669    4.3599  -15.9040 C   0  0  0  0  0  0  0  0  0  0  0  0
   -8.8605    4.3792  -17.2764 C   0  0  0  0  0  0  0  0  0  0  0  0
  -10.4278    4.2078  -17.9291 Cl  0  0  0  0  0  0  0  0  0  0  0  0
   -7.8077    4.5925  -18.1383 C   0  0  0  0  0  0  0  0  0  0  0  0
   -6.5586    4.8314  -17.5923 C   0  0  0  0  0  0  0  0  0  0  0  0
   -5.4089    5.0201  -18.5663 C   0  0  0  0  0  0  0  0  0  0  0  0
   -5.4695    4.1571  -19.6227 F   0  0  0  0  0  0  0  0  0  0  0  0
   -5.3851    6.2590  -19.1371 F   0  0  0  0  0  0  0  0  0  0  0  0
   -4.1806    4.8620  -17.9979 F   0  0  0  0  0  0  0  0  0  0  0  0
   -6.3516    4.9057  -16.2358 N   0  0  0  0  0  0  0  0  0  0  0  0
   -8.8260    2.3737   -8.6633 C   0  0  0  0  0  0  0  0  0  0  0  0
   -8.7363    2.9466   -7.2936 N   0  0  0  0  0  0  0  0  0  0  0  0
   -8.4958    4.3974   -7.4440 C   0  0  0  0  0  0  0  0  0  0  0  0
  1  2  1  0
  2  3  2  0
  3  4  1  0
  4  5  2  0
  5  6  1  0
  6  7  1  0
  6  8  2  0
  8  9  1  0
  9 10  1  0
 10 11  1  6
 10 12  1  0
 12 13  2  0
 12 14  1  0
 14 15  1  0
 15 16  1  0
 15 17  1  0
 10 18  1  0
 18 19  2  0
 19 20  1  0
 20 21  1  0
 20 22  2  0
 22 23  1  0
 23 24  1  0
 24 25  1  0
 24 26  1  0
 24 27  1  0
 23 28  2  0
  5 29  1  0
 29 30  1  0
 30 31  1  0
  8  2  1  0
 28 18  1  0
 31  4  1  0
M  END
>  <smiles>  (2293) 
C34842-P265

>  <fragmenstein_outcome>  (2293) 
acceptable

>  <inchikey>  (2293) 
KXFNYYMSZNWHFC-UHFFFAOYSA-N

>  <fragmenstein_mode>  (2293) 
expansion

>  <HIPPO Pose ID>  (2293) 
27224

>  <Energy>  (2293) 
178.835142

>  <fragmenstein_error>  (2293) 


>  <tags>  (2293) 
{'openbind_xx01zvns2b_c1_fragmenstein', 'fragmenstein_placed'}

>  <ref_pdb>  (2293) 
175

>  <scratch_subdir>  (2293) 
/opt/xchem-fragalysis-2/maxwin/BulkDock/SCRATCH/511028/C34842-P265

>  <alias>  (2293) 
Cc1cc2c(c(N)c1N[C@@](O)(C(=O)NC(C)C)c1cc(Cl)cc(C(F)(F)F)n1)CNC2

>  <HIPPO Compound ID>  (2293) 
34842

>  <fragmenstein_runtime>  (2293) 
7.691967

$$$$
CC(C)NC(=O)[C@](O)(Nc1ccc2c(c1)CN(N)C2)c1cc(Cl)cc(C(F)(F)OC(=O)OCc2ccccc2)n1
     RDKit          3D

 40 43  0  0  0  0  0  0  0  0999 V2000
   -3.5583    1.9788  -13.1488 C   0  0  0  0  0  0  0  0  0  0  0  0
   -4.5093    2.6258  -12.1519 C   0  0  0  0  0  0  0  0  0  0  0  0
   -5.0068    1.6198  -11.1201 C   0  0  0  0  0  0  0  0  0  0  0  0
   -5.6211    3.2540  -12.8291 N   0  0  0  0  0  0  0  0  0  0  0  0
   -5.7689    4.6930  -13.4131 C   0  0  0  0  0  0  0  0  0  0  0  0
   -4.9843    5.5618  -13.5024 O   0  0  0  0  0  0  0  0  0  0  0  0
   -7.2934    4.9191  -13.8705 C   0  0  2  0  0  0  0  0  0  0  0  0
   -7.6093    6.3121  -13.7626 O   0  0  0  0  0  0  0  0  0  0  0  0
   -8.2485    4.1552  -13.0452 N   0  0  0  0  0  0  0  0  0  0  0  0
   -8.3016    4.2082  -11.6535 C   0  0  0  0  0  0  0  0  0  0  0  0
   -7.9440    5.3416  -10.8954 C   0  0  0  0  0  0  0  0  0  0  0  0
   -8.0265    5.3585   -9.4939 C   0  0  0  0  0  0  0  0  0  0  0  0
   -8.4792    4.2245   -8.8544 C   0  0  0  0  0  0  0  0  0  0  0  0
   -8.8294    3.0938   -9.5863 C   0  0  0  0  0  0  0  0  0  0  0  0
   -8.7566    3.0730  -10.9671 C   0  0  0  0  0  0  0  0  0  0  0  0
   -9.2590    2.0148   -8.6457 C   0  0  0  0  0  0  0  0  0  0  0  0
   -9.6029    2.7638   -7.4071 N   0  0  0  0  0  0  0  0  0  0  0  0
   -9.4825    1.9324   -6.2541 N   0  0  0  0  0  0  0  0  0  0  0  0
   -8.7073    3.9481   -7.3994 C   0  0  0  0  0  0  0  0  0  0  0  0
   -7.4784    4.6140  -15.3784 C   0  0  0  0  0  0  0  0  0  0  0  0
   -8.7666    4.4278  -15.8754 C   0  0  0  0  0  0  0  0  0  0  0  0
   -8.9573    4.3322  -17.2436 C   0  0  0  0  0  0  0  0  0  0  0  0
  -10.5272    4.2349  -17.9018 Cl  0  0  0  0  0  0  0  0  0  0  0  0
   -7.8910    4.3983  -18.1107 C   0  0  0  0  0  0  0  0  0  0  0  0
   -6.6262    4.5855  -17.5782 C   0  0  0  0  0  0  0  0  0  0  0  0
   -5.4794    4.7487  -18.5703 C   0  0  0  0  0  0  0  0  0  0  0  0
   -5.7097    4.0614  -19.7276 F   0  0  0  0  0  0  0  0  0  0  0  0
   -4.2762    4.3350  -18.0897 F   0  0  0  0  0  0  0  0  0  0  0  0
   -5.3879    6.1320  -18.8847 O   0  0  0  0  0  0  0  0  0  0  0  0
   -4.5270    6.3908  -19.8804 C   0  0  0  0  0  0  0  0  0  0  0  0
   -3.7878    5.6009  -20.4457 O   0  0  0  0  0  0  0  0  0  0  0  0
   -4.6251    7.7142  -20.1682 O   0  0  0  0  0  0  0  0  0  0  0  0
   -3.8112    8.1755  -21.2505 C   0  0  0  0  0  0  0  0  0  0  0  0
   -4.6576    8.3636  -22.4845 C   0  0  0  0  0  0  0  0  0  0  0  0
   -5.0601    7.2552  -23.2447 C   0  0  0  0  0  0  0  0  0  0  0  0
   -5.8289    7.4256  -24.3970 C   0  0  0  0  0  0  0  0  0  0  0  0
   -6.2047    8.7047  -24.8000 C   0  0  0  0  0  0  0  0  0  0  0  0
   -5.8195    9.8131  -24.0480 C   0  0  0  0  0  0  0  0  0  0  0  0
   -5.0543    9.6444  -22.8926 C   0  0  0  0  0  0  0  0  0  0  0  0
   -6.4154    4.7150  -16.2291 N   0  0  0  0  0  0  0  0  0  0  0  0
  1  2  1  0
  2  3  1  0
  2  4  1  0
  4  5  1  0
  5  6  2  0
  5  7  1  0
  7  8  1  6
  7  9  1  0
  9 10  1  0
 10 11  2  0
 11 12  1  0
 12 13  2  0
 13 14  1  0
 14 15  2  0
 14 16  1  0
 16 17  1  0
 17 18  1  0
 17 19  1  0
  7 20  1  0
 20 21  2  0
 21 22  1  0
 22 23  1  0
 22 24  2  0
 24 25  1  0
 25 26  1  0
 26 27  1  0
 26 28  1  0
 26 29  1  0
 29 30  1  0
 30 31  2  0
 30 32  1  0
 32 33  1  0
 33 34  1  0
 34 35  2  0
 35 36  1  0
 36 37  2  0
 37 38  1  0
 38 39  2  0
 25 40  2  0
 15 10  1  0
 40 20  1  0
 19 13  1  0
 39 34  1  0
M  END
>  <smiles>  (2294) 
C34866-P265

>  <fragmenstein_outcome>  (2294) 
acceptable

>  <inchikey>  (2294) 
KEAGODUCIRLECM-UHFFFAOYSA-N

>  <fragmenstein_mode>  (2294) 
expansion

>  <HIPPO Pose ID>  (2294) 
27234

>  <Energy>  (2294) 
172.254256

>  <fragmenstein_error>  (2294) 


>  <tags>  (2294) 
{'openbind_xx01zvns2b_c1_fragmenstein', 'fragmenstein_placed'}

>  <ref_pdb>  (2294) 
175

>  <scratch_subdir>  (2294) 
/opt/xchem-fragalysis-2/maxwin/BulkDock/SCRATCH/511028/C34866-P265

>  <alias>  (2294) 
CC(C)NC(=O)[C@](O)(Nc1ccc2c(c1)CN(N)C2)c1cc(Cl)cc(C(F)(F)OC(=O)OCc2ccccc2)n1

>  <HIPPO Compound ID>  (2294) 
34866

>  <fragmenstein_runtime>  (2294) 
6.527437

$$$$
C[C@H](F)c1cc(Cl)cc([C@@H](Nc2ccc3c(c2)CNC3)C(=O)N[C@H](C)C(F)F)n1
     RDKit          3D

 29 31  0  0  0  0  0  0  0  0999 V2000
   -5.4492    4.7073  -19.5765 C   0  0  0  0  0  0  0  0  0  0  0  0
   -5.6967    5.5276  -18.3217 C   0  0  2  0  0  0  0  0  0  0  0  0
   -4.4823    5.7199  -17.7288 F   0  0  0  0  0  0  0  0  0  0  0  0
   -6.7548    4.9386  -17.4043 C   0  0  0  0  0  0  0  0  0  0  0  0
   -7.9915    4.6987  -17.9754 C   0  0  0  0  0  0  0  0  0  0  0  0
   -9.0229    4.3110  -17.1602 C   0  0  0  0  0  0  0  0  0  0  0  0
  -10.5692    4.1733  -17.8648 Cl  0  0  0  0  0  0  0  0  0  0  0  0
   -8.8195    4.1309  -15.8044 C   0  0  0  0  0  0  0  0  0  0  0  0
   -7.5547    4.3575  -15.2622 C   0  0  0  0  0  0  0  0  0  0  0  0
   -7.3264    4.2631  -13.7342 C   0  0  1  0  0  0  0  0  0  0  0  0
   -8.6258    4.1694  -12.9938 N   0  0  0  0  0  0  0  0  0  0  0  0
   -8.5109    4.2098  -11.5833 C   0  0  0  0  0  0  0  0  0  0  0  0
   -8.1484    5.3924  -10.9142 C   0  0  0  0  0  0  0  0  0  0  0  0
   -8.1213    5.4485   -9.5140 C   0  0  0  0  0  0  0  0  0  0  0  0
   -8.4584    4.3099   -8.8031 C   0  0  0  0  0  0  0  0  0  0  0  0
   -8.7775    3.1267   -9.4563 C   0  0  0  0  0  0  0  0  0  0  0  0
   -8.8048    3.0584  -10.8359 C   0  0  0  0  0  0  0  0  0  0  0  0
   -9.0502    2.0607   -8.4480 C   0  0  0  0  0  0  0  0  0  0  0  0
   -9.2667    2.7957   -7.1716 N   0  0  0  0  0  0  0  0  0  0  0  0
   -8.5542    4.0835   -7.3316 C   0  0  0  0  0  0  0  0  0  0  0  0
   -6.4356    3.0231  -13.3290 C   0  0  0  0  0  0  0  0  0  0  0  0
   -6.8361    1.9257  -13.4063 O   0  0  0  0  0  0  0  0  0  0  0  0
   -5.0905    3.5691  -12.7598 N   0  0  0  0  0  0  0  0  0  0  0  0
   -3.9210    2.8622  -12.2552 C   0  0  2  0  0  0  0  0  0  0  0  0
   -3.3772    1.9178  -13.3184 C   0  0  0  0  0  0  0  0  0  0  0  0
   -4.2060    2.1028  -10.9470 C   0  0  0  0  0  0  0  0  0  0  0  0
   -3.0896    1.4211  -10.5610 F   0  0  0  0  0  0  0  0  0  0  0  0
   -4.4343    3.0122   -9.9581 F   0  0  0  0  0  0  0  0  0  0  0  0
   -6.5253    4.7885  -16.0600 N   0  0  0  0  0  0  0  0  0  0  0  0
  2  1  1  6
  2  3  1  0
  2  4  1  0
  4  5  2  0
  5  6  1  0
  6  7  1  0
  6  8  2  0
  8  9  1  0
  9 10  1  0
 10 11  1  1
 11 12  1  0
 12 13  2  0
 13 14  1  0
 14 15  2  0
 15 16  1  0
 16 17  2  0
 16 18  1  0
 18 19  1  0
 19 20  1  0
 10 21  1  0
 21 22  2  0
 21 23  1  0
 23 24  1  0
 24 25  1  6
 24 26  1  0
 26 27  1  0
 26 28  1  0
  9 29  2  0
 29  4  1  0
 17 12  1  0
 20 15  1  0
M  END
>  <smiles>  (2295) 
C34878-P265

>  <fragmenstein_outcome>  (2295) 
acceptable

>  <inchikey>  (2295) 
ZDYKFFCLJFVZQW-UHFFFAOYSA-N

>  <fragmenstein_mode>  (2295) 
expansion

>  <HIPPO Pose ID>  (2295) 
27237

>  <Energy>  (2295) 
154.190959

>  <fragmenstein_error>  (2295) 


>  <tags>  (2295) 
{'openbind_xx01zvns2b_c1_fragmenstein', 'fragmenstein_placed'}

>  <ref_pdb>  (2295) 
175

>  <scratch_subdir>  (2295) 
/opt/xchem-fragalysis-2/maxwin/BulkDock/SCRATCH/511028/C34878-P265

>  <alias>  (2295) 
C[C@H](F)c1cc(Cl)cc([C@@H](Nc2ccc3c(c2)CNC3)C(=O)N[C@H](C)C(F)F)n1

>  <HIPPO Compound ID>  (2295) 
34878

>  <fragmenstein_runtime>  (2295) 
6.716098

$$$$
CC(C)NC(=O)[C@@](O)(Nc1ccc2c(c1)CNC2)c1cc(Cl)c(C#N)c(C(F)(F)F)n1
     RDKit          3D

 31 33  0  0  0  0  0  0  0  0999 V2000
   -7.2980    9.0809  -12.6869 C   0  0  0  0  0  0  0  0  0  0  0  0
   -6.1965    8.0361  -12.8035 C   0  0  0  0  0  0  0  0  0  0  0  0
   -5.1322    8.4693  -13.8060 C   0  0  0  0  0  0  0  0  0  0  0  0
   -6.7305    6.7476  -13.1791 N   0  0  0  0  0  0  0  0  0  0  0  0
   -6.1531    5.3091  -12.9687 C   0  0  0  0  0  0  0  0  0  0  0  0
   -5.1228    4.9610  -12.5287 O   0  0  0  0  0  0  0  0  0  0  0  0
   -7.2309    4.2595  -13.5389 C   0  0  1  0  0  0  0  0  0  0  0  0
   -6.8277    2.9127  -13.3605 O   0  0  0  0  0  0  0  0  0  0  0  0
   -8.5592    4.4057  -12.8897 N   0  0  0  0  0  0  0  0  0  0  0  0
   -8.5444    4.3036  -11.4678 C   0  0  0  0  0  0  0  0  0  0  0  0
   -8.3434    5.4467  -10.6697 C   0  0  0  0  0  0  0  0  0  0  0  0
   -8.3644    5.3795   -9.2725 C   0  0  0  0  0  0  0  0  0  0  0  0
   -8.6170    4.1577   -8.6841 C   0  0  0  0  0  0  0  0  0  0  0  0
   -8.7955    3.0150   -9.4552 C   0  0  0  0  0  0  0  0  0  0  0  0
   -8.7390    3.0632  -10.8392 C   0  0  0  0  0  0  0  0  0  0  0  0
   -9.0378    1.8552   -8.5450 C   0  0  0  0  0  0  0  0  0  0  0  0
   -9.3945    2.4654   -7.2331 N   0  0  0  0  0  0  0  0  0  0  0  0
   -8.7624    3.8018   -7.2425 C   0  0  0  0  0  0  0  0  0  0  0  0
   -7.3306    4.4716  -15.0784 C   0  0  0  0  0  0  0  0  0  0  0  0
   -8.5050    4.2638  -15.7889 C   0  0  0  0  0  0  0  0  0  0  0  0
   -8.4698    4.2729  -17.1866 C   0  0  0  0  0  0  0  0  0  0  0  0
   -9.9609    4.0577  -18.0121 Cl  0  0  0  0  0  0  0  0  0  0  0  0
   -7.2747    4.4560  -17.8751 C   0  0  0  0  0  0  0  0  0  0  0  0
   -7.1386    4.1999  -19.2778 C   0  0  0  0  0  0  0  0  0  0  0  0
   -6.8649    3.9218  -20.3720 N   0  0  0  0  0  0  0  0  0  0  0  0
   -6.1597    4.7866  -17.1180 C   0  0  0  0  0  0  0  0  0  0  0  0
   -4.8419    5.1440  -17.7853 C   0  0  0  0  0  0  0  0  0  0  0  0
   -4.9899    5.9435  -18.8809 F   0  0  0  0  0  0  0  0  0  0  0  0
   -4.1227    4.0673  -18.2012 F   0  0  0  0  0  0  0  0  0  0  0  0
   -4.0104    5.8415  -16.9568 F   0  0  0  0  0  0  0  0  0  0  0  0
   -6.1919    4.7944  -15.7479 N   0  0  0  0  0  0  0  0  0  0  0  0
  1  2  1  0
  2  3  1  0
  2  4  1  0
  4  5  1  0
  5  6  2  0
  5  7  1  0
  7  8  1  6
  7  9  1  0
  9 10  1  0
 10 11  2  0
 11 12  1  0
 12 13  2  0
 13 14  1  0
 14 15  2  0
 14 16  1  0
 16 17  1  0
 17 18  1  0
  7 19  1  0
 19 20  2  0
 20 21  1  0
 21 22  1  0
 21 23  2  0
 23 24  1  0
 24 25  3  0
 23 26  1  0
 26 27  1  0
 27 28  1  0
 27 29  1  0
 27 30  1  0
 26 31  2  0
 15 10  1  0
 31 19  1  0
 18 13  1  0
M  END
>  <smiles>  (2296) 
C34888-P265

>  <fragmenstein_outcome>  (2296) 
acceptable

>  <inchikey>  (2296) 
KRXBOASNTOACFK-UHFFFAOYSA-N

>  <fragmenstein_mode>  (2296) 
expansion

>  <HIPPO Pose ID>  (2296) 
27239

>  <Energy>  (2296) 
156.55974

>  <fragmenstein_error>  (2296) 


>  <tags>  (2296) 
{'openbind_xx01zvns2b_c1_fragmenstein', 'fragmenstein_placed'}

>  <ref_pdb>  (2296) 
175

>  <scratch_subdir>  (2296) 
/opt/xchem-fragalysis-2/maxwin/BulkDock/SCRATCH/511028/C34888-P265

>  <alias>  (2296) 
CC(C)NC(=O)[C@@](O)(Nc1ccc2c(c1)CNC2)c1cc(Cl)c(C#N)c(C(F)(F)F)n1

>  <HIPPO Compound ID>  (2296) 
34888

>  <fragmenstein_runtime>  (2296) 
13.805628

$$$$
CC(C)NC(=O)[C@@](O)(Nc1ccc2c(c1)CNC2)c1cc(Cl)c2c(n1)[C@H](F)OCC(=O)N2
     RDKit          3D

 32 35  0  0  0  0  0  0  0  0999 V2000
   -3.6627    2.2771  -13.4195 C   0  0  0  0  0  0  0  0  0  0  0  0
   -4.7376    2.4119  -12.3473 C   0  0  0  0  0  0  0  0  0  0  0  0
   -4.1792    3.0472  -11.0804 C   0  0  0  0  0  0  0  0  0  0  0  0
   -5.8593    3.1770  -12.8377 N   0  0  0  0  0  0  0  0  0  0  0  0
   -7.2388    2.7094  -13.3859 C   0  0  0  0  0  0  0  0  0  0  0  0
   -7.6448    1.6335  -13.5949 O   0  0  0  0  0  0  0  0  0  0  0  0
   -8.1369    4.0628  -13.6522 C   0  0  1  0  0  0  0  0  0  0  0  0
   -9.5351    4.0858  -13.5799 O   0  0  0  0  0  0  0  0  0  0  0  0
   -7.7326    5.0803  -12.6711 N   0  0  0  0  0  0  0  0  0  0  0  0
   -8.0479    4.8780  -11.3059 C   0  0  0  0  0  0  0  0  0  0  0  0
   -7.7808    5.9474  -10.4265 C   0  0  0  0  0  0  0  0  0  0  0  0
   -7.9412    5.8250   -9.0411 C   0  0  0  0  0  0  0  0  0  0  0  0
   -8.3536    4.6096   -8.5317 C   0  0  0  0  0  0  0  0  0  0  0  0
   -8.6233    3.5439   -9.3724 C   0  0  0  0  0  0  0  0  0  0  0  0
   -8.4758    3.6587  -10.7471 C   0  0  0  0  0  0  0  0  0  0  0  0
   -9.0807    2.3718   -8.5699 C   0  0  0  0  0  0  0  0  0  0  0  0
   -8.8862    2.7537   -7.1447 N   0  0  0  0  0  0  0  0  0  0  0  0
   -8.6059    4.2040   -7.1218 C   0  0  0  0  0  0  0  0  0  0  0  0
   -7.7905    4.4815  -15.1036 C   0  0  0  0  0  0  0  0  0  0  0  0
   -8.6681    4.2226  -16.1547 C   0  0  0  0  0  0  0  0  0  0  0  0
   -8.2680    4.4608  -17.4730 C   0  0  0  0  0  0  0  0  0  0  0  0
   -9.4403    4.1426  -18.7046 Cl  0  0  0  0  0  0  0  0  0  0  0  0
   -6.9831    4.9395  -17.7578 C   0  0  0  0  0  0  0  0  0  0  0  0
   -6.1995    5.2358  -16.6431 C   0  0  0  0  0  0  0  0  0  0  0  0
   -6.5793    5.0260  -15.3489 N   0  0  0  0  0  0  0  0  0  0  0  0
   -4.8686    5.8969  -16.7975 C   0  0  2  0  0  0  0  0  0  0  0  0
   -4.9275    7.0442  -17.5292 F   0  0  0  0  0  0  0  0  0  0  0  0
   -3.9859    4.9961  -17.4395 O   0  0  0  0  0  0  0  0  0  0  0  0
   -4.0356    5.2065  -18.8212 C   0  0  0  0  0  0  0  0  0  0  0  0
   -5.3351    5.5493  -19.5817 C   0  0  0  0  0  0  0  0  0  0  0  0
   -5.2375    6.1309  -20.6659 O   0  0  0  0  0  0  0  0  0  0  0  0
   -6.5658    5.1897  -19.0899 N   0  0  0  0  0  0  0  0  0  0  0  0
  1  2  1  0
  2  3  1  0
  2  4  1  0
  4  5  1  0
  5  6  2  0
  5  7  1  0
  7  8  1  6
  7  9  1  0
  9 10  1  0
 10 11  2  0
 11 12  1  0
 12 13  2  0
 13 14  1  0
 14 15  2  0
 14 16  1  0
 16 17  1  0
 17 18  1  0
  7 19  1  0
 19 20  2  0
 20 21  1  0
 21 22  1  0
 21 23  2  0
 23 24  1  0
 24 25  2  0
 24 26  1  0
 26 27  1  6
 26 28  1  0
 28 29  1  0
 29 30  1  0
 30 31  2  0
 30 32  1  0
 15 10  1  0
 25 19  1  0
 18 13  1  0
 32 23  1  0
M  END
>  <smiles>  (2297) 
C34890-P266

>  <fragmenstein_outcome>  (2297) 
acceptable

>  <inchikey>  (2297) 
VGAFFEGIJSBQEA-UHFFFAOYSA-N

>  <fragmenstein_mode>  (2297) 
expansion

>  <HIPPO Pose ID>  (2297) 
27240

>  <Energy>  (2297) 
179.841611

>  <fragmenstein_error>  (2297) 


>  <tags>  (2297) 
{'openbind_xx01zvns2b_c1_fragmenstein', 'fragmenstein_placed'}

>  <ref_pdb>  (2297) 
175

>  <scratch_subdir>  (2297) 
/opt/xchem-fragalysis-2/maxwin/BulkDock/SCRATCH/511028/C34890-P266

>  <alias>  (2297) 
CC(C)NC(=O)[C@@](O)(Nc1ccc2c(c1)CNC2)c1cc(Cl)c2c(n1)[C@H](F)OCC(=O)N2

>  <HIPPO Compound ID>  (2297) 
36212

>  <fragmenstein_runtime>  (2297) 
6.329703

$$$$
CC(C)NC(=O)[C@](O)(Nc1ccc2c(c1)CNC2)c1cc(Cl)cc2oc(OCF)c(N)c12
     RDKit          3D

 32 35  0  0  0  0  0  0  0  0999 V2000
   -2.8759    2.6537  -13.0585 C   0  0  0  0  0  0  0  0  0  0  0  0
   -4.2517    2.0660  -12.8171 C   0  0  0  0  0  0  0  0  0  0  0  0
   -4.4331    1.6521  -11.3614 C   0  0  0  0  0  0  0  0  0  0  0  0
   -5.2816    2.9890  -13.2117 N   0  0  0  0  0  0  0  0  0  0  0  0
   -6.8052    2.7688  -13.4288 C   0  0  0  0  0  0  0  0  0  0  0  0
   -7.4413    1.7875  -13.3948 O   0  0  0  0  0  0  0  0  0  0  0  0
   -7.4575    4.2418  -13.6642 C   0  0  2  0  0  0  0  0  0  0  0  0
   -6.6666    5.2998  -13.1278 O   0  0  0  0  0  0  0  0  0  0  0  0
   -8.7790    4.2930  -12.9946 N   0  0  0  0  0  0  0  0  0  0  0  0
   -8.7233    4.3141  -11.5742 C   0  0  0  0  0  0  0  0  0  0  0  0
   -8.4473    5.5198  -10.8911 C   0  0  0  0  0  0  0  0  0  0  0  0
   -8.3240    5.5599   -9.4995 C   0  0  0  0  0  0  0  0  0  0  0  0
   -8.5118    4.3845   -8.7971 C   0  0  0  0  0  0  0  0  0  0  0  0
   -8.8012    3.1974   -9.4540 C   0  0  0  0  0  0  0  0  0  0  0  0
   -8.8907    3.1388  -10.8349 C   0  0  0  0  0  0  0  0  0  0  0  0
   -9.0220    2.1089   -8.4617 C   0  0  0  0  0  0  0  0  0  0  0  0
   -8.8237    2.7233   -7.1201 N   0  0  0  0  0  0  0  0  0  0  0  0
   -8.5125    4.1514   -7.3273 C   0  0  0  0  0  0  0  0  0  0  0  0
   -7.5579    4.4868  -15.1761 C   0  0  0  0  0  0  0  0  0  0  0  0
   -8.7582    4.2366  -15.8921 C   0  0  0  0  0  0  0  0  0  0  0  0
   -8.8328    4.3004  -17.2881 C   0  0  0  0  0  0  0  0  0  0  0  0
  -10.3341    4.0085  -18.0760 Cl  0  0  0  0  0  0  0  0  0  0  0  0
   -7.7201    4.5984  -18.0632 C   0  0  0  0  0  0  0  0  0  0  0  0
   -6.5527    4.8703  -17.3653 C   0  0  0  0  0  0  0  0  0  0  0  0
   -5.3609    5.1692  -17.9540 O   0  0  0  0  0  0  0  0  0  0  0  0
   -4.4773    5.4003  -16.9553 C   0  0  0  0  0  0  0  0  0  0  0  0
   -3.2631    5.7225  -17.3702 O   0  0  0  0  0  0  0  0  0  0  0  0
   -2.7685    6.9374  -16.8374 C   0  0  0  0  0  0  0  0  0  0  0  0
   -2.3493    6.7195  -15.5603 F   0  0  0  0  0  0  0  0  0  0  0  0
   -5.0910    5.2704  -15.7318 C   0  0  0  0  0  0  0  0  0  0  0  0
   -4.5160    5.5155  -14.5278 N   0  0  0  0  0  0  0  0  0  0  0  0
   -6.4376    4.8654  -15.9746 C   0  0  0  0  0  0  0  0  0  0  0  0
  1  2  1  0
  2  3  1  0
  2  4  1  0
  4  5  1  0
  5  6  2  0
  5  7  1  0
  7  8  1  1
  7  9  1  0
  9 10  1  0
 10 11  2  0
 11 12  1  0
 12 13  2  0
 13 14  1  0
 14 15  2  0
 14 16  1  0
 16 17  1  0
 17 18  1  0
  7 19  1  0
 19 20  2  0
 20 21  1  0
 21 22  1  0
 21 23  2  0
 23 24  1  0
 24 25  1  0
 25 26  1  0
 26 27  1  0
 27 28  1  0
 28 29  1  0
 26 30  2  0
 30 31  1  0
 30 32  1  0
 15 10  1  0
 32 19  1  0
 18 13  1  0
 32 24  2  0
M  END
>  <smiles>  (2298) 
C34892-P266

>  <fragmenstein_outcome>  (2298) 
acceptable

>  <inchikey>  (2298) 
PYBJVMKMYIXNTP-UHFFFAOYSA-N

>  <fragmenstein_mode>  (2298) 
expansion

>  <HIPPO Pose ID>  (2298) 
27242

>  <Energy>  (2298) 
79.297611

>  <fragmenstein_error>  (2298) 


>  <tags>  (2298) 
{'openbind_xx01zvns2b_c1_fragmenstein', 'fragmenstein_placed'}

>  <ref_pdb>  (2298) 
175

>  <scratch_subdir>  (2298) 
/opt/xchem-fragalysis-2/maxwin/BulkDock/SCRATCH/511028/C34892-P266

>  <alias>  (2298) 
CC(C)NC(=O)[C@](O)(Nc1ccc2c(c1)CNC2)c1cc(Cl)cc2oc(OCF)c(N)c12

>  <HIPPO Compound ID>  (2298) 
34892

>  <fragmenstein_runtime>  (2298) 
4.821395

$$$$
CC(C)NC(=O)[C@](O)(N[C@H]1CC2=C(CNC2)C2(CCOCC2)C1)c1cc(Cl)cc2c1CC(F)(F)N2
     RDKit          3D

 35 39  0  0  0  0  0  0  0  0999 V2000
   -3.1418    2.0446  -13.3048 C   0  0  0  0  0  0  0  0  0  0  0  0
   -4.2829    2.3431  -12.3444 C   0  0  0  0  0  0  0  0  0  0  0  0
   -3.7776    2.9521  -11.0434 C   0  0  0  0  0  0  0  0  0  0  0  0
   -5.2369    3.2171  -12.9825 N   0  0  0  0  0  0  0  0  0  0  0  0
   -6.6366    2.9119  -13.5927 C   0  0  0  0  0  0  0  0  0  0  0  0
   -7.1931    1.8941  -13.7390 O   0  0  0  0  0  0  0  0  0  0  0  0
   -7.2420    4.3551  -13.9713 C   0  0  2  0  0  0  0  0  0  0  0  0
   -6.3213    5.4150  -13.7086 O   0  0  0  0  0  0  0  0  0  0  0  0
   -8.4369    4.6458  -13.1671 N   0  0  0  0  0  0  0  0  0  0  0  0
   -8.3957    4.5740  -11.6921 C   0  0  1  0  0  0  0  0  0  0  0  0
   -8.5124    3.1651  -11.0603 C   0  0  0  0  0  0  0  0  0  0  0  0
   -8.5779    3.2862   -9.5742 C   0  0  0  0  0  0  0  0  0  0  0  0
   -8.2108    4.3593   -8.8659 C   0  0  0  0  0  0  0  0  0  0  0  0
   -8.4700    4.1020   -7.4184 C   0  0  0  0  0  0  0  0  0  0  0  0
   -9.1844    2.8209   -7.3564 N   0  0  0  0  0  0  0  0  0  0  0  0
   -9.0378    2.1881   -8.6833 C   0  0  0  0  0  0  0  0  0  0  0  0
   -7.5693    5.6043   -9.4424 C   0  0  0  0  0  0  0  0  0  0  0  0
   -8.4928    6.8319   -9.2246 C   0  0  0  0  0  0  0  0  0  0  0  0
   -7.6900    8.1253   -9.1470 C   0  0  0  0  0  0  0  0  0  0  0  0
   -6.7665    8.1505   -8.0587 O   0  0  0  0  0  0  0  0  0  0  0  0
   -6.3146    6.8687   -7.6216 C   0  0  0  0  0  0  0  0  0  0  0  0
   -6.1933    5.8768   -8.7700 C   0  0  0  0  0  0  0  0  0  0  0  0
   -7.3036    5.3990  -10.9808 C   0  0  0  0  0  0  0  0  0  0  0  0
   -7.5587    4.4207  -15.4900 C   0  0  0  0  0  0  0  0  0  0  0  0
   -8.8572    4.1510  -15.9768 C   0  0  0  0  0  0  0  0  0  0  0  0
   -9.1706    4.2265  -17.3463 C   0  0  0  0  0  0  0  0  0  0  0  0
  -10.7716    3.9612  -17.9008 Cl  0  0  0  0  0  0  0  0  0  0  0  0
   -8.2101    4.5722  -18.2839 C   0  0  0  0  0  0  0  0  0  0  0  0
   -6.9351    4.8333  -17.8364 C   0  0  0  0  0  0  0  0  0  0  0  0
   -6.6091    4.7488  -16.4730 C   0  0  0  0  0  0  0  0  0  0  0  0
   -5.1489    5.0618  -16.3408 C   0  0  0  0  0  0  0  0  0  0  0  0
   -4.7170    5.1991  -17.8054 C   0  0  0  0  0  0  0  0  0  0  0  0
   -3.9842    4.1378  -18.2111 F   0  0  0  0  0  0  0  0  0  0  0  0
   -3.9347    6.2933  -17.9661 F   0  0  0  0  0  0  0  0  0  0  0  0
   -5.8894    5.3330  -18.6420 N   0  0  0  0  0  0  0  0  0  0  0  0
  1  2  1  0
  2  3  1  0
  2  4  1  0
  4  5  1  0
  5  6  2  0
  5  7  1  0
  7  8  1  6
  7  9  1  0
 10  9  1  6
 10 11  1  0
 11 12  1  0
 12 13  2  0
 13 14  1  0
 14 15  1  0
 15 16  1  0
 13 17  1  0
 17 18  1  0
 18 19  1  0
 19 20  1  0
 20 21  1  0
 21 22  1  0
 17 23  1  0
  7 24  1  0
 24 25  2  0
 25 26  1  0
 26 27  1  0
 26 28  2  0
 28 29  1  0
 29 30  2  0
 30 31  1  0
 31 32  1  0
 32 33  1  0
 32 34  1  0
 32 35  1  0
 23 10  1  0
 30 24  1  0
 16 12  1  0
 22 17  1  0
 35 29  1  0
M  END
>  <smiles>  (2299) 
C34918-P266

>  <fragmenstein_outcome>  (2299) 
acceptable

>  <inchikey>  (2299) 
DYWXSZCXHKPGDW-UHFFFAOYSA-N

>  <fragmenstein_mode>  (2299) 
expansion

>  <HIPPO Pose ID>  (2299) 
27248

>  <Energy>  (2299) 
79.938832

>  <fragmenstein_error>  (2299) 


>  <tags>  (2299) 
{'openbind_xx01zvns2b_c1_fragmenstein', 'fragmenstein_placed'}

>  <ref_pdb>  (2299) 
175

>  <scratch_subdir>  (2299) 
/opt/xchem-fragalysis-2/maxwin/BulkDock/SCRATCH/511028/C34918-P266

>  <alias>  (2299) 
CC(C)NC(=O)[C@](O)(N[C@H]1CC2=C(CNC2)C2(CCOCC2)C1)c1cc(Cl)cc2c1CC(F)(F)N2

>  <HIPPO Compound ID>  (2299) 
34918

>  <fragmenstein_runtime>  (2299) 
10.031555

$$$$
CC(C)NC(=O)[C@](O)(N[C@H]1C[C@H]2CN[C@@H]3CS[C@H](C1)[C@H]23)[C@H]1C[C@@H](Cl)C[C@]2(CCO[C@@H]2F)N1
     RDKit          3D

 32 36  0  0  0  0  0  0  0  0999 V2000
   -3.1964    1.9492  -13.0935 C   0  0  0  0  0  0  0  0  0  0  0  0
   -3.8948    2.6306  -11.9241 C   0  0  0  0  0  0  0  0  0  0  0  0
   -4.3169    1.6415  -10.8445 C   0  0  0  0  0  0  0  0  0  0  0  0
   -5.0216    3.3869  -12.4100 N   0  0  0  0  0  0  0  0  0  0  0  0
   -6.3699    2.9084  -13.0313 C   0  0  0  0  0  0  0  0  0  0  0  0
   -6.7998    1.8275  -13.1706 O   0  0  0  0  0  0  0  0  0  0  0  0
   -7.1037    4.2520  -13.5036 C   0  0  2  0  0  0  0  0  0  0  0  0
   -6.2915    5.4161  -13.3683 O   0  0  0  0  0  0  0  0  0  0  0  0
   -8.3482    4.4999  -12.7792 N   0  0  0  0  0  0  0  0  0  0  0  0
   -8.3478    4.5119  -11.3105 C   0  0  1  0  0  0  0  0  0  0  0  0
   -8.5125    3.1081  -10.6786 C   0  0  0  0  0  0  0  0  0  0  0  0
   -8.8231    3.3386   -9.2157 C   0  0  1  0  0  0  0  0  0  0  0  0
   -9.0822    2.2025   -8.2594 C   0  0  0  0  0  0  0  0  0  0  0  0
   -9.0537    2.9097   -6.9485 N   0  0  0  0  0  0  0  0  0  0  0  0
   -8.1321    4.0694   -7.0862 C   0  0  2  0  0  0  0  0  0  0  0  0
   -8.7729    5.4419   -6.8258 C   0  0  0  0  0  0  0  0  0  0  0  0
   -8.4316    6.5221   -8.2617 S   0  0  0  0  0  0  0  0  0  0  0  0
   -7.2947    5.3698   -9.0743 C   0  0  2  0  0  0  0  0  0  0  0  0
   -7.2821    5.3902  -10.6113 C   0  0  0  0  0  0  0  0  0  0  0  0
   -7.6595    4.0142   -8.5264 C   0  0  2  0  0  0  0  0  0  0  0  0
   -7.3598    4.0132  -15.0521 C   0  0  1  0  0  0  0  0  0  0  0  0
   -8.6081    4.6801  -15.6615 C   0  0  0  0  0  0  0  0  0  0  0  0
   -8.6610    4.2474  -17.1170 C   0  0  1  0  0  0  0  0  0  0  0  0
  -10.2194    4.5022  -17.9345 Cl  0  0  0  0  0  0  0  0  0  0  0  0
   -7.4750    4.7728  -17.9163 C   0  0  0  0  0  0  0  0  0  0  0  0
   -6.1999    5.0271  -17.0792 C   0  0  1  0  0  0  0  0  0  0  0  0
   -4.9547    4.8506  -17.9558 C   0  0  0  0  0  0  0  0  0  0  0  0
   -3.8793    5.6155  -17.2231 C   0  0  0  0  0  0  0  0  0  0  0  0
   -4.5354    6.7136  -16.5955 O   0  0  0  0  0  0  0  0  0  0  0  0
   -5.9467    6.5102  -16.7478 C   0  0  2  0  0  0  0  0  0  0  0  0
   -6.5061    6.8542  -15.5656 F   0  0  0  0  0  0  0  0  0  0  0  0
   -6.1001    4.2599  -15.8180 N   0  0  0  0  0  0  0  0  0  0  0  0
  1  2  1  0
  2  3  1  0
  2  4  1  0
  4  5  1  0
  5  6  2  0
  5  7  1  0
  7  8  1  6
  7  9  1  0
 10  9  1  6
 10 11  1  0
 12 11  1  6
 12 13  1  0
 13 14  1  0
 14 15  1  0
 15 16  1  6
 16 17  1  0
 17 18  1  0
 18 19  1  6
 20 18  1  6
  7 21  1  0
 21 22  1  6
 22 23  1  0
 23 24  1  6
 23 25  1  0
 26 25  1  6
 26 27  1  0
 27 28  1  0
 28 29  1  0
 29 30  1  0
 30 31  1  1
 26 32  1  0
 19 10  1  0
 32 21  1  0
 20 12  1  0
 30 26  1  0
 20 15  1  0
M  END
>  <smiles>  (2300) 
C34920-P266

>  <fragmenstein_outcome>  (2300) 
acceptable

>  <inchikey>  (2300) 
UBZCKVSLYLOHPL-UHFFFAOYSA-N

>  <fragmenstein_mode>  (2300) 
expansion

>  <HIPPO Pose ID>  (2300) 
27250

>  <Energy>  (2300) 
182.371006

>  <fragmenstein_error>  (2300) 


>  <tags>  (2300) 
{'openbind_xx01zvns2b_c1_fragmenstein', 'fragmenstein_placed'}

>  <ref_pdb>  (2300) 
175

>  <scratch_subdir>  (2300) 
/opt/xchem-fragalysis-2/maxwin/BulkDock/SCRATCH/511028/C34920-P266

>  <alias>  (2300) 
CC(C)NC(=O)[C@](O)(N[C@H]1C[C@H]2CN[C@@H]3CS[C@H](C1)[C@H]23)[C@H]1C[C@@H](Cl)C[C@]2(CCO[C@@H]2F)N1

>  <HIPPO Compound ID>  (2300) 
34920

>  <fragmenstein_runtime>  (2300) 
7.19446

$$$$
CC(C)NC(=O)[C@@](O)(Nc1cc2c(cc1C#N)CNC2)[C@@H]1C[C@@H](Cl)[C@H]2CNC(F)(F)CN21
     RDKit          3D

 32 35  0  0  0  0  0  0  0  0999 V2000
   -3.7036    2.4496  -13.4639 C   0  0  0  0  0  0  0  0  0  0  0  0
   -4.7348    2.3956  -12.3433 C   0  0  0  0  0  0  0  0  0  0  0  0
   -4.1141    2.7678  -11.0029 C   0  0  0  0  0  0  0  0  0  0  0  0
   -5.8730    3.2438  -12.6217 N   0  0  0  0  0  0  0  0  0  0  0  0
   -7.1751    2.9546  -13.4172 C   0  0  0  0  0  0  0  0  0  0  0  0
   -7.5605    1.9654  -13.9023 O   0  0  0  0  0  0  0  0  0  0  0  0
   -8.0734    4.2910  -13.4010 C   0  0  1  0  0  0  0  0  0  0  0  0
   -9.4407    4.0487  -13.1277 O   0  0  0  0  0  0  0  0  0  0  0  0
   -7.6141    5.1661  -12.2963 N   0  0  0  0  0  0  0  0  0  0  0  0
   -7.9895    4.8613  -10.9547 C   0  0  0  0  0  0  0  0  0  0  0  0
   -8.3372    3.5625  -10.5267 C   0  0  0  0  0  0  0  0  0  0  0  0
   -8.6291    3.3265   -9.1928 C   0  0  0  0  0  0  0  0  0  0  0  0
   -8.5445    4.3340   -8.2471 C   0  0  0  0  0  0  0  0  0  0  0  0
   -8.1571    5.6085   -8.6062 C   0  0  0  0  0  0  0  0  0  0  0  0
   -7.8748    5.8703   -9.9574 C   0  0  0  0  0  0  0  0  0  0  0  0
   -7.4632    7.2024  -10.2992 C   0  0  0  0  0  0  0  0  0  0  0  0
   -7.1409    8.2787  -10.5946 N   0  0  0  0  0  0  0  0  0  0  0  0
   -8.9009    3.7788   -6.9098 C   0  0  0  0  0  0  0  0  0  0  0  0
   -9.5031    2.4574   -7.1747 N   0  0  0  0  0  0  0  0  0  0  0  0
   -9.0309    2.0519   -8.5241 C   0  0  0  0  0  0  0  0  0  0  0  0
   -8.0839    5.1274  -14.7596 C   0  0  2  0  0  0  0  0  0  0  0  0
   -9.1709    4.6809  -15.7588 C   0  0  0  0  0  0  0  0  0  0  0  0
   -8.4616    4.1610  -16.9854 C   0  0  1  0  0  0  0  0  0  0  0  0
   -9.2945    4.5059  -18.4956 Cl  0  0  0  0  0  0  0  0  0  0  0  0
   -6.9948    4.5300  -16.7902 C   0  0  1  0  0  0  0  0  0  0  0  0
   -6.1358    5.0733  -17.9418 C   0  0  0  0  0  0  0  0  0  0  0  0
   -4.7144    5.1606  -17.5221 N   0  0  0  0  0  0  0  0  0  0  0  0
   -4.5625    5.8924  -16.2723 C   0  0  0  0  0  0  0  0  0  0  0  0
   -4.5898    7.2172  -16.5725 F   0  0  0  0  0  0  0  0  0  0  0  0
   -3.3169    5.6351  -15.7892 F   0  0  0  0  0  0  0  0  0  0  0  0
   -5.6045    5.5898  -15.1438 C   0  0  0  0  0  0  0  0  0  0  0  0
   -6.9732    5.4690  -15.6506 N   0  0  0  0  0  0  0  0  0  0  0  0
  1  2  1  0
  2  3  1  0
  2  4  1  0
  4  5  1  0
  5  6  2  0
  5  7  1  0
  7  8  1  1
  7  9  1  0
  9 10  1  0
 10 11  2  0
 11 12  1  0
 12 13  2  0
 13 14  1  0
 14 15  2  0
 15 16  1  0
 16 17  3  0
 13 18  1  0
 18 19  1  0
 19 20  1  0
  7 21  1  0
 21 22  1  6
 22 23  1  0
 23 24  1  6
 23 25  1  0
 25 26  1  6
 26 27  1  0
 27 28  1  0
 28 29  1  0
 28 30  1  0
 28 31  1  0
 31 32  1  0
 15 10  1  0
 32 21  1  0
 20 12  1  0
 32 25  1  0
M  END
>  <smiles>  (2301) 
C34912-P266

>  <fragmenstein_outcome>  (2301) 
acceptable

>  <inchikey>  (2301) 
AQKWDIQMZFUVIO-UHFFFAOYSA-N

>  <fragmenstein_mode>  (2301) 
expansion

>  <HIPPO Pose ID>  (2301) 
27251

>  <Energy>  (2301) 
249.50798

>  <fragmenstein_error>  (2301) 


>  <tags>  (2301) 
{'openbind_xx01zvns2b_c1_fragmenstein', 'fragmenstein_placed'}

>  <ref_pdb>  (2301) 
175

>  <scratch_subdir>  (2301) 
/opt/xchem-fragalysis-2/maxwin/BulkDock/SCRATCH/511028/C34912-P266

>  <alias>  (2301) 
CC(C)NC(=O)[C@@](O)(Nc1cc2c(cc1C#N)CNC2)[C@@H]1C[C@@H](Cl)[C@H]2CNC(F)(F)CN21

>  <HIPPO Compound ID>  (2301) 
34912

>  <fragmenstein_runtime>  (2301) 
6.01604

$$$$
CC(C)NC(=O)[C@](O)(Nc1cc2c(cc1C#N)CNC2)c1cc(Cl)cc2c1CC(F)(F)N2
     RDKit          3D

 32 35  0  0  0  0  0  0  0  0999 V2000
   -3.1179    1.9527  -13.3218 C   0  0  0  0  0  0  0  0  0  0  0  0
   -4.2334    2.2146  -12.3227 C   0  0  0  0  0  0  0  0  0  0  0  0
   -3.7011    2.8480  -11.0441 C   0  0  0  0  0  0  0  0  0  0  0  0
   -5.2312    3.0628  -12.9258 N   0  0  0  0  0  0  0  0  0  0  0  0
   -6.6653    2.7290  -13.4445 C   0  0  0  0  0  0  0  0  0  0  0  0
   -7.2205    1.7018  -13.5300 O   0  0  0  0  0  0  0  0  0  0  0  0
   -7.3453    4.1490  -13.7861 C   0  0  2  0  0  0  0  0  0  0  0  0
   -6.4851    5.2147  -13.3810 O   0  0  0  0  0  0  0  0  0  0  0  0
   -8.6275    4.2751  -13.0441 N   0  0  0  0  0  0  0  0  0  0  0  0
   -8.5912    4.3168  -11.6268 C   0  0  0  0  0  0  0  0  0  0  0  0
   -8.7187    3.1165  -10.9064 C   0  0  0  0  0  0  0  0  0  0  0  0
   -8.7250    3.1516   -9.5227 C   0  0  0  0  0  0  0  0  0  0  0  0
   -8.5473    4.3405   -8.8289 C   0  0  0  0  0  0  0  0  0  0  0  0
   -8.3746    5.5366   -9.4994 C   0  0  0  0  0  0  0  0  0  0  0  0
   -8.4272    5.5320  -10.9052 C   0  0  0  0  0  0  0  0  0  0  0  0
   -8.3884    6.8050  -11.5738 C   0  0  0  0  0  0  0  0  0  0  0  0
   -8.3418    7.8593  -12.0599 N   0  0  0  0  0  0  0  0  0  0  0  0
   -8.6249    4.0635   -7.3649 C   0  0  0  0  0  0  0  0  0  0  0  0
   -9.2057    2.7119   -7.2512 N   0  0  0  0  0  0  0  0  0  0  0  0
   -8.9310    2.0362   -8.5483 C   0  0  0  0  0  0  0  0  0  0  0  0
   -7.5671    4.3221  -15.2974 C   0  0  0  0  0  0  0  0  0  0  0  0
   -8.8279    4.1179  -15.9013 C   0  0  0  0  0  0  0  0  0  0  0  0
   -9.0364    4.2975  -17.2800 C   0  0  0  0  0  0  0  0  0  0  0  0
  -10.5835    4.0325  -17.9751 Cl  0  0  0  0  0  0  0  0  0  0  0  0
   -8.0192    4.7491  -18.1028 C   0  0  0  0  0  0  0  0  0  0  0  0
   -6.7905    4.9821  -17.5349 C   0  0  0  0  0  0  0  0  0  0  0  0
   -6.5503    4.7212  -16.1774 C   0  0  0  0  0  0  0  0  0  0  0  0
   -5.0950    4.9583  -15.9322 C   0  0  0  0  0  0  0  0  0  0  0  0
   -4.5971    5.2852  -17.3481 C   0  0  0  0  0  0  0  0  0  0  0  0
   -3.7288    6.3175  -17.2822 F   0  0  0  0  0  0  0  0  0  0  0  0
   -3.9417    4.2607  -17.9338 F   0  0  0  0  0  0  0  0  0  0  0  0
   -5.7124    5.6171  -18.2004 N   0  0  0  0  0  0  0  0  0  0  0  0
  1  2  1  0
  2  3  1  0
  2  4  1  0
  4  5  1  0
  5  6  2  0
  5  7  1  0
  7  8  1  1
  7  9  1  0
  9 10  1  0
 10 11  2  0
 11 12  1  0
 12 13  2  0
 13 14  1  0
 14 15  2  0
 15 16  1  0
 16 17  3  0
 13 18  1  0
 18 19  1  0
 19 20  1  0
  7 21  1  0
 21 22  2  0
 22 23  1  0
 23 24  1  0
 23 25  2  0
 25 26  1  0
 26 27  2  0
 27 28  1  0
 28 29  1  0
 29 30  1  0
 29 31  1  0
 29 32  1  0
 15 10  1  0
 27 21  1  0
 20 12  1  0
 32 26  1  0
M  END
>  <smiles>  (2302) 
C34922-P266

>  <fragmenstein_outcome>  (2302) 
acceptable

>  <inchikey>  (2302) 
DJHWYUCRVXPCDJ-UHFFFAOYSA-N

>  <fragmenstein_mode>  (2302) 
expansion

>  <HIPPO Pose ID>  (2302) 
27252

>  <Energy>  (2302) 
111.186177

>  <fragmenstein_error>  (2302) 


>  <tags>  (2302) 
{'openbind_xx01zvns2b_c1_fragmenstein', 'fragmenstein_placed'}

>  <ref_pdb>  (2302) 
175

>  <scratch_subdir>  (2302) 
/opt/xchem-fragalysis-2/maxwin/BulkDock/SCRATCH/511028/C34922-P266

>  <alias>  (2302) 
CC(C)NC(=O)[C@](O)(Nc1cc2c(cc1C#N)CNC2)c1cc(Cl)cc2c1CC(F)(F)N2

>  <HIPPO Compound ID>  (2302) 
34922

>  <fragmenstein_runtime>  (2302) 
4.657967

$$$$
CC(C)NC(=O)[C@](C=O)(Nc1ccc2c(c1)[C@H](N)NC2)c1cc(Cl)c2c(n1)C(F)(F)C=N2
     RDKit          3D

 32 35  0  0  0  0  0  0  0  0999 V2000
   -3.6008    1.9828  -12.3527 C   0  0  0  0  0  0  0  0  0  0  0  0
   -4.7886    2.2401  -11.4189 C   0  0  0  0  0  0  0  0  0  0  0  0
   -4.3358    2.6941  -10.0397 C   0  0  0  0  0  0  0  0  0  0  0  0
   -5.6590    3.2188  -12.0320 N   0  0  0  0  0  0  0  0  0  0  0  0
   -6.6804    3.0733  -13.1975 C   0  0  0  0  0  0  0  0  0  0  0  0
   -6.9163    2.1585  -13.8886 O   0  0  0  0  0  0  0  0  0  0  0  0
   -7.4149    4.4774  -13.4861 C   0  0  2  0  0  0  0  0  0  0  0  0
   -6.5533    5.7254  -13.1658 C   0  0  0  0  0  0  0  0  0  0  0  0
   -6.9480    6.8777  -12.9815 O   0  0  0  0  0  0  0  0  0  0  0  0
   -8.7460    4.4649  -12.7878 N   0  0  0  0  0  0  0  0  0  0  0  0
   -8.6575    4.4628  -11.3746 C   0  0  0  0  0  0  0  0  0  0  0  0
   -8.4422    5.6673  -10.6748 C   0  0  0  0  0  0  0  0  0  0  0  0
   -8.3338    5.7005   -9.2846 C   0  0  0  0  0  0  0  0  0  0  0  0
   -8.4728    4.5112   -8.6036 C   0  0  0  0  0  0  0  0  0  0  0  0
   -8.6794    3.3097   -9.2763 C   0  0  0  0  0  0  0  0  0  0  0  0
   -8.7589    3.2637  -10.6584 C   0  0  0  0  0  0  0  0  0  0  0  0
   -8.7343    2.2151   -8.2655 C   0  0  2  0  0  0  0  0  0  0  0  0
   -9.8610    1.3426   -8.3774 N   0  0  0  0  0  0  0  0  0  0  0  0
   -8.9610    2.8696   -6.9819 N   0  0  0  0  0  0  0  0  0  0  0  0
   -8.4628    4.2474   -7.1370 C   0  0  0  0  0  0  0  0  0  0  0  0
   -7.5917    4.5831  -15.0247 C   0  0  0  0  0  0  0  0  0  0  0  0
   -8.7709    4.2474  -15.7092 C   0  0  0  0  0  0  0  0  0  0  0  0
   -8.7808    4.2259  -17.1100 C   0  0  0  0  0  0  0  0  0  0  0  0
  -10.2251    3.8750  -17.9693 Cl  0  0  0  0  0  0  0  0  0  0  0  0
   -7.6185    4.5208  -17.7853 C   0  0  0  0  0  0  0  0  0  0  0  0
   -6.5504    4.9689  -17.0355 C   0  0  0  0  0  0  0  0  0  0  0  0
   -6.4788    4.9979  -15.6945 N   0  0  0  0  0  0  0  0  0  0  0  0
   -5.4667    5.3753  -17.9862 C   0  0  0  0  0  0  0  0  0  0  0  0
   -5.2574    6.7241  -18.0421 F   0  0  0  0  0  0  0  0  0  0  0  0
   -4.2606    4.8123  -17.7003 F   0  0  0  0  0  0  0  0  0  0  0  0
   -6.0955    4.8655  -19.2655 C   0  0  0  0  0  0  0  0  0  0  0  0
   -7.3073    4.4065  -19.1488 N   0  0  0  0  0  0  0  0  0  0  0  0
  1  2  1  0
  2  3  1  0
  2  4  1  0
  4  5  1  0
  5  6  2  0
  5  7  1  0
  7  8  1  0
  8  9  2  0
  7 10  1  1
 10 11  1  0
 11 12  2  0
 12 13  1  0
 13 14  2  0
 14 15  1  0
 15 16  2  0
 15 17  1  0
 17 18  1  6
 17 19  1  0
 19 20  1  0
  7 21  1  0
 21 22  2  0
 22 23  1  0
 23 24  1  0
 23 25  2  0
 25 26  1  0
 26 27  2  0
 26 28  1  0
 28 29  1  0
 28 30  1  0
 28 31  1  0
 31 32  2  0
 16 11  1  0
 27 21  1  0
 20 14  1  0
 32 25  1  0
M  END
>  <smiles>  (2303) 
C34928-P266

>  <fragmenstein_outcome>  (2303) 
acceptable

>  <inchikey>  (2303) 
QDZYQACWWXEXRA-UHFFFAOYSA-N

>  <fragmenstein_mode>  (2303) 
expansion

>  <HIPPO Pose ID>  (2303) 
27256

>  <Energy>  (2303) 
163.750243

>  <fragmenstein_error>  (2303) 


>  <tags>  (2303) 
{'openbind_xx01zvns2b_c1_fragmenstein', 'fragmenstein_placed'}

>  <ref_pdb>  (2303) 
175

>  <scratch_subdir>  (2303) 
/opt/xchem-fragalysis-2/maxwin/BulkDock/SCRATCH/511028/C34928-P266

>  <alias>  (2303) 
CC(C)NC(=O)[C@](C=O)(Nc1ccc2c(c1)[C@H](N)NC2)c1cc(Cl)c2c(n1)C(F)(F)C=N2

>  <HIPPO Compound ID>  (2303) 
34928

>  <fragmenstein_runtime>  (2303) 
7.408279

$$$$
C[C@@H](CF)NC(=O)[C@H](Nc1ccc2c(c1)CNC2)c1cc(Cl)cc2c(F)cccc12
     RDKit          3D

 30 33  0  0  0  0  0  0  0  0999 V2000
   -5.0368    1.4190  -10.7846 C   0  0  0  0  0  0  0  0  0  0  0  0
   -4.4505    2.5012  -11.6826 C   0  0  1  0  0  0  0  0  0  0  0  0
   -3.5374    1.9247  -12.7704 C   0  0  0  0  0  0  0  0  0  0  0  0
   -2.8773    2.9569  -13.3832 F   0  0  0  0  0  0  0  0  0  0  0  0
   -5.5103    3.2890  -12.2802 N   0  0  0  0  0  0  0  0  0  0  0  0
   -6.6418    2.8770  -13.2732 C   0  0  0  0  0  0  0  0  0  0  0  0
   -6.9334    1.8250  -13.6958 O   0  0  0  0  0  0  0  0  0  0  0  0
   -7.4060    4.2072  -13.6757 C   0  0  2  0  0  0  0  0  0  0  0  0
   -8.7404    4.2148  -13.0245 N   0  0  0  0  0  0  0  0  0  0  0  0
   -8.6306    4.2881  -11.6111 C   0  0  0  0  0  0  0  0  0  0  0  0
   -8.1942    5.4739  -10.9864 C   0  0  0  0  0  0  0  0  0  0  0  0
   -8.0683    5.5538   -9.5957 C   0  0  0  0  0  0  0  0  0  0  0  0
   -8.3848    4.4360   -8.8446 C   0  0  0  0  0  0  0  0  0  0  0  0
   -8.8104    3.2629   -9.4510 C   0  0  0  0  0  0  0  0  0  0  0  0
   -8.9307    3.1678  -10.8264 C   0  0  0  0  0  0  0  0  0  0  0  0
   -9.1450    2.2481   -8.4129 C   0  0  0  0  0  0  0  0  0  0  0  0
   -8.7627    2.8526   -7.1078 N   0  0  0  0  0  0  0  0  0  0  0  0
   -8.4131    4.2643   -7.3660 C   0  0  0  0  0  0  0  0  0  0  0  0
   -7.4827    4.3898  -15.2018 C   0  0  0  0  0  0  0  0  0  0  0  0
   -8.6982    4.1949  -15.8879 C   0  0  0  0  0  0  0  0  0  0  0  0
   -8.7725    4.3118  -17.2731 C   0  0  0  0  0  0  0  0  0  0  0  0
  -10.2690    4.0501  -18.0793 Cl  0  0  0  0  0  0  0  0  0  0  0  0
   -7.6482    4.6530  -18.0107 C   0  0  0  0  0  0  0  0  0  0  0  0
   -6.4232    4.8813  -17.3731 C   0  0  0  0  0  0  0  0  0  0  0  0
   -5.2894    5.2259  -18.1284 C   0  0  0  0  0  0  0  0  0  0  0  0
   -5.3658    5.3595  -19.4615 F   0  0  0  0  0  0  0  0  0  0  0  0
   -4.0523    5.4425  -17.5370 C   0  0  0  0  0  0  0  0  0  0  0  0
   -3.9256    5.3176  -16.1645 C   0  0  0  0  0  0  0  0  0  0  0  0
   -5.0407    4.9797  -15.3923 C   0  0  0  0  0  0  0  0  0  0  0  0
   -6.3191    4.7490  -15.9599 C   0  0  0  0  0  0  0  0  0  0  0  0
  2  1  1  6
  2  3  1  0
  3  4  1  0
  2  5  1  0
  5  6  1  0
  6  7  2  0
  6  8  1  0
  8  9  1  6
  9 10  1  0
 10 11  2  0
 11 12  1  0
 12 13  2  0
 13 14  1  0
 14 15  2  0
 14 16  1  0
 16 17  1  0
 17 18  1  0
  8 19  1  0
 19 20  2  0
 20 21  1  0
 21 22  1  0
 21 23  2  0
 23 24  1  0
 24 25  2  0
 25 26  1  0
 25 27  1  0
 27 28  2  0
 28 29  1  0
 29 30  2  0
 15 10  1  0
 30 19  1  0
 18 13  1  0
 30 24  1  0
M  END
>  <smiles>  (2304) 
C34931-P266

>  <fragmenstein_outcome>  (2304) 
acceptable

>  <inchikey>  (2304) 
IOBLEUHQWDOBIH-UHFFFAOYSA-N

>  <fragmenstein_mode>  (2304) 
expansion

>  <HIPPO Pose ID>  (2304) 
27257

>  <Energy>  (2304) 
123.846773

>  <fragmenstein_error>  (2304) 


>  <tags>  (2304) 
{'openbind_xx01zvns2b_c1_fragmenstein', 'fragmenstein_placed'}

>  <ref_pdb>  (2304) 
175

>  <scratch_subdir>  (2304) 
/opt/xchem-fragalysis-2/maxwin/BulkDock/SCRATCH/511028/C34931-P266

>  <alias>  (2304) 
C[C@@H](CF)NC(=O)[C@H](Nc1ccc2c(c1)CNC2)c1cc(Cl)cc2c(F)cccc12

>  <HIPPO Compound ID>  (2304) 
34931

>  <fragmenstein_runtime>  (2304) 
6.17224

$$$$
CC(C)NC(=O)[C@](O)(Nc1ccc2c(c1)CNC2)c1cc(Cl)cc2c3c(nn12)[C@H](CF)CC3
     RDKit          3D

 33 37  0  0  0  0  0  0  0  0999 V2000
   -3.4624    2.1514  -13.1159 C   0  0  0  0  0  0  0  0  0  0  0  0
   -4.3041    2.8338  -12.0416 C   0  0  0  0  0  0  0  0  0  0  0  0
   -4.8460    1.8327  -11.0274 C   0  0  0  0  0  0  0  0  0  0  0  0
   -5.3807    3.5793  -12.6483 N   0  0  0  0  0  0  0  0  0  0  0  0
   -6.5745    3.0982  -13.5287 C   0  0  0  0  0  0  0  0  0  0  0  0
   -6.9071    2.0166  -13.8297 O   0  0  0  0  0  0  0  0  0  0  0  0
   -7.3921    4.4350  -13.9419 C   0  0  2  0  0  0  0  0  0  0  0  0
   -6.6691    5.6351  -13.6504 O   0  0  0  0  0  0  0  0  0  0  0  0
   -8.6627    4.4394  -13.1725 N   0  0  0  0  0  0  0  0  0  0  0  0
   -8.5212    4.4456  -11.7591 C   0  0  0  0  0  0  0  0  0  0  0  0
   -8.1107    5.6064  -11.0779 C   0  0  0  0  0  0  0  0  0  0  0  0
   -8.0086    5.6347   -9.6818 C   0  0  0  0  0  0  0  0  0  0  0  0
   -8.3249    4.4883   -8.9753 C   0  0  0  0  0  0  0  0  0  0  0  0
   -8.7217    3.3336   -9.6313 C   0  0  0  0  0  0  0  0  0  0  0  0
   -8.8173    3.2913  -11.0146 C   0  0  0  0  0  0  0  0  0  0  0  0
   -9.0409    2.2718   -8.6349 C   0  0  0  0  0  0  0  0  0  0  0  0
   -8.7569    2.8561   -7.2948 N   0  0  0  0  0  0  0  0  0  0  0  0
   -8.3615    4.2637   -7.5046 C   0  0  0  0  0  0  0  0  0  0  0  0
   -7.6993    4.4264  -15.4383 C   0  0  0  0  0  0  0  0  0  0  0  0
   -8.9037    4.2053  -16.0165 C   0  0  0  0  0  0  0  0  0  0  0  0
   -9.0520    4.2482  -17.4618 C   0  0  0  0  0  0  0  0  0  0  0  0
  -10.6144    4.0052  -18.1275 Cl  0  0  0  0  0  0  0  0  0  0  0  0
   -8.0156    4.5244  -18.2689 C   0  0  0  0  0  0  0  0  0  0  0  0
   -6.7584    4.8257  -17.6942 C   0  0  0  0  0  0  0  0  0  0  0  0
   -5.5598    5.2599  -18.1691 C   0  0  0  0  0  0  0  0  0  0  0  0
   -4.7574    5.4076  -17.0495 C   0  0  0  0  0  0  0  0  0  0  0  0
   -5.3356    5.0748  -15.9053 N   0  0  0  0  0  0  0  0  0  0  0  0
   -6.6219    4.7290  -16.2943 N   0  0  0  0  0  0  0  0  0  0  0  0
   -3.4047    5.8975  -17.3683 C   0  0  2  0  0  0  0  0  0  0  0  0
   -2.9273    7.0475  -16.5005 C   0  0  0  0  0  0  0  0  0  0  0  0
   -3.7047    8.1482  -16.6963 F   0  0  0  0  0  0  0  0  0  0  0  0
   -3.5695    6.3072  -18.8833 C   0  0  0  0  0  0  0  0  0  0  0  0
   -4.8805    5.6314  -19.4176 C   0  0  0  0  0  0  0  0  0  0  0  0
  1  2  1  0
  2  3  1  0
  2  4  1  0
  4  5  1  0
  5  6  2  0
  5  7  1  0
  7  8  1  6
  7  9  1  0
  9 10  1  0
 10 11  2  0
 11 12  1  0
 12 13  2  0
 13 14  1  0
 14 15  2  0
 14 16  1  0
 16 17  1  0
 17 18  1  0
  7 19  1  0
 19 20  2  0
 20 21  1  0
 21 22  1  0
 21 23  2  0
 23 24  1  0
 24 25  2  0
 25 26  1  0
 26 27  2  0
 27 28  1  0
 26 29  1  0
 29 30  1  1
 30 31  1  0
 29 32  1  0
 32 33  1  0
 15 10  1  0
 28 19  1  0
 18 13  1  0
 28 24  1  0
 33 25  1  0
M  END
>  <smiles>  (2305) 
C34933-P266

>  <fragmenstein_outcome>  (2305) 
acceptable

>  <inchikey>  (2305) 
ZADUHCDQLVZDEH-UHFFFAOYSA-N

>  <fragmenstein_mode>  (2305) 
expansion

>  <HIPPO Pose ID>  (2305) 
27259

>  <Energy>  (2305) 
87.074264

>  <fragmenstein_error>  (2305) 


>  <tags>  (2305) 
{'openbind_xx01zvns2b_c1_fragmenstein', 'fragmenstein_placed'}

>  <ref_pdb>  (2305) 
175

>  <scratch_subdir>  (2305) 
/opt/xchem-fragalysis-2/maxwin/BulkDock/SCRATCH/511028/C34933-P266

>  <alias>  (2305) 
CC(C)NC(=O)[C@](O)(Nc1ccc2c(c1)CNC2)c1cc(Cl)cc2c3c(nn12)[C@H](CF)CC3

>  <HIPPO Compound ID>  (2305) 
25530

>  <fragmenstein_runtime>  (2305) 
10.999999

$$$$
CC(C)NC(=O)[C@](O)(Nc1ccc2c(c1)CN[C@@H]2C(=O)O)c1cc(Cl)cc2c(F)c(F)cn12
     RDKit          3D

 33 36  0  0  0  0  0  0  0  0999 V2000
   -3.3430    2.0205  -13.1794 C   0  0  0  0  0  0  0  0  0  0  0  0
   -4.3648    2.3017  -12.0831 C   0  0  0  0  0  0  0  0  0  0  0  0
   -3.7077    2.9005  -10.8476 C   0  0  0  0  0  0  0  0  0  0  0  0
   -5.3922    3.1812  -12.5896 N   0  0  0  0  0  0  0  0  0  0  0  0
   -6.7341    2.8568  -13.3218 C   0  0  0  0  0  0  0  0  0  0  0  0
   -7.2415    1.8273  -13.5536 O   0  0  0  0  0  0  0  0  0  0  0  0
   -7.3834    4.2966  -13.7084 C   0  0  2  0  0  0  0  0  0  0  0  0
   -6.5886    5.4235  -13.3793 O   0  0  0  0  0  0  0  0  0  0  0  0
   -8.6486    4.5508  -12.9906 N   0  0  0  0  0  0  0  0  0  0  0  0
   -8.6206    4.4729  -11.5797 C   0  0  0  0  0  0  0  0  0  0  0  0
   -8.3795    5.6333  -10.8067 C   0  0  0  0  0  0  0  0  0  0  0  0
   -8.2916    5.5831   -9.4114 C   0  0  0  0  0  0  0  0  0  0  0  0
   -8.4972    4.3673   -8.7869 C   0  0  0  0  0  0  0  0  0  0  0  0
   -8.7467    3.2185   -9.5367 C   0  0  0  0  0  0  0  0  0  0  0  0
   -8.7792    3.2476  -10.9249 C   0  0  0  0  0  0  0  0  0  0  0  0
   -8.9557    2.0601   -8.6132 C   0  0  0  0  0  0  0  0  0  0  0  0
   -9.1623    2.6659   -7.2721 N   0  0  0  0  0  0  0  0  0  0  0  0
   -8.4919    4.0007   -7.3310 C   0  0  2  0  0  0  0  0  0  0  0  0
   -9.1988    5.0002   -6.4170 C   0  0  0  0  0  0  0  0  0  0  0  0
  -10.3320    4.9328   -5.9616 O   0  0  0  0  0  0  0  0  0  0  0  0
   -8.4454    6.0896   -6.1295 O   0  0  0  0  0  0  0  0  0  0  0  0
   -7.5902    4.3612  -15.2214 C   0  0  0  0  0  0  0  0  0  0  0  0
   -8.7900    4.1922  -15.8300 C   0  0  0  0  0  0  0  0  0  0  0  0
   -8.9159    4.2899  -17.2757 C   0  0  0  0  0  0  0  0  0  0  0  0
  -10.4638    4.0583  -17.9901 Cl  0  0  0  0  0  0  0  0  0  0  0  0
   -7.8641    4.5916  -18.0535 C   0  0  0  0  0  0  0  0  0  0  0  0
   -6.5969    4.8055  -17.4555 C   0  0  0  0  0  0  0  0  0  0  0  0
   -5.3677    5.1573  -17.9530 C   0  0  0  0  0  0  0  0  0  0  0  0
   -5.0788    5.4268  -19.2286 F   0  0  0  0  0  0  0  0  0  0  0  0
   -4.4759    5.1804  -16.8906 C   0  0  0  0  0  0  0  0  0  0  0  0
   -3.1803    5.4825  -16.9337 F   0  0  0  0  0  0  0  0  0  0  0  0
   -5.1467    4.8350  -15.7502 C   0  0  0  0  0  0  0  0  0  0  0  0
   -6.4815    4.6443  -16.0657 N   0  0  0  0  0  0  0  0  0  0  0  0
  1  2  1  0
  2  3  1  0
  2  4  1  0
  4  5  1  0
  5  6  2  0
  5  7  1  0
  7  8  1  1
  7  9  1  0
  9 10  1  0
 10 11  2  0
 11 12  1  0
 12 13  2  0
 13 14  1  0
 14 15  2  0
 14 16  1  0
 16 17  1  0
 17 18  1  0
 18 19  1  1
 19 20  2  0
 19 21  1  0
  7 22  1  0
 22 23  2  0
 23 24  1  0
 24 25  1  0
 24 26  2  0
 26 27  1  0
 27 28  2  0
 28 29  1  0
 28 30  1  0
 30 31  1  0
 30 32  2  0
 32 33  1  0
 15 10  1  0
 33 22  1  0
 18 13  1  0
 33 27  1  0
M  END
>  <smiles>  (2306) 
C34941-P266

>  <fragmenstein_outcome>  (2306) 
acceptable

>  <inchikey>  (2306) 
BLRURUILWRCQEF-UHFFFAOYSA-N

>  <fragmenstein_mode>  (2306) 
expansion

>  <HIPPO Pose ID>  (2306) 
27260

>  <Energy>  (2306) 
114.974052

>  <fragmenstein_error>  (2306) 


>  <tags>  (2306) 
{'openbind_xx01zvns2b_c1_fragmenstein', 'fragmenstein_placed'}

>  <ref_pdb>  (2306) 
175

>  <scratch_subdir>  (2306) 
/opt/xchem-fragalysis-2/maxwin/BulkDock/SCRATCH/511028/C34941-P266

>  <alias>  (2306) 
CC(C)NC(=O)[C@](O)(Nc1ccc2c(c1)CN[C@@H]2C(=O)O)c1cc(Cl)cc2c(F)c(F)cn12

>  <HIPPO Compound ID>  (2306) 
34941

>  <fragmenstein_runtime>  (2306) 
5.927835

$$$$
CC[C@H]1NCc2cc(N[C@](O)(C(=O)NC(C)C)c3cc(Cl)cc4c(F)n(F)cc34)ccc21
     RDKit          3D

 32 35  0  0  0  0  0  0  0  0999 V2000
   -9.2055    4.6560   -4.6436 C   0  0  0  0  0  0  0  0  0  0  0  0
   -9.1264    5.1583   -6.0807 C   0  0  0  0  0  0  0  0  0  0  0  0
   -8.4295    4.1673   -7.0196 C   0  0  1  0  0  0  0  0  0  0  0  0
   -9.1717    2.8891   -7.1066 N   0  0  0  0  0  0  0  0  0  0  0  0
   -8.9853    2.3764   -8.4852 C   0  0  0  0  0  0  0  0  0  0  0  0
   -8.5538    3.5621   -9.2839 C   0  0  0  0  0  0  0  0  0  0  0  0
   -8.3823    3.6640  -10.6561 C   0  0  0  0  0  0  0  0  0  0  0  0
   -7.9427    4.8769  -11.2238 C   0  0  0  0  0  0  0  0  0  0  0  0
   -7.6185    5.0669  -12.6073 N   0  0  0  0  0  0  0  0  0  0  0  0
   -8.0545    4.0148  -13.5342 C   0  0  2  0  0  0  0  0  0  0  0  0
   -9.4398    3.9762  -13.3230 O   0  0  0  0  0  0  0  0  0  0  0  0
   -7.1484    2.6618  -13.2896 C   0  0  0  0  0  0  0  0  0  0  0  0
   -7.5196    1.5949  -13.5889 O   0  0  0  0  0  0  0  0  0  0  0  0
   -5.8100    3.1174  -12.6429 N   0  0  0  0  0  0  0  0  0  0  0  0
   -4.6966    2.3422  -12.1467 C   0  0  0  0  0  0  0  0  0  0  0  0
   -3.6463    2.1634  -13.2388 C   0  0  0  0  0  0  0  0  0  0  0  0
   -4.0997    2.9944  -10.9064 C   0  0  0  0  0  0  0  0  0  0  0  0
   -7.9019    4.3976  -15.0083 C   0  0  0  0  0  0  0  0  0  0  0  0
   -8.9892    4.1998  -15.9381 C   0  0  0  0  0  0  0  0  0  0  0  0
   -8.9475    4.3268  -17.3676 C   0  0  0  0  0  0  0  0  0  0  0  0
  -10.4027    4.0468  -18.2454 Cl  0  0  0  0  0  0  0  0  0  0  0  0
   -7.8003    4.6698  -18.0825 C   0  0  0  0  0  0  0  0  0  0  0  0
   -6.7597    4.8866  -17.2009 C   0  0  0  0  0  0  0  0  0  0  0  0
   -5.4882    5.1964  -17.5786 C   0  0  0  0  0  0  0  0  0  0  0  0
   -5.0610    5.3499  -18.8328 F   0  0  0  0  0  0  0  0  0  0  0  0
   -4.7597    5.2828  -16.4385 N   0  0  0  0  0  0  0  0  0  0  0  0
   -3.4218    5.5706  -16.3903 F   0  0  0  0  0  0  0  0  0  0  0  0
   -5.5154    5.0508  -15.3202 C   0  0  0  0  0  0  0  0  0  0  0  0
   -6.7867    4.7722  -15.7648 C   0  0  0  0  0  0  0  0  0  0  0  0
   -7.6893    5.9543  -10.3525 C   0  0  0  0  0  0  0  0  0  0  0  0
   -7.8519    5.8361   -8.9632 C   0  0  0  0  0  0  0  0  0  0  0  0
   -8.2759    4.6272   -8.4403 C   0  0  0  0  0  0  0  0  0  0  0  0
  1  2  1  0
  3  2  1  1
  3  4  1  0
  4  5  1  0
  5  6  1  0
  6  7  2  0
  7  8  1  0
  8  9  1  0
  9 10  1  0
 10 11  1  1
 10 12  1  0
 12 13  2  0
 12 14  1  0
 14 15  1  0
 15 16  1  0
 15 17  1  0
 10 18  1  0
 18 19  2  0
 19 20  1  0
 20 21  1  0
 20 22  2  0
 22 23  1  0
 23 24  2  0
 24 25  1  0
 24 26  1  0
 26 27  1  0
 26 28  1  0
 28 29  2  0
  8 30  2  0
 30 31  1  0
 31 32  2  0
 32  3  1  0
 32  6  1  0
 29 18  1  0
 29 23  1  0
M  END
>  <smiles>  (2307) 
C34958-P266

>  <fragmenstein_outcome>  (2307) 
acceptable

>  <inchikey>  (2307) 
GKJGOWOSKCBEAC-UHFFFAOYSA-N

>  <fragmenstein_mode>  (2307) 
expansion

>  <HIPPO Pose ID>  (2307) 
27263

>  <Energy>  (2307) 
98.375315

>  <fragmenstein_error>  (2307) 


>  <tags>  (2307) 
{'openbind_xx01zvns2b_c1_fragmenstein', 'fragmenstein_placed'}

>  <ref_pdb>  (2307) 
175

>  <scratch_subdir>  (2307) 
/opt/xchem-fragalysis-2/maxwin/BulkDock/SCRATCH/511028/C34958-P266

>  <alias>  (2307) 
CC[C@H]1NCc2cc(N[C@](O)(C(=O)NC(C)C)c3cc(Cl)cc4c(F)n(F)cc34)ccc21

>  <HIPPO Compound ID>  (2307) 
36796

>  <fragmenstein_runtime>  (2307) 
5.619683

$$$$
CC(C)NC(=O)[C@H](Nc1ccc2c(c1)CNC2)c1cc(Cl)cc2c1CC(F)(F)N2F
     RDKit          3D

 30 33  0  0  0  0  0  0  0  0999 V2000
   -3.3270    2.0627  -13.1700 C   0  0  0  0  0  0  0  0  0  0  0  0
   -4.3619    2.3445  -12.0858 C   0  0  0  0  0  0  0  0  0  0  0  0
   -3.7303    3.0006  -10.8664 C   0  0  0  0  0  0  0  0  0  0  0  0
   -5.4194    3.1716  -12.6210 N   0  0  0  0  0  0  0  0  0  0  0  0
   -6.6978    2.7847  -13.4248 C   0  0  0  0  0  0  0  0  0  0  0  0
   -7.1257    1.7330  -13.7073 O   0  0  0  0  0  0  0  0  0  0  0  0
   -7.4355    4.1333  -13.8115 C   0  0  2  0  0  0  0  0  0  0  0  0
   -8.7425    4.1916  -13.1112 N   0  0  0  0  0  0  0  0  0  0  0  0
   -8.5948    4.2727  -11.7015 C   0  0  0  0  0  0  0  0  0  0  0  0
   -8.1253    5.4537  -11.0944 C   0  0  0  0  0  0  0  0  0  0  0  0
   -7.9932    5.5486   -9.7040 C   0  0  0  0  0  0  0  0  0  0  0  0
   -8.3327    4.4492   -8.9353 C   0  0  0  0  0  0  0  0  0  0  0  0
   -8.7848    3.2779   -9.5243 C   0  0  0  0  0  0  0  0  0  0  0  0
   -8.9136    3.1694  -10.8987 C   0  0  0  0  0  0  0  0  0  0  0  0
   -9.1351    2.2831   -8.4715 C   0  0  0  0  0  0  0  0  0  0  0  0
   -8.7397    2.8981   -7.1746 N   0  0  0  0  0  0  0  0  0  0  0  0
   -8.3575    4.2975   -7.4543 C   0  0  0  0  0  0  0  0  0  0  0  0
   -7.5941    4.3077  -15.3269 C   0  0  0  0  0  0  0  0  0  0  0  0
   -8.8157    4.1079  -15.9949 C   0  0  0  0  0  0  0  0  0  0  0  0
   -8.9329    4.2591  -17.3878 C   0  0  0  0  0  0  0  0  0  0  0  0
  -10.4563    4.0235  -18.1431 Cl  0  0  0  0  0  0  0  0  0  0  0  0
   -7.8500    4.6553  -18.1619 C   0  0  0  0  0  0  0  0  0  0  0  0
   -6.6557    4.9104  -17.5228 C   0  0  0  0  0  0  0  0  0  0  0  0
   -6.5238    4.7017  -16.1389 C   0  0  0  0  0  0  0  0  0  0  0  0
   -5.1070    4.9857  -15.7664 C   0  0  0  0  0  0  0  0  0  0  0  0
   -4.4580    5.1835  -17.1446 C   0  0  0  0  0  0  0  0  0  0  0  0
   -3.5960    6.2281  -17.0673 F   0  0  0  0  0  0  0  0  0  0  0  0
   -3.7192    4.0976  -17.4824 F   0  0  0  0  0  0  0  0  0  0  0  0
   -5.4966    5.4659  -18.1270 N   0  0  0  0  0  0  0  0  0  0  0  0
   -5.2742    4.6414  -19.2853 F   0  0  0  0  0  0  0  0  0  0  0  0
  1  2  1  0
  2  3  1  0
  2  4  1  0
  4  5  1  0
  5  6  2  0
  5  7  1  0
  7  8  1  1
  8  9  1  0
  9 10  2  0
 10 11  1  0
 11 12  2  0
 12 13  1  0
 13 14  2  0
 13 15  1  0
 15 16  1  0
 16 17  1  0
  7 18  1  0
 18 19  2  0
 19 20  1  0
 20 21  1  0
 20 22  2  0
 22 23  1  0
 23 24  2  0
 24 25  1  0
 25 26  1  0
 26 27  1  0
 26 28  1  0
 26 29  1  0
 29 30  1  0
 14  9  1  0
 24 18  1  0
 17 12  1  0
 29 23  1  0
M  END
>  <smiles>  (2308) 
C34970-P266

>  <fragmenstein_outcome>  (2308) 
acceptable

>  <inchikey>  (2308) 
FPDNXSFAHLUYSR-UHFFFAOYSA-N

>  <fragmenstein_mode>  (2308) 
expansion

>  <HIPPO Pose ID>  (2308) 
27270

>  <Energy>  (2308) 
119.268848

>  <fragmenstein_error>  (2308) 


>  <tags>  (2308) 
{'openbind_xx01zvns2b_c1_fragmenstein', 'fragmenstein_placed'}

>  <ref_pdb>  (2308) 
175

>  <scratch_subdir>  (2308) 
/opt/xchem-fragalysis-2/maxwin/BulkDock/SCRATCH/511028/C34970-P266

>  <alias>  (2308) 
CC(C)NC(=O)[C@H](Nc1ccc2c(c1)CNC2)c1cc(Cl)cc2c1CC(F)(F)N2F

>  <HIPPO Compound ID>  (2308) 
34970

>  <fragmenstein_runtime>  (2308) 
7.091976

$$$$
C[C@H](CF)NC(=O)[C@@H](Nc1ccc2c(c1)CNC2)c1cc(Cl)cc(C(F)(F)F)n1
     RDKit          3D

 29 31  0  0  0  0  0  0  0  0999 V2000
   -3.7269    3.7018  -11.1236 C   0  0  0  0  0  0  0  0  0  0  0  0
   -4.3881    2.7034  -12.0636 C   0  0  2  0  0  0  0  0  0  0  0  0
   -3.4050    2.1607  -13.1011 C   0  0  0  0  0  0  0  0  0  0  0  0
   -2.7902    3.1955  -13.7414 F   0  0  0  0  0  0  0  0  0  0  0  0
   -5.5603    3.2788  -12.6855 N   0  0  0  0  0  0  0  0  0  0  0  0
   -6.7476    2.6014  -13.4124 C   0  0  0  0  0  0  0  0  0  0  0  0
   -6.9253    1.4807  -13.6894 O   0  0  0  0  0  0  0  0  0  0  0  0
   -7.8132    3.7054  -13.7240 C   0  0  1  0  0  0  0  0  0  0  0  0
   -7.7375    4.8451  -12.7851 N   0  0  0  0  0  0  0  0  0  0  0  0
   -8.1213    4.6722  -11.4427 C   0  0  0  0  0  0  0  0  0  0  0  0
   -8.0077    5.7919  -10.5910 C   0  0  0  0  0  0  0  0  0  0  0  0
   -8.2064    5.6964   -9.2072 C   0  0  0  0  0  0  0  0  0  0  0  0
   -8.5259    4.4632   -8.6744 C   0  0  0  0  0  0  0  0  0  0  0  0
   -8.6487    3.3487   -9.4898 C   0  0  0  0  0  0  0  0  0  0  0  0
   -8.4413    3.4323  -10.8597 C   0  0  0  0  0  0  0  0  0  0  0  0
   -8.9618    2.1519   -8.6498 C   0  0  0  0  0  0  0  0  0  0  0  0
   -9.3277    2.6974   -7.3149 N   0  0  0  0  0  0  0  0  0  0  0  0
   -8.7501    4.0554   -7.2573 C   0  0  0  0  0  0  0  0  0  0  0  0
   -7.7823    4.1542  -15.1947 C   0  0  0  0  0  0  0  0  0  0  0  0
   -8.9564    4.0364  -15.9325 C   0  0  0  0  0  0  0  0  0  0  0  0
   -8.9385    4.2854  -17.2943 C   0  0  0  0  0  0  0  0  0  0  0  0
  -10.3747    4.0940  -18.2120 Cl  0  0  0  0  0  0  0  0  0  0  0  0
   -7.7755    4.6979  -17.9119 C   0  0  0  0  0  0  0  0  0  0  0  0
   -6.6454    4.8869  -17.1251 C   0  0  0  0  0  0  0  0  0  0  0  0
   -5.4105    5.4665  -17.8073 C   0  0  0  0  0  0  0  0  0  0  0  0
   -4.2263    5.0187  -17.3022 F   0  0  0  0  0  0  0  0  0  0  0  0
   -5.3516    5.2196  -19.1483 F   0  0  0  0  0  0  0  0  0  0  0  0
   -5.3646    6.8312  -17.6938 F   0  0  0  0  0  0  0  0  0  0  0  0
   -6.6446    4.6420  -15.7670 N   0  0  0  0  0  0  0  0  0  0  0  0
  2  1  1  6
  2  3  1  0
  3  4  1  0
  2  5  1  0
  5  6  1  0
  6  7  2  0
  6  8  1  0
  8  9  1  1
  9 10  1  0
 10 11  2  0
 11 12  1  0
 12 13  2  0
 13 14  1  0
 14 15  2  0
 14 16  1  0
 16 17  1  0
 17 18  1  0
  8 19  1  0
 19 20  2  0
 20 21  1  0
 21 22  1  0
 21 23  2  0
 23 24  1  0
 24 25  1  0
 25 26  1  0
 25 27  1  0
 25 28  1  0
 24 29  2  0
 15 10  1  0
 29 19  1  0
 18 13  1  0
M  END
>  <smiles>  (2309) 
C34972-P266

>  <fragmenstein_outcome>  (2309) 
acceptable

>  <inchikey>  (2309) 
AOMLEQOQLGFLPB-UHFFFAOYSA-N

>  <fragmenstein_mode>  (2309) 
expansion

>  <HIPPO Pose ID>  (2309) 
27271

>  <Energy>  (2309) 
165.144503

>  <fragmenstein_error>  (2309) 


>  <tags>  (2309) 
{'openbind_xx01zvns2b_c1_fragmenstein', 'fragmenstein_placed'}

>  <ref_pdb>  (2309) 
175

>  <scratch_subdir>  (2309) 
/opt/xchem-fragalysis-2/maxwin/BulkDock/SCRATCH/511028/C34972-P266

>  <alias>  (2309) 
C[C@H](CF)NC(=O)[C@@H](Nc1ccc2c(c1)CNC2)c1cc(Cl)cc(C(F)(F)F)n1

>  <HIPPO Compound ID>  (2309) 
36153

>  <fragmenstein_runtime>  (2309) 
10.302769

$$$$
CC(C)NC(=O)[C@@](O)(Nc1ccc2c(c1)CNC2)c1cc(Cl)c2[nH]cc([C@]3(F)CCNC[C@@H]3F)c2n1
     RDKit          3D

 36 40  0  0  0  0  0  0  0  0999 V2000
   -2.9351    3.0082  -12.9620 C   0  0  0  0  0  0  0  0  0  0  0  0
   -3.8255    3.9108  -12.1048 C   0  0  0  0  0  0  0  0  0  0  0  0
   -3.8961    3.3968  -10.6718 C   0  0  0  0  0  0  0  0  0  0  0  0
   -5.1485    3.9919  -12.6706 N   0  0  0  0  0  0  0  0  0  0  0  0
   -6.0532    2.8858  -13.2864 C   0  0  0  0  0  0  0  0  0  0  0  0
   -5.8314    1.7548  -13.4985 O   0  0  0  0  0  0  0  0  0  0  0  0
   -7.4650    3.5205  -13.6717 C   0  0  1  0  0  0  0  0  0  0  0  0
   -8.3333    2.4183  -13.6021 O   0  0  0  0  0  0  0  0  0  0  0  0
   -7.9571    4.5869  -12.7866 N   0  0  0  0  0  0  0  0  0  0  0  0
   -8.0850    4.4560  -11.4052 C   0  0  0  0  0  0  0  0  0  0  0  0
   -8.0324    5.6344  -10.6257 C   0  0  0  0  0  0  0  0  0  0  0  0
   -8.1851    5.6143   -9.2347 C   0  0  0  0  0  0  0  0  0  0  0  0
   -8.4458    4.4039   -8.6265 C   0  0  0  0  0  0  0  0  0  0  0  0
   -8.5615    3.2469   -9.3780 C   0  0  0  0  0  0  0  0  0  0  0  0
   -8.3693    3.2513  -10.7519 C   0  0  0  0  0  0  0  0  0  0  0  0
   -8.9452    2.1077   -8.4960 C   0  0  0  0  0  0  0  0  0  0  0  0
   -8.8906    2.6311   -7.1022 N   0  0  0  0  0  0  0  0  0  0  0  0
   -8.6876    4.0909   -7.1919 C   0  0  0  0  0  0  0  0  0  0  0  0
   -7.4706    4.0619  -15.1186 C   0  0  0  0  0  0  0  0  0  0  0  0
   -8.6555    4.0109  -15.8645 C   0  0  0  0  0  0  0  0  0  0  0  0
   -8.6425    4.3084  -17.2182 C   0  0  0  0  0  0  0  0  0  0  0  0
  -10.0521    4.1297  -18.1770 Cl  0  0  0  0  0  0  0  0  0  0  0  0
   -7.4236    4.7032  -17.7473 C   0  0  0  0  0  0  0  0  0  0  0  0
   -7.0228    4.9992  -19.0198 N   0  0  0  0  0  0  0  0  0  0  0  0
   -5.6979    5.3566  -19.0291 C   0  0  0  0  0  0  0  0  0  0  0  0
   -5.2132    5.2830  -17.7369 C   0  0  0  0  0  0  0  0  0  0  0  0
   -3.8259    5.5469  -17.2120 C   0  0  2  0  0  0  0  0  0  0  0  0
   -3.3308    4.3596  -16.7248 F   0  0  0  0  0  0  0  0  0  0  0  0
   -3.8691    6.5221  -16.0125 C   0  0  0  0  0  0  0  0  0  0  0  0
   -2.8167    7.6244  -16.0991 C   0  0  0  0  0  0  0  0  0  0  0  0
   -2.9443    8.3733  -17.3485 N   0  0  0  0  0  0  0  0  0  0  0  0
   -2.9343    7.5141  -18.5405 C   0  0  0  0  0  0  0  0  0  0  0  0
   -2.7952    6.0208  -18.2517 C   0  0  2  0  0  0  0  0  0  0  0  0
   -2.8516    5.3176  -19.4161 F   0  0  0  0  0  0  0  0  0  0  0  0
   -6.3096    4.8482  -16.9343 C   0  0  0  0  0  0  0  0  0  0  0  0
   -6.3253    4.6005  -15.6019 N   0  0  0  0  0  0  0  0  0  0  0  0
  1  2  1  0
  2  3  1  0
  2  4  1  0
  4  5  1  0
  5  6  2  0
  5  7  1  0
  7  8  1  6
  7  9  1  0
  9 10  1  0
 10 11  2  0
 11 12  1  0
 12 13  2  0
 13 14  1  0
 14 15  2  0
 14 16  1  0
 16 17  1  0
 17 18  1  0
  7 19  1  0
 19 20  2  0
 20 21  1  0
 21 22  1  0
 21 23  2  0
 23 24  1  0
 24 25  1  0
 25 26  2  0
 26 27  1  0
 27 28  1  1
 27 29  1  0
 29 30  1  0
 30 31  1  0
 31 32  1  0
 32 33  1  0
 33 34  1  6
 26 35  1  0
 35 36  2  0
 15 10  1  0
 36 19  1  0
 18 13  1  0
 35 23  1  0
 33 27  1  0
M  END
>  <smiles>  (2310) 
C34974-P266

>  <fragmenstein_outcome>  (2310) 
acceptable

>  <inchikey>  (2310) 
LYUWDFMRDRXIDW-UHFFFAOYSA-N

>  <fragmenstein_mode>  (2310) 
expansion

>  <HIPPO Pose ID>  (2310) 
27274

>  <Energy>  (2310) 
153.42324

>  <fragmenstein_error>  (2310) 


>  <tags>  (2310) 
{'openbind_xx01zvns2b_c1_fragmenstein', 'fragmenstein_placed'}

>  <ref_pdb>  (2310) 
175

>  <scratch_subdir>  (2310) 
/opt/xchem-fragalysis-2/maxwin/BulkDock/SCRATCH/511028/C34974-P266

>  <alias>  (2310) 
CC(C)NC(=O)[C@@](O)(Nc1ccc2c(c1)CNC2)c1cc(Cl)c2[nH]cc([C@]3(F)CCNC[C@@H]3F)c2n1

>  <HIPPO Compound ID>  (2310) 
34974

>  <fragmenstein_runtime>  (2310) 
6.987987

$$$$
CC(C)NC(=O)[C@](O)(Nc1ccc2c(c1)CNC2)c1cc(Cl)cc2c([C@@H]3CCN(C)C[C@@H]3OCF)nnn12
     RDKit          3D

 38 42  0  0  0  0  0  0  0  0999 V2000
   -3.3050    2.0849  -13.0100 C   0  0  0  0  0  0  0  0  0  0  0  0
   -4.3132    2.5271  -11.9516 C   0  0  0  0  0  0  0  0  0  0  0  0
   -3.6337    3.2775  -10.8152 C   0  0  0  0  0  0  0  0  0  0  0  0
   -5.3336    3.3381  -12.5726 N   0  0  0  0  0  0  0  0  0  0  0  0
   -6.5819    2.9279  -13.4028 C   0  0  0  0  0  0  0  0  0  0  0  0
   -6.9316    1.8758  -13.7754 O   0  0  0  0  0  0  0  0  0  0  0  0
   -7.3689    4.2981  -13.7532 C   0  0  2  0  0  0  0  0  0  0  0  0
   -6.6674    5.4875  -13.3857 O   0  0  0  0  0  0  0  0  0  0  0  0
   -8.6617    4.2719  -13.0277 N   0  0  0  0  0  0  0  0  0  0  0  0
   -8.5605    4.2905  -11.6137 C   0  0  0  0  0  0  0  0  0  0  0  0
   -8.2269    5.4747  -10.9268 C   0  0  0  0  0  0  0  0  0  0  0  0
   -8.1699    5.5162   -9.5290 C   0  0  0  0  0  0  0  0  0  0  0  0
   -8.4596    4.3594   -8.8306 C   0  0  0  0  0  0  0  0  0  0  0  0
   -8.7598    3.1768   -9.4959 C   0  0  0  0  0  0  0  0  0  0  0  0
   -8.8054    3.1221  -10.8781 C   0  0  0  0  0  0  0  0  0  0  0  0
   -8.9998    2.0947   -8.4952 C   0  0  0  0  0  0  0  0  0  0  0  0
   -9.1963    2.8071   -7.2022 N   0  0  0  0  0  0  0  0  0  0  0  0
   -8.5266    4.1160   -7.3611 C   0  0  0  0  0  0  0  0  0  0  0  0
   -7.6355    4.3612  -15.2561 C   0  0  0  0  0  0  0  0  0  0  0  0
   -8.8328    4.1741  -15.8650 C   0  0  0  0  0  0  0  0  0  0  0  0
   -8.9589    4.2997  -17.3078 C   0  0  0  0  0  0  0  0  0  0  0  0
  -10.4889    4.0147  -18.0353 Cl  0  0  0  0  0  0  0  0  0  0  0  0
   -7.9249    4.6964  -18.0662 C   0  0  0  0  0  0  0  0  0  0  0  0
   -6.6937    5.0035  -17.4395 C   0  0  0  0  0  0  0  0  0  0  0  0
   -5.5387    5.6574  -17.8037 C   0  0  0  0  0  0  0  0  0  0  0  0
   -5.2637    6.3994  -19.0793 C   0  0  2  0  0  0  0  0  0  0  0  0
   -4.7221    5.4765  -20.1676 C   0  0  0  0  0  0  0  0  0  0  0  0
   -3.2445    5.1397  -19.9616 C   0  0  0  0  0  0  0  0  0  0  0  0
   -2.4283    6.3600  -19.9265 N   0  0  0  0  0  0  0  0  0  0  0  0
   -1.0118    6.0237  -19.7788 C   0  0  0  0  0  0  0  0  0  0  0  0
   -2.8667    7.2326  -18.8279 C   0  0  0  0  0  0  0  0  0  0  0  0
   -4.3491    7.6331  -18.9599 C   0  0  2  0  0  0  0  0  0  0  0  0
   -4.7328    8.4675  -17.8594 O   0  0  0  0  0  0  0  0  0  0  0  0
   -5.2106    9.7353  -18.2633 C   0  0  0  0  0  0  0  0  0  0  0  0
   -6.3935    9.5503  -18.9103 F   0  0  0  0  0  0  0  0  0  0  0  0
   -4.6535    5.5824  -16.7639 N   0  0  0  0  0  0  0  0  0  0  0  0
   -5.2604    5.0043  -15.7327 N   0  0  0  0  0  0  0  0  0  0  0  0
   -6.5520    4.7266  -16.0804 N   0  0  0  0  0  0  0  0  0  0  0  0
  1  2  1  0
  2  3  1  0
  2  4  1  0
  4  5  1  0
  5  6  2  0
  5  7  1  0
  7  8  1  1
  7  9  1  0
  9 10  1  0
 10 11  2  0
 11 12  1  0
 12 13  2  0
 13 14  1  0
 14 15  2  0
 14 16  1  0
 16 17  1  0
 17 18  1  0
  7 19  1  0
 19 20  2  0
 20 21  1  0
 21 22  1  0
 21 23  2  0
 23 24  1  0
 24 25  2  0
 26 25  1  1
 26 27  1  0
 27 28  1  0
 28 29  1  0
 29 30  1  0
 29 31  1  0
 31 32  1  0
 32 33  1  1
 33 34  1  0
 34 35  1  0
 25 36  1  0
 36 37  2  0
 37 38  1  0
 15 10  1  0
 38 19  1  0
 18 13  1  0
 38 24  1  0
 32 26  1  0
M  END
>  <smiles>  (2311) 
C34982-P266

>  <fragmenstein_outcome>  (2311) 
acceptable

>  <inchikey>  (2311) 
SMLXBEFCYOZRAZ-UHFFFAOYSA-N

>  <fragmenstein_mode>  (2311) 
expansion

>  <HIPPO Pose ID>  (2311) 
27275

>  <Energy>  (2311) 
87.30596

>  <fragmenstein_error>  (2311) 


>  <tags>  (2311) 
{'openbind_xx01zvns2b_c1_fragmenstein', 'fragmenstein_placed'}

>  <ref_pdb>  (2311) 
175

>  <scratch_subdir>  (2311) 
/opt/xchem-fragalysis-2/maxwin/BulkDock/SCRATCH/511028/C34982-P266

>  <alias>  (2311) 
CC(C)NC(=O)[C@](O)(Nc1ccc2c(c1)CNC2)c1cc(Cl)cc2c([C@@H]3CCN(C)C[C@@H]3OCF)nnn12

>  <HIPPO Compound ID>  (2311) 
34982

>  <fragmenstein_runtime>  (2311) 
6.857321

$$$$
CC(C)NC(=O)[C@](O)(Nc1ccc2c(c1)CNC2)[C@H]1C[C@H](Cl)C[C@H]2N(C3CNC3)N[C@H](F)N21
     RDKit          3D

 33 37  0  0  0  0  0  0  0  0999 V2000
   -3.3652    2.1127  -12.9306 C   0  0  0  0  0  0  0  0  0  0  0  0
   -4.4284    2.5654  -11.9317 C   0  0  0  0  0  0  0  0  0  0  0  0
   -3.8174    3.3398  -10.7735 C   0  0  0  0  0  0  0  0  0  0  0  0
   -5.4190    3.3591  -12.6170 N   0  0  0  0  0  0  0  0  0  0  0  0
   -6.7052    2.9318  -13.3744 C   0  0  0  0  0  0  0  0  0  0  0  0
   -7.1183    1.8667  -13.6250 O   0  0  0  0  0  0  0  0  0  0  0  0
   -7.4094    4.2975  -13.8667 C   0  0  2  0  0  0  0  0  0  0  0  0
   -6.7076    5.4916  -13.5296 O   0  0  0  0  0  0  0  0  0  0  0  0
   -8.7348    4.4043  -13.2050 N   0  0  0  0  0  0  0  0  0  0  0  0
   -8.6563    4.4063  -11.7778 C   0  0  0  0  0  0  0  0  0  0  0  0
   -8.3533    5.5905  -11.0722 C   0  0  0  0  0  0  0  0  0  0  0  0
   -8.2656    5.6066   -9.6753 C   0  0  0  0  0  0  0  0  0  0  0  0
   -8.4964    4.4273   -8.9941 C   0  0  0  0  0  0  0  0  0  0  0  0
   -8.7750    3.2485   -9.6756 C   0  0  0  0  0  0  0  0  0  0  0  0
   -8.8468    3.2167  -11.0578 C   0  0  0  0  0  0  0  0  0  0  0  0
   -8.9536    2.1407   -8.6891 C   0  0  0  0  0  0  0  0  0  0  0  0
   -9.1436    2.8253   -7.3794 N   0  0  0  0  0  0  0  0  0  0  0  0
   -8.5079    4.1510   -7.5281 C   0  0  0  0  0  0  0  0  0  0  0  0
   -7.5256    4.2554  -15.4754 C   0  0  1  0  0  0  0  0  0  0  0  0
   -8.9244    4.6165  -16.0201 C   0  0  0  0  0  0  0  0  0  0  0  0
   -9.0627    4.6309  -17.5595 C   0  0  2  0  0  0  0  0  0  0  0  0
   -9.9309    3.2406  -18.1968 Cl  0  0  0  0  0  0  0  0  0  0  0  0
   -7.8004    4.9765  -18.3716 C   0  0  0  0  0  0  0  0  0  0  0  0
   -6.5070    4.6963  -17.6287 C   0  0  1  0  0  0  0  0  0  0  0  0
   -5.2090    5.1908  -18.1481 N   0  0  0  0  0  0  0  0  0  0  0  0
   -5.2249    6.6204  -18.5214 C   0  0  0  0  0  0  0  0  0  0  0  0
   -3.7801    7.1902  -18.6576 C   0  0  0  0  0  0  0  0  0  0  0  0
   -4.1965    7.8428  -19.9264 N   0  0  0  0  0  0  0  0  0  0  0  0
   -5.2155    6.7599  -20.0617 C   0  0  0  0  0  0  0  0  0  0  0  0
   -4.3184    5.0638  -16.9795 N   0  0  0  0  0  0  0  0  0  0  0  0
   -5.1702    4.8993  -15.8111 C   0  0  2  0  0  0  0  0  0  0  0  0
   -4.9752    3.6233  -15.4102 F   0  0  0  0  0  0  0  0  0  0  0  0
   -6.5459    5.0988  -16.2292 N   0  0  0  0  0  0  0  0  0  0  0  0
  1  2  1  0
  2  3  1  0
  2  4  1  0
  4  5  1  0
  5  6  2  0
  5  7  1  0
  7  8  1  6
  7  9  1  0
  9 10  1  0
 10 11  2  0
 11 12  1  0
 12 13  2  0
 13 14  1  0
 14 15  2  0
 14 16  1  0
 16 17  1  0
 17 18  1  0
  7 19  1  0
 19 20  1  1
 20 21  1  0
 21 22  1  6
 21 23  1  0
 24 23  1  6
 24 25  1  0
 25 26  1  0
 26 27  1  0
 27 28  1  0
 28 29  1  0
 25 30  1  0
 30 31  1  0
 31 32  1  6
 31 33  1  0
 15 10  1  0
 33 19  1  0
 18 13  1  0
 33 24  1  0
 29 26  1  0
M  END
>  <smiles>  (2312) 
C34994-P266

>  <fragmenstein_outcome>  (2312) 
acceptable

>  <inchikey>  (2312) 
AVXXZVQIGGRXOF-UHFFFAOYSA-N

>  <fragmenstein_mode>  (2312) 
expansion

>  <HIPPO Pose ID>  (2312) 
27278

>  <Energy>  (2312) 
118.545738

>  <fragmenstein_error>  (2312) 


>  <tags>  (2312) 
{'openbind_xx01zvns2b_c1_fragmenstein', 'fragmenstein_placed'}

>  <ref_pdb>  (2312) 
175

>  <scratch_subdir>  (2312) 
/opt/xchem-fragalysis-2/maxwin/BulkDock/SCRATCH/511028/C34994-P266

>  <alias>  (2312) 
CC(C)NC(=O)[C@](O)(Nc1ccc2c(c1)CNC2)[C@H]1C[C@H](Cl)C[C@H]2N(C3CNC3)N[C@H](F)N21

>  <HIPPO Compound ID>  (2312) 
33741

>  <fragmenstein_runtime>  (2312) 
8.519358

$$$$
CC(C)NC(=O)[C@](O)(Nc1cc(C#N)c2c(c1)CNC2)c1cc(Cl)cc2c1[C@@H](F)N[C@@]1(C2)C[C@@H]2CN[C@@H]2C1
     RDKit          3D

 38 43  0  0  0  0  0  0  0  0999 V2000
   -3.4294    1.8609  -12.8766 C   0  0  0  0  0  0  0  0  0  0  0  0
   -4.3370    2.5283  -11.8503 C   0  0  0  0  0  0  0  0  0  0  0  0
   -4.9756    1.5221  -10.9002 C   0  0  0  0  0  0  0  0  0  0  0  0
   -5.3406    3.3166  -12.5241 N   0  0  0  0  0  0  0  0  0  0  0  0
   -6.5282    2.8780  -13.4403 C   0  0  0  0  0  0  0  0  0  0  0  0
   -6.9148    1.8078  -13.7216 O   0  0  0  0  0  0  0  0  0  0  0  0
   -7.2402    4.2485  -13.8933 C   0  0  2  0  0  0  0  0  0  0  0  0
   -6.5201    5.4311  -13.5738 O   0  0  0  0  0  0  0  0  0  0  0  0
   -8.5332    4.3655  -13.1483 N   0  0  0  0  0  0  0  0  0  0  0  0
   -8.4416    4.3492  -11.7240 C   0  0  0  0  0  0  0  0  0  0  0  0
   -8.0856    5.5078  -11.0048 C   0  0  0  0  0  0  0  0  0  0  0  0
   -7.9866    5.5000   -9.6035 C   0  0  0  0  0  0  0  0  0  0  0  0
   -7.5933    6.6819   -8.8995 C   0  0  0  0  0  0  0  0  0  0  0  0
   -7.2488    7.6318   -8.3277 N   0  0  0  0  0  0  0  0  0  0  0  0
   -8.2666    4.3261   -8.9268 C   0  0  0  0  0  0  0  0  0  0  0  0
   -8.6144    3.1759   -9.6199 C   0  0  0  0  0  0  0  0  0  0  0  0
   -8.6959    3.1678  -11.0067 C   0  0  0  0  0  0  0  0  0  0  0  0
   -8.8349    2.0583   -8.6548 C   0  0  0  0  0  0  0  0  0  0  0  0
   -8.7687    2.6694   -7.3028 N   0  0  0  0  0  0  0  0  0  0  0  0
   -8.2539    4.0420   -7.4634 C   0  0  0  0  0  0  0  0  0  0  0  0
   -7.4428    4.3468  -15.4308 C   0  0  0  0  0  0  0  0  0  0  0  0
   -8.7294    4.1741  -15.9886 C   0  0  0  0  0  0  0  0  0  0  0  0
   -8.9576    4.3108  -17.3560 C   0  0  0  0  0  0  0  0  0  0  0  0
  -10.5214    4.1065  -18.0231 Cl  0  0  0  0  0  0  0  0  0  0  0  0
   -7.9305    4.6652  -18.2055 C   0  0  0  0  0  0  0  0  0  0  0  0
   -6.6525    4.8939  -17.7066 C   0  0  0  0  0  0  0  0  0  0  0  0
   -6.3772    4.6778  -16.3370 C   0  0  0  0  0  0  0  0  0  0  0  0
   -4.9330    4.7994  -15.8884 C   0  0  1  0  0  0  0  0  0  0  0  0
   -4.5576    3.6977  -15.2101 F   0  0  0  0  0  0  0  0  0  0  0  0
   -3.9398    4.8449  -16.9564 N   0  0  0  0  0  0  0  0  0  0  0  0
   -4.2851    5.8111  -17.9981 C   0  0  1  0  0  0  0  0  0  0  0  0
   -5.5857    5.3375  -18.6837 C   0  0  0  0  0  0  0  0  0  0  0  0
   -4.3615    7.2403  -17.4251 C   0  0  0  0  0  0  0  0  0  0  0  0
   -3.8411    8.1828  -18.5140 C   0  0  2  0  0  0  0  0  0  0  0  0
   -4.7380    8.6404  -19.6774 C   0  0  0  0  0  0  0  0  0  0  0  0
   -4.1986    7.5609  -20.5098 N   0  0  0  0  0  0  0  0  0  0  0  0
   -3.1160    7.3121  -19.5466 C   0  0  2  0  0  0  0  0  0  0  0  0
   -3.1065    5.8935  -18.9929 C   0  0  0  0  0  0  0  0  0  0  0  0
  1  2  1  0
  2  3  1  0
  2  4  1  0
  4  5  1  0
  5  6  2  0
  5  7  1  0
  7  8  1  1
  7  9  1  0
  9 10  1  0
 10 11  2  0
 11 12  1  0
 12 13  1  0
 13 14  3  0
 12 15  2  0
 15 16  1  0
 16 17  2  0
 16 18  1  0
 18 19  1  0
 19 20  1  0
  7 21  1  0
 21 22  2  0
 22 23  1  0
 23 24  1  0
 23 25  2  0
 25 26  1  0
 26 27  2  0
 27 28  1  0
 28 29  1  1
 28 30  1  0
 30 31  1  0
 31 32  1  6
 31 33  1  0
 34 33  1  1
 34 35  1  0
 35 36  1  0
 36 37  1  0
 37 38  1  1
 17 10  1  0
 27 21  1  0
 38 31  1  0
 20 15  1  0
 32 26  1  0
 37 34  1  0
M  END
>  <smiles>  (2313) 
C34997-P137

>  <fragmenstein_outcome>  (2313) 
acceptable

>  <inchikey>  (2313) 
ATYVCBXSCABLLW-UHFFFAOYSA-N

>  <fragmenstein_mode>  (2313) 
expansion

>  <HIPPO Pose ID>  (2313) 
27280

>  <Energy>  (2313) 
123.232233

>  <fragmenstein_error>  (2313) 


>  <tags>  (2313) 
{'openbind_xx01zvns2b_c1_fragmenstein', 'fragmenstein_placed'}

>  <ref_pdb>  (2313) 
175

>  <scratch_subdir>  (2313) 
/opt/xchem-fragalysis-2/maxwin/BulkDock/SCRATCH/511028/C34997-P137

>  <alias>  (2313) 
CC(C)NC(=O)[C@](O)(Nc1cc(C#N)c2c(c1)CNC2)c1cc(Cl)cc2c1[C@@H](F)N[C@@]1(C2)C[C@@H]2CN[C@@H]2C1

>  <HIPPO Compound ID>  (2313) 
34997

>  <fragmenstein_runtime>  (2313) 
8.534791

$$$$
CC(C)NC(=O)[C@@](O)(Nc1ccc2c(c1)CNC2)c1cc(Cl)c2n[nH]c(O[C@@H]3CCNC[C@@H]3F)c2n1
     RDKit          3D

 36 40  0  0  0  0  0  0  0  0999 V2000
   -3.8529    2.0580  -13.3031 C   0  0  0  0  0  0  0  0  0  0  0  0
   -4.6324    2.6458  -12.1334 C   0  0  0  0  0  0  0  0  0  0  0  0
   -4.9644    1.6073  -11.0683 C   0  0  0  0  0  0  0  0  0  0  0  0
   -5.8267    3.3165  -12.5910 N   0  0  0  0  0  0  0  0  0  0  0  0
   -7.1506    2.7366  -13.1894 C   0  0  0  0  0  0  0  0  0  0  0  0
   -7.4377    1.6359  -13.4713 O   0  0  0  0  0  0  0  0  0  0  0  0
   -8.1717    4.0199  -13.3768 C   0  0  1  0  0  0  0  0  0  0  0  0
   -9.5510    3.9401  -13.2009 O   0  0  0  0  0  0  0  0  0  0  0  0
   -7.7751    5.0653  -12.4154 N   0  0  0  0  0  0  0  0  0  0  0  0
   -8.0943    4.8252  -11.0490 C   0  0  0  0  0  0  0  0  0  0  0  0
   -7.9290    5.8988  -10.1523 C   0  0  0  0  0  0  0  0  0  0  0  0
   -8.1336    5.7429   -8.7756 C   0  0  0  0  0  0  0  0  0  0  0  0
   -8.5039    4.4988   -8.3005 C   0  0  0  0  0  0  0  0  0  0  0  0
   -8.6544    3.4255   -9.1617 C   0  0  0  0  0  0  0  0  0  0  0  0
   -8.4398    3.5655  -10.5202 C   0  0  0  0  0  0  0  0  0  0  0  0
   -9.0298    2.2042   -8.3889 C   0  0  0  0  0  0  0  0  0  0  0  0
   -9.3961    2.7020   -7.0375 N   0  0  0  0  0  0  0  0  0  0  0  0
   -8.7792    4.0391   -6.9092 C   0  0  0  0  0  0  0  0  0  0  0  0
   -7.9626    4.4553  -14.8465 C   0  0  0  0  0  0  0  0  0  0  0  0
   -8.9753    4.1763  -15.8088 C   0  0  0  0  0  0  0  0  0  0  0  0
   -8.7511    4.3025  -17.1751 C   0  0  0  0  0  0  0  0  0  0  0  0
   -9.9167    3.9983  -18.3627 Cl  0  0  0  0  0  0  0  0  0  0  0  0
   -7.4529    4.6907  -17.5187 C   0  0  0  0  0  0  0  0  0  0  0  0
   -6.8321    4.8436  -18.6978 N   0  0  0  0  0  0  0  0  0  0  0  0
   -5.5793    5.2183  -18.3940 N   0  0  0  0  0  0  0  0  0  0  0  0
   -5.3342    5.3801  -17.0557 C   0  0  0  0  0  0  0  0  0  0  0  0
   -4.1436    5.8000  -16.6239 O   0  0  0  0  0  0  0  0  0  0  0  0
   -3.9672    5.9844  -15.2123 C   0  0  2  0  0  0  0  0  0  0  0  0
   -4.5532    7.3154  -14.7340 C   0  0  0  0  0  0  0  0  0  0  0  0
   -4.3130    7.4862  -13.2368 C   0  0  0  0  0  0  0  0  0  0  0  0
   -2.8887    7.4424  -12.9080 N   0  0  0  0  0  0  0  0  0  0  0  0
   -2.2429    6.2151  -13.3969 C   0  0  0  0  0  0  0  0  0  0  0  0
   -2.4697    5.9584  -14.8921 C   0  0  2  0  0  0  0  0  0  0  0  0
   -1.8228    6.9227  -15.6113 F   0  0  0  0  0  0  0  0  0  0  0  0
   -6.5135    5.0114  -16.4774 C   0  0  0  0  0  0  0  0  0  0  0  0
   -6.7337    4.9541  -15.1491 N   0  0  0  0  0  0  0  0  0  0  0  0
  1  2  1  0
  2  3  1  0
  2  4  1  0
  4  5  1  0
  5  6  2  0
  5  7  1  0
  7  8  1  6
  7  9  1  0
  9 10  1  0
 10 11  2  0
 11 12  1  0
 12 13  2  0
 13 14  1  0
 14 15  2  0
 14 16  1  0
 16 17  1  0
 17 18  1  0
  7 19  1  0
 19 20  1  0
 20 21  2  0
 21 22  1  0
 21 23  1  0
 23 24  2  0
 24 25  1  0
 25 26  1  0
 26 27  1  0
 28 27  1  6
 28 29  1  0
 29 30  1  0
 30 31  1  0
 31 32  1  0
 32 33  1  0
 33 34  1  6
 26 35  2  0
 35 36  1  0
 15 10  1  0
 36 19  2  0
 18 13  1  0
 35 23  1  0
 33 28  1  0
M  END
>  <smiles>  (2314) 
C35001-P266

>  <fragmenstein_outcome>  (2314) 
acceptable

>  <inchikey>  (2314) 
NSMSNNPWHNHNIX-UHFFFAOYSA-N

>  <fragmenstein_mode>  (2314) 
expansion

>  <HIPPO Pose ID>  (2314) 
27281

>  <Energy>  (2314) 
195.739108

>  <fragmenstein_error>  (2314) 


>  <tags>  (2314) 
{'openbind_xx01zvns2b_c1_fragmenstein', 'fragmenstein_placed'}

>  <ref_pdb>  (2314) 
175

>  <scratch_subdir>  (2314) 
/opt/xchem-fragalysis-2/maxwin/BulkDock/SCRATCH/511028/C35001-P266

>  <alias>  (2314) 
CC(C)NC(=O)[C@@](O)(Nc1ccc2c(c1)CNC2)c1cc(Cl)c2n[nH]c(O[C@@H]3CCNC[C@@H]3F)c2n1

>  <HIPPO Compound ID>  (2314) 
35001

>  <fragmenstein_runtime>  (2314) 
5.677781

$$$$
CC(C)NC(=O)[C@](O)(Nc1ccc2c(c1)CNC2)c1cc(Cl)c2c(n1)C(F)(F)[C@H](NC1CNC1)N2
     RDKit          3D

 35 39  0  0  0  0  0  0  0  0999 V2000
   -3.3337    1.9522  -12.9361 C   0  0  0  0  0  0  0  0  0  0  0  0
   -4.4032    2.2235  -11.8808 C   0  0  0  0  0  0  0  0  0  0  0  0
   -3.7988    2.8013  -10.6088 C   0  0  0  0  0  0  0  0  0  0  0  0
   -5.3961    3.1130  -12.4325 N   0  0  0  0  0  0  0  0  0  0  0  0
   -6.7026    2.8047  -13.2214 C   0  0  0  0  0  0  0  0  0  0  0  0
   -7.1314    1.7869  -13.6099 O   0  0  0  0  0  0  0  0  0  0  0  0
   -7.4017    4.2307  -13.4890 C   0  0  2  0  0  0  0  0  0  0  0  0
   -6.5790    5.3175  -13.0194 O   0  0  0  0  0  0  0  0  0  0  0  0
   -8.7224    4.2783  -12.8366 N   0  0  0  0  0  0  0  0  0  0  0  0
   -8.6427    4.2679  -11.4192 C   0  0  0  0  0  0  0  0  0  0  0  0
   -8.3099    5.4422  -10.7128 C   0  0  0  0  0  0  0  0  0  0  0  0
   -8.2504    5.4595   -9.3162 C   0  0  0  0  0  0  0  0  0  0  0  0
   -8.5381    4.2891   -8.6412 C   0  0  0  0  0  0  0  0  0  0  0  0
   -8.8327    3.1166   -9.3284 C   0  0  0  0  0  0  0  0  0  0  0  0
   -8.8782    3.0837  -10.7099 C   0  0  0  0  0  0  0  0  0  0  0  0
   -9.0676    2.0169   -8.3478 C   0  0  0  0  0  0  0  0  0  0  0  0
   -9.2835    2.7078   -7.0472 N   0  0  0  0  0  0  0  0  0  0  0  0
   -8.6144    4.0205   -7.1767 C   0  0  0  0  0  0  0  0  0  0  0  0
   -7.4948    4.4421  -15.0146 C   0  0  0  0  0  0  0  0  0  0  0  0
   -8.6280    4.1275  -15.7716 C   0  0  0  0  0  0  0  0  0  0  0  0
   -8.5875    4.2739  -17.1587 C   0  0  0  0  0  0  0  0  0  0  0  0
   -9.9884    3.9227  -18.0966 Cl  0  0  0  0  0  0  0  0  0  0  0  0
   -7.4281    4.7352  -17.7531 C   0  0  0  0  0  0  0  0  0  0  0  0
   -6.3907    5.1218  -16.9246 C   0  0  0  0  0  0  0  0  0  0  0  0
   -6.3788    5.0046  -15.5812 N   0  0  0  0  0  0  0  0  0  0  0  0
   -5.3819    5.8803  -17.7421 C   0  0  0  0  0  0  0  0  0  0  0  0
   -4.0768    5.5923  -17.5085 F   0  0  0  0  0  0  0  0  0  0  0  0
   -5.5061    7.2327  -17.5888 F   0  0  0  0  0  0  0  0  0  0  0  0
   -5.7812    5.4313  -19.1964 C   0  0  2  0  0  0  0  0  0  0  0  0
   -5.5983    6.4765  -20.2180 N   0  0  0  0  0  0  0  0  0  0  0  0
   -4.1826    6.6378  -20.5619 C   0  0  0  0  0  0  0  0  0  0  0  0
   -3.5897    7.8809  -19.8628 C   0  0  0  0  0  0  0  0  0  0  0  0
   -2.9997    8.2862  -21.1664 N   0  0  0  0  0  0  0  0  0  0  0  0
   -4.0636    7.4966  -21.8430 C   0  0  0  0  0  0  0  0  0  0  0  0
   -7.1170    4.8099  -19.1160 N   0  0  0  0  0  0  0  0  0  0  0  0
  1  2  1  0
  2  3  1  0
  2  4  1  0
  4  5  1  0
  5  6  2  0
  5  7  1  0
  7  8  1  1
  7  9  1  0
  9 10  1  0
 10 11  2  0
 11 12  1  0
 12 13  2  0
 13 14  1  0
 14 15  2  0
 14 16  1  0
 16 17  1  0
 17 18  1  0
  7 19  1  0
 19 20  2  0
 20 21  1  0
 21 22  1  0
 21 23  2  0
 23 24  1  0
 24 25  2  0
 24 26  1  0
 26 27  1  0
 26 28  1  0
 26 29  1  0
 29 30  1  6
 30 31  1  0
 31 32  1  0
 32 33  1  0
 33 34  1  0
 29 35  1  0
 15 10  1  0
 25 19  1  0
 34 31  1  0
 18 13  1  0
 35 23  1  0
M  END
>  <smiles>  (2315) 
C35037-P266

>  <fragmenstein_outcome>  (2315) 
acceptable

>  <inchikey>  (2315) 
BVGSYHMQVNAIGS-UHFFFAOYSA-N

>  <fragmenstein_mode>  (2315) 
expansion

>  <HIPPO Pose ID>  (2315) 
27290

>  <Energy>  (2315) 
267.398029

>  <fragmenstein_error>  (2315) 


>  <tags>  (2315) 
{'openbind_xx01zvns2b_c1_fragmenstein', 'fragmenstein_placed'}

>  <ref_pdb>  (2315) 
175

>  <scratch_subdir>  (2315) 
/opt/xchem-fragalysis-2/maxwin/BulkDock/SCRATCH/511028/C35037-P266

>  <alias>  (2315) 
CC(C)NC(=O)[C@](O)(Nc1ccc2c(c1)CNC2)c1cc(Cl)c2c(n1)C(F)(F)[C@H](NC1CNC1)N2

>  <HIPPO Compound ID>  (2315) 
35037

>  <fragmenstein_runtime>  (2315) 
10.021045

$$$$
C[C@@](CN)(c1[nH]nc2c(Cl)cc(C(=O)Nc3ccc4c(c3)CNC4)cc12)C1CCNCC1
     RDKit          3D

 32 36  0  0  0  0  0  0  0  0999 V2000
   -4.6917    7.8866  -17.7671 C   0  0  0  0  0  0  0  0  0  0  0  0
   -4.3671    6.3693  -17.7578 C   0  0  1  0  0  0  0  0  0  0  0  0
   -3.7223    6.0623  -16.3387 C   0  0  0  0  0  0  0  0  0  0  0  0
   -3.7081    4.6707  -15.8929 N   0  0  0  0  0  0  0  0  0  0  0  0
   -5.6955    5.6169  -17.9261 C   0  0  0  0  0  0  0  0  0  0  0  0
   -6.1688    5.1336  -19.1254 N   0  0  0  0  0  0  0  0  0  0  0  0
   -7.3018    4.4261  -19.0449 N   0  0  0  0  0  0  0  0  0  0  0  0
   -7.7350    4.5849  -17.7937 C   0  0  0  0  0  0  0  0  0  0  0  0
   -8.9269    4.2059  -17.1515 C   0  0  0  0  0  0  0  0  0  0  0  0
  -10.2204    3.6803  -18.1078 Cl  0  0  0  0  0  0  0  0  0  0  0  0
   -9.0063    4.4489  -15.7741 C   0  0  0  0  0  0  0  0  0  0  0  0
   -7.9841    5.1509  -15.0892 C   0  0  0  0  0  0  0  0  0  0  0  0
   -8.1620    5.5743  -13.6803 C   0  0  0  0  0  0  0  0  0  0  0  0
   -8.0460    6.7111  -13.4421 O   0  0  0  0  0  0  0  0  0  0  0  0
   -8.3975    4.3750  -12.7404 N   0  0  0  0  0  0  0  0  0  0  0  0
   -8.4438    4.3107  -11.3507 C   0  0  0  0  0  0  0  0  0  0  0  0
   -8.2082    5.4603  -10.5746 C   0  0  0  0  0  0  0  0  0  0  0  0
   -8.2684    5.4114   -9.1798 C   0  0  0  0  0  0  0  0  0  0  0  0
   -8.5805    4.2040   -8.5876 C   0  0  0  0  0  0  0  0  0  0  0  0
   -8.7929    3.0602   -9.3523 C   0  0  0  0  0  0  0  0  0  0  0  0
   -8.7195    3.0903  -10.7349 C   0  0  0  0  0  0  0  0  0  0  0  0
   -9.0733    1.9129   -8.4391 C   0  0  0  0  0  0  0  0  0  0  0  0
   -9.3991    2.5348   -7.1281 N   0  0  0  0  0  0  0  0  0  0  0  0
   -8.7552    3.8649   -7.1459 C   0  0  0  0  0  0  0  0  0  0  0  0
   -6.8068    5.6285  -15.7049 C   0  0  0  0  0  0  0  0  0  0  0  0
   -6.7198    5.2917  -17.0538 C   0  0  0  0  0  0  0  0  0  0  0  0
   -3.2631    6.0950  -18.8630 C   0  0  0  0  0  0  0  0  0  0  0  0
   -3.0106    4.6144  -19.1041 C   0  0  0  0  0  0  0  0  0  0  0  0
   -1.8109    4.3753  -20.0053 C   0  0  0  0  0  0  0  0  0  0  0  0
   -2.0024    4.9792  -21.3254 N   0  0  0  0  0  0  0  0  0  0  0  0
   -2.2633    6.4215  -21.1898 C   0  0  0  0  0  0  0  0  0  0  0  0
   -3.4338    6.7655  -20.2475 C   0  0  0  0  0  0  0  0  0  0  0  0
  2  1  1  1
  2  3  1  0
  3  4  1  0
  2  5  1  0
  5  6  1  0
  6  7  1  0
  7  8  2  0
  8  9  1  0
  9 10  1  0
  9 11  2  0
 11 12  1  0
 12 13  1  0
 13 14  2  0
 13 15  1  0
 15 16  1  0
 16 17  2  0
 17 18  1  0
 18 19  2  0
 19 20  1  0
 20 21  2  0
 20 22  1  0
 22 23  1  0
 23 24  1  0
 12 25  2  0
 25 26  1  0
  2 27  1  0
 27 28  1  0
 28 29  1  0
 29 30  1  0
 30 31  1  0
 31 32  1  0
 26  5  2  0
 32 27  1  0
 26  8  1  0
 21 16  1  0
 24 19  1  0
M  END
>  <smiles>  (2316) 
C35055-P266

>  <fragmenstein_outcome>  (2316) 
acceptable

>  <inchikey>  (2316) 
ODFCFRFSEBBNJK-UHFFFAOYSA-N

>  <fragmenstein_mode>  (2316) 
expansion

>  <HIPPO Pose ID>  (2316) 
27299

>  <Energy>  (2316) 
112.058537

>  <fragmenstein_error>  (2316) 


>  <tags>  (2316) 
{'openbind_xx01zvns2b_c1_fragmenstein', 'fragmenstein_placed'}

>  <ref_pdb>  (2316) 
175

>  <scratch_subdir>  (2316) 
/opt/xchem-fragalysis-2/maxwin/BulkDock/SCRATCH/511028/C35055-P266

>  <alias>  (2316) 
C[C@@](CN)(c1[nH]nc2c(Cl)cc(C(=O)Nc3ccc4c(c3)CNC4)cc12)C1CCNCC1

>  <HIPPO Compound ID>  (2316) 
28262

>  <fragmenstein_runtime>  (2316) 
8.215738

$$$$
Cc1cc(NC2=N[C@]2(C)C[C@@H](Cl)CNNc2cc[nH]c2)cc2c1CNC2
     RDKit          3D

 26 29  0  0  0  0  0  0  0  0999 V2000
   -7.9911    6.8646   -8.7382 C   0  0  0  0  0  0  0  0  0  0  0  0
   -8.2373    5.5412   -9.3918 C   0  0  0  0  0  0  0  0  0  0  0  0
   -8.2662    5.4314  -10.7918 C   0  0  0  0  0  0  0  0  0  0  0  0
   -8.5681    4.2126  -11.4325 C   0  0  0  0  0  0  0  0  0  0  0  0
   -8.6285    4.0898  -12.8243 N   0  0  0  0  0  0  0  0  0  0  0  0
   -8.2100    4.9943  -13.6966 C   0  0  0  0  0  0  0  0  0  0  0  0
   -7.8541    6.0889  -14.1626 N   0  0  0  0  0  0  0  0  0  0  0  0
   -7.8223    4.7950  -15.0504 C   0  0  1  0  0  0  0  0  0  0  0  0
   -6.4992    4.1282  -15.2220 C   0  0  0  0  0  0  0  0  0  0  0  0
   -8.9410    4.5512  -16.0310 C   0  0  0  0  0  0  0  0  0  0  0  0
   -8.5466    4.2752  -17.4787 C   0  0  1  0  0  0  0  0  0  0  0  0
  -10.0464    4.0428  -18.4318 Cl  0  0  0  0  0  0  0  0  0  0  0  0
   -7.6226    5.3115  -18.1205 C   0  0  0  0  0  0  0  0  0  0  0  0
   -6.3860    4.7434  -18.6904 N   0  0  0  0  0  0  0  0  0  0  0  0
   -5.3847    5.7613  -18.7290 N   0  0  0  0  0  0  0  0  0  0  0  0
   -4.5968    5.8664  -17.6339 C   0  0  0  0  0  0  0  0  0  0  0  0
   -4.5167    6.9621  -16.7523 C   0  0  0  0  0  0  0  0  0  0  0  0
   -3.6789    6.5945  -15.7220 C   0  0  0  0  0  0  0  0  0  0  0  0
   -3.1948    5.3438  -16.0000 N   0  0  0  0  0  0  0  0  0  0  0  0
   -3.7518    4.8935  -17.1648 C   0  0  0  0  0  0  0  0  0  0  0  0
   -8.8237    3.0775  -10.6558 C   0  0  0  0  0  0  0  0  0  0  0  0
   -8.8053    3.1879   -9.2807 C   0  0  0  0  0  0  0  0  0  0  0  0
   -8.5265    4.3990   -8.6559 C   0  0  0  0  0  0  0  0  0  0  0  0
   -8.6098    4.1932   -7.1786 C   0  0  0  0  0  0  0  0  0  0  0  0
   -9.2617    2.8804   -6.9840 N   0  0  0  0  0  0  0  0  0  0  0  0
   -9.0671    2.1362   -8.2554 C   0  0  0  0  0  0  0  0  0  0  0  0
  1  2  1  0
  2  3  2  0
  3  4  1  0
  4  5  1  0
  5  6  1  0
  6  7  2  0
  7  8  1  0
  8  9  1  1
  8 10  1  0
 10 11  1  0
 11 12  1  6
 11 13  1  0
 13 14  1  0
 14 15  1  0
 15 16  1  0
 16 17  1  0
 17 18  2  0
 18 19  1  0
 19 20  1  0
  4 21  2  0
 21 22  1  0
 22 23  2  0
 23 24  1  0
 24 25  1  0
 25 26  1  0
 23  2  1  0
  8  6  1  0
 20 16  2  0
 26 22  1  0
M  END
>  <smiles>  (2317) 
C35090-P266

>  <fragmenstein_outcome>  (2317) 
acceptable

>  <inchikey>  (2317) 
IAELZMIOGYXMNQ-UHFFFAOYSA-N

>  <fragmenstein_mode>  (2317) 
expansion

>  <HIPPO Pose ID>  (2317) 
27316

>  <Energy>  (2317) 
75.186964

>  <fragmenstein_error>  (2317) 


>  <tags>  (2317) 
{'openbind_xx01zvns2b_c1_fragmenstein', 'fragmenstein_placed'}

>  <ref_pdb>  (2317) 
175

>  <scratch_subdir>  (2317) 
/opt/xchem-fragalysis-2/maxwin/BulkDock/SCRATCH/511028/C35090-P266

>  <alias>  (2317) 
Cc1cc(NC2=N[C@]2(C)C[C@@H](Cl)CNNc2cc[nH]c2)cc2c1CNC2

>  <HIPPO Compound ID>  (2317) 
35090

>  <fragmenstein_runtime>  (2317) 
5.787016

$$$$
C[C@@]1(CC2CCNCC2)c2cc(C(=O)C(=O)c3ccc4c(c3)CNC4)cc(Cl)c2NN1O
     RDKit          3D

 32 36  0  0  0  0  0  0  0  0999 V2000
   -5.0696    7.3394  -18.1627 C   0  0  0  0  0  0  0  0  0  0  0  0
   -5.0559    5.8189  -17.9642 C   0  0  1  0  0  0  0  0  0  0  0  0
   -3.7299    5.2168  -17.4486 C   0  0  0  0  0  0  0  0  0  0  0  0
   -2.7572    5.8722  -16.4399 C   0  0  0  0  0  0  0  0  0  0  0  0
   -3.1938    5.9826  -14.9776 C   0  0  0  0  0  0  0  0  0  0  0  0
   -3.5533    7.3966  -14.5317 C   0  0  0  0  0  0  0  0  0  0  0  0
   -2.4845    8.3346  -14.8666 N   0  0  0  0  0  0  0  0  0  0  0  0
   -2.3311    8.4361  -16.3132 C   0  0  0  0  0  0  0  0  0  0  0  0
   -1.9728    7.0963  -16.9513 C   0  0  0  0  0  0  0  0  0  0  0  0
   -6.2620    5.4413  -17.1349 C   0  0  0  0  0  0  0  0  0  0  0  0
   -6.5135    5.5893  -15.7878 C   0  0  0  0  0  0  0  0  0  0  0  0
   -7.7277    5.1456  -15.2710 C   0  0  0  0  0  0  0  0  0  0  0  0
   -7.9337    5.3469  -13.8339 C   0  0  0  0  0  0  0  0  0  0  0  0
   -8.0362    6.4983  -13.4343 O   0  0  0  0  0  0  0  0  0  0  0  0
   -7.8703    4.1464  -12.9039 C   0  0  0  0  0  0  0  0  0  0  0  0
   -7.4821    3.0816  -13.3758 O   0  0  0  0  0  0  0  0  0  0  0  0
   -8.1835    4.2458  -11.4527 C   0  0  0  0  0  0  0  0  0  0  0  0
   -8.1696    5.4606  -10.7366 C   0  0  0  0  0  0  0  0  0  0  0  0
   -8.3848    5.4866   -9.3535 C   0  0  0  0  0  0  0  0  0  0  0  0
   -8.6214    4.2901   -8.7058 C   0  0  0  0  0  0  0  0  0  0  0  0
   -8.6429    3.0873   -9.4026 C   0  0  0  0  0  0  0  0  0  0  0  0
   -8.4187    3.0447  -10.7671 C   0  0  0  0  0  0  0  0  0  0  0  0
   -8.8733    1.9670   -8.4429 C   0  0  0  0  0  0  0  0  0  0  0  0
   -9.3522    2.6254   -7.1971 N   0  0  0  0  0  0  0  0  0  0  0  0
   -8.8365    4.0123   -7.2562 C   0  0  0  0  0  0  0  0  0  0  0  0
   -8.7268    4.6486  -16.1037 C   0  0  0  0  0  0  0  0  0  0  0  0
   -8.4858    4.5710  -17.4805 C   0  0  0  0  0  0  0  0  0  0  0  0
   -9.7768    4.0992  -18.4891 Cl  0  0  0  0  0  0  0  0  0  0  0  0
   -7.2404    4.9285  -17.9873 C   0  0  0  0  0  0  0  0  0  0  0  0
   -6.7362    4.8444  -19.3035 N   0  0  0  0  0  0  0  0  0  0  0  0
   -5.3490    5.0896  -19.2530 N   0  0  0  0  0  0  0  0  0  0  0  0
   -4.8217    5.7938  -20.3931 O   0  0  0  0  0  0  0  0  0  0  0  0
  2  1  1  6
  2  3  1  0
  3  4  1  0
  4  5  1  0
  5  6  1  0
  6  7  1  0
  7  8  1  0
  8  9  1  0
  2 10  1  0
 10 11  2  0
 11 12  1  0
 12 13  1  0
 13 14  2  0
 13 15  1  0
 15 16  2  0
 15 17  1  0
 17 18  2  0
 18 19  1  0
 19 20  2  0
 20 21  1  0
 21 22  2  0
 21 23  1  0
 23 24  1  0
 24 25  1  0
 12 26  2  0
 26 27  1  0
 27 28  1  0
 27 29  2  0
 29 30  1  0
 30 31  1  0
 31 32  1  0
 31  2  1  0
  9  4  1  0
 29 10  1  0
 22 17  1  0
 25 20  1  0
M  END
>  <smiles>  (2318) 
C35112-P279

>  <fragmenstein_outcome>  (2318) 
acceptable

>  <inchikey>  (2318) 
BJGURDSZEQNWMA-UHFFFAOYSA-N

>  <fragmenstein_mode>  (2318) 
expansion

>  <HIPPO Pose ID>  (2318) 
27333

>  <Energy>  (2318) 
177.179727

>  <fragmenstein_error>  (2318) 


>  <tags>  (2318) 
{'openbind_xx01zvns2b_c1_fragmenstein', 'fragmenstein_placed'}

>  <ref_pdb>  (2318) 
175

>  <scratch_subdir>  (2318) 
/opt/xchem-fragalysis-2/maxwin/BulkDock/SCRATCH/511028/C35112-P279

>  <alias>  (2318) 
C[C@@]1(CC2CCNCC2)c2cc(C(=O)C(=O)c3ccc4c(c3)CNC4)cc(Cl)c2NN1O

>  <HIPPO Compound ID>  (2318) 
35112

>  <fragmenstein_runtime>  (2318) 
6.947042

$$$$
O=C(NCC(F)F)[C@](O)(Nc1ccc2c(c1)CNC2)c1cc(Cl)c2[nH]nc(CC3CCNCC3)c2c1
     RDKit          3D

 36 40  0  0  0  0  0  0  0  0999 V2000
   -7.0863    1.7789  -13.3374 O   0  0  0  0  0  0  0  0  0  0  0  0
   -6.6043    2.8169  -13.0946 C   0  0  0  0  0  0  0  0  0  0  0  0
   -5.1718    3.1722  -12.5947 N   0  0  0  0  0  0  0  0  0  0  0  0
   -4.0208    2.3339  -12.3856 C   0  0  0  0  0  0  0  0  0  0  0  0
   -3.1254    2.3822  -13.6126 C   0  0  0  0  0  0  0  0  0  0  0  0
   -1.8590    2.0408  -13.2865 F   0  0  0  0  0  0  0  0  0  0  0  0
   -3.5418    1.5246  -14.5724 F   0  0  0  0  0  0  0  0  0  0  0  0
   -7.3127    4.2422  -13.3332 C   0  0  2  0  0  0  0  0  0  0  0  0
   -6.5163    5.3048  -12.7879 O   0  0  0  0  0  0  0  0  0  0  0  0
   -8.6494    4.2736  -12.7284 N   0  0  0  0  0  0  0  0  0  0  0  0
   -8.6801    4.2187  -11.3124 C   0  0  0  0  0  0  0  0  0  0  0  0
   -8.4988    5.3973  -10.5521 C   0  0  0  0  0  0  0  0  0  0  0  0
   -8.4721    5.3709   -9.1550 C   0  0  0  0  0  0  0  0  0  0  0  0
   -8.6775    4.1571   -8.5300 C   0  0  0  0  0  0  0  0  0  0  0  0
   -8.8555    2.9910   -9.2670 C   0  0  0  0  0  0  0  0  0  0  0  0
   -8.8345    2.9982  -10.6502 C   0  0  0  0  0  0  0  0  0  0  0  0
   -9.0620    1.8461   -8.3322 C   0  0  0  0  0  0  0  0  0  0  0  0
   -9.3775    2.4774   -7.0225 N   0  0  0  0  0  0  0  0  0  0  0  0
   -8.7915    3.8324   -7.0782 C   0  0  0  0  0  0  0  0  0  0  0  0
   -7.3408    4.5030  -14.8461 C   0  0  0  0  0  0  0  0  0  0  0  0
   -8.4605    4.2559  -15.6580 C   0  0  0  0  0  0  0  0  0  0  0  0
   -8.4124    4.4114  -17.0535 C   0  0  0  0  0  0  0  0  0  0  0  0
   -9.7892    4.0636  -18.0176 Cl  0  0  0  0  0  0  0  0  0  0  0  0
   -7.2175    4.8502  -17.6251 C   0  0  0  0  0  0  0  0  0  0  0  0
   -6.8448    5.1286  -18.9128 N   0  0  0  0  0  0  0  0  0  0  0  0
   -5.5599    5.5237  -19.0352 N   0  0  0  0  0  0  0  0  0  0  0  0
   -5.0872    5.4964  -17.7876 C   0  0  0  0  0  0  0  0  0  0  0  0
   -3.6716    5.8406  -17.4496 C   0  0  0  0  0  0  0  0  0  0  0  0
   -2.8015    6.4004  -18.5799 C   0  0  0  0  0  0  0  0  0  0  0  0
   -1.4903    6.9711  -18.0202 C   0  0  0  0  0  0  0  0  0  0  0  0
   -0.6466    7.6179  -19.1253 C   0  0  0  0  0  0  0  0  0  0  0  0
   -0.7731    6.9746  -20.4321 N   0  0  0  0  0  0  0  0  0  0  0  0
   -1.1088    5.5617  -20.3195 C   0  0  0  0  0  0  0  0  0  0  0  0
   -2.4849    5.3617  -19.6772 C   0  0  0  0  0  0  0  0  0  0  0  0
   -6.0891    5.1069  -16.8637 C   0  0  0  0  0  0  0  0  0  0  0  0
   -6.1479    4.9321  -15.4732 C   0  0  0  0  0  0  0  0  0  0  0  0
  1  2  2  0
  2  3  1  0
  3  4  1  0
  4  5  1  0
  5  6  1  0
  5  7  1  0
  2  8  1  0
  8  9  1  1
  8 10  1  0
 10 11  1  0
 11 12  2  0
 12 13  1  0
 13 14  2  0
 14 15  1  0
 15 16  2  0
 15 17  1  0
 17 18  1  0
 18 19  1  0
  8 20  1  0
 20 21  2  0
 21 22  1  0
 22 23  1  0
 22 24  2  0
 24 25  1  0
 25 26  1  0
 26 27  2  0
 27 28  1  0
 28 29  1  0
 29 30  1  0
 30 31  1  0
 31 32  1  0
 32 33  1  0
 33 34  1  0
 27 35  1  0
 35 36  2  0
 16 11  1  0
 36 20  1  0
 19 14  1  0
 35 24  1  0
 34 29  1  0
M  END
>  <smiles>  (2319) 
C35134-P266

>  <fragmenstein_outcome>  (2319) 
acceptable

>  <inchikey>  (2319) 
GZHDFUVXCPZZHG-UHFFFAOYSA-N

>  <fragmenstein_mode>  (2319) 
expansion

>  <HIPPO Pose ID>  (2319) 
27344

>  <Energy>  (2319) 
137.426055

>  <fragmenstein_error>  (2319) 


>  <tags>  (2319) 
{'openbind_xx01zvns2b_c1_fragmenstein', 'fragmenstein_placed'}

>  <ref_pdb>  (2319) 
175

>  <scratch_subdir>  (2319) 
/opt/xchem-fragalysis-2/maxwin/BulkDock/SCRATCH/511028/C35134-P266

>  <alias>  (2319) 
O=C(NCC(F)F)[C@](O)(Nc1ccc2c(c1)CNC2)c1cc(Cl)c2[nH]nc(CC3CCNCC3)c2c1

>  <HIPPO Compound ID>  (2319) 
35134

>  <fragmenstein_runtime>  (2319) 
6.166301

$$$$
NNc1ccc(C(=O)Nc2ccc3c(c2)CNC3)cc1Cl
     RDKit          3D

 21 23  0  0  0  0  0  0  0  0999 V2000
   -7.4561    3.6032  -19.7978 N   0  0  0  0  0  0  0  0  0  0  0  0
   -6.6612    4.3353  -18.9200 N   0  0  0  0  0  0  0  0  0  0  0  0
   -6.9518    4.4725  -17.5453 C   0  0  0  0  0  0  0  0  0  0  0  0
   -5.9042    4.9972  -16.7661 C   0  0  0  0  0  0  0  0  0  0  0  0
   -6.0643    5.2663  -15.4107 C   0  0  0  0  0  0  0  0  0  0  0  0
   -7.2868    5.0113  -14.7967 C   0  0  0  0  0  0  0  0  0  0  0  0
   -7.4452    5.4156  -13.3815 C   0  0  0  0  0  0  0  0  0  0  0  0
   -7.1097    6.4920  -13.0787 O   0  0  0  0  0  0  0  0  0  0  0  0
   -8.0142    4.2656  -12.5224 N   0  0  0  0  0  0  0  0  0  0  0  0
   -8.1946    4.1694  -11.1447 C   0  0  0  0  0  0  0  0  0  0  0  0
   -7.9949    5.2877  -10.3188 C   0  0  0  0  0  0  0  0  0  0  0  0
   -8.1444    5.1925   -8.9329 C   0  0  0  0  0  0  0  0  0  0  0  0
   -8.4978    3.9688   -8.3974 C   0  0  0  0  0  0  0  0  0  0  0  0
   -8.6963    2.8597   -9.2122 C   0  0  0  0  0  0  0  0  0  0  0  0
   -8.5544    2.9395  -10.5891 C   0  0  0  0  0  0  0  0  0  0  0  0
   -9.0136    1.6778   -8.3599 C   0  0  0  0  0  0  0  0  0  0  0  0
   -9.2714    2.2178   -7.0018 N   0  0  0  0  0  0  0  0  0  0  0  0
   -8.7123    3.5836   -6.9734 C   0  0  0  0  0  0  0  0  0  0  0  0
   -8.3516    4.5025  -15.5352 C   0  0  0  0  0  0  0  0  0  0  0  0
   -8.1938    4.2649  -16.9081 C   0  0  0  0  0  0  0  0  0  0  0  0
   -9.6269    3.7994  -17.7507 Cl  0  0  0  0  0  0  0  0  0  0  0  0
  1  2  1  0
  2  3  1  0
  3  4  2  0
  4  5  1  0
  5  6  2  0
  6  7  1  0
  7  8  2  0
  7  9  1  0
  9 10  1  0
 10 11  2  0
 11 12  1  0
 12 13  2  0
 13 14  1  0
 14 15  2  0
 14 16  1  0
 16 17  1  0
 17 18  1  0
  6 19  1  0
 19 20  2  0
 20 21  1  0
 20  3  1  0
 15 10  1  0
 18 13  1  0
M  END
>  <smiles>  (2320) 
C35157-P267

>  <fragmenstein_outcome>  (2320) 
acceptable

>  <inchikey>  (2320) 
GHGNYXCJGIDRPI-UHFFFAOYSA-N

>  <fragmenstein_mode>  (2320) 
expansion

>  <HIPPO Pose ID>  (2320) 
27354

>  <Energy>  (2320) 
99.028712

>  <fragmenstein_error>  (2320) 


>  <tags>  (2320) 
{'openbind_xx01zvns2b_c1_fragmenstein', 'fragmenstein_placed'}

>  <ref_pdb>  (2320) 
175

>  <scratch_subdir>  (2320) 
/opt/xchem-fragalysis-2/maxwin/BulkDock/SCRATCH/511028/C35157-P267

>  <alias>  (2320) 
NNc1ccc(C(=O)Nc2ccc3c(c2)CNC3)cc1Cl

>  <HIPPO Compound ID>  (2320) 
28353

>  <fragmenstein_runtime>  (2320) 
2.619184

$$$$
CN1C[C@@H](c2c[nH]c3c(F)cc(C(=O)Nc4ccc5c(c4)CNC5)cc23)[C@@]1(C)S(C)(=O)=O
     RDKit          3D

 32 36  0  0  0  0  0  0  0  0999 V2000
   -1.9241    7.8003  -17.5616 C   0  0  0  0  0  0  0  0  0  0  0  0
   -2.3197    6.4319  -17.8304 N   0  0  0  0  0  0  0  0  0  0  0  0
   -3.4242    5.9726  -16.9668 C   0  0  0  0  0  0  0  0  0  0  0  0
   -3.9538    5.1656  -18.1661 C   0  0  1  0  0  0  0  0  0  0  0  0
   -5.4726    4.8921  -18.2979 C   0  0  0  0  0  0  0  0  0  0  0  0
   -6.0948    4.5468  -19.4738 C   0  0  0  0  0  0  0  0  0  0  0  0
   -7.3956    4.2246  -19.1799 N   0  0  0  0  0  0  0  0  0  0  0  0
   -7.6057    4.3210  -17.8266 C   0  0  0  0  0  0  0  0  0  0  0  0
   -8.7461    4.0334  -17.0785 C   0  0  0  0  0  0  0  0  0  0  0  0
   -9.8514    3.5672  -17.6693 F   0  0  0  0  0  0  0  0  0  0  0  0
   -8.7318    4.2683  -15.7095 C   0  0  0  0  0  0  0  0  0  0  0  0
   -7.5896    4.7927  -15.1165 C   0  0  0  0  0  0  0  0  0  0  0  0
   -7.6011    5.2537  -13.7089 C   0  0  0  0  0  0  0  0  0  0  0  0
   -7.2873    6.3589  -13.4986 O   0  0  0  0  0  0  0  0  0  0  0  0
   -8.0108    4.1273  -12.7362 N   0  0  0  0  0  0  0  0  0  0  0  0
   -8.2055    4.1490  -11.3567 C   0  0  0  0  0  0  0  0  0  0  0  0
   -7.9678    5.3123  -10.6066 C   0  0  0  0  0  0  0  0  0  0  0  0
   -8.1188    5.3125   -9.2157 C   0  0  0  0  0  0  0  0  0  0  0  0
   -8.5015    4.1358   -8.5989 C   0  0  0  0  0  0  0  0  0  0  0  0
   -8.7407    2.9856   -9.3399 C   0  0  0  0  0  0  0  0  0  0  0  0
   -8.6048    2.9733  -10.7189 C   0  0  0  0  0  0  0  0  0  0  0  0
   -9.0772    1.8631   -8.4193 C   0  0  0  0  0  0  0  0  0  0  0  0
   -9.2595    2.4769   -7.0770 N   0  0  0  0  0  0  0  0  0  0  0  0
   -8.6919    3.8395   -7.1510 C   0  0  0  0  0  0  0  0  0  0  0  0
   -6.4232    5.0299  -15.8611 C   0  0  0  0  0  0  0  0  0  0  0  0
   -6.4252    4.7901  -17.2473 C   0  0  0  0  0  0  0  0  0  0  0  0
   -3.2029    6.2139  -19.0512 C   0  0  2  0  0  0  0  0  0  0  0  0
   -2.3507    5.5302  -20.1373 C   0  0  0  0  0  0  0  0  0  0  0  0
   -4.1692    7.6061  -19.8066 S   0  0  0  0  0  0  0  0  0  0  0  0
   -5.3977    8.1385  -18.6571 C   0  0  0  0  0  0  0  0  0  0  0  0
   -3.2881    8.7531  -19.9813 O   0  0  0  0  0  0  0  0  0  0  0  0
   -4.8847    7.1226  -20.9772 O   0  0  0  0  0  0  0  0  0  0  0  0
  1  2  1  0
  2  3  1  0
  3  4  1  0
  4  5  1  6
  5  6  2  0
  6  7  1  0
  7  8  1  0
  8  9  2  0
  9 10  1  0
  9 11  1  0
 11 12  2  0
 12 13  1  0
 13 14  2  0
 13 15  1  0
 15 16  1  0
 16 17  2  0
 17 18  1  0
 18 19  2  0
 19 20  1  0
 20 21  2  0
 20 22  1  0
 22 23  1  0
 23 24  1  0
 12 25  1  0
 25 26  2  0
  4 27  1  0
 27 28  1  6
 27 29  1  0
 29 30  1  0
 29 31  2  0
 29 32  2  0
 27  2  1  0
 26  5  1  0
 26  8  1  0
 21 16  1  0
 24 19  1  0
M  END
>  <smiles>  (2321) 
C35358-P268

>  <fragmenstein_outcome>  (2321) 
acceptable

>  <inchikey>  (2321) 
OFJSNVYGIXIRCF-UHFFFAOYSA-N

>  <fragmenstein_mode>  (2321) 
expansion

>  <HIPPO Pose ID>  (2321) 
27427

>  <Energy>  (2321) 
123.375817

>  <fragmenstein_error>  (2321) 


>  <tags>  (2321) 
{'openbind_xx01zvns2b_c1_fragmenstein', 'fragmenstein_placed'}

>  <ref_pdb>  (2321) 
175

>  <scratch_subdir>  (2321) 
/opt/xchem-fragalysis-2/maxwin/BulkDock/SCRATCH/511028/C35358-P268

>  <alias>  (2321) 
CN1C[C@@H](c2c[nH]c3c(F)cc(C(=O)Nc4ccc5c(c4)CNC5)cc23)[C@@]1(C)S(C)(=O)=O

>  <HIPPO Compound ID>  (2321) 
43483

>  <fragmenstein_runtime>  (2321) 
11.822835

$$$$
CN1CC(c2c[nH]c3c(Cl)cc([C@@](O)(Nc4ccc5c(c4)CNC5)C(=O)NCC(F)F)cc23)C1
     RDKit          3D

 34 38  0  0  0  0  0  0  0  0999 V2000
   -1.2455    6.7614  -17.8412 C   0  0  0  0  0  0  0  0  0  0  0  0
   -2.4445    6.4440  -17.0637 N   0  0  0  0  0  0  0  0  0  0  0  0
   -2.9009    5.0651  -17.3666 C   0  0  0  0  0  0  0  0  0  0  0  0
   -3.8895    5.6197  -18.4047 C   0  0  0  0  0  0  0  0  0  0  0  0
   -5.3452    5.0738  -18.4044 C   0  0  0  0  0  0  0  0  0  0  0  0
   -6.0095    4.7300  -19.5571 C   0  0  0  0  0  0  0  0  0  0  0  0
   -7.2854    4.3775  -19.2069 N   0  0  0  0  0  0  0  0  0  0  0  0
   -7.4447    4.4655  -17.8450 C   0  0  0  0  0  0  0  0  0  0  0  0
   -8.5765    4.2529  -17.0612 C   0  0  0  0  0  0  0  0  0  0  0  0
  -10.0845    3.9398  -17.8028 Cl  0  0  0  0  0  0  0  0  0  0  0  0
   -8.4730    4.4184  -15.6800 C   0  0  0  0  0  0  0  0  0  0  0  0
   -7.2709    4.8324  -15.0791 C   0  0  0  0  0  0  0  0  0  0  0  0
   -7.2166    5.1502  -13.5815 C   0  0  1  0  0  0  0  0  0  0  0  0
   -7.8630    6.4112  -13.4820 O   0  0  0  0  0  0  0  0  0  0  0  0
   -8.0363    4.2075  -12.8184 N   0  0  0  0  0  0  0  0  0  0  0  0
   -8.1042    4.2339  -11.4128 C   0  0  0  0  0  0  0  0  0  0  0  0
   -7.8802    5.3873  -10.6303 C   0  0  0  0  0  0  0  0  0  0  0  0
   -8.0319    5.3825   -9.2379 C   0  0  0  0  0  0  0  0  0  0  0  0
   -8.4235    4.2107   -8.6276 C   0  0  0  0  0  0  0  0  0  0  0  0
   -8.6855    3.0757   -9.3776 C   0  0  0  0  0  0  0  0  0  0  0  0
   -8.5555    3.0768  -10.7582 C   0  0  0  0  0  0  0  0  0  0  0  0
   -9.1187    1.9736   -8.4751 C   0  0  0  0  0  0  0  0  0  0  0  0
   -8.9017    2.4685   -7.0864 N   0  0  0  0  0  0  0  0  0  0  0  0
   -8.6720    3.9254   -7.1891 C   0  0  0  0  0  0  0  0  0  0  0  0
   -5.7020    5.1772  -13.0313 C   0  0  0  0  0  0  0  0  0  0  0  0
   -5.0551    4.2249  -12.8223 O   0  0  0  0  0  0  0  0  0  0  0  0
   -5.3292    6.6894  -12.9490 N   0  0  0  0  0  0  0  0  0  0  0  0
   -4.1150    7.3330  -12.5016 C   0  0  0  0  0  0  0  0  0  0  0  0
   -4.0239    8.8059  -12.8782 C   0  0  0  0  0  0  0  0  0  0  0  0
   -4.1480    8.9679  -14.2193 F   0  0  0  0  0  0  0  0  0  0  0  0
   -5.0516    9.4907  -12.3107 F   0  0  0  0  0  0  0  0  0  0  0  0
   -6.1587    5.0820  -15.9144 C   0  0  0  0  0  0  0  0  0  0  0  0
   -6.2313    4.8884  -17.3087 C   0  0  0  0  0  0  0  0  0  0  0  0
   -3.6580    6.9829  -17.7239 C   0  0  0  0  0  0  0  0  0  0  0  0
  1  2  1  0
  2  3  1  0
  3  4  1  0
  4  5  1  0
  5  6  2  0
  6  7  1  0
  7  8  1  0
  8  9  2  0
  9 10  1  0
  9 11  1  0
 11 12  2  0
 12 13  1  0
 13 14  1  6
 13 15  1  0
 15 16  1  0
 16 17  2  0
 17 18  1  0
 18 19  2  0
 19 20  1  0
 20 21  2  0
 20 22  1  0
 22 23  1  0
 23 24  1  0
 13 25  1  0
 25 26  2  0
 25 27  1  0
 27 28  1  0
 28 29  1  0
 29 30  1  0
 29 31  1  0
 12 32  1  0
 32 33  2  0
  4 34  1  0
 34  2  1  0
 33  5  1  0
 33  8  1  0
 21 16  1  0
 24 19  1  0
M  END
>  <smiles>  (2322) 
C35334-P268

>  <fragmenstein_outcome>  (2322) 
acceptable

>  <inchikey>  (2322) 
AMPKQYJKAFWMKK-UHFFFAOYSA-N

>  <fragmenstein_mode>  (2322) 
expansion

>  <HIPPO Pose ID>  (2322) 
27437

>  <Energy>  (2322) 
144.177698

>  <fragmenstein_error>  (2322) 


>  <tags>  (2322) 
{'openbind_xx01zvns2b_c1_fragmenstein', 'fragmenstein_placed'}

>  <ref_pdb>  (2322) 
175

>  <scratch_subdir>  (2322) 
/opt/xchem-fragalysis-2/maxwin/BulkDock/SCRATCH/511028/C35334-P268

>  <alias>  (2322) 
CN1CC(c2c[nH]c3c(Cl)cc([C@@](O)(Nc4ccc5c(c4)CNC5)C(=O)NCC(F)F)cc23)C1

>  <HIPPO Compound ID>  (2322) 
35334

>  <fragmenstein_runtime>  (2322) 
6.032557

$$$$
CN1C[C@H](c2c[nH]c3c(F)cc(C(=O)Nc4ccc5c(c4)CNC5)cc23)[C@H]1NCNOCCCO
     RDKit          3D

 35 39  0  0  0  0  0  0  0  0999 V2000
   -1.0903    5.2996  -18.9312 C   0  0  0  0  0  0  0  0  0  0  0  0
   -2.0646    6.2729  -18.4277 N   0  0  0  0  0  0  0  0  0  0  0  0
   -2.9611    5.5948  -17.4510 C   0  0  0  0  0  0  0  0  0  0  0  0
   -4.1579    6.2920  -18.1299 C   0  0  2  0  0  0  0  0  0  0  0  0
   -5.4420    5.4218  -18.2715 C   0  0  0  0  0  0  0  0  0  0  0  0
   -5.9732    4.9159  -19.4324 C   0  0  0  0  0  0  0  0  0  0  0  0
   -7.1666    4.3159  -19.1133 N   0  0  0  0  0  0  0  0  0  0  0  0
   -7.3957    4.4161  -17.7622 C   0  0  0  0  0  0  0  0  0  0  0  0
   -8.4823    3.9860  -17.0039 C   0  0  0  0  0  0  0  0  0  0  0  0
   -9.5013    3.3324  -17.5733 F   0  0  0  0  0  0  0  0  0  0  0  0
   -8.5117    4.2750  -15.6444 C   0  0  0  0  0  0  0  0  0  0  0  0
   -7.4544    4.9736  -15.0597 C   0  0  0  0  0  0  0  0  0  0  0  0
   -7.5071    5.4116  -13.6373 C   0  0  0  0  0  0  0  0  0  0  0  0
   -7.1568    6.5388  -13.4285 O   0  0  0  0  0  0  0  0  0  0  0  0
   -7.9942    4.3999  -12.7444 N   0  0  0  0  0  0  0  0  0  0  0  0
   -8.1218    4.3894  -11.3559 C   0  0  0  0  0  0  0  0  0  0  0  0
   -7.8573    5.5356  -10.5863 C   0  0  0  0  0  0  0  0  0  0  0  0
   -7.9904    5.5134   -9.1947 C   0  0  0  0  0  0  0  0  0  0  0  0
   -8.3847    4.3321   -8.5965 C   0  0  0  0  0  0  0  0  0  0  0  0
   -8.6543    3.1989   -9.3545 C   0  0  0  0  0  0  0  0  0  0  0  0
   -8.5309    3.2066  -10.7344 C   0  0  0  0  0  0  0  0  0  0  0  0
   -9.1031    2.0976   -8.4567 C   0  0  0  0  0  0  0  0  0  0  0  0
   -8.8617    2.5774   -7.0688 N   0  0  0  0  0  0  0  0  0  0  0  0
   -8.6324    4.0359   -7.1587 C   0  0  0  0  0  0  0  0  0  0  0  0
   -6.3499    5.3884  -15.8263 C   0  0  0  0  0  0  0  0  0  0  0  0
   -6.3228    5.1093  -17.2044 C   0  0  0  0  0  0  0  0  0  0  0  0
   -3.2046    6.3892  -19.3621 C   0  0  1  0  0  0  0  0  0  0  0  0
   -3.3326    7.7425  -19.8961 N   0  0  0  0  0  0  0  0  0  0  0  0
   -2.4816    7.9486  -21.0491 C   0  0  0  0  0  0  0  0  0  0  0  0
   -1.2080    8.4838  -20.5945 N   0  0  0  0  0  0  0  0  0  0  0  0
   -1.4869    9.7903  -20.0033 O   0  0  0  0  0  0  0  0  0  0  0  0
   -0.6640   10.7629  -20.6562 C   0  0  0  0  0  0  0  0  0  0  0  0
   -0.8377   12.1068  -19.9568 C   0  0  0  0  0  0  0  0  0  0  0  0
   -2.2526   12.6537  -20.0884 C   0  0  0  0  0  0  0  0  0  0  0  0
   -2.5195   12.9711  -21.4479 O   0  0  0  0  0  0  0  0  0  0  0  0
  1  2  1  0
  2  3  1  0
  3  4  1  0
  4  5  1  6
  5  6  2  0
  6  7  1  0
  7  8  1  0
  8  9  2  0
  9 10  1  0
  9 11  1  0
 11 12  2  0
 12 13  1  0
 13 14  2  0
 13 15  1  0
 15 16  1  0
 16 17  2  0
 17 18  1  0
 18 19  2  0
 19 20  1  0
 20 21  2  0
 20 22  1  0
 22 23  1  0
 23 24  1  0
 12 25  1  0
 25 26  2  0
  4 27  1  0
 27 28  1  1
 28 29  1  0
 29 30  1  0
 30 31  1  0
 31 32  1  0
 32 33  1  0
 33 34  1  0
 34 35  1  0
 27  2  1  0
 26  5  1  0
 26  8  1  0
 21 16  1  0
 24 19  1  0
M  END
>  <smiles>  (2323) 
C35371-P268

>  <fragmenstein_outcome>  (2323) 
acceptable

>  <inchikey>  (2323) 
YKUTXBZPXNLKQT-UHFFFAOYSA-N

>  <fragmenstein_mode>  (2323) 
expansion

>  <HIPPO Pose ID>  (2323) 
27438

>  <Energy>  (2323) 
2.353635

>  <fragmenstein_error>  (2323) 


>  <tags>  (2323) 
{'openbind_xx01zvns2b_c1_fragmenstein', 'fragmenstein_placed'}

>  <ref_pdb>  (2323) 
175

>  <scratch_subdir>  (2323) 
/opt/xchem-fragalysis-2/maxwin/BulkDock/SCRATCH/511028/C35371-P268

>  <alias>  (2323) 
CN1C[C@H](c2c[nH]c3c(F)cc(C(=O)Nc4ccc5c(c4)CNC5)cc23)[C@H]1NCNOCCCO

>  <HIPPO Compound ID>  (2323) 
35371

>  <fragmenstein_runtime>  (2323) 
11.56903

$$$$
CN1CC(c2c[nH]c3c(Cl)cc(C(=O)Nc4ccc5c(c4)CN[C@@H]5CC(=O)O)cc23)C1
     RDKit          3D

 31 35  0  0  0  0  0  0  0  0999 V2000
   -2.3760    6.9694  -15.6035 C   0  0  0  0  0  0  0  0  0  0  0  0
   -3.5398    6.3485  -16.2010 N   0  0  0  0  0  0  0  0  0  0  0  0
   -3.9775    7.0304  -17.4342 C   0  0  0  0  0  0  0  0  0  0  0  0
   -4.0574    5.6553  -18.1344 C   0  0  0  0  0  0  0  0  0  0  0  0
   -5.4851    5.0438  -18.2448 C   0  0  0  0  0  0  0  0  0  0  0  0
   -6.0604    4.6625  -19.4331 C   0  0  0  0  0  0  0  0  0  0  0  0
   -7.3493    4.2863  -19.1603 N   0  0  0  0  0  0  0  0  0  0  0  0
   -7.6003    4.4062  -17.8134 C   0  0  0  0  0  0  0  0  0  0  0  0
   -8.7781    4.2046  -17.0968 C   0  0  0  0  0  0  0  0  0  0  0  0
  -10.2432    3.8998  -17.9050 Cl  0  0  0  0  0  0  0  0  0  0  0  0
   -8.7809    4.4222  -15.7262 C   0  0  0  0  0  0  0  0  0  0  0  0
   -7.6447    4.9167  -15.1077 C   0  0  0  0  0  0  0  0  0  0  0  0
   -7.7075    5.3956  -13.7112 C   0  0  0  0  0  0  0  0  0  0  0  0
   -7.4019    6.4974  -13.4818 O   0  0  0  0  0  0  0  0  0  0  0  0
   -8.2226    4.2867  -12.7750 N   0  0  0  0  0  0  0  0  0  0  0  0
   -8.3749    4.2699  -11.3971 C   0  0  0  0  0  0  0  0  0  0  0  0
   -8.0970    5.4033  -10.6142 C   0  0  0  0  0  0  0  0  0  0  0  0
   -8.1591    5.3432   -9.2189 C   0  0  0  0  0  0  0  0  0  0  0  0
   -8.4976    4.1364   -8.6384 C   0  0  0  0  0  0  0  0  0  0  0  0
   -8.8034    3.0232   -9.4248 C   0  0  0  0  0  0  0  0  0  0  0  0
   -8.7589    3.0721  -10.8027 C   0  0  0  0  0  0  0  0  0  0  0  0
   -9.0315    1.8333   -8.5589 C   0  0  0  0  0  0  0  0  0  0  0  0
   -9.0997    2.3726   -7.1867 N   0  0  0  0  0  0  0  0  0  0  0  0
   -8.3933    3.6815   -7.2199 C   0  0  2  0  0  0  0  0  0  0  0  0
   -8.8449    4.5842   -6.0856 C   0  0  0  0  0  0  0  0  0  0  0  0
   -8.2898    3.9427   -4.8419 C   0  0  0  0  0  0  0  0  0  0  0  0
   -7.0998    3.8473   -4.5596 O   0  0  0  0  0  0  0  0  0  0  0  0
   -9.2516    3.3789   -4.0870 O   0  0  0  0  0  0  0  0  0  0  0  0
   -6.4676    5.1330  -15.8246 C   0  0  0  0  0  0  0  0  0  0  0  0
   -6.4352    4.8707  -17.2060 C   0  0  0  0  0  0  0  0  0  0  0  0
   -3.1538    5.1642  -16.9873 C   0  0  0  0  0  0  0  0  0  0  0  0
  1  2  1  0
  2  3  1  0
  3  4  1  0
  4  5  1  0
  5  6  2  0
  6  7  1  0
  7  8  1  0
  8  9  2  0
  9 10  1  0
  9 11  1  0
 11 12  2  0
 12 13  1  0
 13 14  2  0
 13 15  1  0
 15 16  1  0
 16 17  2  0
 17 18  1  0
 18 19  2  0
 19 20  1  0
 20 21  2  0
 20 22  1  0
 22 23  1  0
 23 24  1  0
 24 25  1  1
 25 26  1  0
 26 27  2  0
 26 28  1  0
 12 29  1  0
 29 30  2  0
  4 31  1  0
 31  2  1  0
 30  5  1  0
 30  8  1  0
 21 16  1  0
 24 19  1  0
M  END
>  <smiles>  (2324) 
C35377-P268

>  <fragmenstein_outcome>  (2324) 
acceptable

>  <inchikey>  (2324) 
MYKGKMVDKCPNRO-UHFFFAOYSA-N

>  <fragmenstein_mode>  (2324) 
expansion

>  <HIPPO Pose ID>  (2324) 
27444

>  <Energy>  (2324) 
60.896749

>  <fragmenstein_error>  (2324) 


>  <tags>  (2324) 
{'openbind_xx01zvns2b_c1_fragmenstein', 'fragmenstein_placed'}

>  <ref_pdb>  (2324) 
175

>  <scratch_subdir>  (2324) 
/opt/xchem-fragalysis-2/maxwin/BulkDock/SCRATCH/511028/C35377-P268

>  <alias>  (2324) 
CN1CC(c2c[nH]c3c(Cl)cc(C(=O)Nc4ccc5c(c4)CN[C@@H]5CC(=O)O)cc23)C1

>  <HIPPO Compound ID>  (2324) 
41676

>  <fragmenstein_runtime>  (2324) 
12.656835

$$$$
CN1CC(c2c[nH]c3ccc(C(=O)Nc4ccc5c(c4)CNC5=O)cc23)C1
     RDKit          3D

 27 31  0  0  0  0  0  0  0  0999 V2000
   -2.8622    5.2465  -19.9177 C   0  0  0  0  0  0  0  0  0  0  0  0
   -3.3311    6.5949  -19.6010 N   0  0  0  0  0  0  0  0  0  0  0  0
   -3.9224    6.5958  -18.2511 C   0  0  0  0  0  0  0  0  0  0  0  0
   -5.3317    6.5983  -18.8426 C   0  0  0  0  0  0  0  0  0  0  0  0
   -6.1625    5.2962  -18.6623 C   0  0  0  0  0  0  0  0  0  0  0  0
   -6.5221    4.4209  -19.6580 C   0  0  0  0  0  0  0  0  0  0  0  0
   -7.6080    3.7255  -19.1994 N   0  0  0  0  0  0  0  0  0  0  0  0
   -7.8292    4.0331  -17.8783 C   0  0  0  0  0  0  0  0  0  0  0  0
   -8.8554    3.6144  -17.0395 C   0  0  0  0  0  0  0  0  0  0  0  0
   -8.8235    4.0520  -15.7156 C   0  0  0  0  0  0  0  0  0  0  0  0
   -7.7942    4.8673  -15.2453 C   0  0  0  0  0  0  0  0  0  0  0  0
   -7.7862    5.3533  -13.8321 C   0  0  0  0  0  0  0  0  0  0  0  0
   -7.5432    6.4816  -13.6430 O   0  0  0  0  0  0  0  0  0  0  0  0
   -8.1708    4.2264  -12.8360 N   0  0  0  0  0  0  0  0  0  0  0  0
   -8.2401    4.2337  -11.4423 C   0  0  0  0  0  0  0  0  0  0  0  0
   -7.9618    5.3981  -10.7032 C   0  0  0  0  0  0  0  0  0  0  0  0
   -8.0409    5.3972   -9.3059 C   0  0  0  0  0  0  0  0  0  0  0  0
   -8.3972    4.2152   -8.6873 C   0  0  0  0  0  0  0  0  0  0  0  0
   -8.6732    3.0513   -9.3997 C   0  0  0  0  0  0  0  0  0  0  0  0
   -8.6005    3.0470  -10.7848 C   0  0  0  0  0  0  0  0  0  0  0  0
   -8.9996    1.9464   -8.4503 C   0  0  0  0  0  0  0  0  0  0  0  0
   -8.9946    2.6185   -7.1676 N   0  0  0  0  0  0  0  0  0  0  0  0
   -8.5545    3.9211   -7.2570 C   0  0  0  0  0  0  0  0  0  0  0  0
   -8.3239    4.6909   -6.3437 O   0  0  0  0  0  0  0  0  0  0  0  0
   -6.8121    5.3420  -16.1287 C   0  0  0  0  0  0  0  0  0  0  0  0
   -6.8423    4.9292  -17.4752 C   0  0  0  0  0  0  0  0  0  0  0  0
   -4.6531    6.8349  -20.2045 C   0  0  0  0  0  0  0  0  0  0  0  0
  1  2  1  0
  2  3  1  0
  3  4  1  0
  4  5  1  0
  5  6  2  0
  6  7  1  0
  7  8  1  0
  8  9  2  0
  9 10  1  0
 10 11  2  0
 11 12  1  0
 12 13  2  0
 12 14  1  0
 14 15  1  0
 15 16  2  0
 16 17  1  0
 17 18  2  0
 18 19  1  0
 19 20  2  0
 19 21  1  0
 21 22  1  0
 22 23  1  0
 23 24  2  0
 11 25  1  0
 25 26  2  0
  4 27  1  0
 27  2  1  0
 26  5  1  0
 26  8  1  0
 20 15  1  0
 23 18  1  0
M  END
>  <smiles>  (2325) 
C35381-P268

>  <fragmenstein_outcome>  (2325) 
acceptable

>  <inchikey>  (2325) 
XJZFPSGQSVQVDI-UHFFFAOYSA-N

>  <fragmenstein_mode>  (2325) 
expansion

>  <HIPPO Pose ID>  (2325) 
27446

>  <Energy>  (2325) 
69.665987

>  <fragmenstein_error>  (2325) 


>  <tags>  (2325) 
{'openbind_xx01zvns2b_c1_fragmenstein', 'fragmenstein_placed'}

>  <ref_pdb>  (2325) 
175

>  <scratch_subdir>  (2325) 
/opt/xchem-fragalysis-2/maxwin/BulkDock/SCRATCH/511028/C35381-P268

>  <alias>  (2325) 
CN1CC(c2c[nH]c3ccc(C(=O)Nc4ccc5c(c4)CNC5=O)cc23)C1

>  <HIPPO Compound ID>  (2325) 
41386

>  <fragmenstein_runtime>  (2325) 
5.22674

$$$$
CN1C[C@]2(NNc3c(C(=O)Nc4ccc5c(c4)CNC5)ccc4[nH]cc2c34)C12CCNCC2
     RDKit          3D

 33 39  0  0  0  0  0  0  0  0999 V2000
   -3.6695    8.9354  -19.7281 C   0  0  0  0  0  0  0  0  0  0  0  0
   -4.3813    7.6786  -19.5673 N   0  0  0  0  0  0  0  0  0  0  0  0
   -5.1151    7.6401  -18.2866 C   0  0  0  0  0  0  0  0  0  0  0  0
   -4.7373    6.1389  -18.1417 C   0  0  1  0  0  0  0  0  0  0  0  0
   -4.2953    5.9142  -16.7188 N   0  0  0  0  0  0  0  0  0  0  0  0
   -5.4161    5.9819  -15.7601 N   0  0  0  0  0  0  0  0  0  0  0  0
   -6.5457    5.1848  -16.0650 C   0  0  0  0  0  0  0  0  0  0  0  0
   -7.6136    4.8673  -15.2121 C   0  0  0  0  0  0  0  0  0  0  0  0
   -7.6052    5.3478  -13.8013 C   0  0  0  0  0  0  0  0  0  0  0  0
   -7.3018    6.4581  -13.6001 O   0  0  0  0  0  0  0  0  0  0  0  0
   -8.0783    4.2433  -12.8234 N   0  0  0  0  0  0  0  0  0  0  0  0
   -8.1812    4.2484  -11.4350 C   0  0  0  0  0  0  0  0  0  0  0  0
   -7.8836    5.4027  -10.6928 C   0  0  0  0  0  0  0  0  0  0  0  0
   -8.0000    5.4096   -9.3000 C   0  0  0  0  0  0  0  0  0  0  0  0
   -8.4013    4.2458   -8.6728 C   0  0  0  0  0  0  0  0  0  0  0  0
   -8.6958    3.1015   -9.4040 C   0  0  0  0  0  0  0  0  0  0  0  0
   -8.5999    3.0841  -10.7863 C   0  0  0  0  0  0  0  0  0  0  0  0
   -9.1269    2.0194   -8.4750 C   0  0  0  0  0  0  0  0  0  0  0  0
   -8.8632    2.5270   -7.1013 N   0  0  0  0  0  0  0  0  0  0  0  0
   -8.6276    3.9817   -7.2255 C   0  0  0  0  0  0  0  0  0  0  0  0
   -8.7478    4.1840  -15.7033 C   0  0  0  0  0  0  0  0  0  0  0  0
   -8.8680    3.7919  -17.0467 C   0  0  0  0  0  0  0  0  0  0  0  0
   -7.8051    4.1197  -17.8774 C   0  0  0  0  0  0  0  0  0  0  0  0
   -7.5925    3.9478  -19.2277 N   0  0  0  0  0  0  0  0  0  0  0  0
   -6.4092    4.5616  -19.6038 C   0  0  0  0  0  0  0  0  0  0  0  0
   -5.8877    5.1468  -18.4852 C   0  0  0  0  0  0  0  0  0  0  0  0
   -6.7064    4.8021  -17.4005 C   0  0  0  0  0  0  0  0  0  0  0  0
   -3.5438    6.4862  -19.1324 C   0  0  0  0  0  0  0  0  0  0  0  0
   -2.1813    6.8473  -18.4947 C   0  0  0  0  0  0  0  0  0  0  0  0
   -1.3756    5.5793  -18.1912 C   0  0  0  0  0  0  0  0  0  0  0  0
   -1.4943    4.5383  -19.2118 N   0  0  0  0  0  0  0  0  0  0  0  0
   -1.9159    5.0863  -20.4928 C   0  0  0  0  0  0  0  0  0  0  0  0
   -3.3464    5.5792  -20.3686 C   0  0  0  0  0  0  0  0  0  0  0  0
  1  2  1  0
  2  3  1  0
  4  3  1  1
  4  5  1  0
  5  6  1  0
  6  7  1  0
  7  8  2  0
  8  9  1  0
  9 10  2  0
  9 11  1  0
 11 12  1  0
 12 13  2  0
 13 14  1  0
 14 15  2  0
 15 16  1  0
 16 17  2  0
 16 18  1  0
 18 19  1  0
 19 20  1  0
  8 21  1  0
 21 22  2  0
 22 23  1  0
 23 24  1  0
 24 25  1  0
 25 26  2  0
 26 27  1  0
  4 28  1  0
 28 29  1  0
 29 30  1  0
 30 31  1  0
 31 32  1  0
 32 33  1  0
 28  2  1  0
 26  4  1  0
 33 28  1  0
 27  7  1  0
 17 12  1  0
 27 23  2  0
 20 15  1  0
M  END
>  <smiles>  (2326) 
C35387-P268

>  <fragmenstein_outcome>  (2326) 
acceptable

>  <inchikey>  (2326) 
AANJCKOQSPVUQC-UHFFFAOYSA-N

>  <fragmenstein_mode>  (2326) 
expansion

>  <HIPPO Pose ID>  (2326) 
27450

>  <Energy>  (2326) 
191.499535

>  <fragmenstein_error>  (2326) 


>  <tags>  (2326) 
{'openbind_xx01zvns2b_c1_fragmenstein', 'fragmenstein_placed'}

>  <ref_pdb>  (2326) 
175

>  <scratch_subdir>  (2326) 
/opt/xchem-fragalysis-2/maxwin/BulkDock/SCRATCH/511028/C35387-P268

>  <alias>  (2326) 
CN1C[C@]2(NNc3c(C(=O)Nc4ccc5c(c4)CNC5)ccc4[nH]cc2c34)C12CCNCC2

>  <HIPPO Compound ID>  (2326) 
35387

>  <fragmenstein_runtime>  (2326) 
5.594772

$$$$
CN1CC2(C1)NCc1c(C(=O)Nc3ccc4c(c3)CNC4)cc(Br)c3[nH]cc2c13
     RDKit          3D

 29 34  0  0  0  0  0  0  0  0999 V2000
   -1.4125    6.7485  -19.3712 C   0  0  0  0  0  0  0  0  0  0  0  0
   -2.0330    6.1841  -18.1786 N   0  0  0  0  0  0  0  0  0  0  0  0
   -3.4021    6.7375  -17.9714 C   0  0  0  0  0  0  0  0  0  0  0  0
   -3.8938    5.3038  -17.6757 C   0  0  0  0  0  0  0  0  0  0  0  0
   -2.6609    4.8648  -18.5030 C   0  0  0  0  0  0  0  0  0  0  0  0
   -3.6690    4.9715  -16.2299 N   0  0  0  0  0  0  0  0  0  0  0  0
   -4.7760    5.4246  -15.3441 C   0  0  0  0  0  0  0  0  0  0  0  0
   -6.1358    4.9887  -15.8219 C   0  0  0  0  0  0  0  0  0  0  0  0
   -7.3013    4.8562  -15.0569 C   0  0  0  0  0  0  0  0  0  0  0  0
   -7.2981    5.2758  -13.6335 C   0  0  0  0  0  0  0  0  0  0  0  0
   -6.8687    6.3291  -13.3691 O   0  0  0  0  0  0  0  0  0  0  0  0
   -7.9598    4.2093  -12.7330 N   0  0  0  0  0  0  0  0  0  0  0  0
   -8.1398    4.1764  -11.3524 C   0  0  0  0  0  0  0  0  0  0  0  0
   -7.9133    5.3181  -10.5659 C   0  0  0  0  0  0  0  0  0  0  0  0
   -8.1101    5.2862   -9.1813 C   0  0  0  0  0  0  0  0  0  0  0  0
   -8.5272    4.0995   -8.6094 C   0  0  0  0  0  0  0  0  0  0  0  0
   -8.7368    2.9638   -9.3856 C   0  0  0  0  0  0  0  0  0  0  0  0
   -8.5602    2.9846  -10.7587 C   0  0  0  0  0  0  0  0  0  0  0  0
   -9.1063    1.8270   -8.4927 C   0  0  0  0  0  0  0  0  0  0  0  0
   -9.4889    2.4573   -7.2020 N   0  0  0  0  0  0  0  0  0  0  0  0
   -8.8006    3.7674   -7.1809 C   0  0  0  0  0  0  0  0  0  0  0  0
   -8.5226    4.4945  -15.6535 C   0  0  0  0  0  0  0  0  0  0  0  0
   -8.6211    4.3123  -17.0388 C   0  0  0  0  0  0  0  0  0  0  0  0
  -10.2771    4.0800  -17.8654 Br  0  0  0  0  0  0  0  0  0  0  0  0
   -7.4705    4.4723  -17.7984 C   0  0  0  0  0  0  0  0  0  0  0  0
   -7.2159    4.4484  -19.1542 N   0  0  0  0  0  0  0  0  0  0  0  0
   -5.8814    4.7316  -19.3965 C   0  0  0  0  0  0  0  0  0  0  0  0
   -5.2979    4.9275  -18.1750 C   0  0  0  0  0  0  0  0  0  0  0  0
   -6.2770    4.7900  -17.1938 C   0  0  0  0  0  0  0  0  0  0  0  0
  1  2  1  0
  2  3  1  0
  3  4  1  0
  4  5  1  0
  4  6  1  0
  6  7  1  0
  7  8  1  0
  8  9  2  0
  9 10  1  0
 10 11  2  0
 10 12  1  0
 12 13  1  0
 13 14  2  0
 14 15  1  0
 15 16  2  0
 16 17  1  0
 17 18  2  0
 17 19  1  0
 19 20  1  0
 20 21  1  0
  9 22  1  0
 22 23  2  0
 23 24  1  0
 23 25  1  0
 25 26  1  0
 26 27  1  0
 27 28  2  0
 28 29  1  0
  5  2  1  0
 29  8  1  0
 28  4  1  0
 18 13  1  0
 29 25  2  0
 21 16  1  0
M  END
>  <smiles>  (2327) 
C35389-P268

>  <fragmenstein_outcome>  (2327) 
acceptable

>  <inchikey>  (2327) 
WOYPELKVNRGONM-UHFFFAOYSA-N

>  <fragmenstein_mode>  (2327) 
expansion

>  <HIPPO Pose ID>  (2327) 
27451

>  <Energy>  (2327) 
95.529973

>  <fragmenstein_error>  (2327) 


>  <tags>  (2327) 
{'openbind_xx01zvns2b_c1_fragmenstein', 'fragmenstein_placed'}

>  <ref_pdb>  (2327) 
175

>  <scratch_subdir>  (2327) 
/opt/xchem-fragalysis-2/maxwin/BulkDock/SCRATCH/511028/C35389-P268

>  <alias>  (2327) 
CN1CC2(C1)NCc1c(C(=O)Nc3ccc4c(c3)CNC4)cc(Br)c3[nH]cc2c13

>  <HIPPO Compound ID>  (2327) 
32201

>  <fragmenstein_runtime>  (2327) 
5.78106

$$$$
CN1CC[C@@H]2c3c([nH]c4ccc(C(=O)Nc5ccc6c(c5)CNC6)cc34)CN[C@H]21
     RDKit          3D

 29 34  0  0  0  0  0  0  0  0999 V2000
   -1.8879    8.1431  -18.8534 C   0  0  0  0  0  0  0  0  0  0  0  0
   -2.0670    6.6958  -18.9073 N   0  0  0  0  0  0  0  0  0  0  0  0
   -1.7212    6.0700  -17.6016 C   0  0  0  0  0  0  0  0  0  0  0  0
   -3.0009    5.4531  -17.0084 C   0  0  0  0  0  0  0  0  0  0  0  0
   -4.0864    6.1839  -17.7575 C   0  0  2  0  0  0  0  0  0  0  0  0
   -5.4267    5.5854  -17.9109 C   0  0  0  0  0  0  0  0  0  0  0  0
   -6.0559    5.6575  -19.1332 C   0  0  0  0  0  0  0  0  0  0  0  0
   -7.2571    5.0008  -19.0309 N   0  0  0  0  0  0  0  0  0  0  0  0
   -7.5100    4.7364  -17.6969 C   0  0  0  0  0  0  0  0  0  0  0  0
   -8.6592    4.2500  -17.0620 C   0  0  0  0  0  0  0  0  0  0  0  0
   -8.6899    4.3206  -15.6614 C   0  0  0  0  0  0  0  0  0  0  0  0
   -7.6068    4.8282  -14.9450 C   0  0  0  0  0  0  0  0  0  0  0  0
   -7.7271    5.2818  -13.5389 C   0  0  0  0  0  0  0  0  0  0  0  0
   -7.3953    6.3759  -13.3039 O   0  0  0  0  0  0  0  0  0  0  0  0
   -8.2430    4.1729  -12.6048 N   0  0  0  0  0  0  0  0  0  0  0  0
   -8.3667    4.1432  -11.2190 C   0  0  0  0  0  0  0  0  0  0  0  0
   -8.1180    5.2971  -10.4544 C   0  0  0  0  0  0  0  0  0  0  0  0
   -8.2242    5.2739   -9.0615 C   0  0  0  0  0  0  0  0  0  0  0  0
   -8.5842    4.0849   -8.4592 C   0  0  0  0  0  0  0  0  0  0  0  0
   -8.8106    2.9368   -9.2128 C   0  0  0  0  0  0  0  0  0  0  0  0
   -8.7149    2.9492  -10.5941 C   0  0  0  0  0  0  0  0  0  0  0  0
   -9.0995    1.8023   -8.2876 C   0  0  0  0  0  0  0  0  0  0  0  0
   -9.4429    2.4416   -6.9908 N   0  0  0  0  0  0  0  0  0  0  0  0
   -8.7887    3.7685   -7.0159 C   0  0  0  0  0  0  0  0  0  0  0  0
   -6.4135    5.1603  -15.5854 C   0  0  0  0  0  0  0  0  0  0  0  0
   -6.3782    5.1372  -16.9813 C   0  0  0  0  0  0  0  0  0  0  0  0
   -5.5302    6.3601  -20.3446 C   0  0  0  0  0  0  0  0  0  0  0  0
   -4.2276    7.0423  -20.0929 N   0  0  0  0  0  0  0  0  0  0  0  0
   -3.4408    6.2449  -19.1568 C   0  0  1  0  0  0  0  0  0  0  0  0
  1  2  1  0
  2  3  1  0
  3  4  1  0
  5  4  1  1
  5  6  1  0
  6  7  2  0
  7  8  1  0
  8  9  1  0
  9 10  2  0
 10 11  1  0
 11 12  2  0
 12 13  1  0
 13 14  2  0
 13 15  1  0
 15 16  1  0
 16 17  2  0
 17 18  1  0
 18 19  2  0
 19 20  1  0
 20 21  2  0
 20 22  1  0
 22 23  1  0
 23 24  1  0
 12 25  1  0
 25 26  2  0
  7 27  1  0
 27 28  1  0
 29 28  1  6
 29  2  1  0
 29  5  1  0
 26  6  1  0
 26  9  1  0
 21 16  1  0
 24 19  1  0
M  END
>  <smiles>  (2328) 
C35383-P83

>  <fragmenstein_outcome>  (2328) 
acceptable

>  <inchikey>  (2328) 
OFLAGGQEKFLVFW-UHFFFAOYSA-N

>  <fragmenstein_mode>  (2328) 
expansion

>  <HIPPO Pose ID>  (2328) 
27453

>  <Energy>  (2328) 
43.192308

>  <fragmenstein_error>  (2328) 


>  <tags>  (2328) 
{'openbind_xx01zvns2b_c1_fragmenstein', 'fragmenstein_placed'}

>  <ref_pdb>  (2328) 
175

>  <scratch_subdir>  (2328) 
/opt/xchem-fragalysis-2/maxwin/BulkDock/SCRATCH/511028/C35383-P83

>  <alias>  (2328) 
CN1CC[C@@H]2c3c([nH]c4ccc(C(=O)Nc5ccc6c(c5)CNC6)cc34)CN[C@H]21

>  <HIPPO Compound ID>  (2328) 
38343

>  <fragmenstein_runtime>  (2328) 
4.409165

$$$$
CCN1CC(c2c[nH]c3ccc(C(=O)Nc4ccc5c(c4)CNC5)cc23)C1
     RDKit          3D

 27 31  0  0  0  0  0  0  0  0999 V2000
   -2.2971    5.6527  -22.5772 C   0  0  0  0  0  0  0  0  0  0  0  0
   -2.1550    5.5401  -21.0652 C   0  0  0  0  0  0  0  0  0  0  0  0
   -3.4210    5.1154  -20.4674 N   0  0  0  0  0  0  0  0  0  0  0  0
   -3.2859    5.0233  -18.9895 C   0  0  0  0  0  0  0  0  0  0  0  0
   -4.6421    5.7411  -18.8487 C   0  0  0  0  0  0  0  0  0  0  0  0
   -5.9207    4.8627  -18.7096 C   0  0  0  0  0  0  0  0  0  0  0  0
   -6.5174    4.1612  -19.7288 C   0  0  0  0  0  0  0  0  0  0  0  0
   -7.7237    3.7134  -19.2708 N   0  0  0  0  0  0  0  0  0  0  0  0
   -7.8654    4.0376  -17.9421 C   0  0  0  0  0  0  0  0  0  0  0  0
   -8.9356    3.7864  -17.0875 C   0  0  0  0  0  0  0  0  0  0  0  0
   -8.8025    4.1863  -15.7591 C   0  0  0  0  0  0  0  0  0  0  0  0
   -7.6510    4.8366  -15.3119 C   0  0  0  0  0  0  0  0  0  0  0  0
   -7.5550    5.3188  -13.9034 C   0  0  0  0  0  0  0  0  0  0  0  0
   -7.1249    6.3892  -13.7124 O   0  0  0  0  0  0  0  0  0  0  0  0
   -8.1210    4.2712  -12.9101 N   0  0  0  0  0  0  0  0  0  0  0  0
   -8.1848    4.2860  -11.5179 C   0  0  0  0  0  0  0  0  0  0  0  0
   -7.8625    5.4398  -10.7874 C   0  0  0  0  0  0  0  0  0  0  0  0
   -7.9571    5.4536   -9.3919 C   0  0  0  0  0  0  0  0  0  0  0  0
   -8.3630    4.2979   -8.7509 C   0  0  0  0  0  0  0  0  0  0  0  0
   -8.6819    3.1531   -9.4702 C   0  0  0  0  0  0  0  0  0  0  0  0
   -8.6063    3.1290  -10.8539 C   0  0  0  0  0  0  0  0  0  0  0  0
   -9.1207    2.0842   -8.5287 C   0  0  0  0  0  0  0  0  0  0  0  0
   -8.8239    2.5941   -7.1622 N   0  0  0  0  0  0  0  0  0  0  0  0
   -8.5742    4.0456   -7.2989 C   0  0  0  0  0  0  0  0  0  0  0  0
   -6.6084    5.1367  -16.2023 C   0  0  0  0  0  0  0  0  0  0  0  0
   -6.7146    4.7206  -17.5438 C   0  0  0  0  0  0  0  0  0  0  0  0
   -4.3521    6.2585  -20.2785 C   0  0  0  0  0  0  0  0  0  0  0  0
  1  2  1  0
  2  3  1  0
  3  4  1  0
  4  5  1  0
  5  6  1  0
  6  7  2  0
  7  8  1  0
  8  9  1  0
  9 10  2  0
 10 11  1  0
 11 12  2  0
 12 13  1  0
 13 14  2  0
 13 15  1  0
 15 16  1  0
 16 17  2  0
 17 18  1  0
 18 19  2  0
 19 20  1  0
 20 21  2  0
 20 22  1  0
 22 23  1  0
 23 24  1  0
 12 25  1  0
 25 26  2  0
  5 27  1  0
 27  3  1  0
 26  6  1  0
 26  9  1  0
 21 16  1  0
 24 19  1  0
M  END
>  <smiles>  (2329) 
C35399-P268

>  <fragmenstein_outcome>  (2329) 
acceptable

>  <inchikey>  (2329) 
BNCIVIKCPPETQA-UHFFFAOYSA-N

>  <fragmenstein_mode>  (2329) 
expansion

>  <HIPPO Pose ID>  (2329) 
27457

>  <Energy>  (2329) 
76.120733

>  <fragmenstein_error>  (2329) 


>  <tags>  (2329) 
{'openbind_xx01zvns2b_c1_fragmenstein', 'fragmenstein_placed'}

>  <ref_pdb>  (2329) 
175

>  <scratch_subdir>  (2329) 
/opt/xchem-fragalysis-2/maxwin/BulkDock/SCRATCH/511028/C35399-P268

>  <alias>  (2329) 
CCN1CC(c2c[nH]c3ccc(C(=O)Nc4ccc5c(c4)CNC5)cc23)C1

>  <HIPPO Compound ID>  (2329) 
35399

>  <fragmenstein_runtime>  (2329) 
7.139148

$$$$
CN1CC[C@H]2c3c([nH]c4c(Cl)cc(C(=O)Nc5ccc6c(c5)CNC6)cc34)CN[C@H]21
     RDKit          3D

 30 35  0  0  0  0  0  0  0  0999 V2000
   -2.3238    7.5312  -21.0649 C   0  0  0  0  0  0  0  0  0  0  0  0
   -3.2703    7.1710  -20.0156 N   0  0  0  0  0  0  0  0  0  0  0  0
   -2.9437    7.8273  -18.7483 C   0  0  0  0  0  0  0  0  0  0  0  0
   -3.7815    7.0731  -17.7267 C   0  0  0  0  0  0  0  0  0  0  0  0
   -3.8653    5.6357  -18.2562 C   0  0  1  0  0  0  0  0  0  0  0  0
   -5.2641    5.1146  -18.2763 C   0  0  0  0  0  0  0  0  0  0  0  0
   -5.8927    4.8356  -19.4661 C   0  0  0  0  0  0  0  0  0  0  0  0
   -7.1747    4.4449  -19.1945 N   0  0  0  0  0  0  0  0  0  0  0  0
   -7.3878    4.4740  -17.8314 C   0  0  0  0  0  0  0  0  0  0  0  0
   -8.5462    4.2303  -17.0906 C   0  0  0  0  0  0  0  0  0  0  0  0
  -10.0164    3.8762  -17.8773 Cl  0  0  0  0  0  0  0  0  0  0  0  0
   -8.5179    4.4137  -15.7102 C   0  0  0  0  0  0  0  0  0  0  0  0
   -7.3512    4.8659  -15.0994 C   0  0  0  0  0  0  0  0  0  0  0  0
   -7.3698    5.3103  -13.6854 C   0  0  0  0  0  0  0  0  0  0  0  0
   -6.9957    6.3926  -13.4551 O   0  0  0  0  0  0  0  0  0  0  0  0
   -7.9642    4.2350  -12.7478 N   0  0  0  0  0  0  0  0  0  0  0  0
   -8.1286    4.2317  -11.3658 C   0  0  0  0  0  0  0  0  0  0  0  0
   -7.8254    5.3738  -10.6059 C   0  0  0  0  0  0  0  0  0  0  0  0
   -7.9770    5.3741   -9.2172 C   0  0  0  0  0  0  0  0  0  0  0  0
   -8.4116    4.2124   -8.6106 C   0  0  0  0  0  0  0  0  0  0  0  0
   -8.7127    3.0807   -9.3594 C   0  0  0  0  0  0  0  0  0  0  0  0
   -8.5938    3.0738  -10.7401 C   0  0  0  0  0  0  0  0  0  0  0  0
   -9.1656    1.9939   -8.4470 C   0  0  0  0  0  0  0  0  0  0  0  0
   -8.9067    2.4811   -7.0651 N   0  0  0  0  0  0  0  0  0  0  0  0
   -8.6629    3.9359   -7.1698 C   0  0  0  0  0  0  0  0  0  0  0  0
   -6.1832    5.1002  -15.8411 C   0  0  0  0  0  0  0  0  0  0  0  0
   -6.2010    4.8983  -17.2322 C   0  0  0  0  0  0  0  0  0  0  0  0
   -5.3209    5.0599  -20.8152 C   0  0  0  0  0  0  0  0  0  0  0  0
   -3.8555    4.9496  -20.7734 N   0  0  0  0  0  0  0  0  0  0  0  0
   -3.2461    5.7393  -19.6968 C   0  0  1  0  0  0  0  0  0  0  0  0
  1  2  1  0
  2  3  1  0
  3  4  1  0
  5  4  1  6
  5  6  1  0
  6  7  2  0
  7  8  1  0
  8  9  1  0
  9 10  2  0
 10 11  1  0
 10 12  1  0
 12 13  2  0
 13 14  1  0
 14 15  2  0
 14 16  1  0
 16 17  1  0
 17 18  2  0
 18 19  1  0
 19 20  2  0
 20 21  1  0
 21 22  2  0
 21 23  1  0
 23 24  1  0
 24 25  1  0
 13 26  1  0
 26 27  2  0
  7 28  1  0
 28 29  1  0
 30 29  1  6
 30  2  1  0
 30  5  1  0
 27  6  1  0
 27  9  1  0
 22 17  1  0
 25 20  1  0
M  END
>  <smiles>  (2330) 
C35400-P268

>  <fragmenstein_outcome>  (2330) 
acceptable

>  <inchikey>  (2330) 
XSTIVRVKJWQJLF-UHFFFAOYSA-N

>  <fragmenstein_mode>  (2330) 
expansion

>  <HIPPO Pose ID>  (2330) 
27465

>  <Energy>  (2330) 
19.741848

>  <fragmenstein_error>  (2330) 


>  <tags>  (2330) 
{'openbind_xx01zvns2b_c1_fragmenstein', 'fragmenstein_placed'}

>  <ref_pdb>  (2330) 
175

>  <scratch_subdir>  (2330) 
/opt/xchem-fragalysis-2/maxwin/BulkDock/SCRATCH/511028/C35400-P268

>  <alias>  (2330) 
CN1CC[C@H]2c3c([nH]c4c(Cl)cc(C(=O)Nc5ccc6c(c5)CNC6)cc34)CN[C@H]21

>  <HIPPO Compound ID>  (2330) 
35400

>  <fragmenstein_runtime>  (2330) 
7.599423

$$$$
CN1C[C@@H](c2c[nH]c3c(Cl)cc(C(=O)Nc4ccc5c(c4)CNC5)cc23)[C@H]1N
     RDKit          3D

 28 32  0  0  0  0  0  0  0  0999 V2000
   -2.3308    7.5283  -16.1729 C   0  0  0  0  0  0  0  0  0  0  0  0
   -3.5326    6.8319  -16.6163 N   0  0  0  0  0  0  0  0  0  0  0  0
   -3.2505    5.3970  -16.8535 C   0  0  0  0  0  0  0  0  0  0  0  0
   -4.0087    5.5007  -18.1922 C   0  0  1  0  0  0  0  0  0  0  0  0
   -5.4812    4.9788  -18.2488 C   0  0  0  0  0  0  0  0  0  0  0  0
   -6.0941    4.6113  -19.4242 C   0  0  0  0  0  0  0  0  0  0  0  0
   -7.3880    4.2827  -19.1251 N   0  0  0  0  0  0  0  0  0  0  0  0
   -7.6041    4.4073  -17.7723 C   0  0  0  0  0  0  0  0  0  0  0  0
   -8.7710    4.2139  -17.0344 C   0  0  0  0  0  0  0  0  0  0  0  0
  -10.2448    3.9089  -17.8386 Cl  0  0  0  0  0  0  0  0  0  0  0  0
   -8.7383    4.4151  -15.6586 C   0  0  0  0  0  0  0  0  0  0  0  0
   -7.5806    4.8962  -15.0617 C   0  0  0  0  0  0  0  0  0  0  0  0
   -7.5918    5.3318  -13.6466 C   0  0  0  0  0  0  0  0  0  0  0  0
   -7.3057    6.4378  -13.4068 O   0  0  0  0  0  0  0  0  0  0  0  0
   -7.9830    4.1728  -12.7053 N   0  0  0  0  0  0  0  0  0  0  0  0
   -8.1893    4.1561  -11.3282 C   0  0  0  0  0  0  0  0  0  0  0  0
   -7.9856    5.3074  -10.5491 C   0  0  0  0  0  0  0  0  0  0  0  0
   -8.1773    5.2802   -9.1638 C   0  0  0  0  0  0  0  0  0  0  0  0
   -8.5701    4.0891   -8.5843 C   0  0  0  0  0  0  0  0  0  0  0  0
   -8.7600    2.9451   -9.3536 C   0  0  0  0  0  0  0  0  0  0  0  0
   -8.5809    2.9593  -10.7260 C   0  0  0  0  0  0  0  0  0  0  0  0
   -9.1110    1.8078   -8.4542 C   0  0  0  0  0  0  0  0  0  0  0  0
   -9.5057    2.4409   -7.1681 N   0  0  0  0  0  0  0  0  0  0  0  0
   -8.8315    3.7585   -7.1534 C   0  0  0  0  0  0  0  0  0  0  0  0
   -6.4228    5.1338  -15.8112 C   0  0  0  0  0  0  0  0  0  0  0  0
   -6.4187    4.8563  -17.1912 C   0  0  0  0  0  0  0  0  0  0  0  0
   -3.7550    7.0313  -18.0520 C   0  0  1  0  0  0  0  0  0  0  0  0
   -4.9634    7.8144  -18.2313 N   0  0  0  0  0  0  0  0  0  0  0  0
  1  2  1  0
  2  3  1  0
  3  4  1  0
  4  5  1  1
  5  6  2  0
  6  7  1  0
  7  8  1  0
  8  9  2  0
  9 10  1  0
  9 11  1  0
 11 12  2  0
 12 13  1  0
 13 14  2  0
 13 15  1  0
 15 16  1  0
 16 17  2  0
 17 18  1  0
 18 19  2  0
 19 20  1  0
 20 21  2  0
 20 22  1  0
 22 23  1  0
 23 24  1  0
 12 25  1  0
 25 26  2  0
  4 27  1  0
 27 28  1  1
 27  2  1  0
 26  5  1  0
 26  8  1  0
 21 16  1  0
 24 19  1  0
M  END
>  <smiles>  (2331) 
C35424-P268

>  <fragmenstein_outcome>  (2331) 
acceptable

>  <inchikey>  (2331) 
OCGLDIOZUGXDBR-UHFFFAOYSA-N

>  <fragmenstein_mode>  (2331) 
expansion

>  <HIPPO Pose ID>  (2331) 
27471

>  <Energy>  (2331) 
41.715373

>  <fragmenstein_error>  (2331) 


>  <tags>  (2331) 
{'openbind_xx01zvns2b_c1_fragmenstein', 'fragmenstein_placed'}

>  <ref_pdb>  (2331) 
175

>  <scratch_subdir>  (2331) 
/opt/xchem-fragalysis-2/maxwin/BulkDock/SCRATCH/511028/C35424-P268

>  <alias>  (2331) 
CN1C[C@@H](c2c[nH]c3c(Cl)cc(C(=O)Nc4ccc5c(c4)CNC5)cc23)[C@H]1N

>  <HIPPO Compound ID>  (2331) 
35424

>  <fragmenstein_runtime>  (2331) 
7.013318

$$$$
CN1CC(N)(c2c[nH]c3c(F)cc(C(=O)Nc4ccc5c(c4)CNC5)cc23)C1
     RDKit          3D

 28 32  0  0  0  0  0  0  0  0999 V2000
   -5.2158    8.2747  -19.8541 C   0  0  0  0  0  0  0  0  0  0  0  0
   -3.9943    7.8342  -19.1871 N   0  0  0  0  0  0  0  0  0  0  0  0
   -4.3001    7.3173  -17.8305 C   0  0  0  0  0  0  0  0  0  0  0  0
   -4.2490    5.8612  -18.3523 C   0  0  0  0  0  0  0  0  0  0  0  0
   -3.2278    5.0979  -17.6266 N   0  0  0  0  0  0  0  0  0  0  0  0
   -5.5969    5.0946  -18.4507 C   0  0  0  0  0  0  0  0  0  0  0  0
   -6.1277    4.5238  -19.5847 C   0  0  0  0  0  0  0  0  0  0  0  0
   -7.3652    4.0278  -19.2611 N   0  0  0  0  0  0  0  0  0  0  0  0
   -7.6109    4.2247  -17.9251 C   0  0  0  0  0  0  0  0  0  0  0  0
   -8.7302    3.8885  -17.1722 C   0  0  0  0  0  0  0  0  0  0  0  0
   -9.7825    3.3024  -17.7525 F   0  0  0  0  0  0  0  0  0  0  0  0
   -8.7484    4.1965  -15.8176 C   0  0  0  0  0  0  0  0  0  0  0  0
   -7.6618    4.8516  -15.2423 C   0  0  0  0  0  0  0  0  0  0  0  0
   -7.7101    5.3188  -13.8325 C   0  0  0  0  0  0  0  0  0  0  0  0
   -7.4528    6.4387  -13.6218 O   0  0  0  0  0  0  0  0  0  0  0  0
   -8.1435    4.1909  -12.8669 N   0  0  0  0  0  0  0  0  0  0  0  0
   -8.2549    4.1817  -11.4775 C   0  0  0  0  0  0  0  0  0  0  0  0
   -8.0118    5.3384  -10.7184 C   0  0  0  0  0  0  0  0  0  0  0  0
   -8.1445    5.3247   -9.3251 C   0  0  0  0  0  0  0  0  0  0  0  0
   -8.5191    4.1417   -8.7164 C   0  0  0  0  0  0  0  0  0  0  0  0
   -8.7402    2.9893   -9.4636 C   0  0  0  0  0  0  0  0  0  0  0  0
   -8.6172    2.9904  -10.8432 C   0  0  0  0  0  0  0  0  0  0  0  0
   -9.0701    1.8654   -8.5381 C   0  0  0  0  0  0  0  0  0  0  0  0
   -9.4116    2.5161   -7.2455 N   0  0  0  0  0  0  0  0  0  0  0  0
   -8.7380    3.8338   -7.2735 C   0  0  0  0  0  0  0  0  0  0  0  0
   -6.5367    5.2024  -16.0093 C   0  0  0  0  0  0  0  0  0  0  0  0
   -6.5087    4.8801  -17.3801 C   0  0  0  0  0  0  0  0  0  0  0  0
   -3.6312    6.4683  -19.6355 C   0  0  0  0  0  0  0  0  0  0  0  0
  1  2  1  0
  2  3  1  0
  3  4  1  0
  4  5  1  0
  4  6  1  0
  6  7  2  0
  7  8  1  0
  8  9  1  0
  9 10  2  0
 10 11  1  0
 10 12  1  0
 12 13  2  0
 13 14  1  0
 14 15  2  0
 14 16  1  0
 16 17  1  0
 17 18  2  0
 18 19  1  0
 19 20  2  0
 20 21  1  0
 21 22  2  0
 21 23  1  0
 23 24  1  0
 24 25  1  0
 13 26  1  0
 26 27  2  0
  4 28  1  0
 28  2  1  0
 27  6  1  0
 27  9  1  0
 22 17  1  0
 25 20  1  0
M  END
>  <smiles>  (2332) 
C35427-P268

>  <fragmenstein_outcome>  (2332) 
acceptable

>  <inchikey>  (2332) 
PNVTWFSTHBDLAV-UHFFFAOYSA-N

>  <fragmenstein_mode>  (2332) 
expansion

>  <HIPPO Pose ID>  (2332) 
27473

>  <Energy>  (2332) 
93.28729

>  <fragmenstein_error>  (2332) 


>  <tags>  (2332) 
{'openbind_xx01zvns2b_c1_fragmenstein', 'fragmenstein_placed'}

>  <ref_pdb>  (2332) 
175

>  <scratch_subdir>  (2332) 
/opt/xchem-fragalysis-2/maxwin/BulkDock/SCRATCH/511028/C35427-P268

>  <alias>  (2332) 
CN1CC(N)(c2c[nH]c3c(F)cc(C(=O)Nc4ccc5c(c4)CNC5)cc23)C1

>  <HIPPO Compound ID>  (2332) 
39690

>  <fragmenstein_runtime>  (2332) 
4.491087

$$$$
CNCc1[nH]c2c(F)cc(C(=O)Nc3ccc4c(c3)CNC4)cc2c1C1CN(C)C1
     RDKit          3D

 30 34  0  0  0  0  0  0  0  0999 V2000
   -3.4460    4.2242  -21.7032 C   0  0  0  0  0  0  0  0  0  0  0  0
   -4.8955    4.2550  -21.5662 N   0  0  0  0  0  0  0  0  0  0  0  0
   -5.3027    5.3955  -20.7551 C   0  0  0  0  0  0  0  0  0  0  0  0
   -5.8492    5.0214  -19.4132 C   0  0  0  0  0  0  0  0  0  0  0  0
   -7.0818    4.4134  -19.2556 N   0  0  0  0  0  0  0  0  0  0  0  0
   -7.4325    4.3632  -17.9241 C   0  0  0  0  0  0  0  0  0  0  0  0
   -8.6104    3.9262  -17.3071 C   0  0  0  0  0  0  0  0  0  0  0  0
   -9.6037    3.3942  -18.0273 F   0  0  0  0  0  0  0  0  0  0  0  0
   -8.7775    4.1152  -15.9352 C   0  0  0  0  0  0  0  0  0  0  0  0
   -7.7583    4.7024  -15.2011 C   0  0  0  0  0  0  0  0  0  0  0  0
   -7.9501    5.1998  -13.8176 C   0  0  0  0  0  0  0  0  0  0  0  0
   -7.7751    6.3394  -13.6344 O   0  0  0  0  0  0  0  0  0  0  0  0
   -8.2864    4.0685  -12.8266 N   0  0  0  0  0  0  0  0  0  0  0  0
   -8.3819    4.0814  -11.4357 C   0  0  0  0  0  0  0  0  0  0  0  0
   -8.1219    5.2569  -10.7083 C   0  0  0  0  0  0  0  0  0  0  0  0
   -8.1893    5.2711   -9.3113 C   0  0  0  0  0  0  0  0  0  0  0  0
   -8.5209    4.0969   -8.6632 C   0  0  0  0  0  0  0  0  0  0  0  0
   -8.7751    2.9330   -9.3787 C   0  0  0  0  0  0  0  0  0  0  0  0
   -8.7094    2.9045  -10.7636 C   0  0  0  0  0  0  0  0  0  0  0  0
   -9.0655    1.8230   -8.4275 C   0  0  0  0  0  0  0  0  0  0  0  0
   -9.2135    2.4585   -7.0922 N   0  0  0  0  0  0  0  0  0  0  0  0
   -8.6570    3.8225   -7.2051 C   0  0  0  0  0  0  0  0  0  0  0  0
   -6.5405    5.0406  -15.8049 C   0  0  0  0  0  0  0  0  0  0  0  0
   -6.3802    4.9152  -17.1965 C   0  0  0  0  0  0  0  0  0  0  0  0
   -5.3921    5.3133  -18.1377 C   0  0  0  0  0  0  0  0  0  0  0  0
   -4.0743    6.1193  -17.8523 C   0  0  0  0  0  0  0  0  0  0  0  0
   -2.8599    5.3075  -17.3579 C   0  0  0  0  0  0  0  0  0  0  0  0
   -3.1910    5.7218  -15.9720 N   0  0  0  0  0  0  0  0  0  0  0  0
   -1.9980    6.1590  -15.2577 C   0  0  0  0  0  0  0  0  0  0  0  0
   -3.9262    6.8853  -16.5237 C   0  0  0  0  0  0  0  0  0  0  0  0
  1  2  1  0
  2  3  1  0
  3  4  1  0
  4  5  1  0
  5  6  1  0
  6  7  2  0
  7  8  1  0
  7  9  1  0
  9 10  2  0
 10 11  1  0
 11 12  2  0
 11 13  1  0
 13 14  1  0
 14 15  2  0
 15 16  1  0
 16 17  2  0
 17 18  1  0
 18 19  2  0
 18 20  1  0
 20 21  1  0
 21 22  1  0
 10 23  1  0
 23 24  2  0
 24 25  1  0
 25 26  1  0
 26 27  1  0
 27 28  1  0
 28 29  1  0
 28 30  1  0
 25  4  2  0
 30 26  1  0
 24  6  1  0
 19 14  1  0
 22 17  1  0
M  END
>  <smiles>  (2333) 
C35397-P268

>  <fragmenstein_outcome>  (2333) 
acceptable

>  <inchikey>  (2333) 
IFKLLENXPZZRBY-UHFFFAOYSA-N

>  <fragmenstein_mode>  (2333) 
expansion

>  <HIPPO Pose ID>  (2333) 
27474

>  <Energy>  (2333) 
63.957253

>  <fragmenstein_error>  (2333) 


>  <tags>  (2333) 
{'openbind_xx01zvns2b_c1_fragmenstein', 'fragmenstein_placed'}

>  <ref_pdb>  (2333) 
175

>  <scratch_subdir>  (2333) 
/opt/xchem-fragalysis-2/maxwin/BulkDock/SCRATCH/511028/C35397-P268

>  <alias>  (2333) 
CNCc1[nH]c2c(F)cc(C(=O)Nc3ccc4c(c3)CNC4)cc2c1C1CN(C)C1

>  <HIPPO Compound ID>  (2333) 
35397

>  <fragmenstein_runtime>  (2333) 
6.103499

$$$$
CNCc1[nH]c2c(Cl)cc(C(=O)Nc3ccc4c(c3)CNC4)cc2c1C1CN(C)C1
     RDKit          3D

 30 34  0  0  0  0  0  0  0  0999 V2000
   -4.9005    6.3109  -22.6591 C   0  0  0  0  0  0  0  0  0  0  0  0
   -5.3383    6.2197  -21.2795 N   0  0  0  0  0  0  0  0  0  0  0  0
   -5.3578    4.8438  -20.7962 C   0  0  0  0  0  0  0  0  0  0  0  0
   -5.8512    4.8461  -19.3916 C   0  0  0  0  0  0  0  0  0  0  0  0
   -7.1135    4.3774  -19.0965 N   0  0  0  0  0  0  0  0  0  0  0  0
   -7.3793    4.5038  -17.7538 C   0  0  0  0  0  0  0  0  0  0  0  0
   -8.5384    4.2188  -17.0334 C   0  0  0  0  0  0  0  0  0  0  0  0
   -9.9518    3.7414  -17.8519 Cl  0  0  0  0  0  0  0  0  0  0  0  0
   -8.5552    4.4479  -15.6613 C   0  0  0  0  0  0  0  0  0  0  0  0
   -7.4406    5.0105  -15.0445 C   0  0  0  0  0  0  0  0  0  0  0  0
   -7.4996    5.4296  -13.6225 C   0  0  0  0  0  0  0  0  0  0  0  0
   -7.1627    6.5150  -13.3543 O   0  0  0  0  0  0  0  0  0  0  0  0
   -8.0519    4.3012  -12.7230 N   0  0  0  0  0  0  0  0  0  0  0  0
   -8.2105    4.2422  -11.3413 C   0  0  0  0  0  0  0  0  0  0  0  0
   -8.0068    5.3790  -10.5436 C   0  0  0  0  0  0  0  0  0  0  0  0
   -8.1612    5.3163   -9.1561 C   0  0  0  0  0  0  0  0  0  0  0  0
   -8.5184    4.1059   -8.5918 C   0  0  0  0  0  0  0  0  0  0  0  0
   -8.7203    2.9797   -9.3794 C   0  0  0  0  0  0  0  0  0  0  0  0
   -8.5753    3.0275  -10.7566 C   0  0  0  0  0  0  0  0  0  0  0  0
   -9.0458    1.8169   -8.5061 C   0  0  0  0  0  0  0  0  0  0  0  0
   -9.2480    2.3711   -7.1417 N   0  0  0  0  0  0  0  0  0  0  0  0
   -8.7267    3.7537   -7.1595 C   0  0  0  0  0  0  0  0  0  0  0  0
   -6.2928    5.3412  -15.7807 C   0  0  0  0  0  0  0  0  0  0  0  0
   -6.2577    5.0708  -17.1607 C   0  0  0  0  0  0  0  0  0  0  0  0
   -5.3298    5.3282  -18.2055 C   0  0  0  0  0  0  0  0  0  0  0  0
   -4.0455    6.1795  -17.9889 C   0  0  0  0  0  0  0  0  0  0  0  0
   -2.9489    6.2121  -19.0744 C   0  0  0  0  0  0  0  0  0  0  0  0
   -1.9524    6.3013  -17.9659 N   0  0  0  0  0  0  0  0  0  0  0  0
   -0.7869    5.4810  -18.2799 C   0  0  0  0  0  0  0  0  0  0  0  0
   -2.9272    5.5501  -17.1208 C   0  0  0  0  0  0  0  0  0  0  0  0
  1  2  1  0
  2  3  1  0
  3  4  1  0
  4  5  1  0
  5  6  1  0
  6  7  2  0
  7  8  1  0
  7  9  1  0
  9 10  2  0
 10 11  1  0
 11 12  2  0
 11 13  1  0
 13 14  1  0
 14 15  2  0
 15 16  1  0
 16 17  2  0
 17 18  1  0
 18 19  2  0
 18 20  1  0
 20 21  1  0
 21 22  1  0
 10 23  1  0
 23 24  2  0
 24 25  1  0
 25 26  1  0
 26 27  1  0
 27 28  1  0
 28 29  1  0
 28 30  1  0
 25  4  2  0
 30 26  1  0
 24  6  1  0
 19 14  1  0
 22 17  1  0
M  END
>  <smiles>  (2334) 
C35401-P268

>  <fragmenstein_outcome>  (2334) 
acceptable

>  <inchikey>  (2334) 
ULLLIQWBLCJSLQ-UHFFFAOYSA-N

>  <fragmenstein_mode>  (2334) 
expansion

>  <HIPPO Pose ID>  (2334) 
27475

>  <Energy>  (2334) 
56.948714

>  <fragmenstein_error>  (2334) 


>  <tags>  (2334) 
{'openbind_xx01zvns2b_c1_fragmenstein', 'fragmenstein_placed'}

>  <ref_pdb>  (2334) 
175

>  <scratch_subdir>  (2334) 
/opt/xchem-fragalysis-2/maxwin/BulkDock/SCRATCH/511028/C35401-P268

>  <alias>  (2334) 
CNCc1[nH]c2c(Cl)cc(C(=O)Nc3ccc4c(c3)CNC4)cc2c1C1CN(C)C1

>  <HIPPO Compound ID>  (2334) 
35401

>  <fragmenstein_runtime>  (2334) 
7.942179

$$$$
CC(C)NC(=O)[C@@](O)(Nc1ccc2c(c1)CNC2)c1cc(Cl)c2[nH]cc(C3CN(C)C3)c2c1
     RDKit          3D

 33 37  0  0  0  0  0  0  0  0999 V2000
   -7.9505    9.1420  -11.2935 C   0  0  0  0  0  0  0  0  0  0  0  0
   -7.6758    9.0053  -12.7869 C   0  0  0  0  0  0  0  0  0  0  0  0
   -6.5294    9.9051  -13.2263 C   0  0  0  0  0  0  0  0  0  0  0  0
   -7.3975    7.6281  -13.1197 N   0  0  0  0  0  0  0  0  0  0  0  0
   -8.3685    6.4385  -13.4078 C   0  0  0  0  0  0  0  0  0  0  0  0
   -9.5374    6.4165  -13.4941 O   0  0  0  0  0  0  0  0  0  0  0  0
   -7.4225    5.1436  -13.5995 C   0  0  1  0  0  0  0  0  0  0  0  0
   -6.0849    5.3540  -13.1710 O   0  0  0  0  0  0  0  0  0  0  0  0
   -7.8973    4.0184  -12.7963 N   0  0  0  0  0  0  0  0  0  0  0  0
   -8.1216    4.1051  -11.4126 C   0  0  0  0  0  0  0  0  0  0  0  0
   -7.7437    5.2055  -10.6123 C   0  0  0  0  0  0  0  0  0  0  0  0
   -7.9219    5.2249   -9.2249 C   0  0  0  0  0  0  0  0  0  0  0  0
   -8.4184    4.0935   -8.6223 C   0  0  0  0  0  0  0  0  0  0  0  0
   -8.7460    2.9775   -9.3757 C   0  0  0  0  0  0  0  0  0  0  0  0
   -8.6194    2.9708  -10.7577 C   0  0  0  0  0  0  0  0  0  0  0  0
   -9.2137    1.8956   -8.4671 C   0  0  0  0  0  0  0  0  0  0  0  0
   -8.9541    2.3749   -7.0824 N   0  0  0  0  0  0  0  0  0  0  0  0
   -8.6922    3.8254   -7.1854 C   0  0  0  0  0  0  0  0  0  0  0  0
   -7.3960    4.8170  -15.0948 C   0  0  0  0  0  0  0  0  0  0  0  0
   -8.5776    4.4358  -15.7467 C   0  0  0  0  0  0  0  0  0  0  0  0
   -8.6335    4.2897  -17.1297 C   0  0  0  0  0  0  0  0  0  0  0  0
  -10.1251    3.9926  -17.9045 Cl  0  0  0  0  0  0  0  0  0  0  0  0
   -7.4716    4.4903  -17.8677 C   0  0  0  0  0  0  0  0  0  0  0  0
   -7.2662    4.4277  -19.2239 N   0  0  0  0  0  0  0  0  0  0  0  0
   -5.9561    4.6977  -19.5178 C   0  0  0  0  0  0  0  0  0  0  0  0
   -5.3208    4.9725  -18.3319 C   0  0  0  0  0  0  0  0  0  0  0  0
   -3.8211    5.3333  -18.1582 C   0  0  0  0  0  0  0  0  0  0  0  0
   -3.0375    5.7666  -19.4176 C   0  0  0  0  0  0  0  0  0  0  0  0
   -2.4573    6.9036  -18.6612 N   0  0  0  0  0  0  0  0  0  0  0  0
   -1.1599    6.5263  -18.0963 C   0  0  0  0  0  0  0  0  0  0  0  0
   -3.5355    6.7616  -17.6541 C   0  0  0  0  0  0  0  0  0  0  0  0
   -6.2632    4.8450  -17.2756 C   0  0  0  0  0  0  0  0  0  0  0  0
   -6.2305    5.0112  -15.8747 C   0  0  0  0  0  0  0  0  0  0  0  0
  1  2  1  0
  2  3  1  0
  2  4  1  0
  4  5  1  0
  5  6  2  0
  5  7  1  0
  7  8  1  1
  7  9  1  0
  9 10  1  0
 10 11  2  0
 11 12  1  0
 12 13  2  0
 13 14  1  0
 14 15  2  0
 14 16  1  0
 16 17  1  0
 17 18  1  0
  7 19  1  0
 19 20  2  0
 20 21  1  0
 21 22  1  0
 21 23  2  0
 23 24  1  0
 24 25  1  0
 25 26  2  0
 26 27  1  0
 27 28  1  0
 28 29  1  0
 29 30  1  0
 29 31  1  0
 26 32  1  0
 32 33  2  0
 15 10  1  0
 33 19  1  0
 18 13  1  0
 32 23  1  0
 31 27  1  0
M  END
>  <smiles>  (2335) 
C35429-P268

>  <fragmenstein_outcome>  (2335) 
acceptable

>  <inchikey>  (2335) 
CJOXTPXWBBOVDC-UHFFFAOYSA-N

>  <fragmenstein_mode>  (2335) 
expansion

>  <HIPPO Pose ID>  (2335) 
27476

>  <Energy>  (2335) 
116.370699

>  <fragmenstein_error>  (2335) 


>  <tags>  (2335) 
{'openbind_xx01zvns2b_c1_fragmenstein', 'fragmenstein_placed'}

>  <ref_pdb>  (2335) 
175

>  <scratch_subdir>  (2335) 
/opt/xchem-fragalysis-2/maxwin/BulkDock/SCRATCH/511028/C35429-P268

>  <alias>  (2335) 
CC(C)NC(=O)[C@@](O)(Nc1ccc2c(c1)CNC2)c1cc(Cl)c2[nH]cc(C3CN(C)C3)c2c1

>  <HIPPO Compound ID>  (2335) 
35429

>  <fragmenstein_runtime>  (2335) 
4.598102

$$$$
CN1CC(c2c(N)[nH]c3c(Br)cc(C(=O)Nc4ccc5c(c4)CNC5)cc23)C1
     RDKit          3D

 28 32  0  0  0  0  0  0  0  0999 V2000
   -1.1574    6.7186  -17.7736 C   0  0  0  0  0  0  0  0  0  0  0  0
   -2.3787    6.4320  -17.0190 N   0  0  0  0  0  0  0  0  0  0  0  0
   -2.8394    5.0500  -17.2951 C   0  0  0  0  0  0  0  0  0  0  0  0
   -3.8029    5.5834  -18.3633 C   0  0  0  0  0  0  0  0  0  0  0  0
   -5.2640    5.0522  -18.3699 C   0  0  0  0  0  0  0  0  0  0  0  0
   -5.9458    4.7277  -19.5177 C   0  0  0  0  0  0  0  0  0  0  0  0
   -5.6238    4.7691  -20.8304 N   0  0  0  0  0  0  0  0  0  0  0  0
   -7.2101    4.3635  -19.1591 N   0  0  0  0  0  0  0  0  0  0  0  0
   -7.3754    4.4862  -17.8023 C   0  0  0  0  0  0  0  0  0  0  0  0
   -8.5244    4.3170  -17.0334 C   0  0  0  0  0  0  0  0  0  0  0  0
  -10.1729    4.0562  -17.8818 Br  0  0  0  0  0  0  0  0  0  0  0  0
   -8.4535    4.5193  -15.6616 C   0  0  0  0  0  0  0  0  0  0  0  0
   -7.2518    4.9357  -15.0922 C   0  0  0  0  0  0  0  0  0  0  0  0
   -7.2209    5.3537  -13.6673 C   0  0  0  0  0  0  0  0  0  0  0  0
   -6.7560    6.3941  -13.4101 O   0  0  0  0  0  0  0  0  0  0  0  0
   -7.9086    4.3098  -12.7558 N   0  0  0  0  0  0  0  0  0  0  0  0
   -8.0767    4.2870  -11.3738 C   0  0  0  0  0  0  0  0  0  0  0  0
   -7.7907    5.4233  -10.6000 C   0  0  0  0  0  0  0  0  0  0  0  0
   -7.9578    5.4077   -9.2131 C   0  0  0  0  0  0  0  0  0  0  0  0
   -8.3938    4.2377   -8.6226 C   0  0  0  0  0  0  0  0  0  0  0  0
   -8.6814    3.1120   -9.3856 C   0  0  0  0  0  0  0  0  0  0  0  0
   -8.5445    3.1199  -10.7649 C   0  0  0  0  0  0  0  0  0  0  0  0
   -9.1446    2.0158   -8.4894 C   0  0  0  0  0  0  0  0  0  0  0  0
   -8.9026    2.4900   -7.0993 N   0  0  0  0  0  0  0  0  0  0  0  0
   -8.6601    3.9462   -7.1875 C   0  0  0  0  0  0  0  0  0  0  0  0
   -6.1029    5.1425  -15.8776 C   0  0  0  0  0  0  0  0  0  0  0  0
   -6.1578    4.9045  -17.2665 C   0  0  0  0  0  0  0  0  0  0  0  0
   -3.5701    6.9638  -17.7217 C   0  0  0  0  0  0  0  0  0  0  0  0
  1  2  1  0
  2  3  1  0
  3  4  1  0
  4  5  1  0
  5  6  2  0
  6  7  1  0
  6  8  1  0
  8  9  1  0
  9 10  2  0
 10 11  1  0
 10 12  1  0
 12 13  2  0
 13 14  1  0
 14 15  2  0
 14 16  1  0
 16 17  1  0
 17 18  2  0
 18 19  1  0
 19 20  2  0
 20 21  1  0
 21 22  2  0
 21 23  1  0
 23 24  1  0
 24 25  1  0
 13 26  1  0
 26 27  2  0
  4 28  1  0
 28  2  1  0
 27  5  1  0
 27  9  1  0
 22 17  1  0
 25 20  1  0
M  END
>  <smiles>  (2336) 
C35433-P268

>  <fragmenstein_outcome>  (2336) 
acceptable

>  <inchikey>  (2336) 
GDIRKASRWGPDSM-UHFFFAOYSA-N

>  <fragmenstein_mode>  (2336) 
expansion

>  <HIPPO Pose ID>  (2336) 
27477

>  <Energy>  (2336) 
64.818201

>  <fragmenstein_error>  (2336) 


>  <tags>  (2336) 
{'openbind_xx01zvns2b_c1_fragmenstein', 'fragmenstein_placed'}

>  <ref_pdb>  (2336) 
175

>  <scratch_subdir>  (2336) 
/opt/xchem-fragalysis-2/maxwin/BulkDock/SCRATCH/511028/C35433-P268

>  <alias>  (2336) 
CN1CC(c2c(N)[nH]c3c(Br)cc(C(=O)Nc4ccc5c(c4)CNC5)cc23)C1

>  <HIPPO Compound ID>  (2336) 
35433

>  <fragmenstein_runtime>  (2336) 
4.64257

$$$$
O=C(Nc1ccc2c(c1)CNC2)c1cc(F)c2c(c1)C1=C3CCCC3=CC1=N2
     RDKit          3D

 28 33  0  0  0  0  0  0  0  0999 V2000
   -7.8349    6.4141  -13.4018 O   0  0  0  0  0  0  0  0  0  0  0  0
   -8.0639    5.2909  -13.6181 C   0  0  0  0  0  0  0  0  0  0  0  0
   -8.4162    4.1414  -12.6575 N   0  0  0  0  0  0  0  0  0  0  0  0
   -8.4671    4.1084  -11.2676 C   0  0  0  0  0  0  0  0  0  0  0  0
   -8.2319    5.2691  -10.5089 C   0  0  0  0  0  0  0  0  0  0  0  0
   -8.3029    5.2415   -9.1136 C   0  0  0  0  0  0  0  0  0  0  0  0
   -8.6247    4.0441   -8.5060 C   0  0  0  0  0  0  0  0  0  0  0  0
   -8.8353    2.8902   -9.2562 C   0  0  0  0  0  0  0  0  0  0  0  0
   -8.7533    2.8993  -10.6365 C   0  0  0  0  0  0  0  0  0  0  0  0
   -9.1206    1.7560   -8.3315 C   0  0  0  0  0  0  0  0  0  0  0  0
   -9.4742    2.3986   -7.0387 N   0  0  0  0  0  0  0  0  0  0  0  0
   -8.8111    3.7215   -7.0621 C   0  0  0  0  0  0  0  0  0  0  0  0
   -7.9134    4.8157  -15.0101 C   0  0  0  0  0  0  0  0  0  0  0  0
   -8.9284    4.1378  -15.7086 C   0  0  0  0  0  0  0  0  0  0  0  0
   -8.7949    3.8602  -17.0765 C   0  0  0  0  0  0  0  0  0  0  0  0
   -9.8180    3.3160  -17.7466 F   0  0  0  0  0  0  0  0  0  0  0  0
   -7.6309    4.2130  -17.7244 C   0  0  0  0  0  0  0  0  0  0  0  0
   -6.6404    4.8808  -16.9756 C   0  0  0  0  0  0  0  0  0  0  0  0
   -6.7375    5.1903  -15.6456 C   0  0  0  0  0  0  0  0  0  0  0  0
   -5.6664    5.2098  -17.9419 C   0  0  0  0  0  0  0  0  0  0  0  0
   -4.5077    5.7795  -18.1929 C   0  0  0  0  0  0  0  0  0  0  0  0
   -3.4215    6.4379  -17.4509 C   0  0  0  0  0  0  0  0  0  0  0  0
   -2.2646    6.2949  -18.4592 C   0  0  0  0  0  0  0  0  0  0  0  0
   -2.8952    6.2563  -19.8679 C   0  0  0  0  0  0  0  0  0  0  0  0
   -4.2239    5.6582  -19.5961 C   0  0  0  0  0  0  0  0  0  0  0  0
   -5.1781    5.0052  -20.2745 C   0  0  0  0  0  0  0  0  0  0  0  0
   -6.1560    4.6800  -19.2260 C   0  0  0  0  0  0  0  0  0  0  0  0
   -7.2849    4.0547  -19.1088 N   0  0  0  0  0  0  0  0  0  0  0  0
  1  2  2  0
  2  3  1  0
  3  4  1  0
  4  5  2  0
  5  6  1  0
  6  7  2  0
  7  8  1  0
  8  9  2  0
  8 10  1  0
 10 11  1  0
 11 12  1  0
  2 13  1  0
 13 14  2  0
 14 15  1  0
 15 16  1  0
 15 17  2  0
 17 18  1  0
 18 19  2  0
 18 20  1  0
 20 21  2  0
 21 22  1  0
 22 23  1  0
 23 24  1  0
 24 25  1  0
 25 26  2  0
 26 27  1  0
 27 28  2  0
  9  4  1  0
 19 13  1  0
 27 20  1  0
 12  7  1  0
 28 17  1  0
 25 21  1  0
M  END
>  <smiles>  (2337) 
C35434-P268

>  <fragmenstein_outcome>  (2337) 
acceptable

>  <inchikey>  (2337) 
JZVSCASNLBYTRB-UHFFFAOYSA-N

>  <fragmenstein_mode>  (2337) 
expansion

>  <HIPPO Pose ID>  (2337) 
27478

>  <Energy>  (2337) 
100.336071

>  <fragmenstein_error>  (2337) 


>  <tags>  (2337) 
{'openbind_xx01zvns2b_c1_fragmenstein', 'fragmenstein_placed'}

>  <ref_pdb>  (2337) 
175

>  <scratch_subdir>  (2337) 
/opt/xchem-fragalysis-2/maxwin/BulkDock/SCRATCH/511028/C35434-P268

>  <alias>  (2337) 
O=C(Nc1ccc2c(c1)CNC2)c1cc(F)c2c(c1)C1=C3CCCC3=CC1=N2

>  <HIPPO Compound ID>  (2337) 
35434

>  <fragmenstein_runtime>  (2337) 
4.540883

$$$$
O=C(Nc1ccc2c(c1)CNC2)c1cc(Cl)c2[nH]nc(CC3CNC3)c2c1
     RDKit          3D

 27 31  0  0  0  0  0  0  0  0999 V2000
   -6.9310    6.2803  -13.6586 O   0  0  0  0  0  0  0  0  0  0  0  0
   -7.3682    5.2180  -13.8792 C   0  0  0  0  0  0  0  0  0  0  0  0
   -7.9734    4.1583  -12.9167 N   0  0  0  0  0  0  0  0  0  0  0  0
   -8.0740    4.1507  -11.5223 C   0  0  0  0  0  0  0  0  0  0  0  0
   -7.7981    5.2907  -10.7526 C   0  0  0  0  0  0  0  0  0  0  0  0
   -7.9848    5.2823   -9.3619 C   0  0  0  0  0  0  0  0  0  0  0  0
   -8.4299    4.1180   -8.7615 C   0  0  0  0  0  0  0  0  0  0  0  0
   -8.6718    2.9762   -9.5154 C   0  0  0  0  0  0  0  0  0  0  0  0
   -8.5142    2.9786  -10.8937 C   0  0  0  0  0  0  0  0  0  0  0  0
   -9.0565    1.8610   -8.5993 C   0  0  0  0  0  0  0  0  0  0  0  0
   -9.4074    2.5169   -7.3114 N   0  0  0  0  0  0  0  0  0  0  0  0
   -8.7023    3.8193   -7.3245 C   0  0  0  0  0  0  0  0  0  0  0  0
   -7.4814    4.7868  -15.3039 C   0  0  0  0  0  0  0  0  0  0  0  0
   -8.7428    4.4094  -15.7644 C   0  0  0  0  0  0  0  0  0  0  0  0
   -8.9476    4.1413  -17.1106 C   0  0  0  0  0  0  0  0  0  0  0  0
  -10.5010    3.9686  -17.7721 Cl  0  0  0  0  0  0  0  0  0  0  0  0
   -7.8611    4.1622  -17.9612 C   0  0  0  0  0  0  0  0  0  0  0  0
   -7.7724    3.8690  -19.2918 N   0  0  0  0  0  0  0  0  0  0  0  0
   -6.5399    4.0206  -19.7835 N   0  0  0  0  0  0  0  0  0  0  0  0
   -5.8682    4.5924  -18.7754 C   0  0  0  0  0  0  0  0  0  0  0  0
   -4.5115    5.1200  -19.0318 C   0  0  0  0  0  0  0  0  0  0  0  0
   -4.2595    5.4177  -20.5120 C   0  0  0  0  0  0  0  0  0  0  0  0
   -2.9615    6.1910  -20.8135 C   0  0  0  0  0  0  0  0  0  0  0  0
   -3.7388    7.4464  -20.8601 N   0  0  0  0  0  0  0  0  0  0  0  0
   -4.9692    6.6563  -21.0974 C   0  0  0  0  0  0  0  0  0  0  0  0
   -6.6053    4.5877  -17.5591 C   0  0  0  0  0  0  0  0  0  0  0  0
   -6.4058    4.9385  -16.2016 C   0  0  0  0  0  0  0  0  0  0  0  0
  1  2  2  0
  2  3  1  0
  3  4  1  0
  4  5  2  0
  5  6  1  0
  6  7  2  0
  7  8  1  0
  8  9  2  0
  8 10  1  0
 10 11  1  0
 11 12  1  0
  2 13  1  0
 13 14  2  0
 14 15  1  0
 15 16  1  0
 15 17  2  0
 17 18  1  0
 18 19  1  0
 19 20  2  0
 20 21  1  0
 21 22  1  0
 22 23  1  0
 23 24  1  0
 24 25  1  0
 20 26  1  0
 26 27  2  0
  9  4  1  0
 27 13  1  0
 12  7  1  0
 26 17  1  0
 25 22  1  0
M  END
>  <smiles>  (2338) 
C245-P268

>  <fragmenstein_outcome>  (2338) 
acceptable

>  <inchikey>  (2338) 
KYOLPOPWUAIFEF-UHFFFAOYSA-N

>  <fragmenstein_mode>  (2338) 
expansion

>  <HIPPO Pose ID>  (2338) 
27484

>  <Energy>  (2338) 
58.704237

>  <fragmenstein_error>  (2338) 


>  <tags>  (2338) 
{'openbind_xx01zvns2b_c1_fragmenstein', 'fragmenstein_placed'}

>  <ref_pdb>  (2338) 
175

>  <scratch_subdir>  (2338) 
/opt/xchem-fragalysis-2/maxwin/BulkDock/SCRATCH/511028/C245-P268

>  <alias>  (2338) 
O=C(Nc1ccc2c(c1)CNC2)c1cc(Cl)c2[nH]nc(CC3CNC3)c2c1

>  <HIPPO Compound ID>  (2338) 
40559

>  <fragmenstein_runtime>  (2338) 
5.715124

$$$$
NC[C@H](c1[nH]nc2c(Cl)cc(C(=O)Nc3ccc4c(c3)CNC4)cc12)C1CNC1
     RDKit          3D

 29 33  0  0  0  0  0  0  0  0999 V2000
   -3.6199    8.7465  -18.0035 N   0  0  0  0  0  0  0  0  0  0  0  0
   -4.1569    7.4716  -17.5136 C   0  0  0  0  0  0  0  0  0  0  0  0
   -4.3302    6.4332  -18.6424 C   0  0  2  0  0  0  0  0  0  0  0  0
   -5.4642    5.4556  -18.3965 C   0  0  0  0  0  0  0  0  0  0  0  0
   -6.0910    4.8864  -19.4823 N   0  0  0  0  0  0  0  0  0  0  0  0
   -7.1673    4.1550  -19.1981 N   0  0  0  0  0  0  0  0  0  0  0  0
   -7.3799    4.3532  -17.8914 C   0  0  0  0  0  0  0  0  0  0  0  0
   -8.4852    4.0656  -17.0744 C   0  0  0  0  0  0  0  0  0  0  0  0
   -9.9378    3.6821  -17.8415 Cl  0  0  0  0  0  0  0  0  0  0  0  0
   -8.3678    4.3619  -15.7139 C   0  0  0  0  0  0  0  0  0  0  0  0
   -7.1806    4.9482  -15.1839 C   0  0  0  0  0  0  0  0  0  0  0  0
   -7.1987    5.3774  -13.7569 C   0  0  0  0  0  0  0  0  0  0  0  0
   -6.9517    6.4942  -13.5171 O   0  0  0  0  0  0  0  0  0  0  0  0
   -7.6298    4.2214  -12.8209 N   0  0  0  0  0  0  0  0  0  0  0  0
   -7.9280    4.2223  -11.4573 C   0  0  0  0  0  0  0  0  0  0  0  0
   -7.7982    5.3828  -10.6783 C   0  0  0  0  0  0  0  0  0  0  0  0
   -8.0777    5.3617   -9.3062 C   0  0  0  0  0  0  0  0  0  0  0  0
   -8.4875    4.1694   -8.7383 C   0  0  0  0  0  0  0  0  0  0  0  0
   -8.6239    3.0192   -9.5077 C   0  0  0  0  0  0  0  0  0  0  0  0
   -8.3530    3.0268  -10.8670 C   0  0  0  0  0  0  0  0  0  0  0  0
   -9.0225    1.8837   -8.6230 C   0  0  0  0  0  0  0  0  0  0  0  0
   -9.4557    2.5152   -7.3470 N   0  0  0  0  0  0  0  0  0  0  0  0
   -8.8013    3.8417   -7.3172 C   0  0  0  0  0  0  0  0  0  0  0  0
   -6.0556    5.3243  -15.9697 C   0  0  0  0  0  0  0  0  0  0  0  0
   -6.2202    5.0158  -17.3254 C   0  0  0  0  0  0  0  0  0  0  0  0
   -3.0345    5.7114  -19.0441 C   0  0  0  0  0  0  0  0  0  0  0  0
   -2.2311    4.8752  -18.0321 C   0  0  0  0  0  0  0  0  0  0  0  0
   -0.9820    5.3372  -18.6676 N   0  0  0  0  0  0  0  0  0  0  0  0
   -1.7075    6.4916  -19.2326 C   0  0  0  0  0  0  0  0  0  0  0  0
  1  2  1  0
  3  2  1  1
  3  4  1  0
  4  5  1  0
  5  6  1  0
  6  7  2  0
  7  8  1  0
  8  9  1  0
  8 10  2  0
 10 11  1  0
 11 12  1  0
 12 13  2  0
 12 14  1  0
 14 15  1  0
 15 16  2  0
 16 17  1  0
 17 18  2  0
 18 19  1  0
 19 20  2  0
 19 21  1  0
 21 22  1  0
 22 23  1  0
 11 24  2  0
 24 25  1  0
  3 26  1  0
 26 27  1  0
 27 28  1  0
 28 29  1  0
 25  4  2  0
 29 26  1  0
 25  7  1  0
 20 15  1  0
 23 18  1  0
M  END
>  <smiles>  (2339) 
C35457-P268

>  <fragmenstein_outcome>  (2339) 
acceptable

>  <inchikey>  (2339) 
MVDDYECVTQJJIB-UHFFFAOYSA-N

>  <fragmenstein_mode>  (2339) 
expansion

>  <HIPPO Pose ID>  (2339) 
27486

>  <Energy>  (2339) 
105.740642

>  <fragmenstein_error>  (2339) 


>  <tags>  (2339) 
{'openbind_xx01zvns2b_c1_fragmenstein', 'fragmenstein_placed'}

>  <ref_pdb>  (2339) 
175

>  <scratch_subdir>  (2339) 
/opt/xchem-fragalysis-2/maxwin/BulkDock/SCRATCH/511028/C35457-P268

>  <alias>  (2339) 
NC[C@H](c1[nH]nc2c(Cl)cc(C(=O)Nc3ccc4c(c3)CNC4)cc12)C1CNC1

>  <HIPPO Compound ID>  (2339) 
278

>  <fragmenstein_runtime>  (2339) 
4.414242

$$$$
CNc1cc(C(=O)Nc2ccc3c(c2)CNC3)cc2c(CC3CNC3)[nH]nc12
     RDKit          3D

 28 32  0  0  0  0  0  0  0  0999 V2000
  -10.6368    4.3233  -18.0307 C   0  0  0  0  0  0  0  0  0  0  0  0
   -9.6000    3.3214  -17.7926 N   0  0  0  0  0  0  0  0  0  0  0  0
   -8.5219    3.9155  -17.1160 C   0  0  0  0  0  0  0  0  0  0  0  0
   -8.5947    4.2818  -15.7469 C   0  0  0  0  0  0  0  0  0  0  0  0
   -7.5410    4.9585  -15.0626 C   0  0  0  0  0  0  0  0  0  0  0  0
   -7.7263    5.4362  -13.6705 C   0  0  0  0  0  0  0  0  0  0  0  0
   -7.4640    6.5497  -13.4369 O   0  0  0  0  0  0  0  0  0  0  0  0
   -8.1777    4.2969  -12.7330 N   0  0  0  0  0  0  0  0  0  0  0  0
   -8.3056    4.2633  -11.3471 C   0  0  0  0  0  0  0  0  0  0  0  0
   -8.0857    5.4193  -10.5789 C   0  0  0  0  0  0  0  0  0  0  0  0
   -8.1898    5.3868   -9.1862 C   0  0  0  0  0  0  0  0  0  0  0  0
   -8.5124    4.1854   -8.5859 C   0  0  0  0  0  0  0  0  0  0  0  0
   -8.7355    3.0420   -9.3435 C   0  0  0  0  0  0  0  0  0  0  0  0
   -8.6392    3.0593  -10.7258 C   0  0  0  0  0  0  0  0  0  0  0  0
   -9.0937    1.9124   -8.4420 C   0  0  0  0  0  0  0  0  0  0  0  0
   -8.9002    2.4114   -7.0534 N   0  0  0  0  0  0  0  0  0  0  0  0
   -8.7217    3.8761   -7.1454 C   0  0  0  0  0  0  0  0  0  0  0  0
   -6.3149    5.3084  -15.6589 C   0  0  0  0  0  0  0  0  0  0  0  0
   -6.2797    4.9328  -16.9916 C   0  0  0  0  0  0  0  0  0  0  0  0
   -5.2283    5.1638  -17.8365 C   0  0  0  0  0  0  0  0  0  0  0  0
   -3.9118    5.7911  -17.5550 C   0  0  0  0  0  0  0  0  0  0  0  0
   -2.8236    5.8808  -18.6135 C   0  0  0  0  0  0  0  0  0  0  0  0
   -3.1586    6.4133  -20.0188 C   0  0  0  0  0  0  0  0  0  0  0  0
   -3.1827    5.0160  -20.5066 N   0  0  0  0  0  0  0  0  0  0  0  0
   -2.3369    4.6212  -19.3540 C   0  0  0  0  0  0  0  0  0  0  0  0
   -5.6639    4.6687  -19.0391 N   0  0  0  0  0  0  0  0  0  0  0  0
   -6.8912    4.1119  -19.0083 N   0  0  0  0  0  0  0  0  0  0  0  0
   -7.3024    4.2680  -17.7378 C   0  0  0  0  0  0  0  0  0  0  0  0
  1  2  1  0
  2  3  1  0
  3  4  2  0
  4  5  1  0
  5  6  1  0
  6  7  2  0
  6  8  1  0
  8  9  1  0
  9 10  2  0
 10 11  1  0
 11 12  2  0
 12 13  1  0
 13 14  2  0
 13 15  1  0
 15 16  1  0
 16 17  1  0
  5 18  2  0
 18 19  1  0
 19 20  2  0
 20 21  1  0
 21 22  1  0
 22 23  1  0
 23 24  1  0
 24 25  1  0
 20 26  1  0
 26 27  1  0
 27 28  2  0
 28  3  1  0
 14  9  1  0
 28 19  1  0
 17 12  1  0
 25 22  1  0
M  END
>  <smiles>  (2340) 
C35460-P268

>  <fragmenstein_outcome>  (2340) 
acceptable

>  <inchikey>  (2340) 
AZYCPFSESFRRPB-UHFFFAOYSA-N

>  <fragmenstein_mode>  (2340) 
expansion

>  <HIPPO Pose ID>  (2340) 
27487

>  <Energy>  (2340) 
87.980631

>  <fragmenstein_error>  (2340) 


>  <tags>  (2340) 
{'openbind_xx01zvns2b_c1_fragmenstein', 'fragmenstein_placed'}

>  <ref_pdb>  (2340) 
175

>  <scratch_subdir>  (2340) 
/opt/xchem-fragalysis-2/maxwin/BulkDock/SCRATCH/511028/C35460-P268

>  <alias>  (2340) 
CNc1cc(C(=O)Nc2ccc3c(c2)CNC3)cc2c(CC3CNC3)[nH]nc12

>  <HIPPO Compound ID>  (2340) 
23951

>  <fragmenstein_runtime>  (2340) 
6.082181

$$$$
C[C@H]1C2=C([C@@H](Cl)C[C@H]1C(=O)Nc1ccc3c(c1)CNC3)N(O)N[C@H]2CC1CNC1
     RDKit          3D

 29 33  0  0  0  0  0  0  0  0999 V2000
   -5.3933    4.9016  -14.7596 C   0  0  0  0  0  0  0  0  0  0  0  0
   -6.4676    5.5294  -15.6326 C   0  0  1  0  0  0  0  0  0  0  0  0
   -6.3699    5.1156  -17.0670 C   0  0  0  0  0  0  0  0  0  0  0  0
   -7.3411    4.5438  -17.7903 C   0  0  0  0  0  0  0  0  0  0  0  0
   -8.6600    4.1425  -17.2046 C   0  0  1  0  0  0  0  0  0  0  0  0
   -9.2564    2.6309  -17.8624 Cl  0  0  0  0  0  0  0  0  0  0  0  0
   -8.5844    4.0581  -15.6617 C   0  0  0  0  0  0  0  0  0  0  0  0
   -7.9093    5.3127  -15.1043 C   0  0  1  0  0  0  0  0  0  0  0  0
   -8.0281    5.7014  -13.6248 C   0  0  0  0  0  0  0  0  0  0  0  0
   -7.9600    6.8317  -13.3281 O   0  0  0  0  0  0  0  0  0  0  0  0
   -8.2239    4.4404  -12.7422 N   0  0  0  0  0  0  0  0  0  0  0  0
   -8.2792    4.3056  -11.3578 C   0  0  0  0  0  0  0  0  0  0  0  0
   -8.0861    5.4205  -10.5216 C   0  0  0  0  0  0  0  0  0  0  0  0
   -8.2190    5.3118   -9.1346 C   0  0  0  0  0  0  0  0  0  0  0  0
   -8.5630    4.0811   -8.6122 C   0  0  0  0  0  0  0  0  0  0  0  0
   -8.7284    2.9701   -9.4356 C   0  0  0  0  0  0  0  0  0  0  0  0
   -8.5774    3.0575  -10.8097 C   0  0  0  0  0  0  0  0  0  0  0  0
   -9.0734    1.7906   -8.5881 C   0  0  0  0  0  0  0  0  0  0  0  0
   -9.4980    2.3649   -7.2839 N   0  0  0  0  0  0  0  0  0  0  0  0
   -8.8272    3.6814   -7.1993 C   0  0  0  0  0  0  0  0  0  0  0  0
   -6.9683    4.4617  -19.1224 N   0  0  0  0  0  0  0  0  0  0  0  0
   -7.2555    3.3487  -19.8868 O   0  0  0  0  0  0  0  0  0  0  0  0
   -5.6705    4.9680  -19.3042 N   0  0  0  0  0  0  0  0  0  0  0  0
   -5.1698    5.2722  -17.9425 C   0  0  1  0  0  0  0  0  0  0  0  0
   -4.5186    6.6512  -17.9003 C   0  0  0  0  0  0  0  0  0  0  0  0
   -3.1771    6.6311  -18.6291 C   0  0  0  0  0  0  0  0  0  0  0  0
   -2.0125    5.8862  -17.9371 C   0  0  0  0  0  0  0  0  0  0  0  0
   -1.1116    6.9837  -18.3506 N   0  0  0  0  0  0  0  0  0  0  0  0
   -2.2857    7.8780  -18.4561 C   0  0  0  0  0  0  0  0  0  0  0  0
  2  1  1  1
  2  3  1  0
  3  4  2  0
  4  5  1  0
  5  6  1  6
  5  7  1  0
  7  8  1  0
  8  9  1  1
  9 10  2  0
  9 11  1  0
 11 12  1  0
 12 13  2  0
 13 14  1  0
 14 15  2  0
 15 16  1  0
 16 17  2  0
 16 18  1  0
 18 19  1  0
 19 20  1  0
  4 21  1  0
 21 22  1  0
 21 23  1  0
 23 24  1  0
 24 25  1  6
 25 26  1  0
 26 27  1  0
 27 28  1  0
 28 29  1  0
  8  2  1  0
 17 12  1  0
 29 26  1  0
 24  3  1  0
 20 15  1  0
M  END
>  <smiles>  (2341) 
C35462-P268

>  <fragmenstein_outcome>  (2341) 
acceptable

>  <inchikey>  (2341) 
NJUZARKEFBTBOM-UHFFFAOYSA-N

>  <fragmenstein_mode>  (2341) 
expansion

>  <HIPPO Pose ID>  (2341) 
27488

>  <Energy>  (2341) 
45.608311

>  <fragmenstein_error>  (2341) 


>  <tags>  (2341) 
{'openbind_xx01zvns2b_c1_fragmenstein', 'fragmenstein_placed'}

>  <ref_pdb>  (2341) 
175

>  <scratch_subdir>  (2341) 
/opt/xchem-fragalysis-2/maxwin/BulkDock/SCRATCH/511028/C35462-P268

>  <alias>  (2341) 
C[C@H]1C2=C([C@@H](Cl)C[C@H]1C(=O)Nc1ccc3c(c1)CNC3)N(O)N[C@H]2CC1CNC1

>  <HIPPO Compound ID>  (2341) 
249

>  <fragmenstein_runtime>  (2341) 
13.769649

$$$$
CN[C@@](O)(Nc1ccc2c(c1)CNC2)c1cc(Cl)c2n[nH]c(CC3CNC3)c2c1
     RDKit          3D

 29 33  0  0  0  0  0  0  0  0999 V2000
   -6.6921    7.4084  -13.1379 C   0  0  0  0  0  0  0  0  0  0  0  0
   -7.7870    6.4921  -13.3850 N   0  0  0  0  0  0  0  0  0  0  0  0
   -7.4421    5.0824  -13.4341 C   0  0  1  0  0  0  0  0  0  0  0  0
   -6.1293    4.8322  -12.9762 O   0  0  0  0  0  0  0  0  0  0  0  0
   -8.2902    4.1774  -12.6940 N   0  0  0  0  0  0  0  0  0  0  0  0
   -8.3462    4.1182  -11.2959 C   0  0  0  0  0  0  0  0  0  0  0  0
   -8.0545    5.2107  -10.4487 C   0  0  0  0  0  0  0  0  0  0  0  0
   -8.1846    5.1434   -9.0562 C   0  0  0  0  0  0  0  0  0  0  0  0
   -8.6060    3.9571   -8.5048 C   0  0  0  0  0  0  0  0  0  0  0  0
   -8.8684    2.8574   -9.3103 C   0  0  0  0  0  0  0  0  0  0  0  0
   -8.7694    2.9264  -10.6920 C   0  0  0  0  0  0  0  0  0  0  0  0
   -9.2012    1.6967   -8.4358 C   0  0  0  0  0  0  0  0  0  0  0  0
   -9.5632    2.2969   -7.1256 N   0  0  0  0  0  0  0  0  0  0  0  0
   -8.8495    3.5919   -7.0799 C   0  0  0  0  0  0  0  0  0  0  0  0
   -7.4429    4.7285  -14.9366 C   0  0  0  0  0  0  0  0  0  0  0  0
   -8.6346    4.2811  -15.5969 C   0  0  0  0  0  0  0  0  0  0  0  0
   -8.7071    4.0739  -16.9860 C   0  0  0  0  0  0  0  0  0  0  0  0
  -10.1391    3.8306  -17.8393 Cl  0  0  0  0  0  0  0  0  0  0  0  0
   -7.5378    4.3076  -17.7253 C   0  0  0  0  0  0  0  0  0  0  0  0
   -7.2416    4.1991  -19.0307 N   0  0  0  0  0  0  0  0  0  0  0  0
   -6.0433    4.7795  -19.1647 N   0  0  0  0  0  0  0  0  0  0  0  0
   -5.4597    5.1729  -17.9855 C   0  0  0  0  0  0  0  0  0  0  0  0
   -4.1980    5.9549  -17.9363 C   0  0  0  0  0  0  0  0  0  0  0  0
   -3.0612    5.3691  -17.1213 C   0  0  0  0  0  0  0  0  0  0  0  0
   -2.8941    5.7023  -15.6171 C   0  0  0  0  0  0  0  0  0  0  0  0
   -1.4494    5.8886  -15.8632 N   0  0  0  0  0  0  0  0  0  0  0  0
   -1.7508    6.1882  -17.2733 C   0  0  0  0  0  0  0  0  0  0  0  0
   -6.3786    4.8023  -17.0394 C   0  0  0  0  0  0  0  0  0  0  0  0
   -6.2667    5.0316  -15.6776 C   0  0  0  0  0  0  0  0  0  0  0  0
  1  2  1  0
  2  3  1  0
  3  4  1  1
  3  5  1  0
  5  6  1  0
  6  7  2  0
  7  8  1  0
  8  9  2  0
  9 10  1  0
 10 11  2  0
 10 12  1  0
 12 13  1  0
 13 14  1  0
  3 15  1  0
 15 16  1  0
 16 17  2  0
 17 18  1  0
 17 19  1  0
 19 20  2  0
 20 21  1  0
 21 22  1  0
 22 23  1  0
 23 24  1  0
 24 25  1  0
 25 26  1  0
 26 27  1  0
 22 28  2  0
 28 29  1  0
 11  6  1  0
 29 15  2  0
 14  9  1  0
 28 19  1  0
 27 24  1  0
M  END
>  <smiles>  (2342) 
C35482-P268

>  <fragmenstein_outcome>  (2342) 
acceptable

>  <inchikey>  (2342) 
GWHAKWDFTCEDAP-UHFFFAOYSA-N

>  <fragmenstein_mode>  (2342) 
expansion

>  <HIPPO Pose ID>  (2342) 
27492

>  <Energy>  (2342) 
-46.147921

>  <fragmenstein_error>  (2342) 


>  <tags>  (2342) 
{'openbind_xx01zvns2b_c1_fragmenstein', 'fragmenstein_placed'}

>  <ref_pdb>  (2342) 
175

>  <scratch_subdir>  (2342) 
/opt/xchem-fragalysis-2/maxwin/BulkDock/SCRATCH/511028/C35482-P268

>  <alias>  (2342) 
CN[C@@](O)(Nc1ccc2c(c1)CNC2)c1cc(Cl)c2n[nH]c(CC3CNC3)c2c1

>  <HIPPO Compound ID>  (2342) 
35482

>  <fragmenstein_runtime>  (2342) 
4.224833

$$$$
CN[C@@H]1NCc2c(O)cc(NC(=O)c3cc(Cl)c4n[nH]c(C[C@H]5CN[C@H]5C[C@@H](C)CO)c4c3)cc21
     RDKit          3D

 35 39  0  0  0  0  0  0  0  0999 V2000
  -10.3380    1.6169   -6.4974 C   0  0  0  0  0  0  0  0  0  0  0  0
  -10.1545    2.5075   -7.6375 N   0  0  0  0  0  0  0  0  0  0  0  0
   -8.7628    2.6492   -7.9873 C   0  0  2  0  0  0  0  0  0  0  0  0
   -8.1509    3.3249   -6.8224 N   0  0  0  0  0  0  0  0  0  0  0  0
   -8.2572    4.7610   -7.0887 C   0  0  0  0  0  0  0  0  0  0  0  0
   -8.2677    4.8748   -8.5680 C   0  0  0  0  0  0  0  0  0  0  0  0
   -8.0081    5.9670   -9.3575 C   0  0  0  0  0  0  0  0  0  0  0  0
   -7.7973    7.2109   -8.8510 O   0  0  0  0  0  0  0  0  0  0  0  0
   -7.9133    5.7869  -10.7259 C   0  0  0  0  0  0  0  0  0  0  0  0
   -8.1190    4.5231  -11.3058 C   0  0  0  0  0  0  0  0  0  0  0  0
   -7.9003    4.3888  -12.6791 N   0  0  0  0  0  0  0  0  0  0  0  0
   -7.3586    5.4071  -13.7175 C   0  0  0  0  0  0  0  0  0  0  0  0
   -6.9396    6.4898  -13.5706 O   0  0  0  0  0  0  0  0  0  0  0  0
   -7.3645    4.8955  -15.1113 C   0  0  0  0  0  0  0  0  0  0  0  0
   -8.5723    4.3606  -15.6466 C   0  0  0  0  0  0  0  0  0  0  0  0
   -8.7031    4.0899  -17.0157 C   0  0  0  0  0  0  0  0  0  0  0  0
  -10.1704    3.8138  -17.8031 Cl  0  0  0  0  0  0  0  0  0  0  0  0
   -7.5803    4.3267  -17.8237 C   0  0  0  0  0  0  0  0  0  0  0  0
   -7.3602    4.1421  -19.1334 N   0  0  0  0  0  0  0  0  0  0  0  0
   -6.2319    4.8106  -19.3877 N   0  0  0  0  0  0  0  0  0  0  0  0
   -5.5729    5.2608  -18.2741 C   0  0  0  0  0  0  0  0  0  0  0  0
   -4.3178    6.0466  -18.3804 C   0  0  0  0  0  0  0  0  0  0  0  0
   -3.0714    5.1928  -18.1669 C   0  0  1  0  0  0  0  0  0  0  0  0
   -2.5800    4.3852  -19.3890 C   0  0  0  0  0  0  0  0  0  0  0  0
   -1.6028    5.4466  -19.6708 N   0  0  0  0  0  0  0  0  0  0  0  0
   -1.6630    5.8736  -18.2542 C   0  0  1  0  0  0  0  0  0  0  0  0
   -1.5791    7.3868  -18.0673 C   0  0  0  0  0  0  0  0  0  0  0  0
   -0.1244    7.9023  -18.0316 C   0  0  1  0  0  0  0  0  0  0  0  0
    0.5034    7.9468  -19.4280 C   0  0  0  0  0  0  0  0  0  0  0  0
   -0.0679    9.2956  -17.3847 C   0  0  0  0  0  0  0  0  0  0  0  0
   -0.8481   10.2293  -18.1189 O   0  0  0  0  0  0  0  0  0  0  0  0
   -6.3986    4.9037  -17.2357 C   0  0  0  0  0  0  0  0  0  0  0  0
   -6.2156    5.2080  -15.8902 C   0  0  0  0  0  0  0  0  0  0  0  0
   -8.4792    3.4259  -10.5050 C   0  0  0  0  0  0  0  0  0  0  0  0
   -8.5367    3.6181   -9.1239 C   0  0  0  0  0  0  0  0  0  0  0  0
  1  2  1  0
  3  2  1  1
  3  4  1  0
  4  5  1  0
  5  6  1  0
  6  7  2  0
  7  8  1  0
  7  9  1  0
  9 10  2  0
 10 11  1  0
 11 12  1  0
 12 13  2  0
 12 14  1  0
 14 15  1  0
 15 16  2  0
 16 17  1  0
 16 18  1  0
 18 19  2  0
 19 20  1  0
 20 21  1  0
 21 22  1  0
 23 22  1  6
 23 24  1  0
 24 25  1  0
 25 26  1  0
 26 27  1  6
 27 28  1  0
 28 29  1  6
 28 30  1  0
 30 31  1  0
 21 32  2  0
 32 33  1  0
 10 34  1  0
 34 35  2  0
 35  3  1  0
 35  6  1  0
 33 14  2  0
 32 18  1  0
 26 23  1  0
M  END
>  <smiles>  (2343) 
C35496-P268

>  <fragmenstein_outcome>  (2343) 
acceptable

>  <inchikey>  (2343) 
NCRSVSRTIIRPQM-UHFFFAOYSA-N

>  <fragmenstein_mode>  (2343) 
expansion

>  <HIPPO Pose ID>  (2343) 
27499

>  <Energy>  (2343) 
33.324056

>  <fragmenstein_error>  (2343) 


>  <tags>  (2343) 
{'openbind_xx01zvns2b_c1_fragmenstein', 'fragmenstein_placed'}

>  <ref_pdb>  (2343) 
175

>  <scratch_subdir>  (2343) 
/opt/xchem-fragalysis-2/maxwin/BulkDock/SCRATCH/511028/C35496-P268

>  <alias>  (2343) 
CN[C@@H]1NCc2c(O)cc(NC(=O)c3cc(Cl)c4n[nH]c(C[C@H]5CN[C@H]5C[C@@H](C)CO)c4c3)cc21

>  <HIPPO Compound ID>  (2343) 
35496

>  <fragmenstein_runtime>  (2343) 
17.397277

$$$$
O=C(Nc1ccc2c(c1)CNC2)c1cc(Cl)c2n[nH]c(C(O)(O)C3CC4(CCCCC4)C3)c2c1
     RDKit          3D

 34 39  0  0  0  0  0  0  0  0999 V2000
   -6.9345    6.3729  -13.4705 O   0  0  0  0  0  0  0  0  0  0  0  0
   -7.3604    5.3147  -13.7223 C   0  0  0  0  0  0  0  0  0  0  0  0
   -7.9955    4.2443  -12.8030 N   0  0  0  0  0  0  0  0  0  0  0  0
   -8.1469    4.2153  -11.4179 C   0  0  0  0  0  0  0  0  0  0  0  0
   -7.9117    5.3576  -10.6361 C   0  0  0  0  0  0  0  0  0  0  0  0
   -8.0914    5.3262   -9.2485 C   0  0  0  0  0  0  0  0  0  0  0  0
   -8.5009    4.1399   -8.6689 C   0  0  0  0  0  0  0  0  0  0  0  0
   -8.7173    3.0022   -9.4397 C   0  0  0  0  0  0  0  0  0  0  0  0
   -8.5559    3.0223  -10.8150 C   0  0  0  0  0  0  0  0  0  0  0  0
   -9.0810    1.8673   -8.5410 C   0  0  0  0  0  0  0  0  0  0  0  0
   -9.4459    2.5003   -7.2458 N   0  0  0  0  0  0  0  0  0  0  0  0
   -8.7603    3.8119   -7.2369 C   0  0  0  0  0  0  0  0  0  0  0  0
   -7.3819    4.8841  -15.1475 C   0  0  0  0  0  0  0  0  0  0  0  0
   -8.6188    4.4304  -15.6963 C   0  0  0  0  0  0  0  0  0  0  0  0
   -8.7603    4.1381  -17.0580 C   0  0  0  0  0  0  0  0  0  0  0  0
  -10.2393    3.9065  -17.8370 Cl  0  0  0  0  0  0  0  0  0  0  0  0
   -7.6112    4.2700  -17.8513 C   0  0  0  0  0  0  0  0  0  0  0  0
   -7.3904    4.0427  -19.1538 N   0  0  0  0  0  0  0  0  0  0  0  0
   -6.1713    4.5333  -19.3856 N   0  0  0  0  0  0  0  0  0  0  0  0
   -5.4883    4.9435  -18.2708 C   0  0  0  0  0  0  0  0  0  0  0  0
   -4.1418    5.5290  -18.3925 C   0  0  0  0  0  0  0  0  0  0  0  0
   -3.5596    5.0156  -19.5699 O   0  0  0  0  0  0  0  0  0  0  0  0
   -3.3508    5.0619  -17.3227 O   0  0  0  0  0  0  0  0  0  0  0  0
   -4.1897    7.0521  -18.4194 C   0  0  0  0  0  0  0  0  0  0  0  0
   -4.8895    7.7373  -19.6258 C   0  0  0  0  0  0  0  0  0  0  0  0
   -3.8193    8.8752  -19.5469 C   0  0  0  0  0  0  0  0  0  0  0  0
   -3.2391    9.3175  -20.9005 C   0  0  0  0  0  0  0  0  0  0  0  0
   -3.8285   10.6467  -21.3811 C   0  0  0  0  0  0  0  0  0  0  0  0
   -5.2569   10.8577  -20.9015 C   0  0  0  0  0  0  0  0  0  0  0  0
   -5.3486   10.8655  -19.3738 C   0  0  0  0  0  0  0  0  0  0  0  0
   -4.2285   10.0774  -18.6886 C   0  0  0  0  0  0  0  0  0  0  0  0
   -2.9104    7.8368  -18.8153 C   0  0  0  0  0  0  0  0  0  0  0  0
   -6.3908    4.7609  -17.2508 C   0  0  0  0  0  0  0  0  0  0  0  0
   -6.2068    5.0955  -15.9092 C   0  0  0  0  0  0  0  0  0  0  0  0
  1  2  2  0
  2  3  1  0
  3  4  1  0
  4  5  2  0
  5  6  1  0
  6  7  2  0
  7  8  1  0
  8  9  2  0
  8 10  1  0
 10 11  1  0
 11 12  1  0
  2 13  1  0
 13 14  1  0
 14 15  2  0
 15 16  1  0
 15 17  1  0
 17 18  2  0
 18 19  1  0
 19 20  1  0
 20 21  1  0
 21 22  1  0
 21 23  1  0
 21 24  1  0
 24 25  1  0
 25 26  1  0
 26 27  1  0
 27 28  1  0
 28 29  1  0
 29 30  1  0
 30 31  1  0
 26 32  1  0
 20 33  2  0
 33 34  1  0
  9  4  1  0
 34 13  2  0
 12  7  1  0
 33 17  1  0
 32 24  1  0
 31 26  1  0
M  END
>  <smiles>  (2344) 
C35533-P268

>  <fragmenstein_outcome>  (2344) 
acceptable

>  <inchikey>  (2344) 
CJLQVEFFBCSGBE-UHFFFAOYSA-N

>  <fragmenstein_mode>  (2344) 
expansion

>  <HIPPO Pose ID>  (2344) 
27512

>  <Energy>  (2344) 
29.933185

>  <fragmenstein_error>  (2344) 


>  <tags>  (2344) 
{'openbind_xx01zvns2b_c1_fragmenstein', 'fragmenstein_placed'}

>  <ref_pdb>  (2344) 
175

>  <scratch_subdir>  (2344) 
/opt/xchem-fragalysis-2/maxwin/BulkDock/SCRATCH/511028/C35533-P268

>  <alias>  (2344) 
O=C(Nc1ccc2c(c1)CNC2)c1cc(Cl)c2n[nH]c(C(O)(O)C3CC4(CCCCC4)C3)c2c1

>  <HIPPO Compound ID>  (2344) 
35533

>  <fragmenstein_runtime>  (2344) 
3.484987

$$$$
NNc1c(C(=O)Nc2ccc3c(c2)CNC3)cc(Cl)c2[nH]nc(CC3CNC3)c12
     RDKit          3D

 29 33  0  0  0  0  0  0  0  0999 V2000
   -4.0208    6.0079  -16.3045 N   0  0  0  0  0  0  0  0  0  0  0  0
   -5.0963    5.5540  -15.5608 N   0  0  0  0  0  0  0  0  0  0  0  0
   -6.2856    5.0796  -16.2031 C   0  0  0  0  0  0  0  0  0  0  0  0
   -7.4158    4.8400  -15.3440 C   0  0  0  0  0  0  0  0  0  0  0  0
   -7.3776    5.2663  -13.9111 C   0  0  0  0  0  0  0  0  0  0  0  0
   -7.0016    6.3520  -13.6876 O   0  0  0  0  0  0  0  0  0  0  0  0
   -7.9567    4.1867  -12.9591 N   0  0  0  0  0  0  0  0  0  0  0  0
   -8.0996    4.1850  -11.5707 C   0  0  0  0  0  0  0  0  0  0  0  0
   -7.8385    5.3351  -10.8082 C   0  0  0  0  0  0  0  0  0  0  0  0
   -8.0168    5.3333   -9.4190 C   0  0  0  0  0  0  0  0  0  0  0  0
   -8.4443    4.1660   -8.8142 C   0  0  0  0  0  0  0  0  0  0  0  0
   -8.6824    3.0184   -9.5623 C   0  0  0  0  0  0  0  0  0  0  0  0
   -8.5291    3.0125  -10.9403 C   0  0  0  0  0  0  0  0  0  0  0  0
   -9.0511    1.9041   -8.6384 C   0  0  0  0  0  0  0  0  0  0  0  0
   -9.3887    2.5624   -7.3484 N   0  0  0  0  0  0  0  0  0  0  0  0
   -8.6957    3.8696   -7.3738 C   0  0  0  0  0  0  0  0  0  0  0  0
   -8.6506    4.4157  -15.8263 C   0  0  0  0  0  0  0  0  0  0  0  0
   -8.8064    4.1796  -17.1764 C   0  0  0  0  0  0  0  0  0  0  0  0
  -10.3521    3.9223  -17.8390 Cl  0  0  0  0  0  0  0  0  0  0  0  0
   -7.7002    4.2819  -18.0049 C   0  0  0  0  0  0  0  0  0  0  0  0
   -7.6001    4.0240  -19.3391 N   0  0  0  0  0  0  0  0  0  0  0  0
   -6.3765    4.2025  -19.8358 N   0  0  0  0  0  0  0  0  0  0  0  0
   -5.6818    4.7250  -18.8158 C   0  0  0  0  0  0  0  0  0  0  0  0
   -4.2709    5.1494  -19.0558 C   0  0  0  0  0  0  0  0  0  0  0  0
   -3.6850    5.3257  -20.4568 C   0  0  0  0  0  0  0  0  0  0  0  0
   -4.0879    4.5141  -21.7041 C   0  0  0  0  0  0  0  0  0  0  0  0
   -5.0519    5.5887  -22.0471 N   0  0  0  0  0  0  0  0  0  0  0  0
   -4.2329    6.5271  -21.2525 C   0  0  0  0  0  0  0  0  0  0  0  0
   -6.4484    4.7334  -17.5864 C   0  0  0  0  0  0  0  0  0  0  0  0
  1  2  1  0
  2  3  1  0
  3  4  2  0
  4  5  1  0
  5  6  2  0
  5  7  1  0
  7  8  1  0
  8  9  2  0
  9 10  1  0
 10 11  2  0
 11 12  1  0
 12 13  2  0
 12 14  1  0
 14 15  1  0
 15 16  1  0
  4 17  1  0
 17 18  2  0
 18 19  1  0
 18 20  1  0
 20 21  1  0
 21 22  1  0
 22 23  2  0
 23 24  1  0
 24 25  1  0
 25 26  1  0
 26 27  1  0
 27 28  1  0
 23 29  1  0
 29  3  1  0
 13  8  1  0
 29 20  2  0
 16 11  1  0
 28 25  1  0
M  END
>  <smiles>  (2345) 
C35546-P268

>  <fragmenstein_outcome>  (2345) 
acceptable

>  <inchikey>  (2345) 
ZUSHZZWHDUXHGD-UHFFFAOYSA-N

>  <fragmenstein_mode>  (2345) 
expansion

>  <HIPPO Pose ID>  (2345) 
27517

>  <Energy>  (2345) 
116.171602

>  <fragmenstein_error>  (2345) 


>  <tags>  (2345) 
{'openbind_xx01zvns2b_c1_fragmenstein', 'fragmenstein_placed'}

>  <ref_pdb>  (2345) 
175

>  <scratch_subdir>  (2345) 
/opt/xchem-fragalysis-2/maxwin/BulkDock/SCRATCH/511028/C35546-P268

>  <alias>  (2345) 
NNc1c(C(=O)Nc2ccc3c(c2)CNC3)cc(Cl)c2[nH]nc(CC3CNC3)c12

>  <HIPPO Compound ID>  (2345) 
35546

>  <fragmenstein_runtime>  (2345) 
6.506857

$$$$
Cl[C@@H]1C[C@]2(Cc3c(CC4CNC4)n[nH]c31)N=C2Nc1ccc2c(c1)CNC2
     RDKit          3D

 27 32  0  0  0  0  0  0  0  0999 V2000
  -10.3076    4.4868  -17.9892 Cl  0  0  0  0  0  0  0  0  0  0  0  0
   -8.8871    4.0853  -17.0111 C   0  0  2  0  0  0  0  0  0  0  0  0
   -8.9804    4.5600  -15.5572 C   0  0  0  0  0  0  0  0  0  0  0  0
   -7.6653    4.3698  -14.7991 C   0  0  2  0  0  0  0  0  0  0  0  0
   -6.4062    4.9484  -15.4393 C   0  0  0  0  0  0  0  0  0  0  0  0
   -6.4859    4.9557  -16.9242 C   0  0  0  0  0  0  0  0  0  0  0  0
   -5.5573    5.2789  -17.9386 C   0  0  0  0  0  0  0  0  0  0  0  0
   -4.1743    5.8038  -17.8473 C   0  0  0  0  0  0  0  0  0  0  0  0
   -4.0041    7.2907  -18.1864 C   0  0  0  0  0  0  0  0  0  0  0  0
   -4.9847    8.2976  -17.5538 C   0  0  0  0  0  0  0  0  0  0  0  0
   -5.7707    8.2878  -18.8162 N   0  0  0  0  0  0  0  0  0  0  0  0
   -4.5321    7.8611  -19.5249 C   0  0  0  0  0  0  0  0  0  0  0  0
   -6.0758    5.0756  -19.1521 N   0  0  0  0  0  0  0  0  0  0  0  0
   -7.3408    4.6759  -18.9214 N   0  0  0  0  0  0  0  0  0  0  0  0
   -7.6263    4.5828  -17.6023 C   0  0  0  0  0  0  0  0  0  0  0  0
   -7.4839    3.0596  -13.9546 N   0  0  0  0  0  0  0  0  0  0  0  0
   -7.7273    4.1419  -13.3964 C   0  0  0  0  0  0  0  0  0  0  0  0
   -7.9713    4.9946  -12.4105 N   0  0  0  0  0  0  0  0  0  0  0  0
   -8.1780    4.6797  -11.0602 C   0  0  0  0  0  0  0  0  0  0  0  0
   -8.0555    5.7248  -10.1135 C   0  0  0  0  0  0  0  0  0  0  0  0
   -8.2502    5.5082   -8.7477 C   0  0  0  0  0  0  0  0  0  0  0  0
   -8.5932    4.2365   -8.3412 C   0  0  0  0  0  0  0  0  0  0  0  0
   -8.6924    3.1922   -9.2563 C   0  0  0  0  0  0  0  0  0  0  0  0
   -8.4575    3.3846  -10.6100 C   0  0  0  0  0  0  0  0  0  0  0  0
   -9.0735    1.9463   -8.5256 C   0  0  0  0  0  0  0  0  0  0  0  0
   -9.5636    2.4138   -7.1986 N   0  0  0  0  0  0  0  0  0  0  0  0
   -8.9163    3.7223   -6.9784 C   0  0  0  0  0  0  0  0  0  0  0  0
  2  1  1  6
  2  3  1  0
  4  3  1  6
  4  5  1  0
  5  6  1  0
  6  7  1  0
  7  8  1  0
  8  9  1  0
  9 10  1  0
 10 11  1  0
 11 12  1  0
  7 13  2  0
 13 14  1  0
 14 15  1  0
  4 16  1  0
 16 17  2  0
 17 18  1  0
 18 19  1  0
 19 20  2  0
 20 21  1  0
 21 22  2  0
 22 23  1  0
 23 24  2  0
 23 25  1  0
 25 26  1  0
 26 27  1  0
 15  2  1  0
 24 19  1  0
 17  4  1  0
 27 22  1  0
 15  6  2  0
 12  9  1  0
M  END
>  <smiles>  (2346) 
C35573-P269

>  <fragmenstein_outcome>  (2346) 
acceptable

>  <inchikey>  (2346) 
RDWWZRQSGSJUMP-UHFFFAOYSA-N

>  <fragmenstein_mode>  (2346) 
expansion

>  <HIPPO Pose ID>  (2346) 
27531

>  <Energy>  (2346) 
51.919661

>  <fragmenstein_error>  (2346) 


>  <tags>  (2346) 
{'openbind_xx01zvns2b_c1_fragmenstein', 'fragmenstein_placed'}

>  <ref_pdb>  (2346) 
175

>  <scratch_subdir>  (2346) 
/opt/xchem-fragalysis-2/maxwin/BulkDock/SCRATCH/511028/C35573-P269

>  <alias>  (2346) 
Cl[C@@H]1C[C@]2(Cc3c(CC4CNC4)n[nH]c31)N=C2Nc1ccc2c(c1)CNC2

>  <HIPPO Compound ID>  (2346) 
35573

>  <fragmenstein_runtime>  (2346) 
5.827048

$$$$
O=C(NCC(F)F)[C@](O)(Nc1ccc2c(c1)CNC2)c1cc(Cl)c2n[nH]c(CC3CNC3)c2c1
     RDKit          3D

 34 38  0  0  0  0  0  0  0  0999 V2000
   -7.2071    1.9517  -13.2651 O   0  0  0  0  0  0  0  0  0  0  0  0
   -6.5999    2.9273  -13.0410 C   0  0  0  0  0  0  0  0  0  0  0  0
   -5.1200    3.1132  -12.5713 N   0  0  0  0  0  0  0  0  0  0  0  0
   -4.0718    2.1435  -12.3775 C   0  0  0  0  0  0  0  0  0  0  0  0
   -3.0683    2.1571  -13.5210 C   0  0  0  0  0  0  0  0  0  0  0  0
   -1.9764    1.4163  -13.1902 F   0  0  0  0  0  0  0  0  0  0  0  0
   -3.5854    1.5987  -14.6405 F   0  0  0  0  0  0  0  0  0  0  0  0
   -7.1528    4.4379  -13.2221 C   0  0  2  0  0  0  0  0  0  0  0  0
   -6.2158    5.3981  -12.7159 O   0  0  0  0  0  0  0  0  0  0  0  0
   -8.4169    4.7265  -12.5468 N   0  0  0  0  0  0  0  0  0  0  0  0
   -8.4678    4.5388  -11.1548 C   0  0  0  0  0  0  0  0  0  0  0  0
   -8.2764    5.6426  -10.2893 C   0  0  0  0  0  0  0  0  0  0  0  0
   -8.3230    5.4992   -8.9010 C   0  0  0  0  0  0  0  0  0  0  0  0
   -8.6021    4.2467   -8.3941 C   0  0  0  0  0  0  0  0  0  0  0  0
   -8.7692    3.1508   -9.2360 C   0  0  0  0  0  0  0  0  0  0  0  0
   -8.6740    3.2698  -10.6116 C   0  0  0  0  0  0  0  0  0  0  0  0
   -9.0850    1.9461   -8.4131 C   0  0  0  0  0  0  0  0  0  0  0  0
   -9.4762    2.4893   -7.0823 N   0  0  0  0  0  0  0  0  0  0  0  0
   -8.8253    3.8109   -6.9848 C   0  0  0  0  0  0  0  0  0  0  0  0
   -7.3111    4.6919  -14.7325 C   0  0  0  0  0  0  0  0  0  0  0  0
   -8.5057    4.2295  -15.4071 C   0  0  0  0  0  0  0  0  0  0  0  0
   -8.6577    4.2591  -16.7998 C   0  0  0  0  0  0  0  0  0  0  0  0
  -10.0406    3.8576  -17.6929 Cl  0  0  0  0  0  0  0  0  0  0  0  0
   -7.5476    4.7256  -17.5061 C   0  0  0  0  0  0  0  0  0  0  0  0
   -7.2986    4.7776  -18.8126 N   0  0  0  0  0  0  0  0  0  0  0  0
   -6.1491    5.4321  -18.9452 N   0  0  0  0  0  0  0  0  0  0  0  0
   -5.5805    5.8062  -17.7562 C   0  0  0  0  0  0  0  0  0  0  0  0
   -4.3690    6.6493  -17.7130 C   0  0  0  0  0  0  0  0  0  0  0  0
   -3.1111    5.8260  -17.5138 C   0  0  0  0  0  0  0  0  0  0  0  0
   -2.6135    5.6700  -16.0615 C   0  0  0  0  0  0  0  0  0  0  0  0
   -1.2486    5.9632  -16.5356 N   0  0  0  0  0  0  0  0  0  0  0  0
   -1.8128    6.6296  -17.7241 C   0  0  0  0  0  0  0  0  0  0  0  0
   -6.4128    5.2626  -16.8103 C   0  0  0  0  0  0  0  0  0  0  0  0
   -6.2295    5.2964  -15.4358 C   0  0  0  0  0  0  0  0  0  0  0  0
  1  2  2  0
  2  3  1  0
  3  4  1  0
  4  5  1  0
  5  6  1  0
  5  7  1  0
  2  8  1  0
  8  9  1  1
  8 10  1  0
 10 11  1  0
 11 12  2  0
 12 13  1  0
 13 14  2  0
 14 15  1  0
 15 16  2  0
 15 17  1  0
 17 18  1  0
 18 19  1  0
  8 20  1  0
 20 21  1  0
 21 22  2  0
 22 23  1  0
 22 24  1  0
 24 25  2  0
 25 26  1  0
 26 27  1  0
 27 28  1  0
 28 29  1  0
 29 30  1  0
 30 31  1  0
 31 32  1  0
 27 33  2  0
 33 34  1  0
 16 11  1  0
 34 20  2  0
 19 14  1  0
 33 24  1  0
 32 29  1  0
M  END
>  <smiles>  (2347) 
C35539-P269

>  <fragmenstein_outcome>  (2347) 
acceptable

>  <inchikey>  (2347) 
XCTHTPADXIPNKP-UHFFFAOYSA-N

>  <fragmenstein_mode>  (2347) 
expansion

>  <HIPPO Pose ID>  (2347) 
27533

>  <Energy>  (2347) 
170.205155

>  <fragmenstein_error>  (2347) 


>  <tags>  (2347) 
{'openbind_xx01zvns2b_c1_fragmenstein', 'fragmenstein_placed'}

>  <ref_pdb>  (2347) 
175

>  <scratch_subdir>  (2347) 
/opt/xchem-fragalysis-2/maxwin/BulkDock/SCRATCH/511028/C35539-P269

>  <alias>  (2347) 
O=C(NCC(F)F)[C@](O)(Nc1ccc2c(c1)CNC2)c1cc(Cl)c2n[nH]c(CC3CNC3)c2c1

>  <HIPPO Compound ID>  (2347) 
35539

>  <fragmenstein_runtime>  (2347) 
12.179585

$$$$
CCN(OC)c1c(C(=O)Nc2ccc3c(c2)CNC3)cc(Cl)c2[nH]nc(CC3CNC3)c12
     RDKit          3D

 32 36  0  0  0  0  0  0  0  0999 V2000
   -3.5918    6.9698  -13.7056 C   0  0  0  0  0  0  0  0  0  0  0  0
   -4.9758    6.5805  -14.2073 C   0  0  0  0  0  0  0  0  0  0  0  0
   -5.0629    5.1219  -14.4349 N   0  0  0  0  0  0  0  0  0  0  0  0
   -4.9594    4.4699  -13.1972 O   0  0  0  0  0  0  0  0  0  0  0  0
   -4.0276    3.4050  -13.3519 C   0  0  0  0  0  0  0  0  0  0  0  0
   -6.1679    4.8162  -15.2810 C   0  0  0  0  0  0  0  0  0  0  0  0
   -7.3724    4.2094  -14.8379 C   0  0  0  0  0  0  0  0  0  0  0  0
   -7.5177    3.5645  -13.5110 C   0  0  0  0  0  0  0  0  0  0  0  0
   -7.5182    2.3984  -13.4500 O   0  0  0  0  0  0  0  0  0  0  0  0
   -7.7072    4.6248  -12.4049 N   0  0  0  0  0  0  0  0  0  0  0  0
   -8.0197    4.4790  -11.0591 C   0  0  0  0  0  0  0  0  0  0  0  0
   -7.9631    5.6141  -10.2313 C   0  0  0  0  0  0  0  0  0  0  0  0
   -8.2324    5.5129   -8.8627 C   0  0  0  0  0  0  0  0  0  0  0  0
   -8.5935    4.2764   -8.3598 C   0  0  0  0  0  0  0  0  0  0  0  0
   -8.6755    3.1612   -9.1873 C   0  0  0  0  0  0  0  0  0  0  0  0
   -8.3738    3.2369  -10.5346 C   0  0  0  0  0  0  0  0  0  0  0  0
   -9.0897    1.9759   -8.3819 C   0  0  0  0  0  0  0  0  0  0  0  0
   -9.5773    2.5388   -7.0912 N   0  0  0  0  0  0  0  0  0  0  0  0
   -8.9329    3.8630   -6.9671 C   0  0  0  0  0  0  0  0  0  0  0  0
   -8.4948    4.0634  -15.6647 C   0  0  0  0  0  0  0  0  0  0  0  0
   -8.4413    4.4144  -17.0042 C   0  0  0  0  0  0  0  0  0  0  0  0
   -9.7878    4.1576  -18.0339 Cl  0  0  0  0  0  0  0  0  0  0  0  0
   -7.2302    4.8950  -17.4876 C   0  0  0  0  0  0  0  0  0  0  0  0
   -6.8479    5.2349  -18.7569 N   0  0  0  0  0  0  0  0  0  0  0  0
   -5.5611    5.6072  -18.8521 N   0  0  0  0  0  0  0  0  0  0  0  0
   -5.0804    5.4311  -17.6157 C   0  0  0  0  0  0  0  0  0  0  0  0
   -3.6090    5.5241  -17.3917 C   0  0  0  0  0  0  0  0  0  0  0  0
   -2.9312    6.8481  -17.7634 C   0  0  0  0  0  0  0  0  0  0  0  0
   -2.7961    7.2086  -19.2609 C   0  0  0  0  0  0  0  0  0  0  0  0
   -3.9809    8.0899  -19.1251 N   0  0  0  0  0  0  0  0  0  0  0  0
   -3.7047    8.1832  -17.6728 C   0  0  0  0  0  0  0  0  0  0  0  0
   -6.1066    5.0778  -16.6833 C   0  0  0  0  0  0  0  0  0  0  0  0
  1  2  1  0
  2  3  1  0
  3  4  1  0
  4  5  1  0
  3  6  1  0
  6  7  2  0
  7  8  1  0
  8  9  2  0
  8 10  1  0
 10 11  1  0
 11 12  2  0
 12 13  1  0
 13 14  2  0
 14 15  1  0
 15 16  2  0
 15 17  1  0
 17 18  1  0
 18 19  1  0
  7 20  1  0
 20 21  2  0
 21 22  1  0
 21 23  1  0
 23 24  1  0
 24 25  1  0
 25 26  2  0
 26 27  1  0
 27 28  1  0
 28 29  1  0
 29 30  1  0
 30 31  1  0
 26 32  1  0
 32  6  1  0
 16 11  1  0
 32 23  2  0
 19 14  1  0
 31 28  1  0
M  END
>  <smiles>  (2348) 
C35582-P269

>  <fragmenstein_outcome>  (2348) 
acceptable

>  <inchikey>  (2348) 
ZGUWPGWXVHPQHU-UHFFFAOYSA-N

>  <fragmenstein_mode>  (2348) 
expansion

>  <HIPPO Pose ID>  (2348) 
27541

>  <Energy>  (2348) 
91.416426

>  <fragmenstein_error>  (2348) 


>  <tags>  (2348) 
{'openbind_xx01zvns2b_c1_fragmenstein', 'fragmenstein_placed'}

>  <ref_pdb>  (2348) 
175

>  <scratch_subdir>  (2348) 
/opt/xchem-fragalysis-2/maxwin/BulkDock/SCRATCH/511028/C35582-P269

>  <alias>  (2348) 
CCN(OC)c1c(C(=O)Nc2ccc3c(c2)CNC3)cc(Cl)c2[nH]nc(CC3CNC3)c12

>  <HIPPO Compound ID>  (2348) 
35582

>  <fragmenstein_runtime>  (2348) 
5.602136

$$$$
O=C(NCC(F)F)[C@](O)(Nc1ccc2c(c1)CNC2)c1cc(Cl)c2n[nH]c3c2c1[C@H](F)[C@H]3C1CNC1
     RDKit          3D

 36 41  0  0  0  0  0  0  0  0999 V2000
   -7.1318    2.1171  -13.4925 O   0  0  0  0  0  0  0  0  0  0  0  0
   -6.6193    3.1178  -13.1695 C   0  0  0  0  0  0  0  0  0  0  0  0
   -5.2271    3.3750  -12.5340 N   0  0  0  0  0  0  0  0  0  0  0  0
   -4.1452    2.4670  -12.2540 C   0  0  0  0  0  0  0  0  0  0  0  0
   -3.1458    2.3793  -13.4009 C   0  0  0  0  0  0  0  0  0  0  0  0
   -3.7478    2.1124  -14.5830 F   0  0  0  0  0  0  0  0  0  0  0  0
   -2.5096    3.5717  -13.5485 F   0  0  0  0  0  0  0  0  0  0  0  0
   -7.2805    4.5762  -13.3811 C   0  0  2  0  0  0  0  0  0  0  0  0
   -6.5032    5.6504  -12.8806 O   0  0  0  0  0  0  0  0  0  0  0  0
   -8.5960    4.6207  -12.7251 N   0  0  0  0  0  0  0  0  0  0  0  0
   -8.5249    4.5048  -11.3029 C   0  0  0  0  0  0  0  0  0  0  0  0
   -8.2336    5.6288  -10.5009 C   0  0  0  0  0  0  0  0  0  0  0  0
   -8.1986    5.5412   -9.1053 C   0  0  0  0  0  0  0  0  0  0  0  0
   -8.4834    4.3224   -8.5218 C   0  0  0  0  0  0  0  0  0  0  0  0
   -8.7604    3.2062   -9.2987 C   0  0  0  0  0  0  0  0  0  0  0  0
   -8.7612    3.2693  -10.6828 C   0  0  0  0  0  0  0  0  0  0  0  0
   -9.0534    2.0422   -8.4164 C   0  0  0  0  0  0  0  0  0  0  0  0
   -9.1350    2.5900   -7.0335 N   0  0  0  0  0  0  0  0  0  0  0  0
   -8.5864    3.9606   -7.0811 C   0  0  0  0  0  0  0  0  0  0  0  0
   -7.3843    4.8111  -14.8971 C   0  0  0  0  0  0  0  0  0  0  0  0
   -8.5049    4.2567  -15.6743 C   0  0  0  0  0  0  0  0  0  0  0  0
   -8.5542    4.2186  -17.1016 C   0  0  0  0  0  0  0  0  0  0  0  0
   -9.8841    3.7747  -18.0433 Cl  0  0  0  0  0  0  0  0  0  0  0  0
   -7.3883    4.6802  -17.7217 C   0  0  0  0  0  0  0  0  0  0  0  0
   -6.8721    4.7934  -18.9626 N   0  0  0  0  0  0  0  0  0  0  0  0
   -5.7531    5.5738  -18.8523 N   0  0  0  0  0  0  0  0  0  0  0  0
   -5.4568    5.8569  -17.5630 C   0  0  0  0  0  0  0  0  0  0  0  0
   -6.4325    5.2309  -16.8874 C   0  0  0  0  0  0  0  0  0  0  0  0
   -6.3171    5.4553  -15.5597 C   0  0  0  0  0  0  0  0  0  0  0  0
   -5.1096    6.2933  -15.2454 C   0  0  2  0  0  0  0  0  0  0  0  0
   -5.4258    7.4393  -14.5732 F   0  0  0  0  0  0  0  0  0  0  0  0
   -4.6097    6.7256  -16.7214 C   0  0  1  0  0  0  0  0  0  0  0  0
   -3.1146    6.6920  -16.9531 C   0  0  0  0  0  0  0  0  0  0  0  0
   -2.2112    5.6464  -16.2755 C   0  0  0  0  0  0  0  0  0  0  0  0
   -1.9794    6.6126  -15.1838 N   0  0  0  0  0  0  0  0  0  0  0  0
   -2.3048    7.7111  -16.1107 C   0  0  0  0  0  0  0  0  0  0  0  0
  1  2  2  0
  2  3  1  0
  3  4  1  0
  4  5  1  0
  5  6  1  0
  5  7  1  0
  2  8  1  0
  8  9  1  1
  8 10  1  0
 10 11  1  0
 11 12  2  0
 12 13  1  0
 13 14  2  0
 14 15  1  0
 15 16  2  0
 15 17  1  0
 17 18  1  0
 18 19  1  0
  8 20  1  0
 20 21  1  0
 21 22  2  0
 22 23  1  0
 22 24  1  0
 24 25  2  0
 25 26  1  0
 26 27  1  0
 27 28  2  0
 28 29  1  0
 29 30  1  0
 30 31  1  1
 30 32  1  0
 32 33  1  1
 33 34  1  0
 34 35  1  0
 35 36  1  0
 16 11  1  0
 29 20  2  0
 36 33  1  0
 19 14  1  0
 28 24  1  0
 32 27  1  0
M  END
>  <smiles>  (2349) 
C35586-P269

>  <fragmenstein_outcome>  (2349) 
acceptable

>  <inchikey>  (2349) 
MYRPYNSGJHJUMU-UHFFFAOYSA-N

>  <fragmenstein_mode>  (2349) 
expansion

>  <HIPPO Pose ID>  (2349) 
27544

>  <Energy>  (2349) 
212.646443

>  <fragmenstein_error>  (2349) 


>  <tags>  (2349) 
{'openbind_xx01zvns2b_c1_fragmenstein', 'fragmenstein_placed'}

>  <ref_pdb>  (2349) 
175

>  <scratch_subdir>  (2349) 
/opt/xchem-fragalysis-2/maxwin/BulkDock/SCRATCH/511028/C35586-P269

>  <alias>  (2349) 
O=C(NCC(F)F)[C@](O)(Nc1ccc2c(c1)CNC2)c1cc(Cl)c2n[nH]c3c2c1[C@H](F)[C@H]3C1CNC1

>  <HIPPO Compound ID>  (2349) 
35586

>  <fragmenstein_runtime>  (2349) 
11.539199

$$$$
Nn1nc2c(Cl)cc(C(=O)Nc3ccc4c(c3)CNC4)cc2c1CC1CNC1
     RDKit          3D

 28 32  0  0  0  0  0  0  0  0999 V2000
   -4.7538    5.9391  -19.4347 N   0  0  0  0  0  0  0  0  0  0  0  0
   -5.5899    5.6190  -18.3746 N   0  0  0  0  0  0  0  0  0  0  0  0
   -6.8386    5.2572  -18.5970 N   0  0  0  0  0  0  0  0  0  0  0  0
   -7.3287    4.8674  -17.4168 C   0  0  0  0  0  0  0  0  0  0  0  0
   -8.5717    4.3361  -17.0329 C   0  0  0  0  0  0  0  0  0  0  0  0
   -9.8035    4.1215  -18.1779 Cl  0  0  0  0  0  0  0  0  0  0  0  0
   -8.6746    3.9820  -15.6862 C   0  0  0  0  0  0  0  0  0  0  0  0
   -7.5841    4.1287  -14.7770 C   0  0  0  0  0  0  0  0  0  0  0  0
   -7.7342    3.5060  -13.4491 C   0  0  0  0  0  0  0  0  0  0  0  0
   -7.7151    2.3442  -13.3562 O   0  0  0  0  0  0  0  0  0  0  0  0
   -7.9718    4.5905  -12.3797 N   0  0  0  0  0  0  0  0  0  0  0  0
   -8.1358    4.4811  -11.0055 C   0  0  0  0  0  0  0  0  0  0  0  0
   -8.0084    5.6306  -10.2093 C   0  0  0  0  0  0  0  0  0  0  0  0
   -8.1789    5.5545   -8.8233 C   0  0  0  0  0  0  0  0  0  0  0  0
   -8.5193    4.3317   -8.2710 C   0  0  0  0  0  0  0  0  0  0  0  0
   -8.6804    3.2077   -9.0688 C   0  0  0  0  0  0  0  0  0  0  0  0
   -8.4663    3.2542  -10.4335 C   0  0  0  0  0  0  0  0  0  0  0  0
   -9.0967    2.0469   -8.2357 C   0  0  0  0  0  0  0  0  0  0  0  0
   -9.3022    2.5822   -6.8602 N   0  0  0  0  0  0  0  0  0  0  0  0
   -8.7740    3.9621   -6.8504 C   0  0  0  0  0  0  0  0  0  0  0  0
   -6.3476    4.7342  -15.0782 C   0  0  0  0  0  0  0  0  0  0  0  0
   -6.2951    5.0723  -16.4237 C   0  0  0  0  0  0  0  0  0  0  0  0
   -5.2275    5.6564  -17.0588 C   0  0  0  0  0  0  0  0  0  0  0  0
   -3.9244    6.1879  -16.5898 C   0  0  0  0  0  0  0  0  0  0  0  0
   -3.8790    7.6762  -16.2729 C   0  0  0  0  0  0  0  0  0  0  0  0
   -4.8220    8.2730  -15.2068 C   0  0  0  0  0  0  0  0  0  0  0  0
   -4.8646    9.5246  -16.0058 N   0  0  0  0  0  0  0  0  0  0  0  0
   -4.5197    8.7256  -17.2102 C   0  0  0  0  0  0  0  0  0  0  0  0
  1  2  1  0
  2  3  1  0
  3  4  2  0
  4  5  1  0
  5  6  1  0
  5  7  2  0
  7  8  1  0
  8  9  1  0
  9 10  2  0
  9 11  1  0
 11 12  1  0
 12 13  2  0
 13 14  1  0
 14 15  2  0
 15 16  1  0
 16 17  2  0
 16 18  1  0
 18 19  1  0
 19 20  1  0
  8 21  2  0
 21 22  1  0
 22 23  2  0
 23 24  1  0
 24 25  1  0
 25 26  1  0
 26 27  1  0
 27 28  1  0
 23  2  1  0
 28 25  1  0
 22  4  1  0
 17 12  1  0
 20 15  1  0
M  END
>  <smiles>  (2350) 
C35454-P269

>  <fragmenstein_outcome>  (2350) 
acceptable

>  <inchikey>  (2350) 
PXKGJHWWPABRDK-UHFFFAOYSA-N

>  <fragmenstein_mode>  (2350) 
expansion

>  <HIPPO Pose ID>  (2350) 
27547

>  <Energy>  (2350) 
13.920303

>  <fragmenstein_error>  (2350) 


>  <tags>  (2350) 
{'openbind_xx01zvns2b_c1_fragmenstein', 'fragmenstein_placed'}

>  <ref_pdb>  (2350) 
175

>  <scratch_subdir>  (2350) 
/opt/xchem-fragalysis-2/maxwin/BulkDock/SCRATCH/511028/C35454-P269

>  <alias>  (2350) 
Nn1nc2c(Cl)cc(C(=O)Nc3ccc4c(c3)CNC4)cc2c1CC1CNC1

>  <HIPPO Compound ID>  (2350) 
35454

>  <fragmenstein_runtime>  (2350) 
5.978407

$$$$
O=C(Nc1cc2c(c(-c3ccncc3)c1)CNC2)c1cc(Cl)c2[nH]nc(CC3CNC3)c2c1
     RDKit          3D

 33 38  0  0  0  0  0  0  0  0999 V2000
   -7.7439    2.2589  -13.5157 O   0  0  0  0  0  0  0  0  0  0  0  0
   -7.7397    3.4201  -13.6180 C   0  0  0  0  0  0  0  0  0  0  0  0
   -7.9378    4.5180  -12.5542 N   0  0  0  0  0  0  0  0  0  0  0  0
   -8.0832    4.4231  -11.1753 C   0  0  0  0  0  0  0  0  0  0  0  0
   -8.4101    3.2039  -10.5871 C   0  0  0  0  0  0  0  0  0  0  0  0
   -8.6431    3.1787   -9.2260 C   0  0  0  0  0  0  0  0  0  0  0  0
   -8.4868    4.3172   -8.4381 C   0  0  0  0  0  0  0  0  0  0  0  0
   -8.0969    5.5356   -8.9898 C   0  0  0  0  0  0  0  0  0  0  0  0
   -7.8223    6.7184   -8.1679 C   0  0  0  0  0  0  0  0  0  0  0  0
   -6.7781    6.7076   -7.2359 C   0  0  0  0  0  0  0  0  0  0  0  0
   -6.5302    7.8477   -6.4891 C   0  0  0  0  0  0  0  0  0  0  0  0
   -7.2422    8.9871   -6.6009 N   0  0  0  0  0  0  0  0  0  0  0  0
   -8.2457    8.9828   -7.5050 C   0  0  0  0  0  0  0  0  0  0  0  0
   -8.5656    7.8933   -8.3019 C   0  0  0  0  0  0  0  0  0  0  0  0
   -7.9419    5.5792  -10.3897 C   0  0  0  0  0  0  0  0  0  0  0  0
   -8.7985    3.9488   -7.0224 C   0  0  0  0  0  0  0  0  0  0  0  0
   -9.4772    2.6370   -7.0833 N   0  0  0  0  0  0  0  0  0  0  0  0
   -9.0608    2.0272   -8.3744 C   0  0  0  0  0  0  0  0  0  0  0  0
   -7.6274    4.0239  -14.9593 C   0  0  0  0  0  0  0  0  0  0  0  0
   -8.7549    4.0220  -15.7831 C   0  0  0  0  0  0  0  0  0  0  0  0
   -8.6427    4.3552  -17.1297 C   0  0  0  0  0  0  0  0  0  0  0  0
   -9.9949    4.2224  -18.1755 Cl  0  0  0  0  0  0  0  0  0  0  0  0
   -7.3813    4.7243  -17.5948 C   0  0  0  0  0  0  0  0  0  0  0  0
   -6.9267    5.0310  -18.8474 N   0  0  0  0  0  0  0  0  0  0  0  0
   -5.6071    5.3140  -18.8948 N   0  0  0  0  0  0  0  0  0  0  0  0
   -5.1918    5.1172  -17.6399 C   0  0  0  0  0  0  0  0  0  0  0  0
   -3.7451    5.2108  -17.3111 C   0  0  0  0  0  0  0  0  0  0  0  0
   -3.3287    6.6561  -17.1046 C   0  0  0  0  0  0  0  0  0  0  0  0
   -3.2261    7.5553  -18.3590 C   0  0  0  0  0  0  0  0  0  0  0  0
   -2.0181    8.1651  -17.7515 N   0  0  0  0  0  0  0  0  0  0  0  0
   -1.8088    6.9099  -16.9929 C   0  0  0  0  0  0  0  0  0  0  0  0
   -6.2599    4.7802  -16.7728 C   0  0  0  0  0  0  0  0  0  0  0  0
   -6.3742    4.4374  -15.4153 C   0  0  0  0  0  0  0  0  0  0  0  0
  1  2  2  0
  2  3  1  0
  3  4  1  0
  4  5  2  0
  5  6  1  0
  6  7  2  0
  7  8  1  0
  8  9  1  0
  9 10  2  0
 10 11  1  0
 11 12  2  0
 12 13  1  0
 13 14  2  0
  8 15  2  0
  7 16  1  0
 16 17  1  0
 17 18  1  0
  2 19  1  0
 19 20  2  0
 20 21  1  0
 21 22  1  0
 21 23  2  0
 23 24  1  0
 24 25  1  0
 25 26  2  0
 26 27  1  0
 27 28  1  0
 28 29  1  0
 29 30  1  0
 30 31  1  0
 26 32  1  0
 32 33  2  0
 15  4  1  0
 33 19  1  0
 18  6  1  0
 32 23  1  0
 14  9  1  0
 31 28  1  0
M  END
>  <smiles>  (2351) 
C35592-P269

>  <fragmenstein_outcome>  (2351) 
acceptable

>  <inchikey>  (2351) 
WTWLIQVCKCHYLZ-UHFFFAOYSA-N

>  <fragmenstein_mode>  (2351) 
expansion

>  <HIPPO Pose ID>  (2351) 
27550

>  <Energy>  (2351) 
64.818963

>  <fragmenstein_error>  (2351) 


>  <tags>  (2351) 
{'openbind_xx01zvns2b_c1_fragmenstein', 'fragmenstein_placed'}

>  <ref_pdb>  (2351) 
175

>  <scratch_subdir>  (2351) 
/opt/xchem-fragalysis-2/maxwin/BulkDock/SCRATCH/511028/C35592-P269

>  <alias>  (2351) 
O=C(Nc1cc2c(c(-c3ccncc3)c1)CNC2)c1cc(Cl)c2[nH]nc(CC3CNC3)c2c1

>  <HIPPO Compound ID>  (2351) 
35592

>  <fragmenstein_runtime>  (2351) 
11.552343

$$$$
CC[C@@H]1NCc2cc(NC(=O)c3cc(Cl)c4[nH]nc(CC5CNC5)c4c3)ccc21
     RDKit          3D

 29 33  0  0  0  0  0  0  0  0999 V2000
   -7.9688    4.4774   -4.5940 C   0  0  0  0  0  0  0  0  0  0  0  0
   -7.6739    4.7145   -6.0684 C   0  0  0  0  0  0  0  0  0  0  0  0
   -8.7665    4.1650   -6.9969 C   0  0  2  0  0  0  0  0  0  0  0  0
   -8.9688    2.7008   -6.8684 N   0  0  0  0  0  0  0  0  0  0  0  0
   -9.2138    2.1779   -8.2401 C   0  0  0  0  0  0  0  0  0  0  0  0
   -8.7557    3.2465   -9.1709 C   0  0  0  0  0  0  0  0  0  0  0  0
   -8.6378    3.2021  -10.5523 C   0  0  0  0  0  0  0  0  0  0  0  0
   -8.2563    4.3668  -11.2152 C   0  0  0  0  0  0  0  0  0  0  0  0
   -8.1427    4.3599  -12.6023 N   0  0  0  0  0  0  0  0  0  0  0  0
   -7.7805    5.4915  -13.5820 C   0  0  0  0  0  0  0  0  0  0  0  0
   -7.5948    6.6276  -13.3906 O   0  0  0  0  0  0  0  0  0  0  0  0
   -7.6001    5.0057  -14.9616 C   0  0  0  0  0  0  0  0  0  0  0  0
   -8.6856    4.5936  -15.7330 C   0  0  0  0  0  0  0  0  0  0  0  0
   -8.5399    4.4576  -17.1161 C   0  0  0  0  0  0  0  0  0  0  0  0
   -9.8836    4.0549  -18.1043 Cl  0  0  0  0  0  0  0  0  0  0  0  0
   -7.2850    4.7316  -17.6669 C   0  0  0  0  0  0  0  0  0  0  0  0
   -6.8425    4.8117  -18.9582 N   0  0  0  0  0  0  0  0  0  0  0  0
   -5.5164    5.0278  -19.0782 N   0  0  0  0  0  0  0  0  0  0  0  0
   -5.1037    5.1587  -17.8134 C   0  0  0  0  0  0  0  0  0  0  0  0
   -3.6666    5.3916  -17.5138 C   0  0  0  0  0  0  0  0  0  0  0  0
   -3.3006    6.8539  -17.7068 C   0  0  0  0  0  0  0  0  0  0  0  0
   -1.8976    7.2706  -17.2115 C   0  0  0  0  0  0  0  0  0  0  0  0
   -2.4941    8.5518  -16.7697 N   0  0  0  0  0  0  0  0  0  0  0  0
   -3.8022    7.8693  -16.6530 C   0  0  0  0  0  0  0  0  0  0  0  0
   -6.1750    5.0447  -16.8946 C   0  0  0  0  0  0  0  0  0  0  0  0
   -6.3255    5.1894  -15.5118 C   0  0  0  0  0  0  0  0  0  0  0  0
   -7.9892    5.5394  -10.4874 C   0  0  0  0  0  0  0  0  0  0  0  0
   -8.1061    5.5668   -9.0962 C   0  0  0  0  0  0  0  0  0  0  0  0
   -8.4896    4.4071   -8.4496 C   0  0  0  0  0  0  0  0  0  0  0  0
  1  2  1  0
  3  2  1  1
  3  4  1  0
  4  5  1  0
  5  6  1  0
  6  7  2  0
  7  8  1  0
  8  9  1  0
  9 10  1  0
 10 11  2  0
 10 12  1  0
 12 13  2  0
 13 14  1  0
 14 15  1  0
 14 16  2  0
 16 17  1  0
 17 18  1  0
 18 19  2  0
 19 20  1  0
 20 21  1  0
 21 22  1  0
 22 23  1  0
 23 24  1  0
 19 25  1  0
 25 26  2  0
  8 27  2  0
 27 28  1  0
 28 29  2  0
 29  3  1  0
 29  6  1  0
 26 12  1  0
 25 16  1  0
 24 21  1  0
M  END
>  <smiles>  (2352) 
C35593-P269

>  <fragmenstein_outcome>  (2352) 
acceptable

>  <inchikey>  (2352) 
WIQJUIUFUBZBIA-UHFFFAOYSA-N

>  <fragmenstein_mode>  (2352) 
expansion

>  <HIPPO Pose ID>  (2352) 
27551

>  <Energy>  (2352) 
53.318782

>  <fragmenstein_error>  (2352) 


>  <tags>  (2352) 
{'openbind_xx01zvns2b_c1_fragmenstein', 'fragmenstein_placed'}

>  <ref_pdb>  (2352) 
175

>  <scratch_subdir>  (2352) 
/opt/xchem-fragalysis-2/maxwin/BulkDock/SCRATCH/511028/C35593-P269

>  <alias>  (2352) 
CC[C@@H]1NCc2cc(NC(=O)c3cc(Cl)c4[nH]nc(CC5CNC5)c4c3)ccc21

>  <HIPPO Compound ID>  (2352) 
35593

>  <fragmenstein_runtime>  (2352) 
11.168255

$$$$
O=C(NCCCF)[C@](O)(Nc1ccc2c(c1)CNC2)c1cc(Cl)c2[nH]nc(CC3CNC3)c2c1
     RDKit          3D

 34 38  0  0  0  0  0  0  0  0999 V2000
   -7.0625    1.9374  -13.3700 O   0  0  0  0  0  0  0  0  0  0  0  0
   -6.5838    2.9623  -13.0620 C   0  0  0  0  0  0  0  0  0  0  0  0
   -5.2697    3.2693  -12.2741 N   0  0  0  0  0  0  0  0  0  0  0  0
   -4.2466    2.3907  -11.7970 C   0  0  0  0  0  0  0  0  0  0  0  0
   -3.1040    2.2934  -12.7994 C   0  0  0  0  0  0  0  0  0  0  0  0
   -3.5936    1.8898  -14.1676 C   0  0  0  0  0  0  0  0  0  0  0  0
   -3.9689    3.0032  -14.8528 F   0  0  0  0  0  0  0  0  0  0  0  0
   -7.2374    4.3977  -13.3792 C   0  0  2  0  0  0  0  0  0  0  0  0
   -6.4305    5.4787  -12.8989 O   0  0  0  0  0  0  0  0  0  0  0  0
   -8.5734    4.4988  -12.7580 N   0  0  0  0  0  0  0  0  0  0  0  0
   -8.5823    4.4148  -11.3366 C   0  0  0  0  0  0  0  0  0  0  0  0
   -8.3900    5.5787  -10.5565 C   0  0  0  0  0  0  0  0  0  0  0  0
   -8.3697    5.5280   -9.1598 C   0  0  0  0  0  0  0  0  0  0  0  0
   -8.5976    4.3071   -8.5562 C   0  0  0  0  0  0  0  0  0  0  0  0
   -8.7889    3.1549   -9.3126 C   0  0  0  0  0  0  0  0  0  0  0  0
   -8.7529    3.1819  -10.6954 C   0  0  0  0  0  0  0  0  0  0  0  0
   -9.0507    2.0038   -8.3983 C   0  0  0  0  0  0  0  0  0  0  0  0
   -9.3739    2.6300   -7.0863 N   0  0  0  0  0  0  0  0  0  0  0  0
   -8.7356    3.9618   -7.1117 C   0  0  0  0  0  0  0  0  0  0  0  0
   -7.3099    4.5866  -14.9004 C   0  0  0  0  0  0  0  0  0  0  0  0
   -8.4335    4.2497  -15.6802 C   0  0  0  0  0  0  0  0  0  0  0  0
   -8.4305    4.3928  -17.0749 C   0  0  0  0  0  0  0  0  0  0  0  0
   -9.8132    3.9833  -18.0126 Cl  0  0  0  0  0  0  0  0  0  0  0  0
   -7.2743    4.9022  -17.6655 C   0  0  0  0  0  0  0  0  0  0  0  0
   -6.9472    5.1821  -18.9558 N   0  0  0  0  0  0  0  0  0  0  0  0
   -5.7283    5.7281  -19.1285 N   0  0  0  0  0  0  0  0  0  0  0  0
   -5.2455    5.8048  -17.8871 C   0  0  0  0  0  0  0  0  0  0  0  0
   -3.9238    6.4397  -17.6582 C   0  0  0  0  0  0  0  0  0  0  0  0
   -4.0608    7.9175  -17.3345 C   0  0  0  0  0  0  0  0  0  0  0  0
   -4.4042    8.3119  -15.8776 C   0  0  0  0  0  0  0  0  0  0  0  0
   -3.4595    9.4436  -16.0239 N   0  0  0  0  0  0  0  0  0  0  0  0
   -2.7345    8.6601  -17.0501 C   0  0  0  0  0  0  0  0  0  0  0  0
   -6.1529    5.2679  -16.9410 C   0  0  0  0  0  0  0  0  0  0  0  0
   -6.1606    5.0840  -15.5557 C   0  0  0  0  0  0  0  0  0  0  0  0
  1  2  2  0
  2  3  1  0
  3  4  1  0
  4  5  1  0
  5  6  1  0
  6  7  1  0
  2  8  1  0
  8  9  1  1
  8 10  1  0
 10 11  1  0
 11 12  2  0
 12 13  1  0
 13 14  2  0
 14 15  1  0
 15 16  2  0
 15 17  1  0
 17 18  1  0
 18 19  1  0
  8 20  1  0
 20 21  2  0
 21 22  1  0
 22 23  1  0
 22 24  2  0
 24 25  1  0
 25 26  1  0
 26 27  2  0
 27 28  1  0
 28 29  1  0
 29 30  1  0
 30 31  1  0
 31 32  1  0
 27 33  1  0
 33 34  2  0
 16 11  1  0
 34 20  1  0
 19 14  1  0
 33 24  1  0
 32 29  1  0
M  END
>  <smiles>  (2353) 
C35595-P269

>  <fragmenstein_outcome>  (2353) 
acceptable

>  <inchikey>  (2353) 
IWWFZPYGLWINPY-UHFFFAOYSA-N

>  <fragmenstein_mode>  (2353) 
expansion

>  <HIPPO Pose ID>  (2353) 
27553

>  <Energy>  (2353) 
99.550184

>  <fragmenstein_error>  (2353) 


>  <tags>  (2353) 
{'openbind_xx01zvns2b_c1_fragmenstein', 'fragmenstein_placed'}

>  <ref_pdb>  (2353) 
175

>  <scratch_subdir>  (2353) 
/opt/xchem-fragalysis-2/maxwin/BulkDock/SCRATCH/511028/C35595-P269

>  <alias>  (2353) 
O=C(NCCCF)[C@](O)(Nc1ccc2c(c1)CNC2)c1cc(Cl)c2[nH]nc(CC3CNC3)c2c1

>  <HIPPO Compound ID>  (2353) 
30031

>  <fragmenstein_runtime>  (2353) 
6.856519

$$$$
CC(C)Nn1nc2c(Cl)cc(C(=O)Nc3ccc4c(c3)CNC4)cc2c1CC1CNC1
     RDKit          3D

 31 35  0  0  0  0  0  0  0  0999 V2000
   -4.7202    4.5984  -21.7548 C   0  0  0  0  0  0  0  0  0  0  0  0
   -4.2063    5.4554  -20.6196 C   0  0  0  0  0  0  0  0  0  0  0  0
   -3.1650    6.4384  -21.1569 C   0  0  0  0  0  0  0  0  0  0  0  0
   -5.3161    6.1902  -20.0180 N   0  0  0  0  0  0  0  0  0  0  0  0
   -5.7728    5.5633  -18.8420 N   0  0  0  0  0  0  0  0  0  0  0  0
   -6.8985    4.8512  -18.8318 N   0  0  0  0  0  0  0  0  0  0  0  0
   -7.3056    4.8222  -17.5576 C   0  0  0  0  0  0  0  0  0  0  0  0
   -8.5003    4.3965  -16.9398 C   0  0  0  0  0  0  0  0  0  0  0  0
   -9.7967    3.8983  -17.9182 Cl  0  0  0  0  0  0  0  0  0  0  0  0
   -8.5761    4.5785  -15.5467 C   0  0  0  0  0  0  0  0  0  0  0  0
   -7.4979    5.1632  -14.8150 C   0  0  0  0  0  0  0  0  0  0  0  0
   -7.6724    5.5684  -13.4016 C   0  0  0  0  0  0  0  0  0  0  0  0
   -7.4910    6.6904  -13.1385 O   0  0  0  0  0  0  0  0  0  0  0  0
   -7.9780    4.3659  -12.4900 N   0  0  0  0  0  0  0  0  0  0  0  0
   -8.2108    4.3068  -11.1196 C   0  0  0  0  0  0  0  0  0  0  0  0
   -8.0235    5.4431  -10.3112 C   0  0  0  0  0  0  0  0  0  0  0  0
   -8.2179    5.3829   -8.9285 C   0  0  0  0  0  0  0  0  0  0  0  0
   -8.6128    4.1780   -8.3832 C   0  0  0  0  0  0  0  0  0  0  0  0
   -8.7946    3.0531   -9.1834 C   0  0  0  0  0  0  0  0  0  0  0  0
   -8.5932    3.0938  -10.5520 C   0  0  0  0  0  0  0  0  0  0  0  0
   -9.1803    1.9013   -8.3188 C   0  0  0  0  0  0  0  0  0  0  0  0
   -9.5956    2.5099   -7.0277 N   0  0  0  0  0  0  0  0  0  0  0  0
   -8.9046    3.8158   -6.9657 C   0  0  0  0  0  0  0  0  0  0  0  0
   -6.2637    5.5635  -15.3788 C   0  0  0  0  0  0  0  0  0  0  0  0
   -6.2528    5.3869  -16.7523 C   0  0  0  0  0  0  0  0  0  0  0  0
   -5.2718    5.8424  -17.5985 C   0  0  0  0  0  0  0  0  0  0  0  0
   -3.9575    6.4982  -17.3764 C   0  0  0  0  0  0  0  0  0  0  0  0
   -3.8559    8.0295  -17.3336 C   0  0  0  0  0  0  0  0  0  0  0  0
   -4.2608    8.9248  -18.5322 C   0  0  0  0  0  0  0  0  0  0  0  0
   -5.5980    9.0788  -17.9059 N   0  0  0  0  0  0  0  0  0  0  0  0
   -4.9334    8.8481  -16.5888 C   0  0  0  0  0  0  0  0  0  0  0  0
  1  2  1  0
  2  3  1  0
  2  4  1  0
  4  5  1  0
  5  6  1  0
  6  7  2  0
  7  8  1  0
  8  9  1  0
  8 10  2  0
 10 11  1  0
 11 12  1  0
 12 13  2  0
 12 14  1  0
 14 15  1  0
 15 16  2  0
 16 17  1  0
 17 18  2  0
 18 19  1  0
 19 20  2  0
 19 21  1  0
 21 22  1  0
 22 23  1  0
 11 24  2  0
 24 25  1  0
 25 26  2  0
 26 27  1  0
 27 28  1  0
 28 29  1  0
 29 30  1  0
 30 31  1  0
 26  5  1  0
 31 28  1  0
 25  7  1  0
 20 15  1  0
 23 18  1  0
M  END
>  <smiles>  (2354) 
C35526-P269

>  <fragmenstein_outcome>  (2354) 
acceptable

>  <inchikey>  (2354) 
HNGXRBQCKSFHPQ-UHFFFAOYSA-N

>  <fragmenstein_mode>  (2354) 
expansion

>  <HIPPO Pose ID>  (2354) 
27568

>  <Energy>  (2354) 
26.570865

>  <fragmenstein_error>  (2354) 


>  <tags>  (2354) 
{'openbind_xx01zvns2b_c1_fragmenstein', 'fragmenstein_placed'}

>  <ref_pdb>  (2354) 
175

>  <scratch_subdir>  (2354) 
/opt/xchem-fragalysis-2/maxwin/BulkDock/SCRATCH/511028/C35526-P269

>  <alias>  (2354) 
CC(C)Nn1nc2c(Cl)cc(C(=O)Nc3ccc4c(c3)CNC4)cc2c1CC1CNC1

>  <HIPPO Compound ID>  (2354) 
35526

>  <fragmenstein_runtime>  (2354) 
11.550073

$$$$
CC(C)NC(=O)[C@@](O)(Nc1ccc2c(c1)CNC2)c1cc(Cl)c2n[nH]c(CC3CNC3)c2c1
     RDKit          3D

 33 37  0  0  0  0  0  0  0  0999 V2000
   -3.7094    2.2428  -13.8089 C   0  0  0  0  0  0  0  0  0  0  0  0
   -4.2513    2.8492  -12.5240 C   0  0  0  0  0  0  0  0  0  0  0  0
   -4.2097    1.8685  -11.3667 C   0  0  0  0  0  0  0  0  0  0  0  0
   -5.5718    3.3958  -12.7145 N   0  0  0  0  0  0  0  0  0  0  0  0
   -6.8854    2.7232  -13.2530 C   0  0  0  0  0  0  0  0  0  0  0  0
   -7.1027    1.6075  -13.5465 O   0  0  0  0  0  0  0  0  0  0  0  0
   -7.9587    3.9718  -13.4463 C   0  0  1  0  0  0  0  0  0  0  0  0
   -9.3339    3.8405  -13.2883 O   0  0  0  0  0  0  0  0  0  0  0  0
   -7.6155    5.0202  -12.4765 N   0  0  0  0  0  0  0  0  0  0  0  0
   -7.9509    4.7362  -11.1122 C   0  0  0  0  0  0  0  0  0  0  0  0
   -7.8611    5.8055  -10.1982 C   0  0  0  0  0  0  0  0  0  0  0  0
   -8.1354    5.6336   -8.8350 C   0  0  0  0  0  0  0  0  0  0  0  0
   -8.5071    4.3795   -8.3900 C   0  0  0  0  0  0  0  0  0  0  0  0
   -8.5842    3.3104   -9.2669 C   0  0  0  0  0  0  0  0  0  0  0  0
   -8.2876    3.4623  -10.6108 C   0  0  0  0  0  0  0  0  0  0  0  0
   -9.0014    2.0824   -8.5255 C   0  0  0  0  0  0  0  0  0  0  0  0
   -9.4694    2.5717   -7.2015 N   0  0  0  0  0  0  0  0  0  0  0  0
   -8.8574    3.9040   -7.0204 C   0  0  0  0  0  0  0  0  0  0  0  0
   -7.7741    4.4540  -14.9120 C   0  0  0  0  0  0  0  0  0  0  0  0
   -8.8474    4.2261  -15.8575 C   0  0  0  0  0  0  0  0  0  0  0  0
   -8.7123    4.3334  -17.2475 C   0  0  0  0  0  0  0  0  0  0  0  0
   -9.9544    4.0390  -18.3546 Cl  0  0  0  0  0  0  0  0  0  0  0  0
   -7.4269    4.6553  -17.6968 C   0  0  0  0  0  0  0  0  0  0  0  0
   -6.8790    4.7168  -18.9175 N   0  0  0  0  0  0  0  0  0  0  0  0
   -5.6050    5.0607  -18.7296 N   0  0  0  0  0  0  0  0  0  0  0  0
   -5.2410    5.2210  -17.4226 C   0  0  0  0  0  0  0  0  0  0  0  0
   -3.8766    5.5225  -16.9229 C   0  0  0  0  0  0  0  0  0  0  0  0
   -2.8159    6.1112  -17.8322 C   0  0  0  0  0  0  0  0  0  0  0  0
   -3.1354    7.2425  -18.8361 C   0  0  0  0  0  0  0  0  0  0  0  0
   -2.1418    6.6421  -19.7471 N   0  0  0  0  0  0  0  0  0  0  0  0
   -2.2911    5.3401  -19.0625 C   0  0  0  0  0  0  0  0  0  0  0  0
   -6.4014    4.9616  -16.7349 C   0  0  0  0  0  0  0  0  0  0  0  0
   -6.5096    4.9232  -15.3463 C   0  0  0  0  0  0  0  0  0  0  0  0
  1  2  1  0
  2  3  1  0
  2  4  1  0
  4  5  1  0
  5  6  2  0
  5  7  1  0
  7  8  1  6
  7  9  1  0
  9 10  1  0
 10 11  2  0
 11 12  1  0
 12 13  2  0
 13 14  1  0
 14 15  2  0
 14 16  1  0
 16 17  1  0
 17 18  1  0
  7 19  1  0
 19 20  1  0
 20 21  2  0
 21 22  1  0
 21 23  1  0
 23 24  2  0
 24 25  1  0
 25 26  1  0
 26 27  1  0
 27 28  1  0
 28 29  1  0
 29 30  1  0
 30 31  1  0
 26 32  2  0
 32 33  1  0
 15 10  1  0
 33 19  2  0
 18 13  1  0
 32 23  1  0
 31 28  1  0
M  END
>  <smiles>  (2355) 
C35538-P269

>  <fragmenstein_outcome>  (2355) 
acceptable

>  <inchikey>  (2355) 
FWVKWPKPXVIGBX-UHFFFAOYSA-N

>  <fragmenstein_mode>  (2355) 
expansion

>  <HIPPO Pose ID>  (2355) 
27570

>  <Energy>  (2355) 
146.822232

>  <fragmenstein_error>  (2355) 


>  <tags>  (2355) 
{'openbind_xx01zvns2b_c1_fragmenstein', 'fragmenstein_placed'}

>  <ref_pdb>  (2355) 
175

>  <scratch_subdir>  (2355) 
/opt/xchem-fragalysis-2/maxwin/BulkDock/SCRATCH/511028/C35538-P269

>  <alias>  (2355) 
CC(C)NC(=O)[C@@](O)(Nc1ccc2c(c1)CNC2)c1cc(Cl)c2n[nH]c(CC3CNC3)c2c1

>  <HIPPO Compound ID>  (2355) 
20770

>  <fragmenstein_runtime>  (2355) 
9.198402

$$$$
Cc1cc(C(=O)Nc2ccc3c(c2)CN(C)C3)cc2c1NC(=O)[C@@H]2CN
     RDKit          3D

 26 29  0  0  0  0  0  0  0  0999 V2000
   -9.7182    4.2091  -18.0360 C   0  0  0  0  0  0  0  0  0  0  0  0
   -8.5374    4.3781  -17.1326 C   0  0  0  0  0  0  0  0  0  0  0  0
   -8.5762    3.9046  -15.8178 C   0  0  0  0  0  0  0  0  0  0  0  0
   -7.4563    4.0021  -14.9655 C   0  0  0  0  0  0  0  0  0  0  0  0
   -7.5706    3.3773  -13.6248 C   0  0  0  0  0  0  0  0  0  0  0  0
   -7.5216    2.2167  -13.5140 O   0  0  0  0  0  0  0  0  0  0  0  0
   -7.8475    4.4731  -12.5717 N   0  0  0  0  0  0  0  0  0  0  0  0
   -8.0220    4.3795  -11.1932 C   0  0  0  0  0  0  0  0  0  0  0  0
   -7.9975    5.5679  -10.4425 C   0  0  0  0  0  0  0  0  0  0  0  0
   -8.2207    5.5492   -9.0626 C   0  0  0  0  0  0  0  0  0  0  0  0
   -8.5141    4.3381   -8.4639 C   0  0  0  0  0  0  0  0  0  0  0  0
   -8.5717    3.1660   -9.2109 C   0  0  0  0  0  0  0  0  0  0  0  0
   -8.2975    3.1607  -10.5717 C   0  0  0  0  0  0  0  0  0  0  0  0
   -9.0099    2.0353   -8.3334 C   0  0  0  0  0  0  0  0  0  0  0  0
   -9.0661    2.5994   -6.9659 N   0  0  0  0  0  0  0  0  0  0  0  0
  -10.2410    2.2060   -6.2172 C   0  0  0  0  0  0  0  0  0  0  0  0
   -8.8461    4.0458   -7.0362 C   0  0  0  0  0  0  0  0  0  0  0  0
   -6.2858    4.6499  -15.3699 C   0  0  0  0  0  0  0  0  0  0  0  0
   -6.2723    5.1743  -16.6526 C   0  0  0  0  0  0  0  0  0  0  0  0
   -7.3768    5.0294  -17.5007 C   0  0  0  0  0  0  0  0  0  0  0  0
   -7.1295    5.7017  -18.6820 N   0  0  0  0  0  0  0  0  0  0  0  0
   -5.9384    6.3997  -18.6414 C   0  0  0  0  0  0  0  0  0  0  0  0
   -5.5389    7.2115  -19.4626 O   0  0  0  0  0  0  0  0  0  0  0  0
   -5.2042    5.9639  -17.3706 C   0  0  2  0  0  0  0  0  0  0  0  0
   -4.0224    5.0970  -17.7985 C   0  0  0  0  0  0  0  0  0  0  0  0
   -2.8793    5.8619  -18.3151 N   0  0  0  0  0  0  0  0  0  0  0  0
  1  2  1  0
  2  3  2  0
  3  4  1  0
  4  5  1  0
  5  6  2  0
  5  7  1  0
  7  8  1  0
  8  9  2  0
  9 10  1  0
 10 11  2  0
 11 12  1  0
 12 13  2  0
 12 14  1  0
 14 15  1  0
 15 16  1  0
 15 17  1  0
  4 18  2  0
 18 19  1  0
 19 20  2  0
 20 21  1  0
 21 22  1  0
 22 23  2  0
 22 24  1  0
 24 25  1  6
 25 26  1  0
 20  2  1  0
 13  8  1  0
 24 19  1  0
 17 11  1  0
M  END
>  <smiles>  (2356) 
C35646-P269

>  <fragmenstein_outcome>  (2356) 
acceptable

>  <inchikey>  (2356) 
VLUQEJGAPSYATL-UHFFFAOYSA-N

>  <fragmenstein_mode>  (2356) 
expansion

>  <HIPPO Pose ID>  (2356) 
27576

>  <Energy>  (2356) 
85.317064

>  <fragmenstein_error>  (2356) 


>  <tags>  (2356) 
{'openbind_xx01zvns2b_c1_fragmenstein', 'fragmenstein_placed'}

>  <ref_pdb>  (2356) 
175

>  <scratch_subdir>  (2356) 
/opt/xchem-fragalysis-2/maxwin/BulkDock/SCRATCH/511028/C35646-P269

>  <alias>  (2356) 
Cc1cc(C(=O)Nc2ccc3c(c2)CN(C)C3)cc2c1NC(=O)[C@@H]2CN

>  <HIPPO Compound ID>  (2356) 
35646

>  <fragmenstein_runtime>  (2356) 
6.166522

$$$$
Cc1cc([C@@](O)(F)Nc2ccc3c(c2)CN(C)C3)cc2c1NC(=O)[C@]21CCCNC1
     RDKit          3D

 30 34  0  0  0  0  0  0  0  0999 V2000
   -9.6704    4.2014  -18.0028 C   0  0  0  0  0  0  0  0  0  0  0  0
   -8.4527    4.4731  -17.1680 C   0  0  0  0  0  0  0  0  0  0  0  0
   -8.4968    4.3032  -15.7751 C   0  0  0  0  0  0  0  0  0  0  0  0
   -7.3551    4.5200  -14.9625 C   0  0  0  0  0  0  0  0  0  0  0  0
   -7.2857    4.1180  -13.4955 C   0  0  1  0  0  0  0  0  0  0  0  0
   -6.8757    2.7622  -13.4524 O   0  0  0  0  0  0  0  0  0  0  0  0
   -6.3434    4.8430  -12.8353 F   0  0  0  0  0  0  0  0  0  0  0  0
   -8.5708    4.2132  -12.8453 N   0  0  0  0  0  0  0  0  0  0  0  0
   -8.4845    4.2390  -11.4299 C   0  0  0  0  0  0  0  0  0  0  0  0
   -8.1363    5.4245  -10.7535 C   0  0  0  0  0  0  0  0  0  0  0  0
   -8.1418    5.4889   -9.3546 C   0  0  0  0  0  0  0  0  0  0  0  0
   -8.4931    4.3533   -8.6460 C   0  0  0  0  0  0  0  0  0  0  0  0
   -8.7881    3.1666   -9.3040 C   0  0  0  0  0  0  0  0  0  0  0  0
   -8.7774    3.0886  -10.6868 C   0  0  0  0  0  0  0  0  0  0  0  0
   -9.1388    2.1066   -8.3112 C   0  0  0  0  0  0  0  0  0  0  0  0
   -9.0169    2.7505   -6.9862 N   0  0  0  0  0  0  0  0  0  0  0  0
  -10.1400    2.4947   -6.1094 C   0  0  0  0  0  0  0  0  0  0  0  0
   -8.6770    4.1656   -7.1744 C   0  0  0  0  0  0  0  0  0  0  0  0
   -6.1651    4.9849  -15.5503 C   0  0  0  0  0  0  0  0  0  0  0  0
   -6.1119    5.1490  -16.9164 C   0  0  0  0  0  0  0  0  0  0  0  0
   -7.2274    4.8435  -17.6986 C   0  0  0  0  0  0  0  0  0  0  0  0
   -6.8725    4.9438  -19.0295 N   0  0  0  0  0  0  0  0  0  0  0  0
   -5.5401    5.2786  -19.2009 C   0  0  0  0  0  0  0  0  0  0  0  0
   -4.9477    5.3437  -20.2676 O   0  0  0  0  0  0  0  0  0  0  0  0
   -4.9858    5.6368  -17.8049 C   0  0  2  0  0  0  0  0  0  0  0  0
   -3.6119    5.0089  -17.5553 C   0  0  0  0  0  0  0  0  0  0  0  0
   -2.8243    5.6953  -16.4328 C   0  0  0  0  0  0  0  0  0  0  0  0
   -2.8524    7.2176  -16.5317 C   0  0  0  0  0  0  0  0  0  0  0  0
   -4.2182    7.7376  -16.5991 N   0  0  0  0  0  0  0  0  0  0  0  0
   -4.9012    7.1824  -17.7783 C   0  0  0  0  0  0  0  0  0  0  0  0
  1  2  1  0
  2  3  2  0
  3  4  1  0
  4  5  1  0
  5  6  1  6
  5  7  1  0
  5  8  1  0
  8  9  1  0
  9 10  2  0
 10 11  1  0
 11 12  2  0
 12 13  1  0
 13 14  2  0
 13 15  1  0
 15 16  1  0
 16 17  1  0
 16 18  1  0
  4 19  2  0
 19 20  1  0
 20 21  2  0
 21 22  1  0
 22 23  1  0
 23 24  2  0
 23 25  1  0
 25 26  1  1
 26 27  1  0
 27 28  1  0
 28 29  1  0
 29 30  1  0
 21  2  1  0
 30 25  1  0
 14  9  1  0
 25 20  1  0
 18 12  1  0
M  END
>  <smiles>  (2357) 
C35675-P269

>  <fragmenstein_outcome>  (2357) 
acceptable

>  <inchikey>  (2357) 
NPBLHYOHICKKLE-UHFFFAOYSA-N

>  <fragmenstein_mode>  (2357) 
expansion

>  <HIPPO Pose ID>  (2357) 
27591

>  <Energy>  (2357) 
26.72218

>  <fragmenstein_error>  (2357) 


>  <tags>  (2357) 
{'openbind_xx01zvns2b_c1_fragmenstein', 'fragmenstein_placed'}

>  <ref_pdb>  (2357) 
175

>  <scratch_subdir>  (2357) 
/opt/xchem-fragalysis-2/maxwin/BulkDock/SCRATCH/511028/C35675-P269

>  <alias>  (2357) 
Cc1cc([C@@](O)(F)Nc2ccc3c(c2)CN(C)C3)cc2c1NC(=O)[C@]21CCCNC1

>  <HIPPO Compound ID>  (2357) 
35675

>  <fragmenstein_runtime>  (2357) 
5.946048

$$$$
CN1Cc2ccc(NC(=O)c3cc(Cl)c4c5c3C=NC=5C(=O)N=4)cc2C1
     RDKit          3D

 26 30  0  0  0  0  0  0  0  0999 V2000
   -9.7528    1.9432   -6.2663 C   0  0  0  0  0  0  0  0  0  0  0  0
   -9.7030    2.7819   -7.4376 N   0  0  0  0  0  0  0  0  0  0  0  0
   -8.8731    3.9856   -7.2741 C   0  0  0  0  0  0  0  0  0  0  0  0
   -8.4745    4.3135   -8.6787 C   0  0  0  0  0  0  0  0  0  0  0  0
   -8.0664    5.5058   -9.2426 C   0  0  0  0  0  0  0  0  0  0  0  0
   -7.7955    5.5210  -10.6142 C   0  0  0  0  0  0  0  0  0  0  0  0
   -7.8815    4.3409  -11.3734 C   0  0  0  0  0  0  0  0  0  0  0  0
   -7.6149    4.3920  -12.7325 N   0  0  0  0  0  0  0  0  0  0  0  0
   -7.3929    3.2535  -13.7562 C   0  0  0  0  0  0  0  0  0  0  0  0
   -7.3236    2.0994  -13.6005 O   0  0  0  0  0  0  0  0  0  0  0  0
   -7.3261    3.8764  -15.0954 C   0  0  0  0  0  0  0  0  0  0  0  0
   -8.5235    3.9328  -15.9733 C   0  0  0  0  0  0  0  0  0  0  0  0
   -8.5259    4.4765  -17.2177 C   0  0  0  0  0  0  0  0  0  0  0  0
   -9.8908    4.3870  -18.2428 Cl  0  0  0  0  0  0  0  0  0  0  0  0
   -7.2772    5.1446  -17.6871 C   0  0  0  0  0  0  0  0  0  0  0  0
   -6.1852    4.7883  -16.8683 C   0  0  0  0  0  0  0  0  0  0  0  0
   -6.1606    4.3405  -15.5506 C   0  0  0  0  0  0  0  0  0  0  0  0
   -4.7404    4.6542  -15.2264 C   0  0  0  0  0  0  0  0  0  0  0  0
   -4.1199    5.3135  -16.1945 N   0  0  0  0  0  0  0  0  0  0  0  0
   -5.0653    5.3717  -17.2055 C   0  0  0  0  0  0  0  0  0  0  0  0
   -5.5105    6.2363  -18.3317 C   0  0  0  0  0  0  0  0  0  0  0  0
   -4.8168    7.0789  -18.8773 O   0  0  0  0  0  0  0  0  0  0  0  0
   -6.8833    6.0103  -18.5584 N   0  0  0  0  0  0  0  0  0  0  0  0
   -8.2751    3.1408  -10.7884 C   0  0  0  0  0  0  0  0  0  0  0  0
   -8.6027    3.1582   -9.4506 C   0  0  0  0  0  0  0  0  0  0  0  0
   -9.1546    2.0573   -8.6062 C   0  0  0  0  0  0  0  0  0  0  0  0
  1  2  1  0
  2  3  1  0
  3  4  1  0
  4  5  2  0
  5  6  1  0
  6  7  2  0
  7  8  1  0
  8  9  1  0
  9 10  2  0
  9 11  1  0
 11 12  1  0
 12 13  2  0
 13 14  1  0
 13 15  1  0
 15 16  1  0
 16 17  1  0
 17 18  1  0
 18 19  2  0
 19 20  1  0
 20 21  1  0
 21 22  2  0
 21 23  1  0
  7 24  1  0
 24 25  2  0
 25 26  1  0
 26  2  1  0
 25  4  1  0
 17 11  2  0
 23 15  2  0
 20 16  2  0
M  END
>  <smiles>  (2358) 
C35744-P269

>  <fragmenstein_outcome>  (2358) 
acceptable

>  <inchikey>  (2358) 
IVFMGXUBLIMZRD-UHFFFAOYSA-N

>  <fragmenstein_mode>  (2358) 
expansion

>  <HIPPO Pose ID>  (2358) 
27620

>  <Energy>  (2358) 
138.708215

>  <fragmenstein_error>  (2358) 


>  <tags>  (2358) 
{'openbind_xx01zvns2b_c1_fragmenstein', 'fragmenstein_placed'}

>  <ref_pdb>  (2358) 
175

>  <scratch_subdir>  (2358) 
/opt/xchem-fragalysis-2/maxwin/BulkDock/SCRATCH/511028/C35744-P269

>  <alias>  (2358) 
CN1Cc2ccc(NC(=O)c3cc(Cl)c4c5c3C=NC=5C(=O)N=4)cc2C1

>  <HIPPO Compound ID>  (2358) 
35744

>  <fragmenstein_runtime>  (2358) 
5.534857

$$$$
CN1Cc2ccc(NC(=O)c3ccc4c(c3)C(C)(C)C(=O)N4)cc2C1
     RDKit          3D

 25 28  0  0  0  0  0  0  0  0999 V2000
  -10.1947    2.3770   -6.1400 C   0  0  0  0  0  0  0  0  0  0  0  0
   -9.0639    2.7778   -6.9477 N   0  0  0  0  0  0  0  0  0  0  0  0
   -8.8325    4.2219   -7.0256 C   0  0  0  0  0  0  0  0  0  0  0  0
   -8.4919    4.4987   -8.4546 C   0  0  0  0  0  0  0  0  0  0  0  0
   -8.1426    5.6940   -9.0556 C   0  0  0  0  0  0  0  0  0  0  0  0
   -7.9117    5.6966  -10.4344 C   0  0  0  0  0  0  0  0  0  0  0  0
   -8.0042    4.5100  -11.1846 C   0  0  0  0  0  0  0  0  0  0  0  0
   -7.7679    4.5858  -12.5547 N   0  0  0  0  0  0  0  0  0  0  0  0
   -7.6325    3.4687  -13.6128 C   0  0  0  0  0  0  0  0  0  0  0  0
   -7.6211    2.3087  -13.4905 O   0  0  0  0  0  0  0  0  0  0  0  0
   -7.4968    4.0762  -14.9584 C   0  0  0  0  0  0  0  0  0  0  0  0
   -8.5830    4.0153  -15.8534 C   0  0  0  0  0  0  0  0  0  0  0  0
   -8.4444    4.4685  -17.1671 C   0  0  0  0  0  0  0  0  0  0  0  0
   -7.2233    5.0018  -17.5219 C   0  0  0  0  0  0  0  0  0  0  0  0
   -6.1603    5.1215  -16.6254 C   0  0  0  0  0  0  0  0  0  0  0  0
   -6.2774    4.6538  -15.3275 C   0  0  0  0  0  0  0  0  0  0  0  0
   -4.9886    5.7711  -17.3235 C   0  0  0  0  0  0  0  0  0  0  0  0
   -3.7530    4.8826  -17.3498 C   0  0  0  0  0  0  0  0  0  0  0  0
   -4.6737    7.1388  -16.7249 C   0  0  0  0  0  0  0  0  0  0  0  0
   -5.5386    5.9569  -18.7556 C   0  0  0  0  0  0  0  0  0  0  0  0
   -4.9476    6.4535  -19.7020 O   0  0  0  0  0  0  0  0  0  0  0  0
   -6.8450    5.4917  -18.7583 N   0  0  0  0  0  0  0  0  0  0  0  0
   -8.3539    3.3101  -10.5641 C   0  0  0  0  0  0  0  0  0  0  0  0
   -8.6095    3.3288   -9.2004 C   0  0  0  0  0  0  0  0  0  0  0  0
   -9.0775    2.2154   -8.3168 C   0  0  0  0  0  0  0  0  0  0  0  0
  1  2  1  0
  2  3  1  0
  3  4  1  0
  4  5  2  0
  5  6  1  0
  6  7  2  0
  7  8  1  0
  8  9  1  0
  9 10  2  0
  9 11  1  0
 11 12  2  0
 12 13  1  0
 13 14  2  0
 14 15  1  0
 15 16  2  0
 15 17  1  0
 17 18  1  0
 17 19  1  0
 17 20  1  0
 20 21  2  0
 20 22  1  0
  7 23  1  0
 23 24  2  0
 24 25  1  0
 25  2  1  0
 24  4  1  0
 16 11  1  0
 22 14  1  0
M  END
>  <smiles>  (2359) 
C35751-P269

>  <fragmenstein_outcome>  (2359) 
acceptable

>  <inchikey>  (2359) 
KADSGMPYWRRADT-UHFFFAOYSA-N

>  <fragmenstein_mode>  (2359) 
expansion

>  <HIPPO Pose ID>  (2359) 
27622

>  <Energy>  (2359) 
71.576233

>  <fragmenstein_error>  (2359) 


>  <tags>  (2359) 
{'openbind_xx01zvns2b_c1_fragmenstein', 'fragmenstein_placed'}

>  <ref_pdb>  (2359) 
175

>  <scratch_subdir>  (2359) 
/opt/xchem-fragalysis-2/maxwin/BulkDock/SCRATCH/511028/C35751-P269

>  <alias>  (2359) 
CN1Cc2ccc(NC(=O)c3ccc4c(c3)C(C)(C)C(=O)N4)cc2C1

>  <HIPPO Compound ID>  (2359) 
35751

>  <fragmenstein_runtime>  (2359) 
7.527643

$$$$
CN1Cc2ccc(NC(=O)c3cc(Cl)c4c5c([nH]cc35)C(=O)N4)cc2C1
     RDKit          3D

 26 30  0  0  0  0  0  0  0  0999 V2000
  -10.3061    2.1385   -5.9945 C   0  0  0  0  0  0  0  0  0  0  0  0
   -9.0529    2.3726   -6.6890 N   0  0  0  0  0  0  0  0  0  0  0  0
   -8.7304    3.8066   -6.7861 C   0  0  0  0  0  0  0  0  0  0  0  0
   -8.5850    4.1035   -8.2395 C   0  0  0  0  0  0  0  0  0  0  0  0
   -8.3212    5.3132   -8.8481 C   0  0  0  0  0  0  0  0  0  0  0  0
   -8.2176    5.3353  -10.2373 C   0  0  0  0  0  0  0  0  0  0  0  0
   -8.3511    4.1570  -10.9937 C   0  0  0  0  0  0  0  0  0  0  0  0
   -8.1742    4.2016  -12.3732 N   0  0  0  0  0  0  0  0  0  0  0  0
   -7.8845    5.3907  -13.3061 C   0  0  0  0  0  0  0  0  0  0  0  0
   -7.8240    6.5333  -13.0787 O   0  0  0  0  0  0  0  0  0  0  0  0
   -7.5472    4.9557  -14.6561 C   0  0  0  0  0  0  0  0  0  0  0  0
   -8.4698    4.4602  -15.6474 C   0  0  0  0  0  0  0  0  0  0  0  0
   -8.1741    4.3584  -17.0905 C   0  0  0  0  0  0  0  0  0  0  0  0
   -9.4391    3.8487  -18.1368 Cl  0  0  0  0  0  0  0  0  0  0  0  0
   -6.9427    4.7481  -17.6116 C   0  0  0  0  0  0  0  0  0  0  0  0
   -6.1439    5.1057  -16.5864 C   0  0  0  0  0  0  0  0  0  0  0  0
   -4.9917    5.6120  -17.0482 C   0  0  0  0  0  0  0  0  0  0  0  0
   -4.3120    6.0336  -15.9420 N   0  0  0  0  0  0  0  0  0  0  0  0
   -5.1434    5.8391  -14.8128 C   0  0  0  0  0  0  0  0  0  0  0  0
   -6.3210    5.2567  -15.2408 C   0  0  0  0  0  0  0  0  0  0  0  0
   -4.9778    5.5908  -18.4763 C   0  0  0  0  0  0  0  0  0  0  0  0
   -4.1041    6.0515  -19.1855 O   0  0  0  0  0  0  0  0  0  0  0  0
   -6.2417    5.0077  -18.8075 N   0  0  0  0  0  0  0  0  0  0  0  0
   -8.6151    2.9400  -10.3646 C   0  0  0  0  0  0  0  0  0  0  0  0
   -8.7460    2.9393   -8.9833 C   0  0  0  0  0  0  0  0  0  0  0  0
   -9.0279    1.7995   -8.0589 C   0  0  0  0  0  0  0  0  0  0  0  0
  1  2  1  0
  2  3  1  0
  3  4  1  0
  4  5  2  0
  5  6  1  0
  6  7  2  0
  7  8  1  0
  8  9  1  0
  9 10  2  0
  9 11  1  0
 11 12  2  0
 12 13  1  0
 13 14  1  0
 13 15  2  0
 15 16  1  0
 16 17  2  0
 17 18  1  0
 18 19  1  0
 19 20  2  0
 17 21  1  0
 21 22  2  0
 21 23  1  0
  7 24  1  0
 24 25  2  0
 25 26  1  0
 26  2  1  0
 25  4  1  0
 20 11  1  0
 23 15  1  0
 20 16  1  0
M  END
>  <smiles>  (2360) 
C18652-P270

>  <fragmenstein_outcome>  (2360) 
acceptable

>  <inchikey>  (2360) 
QGYHWCDDLIQLQP-UHFFFAOYSA-N

>  <fragmenstein_mode>  (2360) 
expansion

>  <HIPPO Pose ID>  (2360) 
27657

>  <Energy>  (2360) 
98.76339

>  <fragmenstein_error>  (2360) 


>  <tags>  (2360) 
{'openbind_xx01zvns2b_c1_fragmenstein', 'fragmenstein_placed'}

>  <ref_pdb>  (2360) 
175

>  <scratch_subdir>  (2360) 
/opt/xchem-fragalysis-2/maxwin/BulkDock/SCRATCH/511028/C18652-P270

>  <alias>  (2360) 
CN1Cc2ccc(NC(=O)c3cc(Cl)c4c5c([nH]cc35)C(=O)N4)cc2C1

>  <HIPPO Compound ID>  (2360) 
18652

>  <fragmenstein_runtime>  (2360) 
5.791917

$$$$
CNC[C@@]12NNCc3c(C(=O)Nc4ccc5c(c4)CN(C)C5)cc(F)c(c31)NC2=O
     RDKit          3D

 30 34  0  0  0  0  0  0  0  0999 V2000
   -3.7528    8.9392  -18.3354 C   0  0  0  0  0  0  0  0  0  0  0  0
   -3.8076    7.5945  -17.7890 N   0  0  0  0  0  0  0  0  0  0  0  0
   -4.8938    6.8175  -18.4415 C   0  0  0  0  0  0  0  0  0  0  0  0
   -5.0815    5.3466  -17.9647 C   0  0  1  0  0  0  0  0  0  0  0  0
   -3.8825    4.7695  -17.3308 N   0  0  0  0  0  0  0  0  0  0  0  0
   -3.6164    5.5068  -16.0151 N   0  0  0  0  0  0  0  0  0  0  0  0
   -4.7476    5.3932  -15.0363 C   0  0  0  0  0  0  0  0  0  0  0  0
   -6.1222    5.2304  -15.6392 C   0  0  0  0  0  0  0  0  0  0  0  0
   -7.2967    4.9868  -14.9134 C   0  0  0  0  0  0  0  0  0  0  0  0
   -7.3487    5.3898  -13.4905 C   0  0  0  0  0  0  0  0  0  0  0  0
   -7.0464    6.4909  -13.2445 O   0  0  0  0  0  0  0  0  0  0  0  0
   -7.7999    4.2431  -12.5586 N   0  0  0  0  0  0  0  0  0  0  0  0
   -8.0563    4.2375  -11.1871 C   0  0  0  0  0  0  0  0  0  0  0  0
   -7.8191    5.3970  -10.4275 C   0  0  0  0  0  0  0  0  0  0  0  0
   -8.0279    5.4137   -9.0482 C   0  0  0  0  0  0  0  0  0  0  0  0
   -8.4751    4.2562   -8.4460 C   0  0  0  0  0  0  0  0  0  0  0  0
   -8.7280    3.1071   -9.1917 C   0  0  0  0  0  0  0  0  0  0  0  0
   -8.5235    3.0759  -10.5660 C   0  0  0  0  0  0  0  0  0  0  0  0
   -9.2413    2.0374   -8.2781 C   0  0  0  0  0  0  0  0  0  0  0  0
   -9.1168    2.5890   -6.9164 N   0  0  0  0  0  0  0  0  0  0  0  0
  -10.2269    2.2968   -6.0373 C   0  0  0  0  0  0  0  0  0  0  0  0
   -8.7770    4.0095   -7.0043 C   0  0  0  0  0  0  0  0  0  0  0  0
   -8.4587    4.5085  -15.5588 C   0  0  0  0  0  0  0  0  0  0  0  0
   -8.4433    4.2439  -16.9299 C   0  0  0  0  0  0  0  0  0  0  0  0
   -9.5192    3.7238  -17.5357 F   0  0  0  0  0  0  0  0  0  0  0  0
   -7.3008    4.5447  -17.6346 C   0  0  0  0  0  0  0  0  0  0  0  0
   -6.2097    5.1189  -17.0100 C   0  0  0  0  0  0  0  0  0  0  0  0
   -6.9577    4.2611  -18.9453 N   0  0  0  0  0  0  0  0  0  0  0  0
   -5.6231    4.5946  -19.2078 C   0  0  0  0  0  0  0  0  0  0  0  0
   -5.0266    4.4077  -20.2580 O   0  0  0  0  0  0  0  0  0  0  0  0
  1  2  1  0
  2  3  1  0
  4  3  1  6
  4  5  1  0
  5  6  1  0
  6  7  1  0
  7  8  1  0
  8  9  2  0
  9 10  1  0
 10 11  2  0
 10 12  1  0
 12 13  1  0
 13 14  2  0
 14 15  1  0
 15 16  2  0
 16 17  1  0
 17 18  2  0
 17 19  1  0
 19 20  1  0
 20 21  1  0
 20 22  1  0
  9 23  1  0
 23 24  2  0
 24 25  1  0
 24 26  1  0
 26 27  2  0
 26 28  1  0
 28 29  1  0
 29 30  2  0
 27  4  1  0
 29  4  1  0
 27  8  1  0
 18 13  1  0
 22 16  1  0
M  END
>  <smiles>  (2361) 
C35831-P132

>  <fragmenstein_outcome>  (2361) 
acceptable

>  <inchikey>  (2361) 
NCNSRNMQCXLHCY-UHFFFAOYSA-N

>  <fragmenstein_mode>  (2361) 
expansion

>  <HIPPO Pose ID>  (2361) 
27669

>  <Energy>  (2361) 
214.248818

>  <fragmenstein_error>  (2361) 


>  <tags>  (2361) 
{'openbind_xx01zvns2b_c1_fragmenstein', 'fragmenstein_placed'}

>  <ref_pdb>  (2361) 
175

>  <scratch_subdir>  (2361) 
/opt/xchem-fragalysis-2/maxwin/BulkDock/SCRATCH/511028/C35831-P132

>  <alias>  (2361) 
CNC[C@@]12NNCc3c(C(=O)Nc4ccc5c(c4)CN(C)C5)cc(F)c(c31)NC2=O

>  <HIPPO Compound ID>  (2361) 
21639

>  <fragmenstein_runtime>  (2361) 
4.743306

$$$$
CN1CCC(c2cc(NC(=O)c3cc(Cl)cc4c3cnn4C3CNC3)cc3cn(C)cc23)CC1
     RDKit          3D

 34 39  0  0  0  0  0  0  0  0999 V2000
   -5.9876   10.4024   -7.7553 C   0  0  0  0  0  0  0  0  0  0  0  0
   -5.8835    9.0214   -8.2194 N   0  0  0  0  0  0  0  0  0  0  0  0
   -6.8048    8.7451   -9.3330 C   0  0  0  0  0  0  0  0  0  0  0  0
   -8.1095    8.0775   -8.8973 C   0  0  0  0  0  0  0  0  0  0  0  0
   -7.8620    6.7408   -8.1685 C   0  0  0  0  0  0  0  0  0  0  0  0
   -8.1024    5.4982   -8.9895 C   0  0  0  0  0  0  0  0  0  0  0  0
   -7.8619    5.4042  -10.3926 C   0  0  0  0  0  0  0  0  0  0  0  0
   -8.0506    4.2280  -11.2085 C   0  0  0  0  0  0  0  0  0  0  0  0
   -7.7833    4.2969  -12.5790 N   0  0  0  0  0  0  0  0  0  0  0  0
   -7.3391    5.4892  -13.4565 C   0  0  0  0  0  0  0  0  0  0  0  0
   -7.0523    6.5818  -13.1602 O   0  0  0  0  0  0  0  0  0  0  0  0
   -7.2267    5.1132  -14.8814 C   0  0  0  0  0  0  0  0  0  0  0  0
   -8.2804    4.4944  -15.5624 C   0  0  0  0  0  0  0  0  0  0  0  0
   -8.1771    4.2787  -16.9347 C   0  0  0  0  0  0  0  0  0  0  0  0
   -9.5081    3.6032  -17.7763 Cl  0  0  0  0  0  0  0  0  0  0  0  0
   -7.0418    4.6444  -17.6647 C   0  0  0  0  0  0  0  0  0  0  0  0
   -5.9963    5.2514  -16.9569 C   0  0  0  0  0  0  0  0  0  0  0  0
   -6.0703    5.4943  -15.5875 C   0  0  0  0  0  0  0  0  0  0  0  0
   -4.8502    6.1290  -15.2699 C   0  0  0  0  0  0  0  0  0  0  0  0
   -4.0554    6.2738  -16.3291 N   0  0  0  0  0  0  0  0  0  0  0  0
   -4.7681    5.7409  -17.3432 N   0  0  0  0  0  0  0  0  0  0  0  0
   -4.2564    5.6764  -18.7269 C   0  0  0  0  0  0  0  0  0  0  0  0
   -3.0417    6.5762  -19.0129 C   0  0  0  0  0  0  0  0  0  0  0  0
   -3.9685    7.6644  -19.4197 N   0  0  0  0  0  0  0  0  0  0  0  0
   -5.0041    6.6345  -19.6723 C   0  0  0  0  0  0  0  0  0  0  0  0
   -8.4909    2.9902  -10.6953 C   0  0  0  0  0  0  0  0  0  0  0  0
   -8.7291    3.0900   -9.3317 C   0  0  0  0  0  0  0  0  0  0  0  0
   -9.1988    2.0879   -8.5244 C   0  0  0  0  0  0  0  0  0  0  0  0
   -9.3380    2.6263   -7.2655 N   0  0  0  0  0  0  0  0  0  0  0  0
   -9.9112    1.9280   -6.1407 C   0  0  0  0  0  0  0  0  0  0  0  0
   -8.9078    3.9352   -7.2461 C   0  0  0  0  0  0  0  0  0  0  0  0
   -8.5477    4.2557   -8.5320 C   0  0  0  0  0  0  0  0  0  0  0  0
   -6.4535    6.6917   -7.5495 C   0  0  0  0  0  0  0  0  0  0  0  0
   -6.0192    8.0833   -7.0962 C   0  0  0  0  0  0  0  0  0  0  0  0
  1  2  1  0
  2  3  1  0
  3  4  1  0
  4  5  1  0
  5  6  1  0
  6  7  2  0
  7  8  1  0
  8  9  1  0
  9 10  1  0
 10 11  2  0
 10 12  1  0
 12 13  2  0
 13 14  1  0
 14 15  1  0
 14 16  2  0
 16 17  1  0
 17 18  2  0
 18 19  1  0
 19 20  2  0
 20 21  1  0
 21 22  1  0
 22 23  1  0
 23 24  1  0
 24 25  1  0
  8 26  2  0
 26 27  1  0
 27 28  2  0
 28 29  1  0
 29 30  1  0
 29 31  1  0
 31 32  2  0
  5 33  1  0
 33 34  1  0
 34  2  1  0
 32  6  1  0
 18 12  1  0
 25 22  1  0
 32 27  1  0
 21 17  1  0
M  END
>  <smiles>  (2362) 
C36253-P272

>  <fragmenstein_outcome>  (2362) 
acceptable

>  <inchikey>  (2362) 
HUGLBVFZEBSREN-UHFFFAOYSA-N

>  <fragmenstein_mode>  (2362) 
expansion

>  <HIPPO Pose ID>  (2362) 
27814

>  <Energy>  (2362) 
76.59812

>  <fragmenstein_error>  (2362) 


>  <tags>  (2362) 
{'openbind_xx01zvns2b_c1_fragmenstein', 'fragmenstein_placed'}

>  <ref_pdb>  (2362) 
175

>  <scratch_subdir>  (2362) 
/opt/xchem-fragalysis-2/maxwin/BulkDock/SCRATCH/511028/C36253-P272

>  <alias>  (2362) 
CN1CCC(c2cc(NC(=O)c3cc(Cl)cc4c3cnn4C3CNC3)cc3cn(C)cc23)CC1

>  <HIPPO Compound ID>  (2362) 
36253

>  <fragmenstein_runtime>  (2362) 
5.683724

$$$$
NCCc1cc(NC(=O)c2cc(Cl)cc3c2cnn3C2(O)CN(c3ccccc3)C2)c(N2CCCC2=O)cc1F
     RDKit          3D

 40 45  0  0  0  0  0  0  0  0999 V2000
  -10.6779    2.4717   -6.4983 N   0  0  0  0  0  0  0  0  0  0  0  0
   -9.5069    1.6862   -6.9028 C   0  0  0  0  0  0  0  0  0  0  0  0
   -9.0576    1.8144   -8.3759 C   0  0  0  0  0  0  0  0  0  0  0  0
   -8.6289    3.1496   -8.9459 C   0  0  0  0  0  0  0  0  0  0  0  0
   -8.2661    3.2316  -10.3111 C   0  0  0  0  0  0  0  0  0  0  0  0
   -7.9058    4.4559  -10.9166 C   0  0  0  0  0  0  0  0  0  0  0  0
   -7.6540    4.4329  -12.3009 N   0  0  0  0  0  0  0  0  0  0  0  0
   -7.8378    5.5320  -13.3743 C   0  0  0  0  0  0  0  0  0  0  0  0
   -8.1539    6.6522  -13.2656 O   0  0  0  0  0  0  0  0  0  0  0  0
   -7.4896    5.0600  -14.7258 C   0  0  0  0  0  0  0  0  0  0  0  0
   -8.4563    4.4148  -15.4957 C   0  0  0  0  0  0  0  0  0  0  0  0
   -8.2104    4.1867  -16.8438 C   0  0  0  0  0  0  0  0  0  0  0  0
   -9.4435    3.5024  -17.8162 Cl  0  0  0  0  0  0  0  0  0  0  0  0
   -7.0089    4.5569  -17.4574 C   0  0  0  0  0  0  0  0  0  0  0  0
   -6.0492    5.2108  -16.6713 C   0  0  0  0  0  0  0  0  0  0  0  0
   -6.2731    5.4610  -15.3135 C   0  0  0  0  0  0  0  0  0  0  0  0
   -5.1158    6.1366  -14.8823 C   0  0  0  0  0  0  0  0  0  0  0  0
   -4.2428    6.3526  -15.8630 N   0  0  0  0  0  0  0  0  0  0  0  0
   -4.8038    5.7480  -16.9367 N   0  0  0  0  0  0  0  0  0  0  0  0
   -4.0354    5.6787  -18.2169 C   0  0  0  0  0  0  0  0  0  0  0  0
   -3.0183    4.6338  -18.2820 O   0  0  0  0  0  0  0  0  0  0  0  0
   -4.9136    5.8622  -19.4830 C   0  0  0  0  0  0  0  0  0  0  0  0
   -3.9315    6.8121  -19.9379 N   0  0  0  0  0  0  0  0  0  0  0  0
   -4.0983    7.7263  -20.9986 C   0  0  0  0  0  0  0  0  0  0  0  0
   -4.8968    7.3989  -22.1035 C   0  0  0  0  0  0  0  0  0  0  0  0
   -5.0696    8.2967  -23.1604 C   0  0  0  0  0  0  0  0  0  0  0  0
   -4.4362    9.5357  -23.1309 C   0  0  0  0  0  0  0  0  0  0  0  0
   -3.6250    9.8710  -22.0496 C   0  0  0  0  0  0  0  0  0  0  0  0
   -3.4539    8.9694  -20.9947 C   0  0  0  0  0  0  0  0  0  0  0  0
   -3.5220    7.1063  -18.5891 C   0  0  0  0  0  0  0  0  0  0  0  0
   -7.8719    5.6220  -10.1254 C   0  0  0  0  0  0  0  0  0  0  0  0
   -7.3568    6.8679  -10.5395 N   0  0  0  0  0  0  0  0  0  0  0  0
   -8.0861    8.1010  -10.3691 C   0  0  0  0  0  0  0  0  0  0  0  0
   -7.0393    9.1710  -10.6059 C   0  0  0  0  0  0  0  0  0  0  0  0
   -6.0706    8.5215  -11.5822 C   0  0  0  0  0  0  0  0  0  0  0  0
   -6.1617    7.0550  -11.2301 C   0  0  0  0  0  0  0  0  0  0  0  0
   -5.3051    6.2307  -11.5132 O   0  0  0  0  0  0  0  0  0  0  0  0
   -8.2285    5.5354   -8.7765 C   0  0  0  0  0  0  0  0  0  0  0  0
   -8.5724    4.3203   -8.2016 C   0  0  0  0  0  0  0  0  0  0  0  0
   -8.8381    4.3308   -6.8900 F   0  0  0  0  0  0  0  0  0  0  0  0
  1  2  1  0
  2  3  1  0
  3  4  1  0
  4  5  2  0
  5  6  1  0
  6  7  1  0
  7  8  1  0
  8  9  2  0
  8 10  1  0
 10 11  2  0
 11 12  1  0
 12 13  1  0
 12 14  2  0
 14 15  1  0
 15 16  2  0
 16 17  1  0
 17 18  2  0
 18 19  1  0
 19 20  1  0
 20 21  1  0
 20 22  1  0
 22 23  1  0
 23 24  1  0
 24 25  2  0
 25 26  1  0
 26 27  2  0
 27 28  1  0
 28 29  2  0
 23 30  1  0
  6 31  2  0
 31 32  1  0
 32 33  1  0
 33 34  1  0
 34 35  1  0
 35 36  1  0
 36 37  2  0
 31 38  1  0
 38 39  2  0
 39 40  1  0
 39  4  1  0
 16 10  1  0
 30 20  1  0
 36 32  1  0
 19 15  1  0
 29 24  1  0
M  END
>  <smiles>  (2363) 
C36373-P272

>  <fragmenstein_outcome>  (2363) 
acceptable

>  <inchikey>  (2363) 
OVAVVGKVYBUUJF-UHFFFAOYSA-N

>  <fragmenstein_mode>  (2363) 
expansion

>  <HIPPO Pose ID>  (2363) 
27869

>  <Energy>  (2363) 
139.872963

>  <fragmenstein_error>  (2363) 


>  <tags>  (2363) 
{'openbind_xx01zvns2b_c1_fragmenstein', 'fragmenstein_placed'}

>  <ref_pdb>  (2363) 
175

>  <scratch_subdir>  (2363) 
/opt/xchem-fragalysis-2/maxwin/BulkDock/SCRATCH/511028/C36373-P272

>  <alias>  (2363) 
NCCc1cc(NC(=O)c2cc(Cl)cc3c2cnn3C2(O)CN(c3ccccc3)C2)c(N2CCCC2=O)cc1F

>  <HIPPO Compound ID>  (2363) 
36373

>  <fragmenstein_runtime>  (2363) 
12.7957

$$$$
CC1(C)Cc2cc(NC(=O)c3cc(Cl)cc4c3C[C@]35CCNC[C@H]3O[C@H]3NCC[C@H]3N45)ccc2O1
     RDKit          3D

 35 41  0  0  0  0  0  0  0  0999 V2000
   -9.5045    5.9616   -5.9799 C   0  0  0  0  0  0  0  0  0  0  0  0
   -8.4623    5.4708   -6.9867 C   0  0  0  0  0  0  0  0  0  0  0  0
   -7.0968    5.4576   -6.2971 C   0  0  0  0  0  0  0  0  0  0  0  0
   -8.4357    6.3321   -8.2718 C   0  0  0  0  0  0  0  0  0  0  0  0
   -8.4360    5.2677   -9.3016 C   0  0  0  0  0  0  0  0  0  0  0  0
   -8.2988    5.3775  -10.6761 C   0  0  0  0  0  0  0  0  0  0  0  0
   -8.3207    4.2105  -11.4476 C   0  0  0  0  0  0  0  0  0  0  0  0
   -8.1248    4.2669  -12.8256 N   0  0  0  0  0  0  0  0  0  0  0  0
   -7.9241    5.4764  -13.7598 C   0  0  0  0  0  0  0  0  0  0  0  0
   -7.8143    6.6123  -13.5144 O   0  0  0  0  0  0  0  0  0  0  0  0
   -7.7564    5.0622  -15.1681 C   0  0  0  0  0  0  0  0  0  0  0  0
   -8.7937    4.5067  -15.9066 C   0  0  0  0  0  0  0  0  0  0  0  0
   -8.6334    4.3426  -17.2862 C   0  0  0  0  0  0  0  0  0  0  0  0
   -9.9725    3.8375  -18.2377 Cl  0  0  0  0  0  0  0  0  0  0  0  0
   -7.4300    4.6645  -17.9217 C   0  0  0  0  0  0  0  0  0  0  0  0
   -6.3824    5.1717  -17.1670 C   0  0  0  0  0  0  0  0  0  0  0  0
   -6.5641    5.3791  -15.8080 C   0  0  0  0  0  0  0  0  0  0  0  0
   -5.3623    6.0272  -15.2134 C   0  0  0  0  0  0  0  0  0  0  0  0
   -4.3946    6.1355  -16.4246 C   0  0  2  0  0  0  0  0  0  0  0  0
   -3.1152    5.3194  -16.1454 C   0  0  0  0  0  0  0  0  0  0  0  0
   -2.2597    5.9553  -15.0470 C   0  0  0  0  0  0  0  0  0  0  0  0
   -1.9251    7.3508  -15.3364 N   0  0  0  0  0  0  0  0  0  0  0  0
   -3.1382    8.1585  -15.5513 C   0  0  0  0  0  0  0  0  0  0  0  0
   -4.0016    7.6081  -16.7039 C   0  0  1  0  0  0  0  0  0  0  0  0
   -3.1948    7.7034  -17.8918 O   0  0  0  0  0  0  0  0  0  0  0  0
   -3.8420    7.2335  -19.0616 C   0  0  1  0  0  0  0  0  0  0  0  0
   -2.8357    6.5660  -19.8961 N   0  0  0  0  0  0  0  0  0  0  0  0
   -3.2582    5.1714  -19.9825 C   0  0  0  0  0  0  0  0  0  0  0  0
   -4.7639    5.2691  -19.9962 C   0  0  0  0  0  0  0  0  0  0  0  0
   -5.0453    6.2574  -18.8904 C   0  0  1  0  0  0  0  0  0  0  0  0
   -5.0998    5.5442  -17.6034 N   0  0  0  0  0  0  0  0  0  0  0  0
   -8.4865    2.9618  -10.8299 C   0  0  0  0  0  0  0  0  0  0  0  0
   -8.6496    2.8699   -9.4423 C   0  0  0  0  0  0  0  0  0  0  0  0
   -8.6233    4.0358   -8.7047 C   0  0  0  0  0  0  0  0  0  0  0  0
   -8.7841    4.0989   -7.3460 O   0  0  0  0  0  0  0  0  0  0  0  0
  1  2  1  0
  2  3  1  0
  2  4  1  0
  4  5  1  0
  5  6  2  0
  6  7  1  0
  7  8  1  0
  8  9  1  0
  9 10  2  0
  9 11  1  0
 11 12  2  0
 12 13  1  0
 13 14  1  0
 13 15  2  0
 15 16  1  0
 16 17  2  0
 17 18  1  0
 19 18  1  1
 19 20  1  0
 20 21  1  0
 21 22  1  0
 22 23  1  0
 24 23  1  1
 24 25  1  0
 25 26  1  0
 26 27  1  6
 27 28  1  0
 28 29  1  0
 30 29  1  6
 30 31  1  0
  7 32  2  0
 32 33  1  0
 33 34  2  0
 34 35  1  0
 35  2  1  0
 34  5  1  0
 17 11  1  0
 24 19  1  0
 30 26  1  0
 31 16  1  0
 31 19  1  0
M  END
>  <smiles>  (2364) 
C36645-P274

>  <fragmenstein_outcome>  (2364) 
acceptable

>  <inchikey>  (2364) 
YVRUDUZHGJWBSQ-UHFFFAOYSA-N

>  <fragmenstein_mode>  (2364) 
expansion

>  <HIPPO Pose ID>  (2364) 
27972

>  <Energy>  (2364) 
140.541031

>  <fragmenstein_error>  (2364) 


>  <tags>  (2364) 
{'openbind_xx01zvns2b_c1_fragmenstein', 'fragmenstein_placed'}

>  <ref_pdb>  (2364) 
175

>  <scratch_subdir>  (2364) 
/opt/xchem-fragalysis-2/maxwin/BulkDock/SCRATCH/511028/C36645-P274

>  <alias>  (2364) 
CC1(C)Cc2cc(NC(=O)c3cc(Cl)cc4c3C[C@]35CCNC[C@H]3O[C@H]3NCC[C@H]3N45)ccc2O1

>  <HIPPO Compound ID>  (2364) 
35623

>  <fragmenstein_runtime>  (2364) 
7.701603

$$$$
CC1(C)Cc2cccc(NC(=O)c3cc(Cl)cc4c3cnn4[C@@H]3CN[C@@H]3N)c2O1
     RDKit          3D

 29 33  0  0  0  0  0  0  0  0999 V2000
   -8.7414    8.7077  -10.1096 C   0  0  0  0  0  0  0  0  0  0  0  0
   -7.8167    7.4938  -10.0033 C   0  0  0  0  0  0  0  0  0  0  0  0
   -6.3546    7.9553   -9.9630 C   0  0  0  0  0  0  0  0  0  0  0  0
   -8.1744    6.6257   -8.7812 C   0  0  0  0  0  0  0  0  0  0  0  0
   -8.2067    5.2852   -9.4092 C   0  0  0  0  0  0  0  0  0  0  0  0
   -8.3740    4.0539   -8.8009 C   0  0  0  0  0  0  0  0  0  0  0  0
   -8.3962    2.9204   -9.6094 C   0  0  0  0  0  0  0  0  0  0  0  0
   -8.2321    3.0315  -10.9996 C   0  0  0  0  0  0  0  0  0  0  0  0
   -8.0343    4.2765  -11.6049 C   0  0  0  0  0  0  0  0  0  0  0  0
   -7.7702    4.2905  -12.9757 N   0  0  0  0  0  0  0  0  0  0  0  0
   -7.3364    5.4471  -13.9015 C   0  0  0  0  0  0  0  0  0  0  0  0
   -7.0569    6.5527  -13.6517 O   0  0  0  0  0  0  0  0  0  0  0  0
   -7.2840    5.0339  -15.3136 C   0  0  0  0  0  0  0  0  0  0  0  0
   -8.4275    4.5787  -15.9569 C   0  0  0  0  0  0  0  0  0  0  0  0
   -8.4053    4.4385  -17.3355 C   0  0  0  0  0  0  0  0  0  0  0  0
   -9.8656    4.0187  -18.1173 Cl  0  0  0  0  0  0  0  0  0  0  0  0
   -7.2733    4.7439  -18.1063 C   0  0  0  0  0  0  0  0  0  0  0  0
   -6.1077    5.1581  -17.4418 C   0  0  0  0  0  0  0  0  0  0  0  0
   -6.1066    5.2700  -16.0448 C   0  0  0  0  0  0  0  0  0  0  0  0
   -4.7968    5.6361  -15.7035 C   0  0  0  0  0  0  0  0  0  0  0  0
   -4.0053    5.7324  -16.7632 N   0  0  0  0  0  0  0  0  0  0  0  0
   -4.8345    5.5598  -17.8298 N   0  0  0  0  0  0  0  0  0  0  0  0
   -4.3352    6.1439  -19.0873 C   0  0  2  0  0  0  0  0  0  0  0  0
   -5.2000    7.1937  -19.7673 C   0  0  0  0  0  0  0  0  0  0  0  0
   -4.5983    6.7410  -21.0558 N   0  0  0  0  0  0  0  0  0  0  0  0
   -4.3011    5.4391  -20.4294 C   0  0  2  0  0  0  0  0  0  0  0  0
   -5.4049    4.5738  -20.7582 N   0  0  0  0  0  0  0  0  0  0  0  0
   -8.0595    5.3961  -10.7868 C   0  0  0  0  0  0  0  0  0  0  0  0
   -7.9938    6.6999  -11.2030 O   0  0  0  0  0  0  0  0  0  0  0  0
  1  2  1  0
  2  3  1  0
  2  4  1  0
  4  5  1  0
  5  6  2  0
  6  7  1  0
  7  8  2  0
  8  9  1  0
  9 10  1  0
 10 11  1  0
 11 12  2  0
 11 13  1  0
 13 14  2  0
 14 15  1  0
 15 16  1  0
 15 17  2  0
 17 18  1  0
 18 19  2  0
 19 20  1  0
 20 21  2  0
 21 22  1  0
 23 22  1  1
 23 24  1  0
 24 25  1  0
 25 26  1  0
 26 27  1  1
  9 28  2  0
 28 29  1  0
 29  2  1  0
 28  5  1  0
 19 13  1  0
 26 23  1  0
 22 18  1  0
M  END
>  <smiles>  (2365) 
C36693-P86

>  <fragmenstein_outcome>  (2365) 
acceptable

>  <inchikey>  (2365) 
ARHXKILUXXRFPW-UHFFFAOYSA-N

>  <fragmenstein_mode>  (2365) 
expansion

>  <HIPPO Pose ID>  (2365) 
27983

>  <Energy>  (2365) 
67.660011

>  <fragmenstein_error>  (2365) 


>  <tags>  (2365) 
{'openbind_xx01zvns2b_c1_fragmenstein', 'fragmenstein_placed'}

>  <ref_pdb>  (2365) 
175

>  <scratch_subdir>  (2365) 
/opt/xchem-fragalysis-2/maxwin/BulkDock/SCRATCH/511028/C36693-P86

>  <alias>  (2365) 
CC1(C)Cc2cccc(NC(=O)c3cc(Cl)cc4c3cnn4[C@@H]3CN[C@@H]3N)c2O1

>  <HIPPO Compound ID>  (2365) 
37219

>  <fragmenstein_runtime>  (2365) 
9.6703

$$$$
CC1(C)Cc2cccc(N[C@@](C)(O)c3cc(Cl)cc4c3cnn4C3CNC3)c2O1
     RDKit          3D

 29 33  0  0  0  0  0  0  0  0999 V2000
   -9.3453    8.5076   -9.9768 C   0  0  0  0  0  0  0  0  0  0  0  0
   -8.3103    7.3843  -10.0676 C   0  0  0  0  0  0  0  0  0  0  0  0
   -6.9175    7.9963  -10.2699 C   0  0  0  0  0  0  0  0  0  0  0  0
   -8.3500    6.4829   -8.8170 C   0  0  0  0  0  0  0  0  0  0  0  0
   -8.4048    5.1478   -9.4518 C   0  0  0  0  0  0  0  0  0  0  0  0
   -8.3413    3.9065   -8.8466 C   0  0  0  0  0  0  0  0  0  0  0  0
   -8.3915    2.7776   -9.6594 C   0  0  0  0  0  0  0  0  0  0  0  0
   -8.4941    2.9058  -11.0543 C   0  0  0  0  0  0  0  0  0  0  0  0
   -8.5644    4.1609  -11.6785 C   0  0  0  0  0  0  0  0  0  0  0  0
   -8.5247    4.2506  -13.0926 N   0  0  0  0  0  0  0  0  0  0  0  0
   -7.2050    4.4603  -13.7017 C   0  0  1  0  0  0  0  0  0  0  0  0
   -6.4814    5.6748  -13.1041 C   0  0  0  0  0  0  0  0  0  0  0  0
   -6.4138    3.3045  -13.4570 O   0  0  0  0  0  0  0  0  0  0  0  0
   -7.2607    4.5948  -15.2287 C   0  0  0  0  0  0  0  0  0  0  0  0
   -8.4375    4.4254  -15.9906 C   0  0  0  0  0  0  0  0  0  0  0  0
   -8.4288    4.4977  -17.3885 C   0  0  0  0  0  0  0  0  0  0  0  0
   -9.8863    4.1525  -18.2498 Cl  0  0  0  0  0  0  0  0  0  0  0  0
   -7.2781    4.8596  -18.1026 C   0  0  0  0  0  0  0  0  0  0  0  0
   -6.1001    5.0480  -17.3660 C   0  0  0  0  0  0  0  0  0  0  0  0
   -6.0765    4.8287  -15.9841 C   0  0  0  0  0  0  0  0  0  0  0  0
   -4.7010    4.8367  -15.6595 C   0  0  0  0  0  0  0  0  0  0  0  0
   -3.9262    5.1738  -16.6779 N   0  0  0  0  0  0  0  0  0  0  0  0
   -4.8006    5.4116  -17.6781 N   0  0  0  0  0  0  0  0  0  0  0  0
   -4.2372    6.1127  -18.8314 C   0  0  0  0  0  0  0  0  0  0  0  0
   -5.1056    7.0683  -19.6415 C   0  0  0  0  0  0  0  0  0  0  0  0
   -4.3367    6.6089  -20.8434 N   0  0  0  0  0  0  0  0  0  0  0  0
   -4.1566    5.3074  -20.1143 C   0  0  0  0  0  0  0  0  0  0  0  0
   -8.5343    5.2698  -10.8297 C   0  0  0  0  0  0  0  0  0  0  0  0
   -8.6160    6.5810  -11.2415 O   0  0  0  0  0  0  0  0  0  0  0  0
  1  2  1  0
  2  3  1  0
  2  4  1  0
  4  5  1  0
  5  6  2  0
  6  7  1  0
  7  8  2  0
  8  9  1  0
  9 10  1  0
 10 11  1  0
 11 12  1  1
 11 13  1  0
 11 14  1  0
 14 15  2  0
 15 16  1  0
 16 17  1  0
 16 18  2  0
 18 19  1  0
 19 20  2  0
 20 21  1  0
 21 22  2  0
 22 23  1  0
 23 24  1  0
 24 25  1  0
 25 26  1  0
 26 27  1  0
  9 28  2  0
 28 29  1  0
 29  2  1  0
 28  5  1  0
 20 14  1  0
 27 24  1  0
 23 19  1  0
M  END
>  <smiles>  (2366) 
C36721-P274

>  <fragmenstein_outcome>  (2366) 
acceptable

>  <inchikey>  (2366) 
ZQRZEGCWOHKELN-UHFFFAOYSA-N

>  <fragmenstein_mode>  (2366) 
expansion

>  <HIPPO Pose ID>  (2366) 
27995

>  <Energy>  (2366) 
60.319965

>  <fragmenstein_error>  (2366) 


>  <tags>  (2366) 
{'openbind_xx01zvns2b_c1_fragmenstein', 'fragmenstein_placed'}

>  <ref_pdb>  (2366) 
175

>  <scratch_subdir>  (2366) 
/opt/xchem-fragalysis-2/maxwin/BulkDock/SCRATCH/511028/C36721-P274

>  <alias>  (2366) 
CC1(C)Cc2cccc(N[C@@](C)(O)c3cc(Cl)cc4c3cnn4C3CNC3)c2O1

>  <HIPPO Compound ID>  (2366) 
36721

>  <fragmenstein_runtime>  (2366) 
8.272136

$$$$
C[C@@H]1[C@H](n2ncc3c(C(=O)Nc4cc(CN(C)C)c(O)c5c4OC(C)(C)C5)cc(Cl)cc32)CN1CO
     RDKit          3D

 36 40  0  0  0  0  0  0  0  0999 V2000
   -4.7342    8.0294  -18.9158 C   0  0  0  0  0  0  0  0  0  0  0  0
   -4.7176    6.8773  -19.9133 C   0  0  2  0  0  0  0  0  0  0  0  0
   -4.9131    5.4056  -19.4784 C   0  0  2  0  0  0  0  0  0  0  0  0
   -5.2169    5.2193  -18.0451 N   0  0  0  0  0  0  0  0  0  0  0  0
   -4.3005    5.4183  -17.0740 N   0  0  0  0  0  0  0  0  0  0  0  0
   -5.0035    5.3138  -15.9483 C   0  0  0  0  0  0  0  0  0  0  0  0
   -6.3492    4.9505  -16.1747 C   0  0  0  0  0  0  0  0  0  0  0  0
   -7.4829    4.7247  -15.3608 C   0  0  0  0  0  0  0  0  0  0  0  0
   -7.3981    5.1564  -13.9472 C   0  0  0  0  0  0  0  0  0  0  0  0
   -6.8354    6.1728  -13.7951 O   0  0  0  0  0  0  0  0  0  0  0  0
   -8.1092    4.2341  -12.9165 N   0  0  0  0  0  0  0  0  0  0  0  0
   -8.3486    4.4147  -11.5472 C   0  0  0  0  0  0  0  0  0  0  0  0
   -8.5832    3.3566  -10.6469 C   0  0  0  0  0  0  0  0  0  0  0  0
   -8.7626    3.5953   -9.2393 C   0  0  0  0  0  0  0  0  0  0  0  0
   -9.1054    2.4072   -8.3179 C   0  0  0  0  0  0  0  0  0  0  0  0
   -9.5751    2.7411   -6.9492 N   0  0  0  0  0  0  0  0  0  0  0  0
   -8.4765    3.0224   -6.0269 C   0  0  0  0  0  0  0  0  0  0  0  0
  -10.3681    1.6735   -6.3557 C   0  0  0  0  0  0  0  0  0  0  0  0
   -8.6763    4.9251   -8.7902 C   0  0  0  0  0  0  0  0  0  0  0  0
   -8.8226    5.2676   -7.4823 O   0  0  0  0  0  0  0  0  0  0  0  0
   -8.4859    5.9573   -9.6849 C   0  0  0  0  0  0  0  0  0  0  0  0
   -8.3496    5.7032  -11.0308 C   0  0  0  0  0  0  0  0  0  0  0  0
   -8.3286    6.8587  -11.7768 O   0  0  0  0  0  0  0  0  0  0  0  0
   -8.0927    7.9292  -10.8335 C   0  0  0  0  0  0  0  0  0  0  0  0
   -6.6087    8.3117  -10.9037 C   0  0  0  0  0  0  0  0  0  0  0  0
   -8.9559    9.1180  -11.2584 C   0  0  0  0  0  0  0  0  0  0  0  0
   -8.4922    7.4194   -9.4402 C   0  0  0  0  0  0  0  0  0  0  0  0
   -8.6953    4.3806  -15.9671 C   0  0  0  0  0  0  0  0  0  0  0  0
   -8.7739    4.2970  -17.3593 C   0  0  0  0  0  0  0  0  0  0  0  0
  -10.2922    4.0061  -18.1129 Cl  0  0  0  0  0  0  0  0  0  0  0  0
   -7.6693    4.5397  -18.1842 C   0  0  0  0  0  0  0  0  0  0  0  0
   -6.4611    4.8724  -17.5608 C   0  0  0  0  0  0  0  0  0  0  0  0
   -3.4447    5.1862  -19.8482 C   0  0  0  0  0  0  0  0  0  0  0  0
   -3.3265    6.5710  -20.3383 N   0  0  0  0  0  0  0  0  0  0  0  0
   -3.2130    6.6440  -21.7819 C   0  0  0  0  0  0  0  0  0  0  0  0
   -2.1421    5.8220  -22.2325 O   0  0  0  0  0  0  0  0  0  0  0  0
  2  1  1  1
  2  3  1  0
  3  4  1  1
  4  5  1  0
  5  6  2  0
  6  7  1  0
  7  8  2  0
  8  9  1  0
  9 10  2  0
  9 11  1  0
 11 12  1  0
 12 13  2  0
 13 14  1  0
 14 15  1  0
 15 16  1  0
 16 17  1  0
 16 18  1  0
 14 19  2  0
 19 20  1  0
 19 21  1  0
 21 22  2  0
 22 23  1  0
 23 24  1  0
 24 25  1  0
 24 26  1  0
 24 27  1  0
  8 28  1  0
 28 29  2  0
 29 30  1  0
 29 31  1  0
 31 32  2  0
  3 33  1  0
 33 34  1  0
 34 35  1  0
 35 36  1  0
 34  2  1  0
 32  4  1  0
 32  7  1  0
 22 12  1  0
 27 21  1  0
M  END
>  <smiles>  (2367) 
C36737-P274

>  <fragmenstein_outcome>  (2367) 
acceptable

>  <inchikey>  (2367) 
MJAOEDZZNLGKAR-UHFFFAOYSA-N

>  <fragmenstein_mode>  (2367) 
expansion

>  <HIPPO Pose ID>  (2367) 
28005

>  <Energy>  (2367) 
91.43558

>  <fragmenstein_error>  (2367) 


>  <tags>  (2367) 
{'openbind_xx01zvns2b_c1_fragmenstein', 'fragmenstein_placed'}

>  <ref_pdb>  (2367) 
175

>  <scratch_subdir>  (2367) 
/opt/xchem-fragalysis-2/maxwin/BulkDock/SCRATCH/511028/C36737-P274

>  <alias>  (2367) 
C[C@@H]1[C@H](n2ncc3c(C(=O)Nc4cc(CN(C)C)c(O)c5c4OC(C)(C)C5)cc(Cl)cc32)CN1CO

>  <HIPPO Compound ID>  (2367) 
36737

>  <fragmenstein_runtime>  (2367) 
19.69796

$$$$
CC1(C)Cc2c(CCN)ccc(NC(=O)c3cc(Cl)cc(N)c3CN)c2O1
     RDKit          3D

 27 29  0  0  0  0  0  0  0  0999 V2000
   -5.4576    6.9225   -9.8730 C   0  0  0  0  0  0  0  0  0  0  0  0
   -6.9749    7.1720   -9.9419 C   0  0  0  0  0  0  0  0  0  0  0  0
   -7.2318    8.6770   -9.9307 C   0  0  0  0  0  0  0  0  0  0  0  0
   -7.7306    6.5064   -8.7889 C   0  0  0  0  0  0  0  0  0  0  0  0
   -8.0519    5.2003   -9.4188 C   0  0  0  0  0  0  0  0  0  0  0  0
   -8.4792    4.0165   -8.8243 C   0  0  0  0  0  0  0  0  0  0  0  0
   -8.7190    3.8228   -7.3439 C   0  0  0  0  0  0  0  0  0  0  0  0
   -7.6213    4.3587   -6.4148 C   0  0  0  0  0  0  0  0  0  0  0  0
   -7.6002    3.6999   -5.1030 N   0  0  0  0  0  0  0  0  0  0  0  0
   -8.7421    2.9480   -9.6929 C   0  0  0  0  0  0  0  0  0  0  0  0
   -8.5809    3.0721  -11.0850 C   0  0  0  0  0  0  0  0  0  0  0  0
   -8.1510    4.2654  -11.6765 C   0  0  0  0  0  0  0  0  0  0  0  0
   -7.9993    4.2470  -13.0729 N   0  0  0  0  0  0  0  0  0  0  0  0
   -7.4390    5.3218  -14.0390 C   0  0  0  0  0  0  0  0  0  0  0  0
   -6.9458    6.3579  -13.8160 O   0  0  0  0  0  0  0  0  0  0  0  0
   -7.5406    4.8866  -15.4687 C   0  0  0  0  0  0  0  0  0  0  0  0
   -8.7988    4.5345  -15.9677 C   0  0  0  0  0  0  0  0  0  0  0  0
   -8.9672    4.3191  -17.3330 C   0  0  0  0  0  0  0  0  0  0  0  0
  -10.5243    4.0261  -17.9876 Cl  0  0  0  0  0  0  0  0  0  0  0  0
   -7.8983    4.4441  -18.2068 C   0  0  0  0  0  0  0  0  0  0  0  0
   -6.6458    4.8252  -17.7301 C   0  0  0  0  0  0  0  0  0  0  0  0
   -5.5685    4.8760  -18.6351 N   0  0  0  0  0  0  0  0  0  0  0  0
   -6.4348    4.9811  -16.3406 C   0  0  0  0  0  0  0  0  0  0  0  0
   -5.0333    5.1951  -15.8230 C   0  0  0  0  0  0  0  0  0  0  0  0
   -4.4312    6.4139  -16.3700 N   0  0  0  0  0  0  0  0  0  0  0  0
   -7.8954    5.3232  -10.8133 C   0  0  0  0  0  0  0  0  0  0  0  0
   -7.4747    6.5871  -11.1713 O   0  0  0  0  0  0  0  0  0  0  0  0
  1  2  1  0
  2  3  1  0
  2  4  1  0
  4  5  1  0
  5  6  2  0
  6  7  1  0
  7  8  1  0
  8  9  1  0
  6 10  1  0
 10 11  2  0
 11 12  1  0
 12 13  1  0
 13 14  1  0
 14 15  2  0
 14 16  1  0
 16 17  2  0
 17 18  1  0
 18 19  1  0
 18 20  2  0
 20 21  1  0
 21 22  1  0
 21 23  2  0
 23 24  1  0
 24 25  1  0
 12 26  2  0
 26 27  1  0
 27  2  1  0
 26  5  1  0
 23 16  1  0
M  END
>  <smiles>  (2368) 
C36776-P274

>  <fragmenstein_outcome>  (2368) 
acceptable

>  <inchikey>  (2368) 
BFEXBTIWTBADPG-UHFFFAOYSA-N

>  <fragmenstein_mode>  (2368) 
expansion

>  <HIPPO Pose ID>  (2368) 
28028

>  <Energy>  (2368) 
76.472942

>  <fragmenstein_error>  (2368) 


>  <tags>  (2368) 
{'openbind_xx01zvns2b_c1_fragmenstein', 'fragmenstein_placed'}

>  <ref_pdb>  (2368) 
175

>  <scratch_subdir>  (2368) 
/opt/xchem-fragalysis-2/maxwin/BulkDock/SCRATCH/511028/C36776-P274

>  <alias>  (2368) 
CC1(C)Cc2c(CCN)ccc(NC(=O)c3cc(Cl)cc(N)c3CN)c2O1

>  <HIPPO Compound ID>  (2368) 
38490

>  <fragmenstein_runtime>  (2368) 
11.795628

$$$$
CC1(C)C[C@H]2[C@H]3CNC[C@H]3C[C@@H](NC(=O)c3cc(Cl)cc4c3c[n+]([O-])n4C3CNC3)[C@H]2O1
     RDKit          3D

 32 37  0  0  0  0  0  0  0  0999 V2000
   -6.5607    8.1500  -10.3199 C   0  0  0  0  0  0  0  0  0  0  0  0
   -7.8827    7.3769  -10.1869 C   0  0  0  0  0  0  0  0  0  0  0  0
   -9.0310    8.3797  -10.2401 C   0  0  0  0  0  0  0  0  0  0  0  0
   -7.9462    6.4945   -8.9484 C   0  0  0  0  0  0  0  0  0  0  0  0
   -7.1600    5.2486   -9.3506 C   0  0  1  0  0  0  0  0  0  0  0  0
   -7.5409    3.9149   -8.6852 C   0  0  1  0  0  0  0  0  0  0  0  0
   -8.4127    3.9561   -7.4258 C   0  0  0  0  0  0  0  0  0  0  0  0
   -8.9386    2.6030   -7.3335 N   0  0  0  0  0  0  0  0  0  0  0  0
   -9.2762    2.2193   -8.6989 C   0  0  0  0  0  0  0  0  0  0  0  0
   -8.1519    2.8025   -9.5521 C   0  0  1  0  0  0  0  0  0  0  0  0
   -8.5819    3.2364  -10.9508 C   0  0  0  0  0  0  0  0  0  0  0  0
   -7.4424    3.9800  -11.6257 C   0  0  1  0  0  0  0  0  0  0  0  0
   -7.6053    4.1438  -13.0655 N   0  0  0  0  0  0  0  0  0  0  0  0
   -7.0062    5.1870  -14.0282 C   0  0  0  0  0  0  0  0  0  0  0  0
   -6.3495    6.1264  -13.8116 O   0  0  0  0  0  0  0  0  0  0  0  0
   -7.2381    4.8638  -15.4734 C   0  0  0  0  0  0  0  0  0  0  0  0
   -8.4774    4.4406  -15.9796 C   0  0  0  0  0  0  0  0  0  0  0  0
   -8.6519    4.2800  -17.3577 C   0  0  0  0  0  0  0  0  0  0  0  0
  -10.1940    3.8659  -18.0005 Cl  0  0  0  0  0  0  0  0  0  0  0  0
   -7.6213    4.5126  -18.2733 C   0  0  0  0  0  0  0  0  0  0  0  0
   -6.3875    4.9212  -17.7637 C   0  0  0  0  0  0  0  0  0  0  0  0
   -6.1589    5.1020  -16.3732 C   0  0  0  0  0  0  0  0  0  0  0  0
   -4.7853    5.5466  -16.1570 C   0  0  0  0  0  0  0  0  0  0  0  0
   -4.2123    5.6691  -17.3602 N   0  0  0  0  0  0  0  0  0  0  0  0
   -3.0758    6.1019  -17.6649 O   0  0  0  0  0  0  0  0  0  0  0  0
   -5.1921    5.2709  -18.3706 N   0  0  0  0  0  0  0  0  0  0  0  0
   -5.0040    5.3387  -19.8342 C   0  0  0  0  0  0  0  0  0  0  0  0
   -4.6063    6.7373  -20.3306 C   0  0  0  0  0  0  0  0  0  0  0  0
   -3.5635    6.1164  -21.1694 N   0  0  0  0  0  0  0  0  0  0  0  0
   -3.6325    4.8843  -20.3586 C   0  0  0  0  0  0  0  0  0  0  0  0
   -7.1418    5.2979  -10.8895 C   0  0  1  0  0  0  0  0  0  0  0  0
   -8.0155    6.4015  -11.2406 O   0  0  0  0  0  0  0  0  0  0  0  0
  1  2  1  0
  2  3  1  0
  2  4  1  0
  5  4  1  6
  5  6  1  0
  6  7  1  1
  7  8  1  0
  8  9  1  0
 10  9  1  1
 10 11  1  0
 11 12  1  0
 12 13  1  6
 13 14  1  0
 14 15  2  0
 14 16  1  0
 16 17  2  0
 17 18  1  0
 18 19  1  0
 18 20  2  0
 20 21  1  0
 21 22  2  0
 22 23  1  0
 23 24  2  0
 24 25  1  0
 24 26  1  0
 26 27  1  0
 27 28  1  0
 28 29  1  0
 29 30  1  0
 12 31  1  0
 31 32  1  6
 32  2  1  0
 31  5  1  0
 10  6  1  0
 22 16  1  0
 30 27  1  0
 26 21  1  0
M  CHG  2  24   1  25  -1
M  END
>  <smiles>  (2369) 
C36784-P227

>  <fragmenstein_outcome>  (2369) 
acceptable

>  <inchikey>  (2369) 
ZXQINSJIWPINDD-UHFFFAOYSA-N

>  <fragmenstein_mode>  (2369) 
expansion

>  <HIPPO Pose ID>  (2369) 
28058

>  <Energy>  (2369) 
106.200153

>  <fragmenstein_error>  (2369) 


>  <tags>  (2369) 
{'openbind_xx01zvns2b_c1_fragmenstein', 'fragmenstein_placed'}

>  <ref_pdb>  (2369) 
175

>  <scratch_subdir>  (2369) 
/opt/xchem-fragalysis-2/maxwin/BulkDock/SCRATCH/511028/C36784-P227

>  <alias>  (2369) 
CC1(C)C[C@H]2[C@H]3CNC[C@H]3C[C@@H](NC(=O)c3cc(Cl)cc4c3c[n+]([O-])n4C3CNC3)[C@H]2O1

>  <HIPPO Compound ID>  (2369) 
36784

>  <fragmenstein_runtime>  (2369) 
10.595452

$$$$
Cn1cc2cc(NC(=O)c3cc(Cl)c4c5c3cnn5C3(CNC3)C(=O)N4)c3c(c2c1)CC(C)(C)O3
     RDKit          3D

 35 41  0  0  0  0  0  0  0  0999 V2000
   -9.5946    2.3298   -5.9179 C   0  0  0  0  0  0  0  0  0  0  0  0
   -9.2189    2.9406   -7.1698 N   0  0  0  0  0  0  0  0  0  0  0  0
   -9.1020    2.2947   -8.3866 C   0  0  0  0  0  0  0  0  0  0  0  0
   -8.7689    3.2514   -9.3135 C   0  0  0  0  0  0  0  0  0  0  0  0
   -8.5977    3.0895  -10.6923 C   0  0  0  0  0  0  0  0  0  0  0  0
   -8.3285    4.3320  -11.3322 C   0  0  0  0  0  0  0  0  0  0  0  0
   -8.1117    4.3047  -12.7133 N   0  0  0  0  0  0  0  0  0  0  0  0
   -7.4588    5.3503  -13.6490 C   0  0  0  0  0  0  0  0  0  0  0  0
   -6.9311    6.3632  -13.4020 O   0  0  0  0  0  0  0  0  0  0  0  0
   -7.5423    4.9739  -15.0674 C   0  0  0  0  0  0  0  0  0  0  0  0
   -8.7564    4.5556  -15.6581 C   0  0  0  0  0  0  0  0  0  0  0  0
   -8.8465    4.3589  -17.0358 C   0  0  0  0  0  0  0  0  0  0  0  0
  -10.3464    4.0125  -17.8058 Cl  0  0  0  0  0  0  0  0  0  0  0  0
   -7.7201    4.5303  -17.8240 C   0  0  0  0  0  0  0  0  0  0  0  0
   -6.5596    4.9630  -17.2246 C   0  0  0  0  0  0  0  0  0  0  0  0
   -6.4174    5.1947  -15.8806 C   0  0  0  0  0  0  0  0  0  0  0  0
   -5.0727    5.6236  -15.7646 C   0  0  0  0  0  0  0  0  0  0  0  0
   -4.4262    5.6451  -16.9423 N   0  0  0  0  0  0  0  0  0  0  0  0
   -5.3713    5.2429  -17.8142 N   0  0  0  0  0  0  0  0  0  0  0  0
   -5.3024    5.2035  -19.2890 C   0  0  0  0  0  0  0  0  0  0  0  0
   -5.2279    6.6519  -19.8515 C   0  0  0  0  0  0  0  0  0  0  0  0
   -4.1921    6.1919  -20.8096 N   0  0  0  0  0  0  0  0  0  0  0  0
   -3.8560    5.1231  -19.8316 C   0  0  0  0  0  0  0  0  0  0  0  0
   -6.4873    4.2679  -19.8894 C   0  0  0  0  0  0  0  0  0  0  0  0
   -6.5139    3.5585  -20.8962 O   0  0  0  0  0  0  0  0  0  0  0  0
   -7.6637    4.2251  -19.1673 N   0  0  0  0  0  0  0  0  0  0  0  0
   -8.2861    5.5667  -10.6035 C   0  0  0  0  0  0  0  0  0  0  0  0
   -8.4257    5.7037   -9.2189 C   0  0  0  0  0  0  0  0  0  0  0  0
   -8.6702    4.4905   -8.6201 C   0  0  0  0  0  0  0  0  0  0  0  0
   -8.9347    4.2817   -7.2963 C   0  0  0  0  0  0  0  0  0  0  0  0
   -8.3946    7.1136   -8.7937 C   0  0  0  0  0  0  0  0  0  0  0  0
   -7.9924    7.7666  -10.1290 C   0  0  0  0  0  0  0  0  0  0  0  0
   -6.5095    8.1583  -10.1487 C   0  0  0  0  0  0  0  0  0  0  0  0
   -8.8581    8.9930  -10.4235 C   0  0  0  0  0  0  0  0  0  0  0  0
   -8.2141    6.8121  -11.2007 O   0  0  0  0  0  0  0  0  0  0  0  0
  1  2  1  0
  2  3  1  0
  3  4  2  0
  4  5  1  0
  5  6  2  0
  6  7  1  0
  7  8  1  0
  8  9  2  0
  8 10  1  0
 10 11  2  0
 11 12  1  0
 12 13  1  0
 12 14  2  0
 14 15  1  0
 15 16  2  0
 16 17  1  0
 17 18  2  0
 18 19  1  0
 19 20  1  0
 20 21  1  0
 21 22  1  0
 22 23  1  0
 20 24  1  0
 24 25  2  0
 24 26  1  0
  6 27  1  0
 27 28  2  0
 28 29  1  0
 29 30  2  0
 28 31  1  0
 31 32  1  0
 32 33  1  0
 32 34  1  0
 32 35  1  0
 30  2  1  0
 29  4  1  0
 16 10  1  0
 23 20  1  0
 35 27  1  0
 26 14  1  0
 19 15  1  0
M  END
>  <smiles>  (2370) 
C36847-P274

>  <fragmenstein_outcome>  (2370) 
acceptable

>  <inchikey>  (2370) 
FBAMDLZTOFRBQZ-UHFFFAOYSA-N

>  <fragmenstein_mode>  (2370) 
expansion

>  <HIPPO Pose ID>  (2370) 
28081

>  <Energy>  (2370) 
72.692251

>  <fragmenstein_error>  (2370) 


>  <tags>  (2370) 
{'openbind_xx01zvns2b_c1_fragmenstein', 'fragmenstein_placed'}

>  <ref_pdb>  (2370) 
175

>  <scratch_subdir>  (2370) 
/opt/xchem-fragalysis-2/maxwin/BulkDock/SCRATCH/511028/C36847-P274

>  <alias>  (2370) 
Cn1cc2cc(NC(=O)c3cc(Cl)c4c5c3cnn5C3(CNC3)C(=O)N4)c3c(c2c1)CC(C)(C)O3

>  <HIPPO Compound ID>  (2370) 
36847

>  <fragmenstein_runtime>  (2370) 
22.721284

$$$$
CC1(C)CC2=C(O1)[C@@H](NC(=O)c1cc(Cl)cc3c1cnn3C1CNC1)C[C@H](F)[C@@]21CCCC1=O
     RDKit          3D

 34 39  0  0  0  0  0  0  0  0999 V2000
   -3.7400    1.8533  -10.9865 C   0  0  0  0  0  0  0  0  0  0  0  0
   -5.1997    2.2881  -11.0696 C   0  0  0  0  0  0  0  0  0  0  0  0
   -5.9758    1.3819  -12.0291 C   0  0  0  0  0  0  0  0  0  0  0  0
   -5.8621    2.3339   -9.6838 C   0  0  0  0  0  0  0  0  0  0  0  0
   -6.8026    3.4604   -9.8712 C   0  0  0  0  0  0  0  0  0  0  0  0
   -6.4019    4.1350  -10.9552 C   0  0  0  0  0  0  0  0  0  0  0  0
   -5.2658    3.6329  -11.5968 O   0  0  0  0  0  0  0  0  0  0  0  0
   -7.1163    5.2883  -11.5780 C   0  0  1  0  0  0  0  0  0  0  0  0
   -7.1388    5.0919  -13.0124 N   0  0  0  0  0  0  0  0  0  0  0  0
   -8.1706    5.5186  -14.0585 C   0  0  0  0  0  0  0  0  0  0  0  0
   -9.1331    6.1641  -13.9498 O   0  0  0  0  0  0  0  0  0  0  0  0
   -7.8591    5.0145  -15.4165 C   0  0  0  0  0  0  0  0  0  0  0  0
   -8.9343    4.4835  -16.1395 C   0  0  0  0  0  0  0  0  0  0  0  0
   -8.8461    4.2852  -17.5049 C   0  0  0  0  0  0  0  0  0  0  0  0
  -10.2540    3.8680  -18.3770 Cl  0  0  0  0  0  0  0  0  0  0  0  0
   -7.6659    4.5278  -18.1933 C   0  0  0  0  0  0  0  0  0  0  0  0
   -6.5697    4.9871  -17.4507 C   0  0  0  0  0  0  0  0  0  0  0  0
   -6.6340    5.2367  -16.0773 C   0  0  0  0  0  0  0  0  0  0  0  0
   -5.3508    5.7411  -15.7674 C   0  0  0  0  0  0  0  0  0  0  0  0
   -4.5286    5.7709  -16.8224 N   0  0  0  0  0  0  0  0  0  0  0  0
   -5.2980    5.3372  -17.8389 N   0  0  0  0  0  0  0  0  0  0  0  0
   -4.8763    5.2835  -19.2457 C   0  0  0  0  0  0  0  0  0  0  0  0
   -4.8660    6.6676  -19.9206 C   0  0  0  0  0  0  0  0  0  0  0  0
   -3.6924    6.1871  -20.7157 N   0  0  0  0  0  0  0  0  0  0  0  0
   -3.3686    5.3194  -19.5317 C   0  0  0  0  0  0  0  0  0  0  0  0
   -8.5357    5.4029  -11.0155 C   0  0  0  0  0  0  0  0  0  0  0  0
   -8.5566    5.1677   -9.5121 C   0  0  2  0  0  0  0  0  0  0  0  0
   -7.7763    6.1360   -8.9520 F   0  0  0  0  0  0  0  0  0  0  0  0
   -8.0651    3.7571   -9.1144 C   0  0  1  0  0  0  0  0  0  0  0  0
   -9.1098    2.6724   -9.4621 C   0  0  0  0  0  0  0  0  0  0  0  0
   -9.1241    1.6968   -8.2961 C   0  0  0  0  0  0  0  0  0  0  0  0
   -9.0134    2.5893   -7.0769 C   0  0  0  0  0  0  0  0  0  0  0  0
   -8.0856    3.6762   -7.5732 C   0  0  0  0  0  0  0  0  0  0  0  0
   -7.5035    4.4340   -6.8017 O   0  0  0  0  0  0  0  0  0  0  0  0
  1  2  1  0
  2  3  1  0
  2  4  1  0
  4  5  1  0
  5  6  2  0
  6  7  1  0
  6  8  1  0
  8  9  1  6
  9 10  1  0
 10 11  2  0
 10 12  1  0
 12 13  2  0
 13 14  1  0
 14 15  1  0
 14 16  2  0
 16 17  1  0
 17 18  2  0
 18 19  1  0
 19 20  2  0
 20 21  1  0
 21 22  1  0
 22 23  1  0
 23 24  1  0
 24 25  1  0
  8 26  1  0
 26 27  1  0
 27 28  1  1
 27 29  1  0
 29 30  1  6
 30 31  1  0
 31 32  1  0
 32 33  1  0
 33 34  2  0
  7  2  1  0
 18 12  1  0
 25 22  1  0
 33 29  1  0
 29  5  1  0
 21 17  1  0
M  END
>  <smiles>  (2371) 
C36848-P274

>  <fragmenstein_outcome>  (2371) 
acceptable

>  <inchikey>  (2371) 
QSIXCYJHXWDRAG-UHFFFAOYSA-N

>  <fragmenstein_mode>  (2371) 
expansion

>  <HIPPO Pose ID>  (2371) 
28082

>  <Energy>  (2371) 
90.488527

>  <fragmenstein_error>  (2371) 


>  <tags>  (2371) 
{'openbind_xx01zvns2b_c1_fragmenstein', 'fragmenstein_placed'}

>  <ref_pdb>  (2371) 
175

>  <scratch_subdir>  (2371) 
/opt/xchem-fragalysis-2/maxwin/BulkDock/SCRATCH/511028/C36848-P274

>  <alias>  (2371) 
CC1(C)CC2=C(O1)[C@@H](NC(=O)c1cc(Cl)cc3c1cnn3C1CNC1)C[C@H](F)[C@@]21CCCC1=O

>  <HIPPO Compound ID>  (2371) 
36848

>  <fragmenstein_runtime>  (2371) 
16.223943

$$$$
CC1(C)CC2=C(O1)[C@H](NC(=O)c1cc(Cl)cc3c1cnn3C1CNC1)C[C@H](F)[C@@]21CCCC1=O
     RDKit          3D

 34 39  0  0  0  0  0  0  0  0999 V2000
   -3.8069    3.8770  -10.8173 C   0  0  0  0  0  0  0  0  0  0  0  0
   -4.7991    2.7079  -10.8447 C   0  0  0  0  0  0  0  0  0  0  0  0
   -4.0753    1.4150  -11.2121 C   0  0  0  0  0  0  0  0  0  0  0  0
   -5.5610    2.5628   -9.5087 C   0  0  0  0  0  0  0  0  0  0  0  0
   -6.8530    3.1912   -9.8295 C   0  0  0  0  0  0  0  0  0  0  0  0
   -6.9027    3.3609  -11.1502 C   0  0  0  0  0  0  0  0  0  0  0  0
   -5.7806    2.9904  -11.8703 O   0  0  0  0  0  0  0  0  0  0  0  0
   -8.0406    4.0896  -11.7681 C   0  0  2  0  0  0  0  0  0  0  0  0
   -7.8319    4.2541  -13.1592 N   0  0  0  0  0  0  0  0  0  0  0  0
   -7.0715    5.3349  -13.9294 C   0  0  0  0  0  0  0  0  0  0  0  0
   -6.5578    6.3074  -13.5543 O   0  0  0  0  0  0  0  0  0  0  0  0
   -7.1444    5.0372  -15.3690 C   0  0  0  0  0  0  0  0  0  0  0  0
   -8.3514    4.5932  -15.9154 C   0  0  0  0  0  0  0  0  0  0  0  0
   -8.4526    4.3606  -17.2725 C   0  0  0  0  0  0  0  0  0  0  0  0
   -9.9877    3.9537  -17.8733 Cl  0  0  0  0  0  0  0  0  0  0  0  0
   -7.3853    4.5695  -18.1411 C   0  0  0  0  0  0  0  0  0  0  0  0
   -6.1908    5.0331  -17.5710 C   0  0  0  0  0  0  0  0  0  0  0  0
   -6.0474    5.2639  -16.2057 C   0  0  0  0  0  0  0  0  0  0  0  0
   -4.7182    5.7036  -16.0496 C   0  0  0  0  0  0  0  0  0  0  0  0
   -4.0609    5.7629  -17.2092 N   0  0  0  0  0  0  0  0  0  0  0  0
   -4.9771    5.3751  -18.1142 N   0  0  0  0  0  0  0  0  0  0  0  0
   -4.7254    5.3186  -19.5530 C   0  0  0  0  0  0  0  0  0  0  0  0
   -4.8710    6.6823  -20.2443 C   0  0  0  0  0  0  0  0  0  0  0  0
   -3.7401    6.2773  -21.1338 N   0  0  0  0  0  0  0  0  0  0  0  0
   -3.2592    5.4313  -19.9933 C   0  0  0  0  0  0  0  0  0  0  0  0
   -8.2065    5.3649  -10.9642 C   0  0  0  0  0  0  0  0  0  0  0  0
   -8.4624    5.0395   -9.4826 C   0  0  2  0  0  0  0  0  0  0  0  0
   -7.8889    6.0439   -8.7632 F   0  0  0  0  0  0  0  0  0  0  0  0
   -8.0107    3.6334   -8.9830 C   0  0  1  0  0  0  0  0  0  0  0  0
   -9.1390    2.5695   -9.1750 C   0  0  0  0  0  0  0  0  0  0  0  0
   -9.0084    1.6159   -8.0045 C   0  0  0  0  0  0  0  0  0  0  0  0
   -8.7833    2.5408   -6.8308 C   0  0  0  0  0  0  0  0  0  0  0  0
   -7.9354    3.6311   -7.4425 C   0  0  0  0  0  0  0  0  0  0  0  0
   -7.3373    4.4411   -6.7396 O   0  0  0  0  0  0  0  0  0  0  0  0
  1  2  1  0
  2  3  1  0
  2  4  1  0
  4  5  1  0
  5  6  2  0
  6  7  1  0
  6  8  1  0
  8  9  1  6
  9 10  1  0
 10 11  2  0
 10 12  1  0
 12 13  2  0
 13 14  1  0
 14 15  1  0
 14 16  2  0
 16 17  1  0
 17 18  2  0
 18 19  1  0
 19 20  2  0
 20 21  1  0
 21 22  1  0
 22 23  1  0
 23 24  1  0
 24 25  1  0
  8 26  1  0
 26 27  1  0
 27 28  1  1
 27 29  1  0
 29 30  1  1
 30 31  1  0
 31 32  1  0
 32 33  1  0
 33 34  2  0
  7  2  1  0
 18 12  1  0
 25 22  1  0
 33 29  1  0
 29  5  1  0
 21 17  1  0
M  END
>  <smiles>  (2372) 
C36848-P290

>  <fragmenstein_outcome>  (2372) 
acceptable

>  <inchikey>  (2372) 
UPYLDBBXKOTDLG-UHFFFAOYSA-N

>  <fragmenstein_mode>  (2372) 
expansion

>  <HIPPO Pose ID>  (2372) 
28083

>  <Energy>  (2372) 
107.245458

>  <fragmenstein_error>  (2372) 


>  <tags>  (2372) 
{'openbind_xx01zvns2b_c1_fragmenstein', 'fragmenstein_placed'}

>  <ref_pdb>  (2372) 
175

>  <scratch_subdir>  (2372) 
/opt/xchem-fragalysis-2/maxwin/BulkDock/SCRATCH/511028/C36848-P290

>  <alias>  (2372) 
CC1(C)CC2=C(O1)[C@H](NC(=O)c1cc(Cl)cc3c1cnn3C1CNC1)C[C@H](F)[C@@]21CCCC1=O

>  <HIPPO Compound ID>  (2372) 
29599

>  <fragmenstein_runtime>  (2372) 
20.933034

$$$$
CC1(C)Cc2cc(NC(=O)c3cc(Cl)cc4c3cnn4C3CNC3)c3c(c2O1)CC(C)(C)O3
     RDKit          3D

 33 38  0  0  0  0  0  0  0  0999 V2000
  -10.3983    3.0310   -5.9541 C   0  0  0  0  0  0  0  0  0  0  0  0
   -9.1731    3.3451   -6.8141 C   0  0  0  0  0  0  0  0  0  0  0  0
   -7.9810    3.3748   -5.8601 C   0  0  0  0  0  0  0  0  0  0  0  0
   -9.1030    2.4145   -8.0670 C   0  0  0  0  0  0  0  0  0  0  0  0
   -8.7549    3.3938   -9.1375 C   0  0  0  0  0  0  0  0  0  0  0  0
   -8.5101    3.2184  -10.5150 C   0  0  0  0  0  0  0  0  0  0  0  0
   -8.2483    4.3467  -11.3233 C   0  0  0  0  0  0  0  0  0  0  0  0
   -8.0236    4.2265  -12.7103 N   0  0  0  0  0  0  0  0  0  0  0  0
   -7.3375    5.2033  -13.7122 C   0  0  0  0  0  0  0  0  0  0  0  0
   -6.7866    6.2204  -13.5243 O   0  0  0  0  0  0  0  0  0  0  0  0
   -7.4301    4.8051  -15.1463 C   0  0  0  0  0  0  0  0  0  0  0  0
   -8.6426    4.4326  -15.7461 C   0  0  0  0  0  0  0  0  0  0  0  0
   -8.7360    4.3312  -17.1391 C   0  0  0  0  0  0  0  0  0  0  0  0
  -10.2473    4.0162  -17.9036 Cl  0  0  0  0  0  0  0  0  0  0  0  0
   -7.6445    4.5702  -17.9754 C   0  0  0  0  0  0  0  0  0  0  0  0
   -6.4385    4.9230  -17.3647 C   0  0  0  0  0  0  0  0  0  0  0  0
   -6.3115    5.0454  -15.9824 C   0  0  0  0  0  0  0  0  0  0  0  0
   -4.9691    5.4524  -15.7985 C   0  0  0  0  0  0  0  0  0  0  0  0
   -4.2841    5.5309  -16.9416 N   0  0  0  0  0  0  0  0  0  0  0  0
   -5.2025    5.2416  -17.8825 N   0  0  0  0  0  0  0  0  0  0  0  0
   -4.9263    5.2628  -19.3253 C   0  0  0  0  0  0  0  0  0  0  0  0
   -4.9389    6.6849  -19.9170 C   0  0  0  0  0  0  0  0  0  0  0  0
   -3.8451    6.2367  -20.8351 N   0  0  0  0  0  0  0  0  0  0  0  0
   -3.4431    5.2935  -19.7396 C   0  0  0  0  0  0  0  0  0  0  0  0
   -8.2579    5.5987  -10.6971 C   0  0  0  0  0  0  0  0  0  0  0  0
   -8.5246    5.7588   -9.3450 C   0  0  0  0  0  0  0  0  0  0  0  0
   -8.8011    4.6598   -8.5834 C   0  0  0  0  0  0  0  0  0  0  0  0
   -9.2517    4.7153   -7.2931 O   0  0  0  0  0  0  0  0  0  0  0  0
   -8.5684    7.1882   -8.9814 C   0  0  0  0  0  0  0  0  0  0  0  0
   -8.0387    7.8053  -10.2890 C   0  0  0  0  0  0  0  0  0  0  0  0
   -8.8800    9.0106  -10.7123 C   0  0  0  0  0  0  0  0  0  0  0  0
   -6.5645    8.2136  -10.1735 C   0  0  0  0  0  0  0  0  0  0  0  0
   -8.1448    6.8094  -11.3385 O   0  0  0  0  0  0  0  0  0  0  0  0
  1  2  1  0
  2  3  1  0
  2  4  1  0
  4  5  1  0
  5  6  2  0
  6  7  1  0
  7  8  1  0
  8  9  1  0
  9 10  2  0
  9 11  1  0
 11 12  2  0
 12 13  1  0
 13 14  1  0
 13 15  2  0
 15 16  1  0
 16 17  2  0
 17 18  1  0
 18 19  2  0
 19 20  1  0
 20 21  1  0
 21 22  1  0
 22 23  1  0
 23 24  1  0
  7 25  2  0
 25 26  1  0
 26 27  2  0
 27 28  1  0
 26 29  1  0
 29 30  1  0
 30 31  1  0
 30 32  1  0
 30 33  1  0
 28  2  1  0
 27  5  1  0
 17 11  1  0
 24 21  1  0
 33 25  1  0
 20 16  1  0
M  END
>  <smiles>  (2373) 
C36658-P274

>  <fragmenstein_outcome>  (2373) 
acceptable

>  <inchikey>  (2373) 
GFNLMPIANOJETK-UHFFFAOYSA-N

>  <fragmenstein_mode>  (2373) 
expansion

>  <HIPPO Pose ID>  (2373) 
28084

>  <Energy>  (2373) 
113.063372

>  <fragmenstein_error>  (2373) 


>  <tags>  (2373) 
{'openbind_xx01zvns2b_c1_fragmenstein', 'fragmenstein_placed'}

>  <ref_pdb>  (2373) 
175

>  <scratch_subdir>  (2373) 
/opt/xchem-fragalysis-2/maxwin/BulkDock/SCRATCH/511028/C36658-P274

>  <alias>  (2373) 
CC1(C)Cc2cc(NC(=O)c3cc(Cl)cc4c3cnn4C3CNC3)c3c(c2O1)CC(C)(C)O3

>  <HIPPO Compound ID>  (2373) 
36658

>  <fragmenstein_runtime>  (2373) 
29.218612

$$$$
Cn1cc2cc(NC(=O)c3cc(Cl)cc4c3cnn4C3CNC3)c3c(c2c1)CC(C)(C)O3
     RDKit          3D

 32 37  0  0  0  0  0  0  0  0999 V2000
   -9.4340    2.3711   -6.0832 C   0  0  0  0  0  0  0  0  0  0  0  0
   -9.1250    2.9637   -7.3650 N   0  0  0  0  0  0  0  0  0  0  0  0
   -9.0286    2.2959   -8.5733 C   0  0  0  0  0  0  0  0  0  0  0  0
   -8.7320    3.2353   -9.5311 C   0  0  0  0  0  0  0  0  0  0  0  0
   -8.5754    3.0474  -10.9128 C   0  0  0  0  0  0  0  0  0  0  0  0
   -8.3215    4.2729  -11.5933 C   0  0  0  0  0  0  0  0  0  0  0  0
   -8.1026    4.2172  -12.9805 N   0  0  0  0  0  0  0  0  0  0  0  0
   -7.4403    5.2430  -13.9381 C   0  0  0  0  0  0  0  0  0  0  0  0
   -6.9057    6.2583  -13.7096 O   0  0  0  0  0  0  0  0  0  0  0  0
   -7.5043    4.8531  -15.3654 C   0  0  0  0  0  0  0  0  0  0  0  0
   -8.7024    4.4535  -15.9713 C   0  0  0  0  0  0  0  0  0  0  0  0
   -8.7705    4.3242  -17.3582 C   0  0  0  0  0  0  0  0  0  0  0  0
  -10.2732    3.9774  -18.1168 Cl  0  0  0  0  0  0  0  0  0  0  0  0
   -7.6626    4.5573  -18.1763 C   0  0  0  0  0  0  0  0  0  0  0  0
   -6.4683    4.9359  -17.5514 C   0  0  0  0  0  0  0  0  0  0  0  0
   -6.3690    5.0849  -16.1714 C   0  0  0  0  0  0  0  0  0  0  0  0
   -5.0328    5.4937  -15.9579 C   0  0  0  0  0  0  0  0  0  0  0  0
   -4.3264    5.5672  -17.0875 N   0  0  0  0  0  0  0  0  0  0  0  0
   -5.2247    5.2632  -18.0431 N   0  0  0  0  0  0  0  0  0  0  0  0
   -4.9223    5.2978  -19.4776 C   0  0  0  0  0  0  0  0  0  0  0  0
   -4.9090    6.7278  -20.0500 C   0  0  0  0  0  0  0  0  0  0  0  0
   -3.8017    6.2808  -20.9522 N   0  0  0  0  0  0  0  0  0  0  0  0
   -3.4314    5.3175  -19.8629 C   0  0  0  0  0  0  0  0  0  0  0  0
   -8.2849    5.5221  -10.8878 C   0  0  0  0  0  0  0  0  0  0  0  0
   -8.4184    5.6909   -9.5022 C   0  0  0  0  0  0  0  0  0  0  0  0
   -8.6409    4.4908   -8.8670 C   0  0  0  0  0  0  0  0  0  0  0  0
   -8.8722    4.3079   -7.5320 C   0  0  0  0  0  0  0  0  0  0  0  0
   -8.3976    7.1118   -9.1134 C   0  0  0  0  0  0  0  0  0  0  0  0
   -7.9811    7.7291  -10.4620 C   0  0  0  0  0  0  0  0  0  0  0  0
   -8.8233    8.9648  -10.7843 C   0  0  0  0  0  0  0  0  0  0  0  0
   -6.4911    8.0942  -10.4875 C   0  0  0  0  0  0  0  0  0  0  0  0
   -8.2197    6.7553  -11.5131 O   0  0  0  0  0  0  0  0  0  0  0  0
  1  2  1  0
  2  3  1  0
  3  4  2  0
  4  5  1  0
  5  6  2  0
  6  7  1  0
  7  8  1  0
  8  9  2  0
  8 10  1  0
 10 11  2  0
 11 12  1  0
 12 13  1  0
 12 14  2  0
 14 15  1  0
 15 16  2  0
 16 17  1  0
 17 18  2  0
 18 19  1  0
 19 20  1  0
 20 21  1  0
 21 22  1  0
 22 23  1  0
  6 24  1  0
 24 25  2  0
 25 26  1  0
 26 27  2  0
 25 28  1  0
 28 29  1  0
 29 30  1  0
 29 31  1  0
 29 32  1  0
 27  2  1  0
 26  4  1  0
 16 10  1  0
 23 20  1  0
 32 24  1  0
 19 15  1  0
M  END
>  <smiles>  (2374) 
C36851-P274

>  <fragmenstein_outcome>  (2374) 
acceptable

>  <inchikey>  (2374) 
VJYZIPUJZJBTHI-UHFFFAOYSA-N

>  <fragmenstein_mode>  (2374) 
expansion

>  <HIPPO Pose ID>  (2374) 
28086

>  <Energy>  (2374) 
99.264334

>  <fragmenstein_error>  (2374) 


>  <tags>  (2374) 
{'openbind_xx01zvns2b_c1_fragmenstein', 'fragmenstein_placed'}

>  <ref_pdb>  (2374) 
175

>  <scratch_subdir>  (2374) 
/opt/xchem-fragalysis-2/maxwin/BulkDock/SCRATCH/511028/C36851-P274

>  <alias>  (2374) 
Cn1cc2cc(NC(=O)c3cc(Cl)cc4c3cnn4C3CNC3)c3c(c2c1)CC(C)(C)O3

>  <HIPPO Compound ID>  (2374) 
36851

>  <fragmenstein_runtime>  (2374) 
21.573559

$$$$
CC1(C)Cc2c(c(NC(=O)c3cc(Cl)cc4c3cnn4C3CNC3)cc3cn(CC(F)F)cc23)O1
     RDKit          3D

 35 40  0  0  0  0  0  0  0  0999 V2000
   -6.6977    8.2426  -10.6911 C   0  0  0  0  0  0  0  0  0  0  0  0
   -8.1788    7.8425  -10.6452 C   0  0  0  0  0  0  0  0  0  0  0  0
   -9.0490    9.0417  -11.0248 C   0  0  0  0  0  0  0  0  0  0  0  0
   -8.5795    7.2781   -9.2705 C   0  0  0  0  0  0  0  0  0  0  0  0
   -8.5371    5.8418   -9.5928 C   0  0  0  0  0  0  0  0  0  0  0  0
   -8.3927    5.6070  -10.9597 C   0  0  0  0  0  0  0  0  0  0  0  0
   -8.3583    4.3191  -11.5985 C   0  0  0  0  0  0  0  0  0  0  0  0
   -8.0799    4.2348  -12.9701 N   0  0  0  0  0  0  0  0  0  0  0  0
   -7.4479    5.2685  -13.9325 C   0  0  0  0  0  0  0  0  0  0  0  0
   -6.9899    6.3229  -13.7182 O   0  0  0  0  0  0  0  0  0  0  0  0
   -7.3791    4.8364  -15.3398 C   0  0  0  0  0  0  0  0  0  0  0  0
   -8.5045    4.4372  -16.0551 C   0  0  0  0  0  0  0  0  0  0  0  0
   -8.4303    4.3689  -17.4464 C   0  0  0  0  0  0  0  0  0  0  0  0
   -9.8429    3.9316  -18.3242 Cl  0  0  0  0  0  0  0  0  0  0  0  0
   -7.2709    4.7197  -18.1611 C   0  0  0  0  0  0  0  0  0  0  0  0
   -6.1391    5.0852  -17.4163 C   0  0  0  0  0  0  0  0  0  0  0  0
   -6.1752    5.1006  -16.0218 C   0  0  0  0  0  0  0  0  0  0  0  0
   -4.8781    5.4716  -15.6262 C   0  0  0  0  0  0  0  0  0  0  0  0
   -4.0663    5.6770  -16.6553 N   0  0  0  0  0  0  0  0  0  0  0  0
   -4.8701    5.5367  -17.7309 N   0  0  0  0  0  0  0  0  0  0  0  0
   -4.4341    6.1830  -18.9736 C   0  0  0  0  0  0  0  0  0  0  0  0
   -4.7872    5.5056  -20.2801 C   0  0  0  0  0  0  0  0  0  0  0  0
   -3.3957    5.7819  -20.7637 N   0  0  0  0  0  0  0  0  0  0  0  0
   -2.9837    5.7912  -19.3391 C   0  0  0  0  0  0  0  0  0  0  0  0
   -8.5533    3.1123  -10.8640 C   0  0  0  0  0  0  0  0  0  0  0  0
   -8.7219    3.3687   -9.4948 C   0  0  0  0  0  0  0  0  0  0  0  0
   -8.9288    2.4758   -8.4686 C   0  0  0  0  0  0  0  0  0  0  0  0
   -9.0125    3.2174   -7.2972 N   0  0  0  0  0  0  0  0  0  0  0  0
   -9.1013    2.6879   -5.9450 C   0  0  0  0  0  0  0  0  0  0  0  0
   -8.3462    3.5320   -4.9264 C   0  0  0  0  0  0  0  0  0  0  0  0
   -7.1283    3.9276   -5.3887 F   0  0  0  0  0  0  0  0  0  0  0  0
   -9.0371    4.6685   -4.6297 F   0  0  0  0  0  0  0  0  0  0  0  0
   -8.9347    4.5607   -7.5767 C   0  0  0  0  0  0  0  0  0  0  0  0
   -8.7006    4.6641   -8.9123 C   0  0  0  0  0  0  0  0  0  0  0  0
   -8.3972    6.8112  -11.6446 O   0  0  0  0  0  0  0  0  0  0  0  0
  1  2  1  0
  2  3  1  0
  2  4  1  0
  4  5  1  0
  5  6  2  0
  6  7  1  0
  7  8  1  0
  8  9  1  0
  9 10  2  0
  9 11  1  0
 11 12  2  0
 12 13  1  0
 13 14  1  0
 13 15  2  0
 15 16  1  0
 16 17  2  0
 17 18  1  0
 18 19  2  0
 19 20  1  0
 20 21  1  0
 21 22  1  0
 22 23  1  0
 23 24  1  0
  7 25  2  0
 25 26  1  0
 26 27  2  0
 27 28  1  0
 28 29  1  0
 29 30  1  0
 30 31  1  0
 30 32  1  0
 28 33  1  0
 33 34  2  0
  6 35  1  0
 35  2  1  0
 34  5  1  0
 17 11  1  0
 24 21  1  0
 34 26  1  0
 20 16  1  0
M  END
>  <smiles>  (2375) 
C36857-P274

>  <fragmenstein_outcome>  (2375) 
acceptable

>  <inchikey>  (2375) 
YTYWYPCWELPCOC-UHFFFAOYSA-N

>  <fragmenstein_mode>  (2375) 
expansion

>  <HIPPO Pose ID>  (2375) 
28093

>  <Energy>  (2375) 
114.305336

>  <fragmenstein_error>  (2375) 


>  <tags>  (2375) 
{'openbind_xx01zvns2b_c1_fragmenstein', 'fragmenstein_placed'}

>  <ref_pdb>  (2375) 
175

>  <scratch_subdir>  (2375) 
/opt/xchem-fragalysis-2/maxwin/BulkDock/SCRATCH/511028/C36857-P274

>  <alias>  (2375) 
CC1(C)Cc2c(c(NC(=O)c3cc(Cl)cc4c3cnn4C3CNC3)cc3cn(CC(F)F)cc23)O1

>  <HIPPO Compound ID>  (2375) 
36857

>  <fragmenstein_runtime>  (2375) 
15.379856

$$$$
CC1(C)C[C@H]2[C@@H]3CNC[C@H]3C[C@H](NC(=O)c3cc(Cl)cc4c(C5CNC5)n(CC5CNC5)cc34)[C@H]2O1
     RDKit          3D

 36 42  0  0  0  0  0  0  0  0999 V2000
   -6.5645    8.1191   -9.7713 C   0  0  0  0  0  0  0  0  0  0  0  0
   -7.9795    7.5322   -9.8028 C   0  0  0  0  0  0  0  0  0  0  0  0
   -9.0064    8.6541   -9.9265 C   0  0  0  0  0  0  0  0  0  0  0  0
   -8.2595    6.6303   -8.6099 C   0  0  0  0  0  0  0  0  0  0  0  0
   -7.7470    5.2685   -9.0471 C   0  0  1  0  0  0  0  0  0  0  0  0
   -8.6542    4.1213   -8.6520 C   0  0  2  0  0  0  0  0  0  0  0  0
   -8.7348    3.7598   -7.1854 C   0  0  0  0  0  0  0  0  0  0  0  0
   -9.2446    2.3789   -7.1840 N   0  0  0  0  0  0  0  0  0  0  0  0
   -8.9804    1.8016   -8.5251 C   0  0  0  0  0  0  0  0  0  0  0  0
   -8.1677    2.8378   -9.2819 C   0  0  1  0  0  0  0  0  0  0  0  0
   -8.2824    2.8490  -10.8031 C   0  0  0  0  0  0  0  0  0  0  0  0
   -8.3518    4.2701  -11.3900 C   0  0  2  0  0  0  0  0  0  0  0  0
   -7.9996    4.2526  -12.8047 N   0  0  0  0  0  0  0  0  0  0  0  0
   -7.0943    5.1954  -13.6234 C   0  0  0  0  0  0  0  0  0  0  0  0
   -6.4269    6.0886  -13.2810 O   0  0  0  0  0  0  0  0  0  0  0  0
   -7.1684    4.9271  -15.0782 C   0  0  0  0  0  0  0  0  0  0  0  0
   -8.3395    4.5526  -15.7830 C   0  0  0  0  0  0  0  0  0  0  0  0
   -8.3912    4.4306  -17.2130 C   0  0  0  0  0  0  0  0  0  0  0  0
   -9.8934    3.9906  -17.9435 Cl  0  0  0  0  0  0  0  0  0  0  0  0
   -7.3122    4.6884  -18.0841 C   0  0  0  0  0  0  0  0  0  0  0  0
   -6.1731    5.0517  -17.3733 C   0  0  0  0  0  0  0  0  0  0  0  0
   -4.9362    5.3676  -17.9026 C   0  0  0  0  0  0  0  0  0  0  0  0
   -4.6679    5.3811  -19.4417 C   0  0  0  0  0  0  0  0  0  0  0  0
   -4.8280    6.7576  -20.1233 C   0  0  0  0  0  0  0  0  0  0  0  0
   -3.8119    6.3120  -21.1231 N   0  0  0  0  0  0  0  0  0  0  0  0
   -3.2584    5.4316  -20.0504 C   0  0  0  0  0  0  0  0  0  0  0  0
   -4.1095    5.6358  -16.8291 N   0  0  0  0  0  0  0  0  0  0  0  0
   -2.6851    5.9481  -16.8231 C   0  0  0  0  0  0  0  0  0  0  0  0
   -2.3962    7.4213  -17.0597 C   0  0  0  0  0  0  0  0  0  0  0  0
   -0.9138    7.8119  -16.9089 C   0  0  0  0  0  0  0  0  0  0  0  0
   -1.1976    8.2965  -15.5449 N   0  0  0  0  0  0  0  0  0  0  0  0
   -2.6326    8.3908  -15.8833 C   0  0  0  0  0  0  0  0  0  0  0  0
   -4.8193    5.5170  -15.6498 C   0  0  0  0  0  0  0  0  0  0  0  0
   -6.1047    5.1605  -15.9576 C   0  0  0  0  0  0  0  0  0  0  0  0
   -7.6052    5.3568  -10.5751 C   0  0  1  0  0  0  0  0  0  0  0  0
   -8.1110    6.6647  -10.9348 O   0  0  0  0  0  0  0  0  0  0  0  0
  1  2  1  0
  2  3  1  0
  2  4  1  0
  5  4  1  6
  5  6  1  0
  6  7  1  1
  7  8  1  0
  8  9  1  0
 10  9  1  1
 10 11  1  0
 11 12  1  0
 12 13  1  6
 13 14  1  0
 14 15  2  0
 14 16  1  0
 16 17  2  0
 17 18  1  0
 18 19  1  0
 18 20  2  0
 20 21  1  0
 21 22  2  0
 22 23  1  0
 23 24  1  0
 24 25  1  0
 25 26  1  0
 22 27  1  0
 27 28  1  0
 28 29  1  0
 29 30  1  0
 30 31  1  0
 31 32  1  0
 27 33  1  0
 33 34  2  0
 12 35  1  0
 35 36  1  6
 36  2  1  0
 35  5  1  0
 10  6  1  0
 34 16  1  0
 34 21  1  0
 26 23  1  0
 32 29  1  0
M  END
>  <smiles>  (2376) 
C36846-P274

>  <fragmenstein_outcome>  (2376) 
acceptable

>  <inchikey>  (2376) 
ALBNIABXIPWXAF-UHFFFAOYSA-N

>  <fragmenstein_mode>  (2376) 
expansion

>  <HIPPO Pose ID>  (2376) 
28097

>  <Energy>  (2376) 
137.477454

>  <fragmenstein_error>  (2376) 


>  <tags>  (2376) 
{'openbind_xx01zvns2b_c1_fragmenstein', 'fragmenstein_placed'}

>  <ref_pdb>  (2376) 
175

>  <scratch_subdir>  (2376) 
/opt/xchem-fragalysis-2/maxwin/BulkDock/SCRATCH/511028/C36846-P274

>  <alias>  (2376) 
CC1(C)C[C@H]2[C@@H]3CNC[C@H]3C[C@H](NC(=O)c3cc(Cl)cc4c(C5CNC5)n(CC5CNC5)cc34)[C@H]2O1

>  <HIPPO Compound ID>  (2376) 
36846

>  <fragmenstein_runtime>  (2376) 
8.396354

$$$$
CC1(C)CC2=C(O1)[C@H](N[C@@](C)(N=O)c1cc(Cl)cc3c1cnn3C1(N)CNC1)C[C@]1(CCNC1)C2
     RDKit          3D

 35 40  0  0  0  0  0  0  0  0999 V2000
   -7.4966    9.2968   -9.2529 C   0  0  0  0  0  0  0  0  0  0  0  0
   -8.5756    8.2593   -9.5453 C   0  0  0  0  0  0  0  0  0  0  0  0
   -9.9119    8.9906   -9.6815 C   0  0  0  0  0  0  0  0  0  0  0  0
   -8.6047    7.2047   -8.4289 C   0  0  0  0  0  0  0  0  0  0  0  0
   -8.5123    5.9589   -9.2107 C   0  0  0  0  0  0  0  0  0  0  0  0
   -8.2872    6.2266  -10.4906 C   0  0  0  0  0  0  0  0  0  0  0  0
   -8.2622    7.5833  -10.8104 O   0  0  0  0  0  0  0  0  0  0  0  0
   -7.9452    5.1375  -11.4752 C   0  0  2  0  0  0  0  0  0  0  0  0
   -8.2242    5.4042  -12.8939 N   0  0  0  0  0  0  0  0  0  0  0  0
   -6.9975    5.5511  -13.7103 C   0  0  1  0  0  0  0  0  0  0  0  0
   -6.5060    7.0080  -13.4705 C   0  0  0  0  0  0  0  0  0  0  0  0
   -5.9143    4.5215  -13.3846 N   0  0  0  0  0  0  0  0  0  0  0  0
   -4.8716    5.0019  -12.9223 O   0  0  0  0  0  0  0  0  0  0  0  0
   -7.2689    5.3416  -15.2193 C   0  0  0  0  0  0  0  0  0  0  0  0
   -8.5013    4.8359  -15.7208 C   0  0  0  0  0  0  0  0  0  0  0  0
   -8.7147    4.6440  -17.0866 C   0  0  0  0  0  0  0  0  0  0  0  0
  -10.2306    4.1391  -17.7237 Cl  0  0  0  0  0  0  0  0  0  0  0  0
   -7.7292    4.9422  -18.0154 C   0  0  0  0  0  0  0  0  0  0  0  0
   -6.4859    5.3689  -17.5455 C   0  0  0  0  0  0  0  0  0  0  0  0
   -6.2412    5.5508  -16.1878 C   0  0  0  0  0  0  0  0  0  0  0  0
   -4.8710    5.9089  -16.1376 C   0  0  0  0  0  0  0  0  0  0  0  0
   -4.3136    6.0299  -17.3354 N   0  0  0  0  0  0  0  0  0  0  0  0
   -5.2959    5.6700  -18.1812 N   0  0  0  0  0  0  0  0  0  0  0  0
   -5.0639    5.5613  -19.6372 C   0  0  0  0  0  0  0  0  0  0  0  0
   -5.8892    4.6177  -20.4222 N   0  0  0  0  0  0  0  0  0  0  0  0
   -3.5740    5.4513  -20.0602 C   0  0  0  0  0  0  0  0  0  0  0  0
   -3.8777    6.3670  -21.2066 N   0  0  0  0  0  0  0  0  0  0  0  0
   -4.9857    6.9206  -20.3681 C   0  0  0  0  0  0  0  0  0  0  0  0
   -8.7173    3.8683  -11.1229 C   0  0  0  0  0  0  0  0  0  0  0  0
   -8.5965    3.4484   -9.6502 C   0  0  1  0  0  0  0  0  0  0  0  0
   -9.7232    2.4707   -9.3022 C   0  0  0  0  0  0  0  0  0  0  0  0
   -9.1643    1.7044   -8.1416 C   0  0  0  0  0  0  0  0  0  0  0  0
   -7.7858    1.5357   -8.5355 N   0  0  0  0  0  0  0  0  0  0  0  0
   -7.3560    2.5789   -9.4444 C   0  0  0  0  0  0  0  0  0  0  0  0
   -8.5855    4.6086   -8.6100 C   0  0  0  0  0  0  0  0  0  0  0  0
  1  2  1  0
  2  3  1  0
  2  4  1  0
  4  5  1  0
  5  6  2  0
  6  7  1  0
  6  8  1  0
  8  9  1  6
  9 10  1  0
 10 11  1  6
 10 12  1  0
 12 13  2  0
 10 14  1  0
 14 15  2  0
 15 16  1  0
 16 17  1  0
 16 18  2  0
 18 19  1  0
 19 20  2  0
 20 21  1  0
 21 22  2  0
 22 23  1  0
 23 24  1  0
 24 25  1  0
 24 26  1  0
 26 27  1  0
 27 28  1  0
  8 29  1  0
 30 29  1  6
 30 31  1  0
 31 32  1  0
 32 33  1  0
 33 34  1  0
 30 35  1  0
  7  2  1  0
 20 14  1  0
 28 24  1  0
 34 30  1  0
 35  5  1  0
 23 19  1  0
M  END
>  <smiles>  (2377) 
C36871-P275

>  <fragmenstein_outcome>  (2377) 
acceptable

>  <inchikey>  (2377) 
MEROHLQYVWGVIP-UHFFFAOYSA-N

>  <fragmenstein_mode>  (2377) 
expansion

>  <HIPPO Pose ID>  (2377) 
28110

>  <Energy>  (2377) 
165.847202

>  <fragmenstein_error>  (2377) 


>  <tags>  (2377) 
{'openbind_xx01zvns2b_c1_fragmenstein', 'fragmenstein_placed'}

>  <ref_pdb>  (2377) 
175

>  <scratch_subdir>  (2377) 
/opt/xchem-fragalysis-2/maxwin/BulkDock/SCRATCH/511028/C36871-P275

>  <alias>  (2377) 
CC1(C)CC2=C(O1)[C@H](N[C@@](C)(N=O)c1cc(Cl)cc3c1cnn3C1(N)CNC1)C[C@]1(CCNC1)C2

>  <HIPPO Compound ID>  (2377) 
36871

>  <fragmenstein_runtime>  (2377) 
16.495125

$$$$
Cn1cc2c(C(=O)Nc3ccc4c(c3)CCCC4)cc(Cl)cc2c1C1CNC1
     RDKit          3D

 28 32  0  0  0  0  0  0  0  0999 V2000
   -3.0284    5.8765  -17.1058 C   0  0  0  0  0  0  0  0  0  0  0  0
   -4.4409    5.5934  -17.0779 N   0  0  0  0  0  0  0  0  0  0  0  0
   -5.1732    5.5946  -15.9084 C   0  0  0  0  0  0  0  0  0  0  0  0
   -6.4540    5.2190  -16.2178 C   0  0  0  0  0  0  0  0  0  0  0  0
   -7.5403    5.0777  -15.3448 C   0  0  0  0  0  0  0  0  0  0  0  0
   -7.5274    5.5513  -13.9446 C   0  0  0  0  0  0  0  0  0  0  0  0
   -7.0273    6.5911  -13.7524 O   0  0  0  0  0  0  0  0  0  0  0  0
   -8.1906    4.5568  -12.9561 N   0  0  0  0  0  0  0  0  0  0  0  0
   -8.2877    4.5917  -11.5603 C   0  0  0  0  0  0  0  0  0  0  0  0
   -7.8498    5.7174  -10.8643 C   0  0  0  0  0  0  0  0  0  0  0  0
   -7.8940    5.7570   -9.4698 C   0  0  0  0  0  0  0  0  0  0  0  0
   -8.3986    4.6774   -8.7390 C   0  0  0  0  0  0  0  0  0  0  0  0
   -8.8689    3.5490   -9.4278 C   0  0  0  0  0  0  0  0  0  0  0  0
   -8.8041    3.5116  -10.8413 C   0  0  0  0  0  0  0  0  0  0  0  0
   -9.5376    2.4247   -8.6774 C   0  0  0  0  0  0  0  0  0  0  0  0
   -9.3114    2.4040   -7.1678 C   0  0  0  0  0  0  0  0  0  0  0  0
   -9.3447    3.7910   -6.5495 C   0  0  0  0  0  0  0  0  0  0  0  0
   -8.3517    4.7254   -7.2322 C   0  0  0  0  0  0  0  0  0  0  0  0
   -8.6973    4.6515  -16.0327 C   0  0  0  0  0  0  0  0  0  0  0  0
   -8.7300    4.4400  -17.4564 C   0  0  0  0  0  0  0  0  0  0  0  0
  -10.2464    4.0465  -18.1838 Cl  0  0  0  0  0  0  0  0  0  0  0  0
   -7.6305    4.6073  -18.3283 C   0  0  0  0  0  0  0  0  0  0  0  0
   -6.4962    4.9964  -17.6263 C   0  0  0  0  0  0  0  0  0  0  0  0
   -5.2475    5.2672  -18.1493 C   0  0  0  0  0  0  0  0  0  0  0  0
   -4.8906    5.2071  -19.6900 C   0  0  0  0  0  0  0  0  0  0  0  0
   -3.4292    5.3471  -20.1641 C   0  0  0  0  0  0  0  0  0  0  0  0
   -3.6495    6.7908  -20.3737 N   0  0  0  0  0  0  0  0  0  0  0  0
   -5.1065    6.5399  -20.4426 C   0  0  0  0  0  0  0  0  0  0  0  0
  1  2  1  0
  2  3  1  0
  3  4  2  0
  4  5  1  0
  5  6  1  0
  6  7  2  0
  6  8  1  0
  8  9  1  0
  9 10  2  0
 10 11  1  0
 11 12  2  0
 12 13  1  0
 13 14  2  0
 13 15  1  0
 15 16  1  0
 16 17  1  0
 17 18  1  0
  5 19  2  0
 19 20  1  0
 20 21  1  0
 20 22  2  0
 22 23  1  0
 23 24  2  0
 24 25  1  0
 25 26  1  0
 26 27  1  0
 27 28  1  0
 24  2  1  0
 28 25  1  0
 23  4  1  0
 14  9  1  0
 18 12  1  0
M  END
>  <smiles>  (2378) 
C36876-P275

>  <fragmenstein_outcome>  (2378) 
acceptable

>  <inchikey>  (2378) 
WQAURZNNVUOONB-UHFFFAOYSA-N

>  <fragmenstein_mode>  (2378) 
expansion

>  <HIPPO Pose ID>  (2378) 
28114

>  <Energy>  (2378) 
88.348238

>  <fragmenstein_error>  (2378) 


>  <tags>  (2378) 
{'openbind_xx01zvns2b_c1_fragmenstein', 'fragmenstein_placed'}

>  <ref_pdb>  (2378) 
175

>  <scratch_subdir>  (2378) 
/opt/xchem-fragalysis-2/maxwin/BulkDock/SCRATCH/511028/C36876-P275

>  <alias>  (2378) 
Cn1cc2c(C(=O)Nc3ccc4c(c3)CCCC4)cc(Cl)cc2c1C1CNC1

>  <HIPPO Compound ID>  (2378) 
36876

>  <fragmenstein_runtime>  (2378) 
15.29617

$$$$
NCn1cc2c(C(=O)Nc3ccc4c(c3)CCCC4)cc(Cl)cc2c1C1CNC1
     RDKit          3D

 29 33  0  0  0  0  0  0  0  0999 V2000
   -2.1536    6.5442  -16.8685 N   0  0  0  0  0  0  0  0  0  0  0  0
   -2.8105    5.2579  -16.7643 C   0  0  0  0  0  0  0  0  0  0  0  0
   -4.2581    5.4444  -16.8598 N   0  0  0  0  0  0  0  0  0  0  0  0
   -5.0510    5.5550  -15.7269 C   0  0  0  0  0  0  0  0  0  0  0  0
   -6.3420    5.2652  -16.0893 C   0  0  0  0  0  0  0  0  0  0  0  0
   -7.4601    5.1400  -15.2541 C   0  0  0  0  0  0  0  0  0  0  0  0
   -7.4732    5.5967  -13.8503 C   0  0  0  0  0  0  0  0  0  0  0  0
   -6.9721    6.6320  -13.6385 O   0  0  0  0  0  0  0  0  0  0  0  0
   -8.1560    4.5945  -12.8843 N   0  0  0  0  0  0  0  0  0  0  0  0
   -8.2754    4.6140  -11.4905 C   0  0  0  0  0  0  0  0  0  0  0  0
   -7.8578    5.7378  -10.7791 C   0  0  0  0  0  0  0  0  0  0  0  0
   -7.9204    5.7645   -9.3854 C   0  0  0  0  0  0  0  0  0  0  0  0
   -8.4221    4.6728   -8.6713 C   0  0  0  0  0  0  0  0  0  0  0  0
   -8.8709    3.5453   -9.3761 C   0  0  0  0  0  0  0  0  0  0  0  0
   -8.7906    3.5220  -10.7892 C   0  0  0  0  0  0  0  0  0  0  0  0
   -9.5295    2.4038   -8.6426 C   0  0  0  0  0  0  0  0  0  0  0  0
   -9.3273    2.3765   -7.1294 C   0  0  0  0  0  0  0  0  0  0  0  0
   -9.3889    3.7587   -6.5030 C   0  0  0  0  0  0  0  0  0  0  0  0
   -8.3956    4.7084   -7.1634 C   0  0  0  0  0  0  0  0  0  0  0  0
   -8.6014    4.7221  -15.9752 C   0  0  0  0  0  0  0  0  0  0  0  0
   -8.5935    4.5127  -17.3997 C   0  0  0  0  0  0  0  0  0  0  0  0
  -10.0811    4.0681  -18.1639 Cl  0  0  0  0  0  0  0  0  0  0  0  0
   -7.4696    4.6988  -18.2389 C   0  0  0  0  0  0  0  0  0  0  0  0
   -6.3472    5.0606  -17.4984 C   0  0  0  0  0  0  0  0  0  0  0  0
   -5.0676    5.2763  -17.9727 C   0  0  0  0  0  0  0  0  0  0  0  0
   -4.6907    5.2514  -19.4924 C   0  0  0  0  0  0  0  0  0  0  0  0
   -3.2452    5.4908  -19.9749 C   0  0  0  0  0  0  0  0  0  0  0  0
   -3.8076    6.2439  -21.1322 N   0  0  0  0  0  0  0  0  0  0  0  0
   -4.9605    6.5768  -20.2471 C   0  0  0  0  0  0  0  0  0  0  0  0
  1  2  1  0
  2  3  1  0
  3  4  1  0
  4  5  2  0
  5  6  1  0
  6  7  1  0
  7  8  2  0
  7  9  1  0
  9 10  1  0
 10 11  2  0
 11 12  1  0
 12 13  2  0
 13 14  1  0
 14 15  2  0
 14 16  1  0
 16 17  1  0
 17 18  1  0
 18 19  1  0
  6 20  2  0
 20 21  1  0
 21 22  1  0
 21 23  2  0
 23 24  1  0
 24 25  2  0
 25 26  1  0
 26 27  1  0
 27 28  1  0
 28 29  1  0
 25  3  1  0
 29 26  1  0
 24  5  1  0
 15 10  1  0
 19 13  1  0
M  END
>  <smiles>  (2379) 
C36887-P275

>  <fragmenstein_outcome>  (2379) 
acceptable

>  <inchikey>  (2379) 
PTDYVPANBFUNEU-UHFFFAOYSA-N

>  <fragmenstein_mode>  (2379) 
expansion

>  <HIPPO Pose ID>  (2379) 
28115

>  <Energy>  (2379) 
97.191664

>  <fragmenstein_error>  (2379) 


>  <tags>  (2379) 
{'openbind_xx01zvns2b_c1_fragmenstein', 'fragmenstein_placed'}

>  <ref_pdb>  (2379) 
175

>  <scratch_subdir>  (2379) 
/opt/xchem-fragalysis-2/maxwin/BulkDock/SCRATCH/511028/C36887-P275

>  <alias>  (2379) 
NCn1cc2c(C(=O)Nc3ccc4c(c3)CCCC4)cc(Cl)cc2c1C1CNC1

>  <HIPPO Compound ID>  (2379) 
27830

>  <fragmenstein_runtime>  (2379) 
15.271102

$$$$
CN[C@@H]1CC2=C(CNN2C2CNC2)[C@@H](C(=O)Nc2ccc3c(c2)CCCC3)C1
     RDKit          3D

 28 32  0  0  0  0  0  0  0  0999 V2000
   -9.8720    3.2710  -18.5756 C   0  0  0  0  0  0  0  0  0  0  0  0
   -9.1940    3.4107  -17.3004 N   0  0  0  0  0  0  0  0  0  0  0  0
   -8.8574    4.8036  -17.1079 C   0  0  2  0  0  0  0  0  0  0  0  0
   -7.6334    5.2289  -17.9799 C   0  0  0  0  0  0  0  0  0  0  0  0
   -6.3408    5.2606  -17.2409 C   0  0  0  0  0  0  0  0  0  0  0  0
   -6.2246    5.0024  -15.9372 C   0  0  0  0  0  0  0  0  0  0  0  0
   -4.7855    5.0424  -15.5751 C   0  0  0  0  0  0  0  0  0  0  0  0
   -4.0755    5.2502  -16.8659 N   0  0  0  0  0  0  0  0  0  0  0  0
   -5.1066    5.5050  -17.8289 N   0  0  0  0  0  0  0  0  0  0  0  0
   -4.8398    5.3203  -19.2393 C   0  0  0  0  0  0  0  0  0  0  0  0
   -3.3666    5.4687  -19.6902 C   0  0  0  0  0  0  0  0  0  0  0  0
   -3.8551    6.2029  -20.8950 N   0  0  0  0  0  0  0  0  0  0  0  0
   -5.0347    6.6053  -20.0750 C   0  0  0  0  0  0  0  0  0  0  0  0
   -7.3419    4.6337  -15.0191 C   0  0  1  0  0  0  0  0  0  0  0  0
   -7.2300    5.3088  -13.6365 C   0  0  0  0  0  0  0  0  0  0  0  0
   -6.7015    6.3422  -13.4683 O   0  0  0  0  0  0  0  0  0  0  0  0
   -7.9845    4.3786  -12.6260 N   0  0  0  0  0  0  0  0  0  0  0  0
   -8.1477    4.4867  -11.2483 C   0  0  0  0  0  0  0  0  0  0  0  0
   -7.7220    5.6221  -10.5678 C   0  0  0  0  0  0  0  0  0  0  0  0
   -7.8591    5.7007   -9.1816 C   0  0  0  0  0  0  0  0  0  0  0  0
   -8.4187    4.6429   -8.4536 C   0  0  0  0  0  0  0  0  0  0  0  0
   -8.8523    3.4959   -9.1351 C   0  0  0  0  0  0  0  0  0  0  0  0
   -8.7297    3.4350  -10.5378 C   0  0  0  0  0  0  0  0  0  0  0  0
   -9.5101    2.3572   -8.3961 C   0  0  0  0  0  0  0  0  0  0  0  0
   -9.3690    2.3895   -6.8749 C   0  0  0  0  0  0  0  0  0  0  0  0
   -9.4877    3.7950   -6.3088 C   0  0  0  0  0  0  0  0  0  0  0  0
   -8.4668    4.7314   -6.9484 C   0  0  0  0  0  0  0  0  0  0  0  0
   -8.6907    5.0577  -15.6067 C   0  0  0  0  0  0  0  0  0  0  0  0
  1  2  1  0
  3  2  1  1
  3  4  1  0
  4  5  1  0
  5  6  2  0
  6  7  1  0
  7  8  1  0
  8  9  1  0
  9 10  1  0
 10 11  1  0
 11 12  1  0
 12 13  1  0
  6 14  1  0
 14 15  1  1
 15 16  2  0
 15 17  1  0
 17 18  1  0
 18 19  2  0
 19 20  1  0
 20 21  2  0
 21 22  1  0
 22 23  2  0
 22 24  1  0
 24 25  1  0
 25 26  1  0
 26 27  1  0
 14 28  1  0
 28  3  1  0
  9  5  1  0
 13 10  1  0
 23 18  1  0
 27 21  1  0
M  END
>  <smiles>  (2380) 
C36893-P275

>  <fragmenstein_outcome>  (2380) 
acceptable

>  <inchikey>  (2380) 
LPQWPQOHCHHXJY-UHFFFAOYSA-N

>  <fragmenstein_mode>  (2380) 
expansion

>  <HIPPO Pose ID>  (2380) 
28116

>  <Energy>  (2380) 
107.419561

>  <fragmenstein_error>  (2380) 


>  <tags>  (2380) 
{'openbind_xx01zvns2b_c1_fragmenstein', 'fragmenstein_placed'}

>  <ref_pdb>  (2380) 
175

>  <scratch_subdir>  (2380) 
/opt/xchem-fragalysis-2/maxwin/BulkDock/SCRATCH/511028/C36893-P275

>  <alias>  (2380) 
CN[C@@H]1CC2=C(CNN2C2CNC2)[C@@H](C(=O)Nc2ccc3c(c2)CCCC3)C1

>  <HIPPO Compound ID>  (2380) 
32298

>  <fragmenstein_runtime>  (2380) 
6.052412

$$$$
Cc1cc(NC(=O)c2cc(Cl)cc3c(C4CNC4)n(F)c(F)c23)cc2c1CCCC2
     RDKit          3D

 30 34  0  0  0  0  0  0  0  0999 V2000
   -7.9423    7.0952   -8.7284 C   0  0  0  0  0  0  0  0  0  0  0  0
   -8.2160    5.7620   -9.3677 C   0  0  0  0  0  0  0  0  0  0  0  0
   -8.1076    5.6542  -10.7647 C   0  0  0  0  0  0  0  0  0  0  0  0
   -8.3424    4.4494  -11.4261 C   0  0  0  0  0  0  0  0  0  0  0  0
   -8.1309    4.3627  -12.8076 N   0  0  0  0  0  0  0  0  0  0  0  0
   -7.6709    5.4361  -13.8231 C   0  0  0  0  0  0  0  0  0  0  0  0
   -7.3226    6.5395  -13.6541 O   0  0  0  0  0  0  0  0  0  0  0  0
   -7.5659    4.9484  -15.2154 C   0  0  0  0  0  0  0  0  0  0  0  0
   -8.6663    4.5344  -15.9914 C   0  0  0  0  0  0  0  0  0  0  0  0
   -8.6299    4.4757  -17.4304 C   0  0  0  0  0  0  0  0  0  0  0  0
  -10.0848    4.0234  -18.2485 Cl  0  0  0  0  0  0  0  0  0  0  0  0
   -7.5273    4.8583  -18.2404 C   0  0  0  0  0  0  0  0  0  0  0  0
   -6.4453    5.2595  -17.4632 C   0  0  0  0  0  0  0  0  0  0  0  0
   -5.2585    5.8479  -17.8547 C   0  0  0  0  0  0  0  0  0  0  0  0
   -4.6980    6.4002  -19.1862 C   0  0  0  0  0  0  0  0  0  0  0  0
   -3.4553    5.6584  -19.7345 C   0  0  0  0  0  0  0  0  0  0  0  0
   -3.9209    6.0393  -21.0889 N   0  0  0  0  0  0  0  0  0  0  0  0
   -5.3043    6.0637  -20.5425 C   0  0  0  0  0  0  0  0  0  0  0  0
   -4.5499    6.0597  -16.7051 N   0  0  0  0  0  0  0  0  0  0  0  0
   -3.3670    6.7568  -16.6616 F   0  0  0  0  0  0  0  0  0  0  0  0
   -5.2188    5.6511  -15.6061 C   0  0  0  0  0  0  0  0  0  0  0  0
   -4.7389    5.6557  -14.3608 F   0  0  0  0  0  0  0  0  0  0  0  0
   -6.4618    5.2585  -16.0202 C   0  0  0  0  0  0  0  0  0  0  0  0
   -8.7310    3.3416  -10.6774 C   0  0  0  0  0  0  0  0  0  0  0  0
   -8.8577    3.4247   -9.2681 C   0  0  0  0  0  0  0  0  0  0  0  0
   -8.5942    4.6380   -8.6062 C   0  0  0  0  0  0  0  0  0  0  0  0
   -8.6432    4.7108   -7.0950 C   0  0  0  0  0  0  0  0  0  0  0  0
   -9.5548    3.6802   -6.4380 C   0  0  0  0  0  0  0  0  0  0  0  0
   -9.2961    2.2910   -6.9805 C   0  0  0  0  0  0  0  0  0  0  0  0
   -9.3394    2.2135   -8.5053 C   0  0  0  0  0  0  0  0  0  0  0  0
  1  2  1  0
  2  3  2  0
  3  4  1  0
  4  5  1  0
  5  6  1  0
  6  7  2  0
  6  8  1  0
  8  9  2  0
  9 10  1  0
 10 11  1  0
 10 12  2  0
 12 13  1  0
 13 14  2  0
 14 15  1  0
 15 16  1  0
 16 17  1  0
 17 18  1  0
 14 19  1  0
 19 20  1  0
 19 21  1  0
 21 22  1  0
 21 23  2  0
  4 24  2  0
 24 25  1  0
 25 26  2  0
 26 27  1  0
 27 28  1  0
 28 29  1  0
 29 30  1  0
 26  2  1  0
 23  8  1  0
 30 25  1  0
 23 13  1  0
 18 15  1  0
M  END
>  <smiles>  (2381) 
C36917-P275

>  <fragmenstein_outcome>  (2381) 
acceptable

>  <inchikey>  (2381) 
XDLUJLYKAJZIKH-UHFFFAOYSA-N

>  <fragmenstein_mode>  (2381) 
expansion

>  <HIPPO Pose ID>  (2381) 
28120

>  <Energy>  (2381) 
89.440276

>  <fragmenstein_error>  (2381) 


>  <tags>  (2381) 
{'openbind_xx01zvns2b_c1_fragmenstein', 'fragmenstein_placed'}

>  <ref_pdb>  (2381) 
175

>  <scratch_subdir>  (2381) 
/opt/xchem-fragalysis-2/maxwin/BulkDock/SCRATCH/511028/C36917-P275

>  <alias>  (2381) 
Cc1cc(NC(=O)c2cc(Cl)cc3c(C4CNC4)n(F)c(F)c23)cc2c1CCCC2

>  <HIPPO Compound ID>  (2381) 
34278

>  <fragmenstein_runtime>  (2381) 
16.718836

$$$$
Cc1cc2c(cc1NC(=O)c1cc(Cl)cc3c1cnn3C1CNC1)CCCC2
     RDKit          3D

 28 32  0  0  0  0  0  0  0  0999 V2000
   -8.0945    7.3436  -11.4351 C   0  0  0  0  0  0  0  0  0  0  0  0
   -8.2341    5.9520  -10.8919 C   0  0  0  0  0  0  0  0  0  0  0  0
   -8.2443    5.8327   -9.4824 C   0  0  0  0  0  0  0  0  0  0  0  0
   -8.4635    4.6098   -8.8429 C   0  0  0  0  0  0  0  0  0  0  0  0
   -8.6897    3.4818   -9.6220 C   0  0  0  0  0  0  0  0  0  0  0  0
   -8.6423    3.5812  -11.0253 C   0  0  0  0  0  0  0  0  0  0  0  0
   -8.3739    4.7953  -11.6748 C   0  0  0  0  0  0  0  0  0  0  0  0
   -8.2460    4.7167  -13.0744 N   0  0  0  0  0  0  0  0  0  0  0  0
   -7.5371    5.6637  -14.0750 C   0  0  0  0  0  0  0  0  0  0  0  0
   -7.0157    6.6957  -13.9021 O   0  0  0  0  0  0  0  0  0  0  0  0
   -7.5431    5.1539  -15.4711 C   0  0  0  0  0  0  0  0  0  0  0  0
   -8.7084    4.6720  -16.0789 C   0  0  0  0  0  0  0  0  0  0  0  0
   -8.7288    4.4372  -17.4542 C   0  0  0  0  0  0  0  0  0  0  0  0
  -10.2040    3.9969  -18.2162 Cl  0  0  0  0  0  0  0  0  0  0  0  0
   -7.6040    4.6392  -18.2590 C   0  0  0  0  0  0  0  0  0  0  0  0
   -6.4364    5.0865  -17.6305 C   0  0  0  0  0  0  0  0  0  0  0  0
   -6.3871    5.3424  -16.2610 C   0  0  0  0  0  0  0  0  0  0  0  0
   -5.0692    5.7975  -16.0369 C   0  0  0  0  0  0  0  0  0  0  0  0
   -4.3333    5.8219  -17.1477 N   0  0  0  0  0  0  0  0  0  0  0  0
   -5.1835    5.4064  -18.1092 N   0  0  0  0  0  0  0  0  0  0  0  0
   -4.8211    5.3825  -19.5388 C   0  0  0  0  0  0  0  0  0  0  0  0
   -3.3085    5.4678  -19.8279 C   0  0  0  0  0  0  0  0  0  0  0  0
   -3.6127    6.4666  -20.8804 N   0  0  0  0  0  0  0  0  0  0  0  0
   -4.8753    6.7833  -20.1759 C   0  0  0  0  0  0  0  0  0  0  0  0
   -8.9016    2.1398   -8.9864 C   0  0  0  0  0  0  0  0  0  0  0  0
   -9.1853    2.0856   -7.4900 C   0  0  0  0  0  0  0  0  0  0  0  0
   -9.3365    3.4255   -6.8012 C   0  0  0  0  0  0  0  0  0  0  0  0
   -8.3889    4.4851   -7.3463 C   0  0  0  0  0  0  0  0  0  0  0  0
  1  2  1  0
  2  3  2  0
  3  4  1  0
  4  5  2  0
  5  6  1  0
  6  7  2  0
  7  8  1  0
  8  9  1  0
  9 10  2  0
  9 11  1  0
 11 12  2  0
 12 13  1  0
 13 14  1  0
 13 15  2  0
 15 16  1  0
 16 17  2  0
 17 18  1  0
 18 19  2  0
 19 20  1  0
 20 21  1  0
 21 22  1  0
 22 23  1  0
 23 24  1  0
  5 25  1  0
 25 26  1  0
 26 27  1  0
 27 28  1  0
  7  2  1  0
 17 11  1  0
 24 21  1  0
 28  4  1  0
 20 16  1  0
M  END
>  <smiles>  (2382) 
C36921-P275

>  <fragmenstein_outcome>  (2382) 
acceptable

>  <inchikey>  (2382) 
XNDLSBYERQVIHW-UHFFFAOYSA-N

>  <fragmenstein_mode>  (2382) 
expansion

>  <HIPPO Pose ID>  (2382) 
28123

>  <Energy>  (2382) 
74.050304

>  <fragmenstein_error>  (2382) 


>  <tags>  (2382) 
{'openbind_xx01zvns2b_c1_fragmenstein', 'fragmenstein_placed'}

>  <ref_pdb>  (2382) 
175

>  <scratch_subdir>  (2382) 
/opt/xchem-fragalysis-2/maxwin/BulkDock/SCRATCH/511028/C36921-P275

>  <alias>  (2382) 
Cc1cc2c(cc1NC(=O)c1cc(Cl)cc3c1cnn3C1CNC1)CCCC2

>  <HIPPO Compound ID>  (2382) 
36921

>  <fragmenstein_runtime>  (2382) 
15.162211

$$$$
COn1cc2c(C(=O)Nc3cc(C)c4c(c3)CCCC4)cc(Cl)cc2c1C1CNC1
     RDKit          3D

 30 34  0  0  0  0  0  0  0  0999 V2000
   -3.1473    7.7237  -16.7645 C   0  0  0  0  0  0  0  0  0  0  0  0
   -3.1813    6.3126  -16.9497 O   0  0  0  0  0  0  0  0  0  0  0  0
   -4.5069    5.8802  -16.9304 N   0  0  0  0  0  0  0  0  0  0  0  0
   -5.2388    5.7645  -15.7773 C   0  0  0  0  0  0  0  0  0  0  0  0
   -6.4850    5.3173  -16.1325 C   0  0  0  0  0  0  0  0  0  0  0  0
   -7.5905    5.1158  -15.2985 C   0  0  0  0  0  0  0  0  0  0  0  0
   -7.6612    5.6104  -13.9103 C   0  0  0  0  0  0  0  0  0  0  0  0
   -7.2828    6.7011  -13.7243 O   0  0  0  0  0  0  0  0  0  0  0  0
   -8.2269    4.5618  -12.9209 N   0  0  0  0  0  0  0  0  0  0  0  0
   -8.3519    4.6017  -11.5284 C   0  0  0  0  0  0  0  0  0  0  0  0
   -8.1113    5.7858  -10.8350 C   0  0  0  0  0  0  0  0  0  0  0  0
   -8.1675    5.8376   -9.4311 C   0  0  0  0  0  0  0  0  0  0  0  0
   -7.9012    7.1498   -8.7488 C   0  0  0  0  0  0  0  0  0  0  0  0
   -8.4830    4.6749   -8.7000 C   0  0  0  0  0  0  0  0  0  0  0  0
   -8.7486    3.4840   -9.3963 C   0  0  0  0  0  0  0  0  0  0  0  0
   -8.6854    3.4577  -10.8090 C   0  0  0  0  0  0  0  0  0  0  0  0
   -9.0911    2.2107   -8.6654 C   0  0  0  0  0  0  0  0  0  0  0  0
   -9.2349    2.2684   -7.1456 C   0  0  0  0  0  0  0  0  0  0  0  0
   -9.4180    3.6585   -6.5704 C   0  0  0  0  0  0  0  0  0  0  0  0
   -8.4566    4.6646   -7.1882 C   0  0  0  0  0  0  0  0  0  0  0  0
   -8.7029    4.6395  -16.0245 C   0  0  0  0  0  0  0  0  0  0  0  0
   -8.6801    4.4335  -17.4488 C   0  0  0  0  0  0  0  0  0  0  0  0
  -10.1588    3.9885  -18.2219 Cl  0  0  0  0  0  0  0  0  0  0  0  0
   -7.5606    4.6535  -18.2847 C   0  0  0  0  0  0  0  0  0  0  0  0
   -6.4715    5.1002  -17.5453 C   0  0  0  0  0  0  0  0  0  0  0  0
   -5.2291    5.4606  -18.0242 C   0  0  0  0  0  0  0  0  0  0  0  0
   -4.7849    5.4313  -19.5271 C   0  0  0  0  0  0  0  0  0  0  0  0
   -3.2818    5.4299  -19.8751 C   0  0  0  0  0  0  0  0  0  0  0  0
   -3.5477    6.4520  -20.9087 N   0  0  0  0  0  0  0  0  0  0  0  0
   -4.8080    6.8047  -20.2294 C   0  0  0  0  0  0  0  0  0  0  0  0
  1  2  1  0
  2  3  1  0
  3  4  1  0
  4  5  2  0
  5  6  1  0
  6  7  1  0
  7  8  2  0
  7  9  1  0
  9 10  1  0
 10 11  2  0
 11 12  1  0
 12 13  1  0
 12 14  2  0
 14 15  1  0
 15 16  2  0
 15 17  1  0
 17 18  1  0
 18 19  1  0
 19 20  1  0
  6 21  2  0
 21 22  1  0
 22 23  1  0
 22 24  2  0
 24 25  1  0
 25 26  2  0
 26 27  1  0
 27 28  1  0
 28 29  1  0
 29 30  1  0
 26  3  1  0
 30 27  1  0
 25  5  1  0
 16 10  1  0
 20 14  1  0
M  END
>  <smiles>  (2383) 
C36924-P275

>  <fragmenstein_outcome>  (2383) 
acceptable

>  <inchikey>  (2383) 
WYMUFFJEOKHQQH-UHFFFAOYSA-N

>  <fragmenstein_mode>  (2383) 
expansion

>  <HIPPO Pose ID>  (2383) 
28124

>  <Energy>  (2383) 
66.662464

>  <fragmenstein_error>  (2383) 


>  <tags>  (2383) 
{'openbind_xx01zvns2b_c1_fragmenstein', 'fragmenstein_placed'}

>  <ref_pdb>  (2383) 
175

>  <scratch_subdir>  (2383) 
/opt/xchem-fragalysis-2/maxwin/BulkDock/SCRATCH/511028/C36924-P275

>  <alias>  (2383) 
COn1cc2c(C(=O)Nc3cc(C)c4c(c3)CCCC4)cc(Cl)cc2c1C1CNC1

>  <HIPPO Compound ID>  (2383) 
38201

>  <fragmenstein_runtime>  (2383) 
28.954678

$$$$
CNn1cc2c(C(=O)Nc3cc(C)c4c(c3)CCCC4)cc(Cl)cc2c1C1CNC1
     RDKit          3D

 30 34  0  0  0  0  0  0  0  0999 V2000
   -3.2635    7.7483  -16.7347 C   0  0  0  0  0  0  0  0  0  0  0  0
   -3.3480    6.2973  -16.8377 N   0  0  0  0  0  0  0  0  0  0  0  0
   -4.6796    5.8576  -16.8506 N   0  0  0  0  0  0  0  0  0  0  0  0
   -5.4281    5.7568  -15.7072 C   0  0  0  0  0  0  0  0  0  0  0  0
   -6.6614    5.2852  -16.0678 C   0  0  0  0  0  0  0  0  0  0  0  0
   -7.7621    5.0717  -15.2351 C   0  0  0  0  0  0  0  0  0  0  0  0
   -7.8258    5.5642  -13.8454 C   0  0  0  0  0  0  0  0  0  0  0  0
   -7.4463    6.6565  -13.6696 O   0  0  0  0  0  0  0  0  0  0  0  0
   -8.3562    4.5115  -12.8401 N   0  0  0  0  0  0  0  0  0  0  0  0
   -8.4381    4.5491  -11.4429 C   0  0  0  0  0  0  0  0  0  0  0  0
   -8.1320    5.7272  -10.7639 C   0  0  0  0  0  0  0  0  0  0  0  0
   -8.1747    5.8011   -9.3616 C   0  0  0  0  0  0  0  0  0  0  0  0
   -7.8492    7.1127   -8.7035 C   0  0  0  0  0  0  0  0  0  0  0  0
   -8.5579    4.6708   -8.6125 C   0  0  0  0  0  0  0  0  0  0  0  0
   -8.8814    3.4812   -9.2912 C   0  0  0  0  0  0  0  0  0  0  0  0
   -8.8142    3.4290  -10.7054 C   0  0  0  0  0  0  0  0  0  0  0  0
   -9.3925    2.2746   -8.5404 C   0  0  0  0  0  0  0  0  0  0  0  0
   -9.3059    2.3185   -7.0168 C   0  0  0  0  0  0  0  0  0  0  0  0
   -9.5041    3.7062   -6.4445 C   0  0  0  0  0  0  0  0  0  0  0  0
   -8.5635    4.7115   -7.0992 C   0  0  0  0  0  0  0  0  0  0  0  0
   -8.8623    4.5913  -15.9723 C   0  0  0  0  0  0  0  0  0  0  0  0
   -8.8341    4.4019  -17.4006 C   0  0  0  0  0  0  0  0  0  0  0  0
  -10.3101    3.9955  -18.1949 Cl  0  0  0  0  0  0  0  0  0  0  0  0
   -7.7126    4.6233  -18.2296 C   0  0  0  0  0  0  0  0  0  0  0  0
   -6.6358    5.0705  -17.4778 C   0  0  0  0  0  0  0  0  0  0  0  0
   -5.3890    5.4269  -17.9464 C   0  0  0  0  0  0  0  0  0  0  0  0
   -4.9331    5.3475  -19.4414 C   0  0  0  0  0  0  0  0  0  0  0  0
   -3.4347    5.3907  -19.8164 C   0  0  0  0  0  0  0  0  0  0  0  0
   -3.8117    6.2001  -21.0129 N   0  0  0  0  0  0  0  0  0  0  0  0
   -4.9917    6.6700  -20.2337 C   0  0  0  0  0  0  0  0  0  0  0  0
  1  2  1  0
  2  3  1  0
  3  4  1  0
  4  5  2  0
  5  6  1  0
  6  7  1  0
  7  8  2  0
  7  9  1  0
  9 10  1  0
 10 11  2  0
 11 12  1  0
 12 13  1  0
 12 14  2  0
 14 15  1  0
 15 16  2  0
 15 17  1  0
 17 18  1  0
 18 19  1  0
 19 20  1  0
  6 21  2  0
 21 22  1  0
 22 23  1  0
 22 24  2  0
 24 25  1  0
 25 26  2  0
 26 27  1  0
 27 28  1  0
 28 29  1  0
 29 30  1  0
 26  3  1  0
 30 27  1  0
 25  5  1  0
 16 10  1  0
 20 14  1  0
M  END
>  <smiles>  (2384) 
C36928-P275

>  <fragmenstein_outcome>  (2384) 
acceptable

>  <inchikey>  (2384) 
APHNPFQKPRADIV-UHFFFAOYSA-N

>  <fragmenstein_mode>  (2384) 
expansion

>  <HIPPO Pose ID>  (2384) 
28125

>  <Energy>  (2384) 
49.483722

>  <fragmenstein_error>  (2384) 


>  <tags>  (2384) 
{'openbind_xx01zvns2b_c1_fragmenstein', 'fragmenstein_placed'}

>  <ref_pdb>  (2384) 
175

>  <scratch_subdir>  (2384) 
/opt/xchem-fragalysis-2/maxwin/BulkDock/SCRATCH/511028/C36928-P275

>  <alias>  (2384) 
CNn1cc2c(C(=O)Nc3cc(C)c4c(c3)CCCC4)cc(Cl)cc2c1C1CNC1

>  <HIPPO Compound ID>  (2384) 
36928

>  <fragmenstein_runtime>  (2384) 
18.669771

$$$$
O=C(Nc1ccc2c(c1)CCCC2)c1cc(Cl)cc2c1cnn2C1CNC1
     RDKit          3D

 27 31  0  0  0  0  0  0  0  0999 V2000
   -6.9176    6.5034  -13.8006 O   0  0  0  0  0  0  0  0  0  0  0  0
   -7.4900    5.5097  -14.0281 C   0  0  0  0  0  0  0  0  0  0  0  0
   -8.2068    4.5234  -13.0736 N   0  0  0  0  0  0  0  0  0  0  0  0
   -8.2842    4.5052  -11.6798 C   0  0  0  0  0  0  0  0  0  0  0  0
   -7.7332    5.5369  -10.9224 C   0  0  0  0  0  0  0  0  0  0  0  0
   -7.7516    5.4787   -9.5267 C   0  0  0  0  0  0  0  0  0  0  0  0
   -8.3476    4.4001   -8.8654 C   0  0  0  0  0  0  0  0  0  0  0  0
   -8.9531    3.3887   -9.6231 C   0  0  0  0  0  0  0  0  0  0  0  0
   -8.9024    3.4392  -11.0287 C   0  0  0  0  0  0  0  0  0  0  0  0
   -9.7557    2.3197   -8.9333 C   0  0  0  0  0  0  0  0  0  0  0  0
   -9.2906    2.0191   -7.5191 C   0  0  0  0  0  0  0  0  0  0  0  0
   -9.2050    3.3036   -6.7129 C   0  0  0  0  0  0  0  0  0  0  0  0
   -8.2456    4.2941   -7.3643 C   0  0  0  0  0  0  0  0  0  0  0  0
   -7.5375    5.0875  -15.4525 C   0  0  0  0  0  0  0  0  0  0  0  0
   -8.7173    4.6404  -16.0604 C   0  0  0  0  0  0  0  0  0  0  0  0
   -8.7571    4.4401  -17.4404 C   0  0  0  0  0  0  0  0  0  0  0  0
  -10.2414    4.0249  -18.1986 Cl  0  0  0  0  0  0  0  0  0  0  0  0
   -7.6393    4.6485  -18.2518 C   0  0  0  0  0  0  0  0  0  0  0  0
   -6.4611    5.0713  -17.6267 C   0  0  0  0  0  0  0  0  0  0  0  0
   -6.3907    5.2925  -16.2530 C   0  0  0  0  0  0  0  0  0  0  0  0
   -5.0616    5.7219  -16.0374 C   0  0  0  0  0  0  0  0  0  0  0  0
   -4.3380    5.7530  -17.1569 N   0  0  0  0  0  0  0  0  0  0  0  0
   -5.2079    5.3753  -18.1128 N   0  0  0  0  0  0  0  0  0  0  0  0
   -4.8503    5.2800  -19.5359 C   0  0  0  0  0  0  0  0  0  0  0  0
   -3.3471    5.4062  -19.8556 C   0  0  0  0  0  0  0  0  0  0  0  0
   -3.7323    6.2309  -21.0406 N   0  0  0  0  0  0  0  0  0  0  0  0
   -4.9497    6.6258  -20.2752 C   0  0  0  0  0  0  0  0  0  0  0  0
  1  2  2  0
  2  3  1  0
  3  4  1  0
  4  5  2  0
  5  6  1  0
  6  7  2  0
  7  8  1  0
  8  9  2  0
  8 10  1  0
 10 11  1  0
 11 12  1  0
 12 13  1  0
  2 14  1  0
 14 15  2  0
 15 16  1  0
 16 17  1  0
 16 18  2  0
 18 19  1  0
 19 20  2  0
 20 21  1  0
 21 22  2  0
 22 23  1  0
 23 24  1  0
 24 25  1  0
 25 26  1  0
 26 27  1  0
  9  4  1  0
 20 14  1  0
 27 24  1  0
 13  7  1  0
 23 19  1  0
M  END
>  <smiles>  (2385) 
C252-P275

>  <fragmenstein_outcome>  (2385) 
acceptable

>  <inchikey>  (2385) 
JZZRYLMZUCNFHJ-UHFFFAOYSA-N

>  <fragmenstein_mode>  (2385) 
expansion

>  <HIPPO Pose ID>  (2385) 
28126

>  <Energy>  (2385) 
61.558917

>  <fragmenstein_error>  (2385) 


>  <tags>  (2385) 
{'openbind_xx01zvns2b_c1_fragmenstein', 'fragmenstein_placed'}

>  <ref_pdb>  (2385) 
175

>  <scratch_subdir>  (2385) 
/opt/xchem-fragalysis-2/maxwin/BulkDock/SCRATCH/511028/C252-P275

>  <alias>  (2385) 
O=C(Nc1ccc2c(c1)CCCC2)c1cc(Cl)cc2c1cnn2C1CNC1

>  <HIPPO Compound ID>  (2385) 
37017

>  <fragmenstein_runtime>  (2385) 
14.042688

$$$$
CCOC(=O)c1nn(C2CNC2)c2c(C#N)c(Cl)cc(C(=O)Nc3ccc4c(c3)CCCC4)c12
     RDKit          3D

 34 38  0  0  0  0  0  0  0  0999 V2000
   -4.2408    6.0984  -11.6180 C   0  0  0  0  0  0  0  0  0  0  0  0
   -4.2122    4.7722  -12.3568 C   0  0  0  0  0  0  0  0  0  0  0  0
   -4.8885    4.8429  -13.6212 O   0  0  0  0  0  0  0  0  0  0  0  0
   -4.2323    5.4940  -14.6243 C   0  0  0  0  0  0  0  0  0  0  0  0
   -3.1337    6.0243  -14.4887 O   0  0  0  0  0  0  0  0  0  0  0  0
   -4.9389    5.3993  -15.9158 C   0  0  0  0  0  0  0  0  0  0  0  0
   -4.2309    5.4735  -17.0557 N   0  0  0  0  0  0  0  0  0  0  0  0
   -5.0979    5.2107  -18.0383 N   0  0  0  0  0  0  0  0  0  0  0  0
   -4.6681    5.1938  -19.4483 C   0  0  0  0  0  0  0  0  0  0  0  0
   -3.1979    5.5722  -19.7153 C   0  0  0  0  0  0  0  0  0  0  0  0
   -3.6741    6.3162  -20.9210 N   0  0  0  0  0  0  0  0  0  0  0  0
   -4.9645    6.5041  -20.1999 C   0  0  0  0  0  0  0  0  0  0  0  0
   -6.3740    4.9313  -17.5875 C   0  0  0  0  0  0  0  0  0  0  0  0
   -7.5583    4.5066  -18.2295 C   0  0  0  0  0  0  0  0  0  0  0  0
   -7.4984    4.0631  -19.5880 C   0  0  0  0  0  0  0  0  0  0  0  0
   -7.3450    3.6161  -20.6513 N   0  0  0  0  0  0  0  0  0  0  0  0
   -8.7243    4.4001  -17.4621 C   0  0  0  0  0  0  0  0  0  0  0  0
  -10.2375    4.0283  -18.1996 Cl  0  0  0  0  0  0  0  0  0  0  0  0
   -8.7144    4.6618  -16.0928 C   0  0  0  0  0  0  0  0  0  0  0  0
   -7.5279    5.0372  -15.4523 C   0  0  0  0  0  0  0  0  0  0  0  0
   -7.5922    5.5689  -14.0699 C   0  0  0  0  0  0  0  0  0  0  0  0
   -7.1676    6.6488  -13.9182 O   0  0  0  0  0  0  0  0  0  0  0  0
   -8.2038    4.5754  -13.0460 N   0  0  0  0  0  0  0  0  0  0  0  0
   -8.3276    4.6655  -11.6540 C   0  0  0  0  0  0  0  0  0  0  0  0
   -7.9948    5.8458  -10.9947 C   0  0  0  0  0  0  0  0  0  0  0  0
   -8.0315    5.9190   -9.6003 C   0  0  0  0  0  0  0  0  0  0  0  0
   -8.4402    4.8224   -8.8344 C   0  0  0  0  0  0  0  0  0  0  0  0
   -8.8305    3.6446   -9.4872 C   0  0  0  0  0  0  0  0  0  0  0  0
   -8.7600    3.5709  -10.8993 C   0  0  0  0  0  0  0  0  0  0  0  0
   -9.4115    2.4929   -8.7049 C   0  0  0  0  0  0  0  0  0  0  0  0
   -9.2348    2.5486   -7.1883 C   0  0  0  0  0  0  0  0  0  0  0  0
   -9.3217    3.9517   -6.6139 C   0  0  0  0  0  0  0  0  0  0  0  0
   -8.3774    4.9098   -7.3306 C   0  0  0  0  0  0  0  0  0  0  0  0
   -6.3237    5.1453  -16.1990 C   0  0  0  0  0  0  0  0  0  0  0  0
  1  2  1  0
  2  3  1  0
  3  4  1  0
  4  5  2  0
  4  6  1  0
  6  7  2  0
  7  8  1  0
  8  9  1  0
  9 10  1  0
 10 11  1  0
 11 12  1  0
  8 13  1  0
 13 14  2  0
 14 15  1  0
 15 16  3  0
 14 17  1  0
 17 18  1  0
 17 19  2  0
 19 20  1  0
 20 21  1  0
 21 22  2  0
 21 23  1  0
 23 24  1  0
 24 25  2  0
 25 26  1  0
 26 27  2  0
 27 28  1  0
 28 29  2  0
 28 30  1  0
 30 31  1  0
 31 32  1  0
 32 33  1  0
 20 34  2  0
 34  6  1  0
 12  9  1  0
 34 13  1  0
 29 24  1  0
 33 27  1  0
M  END
>  <smiles>  (2386) 
C36937-P275

>  <fragmenstein_outcome>  (2386) 
acceptable

>  <inchikey>  (2386) 
AHJAKTVCUXZTMK-UHFFFAOYSA-N

>  <fragmenstein_mode>  (2386) 
expansion

>  <HIPPO Pose ID>  (2386) 
28128

>  <Energy>  (2386) 
99.441338

>  <fragmenstein_error>  (2386) 


>  <tags>  (2386) 
{'openbind_xx01zvns2b_c1_fragmenstein', 'fragmenstein_placed'}

>  <ref_pdb>  (2386) 
175

>  <scratch_subdir>  (2386) 
/opt/xchem-fragalysis-2/maxwin/BulkDock/SCRATCH/511028/C36937-P275

>  <alias>  (2386) 
CCOC(=O)c1nn(C2CNC2)c2c(C#N)c(Cl)cc(C(=O)Nc3ccc4c(c3)CCCC4)c12

>  <HIPPO Compound ID>  (2386) 
36937

>  <fragmenstein_runtime>  (2386) 
16.774589

$$$$
Nc1nn(C2CNC2)c2cc(Cl)cc(C(=O)Nc3ccc4c(c3)CCCC4)c12
     RDKit          3D

 28 32  0  0  0  0  0  0  0  0999 V2000
   -4.5911    6.1294  -14.8170 N   0  0  0  0  0  0  0  0  0  0  0  0
   -5.0916    5.7556  -16.0055 C   0  0  0  0  0  0  0  0  0  0  0  0
   -4.3703    5.7727  -17.1188 N   0  0  0  0  0  0  0  0  0  0  0  0
   -5.2253    5.3669  -18.0720 N   0  0  0  0  0  0  0  0  0  0  0  0
   -4.8564    5.2604  -19.4924 C   0  0  0  0  0  0  0  0  0  0  0  0
   -3.3510    5.3848  -19.8025 C   0  0  0  0  0  0  0  0  0  0  0  0
   -3.7276    6.2021  -20.9952 N   0  0  0  0  0  0  0  0  0  0  0  0
   -4.9517    6.6003  -20.2431 C   0  0  0  0  0  0  0  0  0  0  0  0
   -6.4813    5.0653  -17.5953 C   0  0  0  0  0  0  0  0  0  0  0  0
   -7.6501    4.6303  -18.2308 C   0  0  0  0  0  0  0  0  0  0  0  0
   -8.7771    4.4265  -17.4327 C   0  0  0  0  0  0  0  0  0  0  0  0
  -10.2522    4.0079  -18.2053 Cl  0  0  0  0  0  0  0  0  0  0  0  0
   -8.7562    4.6452  -16.0565 C   0  0  0  0  0  0  0  0  0  0  0  0
   -7.5905    5.1183  -15.4426 C   0  0  0  0  0  0  0  0  0  0  0  0
   -7.6143    5.6136  -14.0432 C   0  0  0  0  0  0  0  0  0  0  0  0
   -7.1742    6.6832  -13.8665 O   0  0  0  0  0  0  0  0  0  0  0  0
   -8.2095    4.5940  -13.0393 N   0  0  0  0  0  0  0  0  0  0  0  0
   -8.2967    4.6383  -11.6448 C   0  0  0  0  0  0  0  0  0  0  0  0
   -7.9757    5.8131  -10.9647 C   0  0  0  0  0  0  0  0  0  0  0  0
   -7.9479    5.8434   -9.5699 C   0  0  0  0  0  0  0  0  0  0  0  0
   -8.2483    4.6971   -8.8320 C   0  0  0  0  0  0  0  0  0  0  0  0
   -8.6216    3.5243   -9.5019 C   0  0  0  0  0  0  0  0  0  0  0  0
   -8.6439    3.5013  -10.9131 C   0  0  0  0  0  0  0  0  0  0  0  0
   -8.8928    2.2680   -8.7148 C   0  0  0  0  0  0  0  0  0  0  0  0
   -9.2682    2.4401   -7.2356 C   0  0  0  0  0  0  0  0  0  0  0  0
   -9.1627    3.8510   -6.6685 C   0  0  0  0  0  0  0  0  0  0  0  0
   -8.0838    4.6866   -7.3365 C   0  0  0  0  0  0  0  0  0  0  0  0
   -6.4251    5.3140  -16.2239 C   0  0  0  0  0  0  0  0  0  0  0  0
  1  2  1  0
  2  3  2  0
  3  4  1  0
  4  5  1  0
  5  6  1  0
  6  7  1  0
  7  8  1  0
  4  9  1  0
  9 10  2  0
 10 11  1  0
 11 12  1  0
 11 13  2  0
 13 14  1  0
 14 15  1  0
 15 16  2  0
 15 17  1  0
 17 18  1  0
 18 19  2  0
 19 20  1  0
 20 21  2  0
 21 22  1  0
 22 23  2  0
 22 24  1  0
 24 25  1  0
 25 26  1  0
 26 27  1  0
 14 28  2  0
 28  2  1  0
  8  5  1  0
 28  9  1  0
 23 18  1  0
 27 21  1  0
M  END
>  <smiles>  (2387) 
C36938-P275

>  <fragmenstein_outcome>  (2387) 
acceptable

>  <inchikey>  (2387) 
XQJWLRVAIIXSLQ-UHFFFAOYSA-N

>  <fragmenstein_mode>  (2387) 
expansion

>  <HIPPO Pose ID>  (2387) 
28129

>  <Energy>  (2387) 
12.825354

>  <fragmenstein_error>  (2387) 


>  <tags>  (2387) 
{'openbind_xx01zvns2b_c1_fragmenstein', 'fragmenstein_placed'}

>  <ref_pdb>  (2387) 
175

>  <scratch_subdir>  (2387) 
/opt/xchem-fragalysis-2/maxwin/BulkDock/SCRATCH/511028/C36938-P275

>  <alias>  (2387) 
Nc1nn(C2CNC2)c2cc(Cl)cc(C(=O)Nc3ccc4c(c3)CCCC4)c12

>  <HIPPO Compound ID>  (2387) 
36938

>  <fragmenstein_runtime>  (2387) 
14.16812

$$$$
Cc1cc2c(cc1NC(O)(O)c1cc(Cl)cc3c1cnn3C1CNC1)CCCC2
     RDKit          3D

 29 33  0  0  0  0  0  0  0  0999 V2000
   -8.0044    7.3591  -11.4000 C   0  0  0  0  0  0  0  0  0  0  0  0
   -8.2165    5.9714  -10.8491 C   0  0  0  0  0  0  0  0  0  0  0  0
   -8.2926    5.9508   -9.4399 C   0  0  0  0  0  0  0  0  0  0  0  0
   -8.5168    4.7863   -8.7157 C   0  0  0  0  0  0  0  0  0  0  0  0
   -8.6849    3.5925   -9.4136 C   0  0  0  0  0  0  0  0  0  0  0  0
   -8.6042    3.5912  -10.8251 C   0  0  0  0  0  0  0  0  0  0  0  0
   -8.3607    4.7634  -11.5812 C   0  0  0  0  0  0  0  0  0  0  0  0
   -8.3298    4.6176  -12.9926 N   0  0  0  0  0  0  0  0  0  0  0  0
   -7.4009    5.3171  -13.8432 C   0  0  0  0  0  0  0  0  0  0  0  0
   -6.1280    5.3188  -13.2642 O   0  0  0  0  0  0  0  0  0  0  0  0
   -7.9143    6.6116  -13.9934 O   0  0  0  0  0  0  0  0  0  0  0  0
   -7.3203    4.8856  -15.2989 C   0  0  0  0  0  0  0  0  0  0  0  0
   -8.4897    4.5338  -16.0137 C   0  0  0  0  0  0  0  0  0  0  0  0
   -8.5028    4.4716  -17.4061 C   0  0  0  0  0  0  0  0  0  0  0  0
   -9.9652    4.0743  -18.2247 Cl  0  0  0  0  0  0  0  0  0  0  0  0
   -7.3796    4.8042  -18.1654 C   0  0  0  0  0  0  0  0  0  0  0  0
   -6.1986    5.1136  -17.4802 C   0  0  0  0  0  0  0  0  0  0  0  0
   -6.1450    5.0949  -16.0809 C   0  0  0  0  0  0  0  0  0  0  0  0
   -4.7907    5.3828  -15.7887 C   0  0  0  0  0  0  0  0  0  0  0  0
   -4.0449    5.5589  -16.8753 N   0  0  0  0  0  0  0  0  0  0  0  0
   -4.9407    5.5325  -17.8825 N   0  0  0  0  0  0  0  0  0  0  0  0
   -4.5796    6.2791  -19.0969 C   0  0  0  0  0  0  0  0  0  0  0  0
   -3.3246    5.6978  -19.7831 C   0  0  0  0  0  0  0  0  0  0  0  0
   -3.9411    6.0908  -21.0749 N   0  0  0  0  0  0  0  0  0  0  0  0
   -5.2652    5.9553  -20.4149 C   0  0  0  0  0  0  0  0  0  0  0  0
   -8.9166    2.3097   -8.6639 C   0  0  0  0  0  0  0  0  0  0  0  0
   -9.4372    2.5115   -7.2401 C   0  0  0  0  0  0  0  0  0  0  0  0
   -8.6568    3.5740   -6.4850 C   0  0  0  0  0  0  0  0  0  0  0  0
   -8.6594    4.9010   -7.2199 C   0  0  0  0  0  0  0  0  0  0  0  0
  1  2  1  0
  2  3  2  0
  3  4  1  0
  4  5  2  0
  5  6  1  0
  6  7  2  0
  7  8  1  0
  8  9  1  0
  9 10  1  0
  9 11  1  0
  9 12  1  0
 12 13  2  0
 13 14  1  0
 14 15  1  0
 14 16  2  0
 16 17  1  0
 17 18  2  0
 18 19  1  0
 19 20  2  0
 20 21  1  0
 21 22  1  0
 22 23  1  0
 23 24  1  0
 24 25  1  0
  5 26  1  0
 26 27  1  0
 27 28  1  0
 28 29  1  0
  7  2  1  0
 18 12  1  0
 25 22  1  0
 29  4  1  0
 21 17  1  0
M  END
>  <smiles>  (2388) 
C36954-P275

>  <fragmenstein_outcome>  (2388) 
acceptable

>  <inchikey>  (2388) 
LNHFVGBVLPJPNX-UHFFFAOYSA-N

>  <fragmenstein_mode>  (2388) 
expansion

>  <HIPPO Pose ID>  (2388) 
28135

>  <Energy>  (2388) 
-46.112344

>  <fragmenstein_error>  (2388) 


>  <tags>  (2388) 
{'openbind_xx01zvns2b_c1_fragmenstein', 'fragmenstein_placed'}

>  <ref_pdb>  (2388) 
175

>  <scratch_subdir>  (2388) 
/opt/xchem-fragalysis-2/maxwin/BulkDock/SCRATCH/511028/C36954-P275

>  <alias>  (2388) 
Cc1cc2c(cc1NC(O)(O)c1cc(Cl)cc3c1cnn3C1CNC1)CCCC2

>  <HIPPO Compound ID>  (2388) 
36954

>  <fragmenstein_runtime>  (2388) 
14.64518

$$$$
CC(C)[C@H]1NC[C@@H]1n1ncc2c(C(=O)Nc3ccc4c(c3)CCCC4)cc(Cl)cc21
     RDKit          3D

 30 34  0  0  0  0  0  0  0  0999 V2000
   -4.9866    9.5106  -20.5776 C   0  0  0  0  0  0  0  0  0  0  0  0
   -4.3883    8.5568  -19.5433 C   0  0  0  0  0  0  0  0  0  0  0  0
   -4.5788    9.1409  -18.1430 C   0  0  0  0  0  0  0  0  0  0  0  0
   -5.0502    7.1719  -19.6276 C   0  0  1  0  0  0  0  0  0  0  0  0
   -4.6910    6.4445  -20.8793 N   0  0  0  0  0  0  0  0  0  0  0  0
   -4.5913    5.1868  -20.0912 C   0  0  0  0  0  0  0  0  0  0  0  0
   -4.3596    6.0293  -18.8567 C   0  0  2  0  0  0  0  0  0  0  0  0
   -5.0021    5.6477  -17.5888 N   0  0  0  0  0  0  0  0  0  0  0  0
   -4.2646    5.8695  -16.4769 N   0  0  0  0  0  0  0  0  0  0  0  0
   -5.1286    5.7419  -15.4788 C   0  0  0  0  0  0  0  0  0  0  0  0
   -6.4017    5.3286  -15.9132 C   0  0  0  0  0  0  0  0  0  0  0  0
   -7.6313    5.0763  -15.2636 C   0  0  0  0  0  0  0  0  0  0  0  0
   -7.7750    5.5527  -13.8638 C   0  0  0  0  0  0  0  0  0  0  0  0
   -7.4184    6.6502  -13.6730 O   0  0  0  0  0  0  0  0  0  0  0  0
   -8.3023    4.4830  -12.8765 N   0  0  0  0  0  0  0  0  0  0  0  0
   -8.4079    4.5074  -11.4793 C   0  0  0  0  0  0  0  0  0  0  0  0
   -8.1189    5.6809  -10.7825 C   0  0  0  0  0  0  0  0  0  0  0  0
   -8.1506    5.7099   -9.3862 C   0  0  0  0  0  0  0  0  0  0  0  0
   -8.4890    4.5669   -8.6551 C   0  0  0  0  0  0  0  0  0  0  0  0
   -8.8032    3.3863   -9.3402 C   0  0  0  0  0  0  0  0  0  0  0  0
   -8.7585    3.3651  -10.7563 C   0  0  0  0  0  0  0  0  0  0  0  0
   -9.1853    2.1369   -8.5820 C   0  0  0  0  0  0  0  0  0  0  0  0
   -9.2865    2.2340   -7.0556 C   0  0  0  0  0  0  0  0  0  0  0  0
   -9.4386    3.6412   -6.5097 C   0  0  0  0  0  0  0  0  0  0  0  0
   -8.4426    4.5967   -7.1502 C   0  0  0  0  0  0  0  0  0  0  0  0
   -8.7121    4.6135  -16.0105 C   0  0  0  0  0  0  0  0  0  0  0  0
   -8.5837    4.4879  -17.3947 C   0  0  0  0  0  0  0  0  0  0  0  0
   -9.9615    4.0135  -18.3132 Cl  0  0  0  0  0  0  0  0  0  0  0  0
   -7.3977    4.8199  -18.0748 C   0  0  0  0  0  0  0  0  0  0  0  0
   -6.2936    5.2264  -17.3068 C   0  0  0  0  0  0  0  0  0  0  0  0
  1  2  1  0
  2  3  1  0
  4  2  1  6
  4  5  1  0
  5  6  1  0
  6  7  1  0
  7  8  1  1
  8  9  1  0
  9 10  2  0
 10 11  1  0
 11 12  2  0
 12 13  1  0
 13 14  2  0
 13 15  1  0
 15 16  1  0
 16 17  2  0
 17 18  1  0
 18 19  2  0
 19 20  1  0
 20 21  2  0
 20 22  1  0
 22 23  1  0
 23 24  1  0
 24 25  1  0
 12 26  1  0
 26 27  2  0
 27 28  1  0
 27 29  1  0
 29 30  2  0
  7  4  1  0
 30  8  1  0
 30 11  1  0
 21 16  1  0
 25 19  1  0
M  END
>  <smiles>  (2389) 
C36880-P275

>  <fragmenstein_outcome>  (2389) 
acceptable

>  <inchikey>  (2389) 
XPSDLLFVZLUALB-UHFFFAOYSA-N

>  <fragmenstein_mode>  (2389) 
expansion

>  <HIPPO Pose ID>  (2389) 
28136

>  <Energy>  (2389) 
73.689426

>  <fragmenstein_error>  (2389) 


>  <tags>  (2389) 
{'openbind_xx01zvns2b_c1_fragmenstein', 'fragmenstein_placed'}

>  <ref_pdb>  (2389) 
175

>  <scratch_subdir>  (2389) 
/opt/xchem-fragalysis-2/maxwin/BulkDock/SCRATCH/511028/C36880-P275

>  <alias>  (2389) 
CC(C)[C@H]1NC[C@@H]1n1ncc2c(C(=O)Nc3ccc4c(c3)CCCC4)cc(Cl)cc21

>  <HIPPO Compound ID>  (2389) 
36880

>  <fragmenstein_runtime>  (2389) 
16.247413

$$$$
NCc1c(N)cc(Cl)cc1C(=O)Nc1ccc2c(c1)CC[C@@H](N)C2
     RDKit          3D

 24 26  0  0  0  0  0  0  0  0999 V2000
   -3.7658    5.4428  -16.3460 N   0  0  0  0  0  0  0  0  0  0  0  0
   -5.0029    5.7052  -15.5993 C   0  0  0  0  0  0  0  0  0  0  0  0
   -6.2874    5.2648  -16.2860 C   0  0  0  0  0  0  0  0  0  0  0  0
   -6.3996    5.1009  -17.6812 C   0  0  0  0  0  0  0  0  0  0  0  0
   -5.2926    5.2213  -18.5385 N   0  0  0  0  0  0  0  0  0  0  0  0
   -7.6040    4.6566  -18.2374 C   0  0  0  0  0  0  0  0  0  0  0  0
   -8.7242    4.4564  -17.4423 C   0  0  0  0  0  0  0  0  0  0  0  0
  -10.2167    4.0488  -18.1820 Cl  0  0  0  0  0  0  0  0  0  0  0  0
   -8.6675    4.6818  -16.0751 C   0  0  0  0  0  0  0  0  0  0  0  0
   -7.4649    5.1072  -15.5047 C   0  0  0  0  0  0  0  0  0  0  0  0
   -7.4938    5.5949  -14.0972 C   0  0  0  0  0  0  0  0  0  0  0  0
   -7.0093    6.6375  -13.8900 O   0  0  0  0  0  0  0  0  0  0  0  0
   -8.1534    4.5862  -13.1287 N   0  0  0  0  0  0  0  0  0  0  0  0
   -8.2656    4.6059  -11.7409 C   0  0  0  0  0  0  0  0  0  0  0  0
   -7.7778    5.6922  -11.0169 C   0  0  0  0  0  0  0  0  0  0  0  0
   -7.7894    5.6744   -9.6247 C   0  0  0  0  0  0  0  0  0  0  0  0
   -8.3195    4.5813   -8.9349 C   0  0  0  0  0  0  0  0  0  0  0  0
   -8.8890    3.5234   -9.6604 C   0  0  0  0  0  0  0  0  0  0  0  0
   -8.8387    3.5307  -11.0655 C   0  0  0  0  0  0  0  0  0  0  0  0
   -9.6390    2.4453   -8.9380 C   0  0  0  0  0  0  0  0  0  0  0  0
   -9.0778    2.1509   -7.5625 C   0  0  0  0  0  0  0  0  0  0  0  0
   -8.9561    3.4233   -6.7226 C   0  0  1  0  0  0  0  0  0  0  0  0
   -8.3168    3.1019   -5.4303 N   0  0  0  0  0  0  0  0  0  0  0  0
   -8.1581    4.5276   -7.4361 C   0  0  0  0  0  0  0  0  0  0  0  0
  1  2  1  0
  2  3  1  0
  3  4  2  0
  4  5  1  0
  4  6  1  0
  6  7  2  0
  7  8  1  0
  7  9  1  0
  9 10  2  0
 10 11  1  0
 11 12  2  0
 11 13  1  0
 13 14  1  0
 14 15  2  0
 15 16  1  0
 16 17  2  0
 17 18  1  0
 18 19  2  0
 18 20  1  0
 20 21  1  0
 21 22  1  0
 22 23  1  1
 22 24  1  0
 10  3  1  0
 19 14  1  0
 24 17  1  0
M  END
>  <smiles>  (2390) 
C36958-P275

>  <fragmenstein_outcome>  (2390) 
acceptable

>  <inchikey>  (2390) 
GRKFHXDGUVDZSM-UHFFFAOYSA-N

>  <fragmenstein_mode>  (2390) 
expansion

>  <HIPPO Pose ID>  (2390) 
28137

>  <Energy>  (2390) 
42.924696

>  <fragmenstein_error>  (2390) 


>  <tags>  (2390) 
{'openbind_xx01zvns2b_c1_fragmenstein', 'fragmenstein_placed'}

>  <ref_pdb>  (2390) 
175

>  <scratch_subdir>  (2390) 
/opt/xchem-fragalysis-2/maxwin/BulkDock/SCRATCH/511028/C36958-P275

>  <alias>  (2390) 
NCc1c(N)cc(Cl)cc1C(=O)Nc1ccc2c(c1)CC[C@@H](N)C2

>  <HIPPO Compound ID>  (2390) 
36958

>  <fragmenstein_runtime>  (2390) 
5.875759

$$$$
N[C@H]1CCCc2ccc(NC(=O)c3cc(Cl)cc4c(C5CNC5)n(CN5CCCC5)cc34)cc21
     RDKit          3D

 34 39  0  0  0  0  0  0  0  0999 V2000
   -7.1873    7.9097   -9.3143 N   0  0  0  0  0  0  0  0  0  0  0  0
   -7.4013    6.6522   -8.5985 C   0  0  1  0  0  0  0  0  0  0  0  0
   -8.4332    6.8583   -7.4877 C   0  0  0  0  0  0  0  0  0  0  0  0
   -8.7310    5.5690   -6.6944 C   0  0  0  0  0  0  0  0  0  0  0  0
   -8.2344    4.2682   -7.3315 C   0  0  0  0  0  0  0  0  0  0  0  0
   -8.2806    4.3253   -8.8335 C   0  0  0  0  0  0  0  0  0  0  0  0
   -8.6602    3.2162   -9.5942 C   0  0  0  0  0  0  0  0  0  0  0  0
   -8.6295    3.2793  -10.9903 C   0  0  0  0  0  0  0  0  0  0  0  0
   -8.2036    4.4394  -11.6306 C   0  0  0  0  0  0  0  0  0  0  0  0
   -8.0919    4.4744  -13.0183 N   0  0  0  0  0  0  0  0  0  0  0  0
   -7.5887    5.5961  -13.9579 C   0  0  0  0  0  0  0  0  0  0  0  0
   -7.2621    6.6926  -13.7211 O   0  0  0  0  0  0  0  0  0  0  0  0
   -7.5265    5.1607  -15.3610 C   0  0  0  0  0  0  0  0  0  0  0  0
   -8.6248    4.6196  -16.0588 C   0  0  0  0  0  0  0  0  0  0  0  0
   -8.6130    4.4186  -17.4780 C   0  0  0  0  0  0  0  0  0  0  0  0
  -10.0808    3.9109  -18.2272 Cl  0  0  0  0  0  0  0  0  0  0  0  0
   -7.5200    4.6966  -18.3302 C   0  0  0  0  0  0  0  0  0  0  0  0
   -6.4497    5.2283  -17.6195 C   0  0  0  0  0  0  0  0  0  0  0  0
   -5.2533    5.6920  -18.1304 C   0  0  0  0  0  0  0  0  0  0  0  0
   -4.8595    5.6311  -19.6580 C   0  0  0  0  0  0  0  0  0  0  0  0
   -3.3839    5.3928  -20.0156 C   0  0  0  0  0  0  0  0  0  0  0  0
   -3.3881    6.5959  -20.8599 N   0  0  0  0  0  0  0  0  0  0  0  0
   -4.7145    6.9892  -20.3595 C   0  0  0  0  0  0  0  0  0  0  0  0
   -4.5493    6.2343  -17.0595 N   0  0  0  0  0  0  0  0  0  0  0  0
   -3.2589    6.9343  -17.0935 C   0  0  0  0  0  0  0  0  0  0  0  0
   -3.2910    8.1027  -16.2116 N   0  0  0  0  0  0  0  0  0  0  0  0
   -1.9733    8.7172  -16.0671 C   0  0  0  0  0  0  0  0  0  0  0  0
   -2.2889   10.0670  -15.4408 C   0  0  0  0  0  0  0  0  0  0  0  0
   -3.7294   10.3656  -15.8420 C   0  0  0  0  0  0  0  0  0  0  0  0
   -4.1603    9.1784  -16.6903 C   0  0  0  0  0  0  0  0  0  0  0  0
   -5.2494    6.0032  -15.8851 C   0  0  0  0  0  0  0  0  0  0  0  0
   -6.4547    5.4454  -16.2136 C   0  0  0  0  0  0  0  0  0  0  0  0
   -7.8343    5.5487  -10.8712 C   0  0  0  0  0  0  0  0  0  0  0  0
   -7.8590    5.5059   -9.4734 C   0  0  0  0  0  0  0  0  0  0  0  0
  2  1  1  6
  2  3  1  0
  3  4  1  0
  4  5  1  0
  5  6  1  0
  6  7  2  0
  7  8  1  0
  8  9  2  0
  9 10  1  0
 10 11  1  0
 11 12  2  0
 11 13  1  0
 13 14  2  0
 14 15  1  0
 15 16  1  0
 15 17  2  0
 17 18  1  0
 18 19  2  0
 19 20  1  0
 20 21  1  0
 21 22  1  0
 22 23  1  0
 19 24  1  0
 24 25  1  0
 25 26  1  0
 26 27  1  0
 27 28  1  0
 28 29  1  0
 29 30  1  0
 24 31  1  0
 31 32  2  0
  9 33  1  0
 33 34  2  0
 34  2  1  0
 34  6  1  0
 32 13  1  0
 32 18  1  0
 23 20  1  0
 30 26  1  0
M  END
>  <smiles>  (2391) 
C36961-P275

>  <fragmenstein_outcome>  (2391) 
acceptable

>  <inchikey>  (2391) 
YWDJFHSZXKAIPJ-UHFFFAOYSA-N

>  <fragmenstein_mode>  (2391) 
expansion

>  <HIPPO Pose ID>  (2391) 
28138

>  <Energy>  (2391) 
104.796744

>  <fragmenstein_error>  (2391) 


>  <tags>  (2391) 
{'openbind_xx01zvns2b_c1_fragmenstein', 'fragmenstein_placed'}

>  <ref_pdb>  (2391) 
175

>  <scratch_subdir>  (2391) 
/opt/xchem-fragalysis-2/maxwin/BulkDock/SCRATCH/511028/C36961-P275

>  <alias>  (2391) 
N[C@H]1CCCc2ccc(NC(=O)c3cc(Cl)cc4c(C5CNC5)n(CN5CCCC5)cc34)cc21

>  <HIPPO Compound ID>  (2391) 
36961

>  <fragmenstein_runtime>  (2391) 
7.085505

$$$$
CC(C)c1cc2c(C(=O)Nc3ccc4c(c3)[C@H](N)CCC4)cc(Cl)cc2n1C1CNC1
     RDKit          3D

 31 35  0  0  0  0  0  0  0  0999 V2000
   -2.9828    8.0087  -17.7494 C   0  0  0  0  0  0  0  0  0  0  0  0
   -3.1213    6.7653  -16.8791 C   0  0  0  0  0  0  0  0  0  0  0  0
   -1.9290    5.8173  -16.8855 C   0  0  0  0  0  0  0  0  0  0  0  0
   -4.4544    6.0542  -16.9498 C   0  0  0  0  0  0  0  0  0  0  0  0
   -5.2409    5.8751  -15.8212 C   0  0  0  0  0  0  0  0  0  0  0  0
   -6.4889    5.3277  -16.1811 C   0  0  0  0  0  0  0  0  0  0  0  0
   -7.6830    5.0677  -15.4631 C   0  0  0  0  0  0  0  0  0  0  0  0
   -7.8197    5.6425  -14.1031 C   0  0  0  0  0  0  0  0  0  0  0  0
   -7.5619    6.7796  -14.0103 O   0  0  0  0  0  0  0  0  0  0  0  0
   -8.2567    4.6206  -13.0234 N   0  0  0  0  0  0  0  0  0  0  0  0
   -8.3714    4.7583  -11.6357 C   0  0  0  0  0  0  0  0  0  0  0  0
   -8.2771    6.0393  -11.0935 C   0  0  0  0  0  0  0  0  0  0  0  0
   -8.3004    6.2355   -9.7191 C   0  0  0  0  0  0  0  0  0  0  0  0
   -8.3933    5.1471   -8.8496 C   0  0  0  0  0  0  0  0  0  0  0  0
   -8.5324    3.8415   -9.3683 C   0  0  0  0  0  0  0  0  0  0  0  0
   -8.5222    3.6621  -10.7784 C   0  0  0  0  0  0  0  0  0  0  0  0
   -8.5242    2.6609   -8.4048 C   0  0  2  0  0  0  0  0  0  0  0  0
   -9.4864    1.6214   -8.7280 N   0  0  0  0  0  0  0  0  0  0  0  0
   -8.7831    3.0333   -6.9368 C   0  0  0  0  0  0  0  0  0  0  0  0
   -7.9522    4.2370   -6.5363 C   0  0  0  0  0  0  0  0  0  0  0  0
   -8.3779    5.4326   -7.3691 C   0  0  0  0  0  0  0  0  0  0  0  0
   -8.7943    4.5563  -16.1281 C   0  0  0  0  0  0  0  0  0  0  0  0
   -8.7325    4.3677  -17.5039 C   0  0  0  0  0  0  0  0  0  0  0  0
  -10.1637    3.9292  -18.3448 Cl  0  0  0  0  0  0  0  0  0  0  0  0
   -7.5697    4.6291  -18.2414 C   0  0  0  0  0  0  0  0  0  0  0  0
   -6.4382    5.1127  -17.5572 C   0  0  0  0  0  0  0  0  0  0  0  0
   -5.1731    5.5095  -18.0080 N   0  0  0  0  0  0  0  0  0  0  0  0
   -4.8488    5.3547  -19.4495 C   0  0  0  0  0  0  0  0  0  0  0  0
   -3.4101    5.3809  -19.9646 C   0  0  0  0  0  0  0  0  0  0  0  0
   -3.8798    6.2032  -21.1121 N   0  0  0  0  0  0  0  0  0  0  0  0
   -5.0245    6.6395  -20.2711 C   0  0  0  0  0  0  0  0  0  0  0  0
  1  2  1  0
  2  3  1  0
  2  4  1  0
  4  5  2  0
  5  6  1  0
  6  7  2  0
  7  8  1  0
  8  9  2  0
  8 10  1  0
 10 11  1  0
 11 12  2  0
 12 13  1  0
 13 14  2  0
 14 15  1  0
 15 16  2  0
 15 17  1  0
 17 18  1  6
 17 19  1  0
 19 20  1  0
 20 21  1  0
  7 22  1  0
 22 23  2  0
 23 24  1  0
 23 25  1  0
 25 26  2  0
 26 27  1  0
 27 28  1  0
 28 29  1  0
 29 30  1  0
 30 31  1  0
 27  4  1  0
 31 28  1  0
 26  6  1  0
 16 11  1  0
 21 14  1  0
M  END
>  <smiles>  (2392) 
C36962-P275

>  <fragmenstein_outcome>  (2392) 
acceptable

>  <inchikey>  (2392) 
TWFJLZASZQAOJE-UHFFFAOYSA-N

>  <fragmenstein_mode>  (2392) 
expansion

>  <HIPPO Pose ID>  (2392) 
28139

>  <Energy>  (2392) 
86.215722

>  <fragmenstein_error>  (2392) 


>  <tags>  (2392) 
{'openbind_xx01zvns2b_c1_fragmenstein', 'fragmenstein_placed'}

>  <ref_pdb>  (2392) 
175

>  <scratch_subdir>  (2392) 
/opt/xchem-fragalysis-2/maxwin/BulkDock/SCRATCH/511028/C36962-P275

>  <alias>  (2392) 
CC(C)c1cc2c(C(=O)Nc3ccc4c(c3)[C@H](N)CCC4)cc(Cl)cc2n1C1CNC1

>  <HIPPO Compound ID>  (2392) 
35692

>  <fragmenstein_runtime>  (2392) 
19.709935

$$$$
N#C[C@@](O)(Nc1ccc2c(c1)CCCC2)c1cc(Cl)cc2c1cnn2C1CNC1
     RDKit          3D

 29 33  0  0  0  0  0  0  0  0999 V2000
   -6.6492    7.3168  -13.2431 N   0  0  0  0  0  0  0  0  0  0  0  0
   -6.9577    6.2034  -13.3958 C   0  0  0  0  0  0  0  0  0  0  0  0
   -7.3400    4.7699  -13.6534 C   0  0  1  0  0  0  0  0  0  0  0  0
   -6.3032    3.8802  -13.2452 O   0  0  0  0  0  0  0  0  0  0  0  0
   -8.5645    4.3432  -12.9575 N   0  0  0  0  0  0  0  0  0  0  0  0
   -8.5941    4.4191  -11.5443 C   0  0  0  0  0  0  0  0  0  0  0  0
   -8.4431    5.6290  -10.8613 C   0  0  0  0  0  0  0  0  0  0  0  0
   -8.4265    5.6889   -9.4651 C   0  0  0  0  0  0  0  0  0  0  0  0
   -8.6153    4.5398   -8.6958 C   0  0  0  0  0  0  0  0  0  0  0  0
   -8.8246    3.3207   -9.3506 C   0  0  0  0  0  0  0  0  0  0  0  0
   -8.7862    3.2686  -10.7646 C   0  0  0  0  0  0  0  0  0  0  0  0
   -9.0684    2.0634   -8.5523 C   0  0  0  0  0  0  0  0  0  0  0  0
   -9.6023    2.3264   -7.1460 C   0  0  0  0  0  0  0  0  0  0  0  0
   -8.7839    3.3769   -6.4174 C   0  0  0  0  0  0  0  0  0  0  0  0
   -8.7047    4.6816   -7.1972 C   0  0  0  0  0  0  0  0  0  0  0  0
   -7.4258    4.6433  -15.1850 C   0  0  0  0  0  0  0  0  0  0  0  0
   -8.6330    4.4437  -15.8879 C   0  0  0  0  0  0  0  0  0  0  0  0
   -8.6818    4.4728  -17.2839 C   0  0  0  0  0  0  0  0  0  0  0  0
  -10.1713    4.1597  -18.0887 Cl  0  0  0  0  0  0  0  0  0  0  0  0
   -7.5637    4.8032  -18.0545 C   0  0  0  0  0  0  0  0  0  0  0  0
   -6.3532    5.0008  -17.3803 C   0  0  0  0  0  0  0  0  0  0  0  0
   -6.2677    4.8582  -15.9915 C   0  0  0  0  0  0  0  0  0  0  0  0
   -4.8911    5.0162  -15.7086 C   0  0  0  0  0  0  0  0  0  0  0  0
   -4.1651    5.2717  -16.7894 N   0  0  0  0  0  0  0  0  0  0  0  0
   -5.0770    5.3658  -17.7803 N   0  0  0  0  0  0  0  0  0  0  0  0
   -4.6917    6.1647  -18.9551 C   0  0  0  0  0  0  0  0  0  0  0  0
   -3.4260    5.6095  -19.6463 C   0  0  0  0  0  0  0  0  0  0  0  0
   -4.0282    6.0334  -20.9333 N   0  0  0  0  0  0  0  0  0  0  0  0
   -5.3596    5.8913  -20.2934 C   0  0  0  0  0  0  0  0  0  0  0  0
  1  2  3  0
  2  3  1  0
  3  4  1  1
  3  5  1  0
  5  6  1  0
  6  7  2  0
  7  8  1  0
  8  9  2  0
  9 10  1  0
 10 11  2  0
 10 12  1  0
 12 13  1  0
 13 14  1  0
 14 15  1  0
  3 16  1  0
 16 17  2  0
 17 18  1  0
 18 19  1  0
 18 20  2  0
 20 21  1  0
 21 22  2  0
 22 23  1  0
 23 24  2  0
 24 25  1  0
 25 26  1  0
 26 27  1  0
 27 28  1  0
 28 29  1  0
 11  6  1  0
 22 16  1  0
 29 26  1  0
 15  9  1  0
 25 21  1  0
M  END
>  <smiles>  (2393) 
C36964-P275

>  <fragmenstein_outcome>  (2393) 
acceptable

>  <inchikey>  (2393) 
LQGMBNUFGVXGBZ-UHFFFAOYSA-N

>  <fragmenstein_mode>  (2393) 
expansion

>  <HIPPO Pose ID>  (2393) 
28141

>  <Energy>  (2393) 
78.315849

>  <fragmenstein_error>  (2393) 


>  <tags>  (2393) 
{'openbind_xx01zvns2b_c1_fragmenstein', 'fragmenstein_placed'}

>  <ref_pdb>  (2393) 
175

>  <scratch_subdir>  (2393) 
/opt/xchem-fragalysis-2/maxwin/BulkDock/SCRATCH/511028/C36964-P275

>  <alias>  (2393) 
N#C[C@@](O)(Nc1ccc2c(c1)CCCC2)c1cc(Cl)cc2c1cnn2C1CNC1

>  <HIPPO Compound ID>  (2393) 
36964

>  <fragmenstein_runtime>  (2393) 
9.41582

$$$$
O=C(NCC(F)F)[C@@](O)(Nc1ccc2c(c1)CCCC2)c1cc(Cl)cc2c1cnn2C1CNC1
     RDKit          3D

 34 38  0  0  0  0  0  0  0  0999 V2000
   -6.5422    7.5148  -13.6266 O   0  0  0  0  0  0  0  0  0  0  0  0
   -7.4703    6.8128  -13.4908 C   0  0  0  0  0  0  0  0  0  0  0  0
   -8.9323    7.1436  -13.0593 N   0  0  0  0  0  0  0  0  0  0  0  0
   -9.5254    8.3958  -12.6136 C   0  0  0  0  0  0  0  0  0  0  0  0
  -10.8844    8.7544  -13.2206 C   0  0  0  0  0  0  0  0  0  0  0  0
  -10.7232    9.5163  -14.3309 F   0  0  0  0  0  0  0  0  0  0  0  0
  -11.5433    7.6282  -13.5943 F   0  0  0  0  0  0  0  0  0  0  0  0
   -7.3729    5.1861  -13.6744 C   0  0  1  0  0  0  0  0  0  0  0  0
   -6.1202    4.6412  -13.3065 O   0  0  0  0  0  0  0  0  0  0  0  0
   -8.3943    4.4759  -12.8641 N   0  0  0  0  0  0  0  0  0  0  0  0
   -8.3096    4.4238  -11.4489 C   0  0  0  0  0  0  0  0  0  0  0  0
   -7.8677    5.4937  -10.6602 C   0  0  0  0  0  0  0  0  0  0  0  0
   -7.9434    5.4725   -9.2629 C   0  0  0  0  0  0  0  0  0  0  0  0
   -8.4423    4.3613   -8.5874 C   0  0  0  0  0  0  0  0  0  0  0  0
   -8.8577    3.2579   -9.3372 C   0  0  0  0  0  0  0  0  0  0  0  0
   -8.8058    3.3074  -10.7541 C   0  0  0  0  0  0  0  0  0  0  0  0
   -9.2931    1.9996   -8.6293 C   0  0  0  0  0  0  0  0  0  0  0  0
   -9.8469    2.2356   -7.2277 C   0  0  0  0  0  0  0  0  0  0  0  0
   -8.9326    3.1122   -6.3950 C   0  0  0  0  0  0  0  0  0  0  0  0
   -8.6020    4.4277   -7.0896 C   0  0  0  0  0  0  0  0  0  0  0  0
   -7.5014    4.9283  -15.1926 C   0  0  0  0  0  0  0  0  0  0  0  0
   -8.7271    4.5954  -15.8208 C   0  0  0  0  0  0  0  0  0  0  0  0
   -8.8387    4.4621  -17.2125 C   0  0  0  0  0  0  0  0  0  0  0  0
  -10.3544    4.1318  -17.9585 Cl  0  0  0  0  0  0  0  0  0  0  0  0
   -7.7516    4.6619  -18.0580 C   0  0  0  0  0  0  0  0  0  0  0  0
   -6.5369    4.9918  -17.4581 C   0  0  0  0  0  0  0  0  0  0  0  0
   -6.3960    5.1207  -16.0760 C   0  0  0  0  0  0  0  0  0  0  0  0
   -5.0312    5.4656  -15.9112 C   0  0  0  0  0  0  0  0  0  0  0  0
   -4.3602    5.5318  -17.0600 N   0  0  0  0  0  0  0  0  0  0  0  0
   -5.2917    5.2590  -17.9892 N   0  0  0  0  0  0  0  0  0  0  0  0
   -4.9885    5.2331  -19.4302 C   0  0  0  0  0  0  0  0  0  0  0  0
   -3.4896    5.3483  -19.7906 C   0  0  0  0  0  0  0  0  0  0  0  0
   -3.8948    6.2335  -20.9243 N   0  0  0  0  0  0  0  0  0  0  0  0
   -5.0737    6.6194  -20.0944 C   0  0  0  0  0  0  0  0  0  0  0  0
  1  2  2  0
  2  3  1  0
  3  4  1  0
  4  5  1  0
  5  6  1  0
  5  7  1  0
  2  8  1  0
  8  9  1  1
  8 10  1  0
 10 11  1  0
 11 12  2  0
 12 13  1  0
 13 14  2  0
 14 15  1  0
 15 16  2  0
 15 17  1  0
 17 18  1  0
 18 19  1  0
 19 20  1  0
  8 21  1  0
 21 22  2  0
 22 23  1  0
 23 24  1  0
 23 25  2  0
 25 26  1  0
 26 27  2  0
 27 28  1  0
 28 29  2  0
 29 30  1  0
 30 31  1  0
 31 32  1  0
 32 33  1  0
 33 34  1  0
 16 11  1  0
 27 21  1  0
 34 31  1  0
 20 14  1  0
 30 26  1  0
M  END
>  <smiles>  (2394) 
C36966-P275

>  <fragmenstein_outcome>  (2394) 
acceptable

>  <inchikey>  (2394) 
CARATKHTGAMMPP-UHFFFAOYSA-N

>  <fragmenstein_mode>  (2394) 
expansion

>  <HIPPO Pose ID>  (2394) 
28143

>  <Energy>  (2394) 
137.428666

>  <fragmenstein_error>  (2394) 


>  <tags>  (2394) 
{'openbind_xx01zvns2b_c1_fragmenstein', 'fragmenstein_placed'}

>  <ref_pdb>  (2394) 
175

>  <scratch_subdir>  (2394) 
/opt/xchem-fragalysis-2/maxwin/BulkDock/SCRATCH/511028/C36966-P275

>  <alias>  (2394) 
O=C(NCC(F)F)[C@@](O)(Nc1ccc2c(c1)CCCC2)c1cc(Cl)cc2c1cnn2C1CNC1

>  <HIPPO Compound ID>  (2394) 
35060

>  <fragmenstein_runtime>  (2394) 
11.688453

$$$$
CNC(=O)[C@@](O)(Nc1ccc2c(c1)CCCC2)c1cc(Cl)cc2c1cnn2C1CNC1
     RDKit          3D

 31 35  0  0  0  0  0  0  0  0999 V2000
   -4.7957    7.3657  -11.6945 C   0  0  0  0  0  0  0  0  0  0  0  0
   -5.5107    6.3205  -12.3610 N   0  0  0  0  0  0  0  0  0  0  0  0
   -6.7985    6.3763  -13.2447 C   0  0  0  0  0  0  0  0  0  0  0  0
   -7.4211    7.2953  -13.6220 O   0  0  0  0  0  0  0  0  0  0  0  0
   -7.1686    4.8319  -13.5917 C   0  0  1  0  0  0  0  0  0  0  0  0
   -6.1548    3.9251  -13.1801 O   0  0  0  0  0  0  0  0  0  0  0  0
   -8.4103    4.4011  -12.9198 N   0  0  0  0  0  0  0  0  0  0  0  0
   -8.5055    4.4655  -11.5141 C   0  0  0  0  0  0  0  0  0  0  0  0
   -8.3809    5.6648  -10.8108 C   0  0  0  0  0  0  0  0  0  0  0  0
   -8.4111    5.7057   -9.4134 C   0  0  0  0  0  0  0  0  0  0  0  0
   -8.6162    4.5449   -8.6651 C   0  0  0  0  0  0  0  0  0  0  0  0
   -8.8055    3.3353   -9.3428 C   0  0  0  0  0  0  0  0  0  0  0  0
   -8.7236    3.3043  -10.7555 C   0  0  0  0  0  0  0  0  0  0  0  0
   -9.0719    2.0654   -8.5721 C   0  0  0  0  0  0  0  0  0  0  0  0
   -9.6243    2.3028   -7.1684 C   0  0  0  0  0  0  0  0  0  0  0  0
   -8.8173    3.3420   -6.4117 C   0  0  0  0  0  0  0  0  0  0  0  0
   -8.7407    4.6614   -7.1669 C   0  0  0  0  0  0  0  0  0  0  0  0
   -7.2261    4.7420  -15.1254 C   0  0  0  0  0  0  0  0  0  0  0  0
   -8.4064    4.4499  -15.8481 C   0  0  0  0  0  0  0  0  0  0  0  0
   -8.4366    4.4561  -17.2468 C   0  0  0  0  0  0  0  0  0  0  0  0
   -9.8830    4.0314  -18.0805 Cl  0  0  0  0  0  0  0  0  0  0  0  0
   -7.3293    4.8348  -18.0047 C   0  0  0  0  0  0  0  0  0  0  0  0
   -6.1612    5.1479  -17.3065 C   0  0  0  0  0  0  0  0  0  0  0  0
   -6.0830    5.0587  -15.9154 C   0  0  0  0  0  0  0  0  0  0  0  0
   -4.7376    5.3854  -15.6289 C   0  0  0  0  0  0  0  0  0  0  0  0
   -4.0413    5.7326  -16.7066 N   0  0  0  0  0  0  0  0  0  0  0  0
   -4.9294    5.6194  -17.7136 N   0  0  0  0  0  0  0  0  0  0  0  0
   -4.6593    6.2909  -18.9957 C   0  0  0  0  0  0  0  0  0  0  0  0
   -3.1645    6.2392  -19.3819 C   0  0  0  0  0  0  0  0  0  0  0  0
   -3.5780    5.9946  -20.7789 N   0  0  0  0  0  0  0  0  0  0  0  0
   -4.8580    5.4510  -20.2525 C   0  0  0  0  0  0  0  0  0  0  0  0
  1  2  1  0
  2  3  1  0
  3  4  2  0
  3  5  1  0
  5  6  1  1
  5  7  1  0
  7  8  1  0
  8  9  2  0
  9 10  1  0
 10 11  2  0
 11 12  1  0
 12 13  2  0
 12 14  1  0
 14 15  1  0
 15 16  1  0
 16 17  1  0
  5 18  1  0
 18 19  2  0
 19 20  1  0
 20 21  1  0
 20 22  2  0
 22 23  1  0
 23 24  2  0
 24 25  1  0
 25 26  2  0
 26 27  1  0
 27 28  1  0
 28 29  1  0
 29 30  1  0
 30 31  1  0
 13  8  1  0
 24 18  1  0
 31 28  1  0
 17 11  1  0
 27 23  1  0
M  END
>  <smiles>  (2395) 
C36967-P275

>  <fragmenstein_outcome>  (2395) 
acceptable

>  <inchikey>  (2395) 
HQYSVVWCCIJIHZ-UHFFFAOYSA-N

>  <fragmenstein_mode>  (2395) 
expansion

>  <HIPPO Pose ID>  (2395) 
28144

>  <Energy>  (2395) 
108.836561

>  <fragmenstein_error>  (2395) 


>  <tags>  (2395) 
{'openbind_xx01zvns2b_c1_fragmenstein', 'fragmenstein_placed'}

>  <ref_pdb>  (2395) 
175

>  <scratch_subdir>  (2395) 
/opt/xchem-fragalysis-2/maxwin/BulkDock/SCRATCH/511028/C36967-P275

>  <alias>  (2395) 
CNC(=O)[C@@](O)(Nc1ccc2c(c1)CCCC2)c1cc(Cl)cc2c1cnn2C1CNC1

>  <HIPPO Compound ID>  (2395) 
36967

>  <fragmenstein_runtime>  (2395) 
11.29666

$$$$
O=C(Nc1ccc2c(c1)CCCC2)c1cc(Cl)cc2c1cnn2C1(NO)CNC1
     RDKit          3D

 29 33  0  0  0  0  0  0  0  0999 V2000
   -7.2663    6.6000  -13.6749 O   0  0  0  0  0  0  0  0  0  0  0  0
   -7.6608    5.5173  -13.8719 C   0  0  0  0  0  0  0  0  0  0  0  0
   -8.1494    4.4331  -12.8832 N   0  0  0  0  0  0  0  0  0  0  0  0
   -8.3382    4.4854  -11.4992 C   0  0  0  0  0  0  0  0  0  0  0  0
   -8.1353    5.6834  -10.8147 C   0  0  0  0  0  0  0  0  0  0  0  0
   -8.2599    5.7401   -9.4258 C   0  0  0  0  0  0  0  0  0  0  0  0
   -8.5793    4.5945   -8.6884 C   0  0  0  0  0  0  0  0  0  0  0  0
   -8.8075    3.3882   -9.3691 C   0  0  0  0  0  0  0  0  0  0  0  0
   -8.6813    3.3424  -10.7766 C   0  0  0  0  0  0  0  0  0  0  0  0
   -9.1150    2.1246   -8.6014 C   0  0  0  0  0  0  0  0  0  0  0  0
   -9.6424    2.3648   -7.1886 C   0  0  0  0  0  0  0  0  0  0  0  0
   -8.8130    3.3930   -6.4409 C   0  0  0  0  0  0  0  0  0  0  0  0
   -8.7341    4.7145   -7.1926 C   0  0  0  0  0  0  0  0  0  0  0  0
   -7.5975    5.0599  -15.2828 C   0  0  0  0  0  0  0  0  0  0  0  0
   -8.7187    4.5794  -15.9648 C   0  0  0  0  0  0  0  0  0  0  0  0
   -8.6800    4.4515  -17.3554 C   0  0  0  0  0  0  0  0  0  0  0  0
  -10.1018    3.9842  -18.2036 Cl  0  0  0  0  0  0  0  0  0  0  0  0
   -7.5485    4.7977  -18.1057 C   0  0  0  0  0  0  0  0  0  0  0  0
   -6.4281    5.2574  -17.4021 C   0  0  0  0  0  0  0  0  0  0  0  0
   -6.4245    5.3557  -16.0113 C   0  0  0  0  0  0  0  0  0  0  0  0
   -5.1329    5.8251  -15.6890 C   0  0  0  0  0  0  0  0  0  0  0  0
   -4.3733    6.0273  -16.7628 N   0  0  0  0  0  0  0  0  0  0  0  0
   -5.2152    5.7927  -17.7969 N   0  0  0  0  0  0  0  0  0  0  0  0
   -4.9561    6.3942  -19.1296 C   0  0  0  0  0  0  0  0  0  0  0  0
   -5.7788    7.5563  -19.5658 N   0  0  0  0  0  0  0  0  0  0  0  0
   -5.8004    8.5101  -18.4720 O   0  0  0  0  0  0  0  0  0  0  0  0
   -3.4536    6.6262  -19.4394 C   0  0  0  0  0  0  0  0  0  0  0  0
   -3.6851    6.1064  -20.8050 N   0  0  0  0  0  0  0  0  0  0  0  0
   -4.8759    5.3865  -20.2819 C   0  0  0  0  0  0  0  0  0  0  0  0
  1  2  2  0
  2  3  1  0
  3  4  1  0
  4  5  2  0
  5  6  1  0
  6  7  2  0
  7  8  1  0
  8  9  2  0
  8 10  1  0
 10 11  1  0
 11 12  1  0
 12 13  1  0
  2 14  1  0
 14 15  2  0
 15 16  1  0
 16 17  1  0
 16 18  2  0
 18 19  1  0
 19 20  2  0
 20 21  1  0
 21 22  2  0
 22 23  1  0
 23 24  1  0
 24 25  1  0
 25 26  1  0
 24 27  1  0
 27 28  1  0
 28 29  1  0
  9  4  1  0
 20 14  1  0
 29 24  1  0
 13  7  1  0
 23 19  1  0
M  END
>  <smiles>  (2396) 
C36968-P275

>  <fragmenstein_outcome>  (2396) 
acceptable

>  <inchikey>  (2396) 
LWLDJYSCOBMASV-UHFFFAOYSA-N

>  <fragmenstein_mode>  (2396) 
expansion

>  <HIPPO Pose ID>  (2396) 
28145

>  <Energy>  (2396) 
152.126689

>  <fragmenstein_error>  (2396) 


>  <tags>  (2396) 
{'openbind_xx01zvns2b_c1_fragmenstein', 'fragmenstein_placed'}

>  <ref_pdb>  (2396) 
175

>  <scratch_subdir>  (2396) 
/opt/xchem-fragalysis-2/maxwin/BulkDock/SCRATCH/511028/C36968-P275

>  <alias>  (2396) 
O=C(Nc1ccc2c(c1)CCCC2)c1cc(Cl)cc2c1cnn2C1(NO)CNC1

>  <HIPPO Compound ID>  (2396) 
36968

>  <fragmenstein_runtime>  (2396) 
14.374564

$$$$
O=C(Nc1ccc2c(c1)CCCC2)[C@@H]1CC2=C(NCS2)c2c1cnn2C1CNC1
     RDKit          3D

 29 34  0  0  0  0  0  0  0  0999 V2000
   -6.6043    6.7750  -13.1840 O   0  0  0  0  0  0  0  0  0  0  0  0
   -7.2064    5.8148  -13.4917 C   0  0  0  0  0  0  0  0  0  0  0  0
   -7.9011    4.7293  -12.6078 N   0  0  0  0  0  0  0  0  0  0  0  0
   -8.0698    4.6601  -11.2279 C   0  0  0  0  0  0  0  0  0  0  0  0
   -7.7995    5.7761  -10.4415 C   0  0  0  0  0  0  0  0  0  0  0  0
   -8.0221    5.7375   -9.0665 C   0  0  0  0  0  0  0  0  0  0  0  0
   -8.4847    4.5700   -8.4485 C   0  0  0  0  0  0  0  0  0  0  0  0
   -8.7517    3.4379   -9.2344 C   0  0  0  0  0  0  0  0  0  0  0  0
   -8.5529    3.4949  -10.6298 C   0  0  0  0  0  0  0  0  0  0  0  0
   -9.1712    2.1400   -8.5878 C   0  0  0  0  0  0  0  0  0  0  0  0
   -9.7577    2.2977   -7.1872 C   0  0  0  0  0  0  0  0  0  0  0  0
   -8.9240    3.2228   -6.3199 C   0  0  0  0  0  0  0  0  0  0  0  0
   -8.7499    4.5918   -6.9639 C   0  0  0  0  0  0  0  0  0  0  0  0
   -7.4817    5.5734  -14.9887 C   0  0  2  0  0  0  0  0  0  0  0  0
   -8.4860    4.5081  -15.4576 C   0  0  0  0  0  0  0  0  0  0  0  0
   -8.5663    4.4391  -16.9627 C   0  0  0  0  0  0  0  0  0  0  0  0
   -7.5624    4.7455  -17.8155 C   0  0  0  0  0  0  0  0  0  0  0  0
   -7.8481    4.5592  -19.1430 N   0  0  0  0  0  0  0  0  0  0  0  0
   -9.1939    4.0624  -19.3901 C   0  0  0  0  0  0  0  0  0  0  0  0
  -10.0353    4.0440  -17.7896 S   0  0  0  0  0  0  0  0  0  0  0  0
   -6.3814    5.2132  -17.2095 C   0  0  0  0  0  0  0  0  0  0  0  0
   -6.2671    5.5643  -15.8747 C   0  0  0  0  0  0  0  0  0  0  0  0
   -4.9225    5.9111  -15.7117 C   0  0  0  0  0  0  0  0  0  0  0  0
   -4.2328    5.8075  -16.8520 N   0  0  0  0  0  0  0  0  0  0  0  0
   -5.1453    5.3953  -17.7737 N   0  0  0  0  0  0  0  0  0  0  0  0
   -4.8133    5.2804  -19.2094 C   0  0  0  0  0  0  0  0  0  0  0  0
   -3.3091    5.3871  -19.5401 C   0  0  0  0  0  0  0  0  0  0  0  0
   -3.6602    6.3078  -20.6484 N   0  0  0  0  0  0  0  0  0  0  0  0
   -4.9159    6.6352  -19.9372 C   0  0  0  0  0  0  0  0  0  0  0  0
  1  2  2  0
  2  3  1  0
  3  4  1  0
  4  5  2  0
  5  6  1  0
  6  7  2  0
  7  8  1  0
  8  9  2  0
  8 10  1  0
 10 11  1  0
 11 12  1  0
 12 13  1  0
 14  2  1  1
 14 15  1  0
 15 16  1  0
 16 17  2  0
 17 18  1  0
 18 19  1  0
 19 20  1  0
 17 21  1  0
 21 22  2  0
 22 23  1  0
 23 24  2  0
 24 25  1  0
 25 26  1  0
 26 27  1  0
 27 28  1  0
 28 29  1  0
  9  4  1  0
 22 14  1  0
 29 26  1  0
 13  7  1  0
 20 16  1  0
 25 21  1  0
M  END
>  <smiles>  (2397) 
C36969-P275

>  <fragmenstein_outcome>  (2397) 
acceptable

>  <inchikey>  (2397) 
IPAFLTQSRMAFGJ-UHFFFAOYSA-N

>  <fragmenstein_mode>  (2397) 
expansion

>  <HIPPO Pose ID>  (2397) 
28146

>  <Energy>  (2397) 
69.230619

>  <fragmenstein_error>  (2397) 


>  <tags>  (2397) 
{'openbind_xx01zvns2b_c1_fragmenstein', 'fragmenstein_placed'}

>  <ref_pdb>  (2397) 
175

>  <scratch_subdir>  (2397) 
/opt/xchem-fragalysis-2/maxwin/BulkDock/SCRATCH/511028/C36969-P275

>  <alias>  (2397) 
O=C(Nc1ccc2c(c1)CCCC2)[C@@H]1CC2=C(NCS2)c2c1cnn2C1CNC1

>  <HIPPO Compound ID>  (2397) 
36969

>  <fragmenstein_runtime>  (2397) 
11.004034

$$$$
O=C(NCc1cccnc1)[C@@](O)(Nc1ccc2c(c1)CCCC2)c1cc(Cl)cc2c1cnn2C1CNC1
     RDKit          3D

 37 42  0  0  0  0  0  0  0  0999 V2000
   -9.9260    6.3017  -13.7369 O   0  0  0  0  0  0  0  0  0  0  0  0
   -8.7786    6.4111  -13.5251 C   0  0  0  0  0  0  0  0  0  0  0  0
   -7.9602    7.6303  -12.9964 N   0  0  0  0  0  0  0  0  0  0  0  0
   -8.3985    8.9181  -12.5358 C   0  0  0  0  0  0  0  0  0  0  0  0
   -7.6929   10.0460  -13.2264 C   0  0  0  0  0  0  0  0  0  0  0  0
   -6.2982   10.1451  -13.2635 C   0  0  0  0  0  0  0  0  0  0  0  0
   -5.6967   11.2189  -13.9139 C   0  0  0  0  0  0  0  0  0  0  0  0
   -6.5121   12.1688  -14.5046 C   0  0  0  0  0  0  0  0  0  0  0  0
   -7.8607   12.1163  -14.4843 N   0  0  0  0  0  0  0  0  0  0  0  0
   -8.4172   11.0669  -13.8353 C   0  0  0  0  0  0  0  0  0  0  0  0
   -7.7019    5.2176  -13.7306 C   0  0  1  0  0  0  0  0  0  0  0  0
   -6.4110    5.5913  -13.2661 O   0  0  0  0  0  0  0  0  0  0  0  0
   -8.0674    4.0510  -12.9338 N   0  0  0  0  0  0  0  0  0  0  0  0
   -8.2791    4.1379  -11.5432 C   0  0  0  0  0  0  0  0  0  0  0  0
   -8.7970    3.0256  -10.8762 C   0  0  0  0  0  0  0  0  0  0  0  0
   -8.8936    2.9718   -9.4794 C   0  0  0  0  0  0  0  0  0  0  0  0
   -8.4898    4.0572   -8.7084 C   0  0  0  0  0  0  0  0  0  0  0  0
   -7.9761    5.1864   -9.3460 C   0  0  0  0  0  0  0  0  0  0  0  0
   -7.8474    5.1998  -10.7380 C   0  0  0  0  0  0  0  0  0  0  0  0
   -7.4953    6.3404   -8.5110 C   0  0  0  0  0  0  0  0  0  0  0  0
   -8.4792    6.6123   -7.3826 C   0  0  0  0  0  0  0  0  0  0  0  0
   -8.8732    5.3553   -6.5838 C   0  0  0  0  0  0  0  0  0  0  0  0
   -8.4812    4.0133   -7.2087 C   0  0  0  0  0  0  0  0  0  0  0  0
   -7.5776    4.9074  -15.2301 C   0  0  0  0  0  0  0  0  0  0  0  0
   -8.7178    4.5216  -15.9773 C   0  0  0  0  0  0  0  0  0  0  0  0
   -8.7058    4.4446  -17.3707 C   0  0  0  0  0  0  0  0  0  0  0  0
  -10.1493    4.0527  -18.2186 Cl  0  0  0  0  0  0  0  0  0  0  0  0
   -7.5695    4.7702  -18.1062 C   0  0  0  0  0  0  0  0  0  0  0  0
   -6.4191    5.1024  -17.3848 C   0  0  0  0  0  0  0  0  0  0  0  0
   -6.3900    5.1143  -15.9872 C   0  0  0  0  0  0  0  0  0  0  0  0
   -5.0376    5.4025  -15.6836 C   0  0  0  0  0  0  0  0  0  0  0  0
   -4.2957    5.6441  -16.7586 N   0  0  0  0  0  0  0  0  0  0  0  0
   -5.1677    5.5367  -17.7784 N   0  0  0  0  0  0  0  0  0  0  0  0
   -4.8853    6.2334  -19.0454 C   0  0  0  0  0  0  0  0  0  0  0  0
   -3.3733    6.3262  -19.3527 C   0  0  0  0  0  0  0  0  0  0  0  0
   -3.6872    6.0321  -20.7659 N   0  0  0  0  0  0  0  0  0  0  0  0
   -4.9338    5.3705  -20.2969 C   0  0  0  0  0  0  0  0  0  0  0  0
  1  2  2  0
  2  3  1  0
  3  4  1  0
  4  5  1  0
  5  6  2  0
  6  7  1  0
  7  8  2  0
  8  9  1  0
  9 10  2  0
  2 11  1  0
 11 12  1  1
 11 13  1  0
 13 14  1  0
 14 15  2  0
 15 16  1  0
 16 17  2  0
 17 18  1  0
 18 19  2  0
 18 20  1  0
 20 21  1  0
 21 22  1  0
 22 23  1  0
 11 24  1  0
 24 25  2  0
 25 26  1  0
 26 27  1  0
 26 28  2  0
 28 29  1  0
 29 30  2  0
 30 31  1  0
 31 32  2  0
 32 33  1  0
 33 34  1  0
 34 35  1  0
 35 36  1  0
 36 37  1  0
 10  5  1  0
 19 14  1  0
 30 24  1  0
 37 34  1  0
 23 17  1  0
 33 29  1  0
M  END
>  <smiles>  (2398) 
C36971-P275

>  <fragmenstein_outcome>  (2398) 
acceptable

>  <inchikey>  (2398) 
VHZGPDSQFFMHDH-UHFFFAOYSA-N

>  <fragmenstein_mode>  (2398) 
expansion

>  <HIPPO Pose ID>  (2398) 
28147

>  <Energy>  (2398) 
120.758995

>  <fragmenstein_error>  (2398) 


>  <tags>  (2398) 
{'openbind_xx01zvns2b_c1_fragmenstein', 'fragmenstein_placed'}

>  <ref_pdb>  (2398) 
175

>  <scratch_subdir>  (2398) 
/opt/xchem-fragalysis-2/maxwin/BulkDock/SCRATCH/511028/C36971-P275

>  <alias>  (2398) 
O=C(NCc1cccnc1)[C@@](O)(Nc1ccc2c(c1)CCCC2)c1cc(Cl)cc2c1cnn2C1CNC1

>  <HIPPO Compound ID>  (2398) 
36971

>  <fragmenstein_runtime>  (2398) 
12.614849

$$$$
O=C(Nc1ccc2c(c1)CCCC2)c1cc(Cl)cc2c1c[n+]([O-])n2C1CNC1
     RDKit          3D

 28 32  0  0  0  0  0  0  0  0999 V2000
   -7.3330    6.5639  -13.7261 O   0  0  0  0  0  0  0  0  0  0  0  0
   -7.7387    5.4817  -13.9057 C   0  0  0  0  0  0  0  0  0  0  0  0
   -8.3029    4.4429  -12.9062 N   0  0  0  0  0  0  0  0  0  0  0  0
   -8.3945    4.4815  -11.5092 C   0  0  0  0  0  0  0  0  0  0  0  0
   -8.0046    5.6326  -10.8238 C   0  0  0  0  0  0  0  0  0  0  0  0
   -8.0336    5.6797   -9.4288 C   0  0  0  0  0  0  0  0  0  0  0  0
   -8.4813    4.5833   -8.6865 C   0  0  0  0  0  0  0  0  0  0  0  0
   -8.9034    3.4293   -9.3626 C   0  0  0  0  0  0  0  0  0  0  0  0
   -8.8472    3.3827  -10.7768 C   0  0  0  0  0  0  0  0  0  0  0  0
   -9.5168    2.2838   -8.5956 C   0  0  0  0  0  0  0  0  0  0  0  0
   -9.3179    2.2992   -7.0823 C   0  0  0  0  0  0  0  0  0  0  0  0
   -9.4080    3.6938   -6.4914 C   0  0  0  0  0  0  0  0  0  0  0  0
   -8.4332    4.6408   -7.1804 C   0  0  0  0  0  0  0  0  0  0  0  0
   -7.6335    4.9936  -15.3066 C   0  0  0  0  0  0  0  0  0  0  0  0
   -8.7560    4.5820  -16.0248 C   0  0  0  0  0  0  0  0  0  0  0  0
   -8.6844    4.4652  -17.4135 C   0  0  0  0  0  0  0  0  0  0  0  0
  -10.1054    4.0438  -18.2876 Cl  0  0  0  0  0  0  0  0  0  0  0  0
   -7.5207    4.7724  -18.1340 C   0  0  0  0  0  0  0  0  0  0  0  0
   -6.3852    5.1359  -17.4032 C   0  0  0  0  0  0  0  0  0  0  0  0
   -6.4012    5.2071  -15.9798 C   0  0  0  0  0  0  0  0  0  0  0  0
   -5.0809    5.5560  -15.4806 C   0  0  0  0  0  0  0  0  0  0  0  0
   -4.2947    5.7173  -16.5477 N   0  0  0  0  0  0  0  0  0  0  0  0
   -3.0848    6.0300  -16.6166 O   0  0  0  0  0  0  0  0  0  0  0  0
   -5.1043    5.5416  -17.7508 N   0  0  0  0  0  0  0  0  0  0  0  0
   -4.7107    6.2070  -19.0074 C   0  0  0  0  0  0  0  0  0  0  0  0
   -3.2313    5.9486  -19.3905 C   0  0  0  0  0  0  0  0  0  0  0  0
   -3.6594    5.8702  -20.7966 N   0  0  0  0  0  0  0  0  0  0  0  0
   -5.0106    5.4794  -20.3136 C   0  0  0  0  0  0  0  0  0  0  0  0
  1  2  2  0
  2  3  1  0
  3  4  1  0
  4  5  2  0
  5  6  1  0
  6  7  2  0
  7  8  1  0
  8  9  2  0
  8 10  1  0
 10 11  1  0
 11 12  1  0
 12 13  1  0
  2 14  1  0
 14 15  2  0
 15 16  1  0
 16 17  1  0
 16 18  2  0
 18 19  1  0
 19 20  2  0
 20 21  1  0
 21 22  2  0
 22 23  1  0
 22 24  1  0
 24 25  1  0
 25 26  1  0
 26 27  1  0
 27 28  1  0
  9  4  1  0
 20 14  1  0
 28 25  1  0
 13  7  1  0
 24 19  1  0
M  CHG  2  22   1  23  -1
M  END
>  <smiles>  (2399) 
C36882-P275

>  <fragmenstein_outcome>  (2399) 
acceptable

>  <inchikey>  (2399) 
QXRCUBAEQBTWJN-UHFFFAOYSA-N

>  <fragmenstein_mode>  (2399) 
expansion

>  <HIPPO Pose ID>  (2399) 
28149

>  <Energy>  (2399) 
67.012926

>  <fragmenstein_error>  (2399) 


>  <tags>  (2399) 
{'openbind_xx01zvns2b_c1_fragmenstein', 'fragmenstein_placed'}

>  <ref_pdb>  (2399) 
175

>  <scratch_subdir>  (2399) 
/opt/xchem-fragalysis-2/maxwin/BulkDock/SCRATCH/511028/C36882-P275

>  <alias>  (2399) 
O=C(Nc1ccc2c(c1)CCCC2)c1cc(Cl)cc2c1c[n+]([O-])n2C1CNC1

>  <HIPPO Compound ID>  (2399) 
41943

>  <fragmenstein_runtime>  (2399) 
14.181778

$$$$
O=C(Nc1ccc2c(c1)CCCC2)c1cc(Cl)cc2c1cc(C(F)(F)F)n2C1CNC1
     RDKit          3D

 31 35  0  0  0  0  0  0  0  0999 V2000
   -7.7954    6.7344  -13.7349 O   0  0  0  0  0  0  0  0  0  0  0  0
   -7.9357    5.5856  -13.8988 C   0  0  0  0  0  0  0  0  0  0  0  0
   -8.2651    4.4622  -12.8892 N   0  0  0  0  0  0  0  0  0  0  0  0
   -8.3930    4.5010  -11.4976 C   0  0  0  0  0  0  0  0  0  0  0  0
   -8.2023    5.7023  -10.8152 C   0  0  0  0  0  0  0  0  0  0  0  0
   -8.2946    5.7538   -9.4236 C   0  0  0  0  0  0  0  0  0  0  0  0
   -8.5782    4.6017   -8.6818 C   0  0  0  0  0  0  0  0  0  0  0  0
   -8.7895    3.3904   -9.3593 C   0  0  0  0  0  0  0  0  0  0  0  0
   -8.6820    3.3470  -10.7685 C   0  0  0  0  0  0  0  0  0  0  0  0
   -9.0756    2.1240   -8.5871 C   0  0  0  0  0  0  0  0  0  0  0  0
   -9.6048    2.3618   -7.1746 C   0  0  0  0  0  0  0  0  0  0  0  0
   -8.7875    3.4017   -6.4297 C   0  0  0  0  0  0  0  0  0  0  0  0
   -8.7246    4.7215   -7.1849 C   0  0  0  0  0  0  0  0  0  0  0  0
   -7.7047    5.0972  -15.2806 C   0  0  0  0  0  0  0  0  0  0  0  0
   -8.7458    4.5777  -16.0431 C   0  0  0  0  0  0  0  0  0  0  0  0
   -8.5830    4.4624  -17.4194 C   0  0  0  0  0  0  0  0  0  0  0  0
   -9.9239    3.9489  -18.3678 Cl  0  0  0  0  0  0  0  0  0  0  0  0
   -7.3976    4.8484  -18.0689 C   0  0  0  0  0  0  0  0  0  0  0  0
   -6.3313    5.3350  -17.2887 C   0  0  0  0  0  0  0  0  0  0  0  0
   -6.4740    5.4358  -15.8960 C   0  0  0  0  0  0  0  0  0  0  0  0
   -5.2680    5.9746  -15.3874 C   0  0  0  0  0  0  0  0  0  0  0  0
   -4.4367    6.2651  -16.4448 C   0  0  0  0  0  0  0  0  0  0  0  0
   -3.1259    6.9558  -16.3951 C   0  0  0  0  0  0  0  0  0  0  0  0
   -3.0505    7.9741  -17.2882 F   0  0  0  0  0  0  0  0  0  0  0  0
   -2.0997    6.1107  -16.6551 F   0  0  0  0  0  0  0  0  0  0  0  0
   -2.8824    7.4974  -15.1745 F   0  0  0  0  0  0  0  0  0  0  0  0
   -5.0743    5.8481  -17.5980 N   0  0  0  0  0  0  0  0  0  0  0  0
   -4.5819    6.2348  -18.9451 C   0  0  0  0  0  0  0  0  0  0  0  0
   -3.1454    5.7323  -19.2427 C   0  0  0  0  0  0  0  0  0  0  0  0
   -3.5605    5.5025  -20.6315 N   0  0  0  0  0  0  0  0  0  0  0  0
   -4.9557    5.3550  -20.1410 C   0  0  0  0  0  0  0  0  0  0  0  0
  1  2  2  0
  2  3  1  0
  3  4  1  0
  4  5  2  0
  5  6  1  0
  6  7  2  0
  7  8  1  0
  8  9  2  0
  8 10  1  0
 10 11  1  0
 11 12  1  0
 12 13  1  0
  2 14  1  0
 14 15  2  0
 15 16  1  0
 16 17  1  0
 16 18  2  0
 18 19  1  0
 19 20  2  0
 20 21  1  0
 21 22  2  0
 22 23  1  0
 23 24  1  0
 23 25  1  0
 23 26  1  0
 22 27  1  0
 27 28  1  0
 28 29  1  0
 29 30  1  0
 30 31  1  0
  9  4  1  0
 20 14  1  0
 31 28  1  0
 13  7  1  0
 27 19  1  0
M  END
>  <smiles>  (2400) 
C36976-P275

>  <fragmenstein_outcome>  (2400) 
acceptable

>  <inchikey>  (2400) 
DJQYOSMTOPCXKX-UHFFFAOYSA-N

>  <fragmenstein_mode>  (2400) 
expansion

>  <HIPPO Pose ID>  (2400) 
28152

>  <Energy>  (2400) 
68.660243

>  <fragmenstein_error>  (2400) 


>  <tags>  (2400) 
{'openbind_xx01zvns2b_c1_fragmenstein', 'fragmenstein_placed'}

>  <ref_pdb>  (2400) 
175

>  <scratch_subdir>  (2400) 
/opt/xchem-fragalysis-2/maxwin/BulkDock/SCRATCH/511028/C36976-P275

>  <alias>  (2400) 
O=C(Nc1ccc2c(c1)CCCC2)c1cc(Cl)cc2c1cc(C(F)(F)F)n2C1CNC1

>  <HIPPO Compound ID>  (2400) 
36976

>  <fragmenstein_runtime>  (2400) 
14.172519

$$$$
CC(C)CNC(=O)[C@](O)(Nc1ccc2c(c1)CCCC2)c1cc(Cl)cc2c1cnn2C1CNC1
     RDKit          3D

 34 38  0  0  0  0  0  0  0  0999 V2000
   -2.2131    3.3566  -12.0820 C   0  0  0  0  0  0  0  0  0  0  0  0
   -2.8298    2.6599  -13.2901 C   0  0  0  0  0  0  0  0  0  0  0  0
   -2.8375    3.6243  -14.4736 C   0  0  0  0  0  0  0  0  0  0  0  0
   -4.2252    2.1363  -12.9588 C   0  0  0  0  0  0  0  0  0  0  0  0
   -5.2389    3.1405  -13.0921 N   0  0  0  0  0  0  0  0  0  0  0  0
   -6.7637    3.0049  -13.3384 C   0  0  0  0  0  0  0  0  0  0  0  0
   -7.4377    2.0557  -13.3935 O   0  0  0  0  0  0  0  0  0  0  0  0
   -7.2771    4.5163  -13.6032 C   0  0  2  0  0  0  0  0  0  0  0  0
   -6.3403    5.4542  -13.0626 O   0  0  0  0  0  0  0  0  0  0  0  0
   -8.5733    4.8209  -12.9730 N   0  0  0  0  0  0  0  0  0  0  0  0
   -8.6017    4.7355  -11.5664 C   0  0  0  0  0  0  0  0  0  0  0  0
   -8.7392    3.5177  -10.9018 C   0  0  0  0  0  0  0  0  0  0  0  0
   -8.6455    3.4489   -9.5091 C   0  0  0  0  0  0  0  0  0  0  0  0
   -8.3875    4.6011   -8.7569 C   0  0  0  0  0  0  0  0  0  0  0  0
   -8.2364    5.8304   -9.4203 C   0  0  0  0  0  0  0  0  0  0  0  0
   -8.3532    5.8853  -10.8110 C   0  0  0  0  0  0  0  0  0  0  0  0
   -7.8886    7.0972   -8.6894 C   0  0  0  0  0  0  0  0  0  0  0  0
   -8.2811    7.0271   -7.2283 C   0  0  0  0  0  0  0  0  0  0  0  0
   -7.7497    5.7469   -6.5888 C   0  0  0  0  0  0  0  0  0  0  0  0
   -8.3617    4.5109   -7.2516 C   0  0  0  0  0  0  0  0  0  0  0  0
   -7.3590    4.7759  -15.1261 C   0  0  0  0  0  0  0  0  0  0  0  0
   -8.4995    4.3585  -15.8585 C   0  0  0  0  0  0  0  0  0  0  0  0
   -8.5892    4.4729  -17.2463 C   0  0  0  0  0  0  0  0  0  0  0  0
  -10.0197    3.9987  -18.0733 Cl  0  0  0  0  0  0  0  0  0  0  0  0
   -7.5488    5.0042  -17.9969 C   0  0  0  0  0  0  0  0  0  0  0  0
   -6.4366    5.4687  -17.2961 C   0  0  0  0  0  0  0  0  0  0  0  0
   -6.3390    5.3936  -15.9036 C   0  0  0  0  0  0  0  0  0  0  0  0
   -5.1283    6.0701  -15.6270 C   0  0  0  0  0  0  0  0  0  0  0  0
   -4.4937    6.5003  -16.7151 N   0  0  0  0  0  0  0  0  0  0  0  0
   -5.2709    6.0681  -17.7235 N   0  0  0  0  0  0  0  0  0  0  0  0
   -4.9837    6.4405  -19.1172 C   0  0  0  0  0  0  0  0  0  0  0  0
   -3.4798    6.6343  -19.4040 C   0  0  0  0  0  0  0  0  0  0  0  0
   -3.6622    5.8911  -20.6673 N   0  0  0  0  0  0  0  0  0  0  0  0
   -4.8550    5.2477  -20.0625 C   0  0  0  0  0  0  0  0  0  0  0  0
  1  2  1  0
  2  3  1  0
  2  4  1  0
  4  5  1  0
  5  6  1  0
  6  7  2  0
  6  8  1  0
  8  9  1  1
  8 10  1  0
 10 11  1  0
 11 12  2  0
 12 13  1  0
 13 14  2  0
 14 15  1  0
 15 16  2  0
 15 17  1  0
 17 18  1  0
 18 19  1  0
 19 20  1  0
  8 21  1  0
 21 22  2  0
 22 23  1  0
 23 24  1  0
 23 25  2  0
 25 26  1  0
 26 27  2  0
 27 28  1  0
 28 29  2  0
 29 30  1  0
 30 31  1  0
 31 32  1  0
 32 33  1  0
 33 34  1  0
 16 11  1  0
 27 21  1  0
 34 31  1  0
 20 14  1  0
 30 26  1  0
M  END
>  <smiles>  (2401) 
C36977-P275

>  <fragmenstein_outcome>  (2401) 
acceptable

>  <inchikey>  (2401) 
XMRJFPSKONDOAG-UHFFFAOYSA-N

>  <fragmenstein_mode>  (2401) 
expansion

>  <HIPPO Pose ID>  (2401) 
28153

>  <Energy>  (2401) 
110.266081

>  <fragmenstein_error>  (2401) 


>  <tags>  (2401) 
{'openbind_xx01zvns2b_c1_fragmenstein', 'fragmenstein_placed'}

>  <ref_pdb>  (2401) 
175

>  <scratch_subdir>  (2401) 
/opt/xchem-fragalysis-2/maxwin/BulkDock/SCRATCH/511028/C36977-P275

>  <alias>  (2401) 
CC(C)CNC(=O)[C@](O)(Nc1ccc2c(c1)CCCC2)c1cc(Cl)cc2c1cnn2C1CNC1

>  <HIPPO Compound ID>  (2401) 
35070

>  <fragmenstein_runtime>  (2401) 
15.465139

$$$$
N#C[C@@H](Nc1ccc2c(c1)CCCC2)c1cc(Cl)cc2c1cnn2C1CNC1
     RDKit          3D

 28 32  0  0  0  0  0  0  0  0999 V2000
   -6.7925    7.5995  -13.4365 N   0  0  0  0  0  0  0  0  0  0  0  0
   -7.0974    6.4815  -13.5488 C   0  0  0  0  0  0  0  0  0  0  0  0
   -7.4444    5.0409  -13.7510 C   0  0  1  0  0  0  0  0  0  0  0  0
   -8.6896    4.6148  -13.0577 N   0  0  0  0  0  0  0  0  0  0  0  0
   -8.6071    4.6187  -11.6350 C   0  0  0  0  0  0  0  0  0  0  0  0
   -8.3780    5.7931  -10.9079 C   0  0  0  0  0  0  0  0  0  0  0  0
   -8.2578    5.7847   -9.5140 C   0  0  0  0  0  0  0  0  0  0  0  0
   -8.4309    4.6039   -8.7939 C   0  0  0  0  0  0  0  0  0  0  0  0
   -8.7449    3.4289   -9.4820 C   0  0  0  0  0  0  0  0  0  0  0  0
   -8.8067    3.4410  -10.8968 C   0  0  0  0  0  0  0  0  0  0  0  0
   -8.9790    2.1488   -8.7164 C   0  0  0  0  0  0  0  0  0  0  0  0
   -9.2648    2.2630   -7.2119 C   0  0  0  0  0  0  0  0  0  0  0  0
   -9.2703    3.6696   -6.6333 C   0  0  0  0  0  0  0  0  0  0  0  0
   -8.2511    4.5763   -7.3011 C   0  0  0  0  0  0  0  0  0  0  0  0
   -7.4733    4.8215  -15.2704 C   0  0  0  0  0  0  0  0  0  0  0  0
   -8.6494    4.5478  -15.9969 C   0  0  0  0  0  0  0  0  0  0  0  0
   -8.6531    4.5133  -17.3930 C   0  0  0  0  0  0  0  0  0  0  0  0
  -10.1152    4.1491  -18.2277 Cl  0  0  0  0  0  0  0  0  0  0  0  0
   -7.5144    4.8297  -18.1388 C   0  0  0  0  0  0  0  0  0  0  0  0
   -6.3303    5.0870  -17.4370 C   0  0  0  0  0  0  0  0  0  0  0  0
   -6.2898    5.0186  -16.0408 C   0  0  0  0  0  0  0  0  0  0  0  0
   -4.9307    5.2369  -15.7191 C   0  0  0  0  0  0  0  0  0  0  0  0
   -4.1716    5.4440  -16.7873 N   0  0  0  0  0  0  0  0  0  0  0  0
   -5.0515    5.4668  -17.8135 N   0  0  0  0  0  0  0  0  0  0  0  0
   -4.6475    6.2212  -19.0105 C   0  0  0  0  0  0  0  0  0  0  0  0
   -3.3845    5.6288  -19.6735 C   0  0  0  0  0  0  0  0  0  0  0  0
   -3.9665    6.0373  -20.9757 N   0  0  0  0  0  0  0  0  0  0  0  0
   -5.3069    5.9179  -20.3474 C   0  0  0  0  0  0  0  0  0  0  0  0
  1  2  3  0
  3  2  1  6
  3  4  1  0
  4  5  1  0
  5  6  2  0
  6  7  1  0
  7  8  2  0
  8  9  1  0
  9 10  2  0
  9 11  1  0
 11 12  1  0
 12 13  1  0
 13 14  1  0
  3 15  1  0
 15 16  2  0
 16 17  1  0
 17 18  1  0
 17 19  2  0
 19 20  1  0
 20 21  2  0
 21 22  1  0
 22 23  2  0
 23 24  1  0
 24 25  1  0
 25 26  1  0
 26 27  1  0
 27 28  1  0
 10  5  1  0
 21 15  1  0
 28 25  1  0
 14  8  1  0
 24 20  1  0
M  END
>  <smiles>  (2402) 
C36979-P275

>  <fragmenstein_outcome>  (2402) 
acceptable

>  <inchikey>  (2402) 
PYHTYFWLYCTXEE-UHFFFAOYSA-N

>  <fragmenstein_mode>  (2402) 
expansion

>  <HIPPO Pose ID>  (2402) 
28155

>  <Energy>  (2402) 
106.495473

>  <fragmenstein_error>  (2402) 


>  <tags>  (2402) 
{'openbind_xx01zvns2b_c1_fragmenstein', 'fragmenstein_placed'}

>  <ref_pdb>  (2402) 
175

>  <scratch_subdir>  (2402) 
/opt/xchem-fragalysis-2/maxwin/BulkDock/SCRATCH/511028/C36979-P275

>  <alias>  (2402) 
N#C[C@@H](Nc1ccc2c(c1)CCCC2)c1cc(Cl)cc2c1cnn2C1CNC1

>  <HIPPO Compound ID>  (2402) 
36979

>  <fragmenstein_runtime>  (2402) 
12.618645

$$$$
O=C(Nc1ccc2c(c1)CCCC2)c1cc(Cl)cc2c1[C@]1(CCNC1)NN2C1CNC1
     RDKit          3D

 31 36  0  0  0  0  0  0  0  0999 V2000
   -7.3403    6.6985  -13.7157 O   0  0  0  0  0  0  0  0  0  0  0  0
   -7.6619    5.5924  -13.9096 C   0  0  0  0  0  0  0  0  0  0  0  0
   -8.1885    4.5158  -12.9324 N   0  0  0  0  0  0  0  0  0  0  0  0
   -8.3348    4.5449  -11.5411 C   0  0  0  0  0  0  0  0  0  0  0  0
   -8.1457    5.7386  -10.8459 C   0  0  0  0  0  0  0  0  0  0  0  0
   -8.2622    5.7787   -9.4551 C   0  0  0  0  0  0  0  0  0  0  0  0
   -8.5668    4.6227   -8.7268 C   0  0  0  0  0  0  0  0  0  0  0  0
   -8.7811    3.4200   -9.4176 C   0  0  0  0  0  0  0  0  0  0  0  0
   -8.6538    3.3887  -10.8260 C   0  0  0  0  0  0  0  0  0  0  0  0
   -9.0797    2.1478   -8.6596 C   0  0  0  0  0  0  0  0  0  0  0  0
   -9.6195    2.3727   -7.2489 C   0  0  0  0  0  0  0  0  0  0  0  0
   -8.8022    3.4007   -6.4878 C   0  0  0  0  0  0  0  0  0  0  0  0
   -8.7200    4.7275   -7.2293 C   0  0  0  0  0  0  0  0  0  0  0  0
   -7.5401    5.1134  -15.3092 C   0  0  0  0  0  0  0  0  0  0  0  0
   -8.6803    4.6888  -15.9953 C   0  0  0  0  0  0  0  0  0  0  0  0
   -8.6259    4.4879  -17.3824 C   0  0  0  0  0  0  0  0  0  0  0  0
  -10.0567    4.0432  -18.2287 Cl  0  0  0  0  0  0  0  0  0  0  0  0
   -7.4482    4.6937  -18.1034 C   0  0  0  0  0  0  0  0  0  0  0  0
   -6.3100    5.0612  -17.4097 C   0  0  0  0  0  0  0  0  0  0  0  0
   -6.3524    5.2748  -16.0243 C   0  0  0  0  0  0  0  0  0  0  0  0
   -4.9627    5.6670  -15.5967 C   0  0  1  0  0  0  0  0  0  0  0  0
   -4.7919    7.1785  -15.3532 C   0  0  0  0  0  0  0  0  0  0  0  0
   -3.9608    7.2678  -14.0838 C   0  0  0  0  0  0  0  0  0  0  0  0
   -4.3365    6.0913  -13.2968 N   0  0  0  0  0  0  0  0  0  0  0  0
   -4.4461    5.0100  -14.2971 C   0  0  0  0  0  0  0  0  0  0  0  0
   -4.1190    5.2331  -16.7503 N   0  0  0  0  0  0  0  0  0  0  0  0
   -4.9884    5.2123  -17.9089 N   0  0  0  0  0  0  0  0  0  0  0  0
   -4.6197    6.1244  -18.9741 C   0  0  0  0  0  0  0  0  0  0  0  0
   -3.3646    5.6500  -19.7481 C   0  0  0  0  0  0  0  0  0  0  0  0
   -3.9939    6.1689  -20.9862 N   0  0  0  0  0  0  0  0  0  0  0  0
   -5.3141    5.9812  -20.3298 C   0  0  0  0  0  0  0  0  0  0  0  0
  1  2  2  0
  2  3  1  0
  3  4  1  0
  4  5  2  0
  5  6  1  0
  6  7  2  0
  7  8  1  0
  8  9  2  0
  8 10  1  0
 10 11  1  0
 11 12  1  0
 12 13  1  0
  2 14  1  0
 14 15  2  0
 15 16  1  0
 16 17  1  0
 16 18  2  0
 18 19  1  0
 19 20  2  0
 20 21  1  0
 21 22  1  1
 22 23  1  0
 23 24  1  0
 24 25  1  0
 21 26  1  0
 26 27  1  0
 27 28  1  0
 28 29  1  0
 29 30  1  0
 30 31  1  0
  9  4  1  0
 20 14  1  0
 25 21  1  0
 31 28  1  0
 13  7  1  0
 27 19  1  0
M  END
>  <smiles>  (2403) 
C36984-P275

>  <fragmenstein_outcome>  (2403) 
acceptable

>  <inchikey>  (2403) 
CSILFHZVMABLGS-UHFFFAOYSA-N

>  <fragmenstein_mode>  (2403) 
expansion

>  <HIPPO Pose ID>  (2403) 
28159

>  <Energy>  (2403) 
130.818081

>  <fragmenstein_error>  (2403) 


>  <tags>  (2403) 
{'openbind_xx01zvns2b_c1_fragmenstein', 'fragmenstein_placed'}

>  <ref_pdb>  (2403) 
175

>  <scratch_subdir>  (2403) 
/opt/xchem-fragalysis-2/maxwin/BulkDock/SCRATCH/511028/C36984-P275

>  <alias>  (2403) 
O=C(Nc1ccc2c(c1)CCCC2)c1cc(Cl)cc2c1[C@]1(CCNC1)NN2C1CNC1

>  <HIPPO Compound ID>  (2403) 
36984

>  <fragmenstein_runtime>  (2403) 
16.362394

$$$$
O=C(NCC1CCOCC1)[C@](O)(Nc1ccc2c(c1)CCCC2)c1cc(Cl)cc2c1cnn2C1CNC1
     RDKit          3D

 37 42  0  0  0  0  0  0  0  0999 V2000
   -5.3318    6.6691  -13.2470 O   0  0  0  0  0  0  0  0  0  0  0  0
   -5.7398    5.5875  -13.4472 C   0  0  0  0  0  0  0  0  0  0  0  0
   -5.0037    4.2060  -13.4230 N   0  0  0  0  0  0  0  0  0  0  0  0
   -3.6496    3.8737  -13.0566 C   0  0  0  0  0  0  0  0  0  0  0  0
   -3.5385    3.2318  -11.6690 C   0  0  0  0  0  0  0  0  0  0  0  0
   -2.0675    3.0446  -11.2527 C   0  0  0  0  0  0  0  0  0  0  0  0
   -1.6362    1.5866  -11.3459 C   0  0  0  0  0  0  0  0  0  0  0  0
   -2.3996    0.7443  -10.4828 O   0  0  0  0  0  0  0  0  0  0  0  0
   -3.8026    1.0421  -10.4474 C   0  0  0  0  0  0  0  0  0  0  0  0
   -4.2887    1.8928  -11.6148 C   0  0  0  0  0  0  0  0  0  0  0  0
   -7.2478    5.3080  -13.9331 C   0  0  2  0  0  0  0  0  0  0  0  0
   -8.1271    6.3913  -13.6956 O   0  0  0  0  0  0  0  0  0  0  0  0
   -7.7656    4.1215  -13.2527 N   0  0  0  0  0  0  0  0  0  0  0  0
   -8.0942    4.1718  -11.8948 C   0  0  0  0  0  0  0  0  0  0  0  0
   -9.2045    3.4481  -11.4892 C   0  0  0  0  0  0  0  0  0  0  0  0
   -9.6029    3.3674  -10.1677 C   0  0  0  0  0  0  0  0  0  0  0  0
   -8.8439    3.9165   -9.1615 C   0  0  0  0  0  0  0  0  0  0  0  0
   -7.5677    4.3398   -9.5558 C   0  0  0  0  0  0  0  0  0  0  0  0
   -7.2842    4.6875  -10.8896 C   0  0  0  0  0  0  0  0  0  0  0  0
   -6.4891    3.4947   -8.8493 C   0  0  0  0  0  0  0  0  0  0  0  0
   -7.0810    2.0480   -8.9248 C   0  0  0  0  0  0  0  0  0  0  0  0
   -8.3452    1.9127   -8.0010 C   0  0  0  0  0  0  0  0  0  0  0  0
   -9.0142    3.2728   -7.8086 C   0  0  0  0  0  0  0  0  0  0  0  0
   -7.3102    5.0696  -15.4617 C   0  0  0  0  0  0  0  0  0  0  0  0
   -8.5554    4.6993  -16.0511 C   0  0  0  0  0  0  0  0  0  0  0  0
   -8.7064    4.4851  -17.4189 C   0  0  0  0  0  0  0  0  0  0  0  0
  -10.2495    4.0919  -18.0625 Cl  0  0  0  0  0  0  0  0  0  0  0  0
   -7.6404    4.6493  -18.2926 C   0  0  0  0  0  0  0  0  0  0  0  0
   -6.4141    5.0380  -17.7432 C   0  0  0  0  0  0  0  0  0  0  0  0
   -6.2293    5.2446  -16.3715 C   0  0  0  0  0  0  0  0  0  0  0  0
   -4.8679    5.6310  -16.2830 C   0  0  0  0  0  0  0  0  0  0  0  0
   -4.2362    5.6250  -17.4495 N   0  0  0  0  0  0  0  0  0  0  0  0
   -5.1955    5.3134  -18.3295 N   0  0  0  0  0  0  0  0  0  0  0  0
   -4.9385    5.2991  -19.7751 C   0  0  0  0  0  0  0  0  0  0  0  0
   -3.4434    5.4105  -20.1638 C   0  0  0  0  0  0  0  0  0  0  0  0
   -3.8589    6.3297  -21.2624 N   0  0  0  0  0  0  0  0  0  0  0  0
   -5.0285    6.6971  -20.4156 C   0  0  0  0  0  0  0  0  0  0  0  0
  1  2  2  0
  2  3  1  0
  3  4  1  0
  4  5  1  0
  5  6  1  0
  6  7  1  0
  7  8  1  0
  8  9  1  0
  9 10  1  0
  2 11  1  0
 11 12  1  6
 11 13  1  0
 13 14  1  0
 14 15  2  0
 15 16  1  0
 16 17  2  0
 17 18  1  0
 18 19  2  0
 18 20  1  0
 20 21  1  0
 21 22  1  0
 22 23  1  0
 11 24  1  0
 24 25  2  0
 25 26  1  0
 26 27  1  0
 26 28  2  0
 28 29  1  0
 29 30  2  0
 30 31  1  0
 31 32  2  0
 32 33  1  0
 33 34  1  0
 34 35  1  0
 35 36  1  0
 36 37  1  0
 10  5  1  0
 19 14  1  0
 30 24  1  0
 37 34  1  0
 23 17  1  0
 33 29  1  0
M  END
>  <smiles>  (2404) 
C36986-P275

>  <fragmenstein_outcome>  (2404) 
acceptable

>  <inchikey>  (2404) 
RUSYVGDVCJWSSK-UHFFFAOYSA-N

>  <fragmenstein_mode>  (2404) 
expansion

>  <HIPPO Pose ID>  (2404) 
28161

>  <Energy>  (2404) 
174.608411

>  <fragmenstein_error>  (2404) 


>  <tags>  (2404) 
{'openbind_xx01zvns2b_c1_fragmenstein', 'fragmenstein_placed'}

>  <ref_pdb>  (2404) 
175

>  <scratch_subdir>  (2404) 
/opt/xchem-fragalysis-2/maxwin/BulkDock/SCRATCH/511028/C36986-P275

>  <alias>  (2404) 
O=C(NCC1CCOCC1)[C@](O)(Nc1ccc2c(c1)CCCC2)c1cc(Cl)cc2c1cnn2C1CNC1

>  <HIPPO Compound ID>  (2404) 
36986

>  <fragmenstein_runtime>  (2404) 
16.408013

$$$$
N#Cc1cc2c(cc1NC(=O)c1cc(Cl)cc3c1cnn3C1CNC1)CCCC2
     RDKit          3D

 29 33  0  0  0  0  0  0  0  0999 V2000
   -8.4379    8.0645  -11.9270 N   0  0  0  0  0  0  0  0  0  0  0  0
   -8.3125    7.0062  -11.4619 C   0  0  0  0  0  0  0  0  0  0  0  0
   -8.2909    5.7271  -10.8073 C   0  0  0  0  0  0  0  0  0  0  0  0
   -8.3726    5.7522   -9.4036 C   0  0  0  0  0  0  0  0  0  0  0  0
   -8.5961    4.5873   -8.6610 C   0  0  0  0  0  0  0  0  0  0  0  0
   -8.7771    3.3790   -9.3436 C   0  0  0  0  0  0  0  0  0  0  0  0
   -8.6521    3.3450  -10.7523 C   0  0  0  0  0  0  0  0  0  0  0  0
   -8.3767    4.5045  -11.4935 C   0  0  0  0  0  0  0  0  0  0  0  0
   -8.1707    4.3728  -12.8802 N   0  0  0  0  0  0  0  0  0  0  0  0
   -7.4034    5.2810  -13.8743 C   0  0  0  0  0  0  0  0  0  0  0  0
   -6.7591    6.2371  -13.6838 O   0  0  0  0  0  0  0  0  0  0  0  0
   -7.5197    4.8724  -15.3013 C   0  0  0  0  0  0  0  0  0  0  0  0
   -8.7445    4.5386  -15.8929 C   0  0  0  0  0  0  0  0  0  0  0  0
   -8.8380    4.4045  -17.2808 C   0  0  0  0  0  0  0  0  0  0  0  0
  -10.3629    4.1082  -18.0169 Cl  0  0  0  0  0  0  0  0  0  0  0  0
   -7.7377    4.5917  -18.1220 C   0  0  0  0  0  0  0  0  0  0  0  0
   -6.5158    4.9023  -17.5163 C   0  0  0  0  0  0  0  0  0  0  0  0
   -6.3877    5.0331  -16.1339 C   0  0  0  0  0  0  0  0  0  0  0  0
   -5.0249    5.3522  -15.9398 C   0  0  0  0  0  0  0  0  0  0  0  0
   -4.3332    5.3880  -17.0780 N   0  0  0  0  0  0  0  0  0  0  0  0
   -5.2614    5.1657  -18.0269 N   0  0  0  0  0  0  0  0  0  0  0  0
   -4.9491    5.1829  -19.4652 C   0  0  0  0  0  0  0  0  0  0  0  0
   -3.4509    5.3320  -19.8147 C   0  0  0  0  0  0  0  0  0  0  0  0
   -3.8655    6.2414  -20.9247 N   0  0  0  0  0  0  0  0  0  0  0  0
   -5.0546    6.5854  -20.0925 C   0  0  0  0  0  0  0  0  0  0  0  0
   -9.0478    2.1058   -8.5779 C   0  0  0  0  0  0  0  0  0  0  0  0
   -9.6019    2.3364   -7.1733 C   0  0  0  0  0  0  0  0  0  0  0  0
   -8.8008    3.3782   -6.4135 C   0  0  0  0  0  0  0  0  0  0  0  0
   -8.7398    4.7013   -7.1631 C   0  0  0  0  0  0  0  0  0  0  0  0
  1  2  3  0
  2  3  1  0
  3  4  2  0
  4  5  1  0
  5  6  2  0
  6  7  1  0
  7  8  2  0
  8  9  1  0
  9 10  1  0
 10 11  2  0
 10 12  1  0
 12 13  2  0
 13 14  1  0
 14 15  1  0
 14 16  2  0
 16 17  1  0
 17 18  2  0
 18 19  1  0
 19 20  2  0
 20 21  1  0
 21 22  1  0
 22 23  1  0
 23 24  1  0
 24 25  1  0
  6 26  1  0
 26 27  1  0
 27 28  1  0
 28 29  1  0
  8  3  1  0
 18 12  1  0
 25 22  1  0
 29  5  1  0
 21 17  1  0
M  END
>  <smiles>  (2405) 
C36990-P275

>  <fragmenstein_outcome>  (2405) 
acceptable

>  <inchikey>  (2405) 
BNXRMAIXNZUAFS-UHFFFAOYSA-N

>  <fragmenstein_mode>  (2405) 
expansion

>  <HIPPO Pose ID>  (2405) 
28165

>  <Energy>  (2405) 
90.718382

>  <fragmenstein_error>  (2405) 


>  <tags>  (2405) 
{'openbind_xx01zvns2b_c1_fragmenstein', 'fragmenstein_placed'}

>  <ref_pdb>  (2405) 
175

>  <scratch_subdir>  (2405) 
/opt/xchem-fragalysis-2/maxwin/BulkDock/SCRATCH/511028/C36990-P275

>  <alias>  (2405) 
N#Cc1cc2c(cc1NC(=O)c1cc(Cl)cc3c1cnn3C1CNC1)CCCC2

>  <HIPPO Compound ID>  (2405) 
38785

>  <fragmenstein_runtime>  (2405) 
21.124653

$$$$
O=C(Nc1ccc2c(c1)CCCC2)c1cc(Cl)cc2c1CC1(CCNCC1)N2C1CNC1
     RDKit          3D

 32 37  0  0  0  0  0  0  0  0999 V2000
   -7.3605    6.5440  -13.7822 O   0  0  0  0  0  0  0  0  0  0  0  0
   -7.7181    5.4548  -14.0030 C   0  0  0  0  0  0  0  0  0  0  0  0
   -8.2501    4.3644  -13.0503 N   0  0  0  0  0  0  0  0  0  0  0  0
   -8.3610    4.3516  -11.6630 C   0  0  0  0  0  0  0  0  0  0  0  0
   -8.7045    3.1762  -11.0013 C   0  0  0  0  0  0  0  0  0  0  0  0
   -8.7043    3.1257   -9.6044 C   0  0  0  0  0  0  0  0  0  0  0  0
   -8.3802    4.2639   -8.8643 C   0  0  0  0  0  0  0  0  0  0  0  0
   -8.0627    5.4559   -9.5308 C   0  0  0  0  0  0  0  0  0  0  0  0
   -8.0583    5.4942  -10.9259 C   0  0  0  0  0  0  0  0  0  0  0  0
   -7.6287    6.6475   -8.7251 C   0  0  0  0  0  0  0  0  0  0  0  0
   -8.5070    6.8116   -7.4945 C   0  0  0  0  0  0  0  0  0  0  0  0
   -8.7539    5.5095   -6.7095 C   0  0  0  0  0  0  0  0  0  0  0  0
   -8.2480    4.2234   -7.3684 C   0  0  0  0  0  0  0  0  0  0  0  0
   -7.6248    4.9890  -15.4029 C   0  0  0  0  0  0  0  0  0  0  0  0
   -8.7577    4.5460  -16.0747 C   0  0  0  0  0  0  0  0  0  0  0  0
   -8.7101    4.3982  -17.4637 C   0  0  0  0  0  0  0  0  0  0  0  0
  -10.1496    3.9664  -18.2917 Cl  0  0  0  0  0  0  0  0  0  0  0  0
   -7.5542    4.6968  -18.1964 C   0  0  0  0  0  0  0  0  0  0  0  0
   -6.4286    5.1379  -17.5202 C   0  0  0  0  0  0  0  0  0  0  0  0
   -6.4631    5.2286  -16.1287 C   0  0  0  0  0  0  0  0  0  0  0  0
   -5.1054    5.5984  -15.6361 C   0  0  0  0  0  0  0  0  0  0  0  0
   -4.5155    6.2951  -16.9053 C   0  0  0  0  0  0  0  0  0  0  0  0
   -2.9894    6.1355  -16.8952 C   0  0  0  0  0  0  0  0  0  0  0  0
   -2.3440    6.8482  -15.7045 C   0  0  0  0  0  0  0  0  0  0  0  0
   -2.9247    8.1583  -15.4168 N   0  0  0  0  0  0  0  0  0  0  0  0
   -3.6979    8.7061  -16.5221 C   0  0  0  0  0  0  0  0  0  0  0  0
   -4.8969    7.8061  -16.8340 C   0  0  0  0  0  0  0  0  0  0  0  0
   -5.1835    5.5891  -18.0632 N   0  0  0  0  0  0  0  0  0  0  0  0
   -4.9110    5.7449  -19.4827 C   0  0  0  0  0  0  0  0  0  0  0  0
   -3.5322    5.2723  -19.9899 C   0  0  0  0  0  0  0  0  0  0  0  0
   -3.4825    6.4578  -20.8750 N   0  0  0  0  0  0  0  0  0  0  0  0
   -4.4717    7.1261  -20.0066 C   0  0  0  0  0  0  0  0  0  0  0  0
  1  2  2  0
  2  3  1  0
  3  4  1  0
  4  5  2  0
  5  6  1  0
  6  7  2  0
  7  8  1  0
  8  9  2  0
  8 10  1  0
 10 11  1  0
 11 12  1  0
 12 13  1  0
  2 14  1  0
 14 15  2  0
 15 16  1  0
 16 17  1  0
 16 18  2  0
 18 19  1  0
 19 20  2  0
 20 21  1  0
 21 22  1  0
 22 23  1  0
 23 24  1  0
 24 25  1  0
 25 26  1  0
 26 27  1  0
 22 28  1  0
 28 29  1  0
 29 30  1  0
 30 31  1  0
 31 32  1  0
  9  4  1  0
 20 14  1  0
 27 22  1  0
 32 29  1  0
 13  7  1  0
 28 19  1  0
M  END
>  <smiles>  (2406) 
C36993-P275

>  <fragmenstein_outcome>  (2406) 
acceptable

>  <inchikey>  (2406) 
ZHBFBFHXRJABKA-UHFFFAOYSA-N

>  <fragmenstein_mode>  (2406) 
expansion

>  <HIPPO Pose ID>  (2406) 
28168

>  <Energy>  (2406) 
104.726609

>  <fragmenstein_error>  (2406) 


>  <tags>  (2406) 
{'openbind_xx01zvns2b_c1_fragmenstein', 'fragmenstein_placed'}

>  <ref_pdb>  (2406) 
175

>  <scratch_subdir>  (2406) 
/opt/xchem-fragalysis-2/maxwin/BulkDock/SCRATCH/511028/C36993-P275

>  <alias>  (2406) 
O=C(Nc1ccc2c(c1)CCCC2)c1cc(Cl)cc2c1CC1(CCNCC1)N2C1CNC1

>  <HIPPO Compound ID>  (2406) 
23101

>  <fragmenstein_runtime>  (2406) 
9.894022

$$$$
O=C(Nc1ccc2c(c1)CCCC2)c1cc(Cl)c2c3c1cnn3C1(CNC1)C(=O)N2
     RDKit          3D

 30 35  0  0  0  0  0  0  0  0999 V2000
   -7.2675    6.5357  -13.5125 O   0  0  0  0  0  0  0  0  0  0  0  0
   -7.6483    5.4452  -13.6951 C   0  0  0  0  0  0  0  0  0  0  0  0
   -8.1930    4.3915  -12.6981 N   0  0  0  0  0  0  0  0  0  0  0  0
   -8.2901    4.4259  -11.3033 C   0  0  0  0  0  0  0  0  0  0  0  0
   -7.9373    5.5754  -10.6011 C   0  0  0  0  0  0  0  0  0  0  0  0
   -8.0151    5.6088   -9.2070 C   0  0  0  0  0  0  0  0  0  0  0  0
   -8.4520    4.4926   -8.4862 C   0  0  0  0  0  0  0  0  0  0  0  0
   -8.8043    3.3275   -9.1794 C   0  0  0  0  0  0  0  0  0  0  0  0
   -8.7280    3.3065  -10.5914 C   0  0  0  0  0  0  0  0  0  0  0  0
   -9.3030    2.1097   -8.4403 C   0  0  0  0  0  0  0  0  0  0  0  0
   -9.3156    2.1858   -6.9122 C   0  0  0  0  0  0  0  0  0  0  0  0
   -9.4978    3.5907   -6.3700 C   0  0  0  0  0  0  0  0  0  0  0  0
   -8.4766    4.5412   -6.9814 C   0  0  0  0  0  0  0  0  0  0  0  0
   -7.6586    4.9866  -15.1007 C   0  0  0  0  0  0  0  0  0  0  0  0
   -8.8533    4.5816  -15.7312 C   0  0  0  0  0  0  0  0  0  0  0  0
   -8.9029    4.3729  -17.1144 C   0  0  0  0  0  0  0  0  0  0  0  0
  -10.3978    4.0712  -17.9097 Cl  0  0  0  0  0  0  0  0  0  0  0  0
   -7.7565    4.5225  -17.8833 C   0  0  0  0  0  0  0  0  0  0  0  0
   -6.6142    4.9425  -17.2439 C   0  0  0  0  0  0  0  0  0  0  0  0
   -6.5083    5.1753  -15.8916 C   0  0  0  0  0  0  0  0  0  0  0  0
   -5.1631    5.5913  -15.7448 C   0  0  0  0  0  0  0  0  0  0  0  0
   -4.4911    5.6232  -16.9077 N   0  0  0  0  0  0  0  0  0  0  0  0
   -5.4143    5.2354  -17.8083 N   0  0  0  0  0  0  0  0  0  0  0  0
   -5.3118    5.2393  -19.2861 C   0  0  0  0  0  0  0  0  0  0  0  0
   -3.8522    5.1630  -19.7890 C   0  0  0  0  0  0  0  0  0  0  0  0
   -4.1492    6.2556  -20.7494 N   0  0  0  0  0  0  0  0  0  0  0  0
   -5.2290    6.6924  -19.8319 C   0  0  0  0  0  0  0  0  0  0  0  0
   -6.4754    4.3559  -19.9556 C   0  0  0  0  0  0  0  0  0  0  0  0
   -6.4697    3.7859  -21.0515 O   0  0  0  0  0  0  0  0  0  0  0  0
   -7.6589    4.2391  -19.2367 N   0  0  0  0  0  0  0  0  0  0  0  0
  1  2  2  0
  2  3  1  0
  3  4  1  0
  4  5  2  0
  5  6  1  0
  6  7  2  0
  7  8  1  0
  8  9  2  0
  8 10  1  0
 10 11  1  0
 11 12  1  0
 12 13  1  0
  2 14  1  0
 14 15  2  0
 15 16  1  0
 16 17  1  0
 16 18  2  0
 18 19  1  0
 19 20  2  0
 20 21  1  0
 21 22  2  0
 22 23  1  0
 23 24  1  0
 24 25  1  0
 25 26  1  0
 26 27  1  0
 24 28  1  0
 28 29  2  0
 28 30  1  0
  9  4  1  0
 20 14  1  0
 27 24  1  0
 13  7  1  0
 30 18  1  0
 23 19  1  0
M  END
>  <smiles>  (2407) 
C36994-P275

>  <fragmenstein_outcome>  (2407) 
acceptable

>  <inchikey>  (2407) 
WBZULIDKRMDMPO-UHFFFAOYSA-N

>  <fragmenstein_mode>  (2407) 
expansion

>  <HIPPO Pose ID>  (2407) 
28169

>  <Energy>  (2407) 
35.72155

>  <fragmenstein_error>  (2407) 


>  <tags>  (2407) 
{'openbind_xx01zvns2b_c1_fragmenstein', 'fragmenstein_placed'}

>  <ref_pdb>  (2407) 
175

>  <scratch_subdir>  (2407) 
/opt/xchem-fragalysis-2/maxwin/BulkDock/SCRATCH/511028/C36994-P275

>  <alias>  (2407) 
O=C(Nc1ccc2c(c1)CCCC2)c1cc(Cl)c2c3c1cnn3C1(CNC1)C(=O)N2

>  <HIPPO Compound ID>  (2407) 
36994

>  <fragmenstein_runtime>  (2407) 
16.422353

$$$$
CC(C)[C@H]1N[C@H]2NCC[C@H]2N2c3cc(Cl)cc(C(=O)Nc4ccc5c(c4)CCCC5)c3CN2S1
     RDKit          3D

 34 39  0  0  0  0  0  0  0  0999 V2000
   -0.0753    7.6165  -16.8856 C   0  0  0  0  0  0  0  0  0  0  0  0
   -0.7219    7.3574  -18.2532 C   0  0  0  0  0  0  0  0  0  0  0  0
   -0.0290    6.1684  -18.9342 C   0  0  0  0  0  0  0  0  0  0  0  0
   -2.2726    7.2473  -18.1564 C   0  0  1  0  0  0  0  0  0  0  0  0
   -2.8276    7.1805  -19.5152 N   0  0  0  0  0  0  0  0  0  0  0  0
   -4.2491    7.5066  -19.5580 C   0  0  1  0  0  0  0  0  0  0  0  0
   -4.4383    7.8572  -20.9651 N   0  0  0  0  0  0  0  0  0  0  0  0
   -4.7884    6.6020  -21.6517 C   0  0  0  0  0  0  0  0  0  0  0  0
   -5.0796    5.5562  -20.5745 C   0  0  0  0  0  0  0  0  0  0  0  0
   -5.3068    6.3918  -19.3383 C   0  0  1  0  0  0  0  0  0  0  0  0
   -5.1777    5.5964  -18.1011 N   0  0  0  0  0  0  0  0  0  0  0  0
   -6.4262    5.1739  -17.5824 C   0  0  0  0  0  0  0  0  0  0  0  0
   -7.5372    4.6879  -18.2491 C   0  0  0  0  0  0  0  0  0  0  0  0
   -8.6942    4.4132  -17.5161 C   0  0  0  0  0  0  0  0  0  0  0  0
  -10.1194    3.9412  -18.3449 Cl  0  0  0  0  0  0  0  0  0  0  0  0
   -8.7473    4.6067  -16.1327 C   0  0  0  0  0  0  0  0  0  0  0  0
   -7.6266    5.1025  -15.4740 C   0  0  0  0  0  0  0  0  0  0  0  0
   -7.7061    5.5627  -14.0751 C   0  0  0  0  0  0  0  0  0  0  0  0
   -7.3847    6.6636  -13.8576 O   0  0  0  0  0  0  0  0  0  0  0  0
   -8.2019    4.4583  -13.1191 N   0  0  0  0  0  0  0  0  0  0  0  0
   -8.3124    4.4461  -11.7339 C   0  0  0  0  0  0  0  0  0  0  0  0
   -8.6981    3.2786  -11.0819 C   0  0  0  0  0  0  0  0  0  0  0  0
   -8.7098    3.2241   -9.6864 C   0  0  0  0  0  0  0  0  0  0  0  0
   -8.3610    4.3508   -8.9387 C   0  0  0  0  0  0  0  0  0  0  0  0
   -8.0053    5.5371   -9.5964 C   0  0  0  0  0  0  0  0  0  0  0  0
   -7.9785    5.5773  -10.9910 C   0  0  0  0  0  0  0  0  0  0  0  0
   -7.5746    6.7214   -8.7778 C   0  0  0  0  0  0  0  0  0  0  0  0
   -8.4847    6.8862   -7.5702 C   0  0  0  0  0  0  0  0  0  0  0  0
   -8.7019    5.5913   -6.7666 C   0  0  0  0  0  0  0  0  0  0  0  0
   -8.2441    4.2953   -7.4413 C   0  0  0  0  0  0  0  0  0  0  0  0
   -6.4764    5.3593  -16.2061 C   0  0  0  0  0  0  0  0  0  0  0  0
   -5.1580    5.8893  -15.7599 C   0  0  0  0  0  0  0  0  0  0  0  0
   -4.4172    6.1627  -17.0175 N   0  0  0  0  0  0  0  0  0  0  0  0
   -2.8074    5.8056  -17.1577 S   0  0  0  0  0  0  0  0  0  0  0  0
  1  2  1  0
  2  3  1  0
  4  2  1  6
  4  5  1  0
  6  5  1  6
  6  7  1  0
  7  8  1  0
  8  9  1  0
 10  9  1  6
 10 11  1  0
 11 12  1  0
 12 13  2  0
 13 14  1  0
 14 15  1  0
 14 16  2  0
 16 17  1  0
 17 18  1  0
 18 19  2  0
 18 20  1  0
 20 21  1  0
 21 22  2  0
 22 23  1  0
 23 24  2  0
 24 25  1  0
 25 26  2  0
 25 27  1  0
 27 28  1  0
 28 29  1  0
 29 30  1  0
 17 31  2  0
 31 32  1  0
 32 33  1  0
 33 34  1  0
 34  4  1  0
 10  6  1  0
 33 11  1  0
 31 12  1  0
 26 21  1  0
 30 24  1  0
M  END
>  <smiles>  (2408) 
C37000-P275

>  <fragmenstein_outcome>  (2408) 
acceptable

>  <inchikey>  (2408) 
BLDRZZPKXALEHG-UHFFFAOYSA-N

>  <fragmenstein_mode>  (2408) 
expansion

>  <HIPPO Pose ID>  (2408) 
28173

>  <Energy>  (2408) 
57.795023

>  <fragmenstein_error>  (2408) 


>  <tags>  (2408) 
{'openbind_xx01zvns2b_c1_fragmenstein', 'fragmenstein_placed'}

>  <ref_pdb>  (2408) 
175

>  <scratch_subdir>  (2408) 
/opt/xchem-fragalysis-2/maxwin/BulkDock/SCRATCH/511028/C37000-P275

>  <alias>  (2408) 
CC(C)[C@H]1N[C@H]2NCC[C@H]2N2c3cc(Cl)cc(C(=O)Nc4ccc5c(c4)CCCC5)c3CN2S1

>  <HIPPO Compound ID>  (2408) 
43441

>  <fragmenstein_runtime>  (2408) 
18.419962

$$$$
O=C(Nc1ccc2c(c1)CCCC2)c1cc2c(c3c1C=NC=3C1CNC1)=NC=C2
     RDKit          3D

 29 34  0  0  0  0  0  0  0  0999 V2000
   -7.0074    6.5946  -13.3537 O   0  0  0  0  0  0  0  0  0  0  0  0
   -7.4584    5.5393  -13.5725 C   0  0  0  0  0  0  0  0  0  0  0  0
   -8.0265    4.4709  -12.6066 N   0  0  0  0  0  0  0  0  0  0  0  0
   -8.2372    4.5163  -11.2292 C   0  0  0  0  0  0  0  0  0  0  0  0
   -7.9578    5.6831  -10.5207 C   0  0  0  0  0  0  0  0  0  0  0  0
   -8.0994    5.7190   -9.1343 C   0  0  0  0  0  0  0  0  0  0  0  0
   -8.5337    4.5904   -8.4319 C   0  0  0  0  0  0  0  0  0  0  0  0
   -8.8354    3.4168   -9.1381 C   0  0  0  0  0  0  0  0  0  0  0  0
   -8.6923    3.3906  -10.5425 C   0  0  0  0  0  0  0  0  0  0  0  0
   -9.3614    2.1992   -8.4188 C   0  0  0  0  0  0  0  0  0  0  0  0
   -9.3247    2.2451   -6.8912 C   0  0  0  0  0  0  0  0  0  0  0  0
   -9.5681    3.6311   -6.3246 C   0  0  0  0  0  0  0  0  0  0  0  0
   -8.5958    4.6383   -6.9264 C   0  0  0  0  0  0  0  0  0  0  0  0
   -7.4762    5.0197  -14.9733 C   0  0  0  0  0  0  0  0  0  0  0  0
   -8.7114    4.6167  -15.6325 C   0  0  0  0  0  0  0  0  0  0  0  0
   -8.7476    4.4600  -16.9604 C   0  0  0  0  0  0  0  0  0  0  0  0
   -7.5499    4.6691  -17.8251 C   0  0  0  0  0  0  0  0  0  0  0  0
   -6.3233    5.0985  -17.1485 C   0  0  0  0  0  0  0  0  0  0  0  0
   -6.3714    5.2186  -15.7087 C   0  0  0  0  0  0  0  0  0  0  0  0
   -5.0423    5.7380  -15.3661 C   0  0  0  0  0  0  0  0  0  0  0  0
   -4.3144    5.9524  -16.4238 N   0  0  0  0  0  0  0  0  0  0  0  0
   -5.1300    5.6085  -17.5039 C   0  0  0  0  0  0  0  0  0  0  0  0
   -4.6728    6.0255  -18.8439 C   0  0  0  0  0  0  0  0  0  0  0  0
   -5.5890    6.9745  -19.6286 C   0  0  0  0  0  0  0  0  0  0  0  0
   -5.2206    6.2648  -20.8625 N   0  0  0  0  0  0  0  0  0  0  0  0
   -4.7877    5.1025  -20.0475 C   0  0  0  0  0  0  0  0  0  0  0  0
   -7.8220    4.4351  -19.0677 N   0  0  0  0  0  0  0  0  0  0  0  0
   -9.1791    4.1564  -19.0844 C   0  0  0  0  0  0  0  0  0  0  0  0
   -9.7863    4.1530  -17.8887 C   0  0  0  0  0  0  0  0  0  0  0  0
  1  2  2  0
  2  3  1  0
  3  4  1  0
  4  5  2  0
  5  6  1  0
  6  7  2  0
  7  8  1  0
  8  9  2  0
  8 10  1  0
 10 11  1  0
 11 12  1  0
 12 13  1  0
  2 14  1  0
 14 15  1  0
 15 16  2  0
 16 17  1  0
 17 18  1  0
 18 19  1  0
 19 20  1  0
 20 21  2  0
 21 22  1  0
 22 23  1  0
 23 24  1  0
 24 25  1  0
 25 26  1  0
 17 27  2  0
 27 28  1  0
 28 29  2  0
  9  4  1  0
 19 14  2  0
 26 23  1  0
 13  7  1  0
 29 16  1  0
 22 18  2  0
M  END
>  <smiles>  (2409) 
C37001-P275

>  <fragmenstein_outcome>  (2409) 
acceptable

>  <inchikey>  (2409) 
NOSHWWSMXZRTMC-UHFFFAOYSA-N

>  <fragmenstein_mode>  (2409) 
expansion

>  <HIPPO Pose ID>  (2409) 
28174

>  <Energy>  (2409) 
120.747694

>  <fragmenstein_error>  (2409) 


>  <tags>  (2409) 
{'openbind_xx01zvns2b_c1_fragmenstein', 'fragmenstein_placed'}

>  <ref_pdb>  (2409) 
175

>  <scratch_subdir>  (2409) 
/opt/xchem-fragalysis-2/maxwin/BulkDock/SCRATCH/511028/C37001-P275

>  <alias>  (2409) 
O=C(Nc1ccc2c(c1)CCCC2)c1cc2c(c3c1C=NC=3C1CNC1)=NC=C2

>  <HIPPO Compound ID>  (2409) 
42042

>  <fragmenstein_runtime>  (2409) 
6.858477

$$$$
N[C@H]1CCc2ccc(NC(=O)c3cc(Cl)cc4c3cnn4C3CNC3)cc2C1
     RDKit          3D

 28 32  0  0  0  0  0  0  0  0999 V2000
   -7.8958    1.4706   -8.3516 N   0  0  0  0  0  0  0  0  0  0  0  0
   -9.1963    1.8990   -7.8853 C   0  0  1  0  0  0  0  0  0  0  0  0
   -9.1274    3.0374   -6.8636 C   0  0  0  0  0  0  0  0  0  0  0  0
   -8.4684    4.3122   -7.4039 C   0  0  0  0  0  0  0  0  0  0  0  0
   -8.5739    4.5181   -8.8959 C   0  0  0  0  0  0  0  0  0  0  0  0
   -7.9801    5.6347   -9.4862 C   0  0  0  0  0  0  0  0  0  0  0  0
   -7.9057    5.7369  -10.8762 C   0  0  0  0  0  0  0  0  0  0  0  0
   -8.3883    4.7067  -11.6810 C   0  0  0  0  0  0  0  0  0  0  0  0
   -8.2363    4.7202  -13.0567 N   0  0  0  0  0  0  0  0  0  0  0  0
   -7.5580    5.7459  -13.9753 C   0  0  0  0  0  0  0  0  0  0  0  0
   -7.0848    6.7827  -13.7312 O   0  0  0  0  0  0  0  0  0  0  0  0
   -7.4781    5.2654  -15.3704 C   0  0  0  0  0  0  0  0  0  0  0  0
   -8.5784    4.7283  -16.0430 C   0  0  0  0  0  0  0  0  0  0  0  0
   -8.4992    4.5140  -17.4162 C   0  0  0  0  0  0  0  0  0  0  0  0
   -9.8898    3.9366  -18.2441 Cl  0  0  0  0  0  0  0  0  0  0  0  0
   -7.3533    4.8405  -18.1564 C   0  0  0  0  0  0  0  0  0  0  0  0
   -6.2466    5.3375  -17.4509 C   0  0  0  0  0  0  0  0  0  0  0  0
   -6.2835    5.5106  -16.0689 C   0  0  0  0  0  0  0  0  0  0  0  0
   -4.9987    5.9730  -15.7197 C   0  0  0  0  0  0  0  0  0  0  0  0
   -4.2114    6.1292  -16.7786 N   0  0  0  0  0  0  0  0  0  0  0  0
   -5.0076    5.8200  -17.8242 N   0  0  0  0  0  0  0  0  0  0  0  0
   -4.6692    6.3629  -19.1471 C   0  0  0  0  0  0  0  0  0  0  0  0
   -3.1579    6.2605  -19.4458 C   0  0  0  0  0  0  0  0  0  0  0  0
   -3.5023    5.8865  -20.8314 N   0  0  0  0  0  0  0  0  0  0  0  0
   -4.8200    5.4168  -20.3270 C   0  0  0  0  0  0  0  0  0  0  0  0
   -9.0099    3.6119  -11.1084 C   0  0  0  0  0  0  0  0  0  0  0  0
   -9.1491    3.5407   -9.7240 C   0  0  0  0  0  0  0  0  0  0  0  0
   -9.9062    2.3914   -9.1219 C   0  0  0  0  0  0  0  0  0  0  0  0
  2  1  1  6
  2  3  1  0
  3  4  1  0
  4  5  1  0
  5  6  2  0
  6  7  1  0
  7  8  2  0
  8  9  1  0
  9 10  1  0
 10 11  2  0
 10 12  1  0
 12 13  2  0
 13 14  1  0
 14 15  1  0
 14 16  2  0
 16 17  1  0
 17 18  2  0
 18 19  1  0
 19 20  2  0
 20 21  1  0
 21 22  1  0
 22 23  1  0
 23 24  1  0
 24 25  1  0
  8 26  1  0
 26 27  2  0
 27 28  1  0
 28  2  1  0
 27  5  1  0
 18 12  1  0
 25 22  1  0
 21 17  1  0
M  END
>  <smiles>  (2410) 
C37003-P275

>  <fragmenstein_outcome>  (2410) 
acceptable

>  <inchikey>  (2410) 
WJYCGYWKXRAWGS-UHFFFAOYSA-N

>  <fragmenstein_mode>  (2410) 
expansion

>  <HIPPO Pose ID>  (2410) 
28177

>  <Energy>  (2410) 
82.274772

>  <fragmenstein_error>  (2410) 


>  <tags>  (2410) 
{'openbind_xx01zvns2b_c1_fragmenstein', 'fragmenstein_placed'}

>  <ref_pdb>  (2410) 
175

>  <scratch_subdir>  (2410) 
/opt/xchem-fragalysis-2/maxwin/BulkDock/SCRATCH/511028/C37003-P275

>  <alias>  (2410) 
N[C@H]1CCc2ccc(NC(=O)c3cc(Cl)cc4c3cnn4C3CNC3)cc2C1

>  <HIPPO Compound ID>  (2410) 
37003

>  <fragmenstein_runtime>  (2410) 
20.572181

$$$$
CCc1nn(C2CNC2)c2cc(Cl)cc([C@@](O)(Nc3ccc4c(c3)CCCC4)C(=O)NCC(F)F)c12
     RDKit          3D

 36 40  0  0  0  0  0  0  0  0999 V2000
   -3.1632    4.7582  -14.4395 C   0  0  0  0  0  0  0  0  0  0  0  0
   -4.0744    5.8785  -14.9111 C   0  0  0  0  0  0  0  0  0  0  0  0
   -4.8953    5.5026  -16.0939 C   0  0  0  0  0  0  0  0  0  0  0  0
   -4.2559    5.5542  -17.2649 N   0  0  0  0  0  0  0  0  0  0  0  0
   -5.1861    5.2690  -18.1731 N   0  0  0  0  0  0  0  0  0  0  0  0
   -4.8992    5.2587  -19.6156 C   0  0  0  0  0  0  0  0  0  0  0  0
   -3.4054    5.3935  -19.9889 C   0  0  0  0  0  0  0  0  0  0  0  0
   -3.8282    6.2946  -21.1017 N   0  0  0  0  0  0  0  0  0  0  0  0
   -5.0092    6.6505  -20.2636 C   0  0  0  0  0  0  0  0  0  0  0  0
   -6.4147    4.9794  -17.6268 C   0  0  0  0  0  0  0  0  0  0  0  0
   -7.6175    4.6404  -18.2530 C   0  0  0  0  0  0  0  0  0  0  0  0
   -8.7208    4.4353  -17.4466 C   0  0  0  0  0  0  0  0  0  0  0  0
  -10.2331    4.0931  -18.1858 Cl  0  0  0  0  0  0  0  0  0  0  0  0
   -8.6262    4.5576  -16.0644 C   0  0  0  0  0  0  0  0  0  0  0  0
   -7.4091    4.8711  -15.3868 C   0  0  0  0  0  0  0  0  0  0  0  0
   -7.4504    5.1028  -13.8616 C   0  0  1  0  0  0  0  0  0  0  0  0
   -7.4198    6.5259  -13.7766 O   0  0  0  0  0  0  0  0  0  0  0  0
   -8.7139    4.6337  -13.2343 N   0  0  0  0  0  0  0  0  0  0  0  0
   -8.6925    4.6098  -11.8151 C   0  0  0  0  0  0  0  0  0  0  0  0
   -8.7946    3.3891  -11.1340 C   0  0  0  0  0  0  0  0  0  0  0  0
   -8.6226    3.3171   -9.7500 C   0  0  0  0  0  0  0  0  0  0  0  0
   -8.3480    4.4735   -9.0228 C   0  0  0  0  0  0  0  0  0  0  0  0
   -8.2636    5.7042   -9.6884 C   0  0  0  0  0  0  0  0  0  0  0  0
   -8.4740    5.7699  -11.0677 C   0  0  0  0  0  0  0  0  0  0  0  0
   -7.8417    6.9178   -8.9114 C   0  0  0  0  0  0  0  0  0  0  0  0
   -8.5430    6.9799   -7.5644 C   0  0  0  0  0  0  0  0  0  0  0  0
   -8.6400    5.6355   -6.8191 C   0  0  0  0  0  0  0  0  0  0  0  0
   -8.0513    4.4258   -7.5496 C   0  0  0  0  0  0  0  0  0  0  0  0
   -6.2063    4.4527  -13.0567 C   0  0  0  0  0  0  0  0  0  0  0  0
   -5.5143    5.1344  -12.4016 O   0  0  0  0  0  0  0  0  0  0  0  0
   -6.1876    2.9141  -13.2761 N   0  0  0  0  0  0  0  0  0  0  0  0
   -5.3710    1.8827  -12.6583 C   0  0  0  0  0  0  0  0  0  0  0  0
   -4.3883    2.3480  -11.5783 C   0  0  0  0  0  0  0  0  0  0  0  0
   -5.0128    2.4786  -10.3840 F   0  0  0  0  0  0  0  0  0  0  0  0
   -3.4221    1.4029  -11.4006 F   0  0  0  0  0  0  0  0  0  0  0  0
   -6.2700    5.1026  -16.2345 C   0  0  0  0  0  0  0  0  0  0  0  0
  1  2  1  0
  2  3  1  0
  3  4  2  0
  4  5  1  0
  5  6  1  0
  6  7  1  0
  7  8  1  0
  8  9  1  0
  5 10  1  0
 10 11  2  0
 11 12  1  0
 12 13  1  0
 12 14  2  0
 14 15  1  0
 15 16  1  0
 16 17  1  6
 16 18  1  0
 18 19  1  0
 19 20  2  0
 20 21  1  0
 21 22  2  0
 22 23  1  0
 23 24  2  0
 23 25  1  0
 25 26  1  0
 26 27  1  0
 27 28  1  0
 16 29  1  0
 29 30  2  0
 29 31  1  0
 31 32  1  0
 32 33  1  0
 33 34  1  0
 33 35  1  0
 15 36  2  0
 36  3  1  0
  9  6  1  0
 36 10  1  0
 24 19  1  0
 28 22  1  0
M  END
>  <smiles>  (2411) 
C37004-P275

>  <fragmenstein_outcome>  (2411) 
acceptable

>  <inchikey>  (2411) 
HIFGYACEWNPVPD-UHFFFAOYSA-N

>  <fragmenstein_mode>  (2411) 
expansion

>  <HIPPO Pose ID>  (2411) 
28178

>  <Energy>  (2411) 
152.822452

>  <fragmenstein_error>  (2411) 


>  <tags>  (2411) 
{'openbind_xx01zvns2b_c1_fragmenstein', 'fragmenstein_placed'}

>  <ref_pdb>  (2411) 
175

>  <scratch_subdir>  (2411) 
/opt/xchem-fragalysis-2/maxwin/BulkDock/SCRATCH/511028/C37004-P275

>  <alias>  (2411) 
CCc1nn(C2CNC2)c2cc(Cl)cc([C@@](O)(Nc3ccc4c(c3)CCCC4)C(=O)NCC(F)F)c12

>  <HIPPO Compound ID>  (2411) 
20741

>  <fragmenstein_runtime>  (2411) 
15.053987

$$$$
COCCO[C@]1(C)C(=O)N(C2CNC2)c2cc(Cl)cc(C(=O)Nc3ccc4c(c3)CCCC4)c21
     RDKit          3D

 34 38  0  0  0  0  0  0  0  0999 V2000
   -2.7985   10.7290  -16.7391 C   0  0  0  0  0  0  0  0  0  0  0  0
   -3.9915    9.9630  -16.6254 O   0  0  0  0  0  0  0  0  0  0  0  0
   -3.7876    8.8122  -15.8005 C   0  0  0  0  0  0  0  0  0  0  0  0
   -5.0925    8.0263  -15.7147 C   0  0  0  0  0  0  0  0  0  0  0  0
   -4.9194    6.8263  -14.9730 O   0  0  0  0  0  0  0  0  0  0  0  0
   -4.9709    5.6116  -15.7047 C   0  0  2  0  0  0  0  0  0  0  0  0
   -4.4007    4.5389  -14.7724 C   0  0  0  0  0  0  0  0  0  0  0  0
   -4.1404    5.5726  -17.0305 C   0  0  0  0  0  0  0  0  0  0  0  0
   -2.9427    5.8015  -17.1113 O   0  0  0  0  0  0  0  0  0  0  0  0
   -5.0244    5.2720  -18.0796 N   0  0  0  0  0  0  0  0  0  0  0  0
   -4.7318    5.3462  -19.5276 C   0  0  0  0  0  0  0  0  0  0  0  0
   -3.2651    5.4683  -20.0139 C   0  0  0  0  0  0  0  0  0  0  0  0
   -3.7128    6.4916  -20.9868 N   0  0  0  0  0  0  0  0  0  0  0  0
   -4.8786    6.7679  -20.1244 C   0  0  0  0  0  0  0  0  0  0  0  0
   -6.3188    5.0376  -17.5788 C   0  0  0  0  0  0  0  0  0  0  0  0
   -7.4514    4.6693  -18.2867 C   0  0  0  0  0  0  0  0  0  0  0  0
   -8.6340    4.4654  -17.5752 C   0  0  0  0  0  0  0  0  0  0  0  0
  -10.0683    4.0320  -18.4100 Cl  0  0  0  0  0  0  0  0  0  0  0  0
   -8.6942    4.6732  -16.1952 C   0  0  0  0  0  0  0  0  0  0  0  0
   -7.5544    5.0980  -15.5107 C   0  0  0  0  0  0  0  0  0  0  0  0
   -7.7142    5.5940  -14.1340 C   0  0  0  0  0  0  0  0  0  0  0  0
   -7.5822    6.7386  -13.9539 O   0  0  0  0  0  0  0  0  0  0  0  0
   -8.0606    4.4606  -13.1485 N   0  0  0  0  0  0  0  0  0  0  0  0
   -8.2184    4.4817  -11.7682 C   0  0  0  0  0  0  0  0  0  0  0  0
   -8.5116    3.3088  -11.0832 C   0  0  0  0  0  0  0  0  0  0  0  0
   -8.6034    3.3172   -9.6887 C   0  0  0  0  0  0  0  0  0  0  0  0
   -8.4019    4.5013   -8.9656 C   0  0  0  0  0  0  0  0  0  0  0  0
   -8.1396    5.6917   -9.6634 C   0  0  0  0  0  0  0  0  0  0  0  0
   -8.0421    5.6669  -11.0597 C   0  0  0  0  0  0  0  0  0  0  0  0
   -7.8751    6.9940   -8.9561 C   0  0  0  0  0  0  0  0  0  0  0  0
   -8.3825    6.9973   -7.5247 C   0  0  0  0  0  0  0  0  0  0  0  0
   -7.9390    5.7309   -6.7962 C   0  0  0  0  0  0  0  0  0  0  0  0
   -8.5125    4.4771   -7.4613 C   0  0  0  0  0  0  0  0  0  0  0  0
   -6.3536    5.2423  -16.1967 C   0  0  0  0  0  0  0  0  0  0  0  0
  1  2  1  0
  2  3  1  0
  3  4  1  0
  4  5  1  0
  5  6  1  0
  6  7  1  1
  6  8  1  0
  8  9  2  0
  8 10  1  0
 10 11  1  0
 11 12  1  0
 12 13  1  0
 13 14  1  0
 10 15  1  0
 15 16  2  0
 16 17  1  0
 17 18  1  0
 17 19  2  0
 19 20  1  0
 20 21  1  0
 21 22  2  0
 21 23  1  0
 23 24  1  0
 24 25  2  0
 25 26  1  0
 26 27  2  0
 27 28  1  0
 28 29  2  0
 28 30  1  0
 30 31  1  0
 31 32  1  0
 32 33  1  0
 20 34  2  0
 34  6  1  0
 14 11  1  0
 34 15  1  0
 29 24  1  0
 33 27  1  0
M  END
>  <smiles>  (2412) 
C37007-P275

>  <fragmenstein_outcome>  (2412) 
acceptable

>  <inchikey>  (2412) 
WJLOOIFXYJICNZ-UHFFFAOYSA-N

>  <fragmenstein_mode>  (2412) 
expansion

>  <HIPPO Pose ID>  (2412) 
28181

>  <Energy>  (2412) 
125.016728

>  <fragmenstein_error>  (2412) 


>  <tags>  (2412) 
{'openbind_xx01zvns2b_c1_fragmenstein', 'fragmenstein_placed'}

>  <ref_pdb>  (2412) 
175

>  <scratch_subdir>  (2412) 
/opt/xchem-fragalysis-2/maxwin/BulkDock/SCRATCH/511028/C37007-P275

>  <alias>  (2412) 
COCCO[C@]1(C)C(=O)N(C2CNC2)c2cc(Cl)cc(C(=O)Nc3ccc4c(c3)CCCC4)c21

>  <HIPPO Compound ID>  (2412) 
37842

>  <fragmenstein_runtime>  (2412) 
11.812591

$$$$
Cc1cc(NC(=O)c2cc(Cl)cc3c2c[n+]([O-])n3C2CNC2)cc2c1CCCC2
     RDKit          3D

 29 33  0  0  0  0  0  0  0  0999 V2000
   -7.9028    7.0477   -8.7562 C   0  0  0  0  0  0  0  0  0  0  0  0
   -8.1855    5.7268   -9.4175 C   0  0  0  0  0  0  0  0  0  0  0  0
   -8.1018    5.6461  -10.8198 C   0  0  0  0  0  0  0  0  0  0  0  0
   -8.3618    4.4575  -11.5002 C   0  0  0  0  0  0  0  0  0  0  0  0
   -8.2208    4.4002  -12.8941 N   0  0  0  0  0  0  0  0  0  0  0  0
   -7.7174    5.4675  -13.8998 C   0  0  0  0  0  0  0  0  0  0  0  0
   -7.4154    6.5853  -13.7313 O   0  0  0  0  0  0  0  0  0  0  0  0
   -7.6045    4.9875  -15.3031 C   0  0  0  0  0  0  0  0  0  0  0  0
   -8.7378    4.5753  -16.0059 C   0  0  0  0  0  0  0  0  0  0  0  0
   -8.6899    4.4700  -17.3942 C   0  0  0  0  0  0  0  0  0  0  0  0
  -10.1194    4.0441  -18.2526 Cl  0  0  0  0  0  0  0  0  0  0  0  0
   -7.5413    4.7942  -18.1291 C   0  0  0  0  0  0  0  0  0  0  0  0
   -6.3921    5.1669  -17.4227 C   0  0  0  0  0  0  0  0  0  0  0  0
   -6.3839    5.2241  -15.9946 C   0  0  0  0  0  0  0  0  0  0  0  0
   -5.0551    5.5798  -15.5167 C   0  0  0  0  0  0  0  0  0  0  0  0
   -4.2867    5.7439  -16.5986 N   0  0  0  0  0  0  0  0  0  0  0  0
   -3.0756    6.0509  -16.7027 O   0  0  0  0  0  0  0  0  0  0  0  0
   -5.1192    5.5828  -17.7879 N   0  0  0  0  0  0  0  0  0  0  0  0
   -4.6875    6.2670  -19.0197 C   0  0  0  0  0  0  0  0  0  0  0  0
   -3.4303    5.6241  -19.6529 C   0  0  0  0  0  0  0  0  0  0  0  0
   -3.9933    6.0085  -20.9685 N   0  0  0  0  0  0  0  0  0  0  0  0
   -5.3413    5.9322  -20.3522 C   0  0  0  0  0  0  0  0  0  0  0  0
   -8.7332    3.3355  -10.7614 C   0  0  0  0  0  0  0  0  0  0  0  0
   -8.8192    3.3870   -9.3468 C   0  0  0  0  0  0  0  0  0  0  0  0
   -8.5460    4.5873   -8.6692 C   0  0  0  0  0  0  0  0  0  0  0  0
   -8.5592    4.6177   -7.1563 C   0  0  0  0  0  0  0  0  0  0  0  0
   -9.5056    3.6101   -6.5186 C   0  0  0  0  0  0  0  0  0  0  0  0
   -9.2804    2.2181   -7.0652 C   0  0  0  0  0  0  0  0  0  0  0  0
   -9.2138    2.1393   -8.5905 C   0  0  0  0  0  0  0  0  0  0  0  0
  1  2  1  0
  2  3  2  0
  3  4  1  0
  4  5  1  0
  5  6  1  0
  6  7  2  0
  6  8  1  0
  8  9  2  0
  9 10  1  0
 10 11  1  0
 10 12  2  0
 12 13  1  0
 13 14  2  0
 14 15  1  0
 15 16  2  0
 16 17  1  0
 16 18  1  0
 18 19  1  0
 19 20  1  0
 20 21  1  0
 21 22  1  0
  4 23  2  0
 23 24  1  0
 24 25  2  0
 25 26  1  0
 26 27  1  0
 27 28  1  0
 28 29  1  0
 25  2  1  0
 14  8  1  0
 22 19  1  0
 29 24  1  0
 18 13  1  0
M  CHG  2  16   1  17  -1
M  END
>  <smiles>  (2413) 
C37008-P275

>  <fragmenstein_outcome>  (2413) 
acceptable

>  <inchikey>  (2413) 
CCUCUEFINDEPSV-UHFFFAOYSA-N

>  <fragmenstein_mode>  (2413) 
expansion

>  <HIPPO Pose ID>  (2413) 
28182

>  <Energy>  (2413) 
74.21249

>  <fragmenstein_error>  (2413) 


>  <tags>  (2413) 
{'openbind_xx01zvns2b_c1_fragmenstein', 'fragmenstein_placed'}

>  <ref_pdb>  (2413) 
175

>  <scratch_subdir>  (2413) 
/opt/xchem-fragalysis-2/maxwin/BulkDock/SCRATCH/511028/C37008-P275

>  <alias>  (2413) 
Cc1cc(NC(=O)c2cc(Cl)cc3c2c[n+]([O-])n3C2CNC2)cc2c1CCCC2

>  <HIPPO Compound ID>  (2413) 
18109

>  <fragmenstein_runtime>  (2413) 
20.883282

$$$$
CSc1cc2c(cc1NC(=O)c1cc(Cl)cc3c1cnn3C1CNC1)CCCC2
     RDKit          3D

 29 33  0  0  0  0  0  0  0  0999 V2000
   -6.6407    8.0008  -11.2191 C   0  0  0  0  0  0  0  0  0  0  0  0
   -8.3164    7.4488  -11.6321 S   0  0  0  0  0  0  0  0  0  0  0  0
   -8.2588    5.8110  -10.8853 C   0  0  0  0  0  0  0  0  0  0  0  0
   -8.3204    5.8045   -9.4803 C   0  0  0  0  0  0  0  0  0  0  0  0
   -8.5388    4.6300   -8.7526 C   0  0  0  0  0  0  0  0  0  0  0  0
   -8.7337    3.4342   -9.4487 C   0  0  0  0  0  0  0  0  0  0  0  0
   -8.6375    3.4253  -10.8602 C   0  0  0  0  0  0  0  0  0  0  0  0
   -8.3764    4.5984  -11.5911 C   0  0  0  0  0  0  0  0  0  0  0  0
   -8.2536    4.4860  -12.9921 N   0  0  0  0  0  0  0  0  0  0  0  0
   -7.4056    5.3092  -13.9990 C   0  0  0  0  0  0  0  0  0  0  0  0
   -6.7382    6.2561  -13.8323 O   0  0  0  0  0  0  0  0  0  0  0  0
   -7.5276    4.8748  -15.4188 C   0  0  0  0  0  0  0  0  0  0  0  0
   -8.7498    4.5225  -16.0059 C   0  0  0  0  0  0  0  0  0  0  0  0
   -8.8449    4.3837  -17.3935 C   0  0  0  0  0  0  0  0  0  0  0  0
  -10.3702    4.0857  -18.1279 Cl  0  0  0  0  0  0  0  0  0  0  0  0
   -7.7475    4.5770  -18.2379 C   0  0  0  0  0  0  0  0  0  0  0  0
   -6.5292    4.9108  -17.6384 C   0  0  0  0  0  0  0  0  0  0  0  0
   -6.4009    5.0477  -16.2572 C   0  0  0  0  0  0  0  0  0  0  0  0
   -5.0445    5.3940  -16.0657 C   0  0  0  0  0  0  0  0  0  0  0  0
   -4.3579    5.4528  -17.2050 N   0  0  0  0  0  0  0  0  0  0  0  0
   -5.2813    5.1986  -18.1507 N   0  0  0  0  0  0  0  0  0  0  0  0
   -4.9655    5.2207  -19.5866 C   0  0  0  0  0  0  0  0  0  0  0  0
   -3.4626    5.3619  -19.9217 C   0  0  0  0  0  0  0  0  0  0  0  0
   -3.8602    6.2822  -21.0288 N   0  0  0  0  0  0  0  0  0  0  0  0
   -5.0555    6.6276  -20.2060 C   0  0  0  0  0  0  0  0  0  0  0  0
   -9.0079    2.1559   -8.6957 C   0  0  0  0  0  0  0  0  0  0  0  0
   -9.5628    2.3726   -7.2891 C   0  0  0  0  0  0  0  0  0  0  0  0
   -8.7648    3.4054   -6.5146 C   0  0  0  0  0  0  0  0  0  0  0  0
   -8.6749    4.7314   -7.2545 C   0  0  0  0  0  0  0  0  0  0  0  0
  1  2  1  0
  2  3  1  0
  3  4  2  0
  4  5  1  0
  5  6  2  0
  6  7  1  0
  7  8  2  0
  8  9  1  0
  9 10  1  0
 10 11  2  0
 10 12  1  0
 12 13  2  0
 13 14  1  0
 14 15  1  0
 14 16  2  0
 16 17  1  0
 17 18  2  0
 18 19  1  0
 19 20  2  0
 20 21  1  0
 21 22  1  0
 22 23  1  0
 23 24  1  0
 24 25  1  0
  6 26  1  0
 26 27  1  0
 27 28  1  0
 28 29  1  0
  8  3  1  0
 18 12  1  0
 25 22  1  0
 29  5  1  0
 21 17  1  0
M  END
>  <smiles>  (2414) 
C37009-P275

>  <fragmenstein_outcome>  (2414) 
acceptable

>  <inchikey>  (2414) 
KTRYNWBUPOFVAM-UHFFFAOYSA-N

>  <fragmenstein_mode>  (2414) 
expansion

>  <HIPPO Pose ID>  (2414) 
28183

>  <Energy>  (2414) 
86.439288

>  <fragmenstein_error>  (2414) 


>  <tags>  (2414) 
{'openbind_xx01zvns2b_c1_fragmenstein', 'fragmenstein_placed'}

>  <ref_pdb>  (2414) 
175

>  <scratch_subdir>  (2414) 
/opt/xchem-fragalysis-2/maxwin/BulkDock/SCRATCH/511028/C37009-P275

>  <alias>  (2414) 
CSc1cc2c(cc1NC(=O)c1cc(Cl)cc3c1cnn3C1CNC1)CCCC2

>  <HIPPO Compound ID>  (2414) 
37009

>  <fragmenstein_runtime>  (2414) 
17.372215

$$$$
CO[C@@]1(C)C(=O)N(C2CNC2)c2cc(Cl)cc(C(=O)Nc3ccc4c(c3)CCCC4)c21
     RDKit          3D

 31 35  0  0  0  0  0  0  0  0999 V2000
   -3.3359    4.4665  -14.2807 C   0  0  0  0  0  0  0  0  0  0  0  0
   -4.6647    4.4112  -14.7767 O   0  0  0  0  0  0  0  0  0  0  0  0
   -5.0758    5.5239  -15.5695 C   0  0  1  0  0  0  0  0  0  0  0  0
   -4.9749    6.8559  -14.8233 C   0  0  0  0  0  0  0  0  0  0  0  0
   -4.3083    5.6668  -16.9286 C   0  0  0  0  0  0  0  0  0  0  0  0
   -3.1544    6.0615  -17.0367 O   0  0  0  0  0  0  0  0  0  0  0  0
   -5.1787    5.2965  -17.9639 N   0  0  0  0  0  0  0  0  0  0  0  0
   -4.9027    5.3948  -19.4162 C   0  0  0  0  0  0  0  0  0  0  0  0
   -3.4349    5.4031  -19.9140 C   0  0  0  0  0  0  0  0  0  0  0  0
   -3.7891    6.5067  -20.8353 N   0  0  0  0  0  0  0  0  0  0  0  0
   -4.9373    6.8381  -19.9710 C   0  0  0  0  0  0  0  0  0  0  0  0
   -6.4493    4.9958  -17.4395 C   0  0  0  0  0  0  0  0  0  0  0  0
   -7.5871    4.6249  -18.1332 C   0  0  0  0  0  0  0  0  0  0  0  0
   -8.7493    4.3867  -17.4008 C   0  0  0  0  0  0  0  0  0  0  0  0
  -10.1937    3.9865  -18.2332 Cl  0  0  0  0  0  0  0  0  0  0  0  0
   -8.7852    4.5517  -16.0119 C   0  0  0  0  0  0  0  0  0  0  0  0
   -7.6412    4.9680  -15.3306 C   0  0  0  0  0  0  0  0  0  0  0  0
   -7.7978    5.4706  -13.9487 C   0  0  0  0  0  0  0  0  0  0  0  0
   -7.7171    6.6283  -13.8124 O   0  0  0  0  0  0  0  0  0  0  0  0
   -8.0907    4.3582  -12.9164 N   0  0  0  0  0  0  0  0  0  0  0  0
   -8.2467    4.4254  -11.5285 C   0  0  0  0  0  0  0  0  0  0  0  0
   -8.0875    5.6376  -10.8622 C   0  0  0  0  0  0  0  0  0  0  0  0
   -8.2183    5.7082   -9.4742 C   0  0  0  0  0  0  0  0  0  0  0  0
   -8.5177    4.5673   -8.7210 C   0  0  0  0  0  0  0  0  0  0  0  0
   -8.7092    3.3464   -9.3836 C   0  0  0  0  0  0  0  0  0  0  0  0
   -8.5514    3.2816  -10.7870 C   0  0  0  0  0  0  0  0  0  0  0  0
   -9.0300    2.0960   -8.6019 C   0  0  0  0  0  0  0  0  0  0  0  0
   -9.5978    2.3607   -7.2094 C   0  0  0  0  0  0  0  0  0  0  0  0
   -8.7917    3.4033   -6.4564 C   0  0  0  0  0  0  0  0  0  0  0  0
   -8.6902    4.7106   -7.2298 C   0  0  0  0  0  0  0  0  0  0  0  0
   -6.4622    5.1639  -16.0490 C   0  0  0  0  0  0  0  0  0  0  0  0
  1  2  1  0
  2  3  1  0
  3  4  1  1
  3  5  1  0
  5  6  2  0
  5  7  1  0
  7  8  1  0
  8  9  1  0
  9 10  1  0
 10 11  1  0
  7 12  1  0
 12 13  2  0
 13 14  1  0
 14 15  1  0
 14 16  2  0
 16 17  1  0
 17 18  1  0
 18 19  2  0
 18 20  1  0
 20 21  1  0
 21 22  2  0
 22 23  1  0
 23 24  2  0
 24 25  1  0
 25 26  2  0
 25 27  1  0
 27 28  1  0
 28 29  1  0
 29 30  1  0
 17 31  2  0
 31  3  1  0
 11  8  1  0
 31 12  1  0
 26 21  1  0
 30 24  1  0
M  END
>  <smiles>  (2415) 
C37011-P275

>  <fragmenstein_outcome>  (2415) 
acceptable

>  <inchikey>  (2415) 
WBALRDIIJLXHIU-UHFFFAOYSA-N

>  <fragmenstein_mode>  (2415) 
expansion

>  <HIPPO Pose ID>  (2415) 
28185

>  <Energy>  (2415) 
101.805466

>  <fragmenstein_error>  (2415) 


>  <tags>  (2415) 
{'openbind_xx01zvns2b_c1_fragmenstein', 'fragmenstein_placed'}

>  <ref_pdb>  (2415) 
175

>  <scratch_subdir>  (2415) 
/opt/xchem-fragalysis-2/maxwin/BulkDock/SCRATCH/511028/C37011-P275

>  <alias>  (2415) 
CO[C@@]1(C)C(=O)N(C2CNC2)c2cc(Cl)cc(C(=O)Nc3ccc4c(c3)CCCC4)c21

>  <HIPPO Compound ID>  (2415) 
39382

>  <fragmenstein_runtime>  (2415) 
15.203831

$$$$
O=C(O)C[C@H]1CCCc2cc(NC(=O)c3cc(Cl)cc4c3cnn4C3CNC3)ccc21
     RDKit          3D

 31 35  0  0  0  0  0  0  0  0999 V2000
   -7.7816    7.8024   -7.1429 O   0  0  0  0  0  0  0  0  0  0  0  0
   -7.8452    6.7780   -6.4848 C   0  0  0  0  0  0  0  0  0  0  0  0
   -8.6967    6.6627   -5.4550 O   0  0  0  0  0  0  0  0  0  0  0  0
   -7.0244    5.5410   -6.6820 C   0  0  0  0  0  0  0  0  0  0  0  0
   -7.7400    4.3878   -7.3999 C   0  0  1  0  0  0  0  0  0  0  0  0
   -8.9544    3.8392   -6.6481 C   0  0  0  0  0  0  0  0  0  0  0  0
   -9.4885    2.5364   -7.2577 C   0  0  0  0  0  0  0  0  0  0  0  0
   -9.0262    2.2262   -8.6881 C   0  0  0  0  0  0  0  0  0  0  0  0
   -8.6774    3.4428   -9.5128 C   0  0  0  0  0  0  0  0  0  0  0  0
   -8.7945    3.4261  -10.9155 C   0  0  0  0  0  0  0  0  0  0  0  0
   -8.3951    4.5349  -11.6557 C   0  0  0  0  0  0  0  0  0  0  0  0
   -8.3251    4.5015  -13.0457 N   0  0  0  0  0  0  0  0  0  0  0  0
   -7.8723    5.5803  -14.0530 C   0  0  0  0  0  0  0  0  0  0  0  0
   -7.5598    6.6929  -13.8818 O   0  0  0  0  0  0  0  0  0  0  0  0
   -7.7225    5.0858  -15.4335 C   0  0  0  0  0  0  0  0  0  0  0  0
   -8.7956    4.5685  -16.1515 C   0  0  0  0  0  0  0  0  0  0  0  0
   -8.6847    4.4338  -17.5329 C   0  0  0  0  0  0  0  0  0  0  0  0
  -10.0689    3.9416  -18.4188 Cl  0  0  0  0  0  0  0  0  0  0  0  0
   -7.5221    4.7911  -18.2332 C   0  0  0  0  0  0  0  0  0  0  0  0
   -6.4407    5.2769  -17.4852 C   0  0  0  0  0  0  0  0  0  0  0  0
   -6.5172    5.3955  -16.0983 C   0  0  0  0  0  0  0  0  0  0  0  0
   -5.2636    5.9098  -15.7079 C   0  0  0  0  0  0  0  0  0  0  0  0
   -4.4563    6.1295  -16.7407 N   0  0  0  0  0  0  0  0  0  0  0  0
   -5.2052    5.7998  -17.8150 N   0  0  0  0  0  0  0  0  0  0  0  0
   -4.8310    6.3411  -19.1297 C   0  0  0  0  0  0  0  0  0  0  0  0
   -3.3044    6.3066  -19.3616 C   0  0  0  0  0  0  0  0  0  0  0  0
   -3.5670    5.8831  -20.7506 N   0  0  0  0  0  0  0  0  0  0  0  0
   -4.8841    5.3668  -20.2954 C   0  0  0  0  0  0  0  0  0  0  0  0
   -7.9431    5.6752  -10.9940 C   0  0  0  0  0  0  0  0  0  0  0  0
   -7.7756    5.6800   -9.6144 C   0  0  0  0  0  0  0  0  0  0  0  0
   -8.0974    4.5533   -8.8642 C   0  0  0  0  0  0  0  0  0  0  0  0
  1  2  2  0
  2  3  1  0
  2  4  1  0
  5  4  1  1
  5  6  1  0
  6  7  1  0
  7  8  1  0
  8  9  1  0
  9 10  2  0
 10 11  1  0
 11 12  1  0
 12 13  1  0
 13 14  2  0
 13 15  1  0
 15 16  2  0
 16 17  1  0
 17 18  1  0
 17 19  2  0
 19 20  1  0
 20 21  2  0
 21 22  1  0
 22 23  2  0
 23 24  1  0
 24 25  1  0
 25 26  1  0
 26 27  1  0
 27 28  1  0
 11 29  2  0
 29 30  1  0
 30 31  2  0
 31  5  1  0
 31  9  1  0
 21 15  1  0
 28 25  1  0
 24 20  1  0
M  END
>  <smiles>  (2416) 
C37012-P275

>  <fragmenstein_outcome>  (2416) 
acceptable

>  <inchikey>  (2416) 
YBGDCCIFIOXAGO-UHFFFAOYSA-N

>  <fragmenstein_mode>  (2416) 
expansion

>  <HIPPO Pose ID>  (2416) 
28186

>  <Energy>  (2416) 
53.27675

>  <fragmenstein_error>  (2416) 


>  <tags>  (2416) 
{'openbind_xx01zvns2b_c1_fragmenstein', 'fragmenstein_placed'}

>  <ref_pdb>  (2416) 
175

>  <scratch_subdir>  (2416) 
/opt/xchem-fragalysis-2/maxwin/BulkDock/SCRATCH/511028/C37012-P275

>  <alias>  (2416) 
O=C(O)C[C@H]1CCCc2cc(NC(=O)c3cc(Cl)cc4c3cnn4C3CNC3)ccc21

>  <HIPPO Compound ID>  (2416) 
37012

>  <fragmenstein_runtime>  (2416) 
14.206914

$$$$
CC(C)O[C@]1(C)C(=O)N(C2CNC2)c2cc(Cl)cc(C(=O)Nc3ccc4c(c3)CCCC4)c21
     RDKit          3D

 33 37  0  0  0  0  0  0  0  0999 V2000
   -3.0595    8.1712  -14.9927 C   0  0  0  0  0  0  0  0  0  0  0  0
   -4.5013    7.9521  -14.5490 C   0  0  0  0  0  0  0  0  0  0  0  0
   -5.1728    9.3070  -14.3278 C   0  0  0  0  0  0  0  0  0  0  0  0
   -5.2687    7.2850  -15.5465 O   0  0  0  0  0  0  0  0  0  0  0  0
   -5.1012    5.8819  -15.7476 C   0  0  2  0  0  0  0  0  0  0  0  0
   -4.5498    5.0465  -14.5921 C   0  0  0  0  0  0  0  0  0  0  0  0
   -4.2302    5.6756  -17.0252 C   0  0  0  0  0  0  0  0  0  0  0  0
   -3.0121    5.7765  -17.0750 O   0  0  0  0  0  0  0  0  0  0  0  0
   -5.0972    5.3631  -18.0830 N   0  0  0  0  0  0  0  0  0  0  0  0
   -4.7483    5.2648  -19.5078 C   0  0  0  0  0  0  0  0  0  0  0  0
   -3.2733    5.4356  -19.9562 C   0  0  0  0  0  0  0  0  0  0  0  0
   -3.7751    6.1851  -21.1446 N   0  0  0  0  0  0  0  0  0  0  0  0
   -4.9482    6.5707  -20.3153 C   0  0  0  0  0  0  0  0  0  0  0  0
   -6.3917    5.1212  -17.5931 C   0  0  0  0  0  0  0  0  0  0  0  0
   -7.5034    4.6844  -18.2905 C   0  0  0  0  0  0  0  0  0  0  0  0
   -8.6784    4.4588  -17.5725 C   0  0  0  0  0  0  0  0  0  0  0  0
  -10.0994    3.9782  -18.4018 Cl  0  0  0  0  0  0  0  0  0  0  0  0
   -8.7480    4.6834  -16.1938 C   0  0  0  0  0  0  0  0  0  0  0  0
   -7.6323    5.1767  -15.5192 C   0  0  0  0  0  0  0  0  0  0  0  0
   -7.7783    5.6487  -14.1262 C   0  0  0  0  0  0  0  0  0  0  0  0
   -7.5549    6.7725  -13.9110 O   0  0  0  0  0  0  0  0  0  0  0  0
   -8.1768    4.5079  -13.1689 N   0  0  0  0  0  0  0  0  0  0  0  0
   -8.2876    4.4892  -11.7830 C   0  0  0  0  0  0  0  0  0  0  0  0
   -8.6273    3.3074  -11.1313 C   0  0  0  0  0  0  0  0  0  0  0  0
   -8.6391    3.2524   -9.7354 C   0  0  0  0  0  0  0  0  0  0  0  0
   -8.3255    4.3883   -8.9856 C   0  0  0  0  0  0  0  0  0  0  0  0
   -8.0079    5.5856   -9.6427 C   0  0  0  0  0  0  0  0  0  0  0  0
   -7.9923    5.6303  -11.0381 C   0  0  0  0  0  0  0  0  0  0  0  0
   -7.5985    6.7772   -8.8243 C   0  0  0  0  0  0  0  0  0  0  0  0
   -8.4963    6.9184   -7.6048 C   0  0  0  0  0  0  0  0  0  0  0  0
   -8.6863    5.6156   -6.8075 C   0  0  0  0  0  0  0  0  0  0  0  0
   -8.2039    4.3315   -7.4883 C   0  0  0  0  0  0  0  0  0  0  0  0
   -6.4450    5.3720  -16.2215 C   0  0  0  0  0  0  0  0  0  0  0  0
  1  2  1  0
  2  3  1  0
  2  4  1  0
  4  5  1  0
  5  6  1  1
  5  7  1  0
  7  8  2  0
  7  9  1  0
  9 10  1  0
 10 11  1  0
 11 12  1  0
 12 13  1  0
  9 14  1  0
 14 15  2  0
 15 16  1  0
 16 17  1  0
 16 18  2  0
 18 19  1  0
 19 20  1  0
 20 21  2  0
 20 22  1  0
 22 23  1  0
 23 24  2  0
 24 25  1  0
 25 26  2  0
 26 27  1  0
 27 28  2  0
 27 29  1  0
 29 30  1  0
 30 31  1  0
 31 32  1  0
 19 33  2  0
 33  5  1  0
 13 10  1  0
 33 14  1  0
 28 23  1  0
 32 26  1  0
M  END
>  <smiles>  (2417) 
C37013-P275

>  <fragmenstein_outcome>  (2417) 
acceptable

>  <inchikey>  (2417) 
RNPVISUASCAWBG-UHFFFAOYSA-N

>  <fragmenstein_mode>  (2417) 
expansion

>  <HIPPO Pose ID>  (2417) 
28187

>  <Energy>  (2417) 
113.975087

>  <fragmenstein_error>  (2417) 


>  <tags>  (2417) 
{'openbind_xx01zvns2b_c1_fragmenstein', 'fragmenstein_placed'}

>  <ref_pdb>  (2417) 
175

>  <scratch_subdir>  (2417) 
/opt/xchem-fragalysis-2/maxwin/BulkDock/SCRATCH/511028/C37013-P275

>  <alias>  (2417) 
CC(C)O[C@]1(C)C(=O)N(C2CNC2)c2cc(Cl)cc(C(=O)Nc3ccc4c(c3)CCCC4)c21

>  <HIPPO Compound ID>  (2417) 
36738

>  <fragmenstein_runtime>  (2417) 
10.627723

$$$$
NC1(n2ncc3c(C(=O)Nc4ccc5c(c4)CCCC5)cc(Cl)cc32)CNC1
     RDKit          3D

 28 32  0  0  0  0  0  0  0  0999 V2000
   -5.5241    7.4922  -19.1189 N   0  0  0  0  0  0  0  0  0  0  0  0
   -4.8823    6.1643  -18.9057 C   0  0  0  0  0  0  0  0  0  0  0  0
   -5.1911    5.4652  -17.6280 N   0  0  0  0  0  0  0  0  0  0  0  0
   -4.3873    5.6673  -16.5579 N   0  0  0  0  0  0  0  0  0  0  0  0
   -5.1854    5.4705  -15.5115 C   0  0  0  0  0  0  0  0  0  0  0  0
   -6.4887    5.0862  -15.8854 C   0  0  0  0  0  0  0  0  0  0  0  0
   -7.7016    4.8595  -15.2037 C   0  0  0  0  0  0  0  0  0  0  0  0
   -7.8122    5.3476  -13.8094 C   0  0  0  0  0  0  0  0  0  0  0  0
   -7.5394    6.4728  -13.6464 O   0  0  0  0  0  0  0  0  0  0  0  0
   -8.2626    4.2685  -12.7973 N   0  0  0  0  0  0  0  0  0  0  0  0
   -8.3765    4.3207  -11.4035 C   0  0  0  0  0  0  0  0  0  0  0  0
   -8.1203    5.5083  -10.7218 C   0  0  0  0  0  0  0  0  0  0  0  0
   -8.2211    5.5681   -9.3300 C   0  0  0  0  0  0  0  0  0  0  0  0
   -8.5692    4.4359   -8.5854 C   0  0  0  0  0  0  0  0  0  0  0  0
   -8.8340    3.2358   -9.2605 C   0  0  0  0  0  0  0  0  0  0  0  0
   -8.7289    3.1873  -10.6697 C   0  0  0  0  0  0  0  0  0  0  0  0
   -9.1706    1.9866   -8.4845 C   0  0  0  0  0  0  0  0  0  0  0  0
   -9.7302    2.2598   -7.0907 C   0  0  0  0  0  0  0  0  0  0  0  0
   -8.8817    3.2604   -6.3282 C   0  0  0  0  0  0  0  0  0  0  0  0
   -8.7247    4.5696   -7.0912 C   0  0  0  0  0  0  0  0  0  0  0  0
   -8.8288    4.4725  -15.9312 C   0  0  0  0  0  0  0  0  0  0  0  0
   -8.7582    4.3749  -17.3211 C   0  0  0  0  0  0  0  0  0  0  0  0
  -10.1808    4.0246  -18.2208 Cl  0  0  0  0  0  0  0  0  0  0  0  0
   -7.5845    4.6645  -18.0282 C   0  0  0  0  0  0  0  0  0  0  0  0
   -6.4545    5.0194  -17.2792 C   0  0  0  0  0  0  0  0  0  0  0  0
   -3.3661    6.2472  -19.2078 C   0  0  0  0  0  0  0  0  0  0  0  0
   -3.6620    5.9548  -20.6310 N   0  0  0  0  0  0  0  0  0  0  0  0
   -4.9405    5.3319  -20.1843 C   0  0  0  0  0  0  0  0  0  0  0  0
  1  2  1  0
  2  3  1  0
  3  4  1  0
  4  5  2  0
  5  6  1  0
  6  7  2  0
  7  8  1  0
  8  9  2  0
  8 10  1  0
 10 11  1  0
 11 12  2  0
 12 13  1  0
 13 14  2  0
 14 15  1  0
 15 16  2  0
 15 17  1  0
 17 18  1  0
 18 19  1  0
 19 20  1  0
  7 21  1  0
 21 22  2  0
 22 23  1  0
 22 24  1  0
 24 25  2  0
  2 26  1  0
 26 27  1  0
 27 28  1  0
 28  2  1  0
 25  3  1  0
 25  6  1  0
 16 11  1  0
 20 14  1  0
M  END
>  <smiles>  (2418) 
C37015-P275

>  <fragmenstein_outcome>  (2418) 
acceptable

>  <inchikey>  (2418) 
YTBGOEVGZUSBHY-UHFFFAOYSA-N

>  <fragmenstein_mode>  (2418) 
expansion

>  <HIPPO Pose ID>  (2418) 
28189

>  <Energy>  (2418) 
130.520503

>  <fragmenstein_error>  (2418) 


>  <tags>  (2418) 
{'openbind_xx01zvns2b_c1_fragmenstein', 'fragmenstein_placed'}

>  <ref_pdb>  (2418) 
175

>  <scratch_subdir>  (2418) 
/opt/xchem-fragalysis-2/maxwin/BulkDock/SCRATCH/511028/C37015-P275

>  <alias>  (2418) 
NC1(n2ncc3c(C(=O)Nc4ccc5c(c4)CCCC5)cc(Cl)cc32)CNC1

>  <HIPPO Compound ID>  (2418) 
37015

>  <fragmenstein_runtime>  (2418) 
15.389917

$$$$
N#Cc1csc2cc(C(=O)Nc3ccc4c(c3)CCCC4)c3cnn(C4CNC4)c3c12
     RDKit          3D

 31 36  0  0  0  0  0  0  0  0999 V2000
   -6.6920    3.5677  -21.0915 N   0  0  0  0  0  0  0  0  0  0  0  0
   -7.1780    3.9558  -20.1141 C   0  0  0  0  0  0  0  0  0  0  0  0
   -7.9599    4.3076  -18.9930 C   0  0  0  0  0  0  0  0  0  0  0  0
   -9.3245    4.2228  -19.1631 C   0  0  0  0  0  0  0  0  0  0  0  0
  -10.1747    4.2826  -17.7155 S   0  0  0  0  0  0  0  0  0  0  0  0
   -8.7390    4.5881  -16.8301 C   0  0  0  0  0  0  0  0  0  0  0  0
   -8.6245    4.7908  -15.4523 C   0  0  0  0  0  0  0  0  0  0  0  0
   -7.3692    5.1235  -14.9252 C   0  0  0  0  0  0  0  0  0  0  0  0
   -7.2502    5.5036  -13.4979 C   0  0  0  0  0  0  0  0  0  0  0  0
   -6.6694    6.4881  -13.2533 O   0  0  0  0  0  0  0  0  0  0  0  0
   -7.9466    4.4885  -12.5571 N   0  0  0  0  0  0  0  0  0  0  0  0
   -8.1472    4.5225  -11.1787 C   0  0  0  0  0  0  0  0  0  0  0  0
   -7.7998    5.6534  -10.4457 C   0  0  0  0  0  0  0  0  0  0  0  0
   -7.9683    5.6740   -9.0614 C   0  0  0  0  0  0  0  0  0  0  0  0
   -8.4854    4.5623   -8.3858 C   0  0  0  0  0  0  0  0  0  0  0  0
   -8.8410    3.4200   -9.1175 C   0  0  0  0  0  0  0  0  0  0  0  0
   -8.6853    3.4155  -10.5200 C   0  0  0  0  0  0  0  0  0  0  0  0
   -9.4447    2.2206   -8.4290 C   0  0  0  0  0  0  0  0  0  0  0  0
   -9.3678    2.2161   -6.9029 C   0  0  0  0  0  0  0  0  0  0  0  0
   -9.5738    3.5944   -6.3022 C   0  0  0  0  0  0  0  0  0  0  0  0
   -8.5744    4.5893   -6.8809 C   0  0  0  0  0  0  0  0  0  0  0  0
   -6.2487    5.2485  -15.7699 C   0  0  0  0  0  0  0  0  0  0  0  0
   -4.8963    5.5733  -15.5956 C   0  0  0  0  0  0  0  0  0  0  0  0
   -4.2223    5.5513  -16.7386 N   0  0  0  0  0  0  0  0  0  0  0  0
   -5.1541    5.2729  -17.6871 N   0  0  0  0  0  0  0  0  0  0  0  0
   -4.7231    5.3181  -19.1004 C   0  0  0  0  0  0  0  0  0  0  0  0
   -3.2732    5.8242  -19.3271 C   0  0  0  0  0  0  0  0  0  0  0  0
   -3.7808    6.6040  -20.4800 N   0  0  0  0  0  0  0  0  0  0  0  0
   -5.1102    6.6226  -19.8290 C   0  0  0  0  0  0  0  0  0  0  0  0
   -6.3855    5.0235  -17.1399 C   0  0  0  0  0  0  0  0  0  0  0  0
   -7.6201    4.6751  -17.6610 C   0  0  0  0  0  0  0  0  0  0  0  0
  1  2  3  0
  2  3  1  0
  3  4  2  0
  4  5  1  0
  5  6  1  0
  6  7  2  0
  7  8  1  0
  8  9  1  0
  9 10  2  0
  9 11  1  0
 11 12  1  0
 12 13  2  0
 13 14  1  0
 14 15  2  0
 15 16  1  0
 16 17  2  0
 16 18  1  0
 18 19  1  0
 19 20  1  0
 20 21  1  0
  8 22  2  0
 22 23  1  0
 23 24  2  0
 24 25  1  0
 25 26  1  0
 26 27  1  0
 27 28  1  0
 28 29  1  0
 25 30  1  0
 30 31  2  0
 31  3  1  0
 31  6  1  0
 17 12  1  0
 30 22  1  0
 21 15  1  0
 29 26  1  0
M  END
>  <smiles>  (2419) 
C37018-P275

>  <fragmenstein_outcome>  (2419) 
acceptable

>  <inchikey>  (2419) 
JOEOHSUMSLFAGI-UHFFFAOYSA-N

>  <fragmenstein_mode>  (2419) 
expansion

>  <HIPPO Pose ID>  (2419) 
28192

>  <Energy>  (2419) 
102.825364

>  <fragmenstein_error>  (2419) 


>  <tags>  (2419) 
{'openbind_xx01zvns2b_c1_fragmenstein', 'fragmenstein_placed'}

>  <ref_pdb>  (2419) 
175

>  <scratch_subdir>  (2419) 
/opt/xchem-fragalysis-2/maxwin/BulkDock/SCRATCH/511028/C37018-P275

>  <alias>  (2419) 
N#Cc1csc2cc(C(=O)Nc3ccc4c(c3)CCCC4)c3cnn(C4CNC4)c3c12

>  <HIPPO Compound ID>  (2419) 
37018

>  <fragmenstein_runtime>  (2419) 
22.836704

$$$$
O=C(Nc1cc2c(c(-c3ccncc3)c1)CCCC2)c1cc(Cl)cc2c1c[n+]([O-])n2C1CNC1
     RDKit          3D

 34 39  0  0  0  0  0  0  0  0999 V2000
   -7.5440    6.4842  -13.7035 O   0  0  0  0  0  0  0  0  0  0  0  0
   -7.7890    5.3506  -13.8491 C   0  0  0  0  0  0  0  0  0  0  0  0
   -8.2347    4.2823  -12.8249 N   0  0  0  0  0  0  0  0  0  0  0  0
   -8.3760    4.3590  -11.4376 C   0  0  0  0  0  0  0  0  0  0  0  0
   -8.7094    3.2458  -10.6750 C   0  0  0  0  0  0  0  0  0  0  0  0
   -8.8124    3.3378   -9.2680 C   0  0  0  0  0  0  0  0  0  0  0  0
   -8.5636    4.5666   -8.6183 C   0  0  0  0  0  0  0  0  0  0  0  0
   -8.2386    5.7007   -9.3967 C   0  0  0  0  0  0  0  0  0  0  0  0
   -7.9568    7.0277   -8.8308 C   0  0  0  0  0  0  0  0  0  0  0  0
   -8.9659    7.9771   -8.6511 C   0  0  0  0  0  0  0  0  0  0  0  0
   -8.6302    9.2283   -8.1602 C   0  0  0  0  0  0  0  0  0  0  0  0
   -7.3677    9.6087   -7.8703 N   0  0  0  0  0  0  0  0  0  0  0  0
   -6.4041    8.6837   -8.0643 C   0  0  0  0  0  0  0  0  0  0  0  0
   -6.6436    7.4022   -8.5335 C   0  0  0  0  0  0  0  0  0  0  0  0
   -8.1483    5.5703  -10.7926 C   0  0  0  0  0  0  0  0  0  0  0  0
   -8.7140    4.6929   -7.1165 C   0  0  0  0  0  0  0  0  0  0  0  0
   -8.8188    3.3831   -6.3450 C   0  0  0  0  0  0  0  0  0  0  0  0
   -9.6643    2.3598   -7.0778 C   0  0  0  0  0  0  0  0  0  0  0  0
   -9.1248    2.0883   -8.4774 C   0  0  0  0  0  0  0  0  0  0  0  0
   -7.6354    4.8409  -15.2256 C   0  0  0  0  0  0  0  0  0  0  0  0
   -8.7650    4.5190  -15.9765 C   0  0  0  0  0  0  0  0  0  0  0  0
   -8.6661    4.4263  -17.3597 C   0  0  0  0  0  0  0  0  0  0  0  0
  -10.0825    4.0807  -18.2755 Cl  0  0  0  0  0  0  0  0  0  0  0  0
   -7.4682    4.6909  -18.0364 C   0  0  0  0  0  0  0  0  0  0  0  0
   -6.3236    4.9557  -17.2704 C   0  0  0  0  0  0  0  0  0  0  0  0
   -6.3691    4.9824  -15.8454 C   0  0  0  0  0  0  0  0  0  0  0  0
   -5.0396    5.2100  -15.2979 C   0  0  0  0  0  0  0  0  0  0  0  0
   -4.2112    5.3297  -16.3416 N   0  0  0  0  0  0  0  0  0  0  0  0
   -2.9690    5.4990  -16.3804 O   0  0  0  0  0  0  0  0  0  0  0  0
   -5.0074    5.2777  -17.5709 N   0  0  0  0  0  0  0  0  0  0  0  0
   -4.5201    6.0011  -18.7583 C   0  0  0  0  0  0  0  0  0  0  0  0
   -3.2565    5.3683  -19.3867 C   0  0  0  0  0  0  0  0  0  0  0  0
   -3.7907    5.8051  -20.7000 N   0  0  0  0  0  0  0  0  0  0  0  0
   -5.1531    5.7054  -20.1167 C   0  0  0  0  0  0  0  0  0  0  0  0
  1  2  2  0
  2  3  1  0
  3  4  1  0
  4  5  2  0
  5  6  1  0
  6  7  2  0
  7  8  1  0
  8  9  1  0
  9 10  2  0
 10 11  1  0
 11 12  2  0
 12 13  1  0
 13 14  2  0
  8 15  2  0
  7 16  1  0
 16 17  1  0
 17 18  1  0
 18 19  1  0
  2 20  1  0
 20 21  2  0
 21 22  1  0
 22 23  1  0
 22 24  2  0
 24 25  1  0
 25 26  2  0
 26 27  1  0
 27 28  2  0
 28 29  1  0
 28 30  1  0
 30 31  1  0
 31 32  1  0
 32 33  1  0
 33 34  1  0
 15  4  1  0
 26 20  1  0
 34 31  1  0
 19  6  1  0
 30 25  1  0
 14  9  1  0
M  CHG  2  28   1  29  -1
M  END
>  <smiles>  (2420) 
C37019-P275

>  <fragmenstein_outcome>  (2420) 
acceptable

>  <inchikey>  (2420) 
SRVWTHLIRXJFNL-UHFFFAOYSA-N

>  <fragmenstein_mode>  (2420) 
expansion

>  <HIPPO Pose ID>  (2420) 
28193

>  <Energy>  (2420) 
84.406039

>  <fragmenstein_error>  (2420) 


>  <tags>  (2420) 
{'openbind_xx01zvns2b_c1_fragmenstein', 'fragmenstein_placed'}

>  <ref_pdb>  (2420) 
175

>  <scratch_subdir>  (2420) 
/opt/xchem-fragalysis-2/maxwin/BulkDock/SCRATCH/511028/C37019-P275

>  <alias>  (2420) 
O=C(Nc1cc2c(c(-c3ccncc3)c1)CCCC2)c1cc(Cl)cc2c1c[n+]([O-])n2C1CNC1

>  <HIPPO Compound ID>  (2420) 
37019

>  <fragmenstein_runtime>  (2420) 
20.688892

$$$$
C[C@@]12Cn3cc4c(C(=O)Nc5ccc6c(c5)CCCC6)cc(Cl)cc4c3[C@@H]1CCN2
     RDKit          3D

 30 35  0  0  0  0  0  0  0  0999 V2000
   -4.5608    7.6595  -20.1672 C   0  0  0  0  0  0  0  0  0  0  0  0
   -3.7595    6.7881  -19.2082 C   0  0  1  0  0  0  0  0  0  0  0  0
   -3.7985    7.2809  -17.7053 C   0  0  0  0  0  0  0  0  0  0  0  0
   -4.7790    6.3917  -17.0904 N   0  0  0  0  0  0  0  0  0  0  0  0
   -5.4258    6.3469  -15.8978 C   0  0  0  0  0  0  0  0  0  0  0  0
   -6.5197    5.5238  -16.1054 C   0  0  0  0  0  0  0  0  0  0  0  0
   -7.6047    5.2845  -15.2480 C   0  0  0  0  0  0  0  0  0  0  0  0
   -7.7043    5.7864  -13.8592 C   0  0  0  0  0  0  0  0  0  0  0  0
   -7.4124    6.9042  -13.6703 O   0  0  0  0  0  0  0  0  0  0  0  0
   -8.1811    4.6874  -12.8663 N   0  0  0  0  0  0  0  0  0  0  0  0
   -8.3006    4.7126  -11.4698 C   0  0  0  0  0  0  0  0  0  0  0  0
   -7.9536    5.8544  -10.7519 C   0  0  0  0  0  0  0  0  0  0  0  0
   -8.0239    5.8689   -9.3552 C   0  0  0  0  0  0  0  0  0  0  0  0
   -8.4626    4.7463   -8.6439 C   0  0  0  0  0  0  0  0  0  0  0  0
   -8.8363    3.5966   -9.3532 C   0  0  0  0  0  0  0  0  0  0  0  0
   -8.7466    3.5869  -10.7673 C   0  0  0  0  0  0  0  0  0  0  0  0
   -9.4163    2.4034   -8.6327 C   0  0  0  0  0  0  0  0  0  0  0  0
   -9.2991    2.4081   -7.1087 C   0  0  0  0  0  0  0  0  0  0  0  0
   -9.4282    3.7910   -6.4954 C   0  0  0  0  0  0  0  0  0  0  0  0
   -8.4562    4.7744   -7.1369 C   0  0  0  0  0  0  0  0  0  0  0  0
   -8.6718    4.6680  -15.9448 C   0  0  0  0  0  0  0  0  0  0  0  0
   -8.6168    4.3361  -17.3480 C   0  0  0  0  0  0  0  0  0  0  0  0
  -10.0858    3.8670  -18.1278 Cl  0  0  0  0  0  0  0  0  0  0  0  0
   -7.4769    4.4620  -18.1725 C   0  0  0  0  0  0  0  0  0  0  0  0
   -6.4518    5.0683  -17.4703 C   0  0  0  0  0  0  0  0  0  0  0  0
   -5.2306    5.4335  -17.9580 C   0  0  0  0  0  0  0  0  0  0  0  0
   -4.3526    5.3559  -19.1459 C   0  0  2  0  0  0  0  0  0  0  0  0
   -3.0609    4.5790  -18.9221 C   0  0  0  0  0  0  0  0  0  0  0  0
   -2.0786    5.2610  -19.8512 C   0  0  0  0  0  0  0  0  0  0  0  0
   -2.3709    6.6931  -19.7296 N   0  0  0  0  0  0  0  0  0  0  0  0
  2  1  1  6
  2  3  1  0
  3  4  1  0
  4  5  1  0
  5  6  2  0
  6  7  1  0
  7  8  1  0
  8  9  2  0
  8 10  1  0
 10 11  1  0
 11 12  2  0
 12 13  1  0
 13 14  2  0
 14 15  1  0
 15 16  2  0
 15 17  1  0
 17 18  1  0
 18 19  1  0
 19 20  1  0
  7 21  2  0
 21 22  1  0
 22 23  1  0
 22 24  2  0
 24 25  1  0
 25 26  2  0
 26 27  1  0
 27 28  1  1
 28 29  1  0
 29 30  1  0
 27  2  1  0
 30  2  1  0
 26  4  1  0
 25  6  1  0
 16 11  1  0
 20 14  1  0
M  END
>  <smiles>  (2421) 
C37021-P275

>  <fragmenstein_outcome>  (2421) 
acceptable

>  <inchikey>  (2421) 
KRIHGECVGQDSJY-UHFFFAOYSA-N

>  <fragmenstein_mode>  (2421) 
expansion

>  <HIPPO Pose ID>  (2421) 
28194

>  <Energy>  (2421) 
109.651861

>  <fragmenstein_error>  (2421) 


>  <tags>  (2421) 
{'openbind_xx01zvns2b_c1_fragmenstein', 'fragmenstein_placed'}

>  <ref_pdb>  (2421) 
175

>  <scratch_subdir>  (2421) 
/opt/xchem-fragalysis-2/maxwin/BulkDock/SCRATCH/511028/C37021-P275

>  <alias>  (2421) 
C[C@@]12Cn3cc4c(C(=O)Nc5ccc6c(c5)CCCC6)cc(Cl)cc4c3[C@@H]1CCN2

>  <HIPPO Compound ID>  (2421) 
37021

>  <fragmenstein_runtime>  (2421) 
26.065144

$$$$
O=C(O)C[C@@](O)(Nc1ccc2c(c1)CCCC2)c1cc(Cl)cc2c1cnn2C1CNC1
     RDKit          3D

 31 35  0  0  0  0  0  0  0  0999 V2000
   -5.9224    7.9926  -14.8582 O   0  0  0  0  0  0  0  0  0  0  0  0
   -5.7539    7.2313  -13.9191 C   0  0  0  0  0  0  0  0  0  0  0  0
   -4.5214    7.0527  -13.4076 O   0  0  0  0  0  0  0  0  0  0  0  0
   -6.8235    6.4858  -13.1838 C   0  0  0  0  0  0  0  0  0  0  0  0
   -7.0612    5.0120  -13.5605 C   0  0  1  0  0  0  0  0  0  0  0  0
   -5.9524    4.2210  -13.1713 O   0  0  0  0  0  0  0  0  0  0  0  0
   -8.2309    4.4391  -12.8436 N   0  0  0  0  0  0  0  0  0  0  0  0
   -8.3794    4.4855  -11.4417 C   0  0  0  0  0  0  0  0  0  0  0  0
   -8.4028    5.6817  -10.7216 C   0  0  0  0  0  0  0  0  0  0  0  0
   -8.4762    5.7131   -9.3241 C   0  0  0  0  0  0  0  0  0  0  0  0
   -8.6203    4.5385   -8.5873 C   0  0  0  0  0  0  0  0  0  0  0  0
   -8.7158    3.3278   -9.2810 C   0  0  0  0  0  0  0  0  0  0  0  0
   -8.5591    3.3105  -10.6923 C   0  0  0  0  0  0  0  0  0  0  0  0
   -8.9761    2.0438   -8.5300 C   0  0  0  0  0  0  0  0  0  0  0  0
   -9.5712    2.2523   -7.1372 C   0  0  0  0  0  0  0  0  0  0  0  0
   -8.8160    3.3081   -6.3515 C   0  0  0  0  0  0  0  0  0  0  0  0
   -8.7842    4.6370   -7.0914 C   0  0  0  0  0  0  0  0  0  0  0  0
   -7.2116    4.8479  -15.0951 C   0  0  0  0  0  0  0  0  0  0  0  0
   -8.4682    4.6174  -15.7169 C   0  0  0  0  0  0  0  0  0  0  0  0
   -8.6100    4.5215  -17.1089 C   0  0  0  0  0  0  0  0  0  0  0  0
  -10.1306    4.1605  -17.8285 Cl  0  0  0  0  0  0  0  0  0  0  0  0
   -7.5443    4.7395  -17.9728 C   0  0  0  0  0  0  0  0  0  0  0  0
   -6.3000    4.9491  -17.3844 C   0  0  0  0  0  0  0  0  0  0  0  0
   -6.1099    4.9479  -16.0015 C   0  0  0  0  0  0  0  0  0  0  0  0
   -4.7007    5.0412  -15.8714 C   0  0  0  0  0  0  0  0  0  0  0  0
   -4.0632    5.1863  -17.0328 N   0  0  0  0  0  0  0  0  0  0  0  0
   -5.0548    5.1528  -17.9405 N   0  0  0  0  0  0  0  0  0  0  0  0
   -4.8167    5.1929  -19.3927 C   0  0  0  0  0  0  0  0  0  0  0  0
   -3.3473    5.3887  -19.8189 C   0  0  0  0  0  0  0  0  0  0  0  0
   -3.8468    6.2933  -20.8984 N   0  0  0  0  0  0  0  0  0  0  0  0
   -5.0024    6.5927  -20.0035 C   0  0  0  0  0  0  0  0  0  0  0  0
  1  2  2  0
  2  3  1  0
  2  4  1  0
  4  5  1  0
  5  6  1  1
  5  7  1  0
  7  8  1  0
  8  9  2  0
  9 10  1  0
 10 11  2  0
 11 12  1  0
 12 13  2  0
 12 14  1  0
 14 15  1  0
 15 16  1  0
 16 17  1  0
  5 18  1  0
 18 19  2  0
 19 20  1  0
 20 21  1  0
 20 22  2  0
 22 23  1  0
 23 24  2  0
 24 25  1  0
 25 26  2  0
 26 27  1  0
 27 28  1  0
 28 29  1  0
 29 30  1  0
 30 31  1  0
 13  8  1  0
 24 18  1  0
 31 28  1  0
 17 11  1  0
 27 23  1  0
M  END
>  <smiles>  (2422) 
C37025-P275

>  <fragmenstein_outcome>  (2422) 
acceptable

>  <inchikey>  (2422) 
FIGWNNGEFWPDPU-UHFFFAOYSA-N

>  <fragmenstein_mode>  (2422) 
expansion

>  <HIPPO Pose ID>  (2422) 
28197

>  <Energy>  (2422) 
-6.239976

>  <fragmenstein_error>  (2422) 


>  <tags>  (2422) 
{'openbind_xx01zvns2b_c1_fragmenstein', 'fragmenstein_placed'}

>  <ref_pdb>  (2422) 
175

>  <scratch_subdir>  (2422) 
/opt/xchem-fragalysis-2/maxwin/BulkDock/SCRATCH/511028/C37025-P275

>  <alias>  (2422) 
O=C(O)C[C@@](O)(Nc1ccc2c(c1)CCCC2)c1cc(Cl)cc2c1cnn2C1CNC1

>  <HIPPO Compound ID>  (2422) 
37025

>  <fragmenstein_runtime>  (2422) 
11.694247

$$$$
O=C(Nc1cc(Br)c2c(c1)CCCC2)c1cc(Cl)cc2c1cnn2C1CNC1
     RDKit          3D

 28 32  0  0  0  0  0  0  0  0999 V2000
   -7.2004    6.5037  -13.6820 O   0  0  0  0  0  0  0  0  0  0  0  0
   -7.6237    5.4324  -13.8832 C   0  0  0  0  0  0  0  0  0  0  0  0
   -8.1487    4.3598  -12.8981 N   0  0  0  0  0  0  0  0  0  0  0  0
   -8.3445    4.4156  -11.5137 C   0  0  0  0  0  0  0  0  0  0  0  0
   -8.1367    5.6134  -10.8360 C   0  0  0  0  0  0  0  0  0  0  0  0
   -8.2666    5.6800   -9.4455 C   0  0  0  0  0  0  0  0  0  0  0  0
   -8.0026    7.3832   -8.6481 Br  0  0  0  0  0  0  0  0  0  0  0  0
   -8.5889    4.5442   -8.6854 C   0  0  0  0  0  0  0  0  0  0  0  0
   -8.8304    3.3391   -9.3715 C   0  0  0  0  0  0  0  0  0  0  0  0
   -8.7028    3.2851  -10.7822 C   0  0  0  0  0  0  0  0  0  0  0  0
   -9.1621    2.0758   -8.6103 C   0  0  0  0  0  0  0  0  0  0  0  0
   -9.7246    2.3139   -7.2131 C   0  0  0  0  0  0  0  0  0  0  0  0
   -8.8820    3.3063   -6.4408 C   0  0  0  0  0  0  0  0  0  0  0  0
   -8.7392    4.6300   -7.1810 C   0  0  0  0  0  0  0  0  0  0  0  0
   -7.5661    4.9875  -15.2976 C   0  0  0  0  0  0  0  0  0  0  0  0
   -8.7028    4.5764  -15.9930 C   0  0  0  0  0  0  0  0  0  0  0  0
   -8.6556    4.4763  -17.3834 C   0  0  0  0  0  0  0  0  0  0  0  0
  -10.0840    4.0464  -18.2431 Cl  0  0  0  0  0  0  0  0  0  0  0  0
   -7.5052    4.8039  -18.1193 C   0  0  0  0  0  0  0  0  0  0  0  0
   -6.3542    5.1748  -17.4074 C   0  0  0  0  0  0  0  0  0  0  0  0
   -6.3679    5.2255  -16.0090 C   0  0  0  0  0  0  0  0  0  0  0  0
   -5.0529    5.5805  -15.6480 C   0  0  0  0  0  0  0  0  0  0  0  0
   -4.2550    5.7290  -16.7000 N   0  0  0  0  0  0  0  0  0  0  0  0
   -5.0847    5.6041  -17.7614 N   0  0  0  0  0  0  0  0  0  0  0  0
   -4.6560    6.2703  -19.0010 C   0  0  0  0  0  0  0  0  0  0  0  0
   -3.3922    5.6215  -19.6070 C   0  0  0  0  0  0  0  0  0  0  0  0
   -3.9425    5.9831  -20.9379 N   0  0  0  0  0  0  0  0  0  0  0  0
   -5.2965    5.9004  -20.3301 C   0  0  0  0  0  0  0  0  0  0  0  0
  1  2  2  0
  2  3  1  0
  3  4  1  0
  4  5  2  0
  5  6  1  0
  6  7  1  0
  6  8  2  0
  8  9  1  0
  9 10  2  0
  9 11  1  0
 11 12  1  0
 12 13  1  0
 13 14  1  0
  2 15  1  0
 15 16  2  0
 16 17  1  0
 17 18  1  0
 17 19  2  0
 19 20  1  0
 20 21  2  0
 21 22  1  0
 22 23  2  0
 23 24  1  0
 24 25  1  0
 25 26  1  0
 26 27  1  0
 27 28  1  0
 10  4  1  0
 21 15  1  0
 28 25  1  0
 14  8  1  0
 24 20  1  0
M  END
>  <smiles>  (2423) 
C37026-P275

>  <fragmenstein_outcome>  (2423) 
acceptable

>  <inchikey>  (2423) 
VREHJJZBXCWDHC-UHFFFAOYSA-N

>  <fragmenstein_mode>  (2423) 
expansion

>  <HIPPO Pose ID>  (2423) 
28198

>  <Energy>  (2423) 
68.354983

>  <fragmenstein_error>  (2423) 


>  <tags>  (2423) 
{'openbind_xx01zvns2b_c1_fragmenstein', 'fragmenstein_placed'}

>  <ref_pdb>  (2423) 
175

>  <scratch_subdir>  (2423) 
/opt/xchem-fragalysis-2/maxwin/BulkDock/SCRATCH/511028/C37026-P275

>  <alias>  (2423) 
O=C(Nc1cc(Br)c2c(c1)CCCC2)c1cc(Cl)cc2c1cnn2C1CNC1

>  <HIPPO Compound ID>  (2423) 
37026

>  <fragmenstein_runtime>  (2423) 
24.22181

$$$$
CNCn1cc2c(C(=O)Nc3ccc4c(c3)CCCC4)cc(Cl)cc2c1C1CNC1
     RDKit          3D

 30 34  0  0  0  0  0  0  0  0999 V2000
   -1.6940    5.6051  -15.8997 C   0  0  0  0  0  0  0  0  0  0  0  0
   -2.3481    6.8114  -15.4305 N   0  0  0  0  0  0  0  0  0  0  0  0
   -3.3407    7.3211  -16.3731 C   0  0  0  0  0  0  0  0  0  0  0  0
   -4.5106    6.4435  -16.4317 N   0  0  0  0  0  0  0  0  0  0  0  0
   -5.2936    6.1649  -15.3335 C   0  0  0  0  0  0  0  0  0  0  0  0
   -6.4253    5.5320  -15.7713 C   0  0  0  0  0  0  0  0  0  0  0  0
   -7.5307    5.1753  -14.9854 C   0  0  0  0  0  0  0  0  0  0  0  0
   -7.6828    5.6073  -13.5729 C   0  0  0  0  0  0  0  0  0  0  0  0
   -7.4312    6.7282  -13.3502 O   0  0  0  0  0  0  0  0  0  0  0  0
   -8.0581    4.4508  -12.6096 N   0  0  0  0  0  0  0  0  0  0  0  0
   -8.2873    4.4561  -11.2251 C   0  0  0  0  0  0  0  0  0  0  0  0
   -8.1220    5.6294  -10.4907 C   0  0  0  0  0  0  0  0  0  0  0  0
   -8.2661    5.6312   -9.0993 C   0  0  0  0  0  0  0  0  0  0  0  0
   -8.6016    4.4610   -8.4102 C   0  0  0  0  0  0  0  0  0  0  0  0
   -8.7825    3.2754   -9.1333 C   0  0  0  0  0  0  0  0  0  0  0  0
   -8.6220    3.2832  -10.5420 C   0  0  0  0  0  0  0  0  0  0  0  0
   -9.1654    1.9956   -8.4289 C   0  0  0  0  0  0  0  0  0  0  0  0
   -9.2958    2.0513   -6.9036 C   0  0  0  0  0  0  0  0  0  0  0  0
   -9.6512    3.4207   -6.3603 C   0  0  0  0  0  0  0  0  0  0  0  0
   -8.7045    4.4809   -6.9078 C   0  0  0  0  0  0  0  0  0  0  0  0
   -8.5523    4.6154  -15.7767 C   0  0  0  0  0  0  0  0  0  0  0  0
   -8.4422    4.4755  -17.2086 C   0  0  0  0  0  0  0  0  0  0  0  0
   -9.8240    3.8946  -18.0723 Cl  0  0  0  0  0  0  0  0  0  0  0  0
   -7.3243    4.8593  -17.9940 C   0  0  0  0  0  0  0  0  0  0  0  0
   -6.3167    5.3892  -17.1940 C   0  0  0  0  0  0  0  0  0  0  0  0
   -5.1244    5.9687  -17.5835 C   0  0  0  0  0  0  0  0  0  0  0  0
   -4.5423    6.2384  -19.0100 C   0  0  0  0  0  0  0  0  0  0  0  0
   -3.1249    5.6518  -19.2494 C   0  0  0  0  0  0  0  0  0  0  0  0
   -3.4997    5.4333  -20.6532 N   0  0  0  0  0  0  0  0  0  0  0  0
   -4.9215    5.3650  -20.2080 C   0  0  0  0  0  0  0  0  0  0  0  0
  1  2  1  0
  2  3  1  0
  3  4  1  0
  4  5  1  0
  5  6  2  0
  6  7  1  0
  7  8  1  0
  8  9  2  0
  8 10  1  0
 10 11  1  0
 11 12  2  0
 12 13  1  0
 13 14  2  0
 14 15  1  0
 15 16  2  0
 15 17  1  0
 17 18  1  0
 18 19  1  0
 19 20  1  0
  7 21  2  0
 21 22  1  0
 22 23  1  0
 22 24  2  0
 24 25  1  0
 25 26  2  0
 26 27  1  0
 27 28  1  0
 28 29  1  0
 29 30  1  0
 26  4  1  0
 30 27  1  0
 25  6  1  0
 16 11  1  0
 20 14  1  0
M  END
>  <smiles>  (2424) 
C37034-P275

>  <fragmenstein_outcome>  (2424) 
acceptable

>  <inchikey>  (2424) 
AYQAFZSIUVNPTL-UHFFFAOYSA-N

>  <fragmenstein_mode>  (2424) 
expansion

>  <HIPPO Pose ID>  (2424) 
28202

>  <Energy>  (2424) 
101.797045

>  <fragmenstein_error>  (2424) 


>  <tags>  (2424) 
{'openbind_xx01zvns2b_c1_fragmenstein', 'fragmenstein_placed'}

>  <ref_pdb>  (2424) 
175

>  <scratch_subdir>  (2424) 
/opt/xchem-fragalysis-2/maxwin/BulkDock/SCRATCH/511028/C37034-P275

>  <alias>  (2424) 
CNCn1cc2c(C(=O)Nc3ccc4c(c3)CCCC4)cc(Cl)cc2c1C1CNC1

>  <HIPPO Compound ID>  (2424) 
37034

>  <fragmenstein_runtime>  (2424) 
15.929257

$$$$
C[C@H]1CCc2ccc(NC(=O)c3cc(Cl)cc4c3cnn4C3CNC3)cc2C1
     RDKit          3D

 28 32  0  0  0  0  0  0  0  0999 V2000
   -7.2318    1.9035   -9.0541 C   0  0  0  0  0  0  0  0  0  0  0  0
   -8.6225    2.0430   -8.3900 C   0  0  1  0  0  0  0  0  0  0  0  0
   -8.6979    3.0610   -7.2344 C   0  0  0  0  0  0  0  0  0  0  0  0
   -8.4039    4.5086   -7.6707 C   0  0  0  0  0  0  0  0  0  0  0  0
   -8.5319    4.7576   -9.1575 C   0  0  0  0  0  0  0  0  0  0  0  0
   -7.9924    5.9042   -9.7435 C   0  0  0  0  0  0  0  0  0  0  0  0
   -7.9107    6.0152  -11.1400 C   0  0  0  0  0  0  0  0  0  0  0  0
   -8.3679    4.9821  -11.9523 C   0  0  0  0  0  0  0  0  0  0  0  0
   -8.2129    4.9451  -13.3278 N   0  0  0  0  0  0  0  0  0  0  0  0
   -7.4630    5.8955  -14.2740 C   0  0  0  0  0  0  0  0  0  0  0  0
   -6.9200    6.9037  -14.0581 O   0  0  0  0  0  0  0  0  0  0  0  0
   -7.4648    5.3635  -15.6607 C   0  0  0  0  0  0  0  0  0  0  0  0
   -8.6191    4.8214  -16.2440 C   0  0  0  0  0  0  0  0  0  0  0  0
   -8.6239    4.4891  -17.5956 C   0  0  0  0  0  0  0  0  0  0  0  0
  -10.0872    3.9577  -18.3184 Cl  0  0  0  0  0  0  0  0  0  0  0  0
   -7.4937    4.6573  -18.3986 C   0  0  0  0  0  0  0  0  0  0  0  0
   -6.3388    5.1658  -17.7896 C   0  0  0  0  0  0  0  0  0  0  0  0
   -6.3041    5.5111  -16.4407 C   0  0  0  0  0  0  0  0  0  0  0  0
   -4.9908    5.9763  -16.2235 C   0  0  0  0  0  0  0  0  0  0  0  0
   -4.2449    5.9417  -17.3262 N   0  0  0  0  0  0  0  0  0  0  0  0
   -5.0862    5.4759  -18.2726 N   0  0  0  0  0  0  0  0  0  0  0  0
   -4.7196    5.4040  -19.6969 C   0  0  0  0  0  0  0  0  0  0  0  0
   -3.2075    5.4914  -19.9828 C   0  0  0  0  0  0  0  0  0  0  0  0
   -3.5100    6.4652  -21.0578 N   0  0  0  0  0  0  0  0  0  0  0  0
   -4.7870    6.7814  -20.3812 C   0  0  0  0  0  0  0  0  0  0  0  0
   -8.9701    3.8794  -11.3809 C   0  0  0  0  0  0  0  0  0  0  0  0
   -9.0744    3.7761   -9.9980 C   0  0  0  0  0  0  0  0  0  0  0  0
   -9.6278    2.5134   -9.4234 C   0  0  0  0  0  0  0  0  0  0  0  0
  2  1  1  6
  2  3  1  0
  3  4  1  0
  4  5  1  0
  5  6  2  0
  6  7  1  0
  7  8  2  0
  8  9  1  0
  9 10  1  0
 10 11  2  0
 10 12  1  0
 12 13  2  0
 13 14  1  0
 14 15  1  0
 14 16  2  0
 16 17  1  0
 17 18  2  0
 18 19  1  0
 19 20  2  0
 20 21  1  0
 21 22  1  0
 22 23  1  0
 23 24  1  0
 24 25  1  0
  8 26  1  0
 26 27  2  0
 27 28  1  0
 28  2  1  0
 27  5  1  0
 18 12  1  0
 25 22  1  0
 21 17  1  0
M  END
>  <smiles>  (2425) 
C37047-P275

>  <fragmenstein_outcome>  (2425) 
acceptable

>  <inchikey>  (2425) 
WVFWOZFTBLQHEA-UHFFFAOYSA-N

>  <fragmenstein_mode>  (2425) 
expansion

>  <HIPPO Pose ID>  (2425) 
28203

>  <Energy>  (2425) 
76.129556

>  <fragmenstein_error>  (2425) 


>  <tags>  (2425) 
{'openbind_xx01zvns2b_c1_fragmenstein', 'fragmenstein_placed'}

>  <ref_pdb>  (2425) 
175

>  <scratch_subdir>  (2425) 
/opt/xchem-fragalysis-2/maxwin/BulkDock/SCRATCH/511028/C37047-P275

>  <alias>  (2425) 
C[C@H]1CCc2ccc(NC(=O)c3cc(Cl)cc4c3cnn4C3CNC3)cc2C1

>  <HIPPO Compound ID>  (2425) 
37047

>  <fragmenstein_runtime>  (2425) 
15.092517

$$$$
O=C(Nc1cc(F)c2c(c1)CCCC2)c1cc(Cl)cc2c1cnn2C1CNC1
     RDKit          3D

 28 32  0  0  0  0  0  0  0  0999 V2000
   -7.2757    6.5619  -13.7023 O   0  0  0  0  0  0  0  0  0  0  0  0
   -7.6663    5.4767  -13.8933 C   0  0  0  0  0  0  0  0  0  0  0  0
   -8.2444    4.4311  -12.9096 N   0  0  0  0  0  0  0  0  0  0  0  0
   -8.3701    4.4664  -11.5159 C   0  0  0  0  0  0  0  0  0  0  0  0
   -8.1349    5.6573  -10.8328 C   0  0  0  0  0  0  0  0  0  0  0  0
   -8.2357    5.6985   -9.4464 C   0  0  0  0  0  0  0  0  0  0  0  0
   -8.0219    6.8672   -8.8230 F   0  0  0  0  0  0  0  0  0  0  0  0
   -8.5570    4.5655   -8.6966 C   0  0  0  0  0  0  0  0  0  0  0  0
   -8.8083    3.3637   -9.3750 C   0  0  0  0  0  0  0  0  0  0  0  0
   -8.7098    3.3233  -10.7871 C   0  0  0  0  0  0  0  0  0  0  0  0
   -9.1191    2.1054   -8.5983 C   0  0  0  0  0  0  0  0  0  0  0  0
   -9.6480    2.3578   -7.1875 C   0  0  0  0  0  0  0  0  0  0  0  0
   -8.8099    3.3800   -6.4412 C   0  0  0  0  0  0  0  0  0  0  0  0
   -8.6966    4.6944   -7.2017 C   0  0  0  0  0  0  0  0  0  0  0  0
   -7.5836    5.0106  -15.2998 C   0  0  0  0  0  0  0  0  0  0  0  0
   -8.7117    4.5846  -16.0012 C   0  0  0  0  0  0  0  0  0  0  0  0
   -8.6540    4.4741  -17.3899 C   0  0  0  0  0  0  0  0  0  0  0  0
  -10.0755    4.0349  -18.2557 Cl  0  0  0  0  0  0  0  0  0  0  0  0
   -7.5000    4.8017  -18.1189 C   0  0  0  0  0  0  0  0  0  0  0  0
   -6.3566    5.1853  -17.4011 C   0  0  0  0  0  0  0  0  0  0  0  0
   -6.3815    5.2500  -16.0030 C   0  0  0  0  0  0  0  0  0  0  0  0
   -5.0725    5.6193  -15.6358 C   0  0  0  0  0  0  0  0  0  0  0  0
   -4.2674    5.7620  -16.6831 N   0  0  0  0  0  0  0  0  0  0  0  0
   -5.0874    5.6193  -17.7500 N   0  0  0  0  0  0  0  0  0  0  0  0
   -4.6526    6.2734  -18.9942 C   0  0  0  0  0  0  0  0  0  0  0  0
   -3.3888    5.6165  -19.5912 C   0  0  0  0  0  0  0  0  0  0  0  0
   -3.9328    5.9732  -20.9262 N   0  0  0  0  0  0  0  0  0  0  0  0
   -5.2894    5.8955  -20.3231 C   0  0  0  0  0  0  0  0  0  0  0  0
  1  2  2  0
  2  3  1  0
  3  4  1  0
  4  5  2  0
  5  6  1  0
  6  7  1  0
  6  8  2  0
  8  9  1  0
  9 10  2  0
  9 11  1  0
 11 12  1  0
 12 13  1  0
 13 14  1  0
  2 15  1  0
 15 16  2  0
 16 17  1  0
 17 18  1  0
 17 19  2  0
 19 20  1  0
 20 21  2  0
 21 22  1  0
 22 23  2  0
 23 24  1  0
 24 25  1  0
 25 26  1  0
 26 27  1  0
 27 28  1  0
 10  4  1  0
 21 15  1  0
 28 25  1  0
 14  8  1  0
 24 20  1  0
M  END
>  <smiles>  (2426) 
C37048-P275

>  <fragmenstein_outcome>  (2426) 
acceptable

>  <inchikey>  (2426) 
XFCXJPMWVFCQJJ-UHFFFAOYSA-N

>  <fragmenstein_mode>  (2426) 
expansion

>  <HIPPO Pose ID>  (2426) 
28204

>  <Energy>  (2426) 
63.426551

>  <fragmenstein_error>  (2426) 


>  <tags>  (2426) 
{'openbind_xx01zvns2b_c1_fragmenstein', 'fragmenstein_placed'}

>  <ref_pdb>  (2426) 
175

>  <scratch_subdir>  (2426) 
/opt/xchem-fragalysis-2/maxwin/BulkDock/SCRATCH/511028/C37048-P275

>  <alias>  (2426) 
O=C(Nc1cc(F)c2c(c1)CCCC2)c1cc(Cl)cc2c1cnn2C1CNC1

>  <HIPPO Compound ID>  (2426) 
20754

>  <fragmenstein_runtime>  (2426) 
16.817504

$$$$
N#Cc1cc(NC(=O)c2cc(Cl)cc3c2cnn3C2CNC2)cc2c1CCCC2
     RDKit          3D

 29 33  0  0  0  0  0  0  0  0999 V2000
   -8.3842    8.1545   -8.5544 N   0  0  0  0  0  0  0  0  0  0  0  0
   -8.3387    7.0899   -9.0133 C   0  0  0  0  0  0  0  0  0  0  0  0
   -8.3416    5.7959   -9.6301 C   0  0  0  0  0  0  0  0  0  0  0  0
   -8.1468    5.7415  -11.0192 C   0  0  0  0  0  0  0  0  0  0  0  0
   -8.2558    4.5369  -11.7045 C   0  0  0  0  0  0  0  0  0  0  0  0
   -8.0364    4.4735  -13.0811 N   0  0  0  0  0  0  0  0  0  0  0  0
   -7.6202    5.5750  -14.0835 C   0  0  0  0  0  0  0  0  0  0  0  0
   -7.3211    6.6897  -13.9026 O   0  0  0  0  0  0  0  0  0  0  0  0
   -7.5861    5.0965  -15.4823 C   0  0  0  0  0  0  0  0  0  0  0  0
   -8.7413    4.6151  -16.1046 C   0  0  0  0  0  0  0  0  0  0  0  0
   -8.7475    4.4110  -17.4829 C   0  0  0  0  0  0  0  0  0  0  0  0
  -10.2134    3.9785  -18.2633 Cl  0  0  0  0  0  0  0  0  0  0  0  0
   -7.6154    4.6349  -18.2719 C   0  0  0  0  0  0  0  0  0  0  0  0
   -6.4586    5.0858  -17.6249 C   0  0  0  0  0  0  0  0  0  0  0  0
   -6.4265    5.3237  -16.2517 C   0  0  0  0  0  0  0  0  0  0  0  0
   -5.1229    5.8050  -16.0079 C   0  0  0  0  0  0  0  0  0  0  0  0
   -4.3749    5.8531  -17.1105 N   0  0  0  0  0  0  0  0  0  0  0  0
   -5.2039    5.4231  -18.0851 N   0  0  0  0  0  0  0  0  0  0  0  0
   -4.8189    5.3900  -19.5086 C   0  0  0  0  0  0  0  0  0  0  0  0
   -3.3028    5.4759  -19.7755 C   0  0  0  0  0  0  0  0  0  0  0  0
   -3.5948    6.4607  -20.8449 N   0  0  0  0  0  0  0  0  0  0  0  0
   -4.8667    6.7844  -20.1595 C   0  0  0  0  0  0  0  0  0  0  0  0
   -8.5747    3.3849  -10.9939 C   0  0  0  0  0  0  0  0  0  0  0  0
   -8.7499    3.4212   -9.5940 C   0  0  0  0  0  0  0  0  0  0  0  0
   -8.5961    4.6260   -8.8898 C   0  0  0  0  0  0  0  0  0  0  0  0
   -8.7589    4.6750   -7.3828 C   0  0  0  0  0  0  0  0  0  0  0  0
   -8.8572    3.3240   -6.6800 C   0  0  0  0  0  0  0  0  0  0  0  0
   -9.6494    2.3160   -7.4855 C   0  0  0  0  0  0  0  0  0  0  0  0
   -9.0591    2.1373   -8.8757 C   0  0  0  0  0  0  0  0  0  0  0  0
  1  2  3  0
  2  3  1  0
  3  4  2  0
  4  5  1  0
  5  6  1  0
  6  7  1  0
  7  8  2  0
  7  9  1  0
  9 10  2  0
 10 11  1  0
 11 12  1  0
 11 13  2  0
 13 14  1  0
 14 15  2  0
 15 16  1  0
 16 17  2  0
 17 18  1  0
 18 19  1  0
 19 20  1  0
 20 21  1  0
 21 22  1  0
  5 23  2  0
 23 24  1  0
 24 25  2  0
 25 26  1  0
 26 27  1  0
 27 28  1  0
 28 29  1  0
 25  3  1  0
 15  9  1  0
 22 19  1  0
 29 24  1  0
 18 14  1  0
M  END
>  <smiles>  (2427) 
C37051-P275

>  <fragmenstein_outcome>  (2427) 
acceptable

>  <inchikey>  (2427) 
TXSQKJBIEPOGTM-UHFFFAOYSA-N

>  <fragmenstein_mode>  (2427) 
expansion

>  <HIPPO Pose ID>  (2427) 
28206

>  <Energy>  (2427) 
70.064123

>  <fragmenstein_error>  (2427) 


>  <tags>  (2427) 
{'openbind_xx01zvns2b_c1_fragmenstein', 'fragmenstein_placed'}

>  <ref_pdb>  (2427) 
175

>  <scratch_subdir>  (2427) 
/opt/xchem-fragalysis-2/maxwin/BulkDock/SCRATCH/511028/C37051-P275

>  <alias>  (2427) 
N#Cc1cc(NC(=O)c2cc(Cl)cc3c2cnn3C2CNC2)cc2c1CCCC2

>  <HIPPO Compound ID>  (2427) 
22354

>  <fragmenstein_runtime>  (2427) 
18.939942

$$$$
O=C(Nc1ccc2c(c1)C[C@H](F)CC2)c1cc(Cl)cc2c1cnn2C1CNC1
     RDKit          3D

 28 32  0  0  0  0  0  0  0  0999 V2000
   -7.2428    6.5353  -13.5211 O   0  0  0  0  0  0  0  0  0  0  0  0
   -7.6113    5.4410  -13.7062 C   0  0  0  0  0  0  0  0  0  0  0  0
   -8.1786    4.3926  -12.7183 N   0  0  0  0  0  0  0  0  0  0  0  0
   -8.3177    4.4373  -11.3257 C   0  0  0  0  0  0  0  0  0  0  0  0
   -8.1223    5.6391  -10.6478 C   0  0  0  0  0  0  0  0  0  0  0  0
   -8.2511    5.7046   -9.2595 C   0  0  0  0  0  0  0  0  0  0  0  0
   -8.5605    4.5629   -8.5135 C   0  0  0  0  0  0  0  0  0  0  0  0
   -8.7623    3.3460   -9.1823 C   0  0  0  0  0  0  0  0  0  0  0  0
   -8.6401    3.2938  -10.5916 C   0  0  0  0  0  0  0  0  0  0  0  0
   -9.0506    2.0803   -8.4058 C   0  0  0  0  0  0  0  0  0  0  0  0
   -9.4349    2.2946   -6.9413 C   0  0  2  0  0  0  0  0  0  0  0  0
  -10.7551    2.6447   -6.8735 F   0  0  0  0  0  0  0  0  0  0  0  0
   -8.6497    3.3953   -6.2574 C   0  0  0  0  0  0  0  0  0  0  0  0
   -8.7560    4.7007   -7.0260 C   0  0  0  0  0  0  0  0  0  0  0  0
   -7.5417    4.9721  -15.1132 C   0  0  0  0  0  0  0  0  0  0  0  0
   -8.6829    4.5375  -15.7955 C   0  0  0  0  0  0  0  0  0  0  0  0
   -8.6586    4.4246  -17.1867 C   0  0  0  0  0  0  0  0  0  0  0  0
  -10.0917    4.0028  -18.0371 Cl  0  0  0  0  0  0  0  0  0  0  0  0
   -7.5261    4.7499  -17.9411 C   0  0  0  0  0  0  0  0  0  0  0  0
   -6.3868    5.1598  -17.2402 C   0  0  0  0  0  0  0  0  0  0  0  0
   -6.3661    5.2420  -15.8477 C   0  0  0  0  0  0  0  0  0  0  0  0
   -5.0609    5.6829  -15.5414 C   0  0  0  0  0  0  0  0  0  0  0  0
   -4.3152    5.8872  -16.6263 N   0  0  0  0  0  0  0  0  0  0  0  0
   -5.1613    5.6468  -17.6485 N   0  0  0  0  0  0  0  0  0  0  0  0
   -4.9267    6.2663  -18.9646 C   0  0  0  0  0  0  0  0  0  0  0  0
   -3.4315    6.4637  -19.2860 C   0  0  0  0  0  0  0  0  0  0  0  0
   -3.7158    6.0288  -20.6713 N   0  0  0  0  0  0  0  0  0  0  0  0
   -4.8990    5.3016  -20.1434 C   0  0  0  0  0  0  0  0  0  0  0  0
  1  2  2  0
  2  3  1  0
  3  4  1  0
  4  5  2  0
  5  6  1  0
  6  7  2  0
  7  8  1  0
  8  9  2  0
  8 10  1  0
 10 11  1  0
 11 12  1  6
 11 13  1  0
 13 14  1  0
  2 15  1  0
 15 16  2  0
 16 17  1  0
 17 18  1  0
 17 19  2  0
 19 20  1  0
 20 21  2  0
 21 22  1  0
 22 23  2  0
 23 24  1  0
 24 25  1  0
 25 26  1  0
 26 27  1  0
 27 28  1  0
  9  4  1  0
 21 15  1  0
 28 25  1  0
 14  7  1  0
 24 20  1  0
M  END
>  <smiles>  (2428) 
C37052-P275

>  <fragmenstein_outcome>  (2428) 
acceptable

>  <inchikey>  (2428) 
ANAFFNVJVTYRQD-UHFFFAOYSA-N

>  <fragmenstein_mode>  (2428) 
expansion

>  <HIPPO Pose ID>  (2428) 
28207

>  <Energy>  (2428) 
68.997254

>  <fragmenstein_error>  (2428) 


>  <tags>  (2428) 
{'openbind_xx01zvns2b_c1_fragmenstein', 'fragmenstein_placed'}

>  <ref_pdb>  (2428) 
175

>  <scratch_subdir>  (2428) 
/opt/xchem-fragalysis-2/maxwin/BulkDock/SCRATCH/511028/C37052-P275

>  <alias>  (2428) 
O=C(Nc1ccc2c(c1)C[C@H](F)CC2)c1cc(Cl)cc2c1cnn2C1CNC1

>  <HIPPO Compound ID>  (2428) 
29565

>  <fragmenstein_runtime>  (2428) 
16.437742

$$$$
CN(C)Cn1cc2c(C(=O)Nc3ccc4c(c3)CCCC4)cc(Cl)cc2c1C1CNC1
     RDKit          3D

 31 35  0  0  0  0  0  0  0  0999 V2000
   -0.8849    6.5762  -16.9392 C   0  0  0  0  0  0  0  0  0  0  0  0
   -2.1387    5.8824  -16.6302 N   0  0  0  0  0  0  0  0  0  0  0  0
   -2.1210    5.4577  -15.2272 C   0  0  0  0  0  0  0  0  0  0  0  0
   -3.2694    6.7774  -16.9238 C   0  0  0  0  0  0  0  0  0  0  0  0
   -4.5312    6.0305  -16.9155 N   0  0  0  0  0  0  0  0  0  0  0  0
   -5.3043    5.9367  -15.7667 C   0  0  0  0  0  0  0  0  0  0  0  0
   -6.5053    5.3723  -16.0991 C   0  0  0  0  0  0  0  0  0  0  0  0
   -7.6024    5.1418  -15.2569 C   0  0  0  0  0  0  0  0  0  0  0  0
   -7.6754    5.6175  -13.8562 C   0  0  0  0  0  0  0  0  0  0  0  0
   -7.2897    6.7035  -13.6535 O   0  0  0  0  0  0  0  0  0  0  0  0
   -8.2381    4.5509  -12.8785 N   0  0  0  0  0  0  0  0  0  0  0  0
   -8.3497    4.5659  -11.4810 C   0  0  0  0  0  0  0  0  0  0  0  0
   -8.0551    5.7284  -10.7706 C   0  0  0  0  0  0  0  0  0  0  0  0
   -8.1030    5.7434   -9.3738 C   0  0  0  0  0  0  0  0  0  0  0  0
   -8.4604    4.5969   -8.6557 C   0  0  0  0  0  0  0  0  0  0  0  0
   -8.7795    3.4261   -9.3548 C   0  0  0  0  0  0  0  0  0  0  0  0
   -8.7222    3.4200  -10.7712 C   0  0  0  0  0  0  0  0  0  0  0  0
   -9.1795    2.1728   -8.6116 C   0  0  0  0  0  0  0  0  0  0  0  0
   -9.2810    2.2522   -7.0838 C   0  0  0  0  0  0  0  0  0  0  0  0
   -9.4270    3.6541   -6.5227 C   0  0  0  0  0  0  0  0  0  0  0  0
   -8.4251    4.6122   -7.1498 C   0  0  0  0  0  0  0  0  0  0  0  0
   -8.7009    4.6301  -15.9804 C   0  0  0  0  0  0  0  0  0  0  0  0
   -8.6713    4.4156  -17.4036 C   0  0  0  0  0  0  0  0  0  0  0  0
  -10.1427    3.9586  -18.1849 Cl  0  0  0  0  0  0  0  0  0  0  0  0
   -7.5522    4.6421  -18.2375 C   0  0  0  0  0  0  0  0  0  0  0  0
   -6.4743    5.1275  -17.5041 C   0  0  0  0  0  0  0  0  0  0  0  0
   -5.2472    5.5318  -17.9974 C   0  0  0  0  0  0  0  0  0  0  0  0
   -4.8523    5.4853  -19.5275 C   0  0  0  0  0  0  0  0  0  0  0  0
   -3.3769    5.3580  -19.9358 C   0  0  0  0  0  0  0  0  0  0  0  0
   -3.5291    6.5113  -20.8394 N   0  0  0  0  0  0  0  0  0  0  0  0
   -4.8173    6.8587  -20.2221 C   0  0  0  0  0  0  0  0  0  0  0  0
  1  2  1  0
  2  3  1  0
  2  4  1  0
  4  5  1  0
  5  6  1  0
  6  7  2  0
  7  8  1  0
  8  9  1  0
  9 10  2  0
  9 11  1  0
 11 12  1  0
 12 13  2  0
 13 14  1  0
 14 15  2  0
 15 16  1  0
 16 17  2  0
 16 18  1  0
 18 19  1  0
 19 20  1  0
 20 21  1  0
  8 22  2  0
 22 23  1  0
 23 24  1  0
 23 25  2  0
 25 26  1  0
 26 27  2  0
 27 28  1  0
 28 29  1  0
 29 30  1  0
 30 31  1  0
 27  5  1  0
 31 28  1  0
 26  7  1  0
 17 12  1  0
 21 15  1  0
M  END
>  <smiles>  (2429) 
C37054-P275

>  <fragmenstein_outcome>  (2429) 
acceptable

>  <inchikey>  (2429) 
CXOUXDGZMIEMAJ-UHFFFAOYSA-N

>  <fragmenstein_mode>  (2429) 
expansion

>  <HIPPO Pose ID>  (2429) 
28210

>  <Energy>  (2429) 
110.251931

>  <fragmenstein_error>  (2429) 


>  <tags>  (2429) 
{'openbind_xx01zvns2b_c1_fragmenstein', 'fragmenstein_placed'}

>  <ref_pdb>  (2429) 
175

>  <scratch_subdir>  (2429) 
/opt/xchem-fragalysis-2/maxwin/BulkDock/SCRATCH/511028/C37054-P275

>  <alias>  (2429) 
CN(C)Cn1cc2c(C(=O)Nc3ccc4c(c3)CCCC4)cc(Cl)cc2c1C1CNC1

>  <HIPPO Compound ID>  (2429) 
37054

>  <fragmenstein_runtime>  (2429) 
16.395036

$$$$
NC1(n2ncc3c([C@@H](N=O)Nc4ccc5c(c4)CCCC5)cc(Cl)cc32)CNC1
     RDKit          3D

 29 33  0  0  0  0  0  0  0  0999 V2000
   -5.7415    4.7388  -20.3621 N   0  0  0  0  0  0  0  0  0  0  0  0
   -4.9940    5.5345  -19.3729 C   0  0  0  0  0  0  0  0  0  0  0  0
   -5.3348    5.4037  -17.9264 N   0  0  0  0  0  0  0  0  0  0  0  0
   -4.4467    5.7046  -16.9507 N   0  0  0  0  0  0  0  0  0  0  0  0
   -5.1442    5.5670  -15.8266 C   0  0  0  0  0  0  0  0  0  0  0  0
   -6.4828    5.1694  -16.0463 C   0  0  0  0  0  0  0  0  0  0  0  0
   -7.6157    4.9495  -15.2145 C   0  0  0  0  0  0  0  0  0  0  0  0
   -7.5843    5.2954  -13.7245 C   0  0  1  0  0  0  0  0  0  0  0  0
   -7.8065    6.7865  -13.6563 N   0  0  0  0  0  0  0  0  0  0  0  0
   -6.7654    7.4143  -13.4200 O   0  0  0  0  0  0  0  0  0  0  0  0
   -8.5765    4.5525  -12.9358 N   0  0  0  0  0  0  0  0  0  0  0  0
   -8.4712    4.5594  -11.5253 C   0  0  0  0  0  0  0  0  0  0  0  0
   -8.2000    5.7125  -10.7812 C   0  0  0  0  0  0  0  0  0  0  0  0
   -8.2236    5.7150   -9.3812 C   0  0  0  0  0  0  0  0  0  0  0  0
   -8.5349    4.5592   -8.6635 C   0  0  0  0  0  0  0  0  0  0  0  0
   -8.8218    3.3889   -9.3734 C   0  0  0  0  0  0  0  0  0  0  0  0
   -8.7884    3.4025  -10.7908 C   0  0  0  0  0  0  0  0  0  0  0  0
   -9.1337    2.1112   -8.6300 C   0  0  0  0  0  0  0  0  0  0  0  0
   -9.6722    2.3305   -7.2175 C   0  0  0  0  0  0  0  0  0  0  0  0
   -8.8272    3.3182   -6.4344 C   0  0  0  0  0  0  0  0  0  0  0  0
   -8.6642    4.6453   -7.1629 C   0  0  0  0  0  0  0  0  0  0  0  0
   -8.8131    4.5775  -15.8699 C   0  0  0  0  0  0  0  0  0  0  0  0
   -8.8906    4.4622  -17.2546 C   0  0  0  0  0  0  0  0  0  0  0  0
  -10.3840    4.1207  -18.0344 Cl  0  0  0  0  0  0  0  0  0  0  0  0
   -7.7891    4.7212  -18.0573 C   0  0  0  0  0  0  0  0  0  0  0  0
   -6.5852    5.0690  -17.4340 C   0  0  0  0  0  0  0  0  0  0  0  0
   -3.4835    5.4737  -19.7086 C   0  0  0  0  0  0  0  0  0  0  0  0
   -3.6266    6.7032  -20.5298 N   0  0  0  0  0  0  0  0  0  0  0  0
   -4.8963    7.0067  -19.8337 C   0  0  0  0  0  0  0  0  0  0  0  0
  1  2  1  0
  2  3  1  0
  3  4  1  0
  4  5  2  0
  5  6  1  0
  6  7  2  0
  7  8  1  0
  8  9  1  0
  9 10  2  0
  8 11  1  1
 11 12  1  0
 12 13  2  0
 13 14  1  0
 14 15  2  0
 15 16  1  0
 16 17  2  0
 16 18  1  0
 18 19  1  0
 19 20  1  0
 20 21  1  0
  7 22  1  0
 22 23  2  0
 23 24  1  0
 23 25  1  0
 25 26  2  0
  2 27  1  0
 27 28  1  0
 28 29  1  0
 29  2  1  0
 26  3  1  0
 26  6  1  0
 17 12  1  0
 21 15  1  0
M  END
>  <smiles>  (2430) 
C37063-P275

>  <fragmenstein_outcome>  (2430) 
acceptable

>  <inchikey>  (2430) 
SRGSQXGQLSIKDG-UHFFFAOYSA-N

>  <fragmenstein_mode>  (2430) 
expansion

>  <HIPPO Pose ID>  (2430) 
28215

>  <Energy>  (2430) 
133.888295

>  <fragmenstein_error>  (2430) 


>  <tags>  (2430) 
{'openbind_xx01zvns2b_c1_fragmenstein', 'fragmenstein_placed'}

>  <ref_pdb>  (2430) 
175

>  <scratch_subdir>  (2430) 
/opt/xchem-fragalysis-2/maxwin/BulkDock/SCRATCH/511028/C37063-P275

>  <alias>  (2430) 
NC1(n2ncc3c([C@@H](N=O)Nc4ccc5c(c4)CCCC5)cc(Cl)cc32)CNC1

>  <HIPPO Compound ID>  (2430) 
37063

>  <fragmenstein_runtime>  (2430) 
10.96062

$$$$
O=C(Nc1ccc2c(c1)CCCC2)c1cc(Cl)cc2c3n(cc12)C=CC=CC1=C3CCN1
     RDKit          3D

 32 37  0  0  0  0  0  0  0  0999 V2000
   -7.4210    6.5162  -13.6885 O   0  0  0  0  0  0  0  0  0  0  0  0
   -7.7104    5.3936  -13.8345 C   0  0  0  0  0  0  0  0  0  0  0  0
   -8.0948    4.3163  -12.7979 N   0  0  0  0  0  0  0  0  0  0  0  0
   -8.2899    4.4135  -11.4184 C   0  0  0  0  0  0  0  0  0  0  0  0
   -8.0758    5.6306  -10.7719 C   0  0  0  0  0  0  0  0  0  0  0  0
   -8.1694    5.7237   -9.3834 C   0  0  0  0  0  0  0  0  0  0  0  0
   -8.4848    4.5993   -8.6135 C   0  0  0  0  0  0  0  0  0  0  0  0
   -8.7202    3.3752   -9.2527 C   0  0  0  0  0  0  0  0  0  0  0  0
   -8.6308    3.2944  -10.6614 C   0  0  0  0  0  0  0  0  0  0  0  0
   -9.0702    2.1413   -8.4572 C   0  0  0  0  0  0  0  0  0  0  0  0
   -9.1219    2.2748   -6.9332 C   0  0  0  0  0  0  0  0  0  0  0  0
   -9.3837    3.6818   -6.4301 C   0  0  0  0  0  0  0  0  0  0  0  0
   -8.4804    4.7017   -7.1126 C   0  0  0  0  0  0  0  0  0  0  0  0
   -7.6372    4.8811  -15.2150 C   0  0  0  0  0  0  0  0  0  0  0  0
   -8.7690    4.5117  -15.9702 C   0  0  0  0  0  0  0  0  0  0  0  0
   -8.7615    4.4611  -17.4077 C   0  0  0  0  0  0  0  0  0  0  0  0
  -10.2493    4.0969  -18.2076 Cl  0  0  0  0  0  0  0  0  0  0  0  0
   -7.6568    4.8039  -18.2240 C   0  0  0  0  0  0  0  0  0  0  0  0
   -6.5516    5.1500  -17.4512 C   0  0  0  0  0  0  0  0  0  0  0  0
   -5.3768    5.7410  -17.8835 C   0  0  0  0  0  0  0  0  0  0  0  0
   -4.5463    5.8607  -16.7577 N   0  0  0  0  0  0  0  0  0  0  0  0
   -5.2670    5.4630  -15.6402 C   0  0  0  0  0  0  0  0  0  0  0  0
   -6.5353    5.1403  -16.0346 C   0  0  0  0  0  0  0  0  0  0  0  0
   -3.2327    6.3231  -16.6516 C   0  0  0  0  0  0  0  0  0  0  0  0
   -2.7639    7.5166  -17.0494 C   0  0  0  0  0  0  0  0  0  0  0  0
   -3.5738    8.6024  -17.5555 C   0  0  0  0  0  0  0  0  0  0  0  0
   -4.4074    8.5553  -18.6024 C   0  0  0  0  0  0  0  0  0  0  0  0
   -4.5787    7.4234  -19.4676 C   0  0  0  0  0  0  0  0  0  0  0  0
   -4.9388    6.1581  -19.1705 C   0  0  0  0  0  0  0  0  0  0  0  0
   -4.8514    5.3291  -20.4233 C   0  0  0  0  0  0  0  0  0  0  0  0
   -4.3572    6.3134  -21.4944 C   0  0  0  0  0  0  0  0  0  0  0  0
   -4.3381    7.6024  -20.8177 N   0  0  0  0  0  0  0  0  0  0  0  0
  1  2  2  0
  2  3  1  0
  3  4  1  0
  4  5  2  0
  5  6  1  0
  6  7  2  0
  7  8  1  0
  8  9  2  0
  8 10  1  0
 10 11  1  0
 11 12  1  0
 12 13  1  0
  2 14  1  0
 14 15  2  0
 15 16  1  0
 16 17  1  0
 16 18  2  0
 18 19  1  0
 19 20  2  0
 20 21  1  0
 21 22  1  0
 22 23  2  0
 21 24  1  0
 24 25  2  3
 25 26  1  0
 26 27  2  3
 27 28  1  0
 28 29  2  0
 29 30  1  0
 30 31  1  0
 31 32  1  0
  9  4  1  0
 23 14  1  0
 32 28  1  0
 13  7  1  0
 23 19  1  0
 29 20  1  0
M  END
>  <smiles>  (2431) 
C37064-P276

>  <fragmenstein_outcome>  (2431) 
acceptable

>  <inchikey>  (2431) 
VCYDTUBFWGNQQG-UHFFFAOYSA-N

>  <fragmenstein_mode>  (2431) 
expansion

>  <HIPPO Pose ID>  (2431) 
28216

>  <Energy>  (2431) 
111.942542

>  <fragmenstein_error>  (2431) 


>  <tags>  (2431) 
{'openbind_xx01zvns2b_c1_fragmenstein', 'fragmenstein_placed'}

>  <ref_pdb>  (2431) 
175

>  <scratch_subdir>  (2431) 
/opt/xchem-fragalysis-2/maxwin/BulkDock/SCRATCH/511028/C37064-P276

>  <alias>  (2431) 
O=C(Nc1ccc2c(c1)CCCC2)c1cc(Cl)cc2c3n(cc12)C=CC=CC1=C3CCN1

>  <HIPPO Compound ID>  (2431) 
37064

>  <fragmenstein_runtime>  (2431) 
14.753434

$$$$
Cc1cc2c(C(=O)Nc3ccc4c(c3)CN(C)C4)cc(Cl)cc2n1C1CNC1
     RDKit          3D

 28 32  0  0  0  0  0  0  0  0999 V2000
   -2.9828    5.9219  -16.9804 C   0  0  0  0  0  0  0  0  0  0  0  0
   -4.4279    5.6114  -16.9614 C   0  0  0  0  0  0  0  0  0  0  0  0
   -5.2286    5.6360  -15.8382 C   0  0  0  0  0  0  0  0  0  0  0  0
   -6.5373    5.2513  -16.2017 C   0  0  0  0  0  0  0  0  0  0  0  0
   -7.7420    5.0984  -15.4852 C   0  0  0  0  0  0  0  0  0  0  0  0
   -7.8186    5.6126  -14.1015 C   0  0  0  0  0  0  0  0  0  0  0  0
   -7.5387    6.7334  -13.9307 O   0  0  0  0  0  0  0  0  0  0  0  0
   -8.2565    4.5258  -13.0958 N   0  0  0  0  0  0  0  0  0  0  0  0
   -8.3474    4.5627  -11.7054 C   0  0  0  0  0  0  0  0  0  0  0  0
   -8.2111    5.7846  -11.0224 C   0  0  0  0  0  0  0  0  0  0  0  0
   -8.2854    5.8431   -9.6291 C   0  0  0  0  0  0  0  0  0  0  0  0
   -8.4860    4.6640   -8.9379 C   0  0  0  0  0  0  0  0  0  0  0  0
   -8.6155    3.4504   -9.6078 C   0  0  0  0  0  0  0  0  0  0  0  0
   -8.5590    3.3808  -10.9936 C   0  0  0  0  0  0  0  0  0  0  0  0
   -8.8294    2.3548   -8.6102 C   0  0  0  0  0  0  0  0  0  0  0  0
   -8.6918    2.9956   -7.2836 N   0  0  0  0  0  0  0  0  0  0  0  0
   -9.6843    2.5468   -6.3282 C   0  0  0  0  0  0  0  0  0  0  0  0
   -8.6286    4.4497   -7.4665 C   0  0  0  0  0  0  0  0  0  0  0  0
   -8.8872    4.6457  -16.1348 C   0  0  0  0  0  0  0  0  0  0  0  0
   -8.8537    4.4373  -17.5073 C   0  0  0  0  0  0  0  0  0  0  0  0
  -10.3145    4.0568  -18.3206 Cl  0  0  0  0  0  0  0  0  0  0  0  0
   -7.6886    4.6244  -18.2578 C   0  0  0  0  0  0  0  0  0  0  0  0
   -6.5240    5.0174  -17.5776 C   0  0  0  0  0  0  0  0  0  0  0  0
   -5.2362    5.2824  -18.0318 N   0  0  0  0  0  0  0  0  0  0  0  0
   -4.9177    5.1627  -19.4887 C   0  0  0  0  0  0  0  0  0  0  0  0
   -3.4788    5.3079  -19.9935 C   0  0  0  0  0  0  0  0  0  0  0  0
   -3.7263    6.7337  -20.2700 N   0  0  0  0  0  0  0  0  0  0  0  0
   -5.1804    6.4751  -20.2550 C   0  0  0  0  0  0  0  0  0  0  0  0
  1  2  1  0
  2  3  2  0
  3  4  1  0
  4  5  2  0
  5  6  1  0
  6  7  2  0
  6  8  1  0
  8  9  1  0
  9 10  2  0
 10 11  1  0
 11 12  2  0
 12 13  1  0
 13 14  2  0
 13 15  1  0
 15 16  1  0
 16 17  1  0
 16 18  1  0
  5 19  1  0
 19 20  2  0
 20 21  1  0
 20 22  1  0
 22 23  2  0
 23 24  1  0
 24 25  1  0
 25 26  1  0
 26 27  1  0
 27 28  1  0
 24  2  1  0
 28 25  1  0
 23  4  1  0
 14  9  1  0
 18 12  1  0
M  END
>  <smiles>  (2432) 
C37068-P276

>  <fragmenstein_outcome>  (2432) 
acceptable

>  <inchikey>  (2432) 
FKANHDCXDAVWCX-UHFFFAOYSA-N

>  <fragmenstein_mode>  (2432) 
expansion

>  <HIPPO Pose ID>  (2432) 
28220

>  <Energy>  (2432) 
86.77246

>  <fragmenstein_error>  (2432) 


>  <tags>  (2432) 
{'openbind_xx01zvns2b_c1_fragmenstein', 'fragmenstein_placed'}

>  <ref_pdb>  (2432) 
175

>  <scratch_subdir>  (2432) 
/opt/xchem-fragalysis-2/maxwin/BulkDock/SCRATCH/511028/C37068-P276

>  <alias>  (2432) 
Cc1cc2c(C(=O)Nc3ccc4c(c3)CN(C)C4)cc(Cl)cc2n1C1CNC1

>  <HIPPO Compound ID>  (2432) 
38171

>  <fragmenstein_runtime>  (2432) 
10.329983

$$$$
CN1Cc2ccc(NC(=O)c3cc(Cl)cc4c3cc3n4[C@H]4CCN[C@H]4O3)cc2C1
     RDKit          3D

 29 34  0  0  0  0  0  0  0  0999 V2000
   -9.5149    2.6822   -6.3900 C   0  0  0  0  0  0  0  0  0  0  0  0
   -8.6055    3.1268   -7.4255 N   0  0  0  0  0  0  0  0  0  0  0  0
   -8.5520    4.5761   -7.6308 C   0  0  0  0  0  0  0  0  0  0  0  0
   -8.4002    4.7555   -9.1074 C   0  0  0  0  0  0  0  0  0  0  0  0
   -8.1434    5.9079   -9.8246 C   0  0  0  0  0  0  0  0  0  0  0  0
   -8.0437    5.8115  -11.2159 C   0  0  0  0  0  0  0  0  0  0  0  0
   -8.2252    4.5818  -11.8733 C   0  0  0  0  0  0  0  0  0  0  0  0
   -8.1223    4.5069  -13.2631 N   0  0  0  0  0  0  0  0  0  0  0  0
   -7.5339    5.5120  -14.2834 C   0  0  0  0  0  0  0  0  0  0  0  0
   -7.1138    6.5916  -14.1273 O   0  0  0  0  0  0  0  0  0  0  0  0
   -7.6052    5.0076  -15.6752 C   0  0  0  0  0  0  0  0  0  0  0  0
   -8.8433    4.6333  -16.2078 C   0  0  0  0  0  0  0  0  0  0  0  0
   -8.9749    4.4204  -17.5760 C   0  0  0  0  0  0  0  0  0  0  0  0
  -10.5354    4.1350  -18.2284 Cl  0  0  0  0  0  0  0  0  0  0  0  0
   -7.8943    4.5395  -18.4507 C   0  0  0  0  0  0  0  0  0  0  0  0
   -6.6578    4.8863  -17.9007 C   0  0  0  0  0  0  0  0  0  0  0  0
   -6.4758    5.1060  -16.5209 C   0  0  0  0  0  0  0  0  0  0  0  0
   -5.0844    5.4038  -16.3109 C   0  0  0  0  0  0  0  0  0  0  0  0
   -4.4877    5.3405  -17.5385 C   0  0  0  0  0  0  0  0  0  0  0  0
   -5.4505    5.1184  -18.4662 N   0  0  0  0  0  0  0  0  0  0  0  0
   -4.9108    5.1593  -19.7996 C   0  0  1  0  0  0  0  0  0  0  0  0
   -5.2140    6.4144  -20.5989 C   0  0  0  0  0  0  0  0  0  0  0  0
   -3.8774    6.8091  -21.1921 C   0  0  0  0  0  0  0  0  0  0  0  0
   -2.8805    6.4695  -20.1842 N   0  0  0  0  0  0  0  0  0  0  0  0
   -3.4010    5.2877  -19.4876 C   0  0  1  0  0  0  0  0  0  0  0  0
   -3.2703    5.4686  -18.0523 O   0  0  0  0  0  0  0  0  0  0  0  0
   -8.5107    3.4299  -11.1361 C   0  0  0  0  0  0  0  0  0  0  0  0
   -8.5741    3.5329   -9.7521 C   0  0  0  0  0  0  0  0  0  0  0  0
   -8.8294    2.4693   -8.7290 C   0  0  0  0  0  0  0  0  0  0  0  0
  1  2  1  0
  2  3  1  0
  3  4  1  0
  4  5  2  0
  5  6  1  0
  6  7  2  0
  7  8  1  0
  8  9  1  0
  9 10  2  0
  9 11  1  0
 11 12  2  0
 12 13  1  0
 13 14  1  0
 13 15  2  0
 15 16  1  0
 16 17  2  0
 17 18  1  0
 18 19  2  0
 19 20  1  0
 20 21  1  0
 21 22  1  6
 22 23  1  0
 23 24  1  0
 25 24  1  6
 25 26  1  0
  7 27  1  0
 27 28  2  0
 28 29  1  0
 29  2  1  0
 28  4  1  0
 17 11  1  0
 26 19  1  0
 20 16  1  0
 25 21  1  0
M  END
>  <smiles>  (2433) 
C37073-P276

>  <fragmenstein_outcome>  (2433) 
acceptable

>  <inchikey>  (2433) 
DYBRLXZRWNOTOS-UHFFFAOYSA-N

>  <fragmenstein_mode>  (2433) 
expansion

>  <HIPPO Pose ID>  (2433) 
28221

>  <Energy>  (2433) 
65.554445

>  <fragmenstein_error>  (2433) 


>  <tags>  (2433) 
{'openbind_xx01zvns2b_c1_fragmenstein', 'fragmenstein_placed'}

>  <ref_pdb>  (2433) 
175

>  <scratch_subdir>  (2433) 
/opt/xchem-fragalysis-2/maxwin/BulkDock/SCRATCH/511028/C37073-P276

>  <alias>  (2433) 
CN1Cc2ccc(NC(=O)c3cc(Cl)cc4c3cc3n4[C@H]4CCN[C@H]4O3)cc2C1

>  <HIPPO Compound ID>  (2433) 
37073

>  <fragmenstein_runtime>  (2433) 
8.718043

$$$$
CN[C@@H]1CC2=C(CNN2C2CNC2)[C@H](C(=O)Nc2ccc3c(c2)CN(C)C3)C1
     RDKit          3D

 28 32  0  0  0  0  0  0  0  0999 V2000
  -10.6060    4.4270  -18.5795 C   0  0  0  0  0  0  0  0  0  0  0  0
   -9.9881    3.8013  -17.4127 N   0  0  0  0  0  0  0  0  0  0  0  0
   -8.7921    4.5324  -16.9975 C   0  0  2  0  0  0  0  0  0  0  0  0
   -7.6268    4.6264  -18.0147 C   0  0  0  0  0  0  0  0  0  0  0  0
   -6.3422    5.0614  -17.3774 C   0  0  0  0  0  0  0  0  0  0  0  0
   -6.2331    5.3749  -16.0816 C   0  0  0  0  0  0  0  0  0  0  0  0
   -4.8541    5.8470  -15.8120 C   0  0  0  0  0  0  0  0  0  0  0  0
   -4.1593    5.7456  -17.1252 N   0  0  0  0  0  0  0  0  0  0  0  0
   -5.1359    5.2259  -18.0344 N   0  0  0  0  0  0  0  0  0  0  0  0
   -4.9552    5.2750  -19.4655 C   0  0  0  0  0  0  0  0  0  0  0  0
   -3.4977    5.4047  -19.9765 C   0  0  0  0  0  0  0  0  0  0  0  0
   -4.0024    6.3256  -21.0387 N   0  0  0  0  0  0  0  0  0  0  0  0
   -5.1097    6.6753  -20.0957 C   0  0  0  0  0  0  0  0  0  0  0  0
   -7.3838    5.3654  -15.1347 C   0  0  2  0  0  0  0  0  0  0  0  0
   -7.0869    5.6560  -13.6438 C   0  0  0  0  0  0  0  0  0  0  0  0
   -6.4862    6.6227  -13.3617 O   0  0  0  0  0  0  0  0  0  0  0  0
   -7.7690    4.5909  -12.7350 N   0  0  0  0  0  0  0  0  0  0  0  0
   -7.9266    4.5502  -11.3560 C   0  0  0  0  0  0  0  0  0  0  0  0
   -7.6954    5.7113  -10.5989 C   0  0  0  0  0  0  0  0  0  0  0  0
   -7.9368    5.7294   -9.2259 C   0  0  0  0  0  0  0  0  0  0  0  0
   -8.3751    4.5640   -8.6288 C   0  0  0  0  0  0  0  0  0  0  0  0
   -8.5874    3.4051   -9.3725 C   0  0  0  0  0  0  0  0  0  0  0  0
   -8.3949    3.3856  -10.7462 C   0  0  0  0  0  0  0  0  0  0  0  0
   -9.0367    2.3090   -8.4559 C   0  0  0  0  0  0  0  0  0  0  0  0
   -8.9095    2.8639   -7.0926 N   0  0  0  0  0  0  0  0  0  0  0  0
   -9.9713    2.4590   -6.1947 C   0  0  0  0  0  0  0  0  0  0  0  0
   -8.7065    4.3126   -7.1937 C   0  0  0  0  0  0  0  0  0  0  0  0
   -8.3683    4.2607  -15.5468 C   0  0  0  0  0  0  0  0  0  0  0  0
  1  2  1  0
  3  2  1  6
  3  4  1  0
  4  5  1  0
  5  6  2  0
  6  7  1  0
  7  8  1  0
  8  9  1  0
  9 10  1  0
 10 11  1  0
 11 12  1  0
 12 13  1  0
  6 14  1  0
 14 15  1  1
 15 16  2  0
 15 17  1  0
 17 18  1  0
 18 19  2  0
 19 20  1  0
 20 21  2  0
 21 22  1  0
 22 23  2  0
 22 24  1  0
 24 25  1  0
 25 26  1  0
 25 27  1  0
 14 28  1  0
 28  3  1  0
  9  5  1  0
 13 10  1  0
 23 18  1  0
 27 21  1  0
M  END
>  <smiles>  (2434) 
C37088-P276

>  <fragmenstein_outcome>  (2434) 
acceptable

>  <inchikey>  (2434) 
ZQXAXSVDHMRASA-UHFFFAOYSA-N

>  <fragmenstein_mode>  (2434) 
expansion

>  <HIPPO Pose ID>  (2434) 
28222

>  <Energy>  (2434) 
130.465019

>  <fragmenstein_error>  (2434) 


>  <tags>  (2434) 
{'openbind_xx01zvns2b_c1_fragmenstein', 'fragmenstein_placed'}

>  <ref_pdb>  (2434) 
175

>  <scratch_subdir>  (2434) 
/opt/xchem-fragalysis-2/maxwin/BulkDock/SCRATCH/511028/C37088-P276

>  <alias>  (2434) 
CN[C@@H]1CC2=C(CNN2C2CNC2)[C@H](C(=O)Nc2ccc3c(c2)CN(C)C3)C1

>  <HIPPO Compound ID>  (2434) 
37088

>  <fragmenstein_runtime>  (2434) 
7.578746

$$$$
C[C@@H](NCN1CC(n2ncc3c(C(=O)Nc4ccc5c(c4)CN(C)C5)cc(Cl)cc32)C1)c1cn(-c2ccccc2)nn1
     RDKit          3D

 42 48  0  0  0  0  0  0  0  0999 V2000
   -3.8295    8.9175  -15.4413 C   0  0  0  0  0  0  0  0  0  0  0  0
   -3.5421    7.5225  -15.9436 C   0  0  1  0  0  0  0  0  0  0  0  0
   -4.1883    7.2539  -17.2328 N   0  0  0  0  0  0  0  0  0  0  0  0
   -3.6157    7.8092  -18.4452 C   0  0  0  0  0  0  0  0  0  0  0  0
   -4.0506    7.1253  -19.6824 N   0  0  0  0  0  0  0  0  0  0  0  0
   -3.6646    5.7018  -19.7592 C   0  0  0  0  0  0  0  0  0  0  0  0
   -5.1413    5.2697  -19.5907 C   0  0  0  0  0  0  0  0  0  0  0  0
   -5.4840    4.7409  -18.2451 N   0  0  0  0  0  0  0  0  0  0  0  0
   -4.5474    4.5455  -17.2840 N   0  0  0  0  0  0  0  0  0  0  0  0
   -5.2545    4.5478  -16.1509 C   0  0  0  0  0  0  0  0  0  0  0  0
   -6.6375    4.6142  -16.3830 C   0  0  0  0  0  0  0  0  0  0  0  0
   -7.7875    4.6812  -15.5864 C   0  0  0  0  0  0  0  0  0  0  0  0
   -7.6787    5.2025  -14.2112 C   0  0  0  0  0  0  0  0  0  0  0  0
   -7.2416    6.2802  -14.1005 O   0  0  0  0  0  0  0  0  0  0  0  0
   -8.2522    4.2413  -13.1484 N   0  0  0  0  0  0  0  0  0  0  0  0
   -8.3194    4.3612  -11.7607 C   0  0  0  0  0  0  0  0  0  0  0  0
   -8.0285    5.5898  -11.1397 C   0  0  0  0  0  0  0  0  0  0  0  0
   -8.0933    5.7300   -9.7501 C   0  0  0  0  0  0  0  0  0  0  0  0
   -8.4199    4.6187   -8.9975 C   0  0  0  0  0  0  0  0  0  0  0  0
   -8.6931    3.3965   -9.6058 C   0  0  0  0  0  0  0  0  0  0  0  0
   -8.6704    3.2555  -10.9873 C   0  0  0  0  0  0  0  0  0  0  0  0
   -9.0030    2.3786   -8.5527 C   0  0  0  0  0  0  0  0  0  0  0  0
   -8.7354    3.0537   -7.2658 N   0  0  0  0  0  0  0  0  0  0  0  0
   -9.6864    2.7197   -6.2268 C   0  0  0  0  0  0  0  0  0  0  0  0
   -8.5652    4.4889   -7.5152 C   0  0  0  0  0  0  0  0  0  0  0  0
   -9.0335    4.5232  -16.1865 C   0  0  0  0  0  0  0  0  0  0  0  0
   -9.1320    4.4095  -17.5708 C   0  0  0  0  0  0  0  0  0  0  0  0
  -10.6847    4.2904  -18.2855 Cl  0  0  0  0  0  0  0  0  0  0  0  0
   -8.0117    4.4902  -18.4001 C   0  0  0  0  0  0  0  0  0  0  0  0
   -6.7679    4.5898  -17.7714 C   0  0  0  0  0  0  0  0  0  0  0  0
   -5.4774    6.7739  -19.7354 C   0  0  0  0  0  0  0  0  0  0  0  0
   -2.0914    7.1534  -15.9677 C   0  0  0  0  0  0  0  0  0  0  0  0
   -0.9587    7.9322  -15.8481 C   0  0  0  0  0  0  0  0  0  0  0  0
    0.0935    7.0549  -15.9646 N   0  0  0  0  0  0  0  0  0  0  0  0
    1.4867    7.3202  -15.9248 C   0  0  0  0  0  0  0  0  0  0  0  0
    2.3957    6.2610  -16.0766 C   0  0  0  0  0  0  0  0  0  0  0  0
    3.7702    6.5041  -16.0408 C   0  0  0  0  0  0  0  0  0  0  0  0
    4.2454    7.8005  -15.8541 C   0  0  0  0  0  0  0  0  0  0  0  0
    3.3483    8.8569  -15.7033 C   0  0  0  0  0  0  0  0  0  0  0  0
    1.9706    8.6225  -15.7380 C   0  0  0  0  0  0  0  0  0  0  0  0
   -0.3880    5.8022  -16.1337 N   0  0  0  0  0  0  0  0  0  0  0  0
   -1.7132    5.8505  -16.1529 N   0  0  0  0  0  0  0  0  0  0  0  0
  2  1  1  6
  2  3  1  0
  3  4  1  0
  4  5  1  0
  5  6  1  0
  6  7  1  0
  7  8  1  0
  8  9  1  0
  9 10  2  0
 10 11  1  0
 11 12  2  0
 12 13  1  0
 13 14  2  0
 13 15  1  0
 15 16  1  0
 16 17  2  0
 17 18  1  0
 18 19  2  0
 19 20  1  0
 20 21  2  0
 20 22  1  0
 22 23  1  0
 23 24  1  0
 23 25  1  0
 12 26  1  0
 26 27  2  0
 27 28  1  0
 27 29  1  0
 29 30  2  0
  7 31  1  0
  2 32  1  0
 32 33  2  0
 33 34  1  0
 34 35  1  0
 35 36  2  0
 36 37  1  0
 37 38  2  0
 38 39  1  0
 39 40  2  0
 34 41  1  0
 41 42  2  0
 31  5  1  0
 42 32  1  0
 30  8  1  0
 40 35  1  0
 30 11  1  0
 21 16  1  0
 25 19  1  0
M  END
>  <smiles>  (2435) 
C37096-P276

>  <fragmenstein_outcome>  (2435) 
acceptable

>  <inchikey>  (2435) 
QJNJNTGJZLKYEI-UHFFFAOYSA-N

>  <fragmenstein_mode>  (2435) 
expansion

>  <HIPPO Pose ID>  (2435) 
28226

>  <Energy>  (2435) 
97.808979

>  <fragmenstein_error>  (2435) 


>  <tags>  (2435) 
{'openbind_xx01zvns2b_c1_fragmenstein', 'fragmenstein_placed'}

>  <ref_pdb>  (2435) 
175

>  <scratch_subdir>  (2435) 
/opt/xchem-fragalysis-2/maxwin/BulkDock/SCRATCH/511028/C37096-P276

>  <alias>  (2435) 
C[C@@H](NCN1CC(n2ncc3c(C(=O)Nc4ccc5c(c4)CN(C)C5)cc(Cl)cc32)C1)c1cn(-c2ccccc2)nn1

>  <HIPPO Compound ID>  (2435) 
31840

>  <fragmenstein_runtime>  (2435) 
16.059698

$$$$
CN1Cc2ccc(NC(=O)c3c(O)c(Cl)c4c5c3cnn5[C@@H]3[C@H](F)CN[C@H]3C(=O)N4)cc2C1
     RDKit          3D

 33 38  0  0  0  0  0  0  0  0999 V2000
   -7.9446    6.2396   -5.9013 C   0  0  0  0  0  0  0  0  0  0  0  0
   -8.6263    5.8637   -7.1263 N   0  0  0  0  0  0  0  0  0  0  0  0
   -8.5782    4.4015   -7.3738 C   0  0  0  0  0  0  0  0  0  0  0  0
   -8.5328    4.2812   -8.8607 C   0  0  0  0  0  0  0  0  0  0  0  0
   -8.7327    3.1672   -9.6506 C   0  0  0  0  0  0  0  0  0  0  0  0
   -8.6111    3.3162  -11.0314 C   0  0  0  0  0  0  0  0  0  0  0  0
   -8.2539    4.5539  -11.5890 C   0  0  0  0  0  0  0  0  0  0  0  0
   -8.1181    4.6360  -12.9658 N   0  0  0  0  0  0  0  0  0  0  0  0
   -7.4380    5.7075  -13.8441 C   0  0  0  0  0  0  0  0  0  0  0  0
   -6.9521    6.7282  -13.5526 O   0  0  0  0  0  0  0  0  0  0  0  0
   -7.4198    5.2972  -15.2652 C   0  0  0  0  0  0  0  0  0  0  0  0
   -8.5761    4.8689  -15.9247 C   0  0  0  0  0  0  0  0  0  0  0  0
   -9.7336    4.8141  -15.2091 O   0  0  0  0  0  0  0  0  0  0  0  0
   -8.5550    4.5504  -17.2799 C   0  0  0  0  0  0  0  0  0  0  0  0
  -10.0297    4.0725  -18.0658 Cl  0  0  0  0  0  0  0  0  0  0  0  0
   -7.3724    4.6834  -18.0277 C   0  0  0  0  0  0  0  0  0  0  0  0
   -6.2271    5.1331  -17.3565 C   0  0  0  0  0  0  0  0  0  0  0  0
   -6.2261    5.4153  -15.9930 C   0  0  0  0  0  0  0  0  0  0  0  0
   -4.8887    5.7508  -15.6953 C   0  0  0  0  0  0  0  0  0  0  0  0
   -4.0921    5.6577  -16.7591 N   0  0  0  0  0  0  0  0  0  0  0  0
   -4.9381    5.3774  -17.7642 N   0  0  0  0  0  0  0  0  0  0  0  0
   -4.4334    5.2915  -19.1081 C   0  0  2  0  0  0  0  0  0  0  0  0
   -3.3157    6.2540  -19.4527 C   0  0  2  0  0  0  0  0  0  0  0  0
   -3.6400    7.5211  -19.0584 F   0  0  0  0  0  0  0  0  0  0  0  0
   -3.3206    6.2226  -20.9720 C   0  0  0  0  0  0  0  0  0  0  0  0
   -4.7313    6.0582  -21.3695 N   0  0  0  0  0  0  0  0  0  0  0  0
   -5.4698    5.6694  -20.1374 C   0  0  1  0  0  0  0  0  0  0  0  0
   -6.4404    4.5008  -20.3347 C   0  0  0  0  0  0  0  0  0  0  0  0
   -6.4941    3.7774  -21.3319 O   0  0  0  0  0  0  0  0  0  0  0  0
   -7.3679    4.2801  -19.3599 N   0  0  0  0  0  0  0  0  0  0  0  0
   -8.0467    5.6705  -10.7808 C   0  0  0  0  0  0  0  0  0  0  0  0
   -8.2097    5.5176   -9.4170 C   0  0  0  0  0  0  0  0  0  0  0  0
   -8.0570    6.5231   -8.3248 C   0  0  0  0  0  0  0  0  0  0  0  0
  1  2  1  0
  2  3  1  0
  3  4  1  0
  4  5  2  0
  5  6  1  0
  6  7  2  0
  7  8  1  0
  8  9  1  0
  9 10  2  0
  9 11  1  0
 11 12  2  0
 12 13  1  0
 12 14  1  0
 14 15  1  0
 14 16  2  0
 16 17  1  0
 17 18  2  0
 18 19  1  0
 19 20  2  0
 20 21  1  0
 22 21  1  1
 22 23  1  0
 23 24  1  6
 23 25  1  0
 25 26  1  0
 27 26  1  6
 27 28  1  0
 28 29  2  0
 28 30  1  0
  7 31  1  0
 31 32  2  0
 32 33  1  0
 33  2  1  0
 32  4  1  0
 18 11  1  0
 27 22  1  0
 30 16  1  0
 21 17  1  0
M  END
>  <smiles>  (2436) 
C37101-P276

>  <fragmenstein_outcome>  (2436) 
acceptable

>  <inchikey>  (2436) 
LPKCCQGWAWOTLN-UHFFFAOYSA-N

>  <fragmenstein_mode>  (2436) 
expansion

>  <HIPPO Pose ID>  (2436) 
28227

>  <Energy>  (2436) 
122.992896

>  <fragmenstein_error>  (2436) 


>  <tags>  (2436) 
{'openbind_xx01zvns2b_c1_fragmenstein', 'fragmenstein_placed'}

>  <ref_pdb>  (2436) 
175

>  <scratch_subdir>  (2436) 
/opt/xchem-fragalysis-2/maxwin/BulkDock/SCRATCH/511028/C37101-P276

>  <alias>  (2436) 
CN1Cc2ccc(NC(=O)c3c(O)c(Cl)c4c5c3cnn5[C@@H]3[C@H](F)CN[C@H]3C(=O)N4)cc2C1

>  <HIPPO Compound ID>  (2436) 
37101

>  <fragmenstein_runtime>  (2436) 
8.537622

$$$$
COCC(=O)Nc1cc(CN2CC(n3ncc4c(C(=O)Nc5ccc6c(c5)CN(C)C6)cc(Cl)cc43)C2)cc(NC(C)=O)c1
     RDKit          3D

 44 49  0  0  0  0  0  0  0  0999 V2000
   -6.2617   10.5505  -28.8245 C   0  0  0  0  0  0  0  0  0  0  0  0
   -7.1587   10.9392  -27.7875 O   0  0  0  0  0  0  0  0  0  0  0  0
   -7.9027    9.8273  -27.2866 C   0  0  0  0  0  0  0  0  0  0  0  0
   -7.1673    9.0533  -26.1748 C   0  0  0  0  0  0  0  0  0  0  0  0
   -7.4148    7.8992  -25.9705 O   0  0  0  0  0  0  0  0  0  0  0  0
   -6.2741    9.9601  -25.4961 N   0  0  0  0  0  0  0  0  0  0  0  0
   -5.3654    9.7447  -24.4604 C   0  0  0  0  0  0  0  0  0  0  0  0
   -5.2464    8.5083  -23.8200 C   0  0  0  0  0  0  0  0  0  0  0  0
   -4.3035    8.3246  -22.7967 C   0  0  0  0  0  0  0  0  0  0  0  0
   -4.1266    6.9604  -22.1501 C   0  0  0  0  0  0  0  0  0  0  0  0
   -3.8934    7.0696  -20.7001 N   0  0  0  0  0  0  0  0  0  0  0  0
   -3.5629    5.7535  -20.1036 C   0  0  0  0  0  0  0  0  0  0  0  0
   -5.0245    5.5782  -19.6656 C   0  0  0  0  0  0  0  0  0  0  0  0
   -5.2411    5.3079  -18.2294 N   0  0  0  0  0  0  0  0  0  0  0  0
   -4.3095    5.5553  -17.2838 N   0  0  0  0  0  0  0  0  0  0  0  0
   -4.9957    5.5023  -16.1413 C   0  0  0  0  0  0  0  0  0  0  0  0
   -6.3492    5.1484  -16.3306 C   0  0  0  0  0  0  0  0  0  0  0  0
   -7.4843    4.9863  -15.5090 C   0  0  0  0  0  0  0  0  0  0  0  0
   -7.4121    5.4256  -14.0963 C   0  0  0  0  0  0  0  0  0  0  0  0
   -6.9635    6.5265  -13.9385 O   0  0  0  0  0  0  0  0  0  0  0  0
   -7.9454    4.4856  -13.1529 N   0  0  0  0  0  0  0  0  0  0  0  0
   -8.0202    4.5288  -11.7589 C   0  0  0  0  0  0  0  0  0  0  0  0
   -7.6018    5.6665  -11.0413 C   0  0  0  0  0  0  0  0  0  0  0  0
   -7.6892    5.7181   -9.6453 C   0  0  0  0  0  0  0  0  0  0  0  0
   -8.2007    4.6186   -8.9874 C   0  0  0  0  0  0  0  0  0  0  0  0
   -8.6052    3.4841   -9.6931 C   0  0  0  0  0  0  0  0  0  0  0  0
   -8.5228    3.4196  -11.0756 C   0  0  0  0  0  0  0  0  0  0  0  0
   -9.0848    2.4583   -8.7124 C   0  0  0  0  0  0  0  0  0  0  0  0
   -9.3584    3.2499   -7.4910 N   0  0  0  0  0  0  0  0  0  0  0  0
   -9.2802    2.4513   -6.2824 C   0  0  0  0  0  0  0  0  0  0  0  0
   -8.4153    4.3823   -7.5229 C   0  0  0  0  0  0  0  0  0  0  0  0
   -8.7032    4.6083  -16.0865 C   0  0  0  0  0  0  0  0  0  0  0  0
   -8.7913    4.4373  -17.4661 C   0  0  0  0  0  0  0  0  0  0  0  0
  -10.3182    4.1064  -18.1794 Cl  0  0  0  0  0  0  0  0  0  0  0  0
   -7.6900    4.6234  -18.3056 C   0  0  0  0  0  0  0  0  0  0  0  0
   -6.4751    4.9812  -17.7080 C   0  0  0  0  0  0  0  0  0  0  0  0
   -5.1785    7.0802  -19.9692 C   0  0  0  0  0  0  0  0  0  0  0  0
   -3.4791    9.4039  -22.4357 C   0  0  0  0  0  0  0  0  0  0  0  0
   -3.6077   10.6458  -23.0603 C   0  0  0  0  0  0  0  0  0  0  0  0
   -2.7714   11.6807  -22.6450 N   0  0  0  0  0  0  0  0  0  0  0  0
   -2.6688   13.0512  -23.0881 C   0  0  0  0  0  0  0  0  0  0  0  0
   -1.5232   13.7198  -22.3564 C   0  0  0  0  0  0  0  0  0  0  0  0
   -3.3293   13.6723  -23.8718 O   0  0  0  0  0  0  0  0  0  0  0  0
   -4.5508   10.8129  -24.0730 C   0  0  0  0  0  0  0  0  0  0  0  0
  1  2  1  0
  2  3  1  0
  3  4  1  0
  4  5  2  0
  4  6  1  0
  6  7  1  0
  7  8  2  0
  8  9  1  0
  9 10  1  0
 10 11  1  0
 11 12  1  0
 12 13  1  0
 13 14  1  0
 14 15  1  0
 15 16  2  0
 16 17  1  0
 17 18  2  0
 18 19  1  0
 19 20  2  0
 19 21  1  0
 21 22  1  0
 22 23  2  0
 23 24  1  0
 24 25  2  0
 25 26  1  0
 26 27  2  0
 26 28  1  0
 28 29  1  0
 29 30  1  0
 29 31  1  0
 18 32  1  0
 32 33  2  0
 33 34  1  0
 33 35  1  0
 35 36  2  0
 13 37  1  0
  9 38  2  0
 38 39  1  0
 39 40  1  0
 40 41  1  0
 41 42  1  0
 41 43  2  0
 39 44  2  0
 44  7  1  0
 37 11  1  0
 36 14  1  0
 36 17  1  0
 27 22  1  0
 31 25  1  0
M  END
>  <smiles>  (2437) 
C37109-P276

>  <fragmenstein_outcome>  (2437) 
acceptable

>  <inchikey>  (2437) 
BZQPBMLLRMNULA-UHFFFAOYSA-N

>  <fragmenstein_mode>  (2437) 
expansion

>  <HIPPO Pose ID>  (2437) 
28228

>  <Energy>  (2437) 
91.33987

>  <fragmenstein_error>  (2437) 


>  <tags>  (2437) 
{'openbind_xx01zvns2b_c1_fragmenstein', 'fragmenstein_placed'}

>  <ref_pdb>  (2437) 
175

>  <scratch_subdir>  (2437) 
/opt/xchem-fragalysis-2/maxwin/BulkDock/SCRATCH/511028/C37109-P276

>  <alias>  (2437) 
COCC(=O)Nc1cc(CN2CC(n3ncc4c(C(=O)Nc5ccc6c(c5)CN(C)C6)cc(Cl)cc43)C2)cc(NC(C)=O)c1

>  <HIPPO Compound ID>  (2437) 
37109

>  <fragmenstein_runtime>  (2437) 
28.686712

$$$$
Cc1cc(NC(=O)c2cc(Cl)cc3c2c(F)nn3C2CNC2)cc2c1CN(C)C2
     RDKit          3D

 29 33  0  0  0  0  0  0  0  0999 V2000
   -8.2304    7.1351   -8.9644 C   0  0  0  0  0  0  0  0  0  0  0  0
   -8.3359    5.8120   -9.6530 C   0  0  0  0  0  0  0  0  0  0  0  0
   -8.2129    5.7125  -11.0472 C   0  0  0  0  0  0  0  0  0  0  0  0
   -8.3168    4.4742  -11.7066 C   0  0  0  0  0  0  0  0  0  0  0  0
   -8.1850    4.4058  -13.0930 N   0  0  0  0  0  0  0  0  0  0  0  0
   -7.6810    5.4554  -14.1044 C   0  0  0  0  0  0  0  0  0  0  0  0
   -7.3689    6.5695  -13.9471 O   0  0  0  0  0  0  0  0  0  0  0  0
   -7.6219    4.9469  -15.4888 C   0  0  0  0  0  0  0  0  0  0  0  0
   -8.7875    4.5456  -16.1430 C   0  0  0  0  0  0  0  0  0  0  0  0
   -8.7913    4.4419  -17.5317 C   0  0  0  0  0  0  0  0  0  0  0  0
  -10.2675    4.0793  -18.3279 Cl  0  0  0  0  0  0  0  0  0  0  0  0
   -7.6615    4.7421  -18.3053 C   0  0  0  0  0  0  0  0  0  0  0  0
   -6.4964    5.1174  -17.6249 C   0  0  0  0  0  0  0  0  0  0  0  0
   -6.4485    5.1688  -16.2319 C   0  0  0  0  0  0  0  0  0  0  0  0
   -5.1152    5.5003  -15.9464 C   0  0  0  0  0  0  0  0  0  0  0  0
   -4.6063    5.5543  -14.7136 F   0  0  0  0  0  0  0  0  0  0  0  0
   -4.3817    5.7298  -17.0282 N   0  0  0  0  0  0  0  0  0  0  0  0
   -5.2639    5.5889  -18.0358 N   0  0  0  0  0  0  0  0  0  0  0  0
   -5.0278    6.2726  -19.3174 C   0  0  0  0  0  0  0  0  0  0  0  0
   -3.5283    6.4999  -19.6148 C   0  0  0  0  0  0  0  0  0  0  0  0
   -3.7982    6.1306  -21.0183 N   0  0  0  0  0  0  0  0  0  0  0  0
   -4.9784    5.3653  -20.5373 C   0  0  0  0  0  0  0  0  0  0  0  0
   -8.5388    3.3085  -10.9759 C   0  0  0  0  0  0  0  0  0  0  0  0
   -8.6197    3.4055   -9.5935 C   0  0  0  0  0  0  0  0  0  0  0  0
   -8.5191    4.6339   -8.9426 C   0  0  0  0  0  0  0  0  0  0  0  0
   -8.6636    4.4291   -7.4665 C   0  0  0  0  0  0  0  0  0  0  0  0
   -8.7143    2.9770   -7.2656 N   0  0  0  0  0  0  0  0  0  0  0  0
   -9.7180    2.5323   -6.3189 C   0  0  0  0  0  0  0  0  0  0  0  0
   -8.8269    2.3193   -8.5838 C   0  0  0  0  0  0  0  0  0  0  0  0
  1  2  1  0
  2  3  2  0
  3  4  1  0
  4  5  1  0
  5  6  1  0
  6  7  2  0
  6  8  1  0
  8  9  2  0
  9 10  1  0
 10 11  1  0
 10 12  2  0
 12 13  1  0
 13 14  2  0
 14 15  1  0
 15 16  1  0
 15 17  2  0
 17 18  1  0
 18 19  1  0
 19 20  1  0
 20 21  1  0
 21 22  1  0
  4 23  2  0
 23 24  1  0
 24 25  2  0
 25 26  1  0
 26 27  1  0
 27 28  1  0
 27 29  1  0
 25  2  1  0
 14  8  1  0
 22 19  1  0
 29 24  1  0
 18 13  1  0
M  END
>  <smiles>  (2438) 
C37111-P276

>  <fragmenstein_outcome>  (2438) 
acceptable

>  <inchikey>  (2438) 
NIDXIDKYRXGDHO-UHFFFAOYSA-N

>  <fragmenstein_mode>  (2438) 
expansion

>  <HIPPO Pose ID>  (2438) 
28229

>  <Energy>  (2438) 
69.420095

>  <fragmenstein_error>  (2438) 


>  <tags>  (2438) 
{'openbind_xx01zvns2b_c1_fragmenstein', 'fragmenstein_placed'}

>  <ref_pdb>  (2438) 
175

>  <scratch_subdir>  (2438) 
/opt/xchem-fragalysis-2/maxwin/BulkDock/SCRATCH/511028/C37111-P276

>  <alias>  (2438) 
Cc1cc(NC(=O)c2cc(Cl)cc3c2c(F)nn3C2CNC2)cc2c1CN(C)C2

>  <HIPPO Compound ID>  (2438) 
37111

>  <fragmenstein_runtime>  (2438) 
10.491115

$$$$
CC[C@@H]1CC2=C(CNN2C2CNC2)[C@H](C(=O)Nc2cc3c(cc2C)CN(C)C3)C1
     RDKit          3D

 29 33  0  0  0  0  0  0  0  0999 V2000
  -10.8669    4.3818  -18.2546 C   0  0  0  0  0  0  0  0  0  0  0  0
   -9.4935    3.7535  -18.3979 C   0  0  0  0  0  0  0  0  0  0  0  0
   -8.4132    4.6610  -17.8217 C   0  0  2  0  0  0  0  0  0  0  0  0
   -7.0557    4.5146  -18.5052 C   0  0  0  0  0  0  0  0  0  0  0  0
   -5.9107    5.0147  -17.6959 C   0  0  0  0  0  0  0  0  0  0  0  0
   -6.0036    5.4574  -16.4413 C   0  0  0  0  0  0  0  0  0  0  0  0
   -4.6819    5.9717  -16.0168 C   0  0  0  0  0  0  0  0  0  0  0  0
   -3.8237    5.8518  -17.2356 N   0  0  0  0  0  0  0  0  0  0  0  0
   -4.6371    5.1704  -18.2011 N   0  0  0  0  0  0  0  0  0  0  0  0
   -4.3652    5.1861  -19.6188 C   0  0  0  0  0  0  0  0  0  0  0  0
   -2.9143    5.4251  -20.0681 C   0  0  0  0  0  0  0  0  0  0  0  0
   -3.4507    6.2628  -21.1861 N   0  0  0  0  0  0  0  0  0  0  0  0
   -4.6425    6.5276  -20.3274 C   0  0  0  0  0  0  0  0  0  0  0  0
   -7.3100    5.6250  -15.7685 C   0  0  2  0  0  0  0  0  0  0  0  0
   -7.3086    6.0378  -14.2804 C   0  0  0  0  0  0  0  0  0  0  0  0
   -7.2882    7.1698  -13.9851 O   0  0  0  0  0  0  0  0  0  0  0  0
   -7.4099    4.7716  -13.3953 N   0  0  0  0  0  0  0  0  0  0  0  0
   -7.5965    4.6405  -12.0171 C   0  0  0  0  0  0  0  0  0  0  0  0
   -7.8984    5.7641  -11.2371 C   0  0  0  0  0  0  0  0  0  0  0  0
   -8.1195    5.5929   -9.8801 C   0  0  0  0  0  0  0  0  0  0  0  0
   -8.0682    4.3335   -9.2984 C   0  0  0  0  0  0  0  0  0  0  0  0
   -7.7593    3.2122  -10.0485 C   0  0  0  0  0  0  0  0  0  0  0  0
   -7.4883    3.3663  -11.4196 C   0  0  0  0  0  0  0  0  0  0  0  0
   -6.9595    2.1983  -12.2017 C   0  0  0  0  0  0  0  0  0  0  0  0
   -8.2919    4.4466   -7.8260 C   0  0  0  0  0  0  0  0  0  0  0  0
   -8.7022    5.8556   -7.5993 N   0  0  0  0  0  0  0  0  0  0  0  0
   -8.1066    6.4259   -6.4051 C   0  0  0  0  0  0  0  0  0  0  0  0
   -8.3678    6.6203   -8.8252 C   0  0  0  0  0  0  0  0  0  0  0  0
   -8.3401    4.6057  -16.2708 C   0  0  0  0  0  0  0  0  0  0  0  0
  1  2  1  0
  3  2  1  6
  3  4  1  0
  4  5  1  0
  5  6  2  0
  6  7  1  0
  7  8  1  0
  8  9  1  0
  9 10  1  0
 10 11  1  0
 11 12  1  0
 12 13  1  0
  6 14  1  0
 14 15  1  1
 15 16  2  0
 15 17  1  0
 17 18  1  0
 18 19  2  0
 19 20  1  0
 20 21  2  0
 21 22  1  0
 22 23  2  0
 23 24  1  0
 21 25  1  0
 25 26  1  0
 26 27  1  0
 26 28  1  0
 14 29  1  0
 29  3  1  0
  9  5  1  0
 13 10  1  0
 23 18  1  0
 28 20  1  0
M  END
>  <smiles>  (2439) 
C37113-P276

>  <fragmenstein_outcome>  (2439) 
acceptable

>  <inchikey>  (2439) 
TWZRQMYDFYICDZ-UHFFFAOYSA-N

>  <fragmenstein_mode>  (2439) 
expansion

>  <HIPPO Pose ID>  (2439) 
28230

>  <Energy>  (2439) 
127.549927

>  <fragmenstein_error>  (2439) 


>  <tags>  (2439) 
{'openbind_xx01zvns2b_c1_fragmenstein', 'fragmenstein_placed'}

>  <ref_pdb>  (2439) 
175

>  <scratch_subdir>  (2439) 
/opt/xchem-fragalysis-2/maxwin/BulkDock/SCRATCH/511028/C37113-P276

>  <alias>  (2439) 
CC[C@@H]1CC2=C(CNN2C2CNC2)[C@H](C(=O)Nc2cc3c(cc2C)CN(C)C3)C1

>  <HIPPO Compound ID>  (2439) 
37113

>  <fragmenstein_runtime>  (2439) 
7.133786

$$$$
COCc1cc2c(C(=O)Nc3ccc4c(c3)CN(C)C4)cc(Cl)cc2n1C1CNC1
     RDKit          3D

 30 34  0  0  0  0  0  0  0  0999 V2000
   -1.4529    7.5502  -15.3089 C   0  0  0  0  0  0  0  0  0  0  0  0
   -2.7438    6.9793  -15.4170 O   0  0  0  0  0  0  0  0  0  0  0  0
   -3.1389    6.8202  -16.7744 C   0  0  0  0  0  0  0  0  0  0  0  0
   -4.4724    6.1605  -16.7619 C   0  0  0  0  0  0  0  0  0  0  0  0
   -5.2632    5.8685  -15.6780 C   0  0  0  0  0  0  0  0  0  0  0  0
   -6.5068    5.3974  -16.1466 C   0  0  0  0  0  0  0  0  0  0  0  0
   -7.7179    5.1048  -15.4803 C   0  0  0  0  0  0  0  0  0  0  0  0
   -7.8748    5.5995  -14.0930 C   0  0  0  0  0  0  0  0  0  0  0  0
   -7.6427    6.7283  -13.9066 O   0  0  0  0  0  0  0  0  0  0  0  0
   -8.2653    4.4832  -13.1045 N   0  0  0  0  0  0  0  0  0  0  0  0
   -8.3572    4.4967  -11.7142 C   0  0  0  0  0  0  0  0  0  0  0  0
   -8.1436    5.6951  -11.0049 C   0  0  0  0  0  0  0  0  0  0  0  0
   -8.2033    5.7320   -9.6100 C   0  0  0  0  0  0  0  0  0  0  0  0
   -8.5026    4.5598   -8.9487 C   0  0  0  0  0  0  0  0  0  0  0  0
   -8.7286    3.3716   -9.6483 C   0  0  0  0  0  0  0  0  0  0  0  0
   -8.6436    3.3163  -11.0302 C   0  0  0  0  0  0  0  0  0  0  0  0
   -9.0651    2.2952   -8.6608 C   0  0  0  0  0  0  0  0  0  0  0  0
   -9.4492    3.0536   -7.4472 N   0  0  0  0  0  0  0  0  0  0  0  0
   -9.2901    2.2868   -6.2308 C   0  0  0  0  0  0  0  0  0  0  0  0
   -8.6625    4.2973   -7.4838 C   0  0  0  0  0  0  0  0  0  0  0  0
   -8.8013    4.5987  -16.1844 C   0  0  0  0  0  0  0  0  0  0  0  0
   -8.6962    4.4694  -17.5622 C   0  0  0  0  0  0  0  0  0  0  0  0
  -10.0940    3.9958  -18.4376 Cl  0  0  0  0  0  0  0  0  0  0  0  0
   -7.5324    4.8240  -18.2683 C   0  0  0  0  0  0  0  0  0  0  0  0
   -6.4260    5.3042  -17.5459 C   0  0  0  0  0  0  0  0  0  0  0  0
   -5.1861    5.8257  -17.8989 N   0  0  0  0  0  0  0  0  0  0  0  0
   -4.7257    6.3506  -19.2055 C   0  0  0  0  0  0  0  0  0  0  0  0
   -3.4969    5.5983  -19.7751 C   0  0  0  0  0  0  0  0  0  0  0  0
   -4.0192    5.9403  -21.1180 N   0  0  0  0  0  0  0  0  0  0  0  0
   -5.3802    5.9233  -20.5138 C   0  0  0  0  0  0  0  0  0  0  0  0
  1  2  1  0
  2  3  1  0
  3  4  1  0
  4  5  2  0
  5  6  1  0
  6  7  2  0
  7  8  1  0
  8  9  2  0
  8 10  1  0
 10 11  1  0
 11 12  2  0
 12 13  1  0
 13 14  2  0
 14 15  1  0
 15 16  2  0
 15 17  1  0
 17 18  1  0
 18 19  1  0
 18 20  1  0
  7 21  1  0
 21 22  2  0
 22 23  1  0
 22 24  1  0
 24 25  2  0
 25 26  1  0
 26 27  1  0
 27 28  1  0
 28 29  1  0
 29 30  1  0
 26  4  1  0
 30 27  1  0
 25  6  1  0
 16 11  1  0
 20 14  1  0
M  END
>  <smiles>  (2440) 
C37114-P276

>  <fragmenstein_outcome>  (2440) 
acceptable

>  <inchikey>  (2440) 
FNRBVBLONGRTMA-UHFFFAOYSA-N

>  <fragmenstein_mode>  (2440) 
expansion

>  <HIPPO Pose ID>  (2440) 
28231

>  <Energy>  (2440) 
86.987181

>  <fragmenstein_error>  (2440) 


>  <tags>  (2440) 
{'openbind_xx01zvns2b_c1_fragmenstein', 'fragmenstein_placed'}

>  <ref_pdb>  (2440) 
175

>  <scratch_subdir>  (2440) 
/opt/xchem-fragalysis-2/maxwin/BulkDock/SCRATCH/511028/C37114-P276

>  <alias>  (2440) 
COCc1cc2c(C(=O)Nc3ccc4c(c3)CN(C)C4)cc(Cl)cc2n1C1CNC1

>  <HIPPO Compound ID>  (2440) 
37114

>  <fragmenstein_runtime>  (2440) 
12.804866

$$$$
Cc1cc(NC(=O)c2cc(Cl)cc3c2c(F)c(C)n3C2CNC2)cc2c1CN(C)C2
     RDKit          3D

 30 34  0  0  0  0  0  0  0  0999 V2000
   -8.0562    7.0768   -8.9808 C   0  0  0  0  0  0  0  0  0  0  0  0
   -8.1963    5.7728   -9.6977 C   0  0  0  0  0  0  0  0  0  0  0  0
   -8.1076    5.7051  -11.0976 C   0  0  0  0  0  0  0  0  0  0  0  0
   -8.2952    4.4939  -11.7905 C   0  0  0  0  0  0  0  0  0  0  0  0
   -8.1832    4.4500  -13.1801 N   0  0  0  0  0  0  0  0  0  0  0  0
   -7.6858    5.5164  -14.1808 C   0  0  0  0  0  0  0  0  0  0  0  0
   -7.3643    6.6258  -14.0073 O   0  0  0  0  0  0  0  0  0  0  0  0
   -7.6423    5.0080  -15.5712 C   0  0  0  0  0  0  0  0  0  0  0  0
   -8.8127    4.5709  -16.1877 C   0  0  0  0  0  0  0  0  0  0  0  0
   -8.8322    4.4043  -17.5663 C   0  0  0  0  0  0  0  0  0  0  0  0
  -10.3263    4.0470  -18.3271 Cl  0  0  0  0  0  0  0  0  0  0  0  0
   -7.7023    4.6331  -18.3612 C   0  0  0  0  0  0  0  0  0  0  0  0
   -6.5230    5.0607  -17.7293 C   0  0  0  0  0  0  0  0  0  0  0  0
   -6.4787    5.2206  -16.3406 C   0  0  0  0  0  0  0  0  0  0  0  0
   -5.1713    5.6277  -16.0506 C   0  0  0  0  0  0  0  0  0  0  0  0
   -4.6801    5.8103  -14.8245 F   0  0  0  0  0  0  0  0  0  0  0  0
   -4.4786    5.8919  -17.2040 C   0  0  0  0  0  0  0  0  0  0  0  0
   -3.1647    6.5650  -17.2893 C   0  0  0  0  0  0  0  0  0  0  0  0
   -5.2795    5.4407  -18.2347 N   0  0  0  0  0  0  0  0  0  0  0  0
   -4.9948    5.3989  -19.6913 C   0  0  0  0  0  0  0  0  0  0  0  0
   -3.5371    5.3838  -20.1848 C   0  0  0  0  0  0  0  0  0  0  0  0
   -3.9340    6.3483  -21.2444 N   0  0  0  0  0  0  0  0  0  0  0  0
   -5.0584    6.7757  -20.3718 C   0  0  0  0  0  0  0  0  0  0  0  0
   -8.5956    3.3259  -11.0915 C   0  0  0  0  0  0  0  0  0  0  0  0
   -8.6985    3.3989   -9.7116 C   0  0  0  0  0  0  0  0  0  0  0  0
   -8.4938    4.5989   -9.0237 C   0  0  0  0  0  0  0  0  0  0  0  0
   -8.6650    4.3404   -7.5554 C   0  0  0  0  0  0  0  0  0  0  0  0
   -9.4249    3.0821   -7.5104 N   0  0  0  0  0  0  0  0  0  0  0  0
   -9.2576    2.3256   -6.2889 C   0  0  0  0  0  0  0  0  0  0  0  0
   -9.0362    2.3256   -8.7204 C   0  0  0  0  0  0  0  0  0  0  0  0
  1  2  1  0
  2  3  2  0
  3  4  1  0
  4  5  1  0
  5  6  1  0
  6  7  2  0
  6  8  1  0
  8  9  2  0
  9 10  1  0
 10 11  1  0
 10 12  2  0
 12 13  1  0
 13 14  2  0
 14 15  1  0
 15 16  1  0
 15 17  2  0
 17 18  1  0
 17 19  1  0
 19 20  1  0
 20 21  1  0
 21 22  1  0
 22 23  1  0
  4 24  2  0
 24 25  1  0
 25 26  2  0
 26 27  1  0
 27 28  1  0
 28 29  1  0
 28 30  1  0
 26  2  1  0
 14  8  1  0
 23 20  1  0
 30 25  1  0
 19 13  1  0
M  END
>  <smiles>  (2441) 
C37118-P276

>  <fragmenstein_outcome>  (2441) 
acceptable

>  <inchikey>  (2441) 
DSHJHVHVSMULGX-UHFFFAOYSA-N

>  <fragmenstein_mode>  (2441) 
expansion

>  <HIPPO Pose ID>  (2441) 
28232

>  <Energy>  (2441) 
81.732474

>  <fragmenstein_error>  (2441) 


>  <tags>  (2441) 
{'openbind_xx01zvns2b_c1_fragmenstein', 'fragmenstein_placed'}

>  <ref_pdb>  (2441) 
175

>  <scratch_subdir>  (2441) 
/opt/xchem-fragalysis-2/maxwin/BulkDock/SCRATCH/511028/C37118-P276

>  <alias>  (2441) 
Cc1cc(NC(=O)c2cc(Cl)cc3c2c(F)c(C)n3C2CNC2)cc2c1CN(C)C2

>  <HIPPO Compound ID>  (2441) 
209

>  <fragmenstein_runtime>  (2441) 
8.787559

$$$$
CNc1cc2c(C(=O)Nc3cc(C)c4c(c3)CN(C)C4)cc(Cl)cc2n1C1CNC1
     RDKit          3D

 30 34  0  0  0  0  0  0  0  0999 V2000
   -2.0544    5.8703  -16.0273 C   0  0  0  0  0  0  0  0  0  0  0  0
   -2.8505    5.5802  -17.2065 N   0  0  0  0  0  0  0  0  0  0  0  0
   -4.2041    5.5061  -17.1288 C   0  0  0  0  0  0  0  0  0  0  0  0
   -5.0250    5.6775  -16.0342 C   0  0  0  0  0  0  0  0  0  0  0  0
   -6.3440    5.3029  -16.3952 C   0  0  0  0  0  0  0  0  0  0  0  0
   -7.5606    5.1946  -15.6923 C   0  0  0  0  0  0  0  0  0  0  0  0
   -7.6722    5.7885  -14.3538 C   0  0  0  0  0  0  0  0  0  0  0  0
   -7.4571    6.9304  -14.2558 O   0  0  0  0  0  0  0  0  0  0  0  0
   -8.1329    4.7654  -13.2997 N   0  0  0  0  0  0  0  0  0  0  0  0
   -8.3276    4.9051  -11.9343 C   0  0  0  0  0  0  0  0  0  0  0  0
   -8.5473    6.2009  -11.4214 C   0  0  0  0  0  0  0  0  0  0  0  0
   -8.6744    6.4376  -10.0521 C   0  0  0  0  0  0  0  0  0  0  0  0
   -8.8910    7.8207   -9.5277 C   0  0  0  0  0  0  0  0  0  0  0  0
   -8.4778    5.3501   -9.2255 C   0  0  0  0  0  0  0  0  0  0  0  0
   -8.2211    4.0670   -9.7338 C   0  0  0  0  0  0  0  0  0  0  0  0
   -8.2180    3.8039  -11.0911 C   0  0  0  0  0  0  0  0  0  0  0  0
   -7.8119    3.1888   -8.5881 C   0  0  0  0  0  0  0  0  0  0  0  0
   -7.4518    4.1563   -7.4907 N   0  0  0  0  0  0  0  0  0  0  0  0
   -6.0610    4.6219   -7.6518 C   0  0  0  0  0  0  0  0  0  0  0  0
   -8.3525    5.3045   -7.7353 C   0  0  0  0  0  0  0  0  0  0  0  0
   -8.7117    4.7246  -16.3198 C   0  0  0  0  0  0  0  0  0  0  0  0
   -8.6710    4.4519  -17.6776 C   0  0  0  0  0  0  0  0  0  0  0  0
  -10.1383    4.0366  -18.4586 Cl  0  0  0  0  0  0  0  0  0  0  0  0
   -7.4967    4.5965  -18.4274 C   0  0  0  0  0  0  0  0  0  0  0  0
   -6.3281    5.0066  -17.7586 C   0  0  0  0  0  0  0  0  0  0  0  0
   -5.0354    5.2471  -18.2049 N   0  0  0  0  0  0  0  0  0  0  0  0
   -4.7019    5.2115  -19.6472 C   0  0  0  0  0  0  0  0  0  0  0  0
   -3.2841    5.5955  -20.1210 C   0  0  0  0  0  0  0  0  0  0  0  0
   -3.9186    6.2884  -21.2778 N   0  0  0  0  0  0  0  0  0  0  0  0
   -5.0877    6.5181  -20.3787 C   0  0  0  0  0  0  0  0  0  0  0  0
  1  2  1  0
  2  3  1  0
  3  4  2  0
  4  5  1  0
  5  6  2  0
  6  7  1  0
  7  8  2  0
  7  9  1  0
  9 10  1  0
 10 11  2  0
 11 12  1  0
 12 13  1  0
 12 14  2  0
 14 15  1  0
 15 16  2  0
 15 17  1  0
 17 18  1  0
 18 19  1  0
 18 20  1  0
  6 21  1  0
 21 22  2  0
 22 23  1  0
 22 24  1  0
 24 25  2  0
 25 26  1  0
 26 27  1  0
 27 28  1  0
 28 29  1  0
 29 30  1  0
 26  3  1  0
 30 27  1  0
 25  5  1  0
 16 10  1  0
 20 14  1  0
M  END
>  <smiles>  (2442) 
C37124-P276

>  <fragmenstein_outcome>  (2442) 
acceptable

>  <inchikey>  (2442) 
VOZCRZRLYNSPHX-UHFFFAOYSA-N

>  <fragmenstein_mode>  (2442) 
expansion

>  <HIPPO Pose ID>  (2442) 
28235

>  <Energy>  (2442) 
101.060019

>  <fragmenstein_error>  (2442) 


>  <tags>  (2442) 
{'openbind_xx01zvns2b_c1_fragmenstein', 'fragmenstein_placed'}

>  <ref_pdb>  (2442) 
175

>  <scratch_subdir>  (2442) 
/opt/xchem-fragalysis-2/maxwin/BulkDock/SCRATCH/511028/C37124-P276

>  <alias>  (2442) 
CNc1cc2c(C(=O)Nc3cc(C)c4c(c3)CN(C)C4)cc(Cl)cc2n1C1CNC1

>  <HIPPO Compound ID>  (2442) 
40020

>  <fragmenstein_runtime>  (2442) 
8.638339

$$$$
CN1Cc2ccc(NC(=O)c3cc(Cl)cc4c3c(N)nn4C3CNC3)cc2C1
     RDKit          3D

 28 32  0  0  0  0  0  0  0  0999 V2000
   -4.9003    3.0599  -10.1727 C   0  0  0  0  0  0  0  0  0  0  0  0
   -5.8745    2.9139   -9.0869 N   0  0  0  0  0  0  0  0  0  0  0  0
   -6.3903    4.2323   -8.6150 C   0  0  0  0  0  0  0  0  0  0  0  0
   -7.4772    4.5709   -9.5931 C   0  0  0  0  0  0  0  0  0  0  0  0
   -7.8112    5.8128  -10.0898 C   0  0  0  0  0  0  0  0  0  0  0  0
   -8.3230    5.8384  -11.3815 C   0  0  0  0  0  0  0  0  0  0  0  0
   -8.5504    4.6364  -12.0796 C   0  0  0  0  0  0  0  0  0  0  0  0
   -8.4713    4.6286  -13.4619 N   0  0  0  0  0  0  0  0  0  0  0  0
   -7.8658    5.6562  -14.4345 C   0  0  0  0  0  0  0  0  0  0  0  0
   -7.4060    6.7092  -14.2326 O   0  0  0  0  0  0  0  0  0  0  0  0
   -7.8012    5.1276  -15.8041 C   0  0  0  0  0  0  0  0  0  0  0  0
   -8.9655    4.6911  -16.4203 C   0  0  0  0  0  0  0  0  0  0  0  0
   -8.9569    4.4358  -17.7800 C   0  0  0  0  0  0  0  0  0  0  0  0
  -10.4615    4.1203  -18.5179 Cl  0  0  0  0  0  0  0  0  0  0  0  0
   -7.7982    4.5478  -18.5540 C   0  0  0  0  0  0  0  0  0  0  0  0
   -6.6220    4.9389  -17.8991 C   0  0  0  0  0  0  0  0  0  0  0  0
   -6.5983    5.2089  -16.5328 C   0  0  0  0  0  0  0  0  0  0  0  0
   -5.2442    5.5077  -16.2518 C   0  0  0  0  0  0  0  0  0  0  0  0
   -4.7670    5.7729  -15.0279 N   0  0  0  0  0  0  0  0  0  0  0  0
   -4.4811    5.4828  -17.3358 N   0  0  0  0  0  0  0  0  0  0  0  0
   -5.3379    5.1874  -18.3316 N   0  0  0  0  0  0  0  0  0  0  0  0
   -4.9325    5.1585  -19.7456 C   0  0  0  0  0  0  0  0  0  0  0  0
   -3.4229    5.3677  -20.0024 C   0  0  0  0  0  0  0  0  0  0  0  0
   -3.7987    6.2217  -21.1670 N   0  0  0  0  0  0  0  0  0  0  0  0
   -5.0622    6.5286  -20.4378 C   0  0  0  0  0  0  0  0  0  0  0  0
   -8.4876    3.3970  -11.4538 C   0  0  0  0  0  0  0  0  0  0  0  0
   -7.8639    3.3836  -10.2284 C   0  0  0  0  0  0  0  0  0  0  0  0
   -7.0967    2.2463   -9.6167 C   0  0  0  0  0  0  0  0  0  0  0  0
  1  2  1  0
  2  3  1  0
  3  4  1  0
  4  5  2  0
  5  6  1  0
  6  7  2  0
  7  8  1  0
  8  9  1  0
  9 10  2  0
  9 11  1  0
 11 12  2  0
 12 13  1  0
 13 14  1  0
 13 15  2  0
 15 16  1  0
 16 17  2  0
 17 18  1  0
 18 19  1  0
 18 20  2  0
 20 21  1  0
 21 22  1  0
 22 23  1  0
 23 24  1  0
 24 25  1  0
  7 26  1  0
 26 27  2  0
 27 28  1  0
 28  2  1  0
 27  4  1  0
 17 11  1  0
 25 22  1  0
 21 16  1  0
M  END
>  <smiles>  (2443) 
C37134-P276

>  <fragmenstein_outcome>  (2443) 
acceptable

>  <inchikey>  (2443) 
AJGWKPFMBCGASE-UHFFFAOYSA-N

>  <fragmenstein_mode>  (2443) 
expansion

>  <HIPPO Pose ID>  (2443) 
28238

>  <Energy>  (2443) 
40.635103

>  <fragmenstein_error>  (2443) 


>  <tags>  (2443) 
{'openbind_xx01zvns2b_c1_fragmenstein', 'fragmenstein_placed'}

>  <ref_pdb>  (2443) 
175

>  <scratch_subdir>  (2443) 
/opt/xchem-fragalysis-2/maxwin/BulkDock/SCRATCH/511028/C37134-P276

>  <alias>  (2443) 
CN1Cc2ccc(NC(=O)c3cc(Cl)cc4c3c(N)nn4C3CNC3)cc2C1

>  <HIPPO Compound ID>  (2443) 
19107

>  <fragmenstein_runtime>  (2443) 
12.45565

$$$$
Cc1cc2c(cc1NC(O)(O)c1cc(Cl)cc3c1cnn3C1CNC1)CN(C)C2
     RDKit          3D

 29 33  0  0  0  0  0  0  0  0999 V2000
   -8.4676    7.5044  -11.7647 C   0  0  0  0  0  0  0  0  0  0  0  0
   -8.4760    6.1246  -11.1632 C   0  0  0  0  0  0  0  0  0  0  0  0
   -8.4151    6.0517   -9.7567 C   0  0  0  0  0  0  0  0  0  0  0  0
   -8.4739    4.8173   -9.1392 C   0  0  0  0  0  0  0  0  0  0  0  0
   -8.5695    3.6528   -9.8846 C   0  0  0  0  0  0  0  0  0  0  0  0
   -8.5983    3.6902  -11.2687 C   0  0  0  0  0  0  0  0  0  0  0  0
   -8.5473    4.9313  -11.9322 C   0  0  0  0  0  0  0  0  0  0  0  0
   -8.5502    4.9253  -13.3448 N   0  0  0  0  0  0  0  0  0  0  0  0
   -7.2908    4.9715  -14.0512 C   0  0  0  0  0  0  0  0  0  0  0  0
   -6.4289    3.9487  -13.6457 O   0  0  0  0  0  0  0  0  0  0  0  0
   -6.6828    6.2023  -13.7631 O   0  0  0  0  0  0  0  0  0  0  0  0
   -7.4375    4.8700  -15.5541 C   0  0  0  0  0  0  0  0  0  0  0  0
   -8.6606    4.5296  -16.1757 C   0  0  0  0  0  0  0  0  0  0  0  0
   -8.7828    4.4485  -17.5616 C   0  0  0  0  0  0  0  0  0  0  0  0
  -10.3222    4.1277  -18.2518 Cl  0  0  0  0  0  0  0  0  0  0  0  0
   -7.6971    4.6722  -18.4044 C   0  0  0  0  0  0  0  0  0  0  0  0
   -6.4758    4.9909  -17.8041 C   0  0  0  0  0  0  0  0  0  0  0  0
   -6.3330    5.0817  -16.4216 C   0  0  0  0  0  0  0  0  0  0  0  0
   -4.9657    5.3885  -16.2334 C   0  0  0  0  0  0  0  0  0  0  0  0
   -4.2956    5.5156  -17.3774 N   0  0  0  0  0  0  0  0  0  0  0  0
   -5.2289    5.2720  -18.3226 N   0  0  0  0  0  0  0  0  0  0  0  0
   -4.9457    5.3918  -19.7658 C   0  0  0  0  0  0  0  0  0  0  0  0
   -3.4504    5.5176  -20.1265 C   0  0  0  0  0  0  0  0  0  0  0  0
   -3.8084    6.6257  -21.0446 N   0  0  0  0  0  0  0  0  0  0  0  0
   -5.0343    6.8516  -20.2483 C   0  0  0  0  0  0  0  0  0  0  0  0
   -8.6805    2.4789   -8.9654 C   0  0  0  0  0  0  0  0  0  0  0  0
   -8.4777    3.0260   -7.6110 N   0  0  0  0  0  0  0  0  0  0  0  0
   -9.3686    2.4466   -6.6241 C   0  0  0  0  0  0  0  0  0  0  0  0
   -8.5227    4.4905   -7.6819 C   0  0  0  0  0  0  0  0  0  0  0  0
  1  2  1  0
  2  3  2  0
  3  4  1  0
  4  5  2  0
  5  6  1  0
  6  7  2  0
  7  8  1  0
  8  9  1  0
  9 10  1  0
  9 11  1  0
  9 12  1  0
 12 13  2  0
 13 14  1  0
 14 15  1  0
 14 16  2  0
 16 17  1  0
 17 18  2  0
 18 19  1  0
 19 20  2  0
 20 21  1  0
 21 22  1  0
 22 23  1  0
 23 24  1  0
 24 25  1  0
  5 26  1  0
 26 27  1  0
 27 28  1  0
 27 29  1  0
  7  2  1  0
 18 12  1  0
 25 22  1  0
 29  4  1  0
 21 17  1  0
M  END
>  <smiles>  (2444) 
C37149-P276

>  <fragmenstein_outcome>  (2444) 
acceptable

>  <inchikey>  (2444) 
GZRFRGFNCPVZJI-UHFFFAOYSA-N

>  <fragmenstein_mode>  (2444) 
expansion

>  <HIPPO Pose ID>  (2444) 
28246

>  <Energy>  (2444) 
-52.208853

>  <fragmenstein_error>  (2444) 


>  <tags>  (2444) 
{'openbind_xx01zvns2b_c1_fragmenstein', 'fragmenstein_placed'}

>  <ref_pdb>  (2444) 
175

>  <scratch_subdir>  (2444) 
/opt/xchem-fragalysis-2/maxwin/BulkDock/SCRATCH/511028/C37149-P276

>  <alias>  (2444) 
Cc1cc2c(cc1NC(O)(O)c1cc(Cl)cc3c1cnn3C1CNC1)CN(C)C2

>  <HIPPO Compound ID>  (2444) 
37149

>  <fragmenstein_runtime>  (2444) 
8.681625

$$$$
CN1Cc2ccc(NC(=O)c3cc(Cl)cc4c3cnn4[C@H]3CN[C@@]3(C=O)Cc3ccccc3)cc2C1
     RDKit          3D

 36 41  0  0  0  0  0  0  0  0999 V2000
   -8.8094    6.8874   -6.4133 C   0  0  0  0  0  0  0  0  0  0  0  0
   -8.0518    6.2312   -7.4622 N   0  0  0  0  0  0  0  0  0  0  0  0
   -8.3944    4.7909   -7.5957 C   0  0  0  0  0  0  0  0  0  0  0  0
   -8.3891    4.5220   -9.0647 C   0  0  0  0  0  0  0  0  0  0  0  0
   -8.4996    3.3198   -9.7408 C   0  0  0  0  0  0  0  0  0  0  0  0
   -8.4534    3.3399  -11.1387 C   0  0  0  0  0  0  0  0  0  0  0  0
   -8.2774    4.5476  -11.8291 C   0  0  0  0  0  0  0  0  0  0  0  0
   -8.1465    4.5266  -13.2122 N   0  0  0  0  0  0  0  0  0  0  0  0
   -7.7623    5.6470  -14.1987 C   0  0  0  0  0  0  0  0  0  0  0  0
   -7.5700    6.7831  -14.0155 O   0  0  0  0  0  0  0  0  0  0  0  0
   -7.6394    5.1530  -15.5786 C   0  0  0  0  0  0  0  0  0  0  0  0
   -8.7542    4.6592  -16.2506 C   0  0  0  0  0  0  0  0  0  0  0  0
   -8.6716    4.4284  -17.6178 C   0  0  0  0  0  0  0  0  0  0  0  0
  -10.1026    3.9829  -18.4484 Cl  0  0  0  0  0  0  0  0  0  0  0  0
   -7.4888    4.6345  -18.3435 C   0  0  0  0  0  0  0  0  0  0  0  0
   -6.3694    5.1070  -17.6404 C   0  0  0  0  0  0  0  0  0  0  0  0
   -6.4314    5.3592  -16.2682 C   0  0  0  0  0  0  0  0  0  0  0  0
   -5.1440    5.8111  -15.9233 C   0  0  0  0  0  0  0  0  0  0  0  0
   -4.3168    5.8269  -16.9639 N   0  0  0  0  0  0  0  0  0  0  0  0
   -5.0848    5.4606  -18.0059 N   0  0  0  0  0  0  0  0  0  0  0  0
   -4.4890    5.3548  -19.3449 C   0  0  1  0  0  0  0  0  0  0  0  0
   -5.3176    5.9235  -20.4963 C   0  0  0  0  0  0  0  0  0  0  0  0
   -4.0727    6.4475  -21.0891 N   0  0  0  0  0  0  0  0  0  0  0  0
   -3.4722    6.5128  -19.7069 C   0  0  2  0  0  0  0  0  0  0  0  0
   -1.9607    6.0328  -19.7297 C   0  0  0  0  0  0  0  0  0  0  0  0
   -1.2053    5.8828  -18.7684 O   0  0  0  0  0  0  0  0  0  0  0  0
   -3.6387    7.9062  -19.0492 C   0  0  0  0  0  0  0  0  0  0  0  0
   -3.0030    9.0185  -19.8581 C   0  0  0  0  0  0  0  0  0  0  0  0
   -1.6326    9.2886  -19.7420 C   0  0  0  0  0  0  0  0  0  0  0  0
   -1.0444   10.3046  -20.4963 C   0  0  0  0  0  0  0  0  0  0  0  0
   -1.8193   11.0647  -21.3697 C   0  0  0  0  0  0  0  0  0  0  0  0
   -3.1849   10.8137  -21.4860 C   0  0  0  0  0  0  0  0  0  0  0  0
   -3.7754    9.7984  -20.7320 C   0  0  0  0  0  0  0  0  0  0  0  0
   -8.1949    5.7553  -11.1331 C   0  0  0  0  0  0  0  0  0  0  0  0
   -8.2623    5.7237   -9.7531 C   0  0  0  0  0  0  0  0  0  0  0  0
   -8.2417    6.8607   -8.7880 C   0  0  0  0  0  0  0  0  0  0  0  0
  1  2  1  0
  2  3  1  0
  3  4  1  0
  4  5  2  0
  5  6  1  0
  6  7  2  0
  7  8  1  0
  8  9  1  0
  9 10  2  0
  9 11  1  0
 11 12  2  0
 12 13  1  0
 13 14  1  0
 13 15  2  0
 15 16  1  0
 16 17  2  0
 17 18  1  0
 18 19  2  0
 19 20  1  0
 21 20  1  1
 21 22  1  0
 22 23  1  0
 23 24  1  0
 24 25  1  0
 25 26  2  0
 24 27  1  1
 27 28  1  0
 28 29  2  0
 29 30  1  0
 30 31  2  0
 31 32  1  0
 32 33  2  0
  7 34  1  0
 34 35  2  0
 35 36  1  0
 36  2  1  0
 35  4  1  0
 17 11  1  0
 24 21  1  0
 33 28  1  0
 20 16  1  0
M  END
>  <smiles>  (2445) 
C37156-P276

>  <fragmenstein_outcome>  (2445) 
acceptable

>  <inchikey>  (2445) 
KYJOBDYBNUMSND-UHFFFAOYSA-N

>  <fragmenstein_mode>  (2445) 
expansion

>  <HIPPO Pose ID>  (2445) 
28249

>  <Energy>  (2445) 
114.522042

>  <fragmenstein_error>  (2445) 


>  <tags>  (2445) 
{'openbind_xx01zvns2b_c1_fragmenstein', 'fragmenstein_placed'}

>  <ref_pdb>  (2445) 
175

>  <scratch_subdir>  (2445) 
/opt/xchem-fragalysis-2/maxwin/BulkDock/SCRATCH/511028/C37156-P276

>  <alias>  (2445) 
CN1Cc2ccc(NC(=O)c3cc(Cl)cc4c3cnn4[C@H]3CN[C@@]3(C=O)Cc3ccccc3)cc2C1

>  <HIPPO Compound ID>  (2445) 
41999

>  <fragmenstein_runtime>  (2445) 
10.642759

$$$$
CN1Cc2ccc(NC(=O)c3cc(Cl)cc4c3cnn4[C@@H]3CN[C@@]3(C=O)NCc3ccccc3)cc2C1
     RDKit          3D

 37 42  0  0  0  0  0  0  0  0999 V2000
   -9.8020    2.4387   -6.3739 C   0  0  0  0  0  0  0  0  0  0  0  0
   -8.7784    2.8681   -7.3044 N   0  0  0  0  0  0  0  0  0  0  0  0
   -8.6589    4.3213   -7.4644 C   0  0  0  0  0  0  0  0  0  0  0  0
   -8.4827    4.5563   -8.9326 C   0  0  0  0  0  0  0  0  0  0  0  0
   -8.2174    5.7344   -9.6075 C   0  0  0  0  0  0  0  0  0  0  0  0
   -8.1135    5.6943  -11.0033 C   0  0  0  0  0  0  0  0  0  0  0  0
   -8.2947    4.4927  -11.7098 C   0  0  0  0  0  0  0  0  0  0  0  0
   -8.1923    4.4699  -13.1043 N   0  0  0  0  0  0  0  0  0  0  0  0
   -7.6193    5.5201  -14.0881 C   0  0  0  0  0  0  0  0  0  0  0  0
   -7.2144    6.5993  -13.8930 O   0  0  0  0  0  0  0  0  0  0  0  0
   -7.6283    5.0576  -15.4994 C   0  0  0  0  0  0  0  0  0  0  0  0
   -8.8049    4.5958  -16.0968 C   0  0  0  0  0  0  0  0  0  0  0  0
   -8.8552    4.4144  -17.4778 C   0  0  0  0  0  0  0  0  0  0  0  0
  -10.3572    4.0408  -18.2191 Cl  0  0  0  0  0  0  0  0  0  0  0  0
   -7.7445    4.6319  -18.2990 C   0  0  0  0  0  0  0  0  0  0  0  0
   -6.5674    5.0740  -17.6848 C   0  0  0  0  0  0  0  0  0  0  0  0
   -6.4938    5.2906  -16.3074 C   0  0  0  0  0  0  0  0  0  0  0  0
   -5.1830    5.7664  -16.0964 C   0  0  0  0  0  0  0  0  0  0  0  0
   -4.4732    5.8460  -17.2216 N   0  0  0  0  0  0  0  0  0  0  0  0
   -5.3319    5.4338  -18.1809 N   0  0  0  0  0  0  0  0  0  0  0  0
   -4.9835    5.4699  -19.6261 C   0  0  2  0  0  0  0  0  0  0  0  0
   -3.4817    5.2670  -19.8764 C   0  0  0  0  0  0  0  0  0  0  0  0
   -3.3565    6.6394  -20.3757 N   0  0  0  0  0  0  0  0  0  0  0  0
   -4.7830    6.9108  -20.1634 C   0  0  2  0  0  0  0  0  0  0  0  0
   -5.0823    8.1342  -19.1861 C   0  0  0  0  0  0  0  0  0  0  0  0
   -6.1451    8.7557  -19.0582 O   0  0  0  0  0  0  0  0  0  0  0  0
   -5.4116    7.0089  -21.4907 N   0  0  0  0  0  0  0  0  0  0  0  0
   -5.1420    8.3008  -22.1352 C   0  0  0  0  0  0  0  0  0  0  0  0
   -5.6236    8.3923  -23.5683 C   0  0  0  0  0  0  0  0  0  0  0  0
   -5.9337    7.2666  -24.3415 C   0  0  0  0  0  0  0  0  0  0  0  0
   -6.3632    7.4055  -25.6633 C   0  0  0  0  0  0  0  0  0  0  0  0
   -6.4656    8.6693  -26.2386 C   0  0  0  0  0  0  0  0  0  0  0  0
   -6.1296    9.7969  -25.4955 C   0  0  0  0  0  0  0  0  0  0  0  0
   -5.7093    9.6592  -24.1709 C   0  0  0  0  0  0  0  0  0  0  0  0
   -8.5766    3.3137  -11.0133 C   0  0  0  0  0  0  0  0  0  0  0  0
   -8.6499    3.3609   -9.6241 C   0  0  0  0  0  0  0  0  0  0  0  0
   -8.9084    2.2551   -8.6440 C   0  0  0  0  0  0  0  0  0  0  0  0
  1  2  1  0
  2  3  1  0
  3  4  1  0
  4  5  2  0
  5  6  1  0
  6  7  2  0
  7  8  1  0
  8  9  1  0
  9 10  2  0
  9 11  1  0
 11 12  2  0
 12 13  1  0
 13 14  1  0
 13 15  2  0
 15 16  1  0
 16 17  2  0
 17 18  1  0
 18 19  2  0
 19 20  1  0
 21 20  1  1
 21 22  1  0
 22 23  1  0
 23 24  1  0
 24 25  1  0
 25 26  2  0
 24 27  1  6
 27 28  1  0
 28 29  1  0
 29 30  2  0
 30 31  1  0
 31 32  2  0
 32 33  1  0
 33 34  2  0
  7 35  1  0
 35 36  2  0
 36 37  1  0
 37  2  1  0
 36  4  1  0
 17 11  1  0
 24 21  1  0
 34 29  1  0
 20 16  1  0
M  END
>  <smiles>  (2446) 
C37157-P276

>  <fragmenstein_outcome>  (2446) 
acceptable

>  <inchikey>  (2446) 
YAOIGINQIHFYGH-UHFFFAOYSA-N

>  <fragmenstein_mode>  (2446) 
expansion

>  <HIPPO Pose ID>  (2446) 
28250

>  <Energy>  (2446) 
92.334573

>  <fragmenstein_error>  (2446) 


>  <tags>  (2446) 
{'openbind_xx01zvns2b_c1_fragmenstein', 'fragmenstein_placed'}

>  <ref_pdb>  (2446) 
175

>  <scratch_subdir>  (2446) 
/opt/xchem-fragalysis-2/maxwin/BulkDock/SCRATCH/511028/C37157-P276

>  <alias>  (2446) 
CN1Cc2ccc(NC(=O)c3cc(Cl)cc4c3cnn4[C@@H]3CN[C@@]3(C=O)NCc3ccccc3)cc2C1

>  <HIPPO Compound ID>  (2446) 
34058

>  <fragmenstein_runtime>  (2446) 
11.929141

$$$$
CN1Cc2ccc(NC(=O)c3cc(Cl)cc4c3cc(O)n4[C@@H]3CN[C@H]3OCc3ccccc3)cc2C1
     RDKit          3D

 36 41  0  0  0  0  0  0  0  0999 V2000
   -9.7362    2.5313   -6.3250 C   0  0  0  0  0  0  0  0  0  0  0  0
   -8.7455    2.9692   -7.2869 N   0  0  0  0  0  0  0  0  0  0  0  0
   -8.6583    4.4213   -7.4656 C   0  0  0  0  0  0  0  0  0  0  0  0
   -8.4888    4.6308   -8.9354 C   0  0  0  0  0  0  0  0  0  0  0  0
   -8.2352    5.8040   -9.6185 C   0  0  0  0  0  0  0  0  0  0  0  0
   -8.0981    5.7391  -11.0058 C   0  0  0  0  0  0  0  0  0  0  0  0
   -8.2320    4.5184  -11.6915 C   0  0  0  0  0  0  0  0  0  0  0  0
   -8.0256    4.4673  -13.0685 N   0  0  0  0  0  0  0  0  0  0  0  0
   -7.5294    5.5535  -14.0504 C   0  0  0  0  0  0  0  0  0  0  0  0
   -7.1427    6.6376  -13.8484 O   0  0  0  0  0  0  0  0  0  0  0  0
   -7.5100    5.0797  -15.4524 C   0  0  0  0  0  0  0  0  0  0  0  0
   -8.6864    4.6365  -16.0590 C   0  0  0  0  0  0  0  0  0  0  0  0
   -8.7104    4.4497  -17.4353 C   0  0  0  0  0  0  0  0  0  0  0  0
  -10.1977    4.0620  -18.2008 Cl  0  0  0  0  0  0  0  0  0  0  0  0
   -7.5811    4.6649  -18.2319 C   0  0  0  0  0  0  0  0  0  0  0  0
   -6.3937    5.0741  -17.6052 C   0  0  0  0  0  0  0  0  0  0  0  0
   -6.3376    5.2740  -16.2217 C   0  0  0  0  0  0  0  0  0  0  0  0
   -5.0155    5.6986  -15.9179 C   0  0  0  0  0  0  0  0  0  0  0  0
   -4.3077    5.7897  -17.0942 C   0  0  0  0  0  0  0  0  0  0  0  0
   -3.0601    6.2017  -17.2941 O   0  0  0  0  0  0  0  0  0  0  0  0
   -5.1492    5.4007  -18.1193 N   0  0  0  0  0  0  0  0  0  0  0  0
   -4.8616    5.4173  -19.5868 C   0  0  2  0  0  0  0  0  0  0  0  0
   -3.4019    5.1945  -19.9986 C   0  0  0  0  0  0  0  0  0  0  0  0
   -3.2051    6.6548  -20.0836 N   0  0  0  0  0  0  0  0  0  0  0  0
   -4.6695    6.8451  -20.1392 C   0  0  1  0  0  0  0  0  0  0  0  0
   -5.1291    7.0690  -21.4846 O   0  0  0  0  0  0  0  0  0  0  0  0
   -4.6185    8.2225  -22.1449 C   0  0  0  0  0  0  0  0  0  0  0  0
   -5.3192    8.4540  -23.4628 C   0  0  0  0  0  0  0  0  0  0  0  0
   -5.3436    9.7400  -24.0236 C   0  0  0  0  0  0  0  0  0  0  0  0
   -5.9419    9.9637  -25.2660 C   0  0  0  0  0  0  0  0  0  0  0  0
   -6.5173    8.9040  -25.9643 C   0  0  0  0  0  0  0  0  0  0  0  0
   -6.4866    7.6200  -25.4259 C   0  0  0  0  0  0  0  0  0  0  0  0
   -5.8852    7.3956  -24.1864 C   0  0  0  0  0  0  0  0  0  0  0  0
   -8.5269    3.3457  -10.9915 C   0  0  0  0  0  0  0  0  0  0  0  0
   -8.6338    3.4190   -9.6090 C   0  0  0  0  0  0  0  0  0  0  0  0
   -8.8926    2.3340   -8.6134 C   0  0  0  0  0  0  0  0  0  0  0  0
  1  2  1  0
  2  3  1  0
  3  4  1  0
  4  5  2  0
  5  6  1  0
  6  7  2  0
  7  8  1  0
  8  9  1  0
  9 10  2  0
  9 11  1  0
 11 12  2  0
 12 13  1  0
 13 14  1  0
 13 15  2  0
 15 16  1  0
 16 17  2  0
 17 18  1  0
 18 19  2  0
 19 20  1  0
 19 21  1  0
 22 21  1  1
 22 23  1  0
 23 24  1  0
 24 25  1  0
 25 26  1  6
 26 27  1  0
 27 28  1  0
 28 29  2  0
 29 30  1  0
 30 31  2  0
 31 32  1  0
 32 33  2  0
  7 34  1  0
 34 35  2  0
 35 36  1  0
 36  2  1  0
 35  4  1  0
 17 11  1  0
 25 22  1  0
 33 28  1  0
 21 16  1  0
M  END
>  <smiles>  (2447) 
C37158-P276

>  <fragmenstein_outcome>  (2447) 
acceptable

>  <inchikey>  (2447) 
OGNAIZBZFVAZHP-UHFFFAOYSA-N

>  <fragmenstein_mode>  (2447) 
expansion

>  <HIPPO Pose ID>  (2447) 
28251

>  <Energy>  (2447) 
72.809016

>  <fragmenstein_error>  (2447) 


>  <tags>  (2447) 
{'openbind_xx01zvns2b_c1_fragmenstein', 'fragmenstein_placed'}

>  <ref_pdb>  (2447) 
175

>  <scratch_subdir>  (2447) 
/opt/xchem-fragalysis-2/maxwin/BulkDock/SCRATCH/511028/C37158-P276

>  <alias>  (2447) 
CN1Cc2ccc(NC(=O)c3cc(Cl)cc4c3cc(O)n4[C@@H]3CN[C@H]3OCc3ccccc3)cc2C1

>  <HIPPO Compound ID>  (2447) 
37158

>  <fragmenstein_runtime>  (2447) 
6.389687

$$$$
CN1Cc2ccc(NC(=O)c3cc(Cl)cc4c3cc(CN3CCCC3)n4C3CNC3)cc2C1
     RDKit          3D

 33 38  0  0  0  0  0  0  0  0999 V2000
   -9.7954    2.4360   -6.3873 C   0  0  0  0  0  0  0  0  0  0  0  0
   -8.7465    2.8797   -7.2822 N   0  0  0  0  0  0  0  0  0  0  0  0
   -8.6618    4.3360   -7.4487 C   0  0  0  0  0  0  0  0  0  0  0  0
   -8.5031    4.5693   -8.9153 C   0  0  0  0  0  0  0  0  0  0  0  0
   -8.3062    5.7579   -9.5914 C   0  0  0  0  0  0  0  0  0  0  0  0
   -8.1956    5.7130  -10.9832 C   0  0  0  0  0  0  0  0  0  0  0  0
   -8.2895    4.4946  -11.6796 C   0  0  0  0  0  0  0  0  0  0  0  0
   -8.1442    4.4646  -13.0648 N   0  0  0  0  0  0  0  0  0  0  0  0
   -7.8335    5.5972  -14.0642 C   0  0  0  0  0  0  0  0  0  0  0  0
   -7.7262    6.7473  -13.8953 O   0  0  0  0  0  0  0  0  0  0  0  0
   -7.6501    5.0998  -15.4432 C   0  0  0  0  0  0  0  0  0  0  0  0
   -8.7444    4.6305  -16.1610 C   0  0  0  0  0  0  0  0  0  0  0  0
   -8.6264    4.4821  -17.5340 C   0  0  0  0  0  0  0  0  0  0  0  0
  -10.0220    4.0266  -18.4272 Cl  0  0  0  0  0  0  0  0  0  0  0  0
   -7.4390    4.7914  -18.2191 C   0  0  0  0  0  0  0  0  0  0  0  0
   -6.3184    5.2196  -17.4796 C   0  0  0  0  0  0  0  0  0  0  0  0
   -6.4128    5.3366  -16.0843 C   0  0  0  0  0  0  0  0  0  0  0  0
   -5.1483    5.7524  -15.6066 C   0  0  0  0  0  0  0  0  0  0  0  0
   -4.2915    5.9016  -16.6753 C   0  0  0  0  0  0  0  0  0  0  0  0
   -2.8624    6.3725  -16.7011 C   0  0  0  0  0  0  0  0  0  0  0  0
   -2.3460    6.7196  -15.3752 N   0  0  0  0  0  0  0  0  0  0  0  0
   -1.9196    5.5605  -14.5874 C   0  0  0  0  0  0  0  0  0  0  0  0
   -1.1383    6.2033  -13.4523 C   0  0  0  0  0  0  0  0  0  0  0  0
   -0.5724    7.4879  -14.0468 C   0  0  0  0  0  0  0  0  0  0  0  0
   -1.1533    7.5652  -15.4519 C   0  0  0  0  0  0  0  0  0  0  0  0
   -5.0445    5.6642  -17.8211 N   0  0  0  0  0  0  0  0  0  0  0  0
   -4.6084    6.2517  -19.1137 C   0  0  0  0  0  0  0  0  0  0  0  0
   -3.3901    5.5435  -19.7524 C   0  0  0  0  0  0  0  0  0  0  0  0
   -3.9612    5.9246  -21.0662 N   0  0  0  0  0  0  0  0  0  0  0  0
   -5.3008    5.8680  -20.4203 C   0  0  0  0  0  0  0  0  0  0  0  0
   -8.5002    3.3047  -10.9833 C   0  0  0  0  0  0  0  0  0  0  0  0
   -8.5972    3.3614   -9.5994 C   0  0  0  0  0  0  0  0  0  0  0  0
   -8.8091    2.2505   -8.6196 C   0  0  0  0  0  0  0  0  0  0  0  0
  1  2  1  0
  2  3  1  0
  3  4  1  0
  4  5  2  0
  5  6  1  0
  6  7  2  0
  7  8  1  0
  8  9  1  0
  9 10  2  0
  9 11  1  0
 11 12  2  0
 12 13  1  0
 13 14  1  0
 13 15  2  0
 15 16  1  0
 16 17  2  0
 17 18  1  0
 18 19  2  0
 19 20  1  0
 20 21  1  0
 21 22  1  0
 22 23  1  0
 23 24  1  0
 24 25  1  0
 19 26  1  0
 26 27  1  0
 27 28  1  0
 28 29  1  0
 29 30  1  0
  7 31  1  0
 31 32  2  0
 32 33  1  0
 33  2  1  0
 32  4  1  0
 17 11  1  0
 25 21  1  0
 30 27  1  0
 26 16  1  0
M  END
>  <smiles>  (2448) 
C37159-P276

>  <fragmenstein_outcome>  (2448) 
acceptable

>  <inchikey>  (2448) 
BGMCQTGCRJFANC-UHFFFAOYSA-N

>  <fragmenstein_mode>  (2448) 
expansion

>  <HIPPO Pose ID>  (2448) 
28252

>  <Energy>  (2448) 
82.048947

>  <fragmenstein_error>  (2448) 


>  <tags>  (2448) 
{'openbind_xx01zvns2b_c1_fragmenstein', 'fragmenstein_placed'}

>  <ref_pdb>  (2448) 
175

>  <scratch_subdir>  (2448) 
/opt/xchem-fragalysis-2/maxwin/BulkDock/SCRATCH/511028/C37159-P276

>  <alias>  (2448) 
CN1Cc2ccc(NC(=O)c3cc(Cl)cc4c3cc(CN3CCCC3)n4C3CNC3)cc2C1

>  <HIPPO Compound ID>  (2448) 
37159

>  <fragmenstein_runtime>  (2448) 
15.063666

$$$$
CC(C)NC(=O)[C@@](O)(Nc1ccc2c(c1)CN(C)C2)c1cc(Cl)cc2c1cnn2C1CNC1
     RDKit          3D

 33 37  0  0  0  0  0  0  0  0999 V2000
   -9.2173    8.7370  -11.2217 C   0  0  0  0  0  0  0  0  0  0  0  0
   -9.3623    8.5494  -12.7290 C   0  0  0  0  0  0  0  0  0  0  0  0
  -10.8052    8.7550  -13.1790 C   0  0  0  0  0  0  0  0  0  0  0  0
   -8.8195    7.2636  -13.1397 N   0  0  0  0  0  0  0  0  0  0  0  0
   -7.3767    6.8702  -13.5945 C   0  0  0  0  0  0  0  0  0  0  0  0
   -6.4305    7.5379  -13.7802 O   0  0  0  0  0  0  0  0  0  0  0  0
   -7.3266    5.2463  -13.7867 C   0  0  1  0  0  0  0  0  0  0  0  0
   -6.0845    4.6649  -13.4334 O   0  0  0  0  0  0  0  0  0  0  0  0
   -8.3608    4.5493  -12.9937 N   0  0  0  0  0  0  0  0  0  0  0  0
   -8.2420    4.4473  -11.5861 C   0  0  0  0  0  0  0  0  0  0  0  0
   -7.7530    5.4946  -10.7712 C   0  0  0  0  0  0  0  0  0  0  0  0
   -7.7912    5.4483   -9.3740 C   0  0  0  0  0  0  0  0  0  0  0  0
   -8.3189    4.3278   -8.7836 C   0  0  0  0  0  0  0  0  0  0  0  0
   -8.7629    3.2588   -9.5559 C   0  0  0  0  0  0  0  0  0  0  0  0
   -8.7526    3.3096  -10.9433 C   0  0  0  0  0  0  0  0  0  0  0  0
   -9.2132    2.1728   -8.6313 C   0  0  0  0  0  0  0  0  0  0  0  0
   -9.4785    2.8884   -7.3638 N   0  0  0  0  0  0  0  0  0  0  0  0
   -9.3680    2.0260   -6.2096 C   0  0  0  0  0  0  0  0  0  0  0  0
   -8.5344    4.0194   -7.3368 C   0  0  0  0  0  0  0  0  0  0  0  0
   -7.4696    4.9833  -15.2998 C   0  0  0  0  0  0  0  0  0  0  0  0
   -8.6991    4.6260  -15.9026 C   0  0  0  0  0  0  0  0  0  0  0  0
   -8.8235    4.4643  -17.2872 C   0  0  0  0  0  0  0  0  0  0  0  0
  -10.3581    4.1159  -17.9793 Cl  0  0  0  0  0  0  0  0  0  0  0  0
   -7.7461    4.6499  -18.1509 C   0  0  0  0  0  0  0  0  0  0  0  0
   -6.5258    5.0052  -17.5726 C   0  0  0  0  0  0  0  0  0  0  0  0
   -6.3742    5.1675  -16.1952 C   0  0  0  0  0  0  0  0  0  0  0  0
   -5.0118    5.5263  -16.0464 C   0  0  0  0  0  0  0  0  0  0  0  0
   -4.3497    5.5735  -17.2006 N   0  0  0  0  0  0  0  0  0  0  0  0
   -5.2862    5.2742  -18.1192 N   0  0  0  0  0  0  0  0  0  0  0  0
   -4.9931    5.2368  -19.5636 C   0  0  0  0  0  0  0  0  0  0  0  0
   -3.4989    5.3895  -19.9339 C   0  0  0  0  0  0  0  0  0  0  0  0
   -3.9300    6.2558  -21.0703 N   0  0  0  0  0  0  0  0  0  0  0  0
   -5.1192    6.6128  -20.2438 C   0  0  0  0  0  0  0  0  0  0  0  0
  1  2  1  0
  2  3  1  0
  2  4  1  0
  4  5  1  0
  5  6  2  0
  5  7  1  0
  7  8  1  1
  7  9  1  0
  9 10  1  0
 10 11  2  0
 11 12  1  0
 12 13  2  0
 13 14  1  0
 14 15  2  0
 14 16  1  0
 16 17  1  0
 17 18  1  0
 17 19  1  0
  7 20  1  0
 20 21  2  0
 21 22  1  0
 22 23  1  0
 22 24  2  0
 24 25  1  0
 25 26  2  0
 26 27  1  0
 27 28  2  0
 28 29  1  0
 29 30  1  0
 30 31  1  0
 31 32  1  0
 32 33  1  0
 15 10  1  0
 26 20  1  0
 33 30  1  0
 19 13  1  0
 29 25  1  0
M  END
>  <smiles>  (2449) 
C37163-P276

>  <fragmenstein_outcome>  (2449) 
acceptable

>  <inchikey>  (2449) 
SCACPXRAAXKNTC-UHFFFAOYSA-N

>  <fragmenstein_mode>  (2449) 
expansion

>  <HIPPO Pose ID>  (2449) 
28255

>  <Energy>  (2449) 
116.157126

>  <fragmenstein_error>  (2449) 


>  <tags>  (2449) 
{'openbind_xx01zvns2b_c1_fragmenstein', 'fragmenstein_placed'}

>  <ref_pdb>  (2449) 
175

>  <scratch_subdir>  (2449) 
/opt/xchem-fragalysis-2/maxwin/BulkDock/SCRATCH/511028/C37163-P276

>  <alias>  (2449) 
CC(C)NC(=O)[C@@](O)(Nc1ccc2c(c1)CN(C)C2)c1cc(Cl)cc2c1cnn2C1CNC1

>  <HIPPO Compound ID>  (2449) 
37163

>  <fragmenstein_runtime>  (2449) 
13.68825

$$$$
CN1Cc2ccc(NC(=O)c3cc(Cl)cc4c3c[n+]([O-])n4C3CNC3)cc2C1
     RDKit          3D

 28 32  0  0  0  0  0  0  0  0999 V2000
   -9.7487    2.5386   -6.3356 C   0  0  0  0  0  0  0  0  0  0  0  0
   -8.7548    2.9763   -7.2940 N   0  0  0  0  0  0  0  0  0  0  0  0
   -8.6661    4.4286   -7.4777 C   0  0  0  0  0  0  0  0  0  0  0  0
   -8.4869    4.6336   -8.9473 C   0  0  0  0  0  0  0  0  0  0  0  0
   -8.2330    5.8015   -9.6405 C   0  0  0  0  0  0  0  0  0  0  0  0
   -8.0960    5.7275  -11.0292 C   0  0  0  0  0  0  0  0  0  0  0  0
   -8.2330    4.5027  -11.7059 C   0  0  0  0  0  0  0  0  0  0  0  0
   -8.0461    4.4304  -13.0852 N   0  0  0  0  0  0  0  0  0  0  0  0
   -7.6806    5.5284  -14.1063 C   0  0  0  0  0  0  0  0  0  0  0  0
   -7.4030    6.6510  -13.9441 O   0  0  0  0  0  0  0  0  0  0  0  0
   -7.6508    5.0202  -15.4917 C   0  0  0  0  0  0  0  0  0  0  0  0
   -8.8366    4.6166  -16.1071 C   0  0  0  0  0  0  0  0  0  0  0  0
   -8.8611    4.4146  -17.4822 C   0  0  0  0  0  0  0  0  0  0  0  0
  -10.3617    4.0913  -18.2498 Cl  0  0  0  0  0  0  0  0  0  0  0  0
   -7.7199    4.5709  -18.2756 C   0  0  0  0  0  0  0  0  0  0  0  0
   -6.5257    4.9222  -17.6357 C   0  0  0  0  0  0  0  0  0  0  0  0
   -6.4530    5.1422  -16.2350 C   0  0  0  0  0  0  0  0  0  0  0  0
   -5.0915    5.4762  -15.8554 C   0  0  0  0  0  0  0  0  0  0  0  0
   -4.3542    5.4503  -16.9763 N   0  0  0  0  0  0  0  0  0  0  0  0
   -3.1171    5.5796  -17.1130 O   0  0  0  0  0  0  0  0  0  0  0  0
   -5.2413    5.1658  -18.1008 N   0  0  0  0  0  0  0  0  0  0  0  0
   -4.8971    5.1701  -19.5363 C   0  0  0  0  0  0  0  0  0  0  0  0
   -3.4274    5.4107  -19.9547 C   0  0  0  0  0  0  0  0  0  0  0  0
   -3.9524    6.2393  -21.0801 N   0  0  0  0  0  0  0  0  0  0  0  0
   -5.1188    6.5435  -20.2046 C   0  0  0  0  0  0  0  0  0  0  0  0
   -8.5161    3.3361  -10.9944 C   0  0  0  0  0  0  0  0  0  0  0  0
   -8.6234    3.4186   -9.6132 C   0  0  0  0  0  0  0  0  0  0  0  0
   -8.8841    2.3326   -8.6169 C   0  0  0  0  0  0  0  0  0  0  0  0
  1  2  1  0
  2  3  1  0
  3  4  1  0
  4  5  2  0
  5  6  1  0
  6  7  2  0
  7  8  1  0
  8  9  1  0
  9 10  2  0
  9 11  1  0
 11 12  2  0
 12 13  1  0
 13 14  1  0
 13 15  2  0
 15 16  1  0
 16 17  2  0
 17 18  1  0
 18 19  2  0
 19 20  1  0
 19 21  1  0
 21 22  1  0
 22 23  1  0
 23 24  1  0
 24 25  1  0
  7 26  1  0
 26 27  2  0
 27 28  1  0
 28  2  1  0
 27  4  1  0
 17 11  1  0
 25 22  1  0
 21 16  1  0
M  CHG  2  19   1  20  -1
M  END
>  <smiles>  (2450) 
C37077-P276

>  <fragmenstein_outcome>  (2450) 
acceptable

>  <inchikey>  (2450) 
DVNYXGCTQTXANC-UHFFFAOYSA-N

>  <fragmenstein_mode>  (2450) 
expansion

>  <HIPPO Pose ID>  (2450) 
28258

>  <Energy>  (2450) 
75.440818

>  <fragmenstein_error>  (2450) 


>  <tags>  (2450) 
{'openbind_xx01zvns2b_c1_fragmenstein', 'fragmenstein_placed'}

>  <ref_pdb>  (2450) 
175

>  <scratch_subdir>  (2450) 
/opt/xchem-fragalysis-2/maxwin/BulkDock/SCRATCH/511028/C37077-P276

>  <alias>  (2450) 
CN1Cc2ccc(NC(=O)c3cc(Cl)cc4c3c[n+]([O-])n4C3CNC3)cc2C1

>  <HIPPO Compound ID>  (2450) 
37077

>  <fragmenstein_runtime>  (2450) 
7.855711

$$$$
CN1Cc2ccc(NC(=O)c3cc(Cl)cc4c3[C@@]3(CNCN3)NN4C3CNC3)cc2C1
     RDKit          3D

 31 36  0  0  0  0  0  0  0  0999 V2000
   -9.1902    2.6145   -6.3831 C   0  0  0  0  0  0  0  0  0  0  0  0
   -8.4117    3.1745   -7.4616 N   0  0  0  0  0  0  0  0  0  0  0  0
   -8.5310    4.6201   -7.6378 C   0  0  0  0  0  0  0  0  0  0  0  0
   -8.4118    4.8261   -9.1127 C   0  0  0  0  0  0  0  0  0  0  0  0
   -8.2433    6.0002   -9.8170 C   0  0  0  0  0  0  0  0  0  0  0  0
   -8.1510    5.9191  -11.2069 C   0  0  0  0  0  0  0  0  0  0  0  0
   -8.2560    4.6822  -11.8700 C   0  0  0  0  0  0  0  0  0  0  0  0
   -8.1357    4.6239  -13.2540 N   0  0  0  0  0  0  0  0  0  0  0  0
   -7.5994    5.6636  -14.2567 C   0  0  0  0  0  0  0  0  0  0  0  0
   -7.2449    6.7630  -14.0899 O   0  0  0  0  0  0  0  0  0  0  0  0
   -7.5598    5.1434  -15.6361 C   0  0  0  0  0  0  0  0  0  0  0  0
   -8.7374    4.6923  -16.2307 C   0  0  0  0  0  0  0  0  0  0  0  0
   -8.7586    4.4405  -17.6053 C   0  0  0  0  0  0  0  0  0  0  0  0
  -10.2548    4.0502  -18.3438 Cl  0  0  0  0  0  0  0  0  0  0  0  0
   -7.6150    4.5879  -18.3903 C   0  0  0  0  0  0  0  0  0  0  0  0
   -6.4456    4.9965  -17.7770 C   0  0  0  0  0  0  0  0  0  0  0  0
   -6.4163    5.2848  -16.4138 C   0  0  0  0  0  0  0  0  0  0  0  0
   -5.0220    5.7178  -16.0669 C   0  0  2  0  0  0  0  0  0  0  0  0
   -4.3284    4.8483  -14.9985 C   0  0  0  0  0  0  0  0  0  0  0  0
   -4.0694    5.7753  -13.8775 N   0  0  0  0  0  0  0  0  0  0  0  0
   -3.8825    7.0452  -14.5545 C   0  0  0  0  0  0  0  0  0  0  0  0
   -4.9176    7.0954  -15.5765 N   0  0  0  0  0  0  0  0  0  0  0  0
   -4.2793    5.7134  -17.3493 N   0  0  0  0  0  0  0  0  0  0  0  0
   -5.1764    5.2028  -18.3479 N   0  0  0  0  0  0  0  0  0  0  0  0
   -4.8670    5.2325  -19.7514 C   0  0  0  0  0  0  0  0  0  0  0  0
   -3.3738    5.3976  -20.1259 C   0  0  0  0  0  0  0  0  0  0  0  0
   -3.8006    6.3052  -21.2319 N   0  0  0  0  0  0  0  0  0  0  0  0
   -5.0107    6.6173  -20.4162 C   0  0  0  0  0  0  0  0  0  0  0  0
   -8.4606    3.5068  -11.1495 C   0  0  0  0  0  0  0  0  0  0  0  0
   -8.5107    3.5983   -9.7683 C   0  0  0  0  0  0  0  0  0  0  0  0
   -8.6702    2.5114   -8.7546 C   0  0  0  0  0  0  0  0  0  0  0  0
  1  2  1  0
  2  3  1  0
  3  4  1  0
  4  5  2  0
  5  6  1  0
  6  7  2  0
  7  8  1  0
  8  9  1  0
  9 10  2  0
  9 11  1  0
 11 12  2  0
 12 13  1  0
 13 14  1  0
 13 15  2  0
 15 16  1  0
 16 17  2  0
 17 18  1  0
 18 19  1  1
 19 20  1  0
 20 21  1  0
 21 22  1  0
 18 23  1  0
 23 24  1  0
 24 25  1  0
 25 26  1  0
 26 27  1  0
 27 28  1  0
  7 29  1  0
 29 30  2  0
 30 31  1  0
 31  2  1  0
 30  4  1  0
 17 11  1  0
 22 18  1  0
 28 25  1  0
 24 16  1  0
M  END
>  <smiles>  (2451) 
C37173-P276

>  <fragmenstein_outcome>  (2451) 
acceptable

>  <inchikey>  (2451) 
ZCSHBQCCTXHHQY-UHFFFAOYSA-N

>  <fragmenstein_mode>  (2451) 
expansion

>  <HIPPO Pose ID>  (2451) 
28259

>  <Energy>  (2451) 
59.853159

>  <fragmenstein_error>  (2451) 


>  <tags>  (2451) 
{'openbind_xx01zvns2b_c1_fragmenstein', 'fragmenstein_placed'}

>  <ref_pdb>  (2451) 
175

>  <scratch_subdir>  (2451) 
/opt/xchem-fragalysis-2/maxwin/BulkDock/SCRATCH/511028/C37173-P276

>  <alias>  (2451) 
CN1Cc2ccc(NC(=O)c3cc(Cl)cc4c3[C@@]3(CNCN3)NN4C3CNC3)cc2C1

>  <HIPPO Compound ID>  (2451) 
37173

>  <fragmenstein_runtime>  (2451) 
7.301048

$$$$
CC(C)CNC(=O)[C@@](O)(Nc1ccc2c(c1)CN(C)C2)c1cc(Cl)cc2c1cnn2C1CNC1
     RDKit          3D

 34 38  0  0  0  0  0  0  0  0999 V2000
  -11.0506    8.8325  -13.2458 C   0  0  0  0  0  0  0  0  0  0  0  0
   -9.9453    9.0246  -12.2058 C   0  0  0  0  0  0  0  0  0  0  0  0
  -10.0818   10.4024  -11.5561 C   0  0  0  0  0  0  0  0  0  0  0  0
   -8.5486    8.8626  -12.8094 C   0  0  0  0  0  0  0  0  0  0  0  0
   -8.2557    7.5170  -13.2466 N   0  0  0  0  0  0  0  0  0  0  0  0
   -6.9165    6.8770  -13.7242 C   0  0  0  0  0  0  0  0  0  0  0  0
   -5.8668    7.3633  -13.9090 O   0  0  0  0  0  0  0  0  0  0  0  0
   -7.1718    5.2739  -13.9218 C   0  0  1  0  0  0  0  0  0  0  0  0
   -6.0548    4.4823  -13.5612 O   0  0  0  0  0  0  0  0  0  0  0  0
   -8.3239    4.7764  -13.1362 N   0  0  0  0  0  0  0  0  0  0  0  0
   -8.2217    4.6713  -11.7240 C   0  0  0  0  0  0  0  0  0  0  0  0
   -7.7359    5.7087  -10.8950 C   0  0  0  0  0  0  0  0  0  0  0  0
   -7.7734    5.6444   -9.4985 C   0  0  0  0  0  0  0  0  0  0  0  0
   -8.2851    4.5101   -8.9226 C   0  0  0  0  0  0  0  0  0  0  0  0
   -8.7266    3.4516   -9.7099 C   0  0  0  0  0  0  0  0  0  0  0  0
   -8.7215    3.5206  -11.0960 C   0  0  0  0  0  0  0  0  0  0  0  0
   -9.1610    2.3454   -8.8021 C   0  0  0  0  0  0  0  0  0  0  0  0
   -9.4017    3.0293   -7.5109 N   0  0  0  0  0  0  0  0  0  0  0  0
   -9.2593    2.1321   -6.3819 C   0  0  0  0  0  0  0  0  0  0  0  0
   -8.4653    4.1646   -7.4789 C   0  0  0  0  0  0  0  0  0  0  0  0
   -7.3581    5.0304  -15.4347 C   0  0  0  0  0  0  0  0  0  0  0  0
   -8.6062    4.7044  -16.0233 C   0  0  0  0  0  0  0  0  0  0  0  0
   -8.7508    4.5271  -17.4049 C   0  0  0  0  0  0  0  0  0  0  0  0
  -10.3028    4.1885  -18.0717 Cl  0  0  0  0  0  0  0  0  0  0  0  0
   -7.6788    4.6869  -18.2798 C   0  0  0  0  0  0  0  0  0  0  0  0
   -6.4415    5.0097  -17.7170 C   0  0  0  0  0  0  0  0  0  0  0  0
   -6.2658    5.1603  -16.3417 C   0  0  0  0  0  0  0  0  0  0  0  0
   -4.8838    5.4394  -16.2045 C   0  0  0  0  0  0  0  0  0  0  0  0
   -4.2399    5.4936  -17.3684 N   0  0  0  0  0  0  0  0  0  0  0  0
   -5.2043    5.2550  -18.2786 N   0  0  0  0  0  0  0  0  0  0  0  0
   -4.9620    5.3705  -19.7303 C   0  0  0  0  0  0  0  0  0  0  0  0
   -3.4760    5.4967  -20.1323 C   0  0  0  0  0  0  0  0  0  0  0  0
   -3.8596    6.6036  -21.0418 N   0  0  0  0  0  0  0  0  0  0  0  0
   -5.0605    6.8318  -20.2095 C   0  0  0  0  0  0  0  0  0  0  0  0
  1  2  1  0
  2  3  1  0
  2  4  1  0
  4  5  1  0
  5  6  1  0
  6  7  2  0
  6  8  1  0
  8  9  1  1
  8 10  1  0
 10 11  1  0
 11 12  2  0
 12 13  1  0
 13 14  2  0
 14 15  1  0
 15 16  2  0
 15 17  1  0
 17 18  1  0
 18 19  1  0
 18 20  1  0
  8 21  1  0
 21 22  2  0
 22 23  1  0
 23 24  1  0
 23 25  2  0
 25 26  1  0
 26 27  2  0
 27 28  1  0
 28 29  2  0
 29 30  1  0
 30 31  1  0
 31 32  1  0
 32 33  1  0
 33 34  1  0
 16 11  1  0
 27 21  1  0
 34 31  1  0
 20 14  1  0
 30 26  1  0
M  END
>  <smiles>  (2452) 
C37175-P276

>  <fragmenstein_outcome>  (2452) 
acceptable

>  <inchikey>  (2452) 
QXBZOVJOSSJDDV-UHFFFAOYSA-N

>  <fragmenstein_mode>  (2452) 
expansion

>  <HIPPO Pose ID>  (2452) 
28260

>  <Energy>  (2452) 
117.299709

>  <fragmenstein_error>  (2452) 


>  <tags>  (2452) 
{'openbind_xx01zvns2b_c1_fragmenstein', 'fragmenstein_placed'}

>  <ref_pdb>  (2452) 
175

>  <scratch_subdir>  (2452) 
/opt/xchem-fragalysis-2/maxwin/BulkDock/SCRATCH/511028/C37175-P276

>  <alias>  (2452) 
CC(C)CNC(=O)[C@@](O)(Nc1ccc2c(c1)CN(C)C2)c1cc(Cl)cc2c1cnn2C1CNC1

>  <HIPPO Compound ID>  (2452) 
41154

>  <fragmenstein_runtime>  (2452) 
6.546383

$$$$
Cc1ccc(S(=O)(=O)CNC(=O)[C@](O)(Nc2ccc3c(c2)CN(C)C3)c2cc(Cl)cc3c2cnn3C2CNC2)cc1
     RDKit          3D

 41 46  0  0  0  0  0  0  0  0999 V2000
   -1.5818   14.1292  -11.8092 C   0  0  0  0  0  0  0  0  0  0  0  0
   -2.6164   13.1715  -12.3248 C   0  0  0  0  0  0  0  0  0  0  0  0
   -2.3492   12.3822  -13.4519 C   0  0  0  0  0  0  0  0  0  0  0  0
   -3.3197   11.5148  -13.9548 C   0  0  0  0  0  0  0  0  0  0  0  0
   -4.5637   11.4387  -13.3245 C   0  0  0  0  0  0  0  0  0  0  0  0
   -5.7977   10.3363  -13.9664 S   0  0  0  0  0  0  0  0  0  0  0  0
   -7.0906   10.7771  -13.4715 O   0  0  0  0  0  0  0  0  0  0  0  0
   -5.5751   10.2151  -15.3964 O   0  0  0  0  0  0  0  0  0  0  0  0
   -5.3957    8.7724  -13.1669 C   0  0  0  0  0  0  0  0  0  0  0  0
   -6.2782    7.6674  -13.4711 N   0  0  0  0  0  0  0  0  0  0  0  0
   -6.1303    6.2515  -13.2496 C   0  0  0  0  0  0  0  0  0  0  0  0
   -5.2041    5.6191  -12.8281 O   0  0  0  0  0  0  0  0  0  0  0  0
   -7.4631    5.5402  -13.7790 C   0  0  2  0  0  0  0  0  0  0  0  0
   -8.5290    6.4942  -13.7506 O   0  0  0  0  0  0  0  0  0  0  0  0
   -7.9029    4.4486  -12.9200 N   0  0  0  0  0  0  0  0  0  0  0  0
   -8.0120    4.5295  -11.5217 C   0  0  0  0  0  0  0  0  0  0  0  0
   -8.0437    5.7402  -10.7944 C   0  0  0  0  0  0  0  0  0  0  0  0
   -8.2338    5.7747   -9.4048 C   0  0  0  0  0  0  0  0  0  0  0  0
   -8.4312    4.5835   -8.7384 C   0  0  0  0  0  0  0  0  0  0  0  0
   -8.4474    3.3828   -9.4321 C   0  0  0  0  0  0  0  0  0  0  0  0
   -8.2520    3.3419  -10.8089 C   0  0  0  0  0  0  0  0  0  0  0  0
   -8.7359    2.2608   -8.4830 C   0  0  0  0  0  0  0  0  0  0  0  0
   -8.7467    2.8778   -7.1349 N   0  0  0  0  0  0  0  0  0  0  0  0
   -9.8369    2.4006   -6.3066 C   0  0  0  0  0  0  0  0  0  0  0  0
   -8.6936    4.3370   -7.2884 C   0  0  0  0  0  0  0  0  0  0  0  0
   -7.3565    5.1181  -15.2598 C   0  0  0  0  0  0  0  0  0  0  0  0
   -8.5520    4.6959  -15.9120 C   0  0  0  0  0  0  0  0  0  0  0  0
   -8.6261    4.4892  -17.2882 C   0  0  0  0  0  0  0  0  0  0  0  0
  -10.1291    4.1035  -18.0284 Cl  0  0  0  0  0  0  0  0  0  0  0  0
   -7.5169    4.6703  -18.1014 C   0  0  0  0  0  0  0  0  0  0  0  0
   -6.3144    5.0128  -17.4766 C   0  0  0  0  0  0  0  0  0  0  0  0
   -6.2005    5.2080  -16.0949 C   0  0  0  0  0  0  0  0  0  0  0  0
   -4.8163    5.4816  -15.9296 C   0  0  0  0  0  0  0  0  0  0  0  0
   -4.1287    5.4955  -17.0715 N   0  0  0  0  0  0  0  0  0  0  0  0
   -5.0610    5.2435  -18.0039 N   0  0  0  0  0  0  0  0  0  0  0  0
   -4.7641    5.1802  -19.4446 C   0  0  0  0  0  0  0  0  0  0  0  0
   -3.2898    5.4123  -19.8337 C   0  0  0  0  0  0  0  0  0  0  0  0
   -3.7847    6.2134  -20.9934 N   0  0  0  0  0  0  0  0  0  0  0  0
   -4.9894    6.5197  -20.1680 C   0  0  0  0  0  0  0  0  0  0  0  0
   -4.8573   12.2407  -12.2202 C   0  0  0  0  0  0  0  0  0  0  0  0
   -3.8811   13.1058  -11.7237 C   0  0  0  0  0  0  0  0  0  0  0  0
  1  2  1  0
  2  3  2  0
  3  4  1  0
  4  5  2  0
  5  6  1  0
  6  7  2  0
  6  8  2  0
  6  9  1  0
  9 10  1  0
 10 11  1  0
 11 12  2  0
 11 13  1  0
 13 14  1  6
 13 15  1  0
 15 16  1  0
 16 17  2  0
 17 18  1  0
 18 19  2  0
 19 20  1  0
 20 21  2  0
 20 22  1  0
 22 23  1  0
 23 24  1  0
 23 25  1  0
 13 26  1  0
 26 27  2  0
 27 28  1  0
 28 29  1  0
 28 30  2  0
 30 31  1  0
 31 32  2  0
 32 33  1  0
 33 34  2  0
 34 35  1  0
 35 36  1  0
 36 37  1  0
 37 38  1  0
 38 39  1  0
  5 40  1  0
 40 41  2  0
 41  2  1  0
 21 16  1  0
 32 26  1  0
 39 36  1  0
 25 19  1  0
 35 31  1  0
M  END
>  <smiles>  (2453) 
C37180-P276

>  <fragmenstein_outcome>  (2453) 
acceptable

>  <inchikey>  (2453) 
IWLCGUOGQVPMKC-UHFFFAOYSA-N

>  <fragmenstein_mode>  (2453) 
expansion

>  <HIPPO Pose ID>  (2453) 
28265

>  <Energy>  (2453) 
191.673327

>  <fragmenstein_error>  (2453) 


>  <tags>  (2453) 
{'openbind_xx01zvns2b_c1_fragmenstein', 'fragmenstein_placed'}

>  <ref_pdb>  (2453) 
175

>  <scratch_subdir>  (2453) 
/opt/xchem-fragalysis-2/maxwin/BulkDock/SCRATCH/511028/C37180-P276

>  <alias>  (2453) 
Cc1ccc(S(=O)(=O)CNC(=O)[C@](O)(Nc2ccc3c(c2)CN(C)C3)c2cc(Cl)cc3c2cnn3C2CNC2)cc1

>  <HIPPO Compound ID>  (2453) 
25363

>  <fragmenstein_runtime>  (2453) 
18.235363

$$$$
CN1Cc2ccc(NC(=O)c3cc(Cl)cc4c3[C@]3(CCNC3)NN4C3CNC3)cc2C1
     RDKit          3D

 31 36  0  0  0  0  0  0  0  0999 V2000
   -9.5591    2.5462   -6.4047 C   0  0  0  0  0  0  0  0  0  0  0  0
   -8.5926    3.0291   -7.3715 N   0  0  0  0  0  0  0  0  0  0  0  0
   -8.5917    4.4836   -7.5597 C   0  0  0  0  0  0  0  0  0  0  0  0
   -8.4367    4.6951   -9.0307 C   0  0  0  0  0  0  0  0  0  0  0  0
   -8.2556    5.8750   -9.7257 C   0  0  0  0  0  0  0  0  0  0  0  0
   -8.1472    5.8100  -11.1171 C   0  0  0  0  0  0  0  0  0  0  0  0
   -8.2309    4.5807  -11.7955 C   0  0  0  0  0  0  0  0  0  0  0  0
   -8.1015    4.5371  -13.1838 N   0  0  0  0  0  0  0  0  0  0  0  0
   -7.6691    5.6293  -14.1851 C   0  0  0  0  0  0  0  0  0  0  0  0
   -7.4275    6.7580  -14.0153 O   0  0  0  0  0  0  0  0  0  0  0  0
   -7.5828    5.1177  -15.5692 C   0  0  0  0  0  0  0  0  0  0  0  0
   -8.7673    4.7079  -16.1844 C   0  0  0  0  0  0  0  0  0  0  0  0
   -8.7857    4.4582  -17.5590 C   0  0  0  0  0  0  0  0  0  0  0  0
  -10.2821    4.0954  -18.3136 Cl  0  0  0  0  0  0  0  0  0  0  0  0
   -7.6325    4.5777  -18.3304 C   0  0  0  0  0  0  0  0  0  0  0  0
   -6.4521    4.9311  -17.6996 C   0  0  0  0  0  0  0  0  0  0  0  0
   -6.4185    5.2088  -16.3291 C   0  0  0  0  0  0  0  0  0  0  0  0
   -4.9944    5.5346  -15.9690 C   0  0  1  0  0  0  0  0  0  0  0  0
   -4.7048    6.8851  -15.2988 C   0  0  0  0  0  0  0  0  0  0  0  0
   -4.1981    6.5294  -13.9079 C   0  0  0  0  0  0  0  0  0  0  0  0
   -3.5076    5.2493  -14.0974 N   0  0  0  0  0  0  0  0  0  0  0  0
   -4.4027    4.4915  -14.9833 C   0  0  0  0  0  0  0  0  0  0  0  0
   -4.2641    5.5453  -17.2806 N   0  0  0  0  0  0  0  0  0  0  0  0
   -5.1713    5.0700  -18.2792 N   0  0  0  0  0  0  0  0  0  0  0  0
   -4.9387    5.3386  -19.6856 C   0  0  0  0  0  0  0  0  0  0  0  0
   -3.4609    5.4879  -20.1158 C   0  0  0  0  0  0  0  0  0  0  0  0
   -3.8469    6.6704  -20.9240 N   0  0  0  0  0  0  0  0  0  0  0  0
   -5.0472    6.8296  -20.0685 C   0  0  0  0  0  0  0  0  0  0  0  0
   -8.4341    3.3985  -11.0803 C   0  0  0  0  0  0  0  0  0  0  0  0
   -8.5228    3.4749   -9.6960 C   0  0  0  0  0  0  0  0  0  0  0  0
   -8.7289    2.3804   -8.6943 C   0  0  0  0  0  0  0  0  0  0  0  0
  1  2  1  0
  2  3  1  0
  3  4  1  0
  4  5  2  0
  5  6  1  0
  6  7  2  0
  7  8  1  0
  8  9  1  0
  9 10  2  0
  9 11  1  0
 11 12  2  0
 12 13  1  0
 13 14  1  0
 13 15  2  0
 15 16  1  0
 16 17  2  0
 17 18  1  0
 18 19  1  1
 19 20  1  0
 20 21  1  0
 21 22  1  0
 18 23  1  0
 23 24  1  0
 24 25  1  0
 25 26  1  0
 26 27  1  0
 27 28  1  0
  7 29  1  0
 29 30  2  0
 30 31  1  0
 31  2  1  0
 30  4  1  0
 17 11  1  0
 22 18  1  0
 28 25  1  0
 24 16  1  0
M  END
>  <smiles>  (2454) 
C37181-P276

>  <fragmenstein_outcome>  (2454) 
acceptable

>  <inchikey>  (2454) 
DZVGWXSDXWOZCU-UHFFFAOYSA-N

>  <fragmenstein_mode>  (2454) 
expansion

>  <HIPPO Pose ID>  (2454) 
28266

>  <Energy>  (2454) 
137.594031

>  <fragmenstein_error>  (2454) 


>  <tags>  (2454) 
{'openbind_xx01zvns2b_c1_fragmenstein', 'fragmenstein_placed'}

>  <ref_pdb>  (2454) 
175

>  <scratch_subdir>  (2454) 
/opt/xchem-fragalysis-2/maxwin/BulkDock/SCRATCH/511028/C37181-P276

>  <alias>  (2454) 
CN1Cc2ccc(NC(=O)c3cc(Cl)cc4c3[C@]3(CCNC3)NN4C3CNC3)cc2C1

>  <HIPPO Compound ID>  (2454) 
37181

>  <fragmenstein_runtime>  (2454) 
12.211964

$$$$
CCc1cc(C(=O)Nc2ccc3c(c2)CN(C)C3)c2cnn(C3CNC3)c2c1
     RDKit          3D

 28 32  0  0  0  0  0  0  0  0999 V2000
  -10.7669    4.8030  -18.7911 C   0  0  0  0  0  0  0  0  0  0  0  0
  -10.0357    3.9061  -17.8379 C   0  0  0  0  0  0  0  0  0  0  0  0
   -8.7217    4.4320  -17.3375 C   0  0  0  0  0  0  0  0  0  0  0  0
   -8.5899    4.7046  -15.9699 C   0  0  0  0  0  0  0  0  0  0  0  0
   -7.3899    5.1941  -15.4469 C   0  0  0  0  0  0  0  0  0  0  0  0
   -7.2971    5.6078  -14.0273 C   0  0  0  0  0  0  0  0  0  0  0  0
   -6.8173    6.6466  -13.7906 O   0  0  0  0  0  0  0  0  0  0  0  0
   -7.8799    4.5319  -13.0783 N   0  0  0  0  0  0  0  0  0  0  0  0
   -8.0728    4.5511  -11.6990 C   0  0  0  0  0  0  0  0  0  0  0  0
   -7.8297    5.7169  -10.9530 C   0  0  0  0  0  0  0  0  0  0  0  0
   -7.9940    5.7288   -9.5643 C   0  0  0  0  0  0  0  0  0  0  0  0
   -8.4026    4.5627   -8.9473 C   0  0  0  0  0  0  0  0  0  0  0  0
   -8.6574    3.4067   -9.6859 C   0  0  0  0  0  0  0  0  0  0  0  0
   -8.5019    3.3831  -11.0626 C   0  0  0  0  0  0  0  0  0  0  0  0
   -9.0648    2.3137   -8.7434 C   0  0  0  0  0  0  0  0  0  0  0  0
   -9.4341    3.0375   -7.5056 N   0  0  0  0  0  0  0  0  0  0  0  0
   -9.2890    2.2272   -6.3155 C   0  0  0  0  0  0  0  0  0  0  0  0
   -8.6253    4.2702   -7.4956 C   0  0  0  0  0  0  0  0  0  0  0  0
   -6.2986    5.3921  -16.3103 C   0  0  0  0  0  0  0  0  0  0  0  0
   -4.9693    5.8402  -16.1734 C   0  0  0  0  0  0  0  0  0  0  0  0
   -4.3016    5.8358  -17.3261 N   0  0  0  0  0  0  0  0  0  0  0  0
   -5.2139    5.4183  -18.2281 N   0  0  0  0  0  0  0  0  0  0  0  0
   -4.9117    5.2953  -19.6640 C   0  0  0  0  0  0  0  0  0  0  0  0
   -3.4174    5.4327  -20.0329 C   0  0  0  0  0  0  0  0  0  0  0  0
   -3.8425    6.2393  -21.2137 N   0  0  0  0  0  0  0  0  0  0  0  0
   -5.0454    6.6272  -20.4241 C   0  0  0  0  0  0  0  0  0  0  0  0
   -6.4399    5.1161  -17.6702 C   0  0  0  0  0  0  0  0  0  0  0  0
   -7.6440    4.6417  -18.2135 C   0  0  0  0  0  0  0  0  0  0  0  0
  1  2  1  0
  2  3  1  0
  3  4  2  0
  4  5  1  0
  5  6  1  0
  6  7  2  0
  6  8  1  0
  8  9  1  0
  9 10  2  0
 10 11  1  0
 11 12  2  0
 12 13  1  0
 13 14  2  0
 13 15  1  0
 15 16  1  0
 16 17  1  0
 16 18  1  0
  5 19  2  0
 19 20  1  0
 20 21  2  0
 21 22  1  0
 22 23  1  0
 23 24  1  0
 24 25  1  0
 25 26  1  0
 22 27  1  0
 27 28  2  0
 28  3  1  0
 14  9  1  0
 27 19  1  0
 18 12  1  0
 26 23  1  0
M  END
>  <smiles>  (2455) 
C37069-P276

>  <fragmenstein_outcome>  (2455) 
acceptable

>  <inchikey>  (2455) 
VMGGUSUHPOAGSJ-UHFFFAOYSA-N

>  <fragmenstein_mode>  (2455) 
expansion

>  <HIPPO Pose ID>  (2455) 
28267

>  <Energy>  (2455) 
85.419301

>  <fragmenstein_error>  (2455) 


>  <tags>  (2455) 
{'openbind_xx01zvns2b_c1_fragmenstein', 'fragmenstein_placed'}

>  <ref_pdb>  (2455) 
175

>  <scratch_subdir>  (2455) 
/opt/xchem-fragalysis-2/maxwin/BulkDock/SCRATCH/511028/C37069-P276

>  <alias>  (2455) 
CCc1cc(C(=O)Nc2ccc3c(c2)CN(C)C3)c2cnn(C3CNC3)c2c1

>  <HIPPO Compound ID>  (2455) 
40379

>  <fragmenstein_runtime>  (2455) 
11.813674

$$$$
CN1Cc2cc(C#N)c(NC(=O)c3cc(Cl)cc4c3cnn4C3CNC3)cc2C1
     RDKit          3D

 29 33  0  0  0  0  0  0  0  0999 V2000
   -9.2436    2.2142   -6.3567 C   0  0  0  0  0  0  0  0  0  0  0  0
   -9.4031    2.9912   -7.5644 N   0  0  0  0  0  0  0  0  0  0  0  0
   -8.6767    4.2681   -7.5689 C   0  0  0  0  0  0  0  0  0  0  0  0
   -8.5391    4.5649   -9.0310 C   0  0  0  0  0  0  0  0  0  0  0  0
   -8.3788    5.7700   -9.6827 C   0  0  0  0  0  0  0  0  0  0  0  0
   -8.3601    5.7642  -11.0870 C   0  0  0  0  0  0  0  0  0  0  0  0
   -8.5281    7.0323  -11.7442 C   0  0  0  0  0  0  0  0  0  0  0  0
   -8.7869    8.0542  -12.2348 N   0  0  0  0  0  0  0  0  0  0  0  0
   -8.4031    4.5398  -11.8047 C   0  0  0  0  0  0  0  0  0  0  0  0
   -8.2199    4.4755  -13.1878 N   0  0  0  0  0  0  0  0  0  0  0  0
   -7.4072    5.3816  -14.1331 C   0  0  0  0  0  0  0  0  0  0  0  0
   -6.8248    6.3693  -13.9185 O   0  0  0  0  0  0  0  0  0  0  0  0
   -7.4314    4.9398  -15.5439 C   0  0  0  0  0  0  0  0  0  0  0  0
   -8.6208    4.6019  -16.1921 C   0  0  0  0  0  0  0  0  0  0  0  0
   -8.6302    4.4909  -17.5796 C   0  0  0  0  0  0  0  0  0  0  0  0
  -10.1161    4.1283  -18.3658 Cl  0  0  0  0  0  0  0  0  0  0  0  0
   -7.4896    4.7507  -18.3564 C   0  0  0  0  0  0  0  0  0  0  0  0
   -6.2949    5.0603  -17.6875 C   0  0  0  0  0  0  0  0  0  0  0  0
   -6.2471    5.0969  -16.2926 C   0  0  0  0  0  0  0  0  0  0  0  0
   -4.8961    5.3486  -15.9806 C   0  0  0  0  0  0  0  0  0  0  0  0
   -4.1347    5.4564  -17.0645 N   0  0  0  0  0  0  0  0  0  0  0  0
   -5.0247    5.4453  -18.0843 N   0  0  0  0  0  0  0  0  0  0  0  0
   -4.6592    6.2244  -19.2772 C   0  0  0  0  0  0  0  0  0  0  0  0
   -3.3685    5.6963  -19.9384 C   0  0  0  0  0  0  0  0  0  0  0  0
   -3.9690    6.0666  -21.2411 N   0  0  0  0  0  0  0  0  0  0  0  0
   -5.3040    5.8960  -20.6137 C   0  0  0  0  0  0  0  0  0  0  0  0
   -8.6062    3.3374  -11.1255 C   0  0  0  0  0  0  0  0  0  0  0  0
   -8.6905    3.3752   -9.7456 C   0  0  0  0  0  0  0  0  0  0  0  0
   -8.9732    2.2684   -8.7767 C   0  0  0  0  0  0  0  0  0  0  0  0
  1  2  1  0
  2  3  1  0
  3  4  1  0
  4  5  2  0
  5  6  1  0
  6  7  1  0
  7  8  3  0
  6  9  2  0
  9 10  1  0
 10 11  1  0
 11 12  2  0
 11 13  1  0
 13 14  2  0
 14 15  1  0
 15 16  1  0
 15 17  2  0
 17 18  1  0
 18 19  2  0
 19 20  1  0
 20 21  2  0
 21 22  1  0
 22 23  1  0
 23 24  1  0
 24 25  1  0
 25 26  1  0
  9 27  1  0
 27 28  2  0
 28 29  1  0
 29  2  1  0
 28  4  1  0
 19 13  1  0
 26 23  1  0
 22 18  1  0
M  END
>  <smiles>  (2456) 
C37186-P276

>  <fragmenstein_outcome>  (2456) 
acceptable

>  <inchikey>  (2456) 
NWYAWIQCYFLJEZ-UHFFFAOYSA-N

>  <fragmenstein_mode>  (2456) 
expansion

>  <HIPPO Pose ID>  (2456) 
28275

>  <Energy>  (2456) 
106.797405

>  <fragmenstein_error>  (2456) 


>  <tags>  (2456) 
{'openbind_xx01zvns2b_c1_fragmenstein', 'fragmenstein_placed'}

>  <ref_pdb>  (2456) 
175

>  <scratch_subdir>  (2456) 
/opt/xchem-fragalysis-2/maxwin/BulkDock/SCRATCH/511028/C37186-P276

>  <alias>  (2456) 
CN1Cc2cc(C#N)c(NC(=O)c3cc(Cl)cc4c3cnn4C3CNC3)cc2C1

>  <HIPPO Compound ID>  (2456) 
37186

>  <fragmenstein_runtime>  (2456) 
11.926843

$$$$
CN1Cc2ccc(NC(=O)c3cc(Cl)cc4c3[C@@](C)(OCCCO)C(=O)N4C3CNC3)cc2C1
     RDKit          3D

 34 38  0  0  0  0  0  0  0  0999 V2000
   -9.2976    2.1227   -6.2026 C   0  0  0  0  0  0  0  0  0  0  0  0
   -9.4676    2.9025   -7.4074 N   0  0  0  0  0  0  0  0  0  0  0  0
   -8.6784    4.1460   -7.4233 C   0  0  0  0  0  0  0  0  0  0  0  0
   -8.4938    4.4211   -8.8828 C   0  0  0  0  0  0  0  0  0  0  0  0
   -8.1617    5.5936   -9.5289 C   0  0  0  0  0  0  0  0  0  0  0  0
   -8.0701    5.5707  -10.9241 C   0  0  0  0  0  0  0  0  0  0  0  0
   -8.2892    4.3855  -11.6495 C   0  0  0  0  0  0  0  0  0  0  0  0
   -8.1807    4.3736  -13.0402 N   0  0  0  0  0  0  0  0  0  0  0  0
   -7.7480    5.4817  -14.0203 C   0  0  0  0  0  0  0  0  0  0  0  0
   -7.4875    6.6026  -13.8276 O   0  0  0  0  0  0  0  0  0  0  0  0
   -7.6699    5.0056  -15.4166 C   0  0  0  0  0  0  0  0  0  0  0  0
   -8.8434    4.6398  -16.0710 C   0  0  0  0  0  0  0  0  0  0  0  0
   -8.8370    4.4605  -17.4588 C   0  0  0  0  0  0  0  0  0  0  0  0
  -10.3238    4.1369  -18.2491 Cl  0  0  0  0  0  0  0  0  0  0  0  0
   -7.6708    4.6201  -18.2119 C   0  0  0  0  0  0  0  0  0  0  0  0
   -6.5022    4.9191  -17.5344 C   0  0  0  0  0  0  0  0  0  0  0  0
   -6.4923    5.1109  -16.1503 C   0  0  0  0  0  0  0  0  0  0  0  0
   -5.0831    5.3844  -15.6769 C   0  0  1  0  0  0  0  0  0  0  0  0
   -4.8599    6.8685  -15.3400 C   0  0  0  0  0  0  0  0  0  0  0  0
   -4.8164    4.4131  -14.6749 O   0  0  0  0  0  0  0  0  0  0  0  0
   -4.0571    4.7849  -13.5302 C   0  0  0  0  0  0  0  0  0  0  0  0
   -2.5613    4.7285  -13.8151 C   0  0  0  0  0  0  0  0  0  0  0  0
   -1.7314    5.0559  -12.5849 C   0  0  0  0  0  0  0  0  0  0  0  0
   -1.9027    6.4173  -12.2150 O   0  0  0  0  0  0  0  0  0  0  0  0
   -4.2759    5.1392  -16.9957 C   0  0  0  0  0  0  0  0  0  0  0  0
   -3.0560    5.0778  -17.0765 O   0  0  0  0  0  0  0  0  0  0  0  0
   -5.2010    5.0561  -18.0491 N   0  0  0  0  0  0  0  0  0  0  0  0
   -4.8864    5.0749  -19.4887 C   0  0  0  0  0  0  0  0  0  0  0  0
   -3.4161    5.3347  -19.9293 C   0  0  0  0  0  0  0  0  0  0  0  0
   -3.9469    6.1542  -21.0535 N   0  0  0  0  0  0  0  0  0  0  0  0
   -5.1250    6.4370  -20.1915 C   0  0  0  0  0  0  0  0  0  0  0  0
   -8.6138    3.2056  -10.9790 C   0  0  0  0  0  0  0  0  0  0  0  0
   -8.7230    3.2448   -9.5978 C   0  0  0  0  0  0  0  0  0  0  0  0
   -9.0779    2.1595   -8.6282 C   0  0  0  0  0  0  0  0  0  0  0  0
  1  2  1  0
  2  3  1  0
  3  4  1  0
  4  5  2  0
  5  6  1  0
  6  7  2  0
  7  8  1  0
  8  9  1  0
  9 10  2  0
  9 11  1  0
 11 12  2  0
 12 13  1  0
 13 14  1  0
 13 15  2  0
 15 16  1  0
 16 17  2  0
 17 18  1  0
 18 19  1  1
 18 20  1  0
 20 21  1  0
 21 22  1  0
 22 23  1  0
 23 24  1  0
 18 25  1  0
 25 26  2  0
 25 27  1  0
 27 28  1  0
 28 29  1  0
 29 30  1  0
 30 31  1  0
  7 32  1  0
 32 33  2  0
 33 34  1  0
 34  2  1  0
 33  4  1  0
 17 11  1  0
 31 28  1  0
 27 16  1  0
M  END
>  <smiles>  (2457) 
C37200-P276

>  <fragmenstein_outcome>  (2457) 
acceptable

>  <inchikey>  (2457) 
CBQWQRCQWNYBQF-UHFFFAOYSA-N

>  <fragmenstein_mode>  (2457) 
expansion

>  <HIPPO Pose ID>  (2457) 
28279

>  <Energy>  (2457) 
117.314663

>  <fragmenstein_error>  (2457) 


>  <tags>  (2457) 
{'openbind_xx01zvns2b_c1_fragmenstein', 'fragmenstein_placed'}

>  <ref_pdb>  (2457) 
175

>  <scratch_subdir>  (2457) 
/opt/xchem-fragalysis-2/maxwin/BulkDock/SCRATCH/511028/C37200-P276

>  <alias>  (2457) 
CN1Cc2ccc(NC(=O)c3cc(Cl)cc4c3[C@@](C)(OCCCO)C(=O)N4C3CNC3)cc2C1

>  <HIPPO Compound ID>  (2457) 
42924

>  <fragmenstein_runtime>  (2457) 
12.550902

$$$$
COCCO[C@@]1(C)C(=O)N(C2CNC2)c2cc(Cl)cc(C(=O)Nc3ccc4c(c3)CN(C)C4)c21
     RDKit          3D

 34 38  0  0  0  0  0  0  0  0999 V2000
   -2.1123    2.8623  -11.9181 C   0  0  0  0  0  0  0  0  0  0  0  0
   -2.6226    3.2748  -13.1794 O   0  0  0  0  0  0  0  0  0  0  0  0
   -4.0526    3.2148  -13.2046 C   0  0  0  0  0  0  0  0  0  0  0  0
   -4.5587    3.7096  -14.5605 C   0  0  0  0  0  0  0  0  0  0  0  0
   -4.6452    5.1335  -14.5587 O   0  0  0  0  0  0  0  0  0  0  0  0
   -5.0486    5.7317  -15.7795 C   0  0  1  0  0  0  0  0  0  0  0  0
   -4.9252    7.2523  -15.5880 C   0  0  0  0  0  0  0  0  0  0  0  0
   -4.2115    5.4324  -17.0712 C   0  0  0  0  0  0  0  0  0  0  0  0
   -2.9931    5.3821  -17.1426 O   0  0  0  0  0  0  0  0  0  0  0  0
   -5.1229    5.2460  -18.1224 N   0  0  0  0  0  0  0  0  0  0  0  0
   -4.7935    5.1652  -19.5564 C   0  0  0  0  0  0  0  0  0  0  0  0
   -3.3263    5.4129  -20.0066 C   0  0  0  0  0  0  0  0  0  0  0  0
   -3.8596    6.1542  -21.1811 N   0  0  0  0  0  0  0  0  0  0  0  0
   -5.0546    6.4664  -20.3572 C   0  0  0  0  0  0  0  0  0  0  0  0
   -6.4210    5.0803  -17.6104 C   0  0  0  0  0  0  0  0  0  0  0  0
   -7.5604    4.6905  -18.2907 C   0  0  0  0  0  0  0  0  0  0  0  0
   -8.7292    4.5063  -17.5510 C   0  0  0  0  0  0  0  0  0  0  0  0
  -10.1800    4.0668  -18.3523 Cl  0  0  0  0  0  0  0  0  0  0  0  0
   -8.7659    4.7407  -16.1713 C   0  0  0  0  0  0  0  0  0  0  0  0
   -7.6208    5.1945  -15.5156 C   0  0  0  0  0  0  0  0  0  0  0  0
   -7.7309    5.6724  -14.1240 C   0  0  0  0  0  0  0  0  0  0  0  0
   -7.5585    6.8097  -13.9317 O   0  0  0  0  0  0  0  0  0  0  0  0
   -8.0878    4.5356  -13.1446 N   0  0  0  0  0  0  0  0  0  0  0  0
   -8.2102    4.5419  -11.7573 C   0  0  0  0  0  0  0  0  0  0  0  0
   -7.9864    5.7231  -11.0260 C   0  0  0  0  0  0  0  0  0  0  0  0
   -8.0840    5.7390   -9.6318 C   0  0  0  0  0  0  0  0  0  0  0  0
   -8.4205    4.5628   -8.9942 C   0  0  0  0  0  0  0  0  0  0  0  0
   -8.6540    3.3910   -9.7172 C   0  0  0  0  0  0  0  0  0  0  0  0
   -8.5440    3.3582  -11.0978 C   0  0  0  0  0  0  0  0  0  0  0  0
   -9.0163    2.3006   -8.7549 C   0  0  0  0  0  0  0  0  0  0  0  0
   -9.3946    3.0368   -7.5294 N   0  0  0  0  0  0  0  0  0  0  0  0
   -9.2608    2.2496   -6.3235 C   0  0  0  0  0  0  0  0  0  0  0  0
   -8.6028    4.2772   -7.5353 C   0  0  0  0  0  0  0  0  0  0  0  0
   -6.4390    5.3367  -16.2345 C   0  0  0  0  0  0  0  0  0  0  0  0
  1  2  1  0
  2  3  1  0
  3  4  1  0
  4  5  1  0
  5  6  1  0
  6  7  1  1
  6  8  1  0
  8  9  2  0
  8 10  1  0
 10 11  1  0
 11 12  1  0
 12 13  1  0
 13 14  1  0
 10 15  1  0
 15 16  2  0
 16 17  1  0
 17 18  1  0
 17 19  2  0
 19 20  1  0
 20 21  1  0
 21 22  2  0
 21 23  1  0
 23 24  1  0
 24 25  2  0
 25 26  1  0
 26 27  2  0
 27 28  1  0
 28 29  2  0
 28 30  1  0
 30 31  1  0
 31 32  1  0
 31 33  1  0
 20 34  2  0
 34  6  1  0
 14 11  1  0
 34 15  1  0
 29 24  1  0
 33 27  1  0
M  END
>  <smiles>  (2458) 
C37201-P276

>  <fragmenstein_outcome>  (2458) 
acceptable

>  <inchikey>  (2458) 
OOADHHAXCOFFFC-UHFFFAOYSA-N

>  <fragmenstein_mode>  (2458) 
expansion

>  <HIPPO Pose ID>  (2458) 
28280

>  <Energy>  (2458) 
139.436817

>  <fragmenstein_error>  (2458) 


>  <tags>  (2458) 
{'openbind_xx01zvns2b_c1_fragmenstein', 'fragmenstein_placed'}

>  <ref_pdb>  (2458) 
175

>  <scratch_subdir>  (2458) 
/opt/xchem-fragalysis-2/maxwin/BulkDock/SCRATCH/511028/C37201-P276

>  <alias>  (2458) 
COCCO[C@@]1(C)C(=O)N(C2CNC2)c2cc(Cl)cc(C(=O)Nc3ccc4c(c3)CN(C)C4)c21

>  <HIPPO Compound ID>  (2458) 
37201

>  <fragmenstein_runtime>  (2458) 
7.29133

$$$$
Cc1cc(NC(=O)c2cc(Cl)cc3c2c[n+]([O-])n3C2CNC2)cc2c1CN(C)C2
     RDKit          3D

 29 33  0  0  0  0  0  0  0  0999 V2000
   -9.1681    1.9527   -8.6571 C   0  0  0  0  0  0  0  0  0  0  0  0
   -8.7725    3.1881   -9.4004 C   0  0  0  0  0  0  0  0  0  0  0  0
   -8.6037    3.2122  -10.7991 C   0  0  0  0  0  0  0  0  0  0  0  0
   -8.1804    4.3780  -11.4675 C   0  0  0  0  0  0  0  0  0  0  0  0
   -7.9735    4.3365  -12.8539 N   0  0  0  0  0  0  0  0  0  0  0  0
   -7.4991    5.4391  -13.8340 C   0  0  0  0  0  0  0  0  0  0  0  0
   -7.1335    6.5305  -13.6275 O   0  0  0  0  0  0  0  0  0  0  0  0
   -7.4876    4.9933  -15.2537 C   0  0  0  0  0  0  0  0  0  0  0  0
   -8.6780    4.6140  -15.8873 C   0  0  0  0  0  0  0  0  0  0  0  0
   -8.7064    4.4439  -17.2710 C   0  0  0  0  0  0  0  0  0  0  0  0
  -10.1931    4.0834  -18.0584 Cl  0  0  0  0  0  0  0  0  0  0  0  0
   -7.5730    4.6348  -18.0653 C   0  0  0  0  0  0  0  0  0  0  0  0
   -6.3787    4.9677  -17.4198 C   0  0  0  0  0  0  0  0  0  0  0  0
   -6.2948    5.1461  -16.0124 C   0  0  0  0  0  0  0  0  0  0  0  0
   -4.9268    5.4811  -15.6458 C   0  0  0  0  0  0  0  0  0  0  0  0
   -4.2030    5.4985  -16.7778 N   0  0  0  0  0  0  0  0  0  0  0  0
   -2.9736    5.6769  -16.9295 O   0  0  0  0  0  0  0  0  0  0  0  0
   -5.1013    5.2245  -17.8977 N   0  0  0  0  0  0  0  0  0  0  0  0
   -4.8031    5.3016  -19.3456 C   0  0  0  0  0  0  0  0  0  0  0  0
   -3.3466    5.5197  -19.8072 C   0  0  0  0  0  0  0  0  0  0  0  0
   -3.8707    6.4901  -20.8005 N   0  0  0  0  0  0  0  0  0  0  0  0
   -5.0262    6.7231  -19.9081 C   0  0  0  0  0  0  0  0  0  0  0  0
   -7.9367    5.5451  -10.7352 C   0  0  0  0  0  0  0  0  0  0  0  0
   -8.1201    5.5177   -9.3593 C   0  0  0  0  0  0  0  0  0  0  0  0
   -8.5118    4.3528   -8.7052 C   0  0  0  0  0  0  0  0  0  0  0  0
   -8.5622    4.5961   -7.2307 C   0  0  0  0  0  0  0  0  0  0  0  0
   -8.5823    6.0675   -7.1149 N   0  0  0  0  0  0  0  0  0  0  0  0
   -7.9737    6.5316   -5.8880 C   0  0  0  0  0  0  0  0  0  0  0  0
   -7.9309    6.5964   -8.3384 C   0  0  0  0  0  0  0  0  0  0  0  0
  1  2  1  0
  2  3  2  0
  3  4  1  0
  4  5  1  0
  5  6  1  0
  6  7  2  0
  6  8  1  0
  8  9  2  0
  9 10  1  0
 10 11  1  0
 10 12  2  0
 12 13  1  0
 13 14  2  0
 14 15  1  0
 15 16  2  0
 16 17  1  0
 16 18  1  0
 18 19  1  0
 19 20  1  0
 20 21  1  0
 21 22  1  0
  4 23  2  0
 23 24  1  0
 24 25  2  0
 25 26  1  0
 26 27  1  0
 27 28  1  0
 27 29  1  0
 25  2  1  0
 14  8  1  0
 22 19  1  0
 29 24  1  0
 18 13  1  0
M  CHG  2  16   1  17  -1
M  END
>  <smiles>  (2459) 
C37202-P276

>  <fragmenstein_outcome>  (2459) 
acceptable

>  <inchikey>  (2459) 
QDQWNVMYGWAHIX-UHFFFAOYSA-N

>  <fragmenstein_mode>  (2459) 
expansion

>  <HIPPO Pose ID>  (2459) 
28281

>  <Energy>  (2459) 
75.181109

>  <fragmenstein_error>  (2459) 


>  <tags>  (2459) 
{'openbind_xx01zvns2b_c1_fragmenstein', 'fragmenstein_placed'}

>  <ref_pdb>  (2459) 
175

>  <scratch_subdir>  (2459) 
/opt/xchem-fragalysis-2/maxwin/BulkDock/SCRATCH/511028/C37202-P276

>  <alias>  (2459) 
Cc1cc(NC(=O)c2cc(Cl)cc3c2c[n+]([O-])n3C2CNC2)cc2c1CN(C)C2

>  <HIPPO Compound ID>  (2459) 
21602

>  <fragmenstein_runtime>  (2459) 
11.87974

$$$$
CSc1cc2c(cc1NC(=O)c1cc(Cl)cc3c1cnn3C1CNC1)CN(C)C2
     RDKit          3D

 29 33  0  0  0  0  0  0  0  0999 V2000
   -9.1704    7.7250  -12.3858 C   0  0  0  0  0  0  0  0  0  0  0  0
   -7.6774    7.3339  -11.4509 S   0  0  0  0  0  0  0  0  0  0  0  0
   -8.0450    5.6722  -10.8851 C   0  0  0  0  0  0  0  0  0  0  0  0
   -8.1463    5.6066   -9.4771 C   0  0  0  0  0  0  0  0  0  0  0  0
   -8.5053    4.4211   -8.8728 C   0  0  0  0  0  0  0  0  0  0  0  0
   -8.7682    3.2907   -9.6321 C   0  0  0  0  0  0  0  0  0  0  0  0
   -8.6585    3.3152  -11.0137 C   0  0  0  0  0  0  0  0  0  0  0  0
   -8.2661    4.5029  -11.6664 C   0  0  0  0  0  0  0  0  0  0  0  0
   -8.0954    4.3553  -13.0616 N   0  0  0  0  0  0  0  0  0  0  0  0
   -7.3751    5.2625  -14.0879 C   0  0  0  0  0  0  0  0  0  0  0  0
   -6.7447    6.2333  -13.9293 O   0  0  0  0  0  0  0  0  0  0  0  0
   -7.5338    4.8262  -15.4944 C   0  0  0  0  0  0  0  0  0  0  0  0
   -8.7834    4.5418  -16.0553 C   0  0  0  0  0  0  0  0  0  0  0  0
   -8.9037    4.4099  -17.4395 C   0  0  0  0  0  0  0  0  0  0  0  0
  -10.4562    4.1753  -18.1390 Cl  0  0  0  0  0  0  0  0  0  0  0  0
   -7.8079    4.5551  -18.2982 C   0  0  0  0  0  0  0  0  0  0  0  0
   -6.5608    4.8119  -17.7159 C   0  0  0  0  0  0  0  0  0  0  0  0
   -6.4057    4.9242  -16.3363 C   0  0  0  0  0  0  0  0  0  0  0  0
   -5.0278    5.1691  -16.1521 C   0  0  0  0  0  0  0  0  0  0  0  0
   -4.3515    5.2042  -17.2990 N   0  0  0  0  0  0  0  0  0  0  0  0
   -5.3071    5.0517  -18.2417 N   0  0  0  0  0  0  0  0  0  0  0  0
   -5.0375    5.2629  -19.6787 C   0  0  0  0  0  0  0  0  0  0  0  0
   -3.5444    5.4251  -20.0448 C   0  0  0  0  0  0  0  0  0  0  0  0
   -3.9234    6.5786  -20.8964 N   0  0  0  0  0  0  0  0  0  0  0  0
   -5.1336    6.7534  -20.0640 C   0  0  0  0  0  0  0  0  0  0  0  0
   -9.1276    2.1713   -8.7039 C   0  0  0  0  0  0  0  0  0  0  0  0
   -9.4992    2.8685   -7.4517 N   0  0  0  0  0  0  0  0  0  0  0  0
   -9.3355    2.0392   -6.2794 C   0  0  0  0  0  0  0  0  0  0  0  0
   -8.6903    4.0987   -7.4237 C   0  0  0  0  0  0  0  0  0  0  0  0
  1  2  1  0
  2  3  1  0
  3  4  2  0
  4  5  1  0
  5  6  2  0
  6  7  1  0
  7  8  2  0
  8  9  1  0
  9 10  1  0
 10 11  2  0
 10 12  1  0
 12 13  2  0
 13 14  1  0
 14 15  1  0
 14 16  2  0
 16 17  1  0
 17 18  2  0
 18 19  1  0
 19 20  2  0
 20 21  1  0
 21 22  1  0
 22 23  1  0
 23 24  1  0
 24 25  1  0
  6 26  1  0
 26 27  1  0
 27 28  1  0
 27 29  1  0
  8  3  1  0
 18 12  1  0
 25 22  1  0
 29  5  1  0
 21 17  1  0
M  END
>  <smiles>  (2460) 
C37203-P276

>  <fragmenstein_outcome>  (2460) 
acceptable

>  <inchikey>  (2460) 
RGGIFCGOLRJYEE-UHFFFAOYSA-N

>  <fragmenstein_mode>  (2460) 
expansion

>  <HIPPO Pose ID>  (2460) 
28282

>  <Energy>  (2460) 
96.271716

>  <fragmenstein_error>  (2460) 


>  <tags>  (2460) 
{'openbind_xx01zvns2b_c1_fragmenstein', 'fragmenstein_placed'}

>  <ref_pdb>  (2460) 
175

>  <scratch_subdir>  (2460) 
/opt/xchem-fragalysis-2/maxwin/BulkDock/SCRATCH/511028/C37203-P276

>  <alias>  (2460) 
CSc1cc2c(cc1NC(=O)c1cc(Cl)cc3c1cnn3C1CNC1)CN(C)C2

>  <HIPPO Compound ID>  (2460) 
37203

>  <fragmenstein_runtime>  (2460) 
14.639973

$$$$
CC(C)c1nn(C2CNC2)c2cc(Cl)cc([C@@](O)(Nc3ccc4c(c3)CN(C)C4)C(=O)NCC(F)F)c12
     RDKit          3D

 37 41  0  0  0  0  0  0  0  0999 V2000
   -2.4951    6.1096  -15.4215 C   0  0  0  0  0  0  0  0  0  0  0  0
   -4.0063    6.1983  -15.1398 C   0  0  0  0  0  0  0  0  0  0  0  0
   -4.3502    7.6300  -14.7310 C   0  0  0  0  0  0  0  0  0  0  0  0
   -4.8688    5.7238  -16.2830 C   0  0  0  0  0  0  0  0  0  0  0  0
   -4.3006    5.7825  -17.4890 N   0  0  0  0  0  0  0  0  0  0  0  0
   -5.2338    5.3742  -18.3441 N   0  0  0  0  0  0  0  0  0  0  0  0
   -5.0114    5.4296  -19.8039 C   0  0  0  0  0  0  0  0  0  0  0  0
   -3.5235    5.5094  -20.2177 C   0  0  0  0  0  0  0  0  0  0  0  0
   -3.8809    6.6018  -21.1521 N   0  0  0  0  0  0  0  0  0  0  0  0
   -5.0846    6.8732  -20.3386 C   0  0  0  0  0  0  0  0  0  0  0  0
   -6.4243    5.0501  -17.7361 C   0  0  0  0  0  0  0  0  0  0  0  0
   -7.6363    4.6457  -18.3053 C   0  0  0  0  0  0  0  0  0  0  0  0
   -8.7106    4.4493  -17.4586 C   0  0  0  0  0  0  0  0  0  0  0  0
  -10.2476    4.0898  -18.1371 Cl  0  0  0  0  0  0  0  0  0  0  0  0
   -8.5734    4.6139  -16.0846 C   0  0  0  0  0  0  0  0  0  0  0  0
   -7.3437    4.9935  -15.4599 C   0  0  0  0  0  0  0  0  0  0  0  0
   -7.3651    5.2718  -13.9335 C   0  0  1  0  0  0  0  0  0  0  0  0
   -7.5666    6.6642  -13.8983 O   0  0  0  0  0  0  0  0  0  0  0  0
   -8.5580    4.7009  -13.2433 N   0  0  0  0  0  0  0  0  0  0  0  0
   -8.5023    4.6615  -11.8154 C   0  0  0  0  0  0  0  0  0  0  0  0
   -8.1810    5.7965  -11.0333 C   0  0  0  0  0  0  0  0  0  0  0  0
   -8.1392    5.7487   -9.6336 C   0  0  0  0  0  0  0  0  0  0  0  0
   -8.4480    4.5583   -9.0138 C   0  0  0  0  0  0  0  0  0  0  0  0
   -8.7810    3.4301   -9.7614 C   0  0  0  0  0  0  0  0  0  0  0  0
   -8.8127    3.4629  -11.1494 C   0  0  0  0  0  0  0  0  0  0  0  0
   -9.0944    2.3110   -8.8118 C   0  0  0  0  0  0  0  0  0  0  0  0
   -9.3717    3.0138   -7.5409 N   0  0  0  0  0  0  0  0  0  0  0  0
   -9.2169    2.1755   -6.3749 C   0  0  0  0  0  0  0  0  0  0  0  0
   -8.5287    4.2184   -7.5557 C   0  0  0  0  0  0  0  0  0  0  0  0
   -6.0651    4.6827  -13.1672 C   0  0  0  0  0  0  0  0  0  0  0  0
   -5.3928    5.3480  -12.4752 O   0  0  0  0  0  0  0  0  0  0  0  0
   -5.9819    3.1589  -13.4945 N   0  0  0  0  0  0  0  0  0  0  0  0
   -5.1161    2.1320  -12.9636 C   0  0  0  0  0  0  0  0  0  0  0  0
   -3.6308    2.4163  -13.1533 C   0  0  0  0  0  0  0  0  0  0  0  0
   -3.3095    2.2853  -14.4690 F   0  0  0  0  0  0  0  0  0  0  0  0
   -2.8851    1.4935  -12.4904 F   0  0  0  0  0  0  0  0  0  0  0  0
   -6.2348    5.2423  -16.3531 C   0  0  0  0  0  0  0  0  0  0  0  0
  1  2  1  0
  2  3  1  0
  2  4  1  0
  4  5  2  0
  5  6  1  0
  6  7  1  0
  7  8  1  0
  8  9  1  0
  9 10  1  0
  6 11  1  0
 11 12  2  0
 12 13  1  0
 13 14  1  0
 13 15  2  0
 15 16  1  0
 16 17  1  0
 17 18  1  6
 17 19  1  0
 19 20  1  0
 20 21  2  0
 21 22  1  0
 22 23  2  0
 23 24  1  0
 24 25  2  0
 24 26  1  0
 26 27  1  0
 27 28  1  0
 27 29  1  0
 17 30  1  0
 30 31  2  0
 30 32  1  0
 32 33  1  0
 33 34  1  0
 34 35  1  0
 34 36  1  0
 16 37  2  0
 37  4  1  0
 10  7  1  0
 37 11  1  0
 25 20  1  0
 29 23  1  0
M  END
>  <smiles>  (2461) 
C24127-P276

>  <fragmenstein_outcome>  (2461) 
acceptable

>  <inchikey>  (2461) 
KMGGLDMVOOVARI-UHFFFAOYSA-N

>  <fragmenstein_mode>  (2461) 
expansion

>  <HIPPO Pose ID>  (2461) 
28283

>  <Energy>  (2461) 
161.867146

>  <fragmenstein_error>  (2461) 


>  <tags>  (2461) 
{'openbind_xx01zvns2b_c1_fragmenstein', 'fragmenstein_placed'}

>  <ref_pdb>  (2461) 
175

>  <scratch_subdir>  (2461) 
/opt/xchem-fragalysis-2/maxwin/BulkDock/SCRATCH/511028/C24127-P276

>  <alias>  (2461) 
CC(C)c1nn(C2CNC2)c2cc(Cl)cc([C@@](O)(Nc3ccc4c(c3)CN(C)C4)C(=O)NCC(F)F)c12

>  <HIPPO Compound ID>  (2461) 
24127

>  <fragmenstein_runtime>  (2461) 
8.652882

$$$$
CO[C@]1(C)C(=O)N(C2CNC2)c2cc(Cl)cc(C(=O)Nc3ccc4c(c3)CN(C)C4)c21
     RDKit          3D

 31 35  0  0  0  0  0  0  0  0999 V2000
   -3.8248    7.2775  -14.8520 C   0  0  0  0  0  0  0  0  0  0  0  0
   -4.9993    6.7984  -15.4851 O   0  0  0  0  0  0  0  0  0  0  0  0
   -5.0159    5.4052  -15.8057 C   0  0  2  0  0  0  0  0  0  0  0  0
   -4.4755    4.4785  -14.7184 C   0  0  0  0  0  0  0  0  0  0  0  0
   -4.2505    5.1985  -17.1478 C   0  0  0  0  0  0  0  0  0  0  0  0
   -3.0335    5.2089  -17.2735 O   0  0  0  0  0  0  0  0  0  0  0  0
   -5.2059    5.0506  -18.1619 N   0  0  0  0  0  0  0  0  0  0  0  0
   -4.9742    5.2304  -19.6125 C   0  0  0  0  0  0  0  0  0  0  0  0
   -3.5235    5.4390  -20.1336 C   0  0  0  0  0  0  0  0  0  0  0  0
   -4.0332    6.5148  -21.0157 N   0  0  0  0  0  0  0  0  0  0  0  0
   -5.1612    6.6998  -20.0820 C   0  0  0  0  0  0  0  0  0  0  0  0
   -6.4845    4.8881  -17.5966 C   0  0  0  0  0  0  0  0  0  0  0  0
   -7.6730    4.5963  -18.2390 C   0  0  0  0  0  0  0  0  0  0  0  0
   -8.8193    4.4441  -17.4559 C   0  0  0  0  0  0  0  0  0  0  0  0
  -10.3222    4.1342  -18.2273 Cl  0  0  0  0  0  0  0  0  0  0  0  0
   -8.7875    4.6250  -16.0663 C   0  0  0  0  0  0  0  0  0  0  0  0
   -7.5908    4.9808  -15.4434 C   0  0  0  0  0  0  0  0  0  0  0  0
   -7.6254    5.4840  -14.0496 C   0  0  0  0  0  0  0  0  0  0  0  0
   -7.3143    6.5952  -13.8759 O   0  0  0  0  0  0  0  0  0  0  0  0
   -8.0078    4.3818  -13.0378 N   0  0  0  0  0  0  0  0  0  0  0  0
   -8.1738    4.4404  -11.6533 C   0  0  0  0  0  0  0  0  0  0  0  0
   -8.0243    5.6639  -10.9759 C   0  0  0  0  0  0  0  0  0  0  0  0
   -8.1374    5.7402   -9.5857 C   0  0  0  0  0  0  0  0  0  0  0  0
   -8.3913    4.5758   -8.8890 C   0  0  0  0  0  0  0  0  0  0  0  0
   -8.5455    3.3606   -9.5508 C   0  0  0  0  0  0  0  0  0  0  0  0
   -8.4498    3.2754  -10.9345 C   0  0  0  0  0  0  0  0  0  0  0  0
   -8.8182    2.2823   -8.5482 C   0  0  0  0  0  0  0  0  0  0  0  0
   -8.6604    2.9300   -7.2278 N   0  0  0  0  0  0  0  0  0  0  0  0
   -9.6651    2.5303   -6.2696 C   0  0  0  0  0  0  0  0  0  0  0  0
   -8.5652    4.3813   -7.4198 C   0  0  0  0  0  0  0  0  0  0  0  0
   -6.4306    5.0680  -16.2109 C   0  0  0  0  0  0  0  0  0  0  0  0
  1  2  1  0
  2  3  1  0
  3  4  1  1
  3  5  1  0
  5  6  2  0
  5  7  1  0
  7  8  1  0
  8  9  1  0
  9 10  1  0
 10 11  1  0
  7 12  1  0
 12 13  2  0
 13 14  1  0
 14 15  1  0
 14 16  2  0
 16 17  1  0
 17 18  1  0
 18 19  2  0
 18 20  1  0
 20 21  1  0
 21 22  2  0
 22 23  1  0
 23 24  2  0
 24 25  1  0
 25 26  2  0
 25 27  1  0
 27 28  1  0
 28 29  1  0
 28 30  1  0
 17 31  2  0
 31  3  1  0
 11  8  1  0
 31 12  1  0
 26 21  1  0
 30 24  1  0
M  END
>  <smiles>  (2462) 
C37204-P276

>  <fragmenstein_outcome>  (2462) 
acceptable

>  <inchikey>  (2462) 
LAGPXDFVROIDEQ-UHFFFAOYSA-N

>  <fragmenstein_mode>  (2462) 
expansion

>  <HIPPO Pose ID>  (2462) 
28284

>  <Energy>  (2462) 
117.097209

>  <fragmenstein_error>  (2462) 


>  <tags>  (2462) 
{'openbind_xx01zvns2b_c1_fragmenstein', 'fragmenstein_placed'}

>  <ref_pdb>  (2462) 
175

>  <scratch_subdir>  (2462) 
/opt/xchem-fragalysis-2/maxwin/BulkDock/SCRATCH/511028/C37204-P276

>  <alias>  (2462) 
CO[C@]1(C)C(=O)N(C2CNC2)c2cc(Cl)cc(C(=O)Nc3ccc4c(c3)CN(C)C4)c21

>  <HIPPO Compound ID>  (2462) 
37204

>  <fragmenstein_runtime>  (2462) 
8.750454

$$$$
CC(C)O[C@]1(C)C(=O)N(C2CNC2)c2cc(Cl)cc(C(=O)Nc3ccc4c(c3)CN(C)C4)c21
     RDKit          3D

 33 37  0  0  0  0  0  0  0  0999 V2000
   -4.9087    8.8299  -13.7055 C   0  0  0  0  0  0  0  0  0  0  0  0
   -4.3434    7.4598  -14.0809 C   0  0  0  0  0  0  0  0  0  0  0  0
   -2.8715    7.6152  -14.4483 C   0  0  0  0  0  0  0  0  0  0  0  0
   -5.1240    6.9880  -15.1756 O   0  0  0  0  0  0  0  0  0  0  0  0
   -5.0539    5.6161  -15.5644 C   0  0  2  0  0  0  0  0  0  0  0  0
   -4.5763    4.5971  -14.5312 C   0  0  0  0  0  0  0  0  0  0  0  0
   -4.1819    5.5497  -16.8423 C   0  0  0  0  0  0  0  0  0  0  0  0
   -2.9660    5.6930  -16.8952 O   0  0  0  0  0  0  0  0  0  0  0  0
   -5.0354    5.3900  -17.9511 N   0  0  0  0  0  0  0  0  0  0  0  0
   -4.6626    6.1015  -19.1910 C   0  0  0  0  0  0  0  0  0  0  0  0
   -3.3635    5.6035  -19.8729 C   0  0  0  0  0  0  0  0  0  0  0  0
   -3.9704    5.9885  -21.1667 N   0  0  0  0  0  0  0  0  0  0  0  0
   -5.3024    5.7972  -20.5411 C   0  0  0  0  0  0  0  0  0  0  0  0
   -6.3495    5.1387  -17.5093 C   0  0  0  0  0  0  0  0  0  0  0  0
   -7.4715    4.7958  -18.2421 C   0  0  0  0  0  0  0  0  0  0  0  0
   -8.6597    4.5329  -17.5488 C   0  0  0  0  0  0  0  0  0  0  0  0
  -10.0786    4.1075  -18.4179 Cl  0  0  0  0  0  0  0  0  0  0  0  0
   -8.7479    4.6793  -16.1596 C   0  0  0  0  0  0  0  0  0  0  0  0
   -7.6256    5.0862  -15.4435 C   0  0  0  0  0  0  0  0  0  0  0  0
   -7.7907    5.5726  -14.0551 C   0  0  0  0  0  0  0  0  0  0  0  0
   -7.5614    6.6979  -13.8571 O   0  0  0  0  0  0  0  0  0  0  0  0
   -8.1958    4.4502  -13.0819 N   0  0  0  0  0  0  0  0  0  0  0  0
   -8.3083    4.4534  -11.6923 C   0  0  0  0  0  0  0  0  0  0  0  0
   -8.0995    5.6437  -10.9684 C   0  0  0  0  0  0  0  0  0  0  0  0
   -8.1722    5.6651   -9.5728 C   0  0  0  0  0  0  0  0  0  0  0  0
   -8.4790    4.4863   -8.9252 C   0  0  0  0  0  0  0  0  0  0  0  0
   -8.7061    3.3078   -9.6403 C   0  0  0  0  0  0  0  0  0  0  0  0
   -8.6104    3.2687  -11.0227 C   0  0  0  0  0  0  0  0  0  0  0  0
   -9.0555    2.2199   -8.6682 C   0  0  0  0  0  0  0  0  0  0  0  0
   -9.4295    2.9620   -7.4453 N   0  0  0  0  0  0  0  0  0  0  0  0
   -9.2901    2.1810   -6.2386 C   0  0  0  0  0  0  0  0  0  0  0  0
   -8.6468    4.2056   -7.4629 C   0  0  0  0  0  0  0  0  0  0  0  0
   -6.4144    5.2507  -16.1160 C   0  0  0  0  0  0  0  0  0  0  0  0
  1  2  1  0
  2  3  1  0
  2  4  1  0
  4  5  1  0
  5  6  1  1
  5  7  1  0
  7  8  2  0
  7  9  1  0
  9 10  1  0
 10 11  1  0
 11 12  1  0
 12 13  1  0
  9 14  1  0
 14 15  2  0
 15 16  1  0
 16 17  1  0
 16 18  2  0
 18 19  1  0
 19 20  1  0
 20 21  2  0
 20 22  1  0
 22 23  1  0
 23 24  2  0
 24 25  1  0
 25 26  2  0
 26 27  1  0
 27 28  2  0
 27 29  1  0
 29 30  1  0
 30 31  1  0
 30 32  1  0
 19 33  2  0
 33  5  1  0
 13 10  1  0
 33 14  1  0
 28 23  1  0
 32 26  1  0
M  END
>  <smiles>  (2463) 
C37206-P276

>  <fragmenstein_outcome>  (2463) 
acceptable

>  <inchikey>  (2463) 
HXZXPMQNAGYRTE-UHFFFAOYSA-N

>  <fragmenstein_mode>  (2463) 
expansion

>  <HIPPO Pose ID>  (2463) 
28286

>  <Energy>  (2463) 
128.657548

>  <fragmenstein_error>  (2463) 


>  <tags>  (2463) 
{'openbind_xx01zvns2b_c1_fragmenstein', 'fragmenstein_placed'}

>  <ref_pdb>  (2463) 
175

>  <scratch_subdir>  (2463) 
/opt/xchem-fragalysis-2/maxwin/BulkDock/SCRATCH/511028/C37206-P276

>  <alias>  (2463) 
CC(C)O[C@]1(C)C(=O)N(C2CNC2)c2cc(Cl)cc(C(=O)Nc3ccc4c(c3)CN(C)C4)c21

>  <HIPPO Compound ID>  (2463) 
37206

>  <fragmenstein_runtime>  (2463) 
8.643567

$$$$
CN1Cc2ccc(NC(=O)c3cc(Cl)cc4c3cnn4C3(N)CNC3)cc2C1
     RDKit          3D

 28 32  0  0  0  0  0  0  0  0999 V2000
   -9.8077    2.5090   -6.2826 C   0  0  0  0  0  0  0  0  0  0  0  0
   -8.7889    2.8865   -7.2402 N   0  0  0  0  0  0  0  0  0  0  0  0
   -8.6134    4.3305   -7.4227 C   0  0  0  0  0  0  0  0  0  0  0  0
   -8.4320    4.5286   -8.8933 C   0  0  0  0  0  0  0  0  0  0  0  0
   -8.1166    5.6818   -9.5858 C   0  0  0  0  0  0  0  0  0  0  0  0
   -8.0342    5.6153  -10.9800 C   0  0  0  0  0  0  0  0  0  0  0  0
   -8.2871    4.4147  -11.6662 C   0  0  0  0  0  0  0  0  0  0  0  0
   -8.2158    4.3769  -13.0606 N   0  0  0  0  0  0  0  0  0  0  0  0
   -7.6296    5.3969  -14.0644 C   0  0  0  0  0  0  0  0  0  0  0  0
   -7.1840    6.4629  -13.8881 O   0  0  0  0  0  0  0  0  0  0  0  0
   -7.6800    4.9266  -15.4684 C   0  0  0  0  0  0  0  0  0  0  0  0
   -8.8880    4.5408  -16.0549 C   0  0  0  0  0  0  0  0  0  0  0  0
   -8.9692    4.3986  -17.4375 C   0  0  0  0  0  0  0  0  0  0  0  0
  -10.4951    4.1147  -18.1706 Cl  0  0  0  0  0  0  0  0  0  0  0  0
   -7.8624    4.5987  -18.2669 C   0  0  0  0  0  0  0  0  0  0  0  0
   -6.6453    4.9440  -17.6622 C   0  0  0  0  0  0  0  0  0  0  0  0
   -6.5391    5.0960  -16.2795 C   0  0  0  0  0  0  0  0  0  0  0  0
   -5.1931    5.4518  -16.0624 C   0  0  0  0  0  0  0  0  0  0  0  0
   -4.4847    5.5106  -17.1879 N   0  0  0  0  0  0  0  0  0  0  0  0
   -5.3928    5.2584  -18.1606 N   0  0  0  0  0  0  0  0  0  0  0  0
   -5.0476    5.4266  -19.5992 C   0  0  0  0  0  0  0  0  0  0  0  0
   -5.7173    4.5899  -20.6093 N   0  0  0  0  0  0  0  0  0  0  0  0
   -3.5262    5.5000  -19.9110 C   0  0  0  0  0  0  0  0  0  0  0  0
   -3.7947    6.6541  -20.8103 N   0  0  0  0  0  0  0  0  0  0  0  0
   -5.0566    6.9017  -20.0611 C   0  0  0  0  0  0  0  0  0  0  0  0
   -8.6097    3.2592  -10.9514 C   0  0  0  0  0  0  0  0  0  0  0  0
   -8.6609    3.3308   -9.5638 C   0  0  0  0  0  0  0  0  0  0  0  0
   -8.9572    2.2548   -8.5648 C   0  0  0  0  0  0  0  0  0  0  0  0
  1  2  1  0
  2  3  1  0
  3  4  1  0
  4  5  2  0
  5  6  1  0
  6  7  2  0
  7  8  1  0
  8  9  1  0
  9 10  2  0
  9 11  1  0
 11 12  2  0
 12 13  1  0
 13 14  1  0
 13 15  2  0
 15 16  1  0
 16 17  2  0
 17 18  1  0
 18 19  2  0
 19 20  1  0
 20 21  1  0
 21 22  1  0
 21 23  1  0
 23 24  1  0
 24 25  1  0
  7 26  1  0
 26 27  2  0
 27 28  1  0
 28  2  1  0
 27  4  1  0
 17 11  1  0
 25 21  1  0
 20 16  1  0
M  END
>  <smiles>  (2464) 
C37208-P276

>  <fragmenstein_outcome>  (2464) 
acceptable

>  <inchikey>  (2464) 
XZLPNIHQCUMSAG-UHFFFAOYSA-N

>  <fragmenstein_mode>  (2464) 
expansion

>  <HIPPO Pose ID>  (2464) 
28288

>  <Energy>  (2464) 
137.448399

>  <fragmenstein_error>  (2464) 


>  <tags>  (2464) 
{'openbind_xx01zvns2b_c1_fragmenstein', 'fragmenstein_placed'}

>  <ref_pdb>  (2464) 
175

>  <scratch_subdir>  (2464) 
/opt/xchem-fragalysis-2/maxwin/BulkDock/SCRATCH/511028/C37208-P276

>  <alias>  (2464) 
CN1Cc2ccc(NC(=O)c3cc(Cl)cc4c3cnn4C3(N)CNC3)cc2C1

>  <HIPPO Compound ID>  (2464) 
37208

>  <fragmenstein_runtime>  (2464) 
6.993049

$$$$
CN1Cc2cc(NC(=O)c3cc(Cl)cc4c3c[n+]([O-])n4C3CNC3)ccc2C1=O
     RDKit          3D

 29 33  0  0  0  0  0  0  0  0999 V2000
   -9.2297    2.1356   -6.3398 C   0  0  0  0  0  0  0  0  0  0  0  0
   -9.0364    2.8648   -7.5612 N   0  0  0  0  0  0  0  0  0  0  0  0
   -8.8819    2.1783   -8.8217 C   0  0  0  0  0  0  0  0  0  0  0  0
   -8.6305    3.2992   -9.7693 C   0  0  0  0  0  0  0  0  0  0  0  0
   -8.4885    3.2731  -11.1445 C   0  0  0  0  0  0  0  0  0  0  0  0
   -8.2242    4.4760  -11.8004 C   0  0  0  0  0  0  0  0  0  0  0  0
   -8.0254    4.4507  -13.1756 N   0  0  0  0  0  0  0  0  0  0  0  0
   -7.5912    5.5657  -14.1441 C   0  0  0  0  0  0  0  0  0  0  0  0
   -7.2568    6.6631  -13.9329 O   0  0  0  0  0  0  0  0  0  0  0  0
   -7.5205    5.0904  -15.5405 C   0  0  0  0  0  0  0  0  0  0  0  0
   -8.6773    4.6817  -16.2024 C   0  0  0  0  0  0  0  0  0  0  0  0
   -8.6457    4.5162  -17.5813 C   0  0  0  0  0  0  0  0  0  0  0  0
  -10.1030    4.0937  -18.3879 Cl  0  0  0  0  0  0  0  0  0  0  0  0
   -7.4909    4.7722  -18.3366 C   0  0  0  0  0  0  0  0  0  0  0  0
   -6.3209    5.1353  -17.6546 C   0  0  0  0  0  0  0  0  0  0  0  0
   -6.2968    5.2441  -16.2342 C   0  0  0  0  0  0  0  0  0  0  0  0
   -4.9512    5.5357  -15.7674 C   0  0  0  0  0  0  0  0  0  0  0  0
   -4.1804    5.6294  -16.8550 N   0  0  0  0  0  0  0  0  0  0  0  0
   -2.9509    5.8517  -16.9635 O   0  0  0  0  0  0  0  0  0  0  0  0
   -5.0370    5.5007  -18.0392 N   0  0  0  0  0  0  0  0  0  0  0  0
   -4.6430    6.2407  -19.2518 C   0  0  0  0  0  0  0  0  0  0  0  0
   -3.3698    5.6694  -19.9162 C   0  0  0  0  0  0  0  0  0  0  0  0
   -3.9696    6.0460  -21.2158 N   0  0  0  0  0  0  0  0  0  0  0  0
   -5.3045    5.9109  -20.5833 C   0  0  0  0  0  0  0  0  0  0  0  0
   -8.1215    5.6822  -11.0778 C   0  0  0  0  0  0  0  0  0  0  0  0
   -8.2809    5.7022   -9.6899 C   0  0  0  0  0  0  0  0  0  0  0  0
   -8.5308    4.4975   -9.0671 C   0  0  0  0  0  0  0  0  0  0  0  0
   -8.7658    4.2132   -7.6454 C   0  0  0  0  0  0  0  0  0  0  0  0
   -8.7360    5.0411   -6.7554 O   0  0  0  0  0  0  0  0  0  0  0  0
  1  2  1  0
  2  3  1  0
  3  4  1  0
  4  5  2  0
  5  6  1  0
  6  7  1  0
  7  8  1  0
  8  9  2  0
  8 10  1  0
 10 11  2  0
 11 12  1  0
 12 13  1  0
 12 14  2  0
 14 15  1  0
 15 16  2  0
 16 17  1  0
 17 18  2  0
 18 19  1  0
 18 20  1  0
 20 21  1  0
 21 22  1  0
 22 23  1  0
 23 24  1  0
  6 25  2  0
 25 26  1  0
 26 27  2  0
 27 28  1  0
 28 29  2  0
 28  2  1  0
 27  4  1  0
 16 10  1  0
 24 21  1  0
 20 15  1  0
M  CHG  2  18   1  19  -1
M  END
>  <smiles>  (2465) 
C37211-P276

>  <fragmenstein_outcome>  (2465) 
acceptable

>  <inchikey>  (2465) 
PFKDLDBEANMMHT-UHFFFAOYSA-N

>  <fragmenstein_mode>  (2465) 
expansion

>  <HIPPO Pose ID>  (2465) 
28289

>  <Energy>  (2465) 
58.313781

>  <fragmenstein_error>  (2465) 


>  <tags>  (2465) 
{'openbind_xx01zvns2b_c1_fragmenstein', 'fragmenstein_placed'}

>  <ref_pdb>  (2465) 
175

>  <scratch_subdir>  (2465) 
/opt/xchem-fragalysis-2/maxwin/BulkDock/SCRATCH/511028/C37211-P276

>  <alias>  (2465) 
CN1Cc2cc(NC(=O)c3cc(Cl)cc4c3c[n+]([O-])n4C3CNC3)ccc2C1=O

>  <HIPPO Compound ID>  (2465) 
40786

>  <fragmenstein_runtime>  (2465) 
6.658571

$$$$
CN1Cc2ccc(NC(=O)c3cc(Cl)cc4c3cnn4[C@@H]3CN[C@H]3N)cc2C1
     RDKit          3D

 28 32  0  0  0  0  0  0  0  0999 V2000
   -9.3860    2.5336   -6.4343 C   0  0  0  0  0  0  0  0  0  0  0  0
   -8.5353    3.0559   -7.4777 N   0  0  0  0  0  0  0  0  0  0  0  0
   -8.5545    4.5117   -7.6313 C   0  0  0  0  0  0  0  0  0  0  0  0
   -8.4096    4.7427   -9.1006 C   0  0  0  0  0  0  0  0  0  0  0  0
   -8.1834    5.9204   -9.7842 C   0  0  0  0  0  0  0  0  0  0  0  0
   -8.0762    5.8609  -11.1760 C   0  0  0  0  0  0  0  0  0  0  0  0
   -8.2238    4.6424  -11.8625 C   0  0  0  0  0  0  0  0  0  0  0  0
   -8.0906    4.5879  -13.2461 N   0  0  0  0  0  0  0  0  0  0  0  0
   -7.6184    5.6601  -14.2508 C   0  0  0  0  0  0  0  0  0  0  0  0
   -7.3402    6.7818  -14.0856 O   0  0  0  0  0  0  0  0  0  0  0  0
   -7.5718    5.1463  -15.6322 C   0  0  0  0  0  0  0  0  0  0  0  0
   -8.7312    4.6708  -16.2454 C   0  0  0  0  0  0  0  0  0  0  0  0
   -8.7283    4.4307  -17.6150 C   0  0  0  0  0  0  0  0  0  0  0  0
  -10.2109    4.0197  -18.3710 Cl  0  0  0  0  0  0  0  0  0  0  0  0
   -7.5823    4.6062  -18.4013 C   0  0  0  0  0  0  0  0  0  0  0  0
   -6.4185    5.0516  -17.7579 C   0  0  0  0  0  0  0  0  0  0  0  0
   -6.3989    5.3232  -16.3896 C   0  0  0  0  0  0  0  0  0  0  0  0
   -5.0891    5.7727  -16.1318 C   0  0  0  0  0  0  0  0  0  0  0  0
   -4.3230    5.7765  -17.2209 N   0  0  0  0  0  0  0  0  0  0  0  0
   -5.1493    5.3593  -18.2062 N   0  0  0  0  0  0  0  0  0  0  0  0
   -4.7278    5.3139  -19.6239 C   0  0  2  0  0  0  0  0  0  0  0  0
   -3.1920    5.3240  -19.8179 C   0  0  0  0  0  0  0  0  0  0  0  0
   -3.3619    6.3899  -20.8241 N   0  0  0  0  0  0  0  0  0  0  0  0
   -4.6628    6.7223  -20.2518 C   0  0  1  0  0  0  0  0  0  0  0  0
   -5.5759    6.8319  -21.3627 N   0  0  0  0  0  0  0  0  0  0  0  0
   -8.4835    3.4654  -11.1615 C   0  0  0  0  0  0  0  0  0  0  0  0
   -8.5504    3.5338   -9.7794 C   0  0  0  0  0  0  0  0  0  0  0  0
   -8.7681    2.4344   -8.7915 C   0  0  0  0  0  0  0  0  0  0  0  0
  1  2  1  0
  2  3  1  0
  3  4  1  0
  4  5  2  0
  5  6  1  0
  6  7  2  0
  7  8  1  0
  8  9  1  0
  9 10  2  0
  9 11  1  0
 11 12  2  0
 12 13  1  0
 13 14  1  0
 13 15  2  0
 15 16  1  0
 16 17  2  0
 17 18  1  0
 18 19  2  0
 19 20  1  0
 21 20  1  1
 21 22  1  0
 22 23  1  0
 23 24  1  0
 24 25  1  6
  7 26  1  0
 26 27  2  0
 27 28  1  0
 28  2  1  0
 27  4  1  0
 17 11  1  0
 24 21  1  0
 20 16  1  0
M  END
>  <smiles>  (2466) 
C37081-P276

>  <fragmenstein_outcome>  (2466) 
acceptable

>  <inchikey>  (2466) 
VAIWKNDLEARGJF-UHFFFAOYSA-N

>  <fragmenstein_mode>  (2466) 
expansion

>  <HIPPO Pose ID>  (2466) 
28290

>  <Energy>  (2466) 
28.890291

>  <fragmenstein_error>  (2466) 


>  <tags>  (2466) 
{'openbind_xx01zvns2b_c1_fragmenstein', 'fragmenstein_placed'}

>  <ref_pdb>  (2466) 
175

>  <scratch_subdir>  (2466) 
/opt/xchem-fragalysis-2/maxwin/BulkDock/SCRATCH/511028/C37081-P276

>  <alias>  (2466) 
CN1Cc2ccc(NC(=O)c3cc(Cl)cc4c3cnn4[C@@H]3CN[C@H]3N)cc2C1

>  <HIPPO Compound ID>  (2466) 
37081

>  <fragmenstein_runtime>  (2466) 
7.917714

$$$$
CN1Cc2ccc(N[C@@](O)(C(=O)NCCCF)c3cc(Cl)cc4c3cnn4C3CNC3)cc2C1
     RDKit          3D

 34 38  0  0  0  0  0  0  0  0999 V2000
   -9.2276    2.2379   -6.3025 C   0  0  0  0  0  0  0  0  0  0  0  0
   -9.4055    3.0395   -7.4919 N   0  0  0  0  0  0  0  0  0  0  0  0
   -8.5919    4.2675   -7.5270 C   0  0  0  0  0  0  0  0  0  0  0  0
   -8.4820    4.5670   -8.9923 C   0  0  0  0  0  0  0  0  0  0  0  0
   -8.2052    5.7500   -9.6443 C   0  0  0  0  0  0  0  0  0  0  0  0
   -8.2236    5.7535  -11.0461 C   0  0  0  0  0  0  0  0  0  0  0  0
   -8.4758    4.5847  -11.7953 C   0  0  0  0  0  0  0  0  0  0  0  0
   -8.4900    4.5784  -13.2047 N   0  0  0  0  0  0  0  0  0  0  0  0
   -7.3511    5.1730  -13.9299 C   0  0  1  0  0  0  0  0  0  0  0  0
   -7.4491    6.5940  -13.8675 O   0  0  0  0  0  0  0  0  0  0  0  0
   -5.9580    4.7095  -13.2708 C   0  0  0  0  0  0  0  0  0  0  0  0
   -5.1896    5.5090  -12.8894 O   0  0  0  0  0  0  0  0  0  0  0  0
   -5.8861    3.1553  -13.2568 N   0  0  0  0  0  0  0  0  0  0  0  0
   -4.9026    2.2694  -12.6877 C   0  0  0  0  0  0  0  0  0  0  0  0
   -5.3638    1.6970  -11.3557 C   0  0  0  0  0  0  0  0  0  0  0  0
   -4.2320    1.0032  -10.6200 C   0  0  0  0  0  0  0  0  0  0  0  0
   -4.7477    0.3244   -9.5596 F   0  0  0  0  0  0  0  0  0  0  0  0
   -7.4057    4.8997  -15.4411 C   0  0  0  0  0  0  0  0  0  0  0  0
   -8.6360    4.5873  -16.0797 C   0  0  0  0  0  0  0  0  0  0  0  0
   -8.7486    4.4504  -17.4637 C   0  0  0  0  0  0  0  0  0  0  0  0
  -10.2839    4.1339  -18.1694 Cl  0  0  0  0  0  0  0  0  0  0  0  0
   -7.6529    4.6288  -18.2994 C   0  0  0  0  0  0  0  0  0  0  0  0
   -6.4377    4.9673  -17.6965 C   0  0  0  0  0  0  0  0  0  0  0  0
   -6.2954    5.1038  -16.3129 C   0  0  0  0  0  0  0  0  0  0  0  0
   -4.9390    5.4859  -16.1576 C   0  0  0  0  0  0  0  0  0  0  0  0
   -4.2691    5.5438  -17.3064 N   0  0  0  0  0  0  0  0  0  0  0  0
   -5.1978    5.2481  -18.2332 N   0  0  0  0  0  0  0  0  0  0  0  0
   -4.9038    5.2279  -19.6758 C   0  0  0  0  0  0  0  0  0  0  0  0
   -3.4143    5.4085  -20.0452 C   0  0  0  0  0  0  0  0  0  0  0  0
   -3.8599    6.2809  -21.1711 N   0  0  0  0  0  0  0  0  0  0  0  0
   -5.0581    6.6058  -20.3445 C   0  0  0  0  0  0  0  0  0  0  0  0
   -8.7587    3.3981  -11.0987 C   0  0  0  0  0  0  0  0  0  0  0  0
   -8.7646    3.4076   -9.7108 C   0  0  0  0  0  0  0  0  0  0  0  0
   -9.0804    2.3088   -8.7390 C   0  0  0  0  0  0  0  0  0  0  0  0
  1  2  1  0
  2  3  1  0
  3  4  1  0
  4  5  2  0
  5  6  1  0
  6  7  2  0
  7  8  1  0
  8  9  1  0
  9 10  1  6
  9 11  1  0
 11 12  2  0
 11 13  1  0
 13 14  1  0
 14 15  1  0
 15 16  1  0
 16 17  1  0
  9 18  1  0
 18 19  2  0
 19 20  1  0
 20 21  1  0
 20 22  2  0
 22 23  1  0
 23 24  2  0
 24 25  1  0
 25 26  2  0
 26 27  1  0
 27 28  1  0
 28 29  1  0
 29 30  1  0
 30 31  1  0
  7 32  1  0
 32 33  2  0
 33 34  1  0
 34  2  1  0
 33  4  1  0
 24 18  1  0
 31 28  1  0
 27 23  1  0
M  END
>  <smiles>  (2467) 
C37216-P276

>  <fragmenstein_outcome>  (2467) 
acceptable

>  <inchikey>  (2467) 
CSEITILPHJHCBD-UHFFFAOYSA-N

>  <fragmenstein_mode>  (2467) 
expansion

>  <HIPPO Pose ID>  (2467) 
28292

>  <Energy>  (2467) 
115.84009

>  <fragmenstein_error>  (2467) 


>  <tags>  (2467) 
{'openbind_xx01zvns2b_c1_fragmenstein', 'fragmenstein_placed'}

>  <ref_pdb>  (2467) 
175

>  <scratch_subdir>  (2467) 
/opt/xchem-fragalysis-2/maxwin/BulkDock/SCRATCH/511028/C37216-P276

>  <alias>  (2467) 
CN1Cc2ccc(N[C@@](O)(C(=O)NCCCF)c3cc(Cl)cc4c3cnn4C3CNC3)cc2C1

>  <HIPPO Compound ID>  (2467) 
37216

>  <fragmenstein_runtime>  (2467) 
7.856468

$$$$
CN1Cc2ccc(N[C@@](O)(CC(=O)O)c3cc(Cl)cc4c3cnn4C3CNC3)cc2C1
     RDKit          3D

 31 35  0  0  0  0  0  0  0  0999 V2000
   -9.2606    2.1108   -6.3442 C   0  0  0  0  0  0  0  0  0  0  0  0
   -9.4554    2.8902   -7.5447 N   0  0  0  0  0  0  0  0  0  0  0  0
   -8.7621    4.1873   -7.5438 C   0  0  0  0  0  0  0  0  0  0  0  0
   -8.5928    4.4844   -9.0000 C   0  0  0  0  0  0  0  0  0  0  0  0
   -8.3790    5.6762   -9.6500 C   0  0  0  0  0  0  0  0  0  0  0  0
   -8.2545    5.6441  -11.0444 C   0  0  0  0  0  0  0  0  0  0  0  0
   -8.2919    4.4414  -11.7891 C   0  0  0  0  0  0  0  0  0  0  0  0
   -7.9763    4.3386  -13.1462 N   0  0  0  0  0  0  0  0  0  0  0  0
   -7.3948    5.4080  -13.9414 C   0  0  1  0  0  0  0  0  0  0  0  0
   -8.3093    6.5022  -13.9082 O   0  0  0  0  0  0  0  0  0  0  0  0
   -6.0364    5.8123  -13.3104 C   0  0  0  0  0  0  0  0  0  0  0  0
   -5.4499    7.0434  -13.9294 C   0  0  0  0  0  0  0  0  0  0  0  0
   -6.0609    7.9212  -14.5185 O   0  0  0  0  0  0  0  0  0  0  0  0
   -4.1201    7.1359  -13.7386 O   0  0  0  0  0  0  0  0  0  0  0  0
   -7.3331    4.9818  -15.4278 C   0  0  0  0  0  0  0  0  0  0  0  0
   -8.5579    4.7188  -16.1034 C   0  0  0  0  0  0  0  0  0  0  0  0
   -8.6336    4.5660  -17.4863 C   0  0  0  0  0  0  0  0  0  0  0  0
  -10.1507    4.2279  -18.2268 Cl  0  0  0  0  0  0  0  0  0  0  0  0
   -7.5151    4.7695  -18.2895 C   0  0  0  0  0  0  0  0  0  0  0  0
   -6.2879    4.9633  -17.6453 C   0  0  0  0  0  0  0  0  0  0  0  0
   -6.1707    4.9428  -16.2488 C   0  0  0  0  0  0  0  0  0  0  0  0
   -4.7702    4.8859  -16.0490 C   0  0  0  0  0  0  0  0  0  0  0  0
   -4.0664    5.0352  -17.1655 N   0  0  0  0  0  0  0  0  0  0  0  0
   -5.0107    5.2338  -18.1074 N   0  0  0  0  0  0  0  0  0  0  0  0
   -4.6603    6.1196  -19.2307 C   0  0  0  0  0  0  0  0  0  0  0  0
   -3.3839    5.6554  -19.9628 C   0  0  0  0  0  0  0  0  0  0  0  0
   -4.0195    6.1041  -21.2223 N   0  0  0  0  0  0  0  0  0  0  0  0
   -5.3382    5.8990  -20.5737 C   0  0  0  0  0  0  0  0  0  0  0  0
   -8.5368    3.2548  -11.0906 C   0  0  0  0  0  0  0  0  0  0  0  0
   -8.7037    3.2956   -9.7161 C   0  0  0  0  0  0  0  0  0  0  0  0
   -9.0029    2.1853   -8.7607 C   0  0  0  0  0  0  0  0  0  0  0  0
  1  2  1  0
  2  3  1  0
  3  4  1  0
  4  5  2  0
  5  6  1  0
  6  7  2  0
  7  8  1  0
  8  9  1  0
  9 10  1  6
  9 11  1  0
 11 12  1  0
 12 13  2  0
 12 14  1  0
  9 15  1  0
 15 16  2  0
 16 17  1  0
 17 18  1  0
 17 19  2  0
 19 20  1  0
 20 21  2  0
 21 22  1  0
 22 23  2  0
 23 24  1  0
 24 25  1  0
 25 26  1  0
 26 27  1  0
 27 28  1  0
  7 29  1  0
 29 30  2  0
 30 31  1  0
 31  2  1  0
 30  4  1  0
 21 15  1  0
 28 25  1  0
 24 20  1  0
M  END
>  <smiles>  (2468) 
C37218-P276

>  <fragmenstein_outcome>  (2468) 
acceptable

>  <inchikey>  (2468) 
VDEVOAWYQPRHHP-UHFFFAOYSA-N

>  <fragmenstein_mode>  (2468) 
expansion

>  <HIPPO Pose ID>  (2468) 
28293

>  <Energy>  (2468) 
14.425435

>  <fragmenstein_error>  (2468) 


>  <tags>  (2468) 
{'openbind_xx01zvns2b_c1_fragmenstein', 'fragmenstein_placed'}

>  <ref_pdb>  (2468) 
175

>  <scratch_subdir>  (2468) 
/opt/xchem-fragalysis-2/maxwin/BulkDock/SCRATCH/511028/C37218-P276

>  <alias>  (2468) 
CN1Cc2ccc(N[C@@](O)(CC(=O)O)c3cc(Cl)cc4c3cnn4C3CNC3)cc2C1

>  <HIPPO Compound ID>  (2468) 
33370

>  <fragmenstein_runtime>  (2468) 
5.787453

$$$$
CN1Cc2cc(NC(=O)c3cc(Cl)cc4c3cnn4C3CNC3)cc(Br)c2C1
     RDKit          3D

 28 32  0  0  0  0  0  0  0  0999 V2000
   -6.2138    6.2818   -7.1018 C   0  0  0  0  0  0  0  0  0  0  0  0
   -7.6243    6.4735   -7.4556 N   0  0  0  0  0  0  0  0  0  0  0  0
   -7.7258    7.0524   -8.8265 C   0  0  0  0  0  0  0  0  0  0  0  0
   -7.9968    5.9038   -9.7403 C   0  0  0  0  0  0  0  0  0  0  0  0
   -7.9513    5.8511  -11.1218 C   0  0  0  0  0  0  0  0  0  0  0  0
   -8.2637    4.6465  -11.7635 C   0  0  0  0  0  0  0  0  0  0  0  0
   -8.1681    4.5679  -13.1544 N   0  0  0  0  0  0  0  0  0  0  0  0
   -7.5338    5.5437  -14.1753 C   0  0  0  0  0  0  0  0  0  0  0  0
   -7.0609    6.6014  -14.0194 O   0  0  0  0  0  0  0  0  0  0  0  0
   -7.5666    5.0383  -15.5666 C   0  0  0  0  0  0  0  0  0  0  0  0
   -8.7641    4.6180  -16.1512 C   0  0  0  0  0  0  0  0  0  0  0  0
   -8.8244    4.4165  -17.5284 C   0  0  0  0  0  0  0  0  0  0  0  0
  -10.3429    4.0732  -18.2510 Cl  0  0  0  0  0  0  0  0  0  0  0  0
   -7.7090    4.5870  -18.3555 C   0  0  0  0  0  0  0  0  0  0  0  0
   -6.5091    4.9781  -17.7477 C   0  0  0  0  0  0  0  0  0  0  0  0
   -6.4200    5.1992  -16.3739 C   0  0  0  0  0  0  0  0  0  0  0  0
   -5.0830    5.5998  -16.1672 C   0  0  0  0  0  0  0  0  0  0  0  0
   -4.3694    5.6244  -17.2922 N   0  0  0  0  0  0  0  0  0  0  0  0
   -5.2589    5.2784  -18.2487 N   0  0  0  0  0  0  0  0  0  0  0  0
   -4.9430    5.3496  -19.6895 C   0  0  0  0  0  0  0  0  0  0  0  0
   -3.4408    5.4788  -20.0204 C   0  0  0  0  0  0  0  0  0  0  0  0
   -3.7869    6.5524  -20.9814 N   0  0  0  0  0  0  0  0  0  0  0  0
   -5.0347    6.7918  -20.2251 C   0  0  0  0  0  0  0  0  0  0  0  0
   -8.6573    3.5281  -11.0107 C   0  0  0  0  0  0  0  0  0  0  0  0
   -8.7061    3.6097   -9.6119 C   0  0  0  0  0  0  0  0  0  0  0  0
   -9.2753    2.1581   -8.5576 Br  0  0  0  0  0  0  0  0  0  0  0  0
   -8.3519    4.7919   -8.9914 C   0  0  0  0  0  0  0  0  0  0  0  0
   -8.3006    5.1390   -7.5392 C   0  0  0  0  0  0  0  0  0  0  0  0
  1  2  1  0
  2  3  1  0
  3  4  1  0
  4  5  2  0
  5  6  1  0
  6  7  1  0
  7  8  1  0
  8  9  2  0
  8 10  1  0
 10 11  2  0
 11 12  1  0
 12 13  1  0
 12 14  2  0
 14 15  1  0
 15 16  2  0
 16 17  1  0
 17 18  2  0
 18 19  1  0
 19 20  1  0
 20 21  1  0
 21 22  1  0
 22 23  1  0
  6 24  2  0
 24 25  1  0
 25 26  1  0
 25 27  2  0
 27 28  1  0
 28  2  1  0
 27  4  1  0
 16 10  1  0
 23 20  1  0
 19 15  1  0
M  END
>  <smiles>  (2469) 
C37219-P276

>  <fragmenstein_outcome>  (2469) 
acceptable

>  <inchikey>  (2469) 
QPQYHPLFUSRADW-UHFFFAOYSA-N

>  <fragmenstein_mode>  (2469) 
expansion

>  <HIPPO Pose ID>  (2469) 
28294

>  <Energy>  (2469) 
64.941298

>  <fragmenstein_error>  (2469) 


>  <tags>  (2469) 
{'openbind_xx01zvns2b_c1_fragmenstein', 'fragmenstein_placed'}

>  <ref_pdb>  (2469) 
175

>  <scratch_subdir>  (2469) 
/opt/xchem-fragalysis-2/maxwin/BulkDock/SCRATCH/511028/C37219-P276

>  <alias>  (2469) 
CN1Cc2cc(NC(=O)c3cc(Cl)cc4c3cnn4C3CNC3)cc(Br)c2C1

>  <HIPPO Compound ID>  (2469) 
24220

>  <fragmenstein_runtime>  (2469) 
7.097256

$$$$
CCN1CCC2(CC1)Cc1c(C(=O)Nc3ccc4c(c3)CN(C)C4)cc(Cl)cc1N2C1CNC1
     RDKit          3D

 34 39  0  0  0  0  0  0  0  0999 V2000
    0.0783    7.5352  -14.8205 C   0  0  0  0  0  0  0  0  0  0  0  0
   -0.4372    7.9406  -16.1976 C   0  0  0  0  0  0  0  0  0  0  0  0
   -1.7595    7.3764  -16.5061 N   0  0  0  0  0  0  0  0  0  0  0  0
   -1.7501    5.9104  -16.5399 C   0  0  0  0  0  0  0  0  0  0  0  0
   -2.8980    5.2555  -17.3181 C   0  0  0  0  0  0  0  0  0  0  0  0
   -4.1395    6.1573  -17.4636 C   0  0  0  0  0  0  0  0  0  0  0  0
   -3.7927    7.6294  -17.8055 C   0  0  0  0  0  0  0  0  0  0  0  0
   -2.3019    7.9399  -17.7362 C   0  0  0  0  0  0  0  0  0  0  0  0
   -4.9286    6.1106  -16.0949 C   0  0  0  0  0  0  0  0  0  0  0  0
   -6.2492    5.5242  -16.4703 C   0  0  0  0  0  0  0  0  0  0  0  0
   -7.3519    5.2644  -15.6492 C   0  0  0  0  0  0  0  0  0  0  0  0
   -7.3668    5.7149  -14.2283 C   0  0  0  0  0  0  0  0  0  0  0  0
   -6.9652    6.7885  -13.9991 O   0  0  0  0  0  0  0  0  0  0  0  0
   -7.9682    4.6444  -13.2825 N   0  0  0  0  0  0  0  0  0  0  0  0
   -8.1074    4.6373  -11.8926 C   0  0  0  0  0  0  0  0  0  0  0  0
   -7.8541    5.7987  -11.1406 C   0  0  0  0  0  0  0  0  0  0  0  0
   -7.9699    5.7989   -9.7454 C   0  0  0  0  0  0  0  0  0  0  0  0
   -8.3494    4.6263   -9.1238 C   0  0  0  0  0  0  0  0  0  0  0  0
   -8.6177    3.4750   -9.8660 C   0  0  0  0  0  0  0  0  0  0  0  0
   -8.5001    3.4601  -11.2488 C   0  0  0  0  0  0  0  0  0  0  0  0
   -9.0098    2.3798   -8.9194 C   0  0  0  0  0  0  0  0  0  0  0  0
   -9.3614    3.1024   -7.6766 N   0  0  0  0  0  0  0  0  0  0  0  0
   -9.2427    2.2842   -6.4883 C   0  0  0  0  0  0  0  0  0  0  0  0
   -8.5380    4.3218   -7.6680 C   0  0  0  0  0  0  0  0  0  0  0  0
   -8.5052    4.7286  -16.2253 C   0  0  0  0  0  0  0  0  0  0  0  0
   -8.5318    4.4811  -17.6018 C   0  0  0  0  0  0  0  0  0  0  0  0
  -10.0063    3.9668  -18.3190 Cl  0  0  0  0  0  0  0  0  0  0  0  0
   -7.4162    4.7262  -18.4095 C   0  0  0  0  0  0  0  0  0  0  0  0
   -6.2706    5.2571  -17.8373 C   0  0  0  0  0  0  0  0  0  0  0  0
   -5.0682    5.6115  -18.4999 N   0  0  0  0  0  0  0  0  0  0  0  0
   -4.7725    5.3404  -19.8995 C   0  0  0  0  0  0  0  0  0  0  0  0
   -3.4135    5.7369  -20.5125 C   0  0  0  0  0  0  0  0  0  0  0  0
   -4.0253    6.8527  -21.2424 N   0  0  0  0  0  0  0  0  0  0  0  0
   -5.3668    6.3741  -20.8765 C   0  0  0  0  0  0  0  0  0  0  0  0
  1  2  1  0
  2  3  1  0
  3  4  1  0
  4  5  1  0
  5  6  1  0
  6  7  1  0
  7  8  1  0
  6  9  1  0
  9 10  1  0
 10 11  2  0
 11 12  1  0
 12 13  2  0
 12 14  1  0
 14 15  1  0
 15 16  2  0
 16 17  1  0
 17 18  2  0
 18 19  1  0
 19 20  2  0
 19 21  1  0
 21 22  1  0
 22 23  1  0
 22 24  1  0
 11 25  1  0
 25 26  2  0
 26 27  1  0
 26 28  1  0
 28 29  2  0
 29 30  1  0
 30 31  1  0
 31 32  1  0
 32 33  1  0
 33 34  1  0
  8  3  1  0
 29 10  1  0
 34 31  1  0
 30  6  1  0
 20 15  1  0
 24 18  1  0
M  END
>  <smiles>  (2470) 
C37222-P276

>  <fragmenstein_outcome>  (2470) 
acceptable

>  <inchikey>  (2470) 
RCLLLFQQIUMLEZ-UHFFFAOYSA-N

>  <fragmenstein_mode>  (2470) 
expansion

>  <HIPPO Pose ID>  (2470) 
28295

>  <Energy>  (2470) 
112.848729

>  <fragmenstein_error>  (2470) 


>  <tags>  (2470) 
{'openbind_xx01zvns2b_c1_fragmenstein', 'fragmenstein_placed'}

>  <ref_pdb>  (2470) 
175

>  <scratch_subdir>  (2470) 
/opt/xchem-fragalysis-2/maxwin/BulkDock/SCRATCH/511028/C37222-P276

>  <alias>  (2470) 
CCN1CCC2(CC1)Cc1c(C(=O)Nc3ccc4c(c3)CN(C)C4)cc(Cl)cc1N2C1CNC1

>  <HIPPO Compound ID>  (2470) 
32438

>  <fragmenstein_runtime>  (2470) 
14.808337

$$$$
CN1Cc2ccc(NC(=O)c3cc(Cl)cc4c3C[C@@]35CCNC[C@@H]3O[C@H]3NCC[C@H]3N45)cc2C1
     RDKit          3D

 34 40  0  0  0  0  0  0  0  0999 V2000
   -9.8137    2.4136   -6.3429 C   0  0  0  0  0  0  0  0  0  0  0  0
   -8.7773    2.8658   -7.2492 N   0  0  0  0  0  0  0  0  0  0  0  0
   -8.6911    4.3214   -7.4049 C   0  0  0  0  0  0  0  0  0  0  0  0
   -8.4927    4.5592   -8.8682 C   0  0  0  0  0  0  0  0  0  0  0  0
   -8.2485    5.7459   -9.5324 C   0  0  0  0  0  0  0  0  0  0  0  0
   -8.0788    5.7040  -10.9191 C   0  0  0  0  0  0  0  0  0  0  0  0
   -8.1668    4.4914  -11.6266 C   0  0  0  0  0  0  0  0  0  0  0  0
   -7.9288    4.4643  -13.0024 N   0  0  0  0  0  0  0  0  0  0  0  0
   -7.5920    5.6078  -13.9853 C   0  0  0  0  0  0  0  0  0  0  0  0
   -7.3850    6.7404  -13.7870 O   0  0  0  0  0  0  0  0  0  0  0  0
   -7.4995    5.1538  -15.3944 C   0  0  0  0  0  0  0  0  0  0  0  0
   -8.6099    4.6067  -16.0391 C   0  0  0  0  0  0  0  0  0  0  0  0
   -8.6020    4.4911  -17.4369 C   0  0  0  0  0  0  0  0  0  0  0  0
  -10.0204    3.9458  -18.2427 Cl  0  0  0  0  0  0  0  0  0  0  0  0
   -7.5186    4.9364  -18.2029 C   0  0  0  0  0  0  0  0  0  0  0  0
   -6.4432    5.5140  -17.5597 C   0  0  0  0  0  0  0  0  0  0  0  0
   -6.4077    5.5503  -16.1634 C   0  0  0  0  0  0  0  0  0  0  0  0
   -5.0597    6.0618  -15.7260 C   0  0  0  0  0  0  0  0  0  0  0  0
   -4.5763    6.7932  -17.0141 C   0  0  1  0  0  0  0  0  0  0  0  0
   -4.8811    8.3150  -16.8969 C   0  0  0  0  0  0  0  0  0  0  0  0
   -3.6551    9.1453  -16.4961 C   0  0  0  0  0  0  0  0  0  0  0  0
   -2.7930    8.4042  -15.5835 N   0  0  0  0  0  0  0  0  0  0  0  0
   -2.2088    7.2159  -16.2269 C   0  0  0  0  0  0  0  0  0  0  0  0
   -3.0851    6.6027  -17.3384 C   0  0  2  0  0  0  0  0  0  0  0  0
   -2.7261    7.2503  -18.5858 O   0  0  0  0  0  0  0  0  0  0  0  0
   -3.6641    7.1128  -19.6629 C   0  0  1  0  0  0  0  0  0  0  0  0
   -2.9452    6.5331  -20.7892 N   0  0  0  0  0  0  0  0  0  0  0  0
   -2.9091    5.1080  -20.4717 C   0  0  0  0  0  0  0  0  0  0  0  0
   -4.2510    4.8018  -19.8119 C   0  0  0  0  0  0  0  0  0  0  0  0
   -4.8589    6.1485  -19.4586 C   0  0  1  0  0  0  0  0  0  0  0  0
   -5.3762    6.1894  -18.1036 N   0  0  0  0  0  0  0  0  0  0  0  0
   -8.4458    3.3051  -10.9446 C   0  0  0  0  0  0  0  0  0  0  0  0
   -8.5926    3.3568   -9.5624 C   0  0  0  0  0  0  0  0  0  0  0  0
   -8.8587    2.2472   -8.5897 C   0  0  0  0  0  0  0  0  0  0  0  0
  1  2  1  0
  2  3  1  0
  3  4  1  0
  4  5  2  0
  5  6  1  0
  6  7  2  0
  7  8  1  0
  8  9  1  0
  9 10  2  0
  9 11  1  0
 11 12  2  0
 12 13  1  0
 13 14  1  0
 13 15  2  0
 15 16  1  0
 16 17  2  0
 17 18  1  0
 19 18  1  1
 19 20  1  0
 20 21  1  0
 21 22  1  0
 22 23  1  0
 24 23  1  1
 24 25  1  0
 25 26  1  0
 26 27  1  6
 27 28  1  0
 28 29  1  0
 30 29  1  1
 30 31  1  0
  7 32  1  0
 32 33  2  0
 33 34  1  0
 34  2  1  0
 33  4  1  0
 17 11  1  0
 24 19  1  0
 30 26  1  0
 31 16  1  0
 31 19  1  0
M  END
>  <smiles>  (2471) 
C37225-P276

>  <fragmenstein_outcome>  (2471) 
acceptable

>  <inchikey>  (2471) 
FPXZPEVAGQDEDG-UHFFFAOYSA-N

>  <fragmenstein_mode>  (2471) 
expansion

>  <HIPPO Pose ID>  (2471) 
28296

>  <Energy>  (2471) 
153.423508

>  <fragmenstein_error>  (2471) 


>  <tags>  (2471) 
{'openbind_xx01zvns2b_c1_fragmenstein', 'fragmenstein_placed'}

>  <ref_pdb>  (2471) 
175

>  <scratch_subdir>  (2471) 
/opt/xchem-fragalysis-2/maxwin/BulkDock/SCRATCH/511028/C37225-P276

>  <alias>  (2471) 
CN1Cc2ccc(NC(=O)c3cc(Cl)cc4c3C[C@@]35CCNC[C@@H]3O[C@H]3NCC[C@H]3N45)cc2C1

>  <HIPPO Compound ID>  (2471) 
41992

>  <fragmenstein_runtime>  (2471) 
13.039009

$$$$
CN1Cc2cc(NC(=O)c3cc(Cl)cc4c3cnn4C3CNC3)c3c(c2C1)CC(C)(C)O3
     RDKit          3D

 32 37  0  0  0  0  0  0  0  0999 V2000
   -9.2207    2.5412   -6.3018 C   0  0  0  0  0  0  0  0  0  0  0  0
   -9.3874    3.2362   -7.5614 N   0  0  0  0  0  0  0  0  0  0  0  0
   -8.9359    2.4470   -8.7310 C   0  0  0  0  0  0  0  0  0  0  0  0
   -8.6412    3.4988   -9.7630 C   0  0  0  0  0  0  0  0  0  0  0  0
   -8.5204    3.3717  -11.1475 C   0  0  0  0  0  0  0  0  0  0  0  0
   -8.2733    4.5200  -11.9037 C   0  0  0  0  0  0  0  0  0  0  0  0
   -8.1210    4.4233  -13.2872 N   0  0  0  0  0  0  0  0  0  0  0  0
   -7.4718    5.4017  -14.2992 C   0  0  0  0  0  0  0  0  0  0  0  0
   -7.0330    6.4745  -14.1421 O   0  0  0  0  0  0  0  0  0  0  0  0
   -7.5136    4.9192  -15.6875 C   0  0  0  0  0  0  0  0  0  0  0  0
   -8.7293    4.5535  -16.2678 C   0  0  0  0  0  0  0  0  0  0  0  0
   -8.8043    4.3890  -17.6455 C   0  0  0  0  0  0  0  0  0  0  0  0
  -10.3390    4.0942  -18.3502 Cl  0  0  0  0  0  0  0  0  0  0  0  0
   -7.6894    4.5531  -18.4757 C   0  0  0  0  0  0  0  0  0  0  0  0
   -6.4761    4.9091  -17.8702 C   0  0  0  0  0  0  0  0  0  0  0  0
   -6.3706    5.0850  -16.4928 C   0  0  0  0  0  0  0  0  0  0  0  0
   -5.0283    5.4615  -16.2807 C   0  0  0  0  0  0  0  0  0  0  0  0
   -4.3218    5.5080  -17.4093 N   0  0  0  0  0  0  0  0  0  0  0  0
   -5.2262    5.2107  -18.3691 N   0  0  0  0  0  0  0  0  0  0  0  0
   -4.9228    5.3368  -19.8072 C   0  0  0  0  0  0  0  0  0  0  0  0
   -3.4234    5.4830  -20.1435 C   0  0  0  0  0  0  0  0  0  0  0  0
   -3.7789    6.5918  -21.0609 N   0  0  0  0  0  0  0  0  0  0  0  0
   -5.0227    6.7976  -20.2871 C   0  0  0  0  0  0  0  0  0  0  0  0
   -8.2193    5.7476  -11.2396 C   0  0  0  0  0  0  0  0  0  0  0  0
   -8.3441    5.8716   -9.8625 C   0  0  0  0  0  0  0  0  0  0  0  0
   -8.5266    4.7365   -9.1151 C   0  0  0  0  0  0  0  0  0  0  0  0
   -8.6920    4.5299   -7.6438 C   0  0  0  0  0  0  0  0  0  0  0  0
   -8.3798    7.3031   -9.4862 C   0  0  0  0  0  0  0  0  0  0  0  0
   -7.9807    7.9479  -10.8358 C   0  0  0  0  0  0  0  0  0  0  0  0
   -8.8746    9.1275  -11.2310 C   0  0  0  0  0  0  0  0  0  0  0  0
   -6.5106    8.3856  -10.8394 C   0  0  0  0  0  0  0  0  0  0  0  0
   -8.1555    6.9610  -11.8730 O   0  0  0  0  0  0  0  0  0  0  0  0
  1  2  1  0
  2  3  1  0
  3  4  1  0
  4  5  2  0
  5  6  1  0
  6  7  1  0
  7  8  1  0
  8  9  2  0
  8 10  1  0
 10 11  2  0
 11 12  1  0
 12 13  1  0
 12 14  2  0
 14 15  1  0
 15 16  2  0
 16 17  1  0
 17 18  2  0
 18 19  1  0
 19 20  1  0
 20 21  1  0
 21 22  1  0
 22 23  1  0
  6 24  2  0
 24 25  1  0
 25 26  2  0
 26 27  1  0
 25 28  1  0
 28 29  1  0
 29 30  1  0
 29 31  1  0
 29 32  1  0
 27  2  1  0
 26  4  1  0
 16 10  1  0
 23 20  1  0
 32 24  1  0
 19 15  1  0
M  END
>  <smiles>  (2472) 
C37236-P276

>  <fragmenstein_outcome>  (2472) 
acceptable

>  <inchikey>  (2472) 
PGOOIOMFBVSSDL-UHFFFAOYSA-N

>  <fragmenstein_mode>  (2472) 
expansion

>  <HIPPO Pose ID>  (2472) 
28300

>  <Energy>  (2472) 
107.489921

>  <fragmenstein_error>  (2472) 


>  <tags>  (2472) 
{'openbind_xx01zvns2b_c1_fragmenstein', 'fragmenstein_placed'}

>  <ref_pdb>  (2472) 
175

>  <scratch_subdir>  (2472) 
/opt/xchem-fragalysis-2/maxwin/BulkDock/SCRATCH/511028/C37236-P276

>  <alias>  (2472) 
CN1Cc2cc(NC(=O)c3cc(Cl)cc4c3cnn4C3CNC3)c3c(c2C1)CC(C)(C)O3

>  <HIPPO Compound ID>  (2472) 
37236

>  <fragmenstein_runtime>  (2472) 
17.123053

$$$$
CN1Cc2ccc(NC(=O)c3cc(Cl)cc4c3cc(CC3CCNCC3)n4C3CNC3)cc2C1
     RDKit          3D

 34 39  0  0  0  0  0  0  0  0999 V2000
   -9.2623    2.1995   -6.3083 C   0  0  0  0  0  0  0  0  0  0  0  0
   -9.4134    2.9927   -7.5079 N   0  0  0  0  0  0  0  0  0  0  0  0
   -8.6352    4.2408   -7.5126 C   0  0  0  0  0  0  0  0  0  0  0  0
   -8.4663    4.5357   -8.9709 C   0  0  0  0  0  0  0  0  0  0  0  0
   -8.1569    5.7206   -9.6047 C   0  0  0  0  0  0  0  0  0  0  0  0
   -8.0698    5.7106  -10.9990 C   0  0  0  0  0  0  0  0  0  0  0  0
   -8.2700    4.5264  -11.7352 C   0  0  0  0  0  0  0  0  0  0  0  0
   -8.1351    4.5352  -13.1223 N   0  0  0  0  0  0  0  0  0  0  0  0
   -7.6739    5.6561  -14.0775 C   0  0  0  0  0  0  0  0  0  0  0  0
   -7.4079    6.7726  -13.8619 O   0  0  0  0  0  0  0  0  0  0  0  0
   -7.5168    5.1845  -15.4776 C   0  0  0  0  0  0  0  0  0  0  0  0
   -8.5918    4.6214  -16.1606 C   0  0  0  0  0  0  0  0  0  0  0  0
   -8.5080    4.4867  -17.5394 C   0  0  0  0  0  0  0  0  0  0  0  0
   -9.9010    3.9463  -18.3932 Cl  0  0  0  0  0  0  0  0  0  0  0  0
   -7.3701    4.8866  -18.2641 C   0  0  0  0  0  0  0  0  0  0  0  0
   -6.2756    5.4400  -17.5687 C   0  0  0  0  0  0  0  0  0  0  0  0
   -6.3363    5.5535  -16.1720 C   0  0  0  0  0  0  0  0  0  0  0  0
   -5.1342    6.1702  -15.7453 C   0  0  0  0  0  0  0  0  0  0  0  0
   -4.4123    6.5564  -16.8525 C   0  0  0  0  0  0  0  0  0  0  0  0
   -3.3065    7.5868  -16.8888 C   0  0  0  0  0  0  0  0  0  0  0  0
   -1.9718    7.2625  -16.1987 C   0  0  0  0  0  0  0  0  0  0  0  0
   -2.0762    6.8313  -14.7300 C   0  0  0  0  0  0  0  0  0  0  0  0
   -0.6882    6.6023  -14.1303 C   0  0  0  0  0  0  0  0  0  0  0  0
    0.0659    5.6037  -14.8926 N   0  0  0  0  0  0  0  0  0  0  0  0
    0.2204    6.0183  -16.2880 C   0  0  0  0  0  0  0  0  0  0  0  0
   -1.1249    6.2551  -16.9793 C   0  0  0  0  0  0  0  0  0  0  0  0
   -5.0799    6.0411  -17.9606 N   0  0  0  0  0  0  0  0  0  0  0  0
   -4.6771    6.4778  -19.3155 C   0  0  0  0  0  0  0  0  0  0  0  0
   -3.3854    5.7773  -19.8126 C   0  0  0  0  0  0  0  0  0  0  0  0
   -3.9270    5.9494  -21.1794 N   0  0  0  0  0  0  0  0  0  0  0  0
   -5.2836    5.8622  -20.5712 C   0  0  0  0  0  0  0  0  0  0  0  0
   -8.5809    3.3357  -11.0799 C   0  0  0  0  0  0  0  0  0  0  0  0
   -8.6859    3.3633   -9.6983 C   0  0  0  0  0  0  0  0  0  0  0  0
   -9.0303    2.2650   -8.7384 C   0  0  0  0  0  0  0  0  0  0  0  0
  1  2  1  0
  2  3  1  0
  3  4  1  0
  4  5  2  0
  5  6  1  0
  6  7  2  0
  7  8  1  0
  8  9  1  0
  9 10  2  0
  9 11  1  0
 11 12  2  0
 12 13  1  0
 13 14  1  0
 13 15  2  0
 15 16  1  0
 16 17  2  0
 17 18  1  0
 18 19  2  0
 19 20  1  0
 20 21  1  0
 21 22  1  0
 22 23  1  0
 23 24  1  0
 24 25  1  0
 25 26  1  0
 19 27  1  0
 27 28  1  0
 28 29  1  0
 29 30  1  0
 30 31  1  0
  7 32  1  0
 32 33  2  0
 33 34  1  0
 34  2  1  0
 33  4  1  0
 17 11  1  0
 26 21  1  0
 31 28  1  0
 27 16  1  0
M  END
>  <smiles>  (2473) 
C37231-P276

>  <fragmenstein_outcome>  (2473) 
acceptable

>  <inchikey>  (2473) 
PNOSEBXKAGZDKA-UHFFFAOYSA-N

>  <fragmenstein_mode>  (2473) 
expansion

>  <HIPPO Pose ID>  (2473) 
28303

>  <Energy>  (2473) 
91.689837

>  <fragmenstein_error>  (2473) 


>  <tags>  (2473) 
{'openbind_xx01zvns2b_c1_fragmenstein', 'fragmenstein_placed'}

>  <ref_pdb>  (2473) 
175

>  <scratch_subdir>  (2473) 
/opt/xchem-fragalysis-2/maxwin/BulkDock/SCRATCH/511028/C37231-P276

>  <alias>  (2473) 
CN1Cc2ccc(NC(=O)c3cc(Cl)cc4c3cc(CC3CCNCC3)n4C3CNC3)cc2C1

>  <HIPPO Compound ID>  (2473) 
37231

>  <fragmenstein_runtime>  (2473) 
17.372643

$$$$
CN1Cc2ccc(NC(=O)c3cc(Cl)cc4c3cc(CN)n4C3CNC3)cc2C1
     RDKit          3D

 29 33  0  0  0  0  0  0  0  0999 V2000
   -9.4821    2.3394   -6.5059 C   0  0  0  0  0  0  0  0  0  0  0  0
   -8.5734    2.9071   -7.4744 N   0  0  0  0  0  0  0  0  0  0  0  0
   -8.6225    4.3672   -7.5974 C   0  0  0  0  0  0  0  0  0  0  0  0
   -8.4676    4.6433   -9.0580 C   0  0  0  0  0  0  0  0  0  0  0  0
   -8.2988    5.8489   -9.7109 C   0  0  0  0  0  0  0  0  0  0  0  0
   -8.1651    5.8311  -11.1023 C   0  0  0  0  0  0  0  0  0  0  0  0
   -8.2182    4.6223  -11.8188 C   0  0  0  0  0  0  0  0  0  0  0  0
   -8.0213    4.6019  -13.1961 N   0  0  0  0  0  0  0  0  0  0  0  0
   -7.6439    5.7365  -14.1716 C   0  0  0  0  0  0  0  0  0  0  0  0
   -7.3635    6.8506  -13.9645 O   0  0  0  0  0  0  0  0  0  0  0  0
   -7.5603    5.2495  -15.5643 C   0  0  0  0  0  0  0  0  0  0  0  0
   -8.6935    4.7601  -16.2105 C   0  0  0  0  0  0  0  0  0  0  0  0
   -8.6299    4.4894  -17.5709 C   0  0  0  0  0  0  0  0  0  0  0  0
  -10.0705    4.0158  -18.3771 Cl  0  0  0  0  0  0  0  0  0  0  0  0
   -7.4516    4.6687  -18.3103 C   0  0  0  0  0  0  0  0  0  0  0  0
   -6.3029    5.1247  -17.6362 C   0  0  0  0  0  0  0  0  0  0  0  0
   -6.3430    5.3976  -16.2646 C   0  0  0  0  0  0  0  0  0  0  0  0
   -5.0291    5.7552  -15.8723 C   0  0  0  0  0  0  0  0  0  0  0  0
   -4.1963    5.6350  -16.9672 C   0  0  0  0  0  0  0  0  0  0  0  0
   -2.7119    5.6984  -16.9748 C   0  0  0  0  0  0  0  0  0  0  0  0
   -2.2738    7.0821  -17.0121 N   0  0  0  0  0  0  0  0  0  0  0  0
   -5.0113    5.4135  -18.0613 N   0  0  0  0  0  0  0  0  0  0  0  0
   -4.5428    5.2754  -19.4600 C   0  0  0  0  0  0  0  0  0  0  0  0
   -3.4702    6.2803  -19.9327 C   0  0  0  0  0  0  0  0  0  0  0  0
   -4.1747    6.3706  -21.2329 N   0  0  0  0  0  0  0  0  0  0  0  0
   -5.4124    5.9874  -20.5110 C   0  0  0  0  0  0  0  0  0  0  0  0
   -8.4201    3.4160  -11.1490 C   0  0  0  0  0  0  0  0  0  0  0  0
   -8.5253    3.4466   -9.7676 C   0  0  0  0  0  0  0  0  0  0  0  0
   -8.7009    2.3101   -8.8137 C   0  0  0  0  0  0  0  0  0  0  0  0
  1  2  1  0
  2  3  1  0
  3  4  1  0
  4  5  2  0
  5  6  1  0
  6  7  2  0
  7  8  1  0
  8  9  1  0
  9 10  2  0
  9 11  1  0
 11 12  2  0
 12 13  1  0
 13 14  1  0
 13 15  2  0
 15 16  1  0
 16 17  2  0
 17 18  1  0
 18 19  2  0
 19 20  1  0
 20 21  1  0
 19 22  1  0
 22 23  1  0
 23 24  1  0
 24 25  1  0
 25 26  1  0
  7 27  1  0
 27 28  2  0
 28 29  1  0
 29  2  1  0
 28  4  1  0
 17 11  1  0
 26 23  1  0
 22 16  1  0
M  END
>  <smiles>  (2474) 
C37082-P276

>  <fragmenstein_outcome>  (2474) 
acceptable

>  <inchikey>  (2474) 
UWTOZYFNSACGKM-UHFFFAOYSA-N

>  <fragmenstein_mode>  (2474) 
expansion

>  <HIPPO Pose ID>  (2474) 
28307

>  <Energy>  (2474) 
59.336992

>  <fragmenstein_error>  (2474) 


>  <tags>  (2474) 
{'openbind_xx01zvns2b_c1_fragmenstein', 'fragmenstein_placed'}

>  <ref_pdb>  (2474) 
175

>  <scratch_subdir>  (2474) 
/opt/xchem-fragalysis-2/maxwin/BulkDock/SCRATCH/511028/C37082-P276

>  <alias>  (2474) 
CN1Cc2ccc(NC(=O)c3cc(Cl)cc4c3cc(CN)n4C3CNC3)cc2C1

>  <HIPPO Compound ID>  (2474) 
30775

>  <fragmenstein_runtime>  (2474) 
10.519527

$$$$
CN1Cc2ccc(N[C@@](C)(N=O)c3cc(Cl)c(CN)c4c3cnn4C3CNC3)cc2C1
     RDKit          3D

 31 35  0  0  0  0  0  0  0  0999 V2000
   -9.2617    2.0277   -6.2329 C   0  0  0  0  0  0  0  0  0  0  0  0
   -9.4495    2.8684   -7.3875 N   0  0  0  0  0  0  0  0  0  0  0  0
   -8.7378    4.1556   -7.3136 C   0  0  0  0  0  0  0  0  0  0  0  0
   -8.5857    4.5354   -8.7510 C   0  0  0  0  0  0  0  0  0  0  0  0
   -8.4120    5.7711   -9.3343 C   0  0  0  0  0  0  0  0  0  0  0  0
   -8.4015    5.8313  -10.7286 C   0  0  0  0  0  0  0  0  0  0  0  0
   -8.4934    4.6672  -11.5173 C   0  0  0  0  0  0  0  0  0  0  0  0
   -8.4521    4.7115  -12.9232 N   0  0  0  0  0  0  0  0  0  0  0  0
   -7.1604    5.0782  -13.5489 C   0  0  1  0  0  0  0  0  0  0  0  0
   -6.8883    6.5920  -13.3908 C   0  0  0  0  0  0  0  0  0  0  0  0
   -6.0428    4.2001  -13.0165 N   0  0  0  0  0  0  0  0  0  0  0  0
   -5.1439    4.8161  -12.4306 O   0  0  0  0  0  0  0  0  0  0  0  0
   -7.2590    4.8235  -15.0611 C   0  0  0  0  0  0  0  0  0  0  0  0
   -8.5106    4.5250  -15.6555 C   0  0  0  0  0  0  0  0  0  0  0  0
   -8.6627    4.4254  -17.0167 C   0  0  0  0  0  0  0  0  0  0  0  0
  -10.2499    4.1384  -17.6525 Cl  0  0  0  0  0  0  0  0  0  0  0  0
   -7.5759    4.6835  -17.8514 C   0  0  0  0  0  0  0  0  0  0  0  0
   -7.8394    4.9457  -19.2629 C   0  0  0  0  0  0  0  0  0  0  0  0
   -7.4304    3.8786  -20.1473 N   0  0  0  0  0  0  0  0  0  0  0  0
   -6.2946    4.8974  -17.3025 C   0  0  0  0  0  0  0  0  0  0  0  0
   -6.1328    4.9577  -15.9244 C   0  0  0  0  0  0  0  0  0  0  0  0
   -4.7554    5.2272  -15.7536 C   0  0  0  0  0  0  0  0  0  0  0  0
   -4.0975    5.3640  -16.8981 N   0  0  0  0  0  0  0  0  0  0  0  0
   -5.0356    5.1529  -17.8451 N   0  0  0  0  0  0  0  0  0  0  0  0
   -4.6706    5.2227  -19.2829 C   0  0  0  0  0  0  0  0  0  0  0  0
   -3.1603    5.4071  -19.5655 C   0  0  0  0  0  0  0  0  0  0  0  0
   -3.5221    6.4038  -20.6025 N   0  0  0  0  0  0  0  0  0  0  0  0
   -4.7898    6.6423  -19.8784 C   0  0  0  0  0  0  0  0  0  0  0  0
   -8.6533    3.4241  -10.8972 C   0  0  0  0  0  0  0  0  0  0  0  0
   -8.7228    3.3838   -9.5247 C   0  0  0  0  0  0  0  0  0  0  0  0
   -8.9973    2.2204   -8.6330 C   0  0  0  0  0  0  0  0  0  0  0  0
  1  2  1  0
  2  3  1  0
  3  4  1  0
  4  5  2  0
  5  6  1  0
  6  7  2  0
  7  8  1  0
  8  9  1  0
  9 10  1  6
  9 11  1  0
 11 12  2  0
  9 13  1  0
 13 14  2  0
 14 15  1  0
 15 16  1  0
 15 17  2  0
 17 18  1  0
 18 19  1  0
 17 20  1  0
 20 21  2  0
 21 22  1  0
 22 23  2  0
 23 24  1  0
 24 25  1  0
 25 26  1  0
 26 27  1  0
 27 28  1  0
  7 29  1  0
 29 30  2  0
 30 31  1  0
 31  2  1  0
 30  4  1  0
 21 13  1  0
 28 25  1  0
 24 20  1  0
M  END
>  <smiles>  (2475) 
C37252-P276

>  <fragmenstein_outcome>  (2475) 
acceptable

>  <inchikey>  (2475) 
DCDRNQHUGNYQEZ-UHFFFAOYSA-N

>  <fragmenstein_mode>  (2475) 
expansion

>  <HIPPO Pose ID>  (2475) 
28308

>  <Energy>  (2475) 
91.888877

>  <fragmenstein_error>  (2475) 


>  <tags>  (2475) 
{'openbind_xx01zvns2b_c1_fragmenstein', 'fragmenstein_placed'}

>  <ref_pdb>  (2475) 
175

>  <scratch_subdir>  (2475) 
/opt/xchem-fragalysis-2/maxwin/BulkDock/SCRATCH/511028/C37252-P276

>  <alias>  (2475) 
CN1Cc2ccc(N[C@@](C)(N=O)c3cc(Cl)c(CN)c4c3cnn4C3CNC3)cc2C1

>  <HIPPO Compound ID>  (2475) 
40318

>  <fragmenstein_runtime>  (2475) 
7.592793

$$$$
CN1Cc2ccc(NC(=O)c3cc(Cl)cc4c5n(cc34)CCOC[C@H]3NCC[C@@H]53)cc2C1
     RDKit          3D

 32 37  0  0  0  0  0  0  0  0999 V2000
  -10.0519    2.1064   -6.4413 C   0  0  0  0  0  0  0  0  0  0  0  0
   -8.8494    2.4867   -7.1688 N   0  0  0  0  0  0  0  0  0  0  0  0
   -8.7199    3.9561   -7.2826 C   0  0  0  0  0  0  0  0  0  0  0  0
   -8.6176    4.2544   -8.7407 C   0  0  0  0  0  0  0  0  0  0  0  0
   -8.4678    5.4771   -9.3676 C   0  0  0  0  0  0  0  0  0  0  0  0
   -8.3714    5.4951  -10.7598 C   0  0  0  0  0  0  0  0  0  0  0  0
   -8.4275    4.3029  -11.5007 C   0  0  0  0  0  0  0  0  0  0  0  0
   -8.3081    4.3311  -12.8868 N   0  0  0  0  0  0  0  0  0  0  0  0
   -7.9205    5.4810  -13.8340 C   0  0  0  0  0  0  0  0  0  0  0  0
   -7.7141    6.6074  -13.6115 O   0  0  0  0  0  0  0  0  0  0  0  0
   -7.7901    5.0206  -15.2214 C   0  0  0  0  0  0  0  0  0  0  0  0
   -8.8912    4.6301  -16.0095 C   0  0  0  0  0  0  0  0  0  0  0  0
   -8.8235    4.5283  -17.4378 C   0  0  0  0  0  0  0  0  0  0  0  0
  -10.2814    4.1532  -18.2850 Cl  0  0  0  0  0  0  0  0  0  0  0  0
   -7.6761    4.8201  -18.2111 C   0  0  0  0  0  0  0  0  0  0  0  0
   -6.5960    5.1732  -17.4054 C   0  0  0  0  0  0  0  0  0  0  0  0
   -5.4263    5.8061  -17.8068 C   0  0  0  0  0  0  0  0  0  0  0  0
   -4.6408    5.8734  -16.6628 N   0  0  0  0  0  0  0  0  0  0  0  0
   -5.4203    5.6440  -15.5476 C   0  0  0  0  0  0  0  0  0  0  0  0
   -6.6497    5.2443  -15.9889 C   0  0  0  0  0  0  0  0  0  0  0  0
   -3.2606    6.2981  -16.5322 C   0  0  0  0  0  0  0  0  0  0  0  0
   -2.2904    5.5501  -17.4312 C   0  0  0  0  0  0  0  0  0  0  0  0
   -2.4510    5.7603  -18.8289 O   0  0  0  0  0  0  0  0  0  0  0  0
   -2.6141    7.1192  -19.2106 C   0  0  0  0  0  0  0  0  0  0  0  0
   -4.0933    7.6073  -19.2205 C   0  0  1  0  0  0  0  0  0  0  0  0
   -4.4241    8.1441  -20.5635 N   0  0  0  0  0  0  0  0  0  0  0  0
   -4.7076    6.9368  -21.3681 C   0  0  0  0  0  0  0  0  0  0  0  0
   -5.0351    5.7965  -20.3812 C   0  0  0  0  0  0  0  0  0  0  0  0
   -5.1995    6.5558  -19.0893 C   0  0  1  0  0  0  0  0  0  0  0  0
   -8.5834    3.0774  -10.8529 C   0  0  0  0  0  0  0  0  0  0  0  0
   -8.6756    3.0729   -9.4699 C   0  0  0  0  0  0  0  0  0  0  0  0
   -8.8192    1.9146   -8.5371 C   0  0  0  0  0  0  0  0  0  0  0  0
  1  2  1  0
  2  3  1  0
  3  4  1  0
  4  5  2  0
  5  6  1  0
  6  7  2  0
  7  8  1  0
  8  9  1  0
  9 10  2  0
  9 11  1  0
 11 12  2  0
 12 13  1  0
 13 14  1  0
 13 15  2  0
 15 16  1  0
 16 17  2  0
 17 18  1  0
 18 19  1  0
 19 20  2  0
 18 21  1  0
 21 22  1  0
 22 23  1  0
 23 24  1  0
 25 24  1  6
 25 26  1  0
 26 27  1  0
 27 28  1  0
 29 28  1  6
  7 30  1  0
 30 31  2  0
 31 32  1  0
 32  2  1  0
 31  4  1  0
 20 11  1  0
 29 25  1  0
 20 16  1  0
 29 17  1  0
M  END
>  <smiles>  (2476) 
C37253-P277

>  <fragmenstein_outcome>  (2476) 
acceptable

>  <inchikey>  (2476) 
RRJATQWELNEPBH-UHFFFAOYSA-N

>  <fragmenstein_mode>  (2476) 
expansion

>  <HIPPO Pose ID>  (2476) 
28310

>  <Energy>  (2476) 
149.557609

>  <fragmenstein_error>  (2476) 


>  <tags>  (2476) 
{'openbind_xx01zvns2b_c1_fragmenstein', 'fragmenstein_placed'}

>  <ref_pdb>  (2476) 
175

>  <scratch_subdir>  (2476) 
/opt/xchem-fragalysis-2/maxwin/BulkDock/SCRATCH/511028/C37253-P277

>  <alias>  (2476) 
CN1Cc2ccc(NC(=O)c3cc(Cl)cc4c5n(cc34)CCOC[C@H]3NCC[C@@H]53)cc2C1

>  <HIPPO Compound ID>  (2476) 
35710

>  <fragmenstein_runtime>  (2476) 
15.027251

$$$$
CN1Cc2ccc(NC(=O)c3cc(Cl)cc4c3CC3(CCOCC3)N4C3CNC3)cc2C1
     RDKit          3D

 32 37  0  0  0  0  0  0  0  0999 V2000
   -7.4532    2.3467   -6.8093 C   0  0  0  0  0  0  0  0  0  0  0  0
   -8.7519    2.7366   -7.3556 N   0  0  0  0  0  0  0  0  0  0  0  0
   -8.7938    4.2156   -7.4908 C   0  0  0  0  0  0  0  0  0  0  0  0
   -8.6191    4.5058   -8.9429 C   0  0  0  0  0  0  0  0  0  0  0  0
   -8.4428    5.7238   -9.5688 C   0  0  0  0  0  0  0  0  0  0  0  0
   -8.3162    5.7348  -10.9582 C   0  0  0  0  0  0  0  0  0  0  0  0
   -8.3776    4.5423  -11.6983 C   0  0  0  0  0  0  0  0  0  0  0  0
   -8.2525    4.5696  -13.0846 N   0  0  0  0  0  0  0  0  0  0  0  0
   -7.8537    5.7197  -14.0322 C   0  0  0  0  0  0  0  0  0  0  0  0
   -7.6417    6.8452  -13.8085 O   0  0  0  0  0  0  0  0  0  0  0  0
   -7.7327    5.2559  -15.4294 C   0  0  0  0  0  0  0  0  0  0  0  0
   -8.8449    4.7563  -16.1018 C   0  0  0  0  0  0  0  0  0  0  0  0
   -8.7641    4.5439  -17.4791 C   0  0  0  0  0  0  0  0  0  0  0  0
  -10.1719    4.0592  -18.3348 Cl  0  0  0  0  0  0  0  0  0  0  0  0
   -7.5833    4.7953  -18.1840 C   0  0  0  0  0  0  0  0  0  0  0  0
   -6.4713    5.2632  -17.5001 C   0  0  0  0  0  0  0  0  0  0  0  0
   -6.5557    5.4851  -16.1334 C   0  0  0  0  0  0  0  0  0  0  0  0
   -5.2780    6.0518  -15.6241 C   0  0  0  0  0  0  0  0  0  0  0  0
   -4.3399    6.0093  -16.8869 C   0  0  0  0  0  0  0  0  0  0  0  0
   -3.2174    4.9708  -16.6593 C   0  0  0  0  0  0  0  0  0  0  0  0
   -1.9476    5.6154  -16.1146 C   0  0  0  0  0  0  0  0  0  0  0  0
   -2.2819    6.6711  -15.2241 O   0  0  0  0  0  0  0  0  0  0  0  0
   -2.8349    7.8022  -15.8956 C   0  0  0  0  0  0  0  0  0  0  0  0
   -3.7461    7.4194  -17.0629 C   0  0  0  0  0  0  0  0  0  0  0  0
   -5.2067    5.5965  -18.0383 N   0  0  0  0  0  0  0  0  0  0  0  0
   -4.8879    5.5683  -19.4443 C   0  0  0  0  0  0  0  0  0  0  0  0
   -3.4211    5.5491  -19.9031 C   0  0  0  0  0  0  0  0  0  0  0  0
   -3.7685    6.5241  -20.9671 N   0  0  0  0  0  0  0  0  0  0  0  0
   -4.9494    6.9321  -20.1609 C   0  0  0  0  0  0  0  0  0  0  0  0
   -8.5638    3.3186  -11.0510 C   0  0  0  0  0  0  0  0  0  0  0  0
   -8.6783    3.3214   -9.6698 C   0  0  0  0  0  0  0  0  0  0  0  0
   -8.9012    2.1812   -8.7319 C   0  0  0  0  0  0  0  0  0  0  0  0
  1  2  1  0
  2  3  1  0
  3  4  1  0
  4  5  2  0
  5  6  1  0
  6  7  2  0
  7  8  1  0
  8  9  1  0
  9 10  2  0
  9 11  1  0
 11 12  2  0
 12 13  1  0
 13 14  1  0
 13 15  2  0
 15 16  1  0
 16 17  2  0
 17 18  1  0
 18 19  1  0
 19 20  1  0
 20 21  1  0
 21 22  1  0
 22 23  1  0
 23 24  1  0
 19 25  1  0
 25 26  1  0
 26 27  1  0
 27 28  1  0
 28 29  1  0
  7 30  1  0
 30 31  2  0
 31 32  1  0
 32  2  1  0
 31  4  1  0
 17 11  1  0
 24 19  1  0
 29 26  1  0
 25 16  1  0
M  END
>  <smiles>  (2477) 
C37254-P277

>  <fragmenstein_outcome>  (2477) 
acceptable

>  <inchikey>  (2477) 
NQKJBGLWSBXQBD-UHFFFAOYSA-N

>  <fragmenstein_mode>  (2477) 
expansion

>  <HIPPO Pose ID>  (2477) 
28311

>  <Energy>  (2477) 
111.930205

>  <fragmenstein_error>  (2477) 


>  <tags>  (2477) 
{'openbind_xx01zvns2b_c1_fragmenstein', 'fragmenstein_placed'}

>  <ref_pdb>  (2477) 
175

>  <scratch_subdir>  (2477) 
/opt/xchem-fragalysis-2/maxwin/BulkDock/SCRATCH/511028/C37254-P277

>  <alias>  (2477) 
CN1Cc2ccc(NC(=O)c3cc(Cl)cc4c3CC3(CCOCC3)N4C3CNC3)cc2C1

>  <HIPPO Compound ID>  (2477) 
37254

>  <fragmenstein_runtime>  (2477) 
7.410005

$$$$
O=C(Nc1cc(F)cc(N2CCCC2)c1)c1cc(Cl)cc2c1cnn2C1CN(CO)C1
     RDKit          3D

 31 35  0  0  0  0  0  0  0  0999 V2000
   -7.8118    6.9705  -13.9667 O   0  0  0  0  0  0  0  0  0  0  0  0
   -7.9146    5.8151  -14.0915 C   0  0  0  0  0  0  0  0  0  0  0  0
   -8.2158    4.7207  -13.0496 N   0  0  0  0  0  0  0  0  0  0  0  0
   -8.3556    4.8026  -11.6676 C   0  0  0  0  0  0  0  0  0  0  0  0
   -8.4698    6.0641  -11.0841 C   0  0  0  0  0  0  0  0  0  0  0  0
   -8.5692    6.1804   -9.7121 C   0  0  0  0  0  0  0  0  0  0  0  0
   -8.6942    7.3923   -9.1555 F   0  0  0  0  0  0  0  0  0  0  0  0
   -8.5300    5.0611   -8.9038 C   0  0  0  0  0  0  0  0  0  0  0  0
   -8.3889    3.7853   -9.4636 C   0  0  0  0  0  0  0  0  0  0  0  0
   -8.2794    2.6344   -8.6656 N   0  0  0  0  0  0  0  0  0  0  0  0
   -9.6027    2.1469   -8.2306 C   0  0  0  0  0  0  0  0  0  0  0  0
   -9.4569    1.8401   -6.7457 C   0  0  0  0  0  0  0  0  0  0  0  0
   -8.3743    2.7926   -6.2870 C   0  0  0  0  0  0  0  0  0  0  0  0
   -7.4201    2.7749   -7.4719 C   0  0  0  0  0  0  0  0  0  0  0  0
   -8.3403    3.6600  -10.8636 C   0  0  0  0  0  0  0  0  0  0  0  0
   -7.7271    5.2865  -15.4506 C   0  0  0  0  0  0  0  0  0  0  0  0
   -8.7939    4.7113  -16.1414 C   0  0  0  0  0  0  0  0  0  0  0  0
   -8.6878    4.5216  -17.5164 C   0  0  0  0  0  0  0  0  0  0  0  0
  -10.0689    3.9733  -18.3778 Cl  0  0  0  0  0  0  0  0  0  0  0  0
   -7.5297    4.8655  -18.2305 C   0  0  0  0  0  0  0  0  0  0  0  0
   -6.4718    5.4416  -17.5110 C   0  0  0  0  0  0  0  0  0  0  0  0
   -6.5469    5.6337  -16.1335 C   0  0  0  0  0  0  0  0  0  0  0  0
   -5.3243    6.2422  -15.7848 C   0  0  0  0  0  0  0  0  0  0  0  0
   -4.5318    6.4391  -16.8357 N   0  0  0  0  0  0  0  0  0  0  0  0
   -5.2609    5.9931  -17.8788 N   0  0  0  0  0  0  0  0  0  0  0  0
   -4.8256    6.2064  -19.2694 C   0  0  0  0  0  0  0  0  0  0  0  0
   -3.3960    6.7741  -19.4271 C   0  0  0  0  0  0  0  0  0  0  0  0
   -3.1320    5.7346  -20.4520 N   0  0  0  0  0  0  0  0  0  0  0  0
   -1.8438    5.1003  -20.1948 C   0  0  0  0  0  0  0  0  0  0  0  0
   -1.6781    3.9828  -21.0626 O   0  0  0  0  0  0  0  0  0  0  0  0
   -4.2373    4.9382  -19.8711 C   0  0  0  0  0  0  0  0  0  0  0  0
  1  2  2  0
  2  3  1  0
  3  4  1  0
  4  5  2  0
  5  6  1  0
  6  7  1  0
  6  8  2  0
  8  9  1  0
  9 10  1  0
 10 11  1  0
 11 12  1  0
 12 13  1  0
 13 14  1  0
  9 15  2  0
  2 16  1  0
 16 17  2  0
 17 18  1  0
 18 19  1  0
 18 20  2  0
 20 21  1  0
 21 22  2  0
 22 23  1  0
 23 24  2  0
 24 25  1  0
 25 26  1  0
 26 27  1  0
 27 28  1  0
 28 29  1  0
 29 30  1  0
 28 31  1  0
 15  4  1  0
 22 16  1  0
 31 26  1  0
 14 10  1  0
 25 21  1  0
M  END
>  <smiles>  (2478) 
C37261-P277

>  <fragmenstein_outcome>  (2478) 
acceptable

>  <inchikey>  (2478) 
RKSFFWBDWKXDRE-UHFFFAOYSA-N

>  <fragmenstein_mode>  (2478) 
expansion

>  <HIPPO Pose ID>  (2478) 
28314

>  <Energy>  (2478) 
35.201431

>  <fragmenstein_error>  (2478) 


>  <tags>  (2478) 
{'openbind_xx01zvns2b_c1_fragmenstein', 'fragmenstein_placed'}

>  <ref_pdb>  (2478) 
175

>  <scratch_subdir>  (2478) 
/opt/xchem-fragalysis-2/maxwin/BulkDock/SCRATCH/511028/C37261-P277

>  <alias>  (2478) 
O=C(Nc1cc(F)cc(N2CCCC2)c1)c1cc(Cl)cc2c1cnn2C1CN(CO)C1

>  <HIPPO Compound ID>  (2478) 
26668

>  <fragmenstein_runtime>  (2478) 
15.667707

$$$$
Nn1cc2c(C(=O)Nc3cc(F)cc(N4CCCC4)c3)cc(Cl)cc2c1C1CNC1
     RDKit          3D

 30 34  0  0  0  0  0  0  0  0999 V2000
   -3.2182    6.0088  -16.7828 N   0  0  0  0  0  0  0  0  0  0  0  0
   -4.5785    5.6965  -16.8548 N   0  0  0  0  0  0  0  0  0  0  0  0
   -5.3933    5.7128  -15.7573 C   0  0  0  0  0  0  0  0  0  0  0  0
   -6.6310    5.3021  -16.1765 C   0  0  0  0  0  0  0  0  0  0  0  0
   -7.7845    5.1664  -15.4067 C   0  0  0  0  0  0  0  0  0  0  0  0
   -7.9278    5.7109  -14.0577 C   0  0  0  0  0  0  0  0  0  0  0  0
   -7.8827    6.8720  -13.9479 O   0  0  0  0  0  0  0  0  0  0  0  0
   -8.1539    4.6139  -12.9965 N   0  0  0  0  0  0  0  0  0  0  0  0
   -8.2732    4.7056  -11.6117 C   0  0  0  0  0  0  0  0  0  0  0  0
   -8.3079    5.9635  -11.0140 C   0  0  0  0  0  0  0  0  0  0  0  0
   -8.3963    6.0673   -9.6381 C   0  0  0  0  0  0  0  0  0  0  0  0
   -8.4450    7.2787   -9.0678 F   0  0  0  0  0  0  0  0  0  0  0  0
   -8.4269    4.9386   -8.8379 C   0  0  0  0  0  0  0  0  0  0  0  0
   -8.3754    3.6628   -9.4092 C   0  0  0  0  0  0  0  0  0  0  0  0
   -8.4041    2.4930   -8.6323 N   0  0  0  0  0  0  0  0  0  0  0  0
   -7.8025    2.5381   -7.2873 C   0  0  0  0  0  0  0  0  0  0  0  0
   -8.9843    2.5183   -6.3301 C   0  0  0  0  0  0  0  0  0  0  0  0
   -9.9359    1.5836   -7.0370 C   0  0  0  0  0  0  0  0  0  0  0  0
   -9.7860    2.0015   -8.4940 C   0  0  0  0  0  0  0  0  0  0  0  0
   -8.3284    3.5574  -10.8143 C   0  0  0  0  0  0  0  0  0  0  0  0
   -8.8846    4.7346  -16.1695 C   0  0  0  0  0  0  0  0  0  0  0  0
   -8.8044    4.5049  -17.5820 C   0  0  0  0  0  0  0  0  0  0  0  0
  -10.2717    4.1099  -18.3975 Cl  0  0  0  0  0  0  0  0  0  0  0  0
   -7.6337    4.6546  -18.3641 C   0  0  0  0  0  0  0  0  0  0  0  0
   -6.5556    5.0583  -17.5809 C   0  0  0  0  0  0  0  0  0  0  0  0
   -5.2692    5.3445  -17.9882 C   0  0  0  0  0  0  0  0  0  0  0  0
   -4.7318    5.3065  -19.4609 C   0  0  0  0  0  0  0  0  0  0  0  0
   -3.2257    5.0501  -19.6991 C   0  0  0  0  0  0  0  0  0  0  0  0
   -3.2292    6.1240  -20.7113 N   0  0  0  0  0  0  0  0  0  0  0  0
   -4.4513    6.6867  -20.0888 C   0  0  0  0  0  0  0  0  0  0  0  0
  1  2  1  0
  2  3  1  0
  3  4  2  0
  4  5  1  0
  5  6  1  0
  6  7  2  0
  6  8  1  0
  8  9  1  0
  9 10  2  0
 10 11  1  0
 11 12  1  0
 11 13  2  0
 13 14  1  0
 14 15  1  0
 15 16  1  0
 16 17  1  0
 17 18  1  0
 18 19  1  0
 14 20  2  0
  5 21  2  0
 21 22  1  0
 22 23  1  0
 22 24  2  0
 24 25  1  0
 25 26  2  0
 26 27  1  0
 27 28  1  0
 28 29  1  0
 29 30  1  0
 26  2  1  0
 30 27  1  0
 25  4  1  0
 20  9  1  0
 19 15  1  0
M  END
>  <smiles>  (2479) 
C37268-P277

>  <fragmenstein_outcome>  (2479) 
acceptable

>  <inchikey>  (2479) 
PVJXDILPPAIEFF-UHFFFAOYSA-N

>  <fragmenstein_mode>  (2479) 
expansion

>  <HIPPO Pose ID>  (2479) 
28315

>  <Energy>  (2479) 
35.016915

>  <fragmenstein_error>  (2479) 


>  <tags>  (2479) 
{'openbind_xx01zvns2b_c1_fragmenstein', 'fragmenstein_placed'}

>  <ref_pdb>  (2479) 
175

>  <scratch_subdir>  (2479) 
/opt/xchem-fragalysis-2/maxwin/BulkDock/SCRATCH/511028/C37268-P277

>  <alias>  (2479) 
Nn1cc2c(C(=O)Nc3cc(F)cc(N4CCCC4)c3)cc(Cl)cc2c1C1CNC1

>  <HIPPO Compound ID>  (2479) 
37268

>  <fragmenstein_runtime>  (2479) 
20.018481

$$$$
C[C@H](CN)n1cc2c(C(=O)Nc3cc(F)cc(N4CCCC4)c3)cc(Cl)cc2c1C1CNC1
     RDKit          3D

 33 37  0  0  0  0  0  0  0  0999 V2000
   -2.6982    7.7506  -17.2477 C   0  0  0  0  0  0  0  0  0  0  0  0
   -2.9983    6.4504  -16.5000 C   0  0  2  0  0  0  0  0  0  0  0  0
   -1.9504    5.3307  -16.5897 C   0  0  0  0  0  0  0  0  0  0  0  0
   -0.5643    5.7543  -16.3765 N   0  0  0  0  0  0  0  0  0  0  0  0
   -4.3640    5.9499  -16.7099 N   0  0  0  0  0  0  0  0  0  0  0  0
   -5.2171    5.8716  -15.6166 C   0  0  0  0  0  0  0  0  0  0  0  0
   -6.4387    5.4469  -16.0505 C   0  0  0  0  0  0  0  0  0  0  0  0
   -7.5882    5.2646  -15.2803 C   0  0  0  0  0  0  0  0  0  0  0  0
   -7.6930    5.6639  -13.8699 C   0  0  0  0  0  0  0  0  0  0  0  0
   -7.4248    6.7643  -13.5853 O   0  0  0  0  0  0  0  0  0  0  0  0
   -8.0907    4.4672  -12.9775 N   0  0  0  0  0  0  0  0  0  0  0  0
   -8.3259    4.3999  -11.6050 C   0  0  0  0  0  0  0  0  0  0  0  0
   -8.6398    3.1792  -11.0274 C   0  0  0  0  0  0  0  0  0  0  0  0
   -8.8649    3.1235   -9.6608 C   0  0  0  0  0  0  0  0  0  0  0  0
   -9.1991    1.9561   -9.0944 F   0  0  0  0  0  0  0  0  0  0  0  0
   -8.7612    4.2596   -8.8600 C   0  0  0  0  0  0  0  0  0  0  0  0
   -8.4372    5.5068   -9.4059 C   0  0  0  0  0  0  0  0  0  0  0  0
   -8.3216    6.6368   -8.6283 N   0  0  0  0  0  0  0  0  0  0  0  0
   -8.4421    6.6664   -7.1757 C   0  0  0  0  0  0  0  0  0  0  0  0
   -7.9056    8.0426   -6.7924 C   0  0  0  0  0  0  0  0  0  0  0  0
   -8.2855    8.9064   -7.9813 C   0  0  0  0  0  0  0  0  0  0  0  0
   -8.0886    7.9748   -9.1734 C   0  0  0  0  0  0  0  0  0  0  0  0
   -8.2290    5.5416  -10.7978 C   0  0  0  0  0  0  0  0  0  0  0  0
   -8.6771    4.8019  -16.0461 C   0  0  0  0  0  0  0  0  0  0  0  0
   -8.5859    4.5862  -17.4602 C   0  0  0  0  0  0  0  0  0  0  0  0
  -10.0308    4.1118  -18.2860 Cl  0  0  0  0  0  0  0  0  0  0  0  0
   -7.4145    4.7901  -18.2344 C   0  0  0  0  0  0  0  0  0  0  0  0
   -6.3420    5.2212  -17.4455 C   0  0  0  0  0  0  0  0  0  0  0  0
   -5.0531    5.5492  -17.8526 C   0  0  0  0  0  0  0  0  0  0  0  0
   -4.6550    5.4925  -19.3727 C   0  0  0  0  0  0  0  0  0  0  0  0
   -3.2162    5.4401  -19.8859 C   0  0  0  0  0  0  0  0  0  0  0  0
   -3.5933    6.3946  -20.9604 N   0  0  0  0  0  0  0  0  0  0  0  0
   -4.7212    6.8471  -20.1064 C   0  0  0  0  0  0  0  0  0  0  0  0
  2  1  1  6
  2  3  1  0
  3  4  1  0
  2  5  1  0
  5  6  1  0
  6  7  2  0
  7  8  1  0
  8  9  1  0
  9 10  2  0
  9 11  1  0
 11 12  1  0
 12 13  2  0
 13 14  1  0
 14 15  1  0
 14 16  2  0
 16 17  1  0
 17 18  1  0
 18 19  1  0
 19 20  1  0
 20 21  1  0
 21 22  1  0
 17 23  2  0
  8 24  2  0
 24 25  1  0
 25 26  1  0
 25 27  2  0
 27 28  1  0
 28 29  2  0
 29 30  1  0
 30 31  1  0
 31 32  1  0
 32 33  1  0
 29  5  1  0
 33 30  1  0
 28  7  1  0
 23 12  1  0
 22 18  1  0
M  END
>  <smiles>  (2480) 
C37271-P277

>  <fragmenstein_outcome>  (2480) 
acceptable

>  <inchikey>  (2480) 
AWCALMNDIKYDEP-UHFFFAOYSA-N

>  <fragmenstein_mode>  (2480) 
expansion

>  <HIPPO Pose ID>  (2480) 
28316

>  <Energy>  (2480) 
104.410542

>  <fragmenstein_error>  (2480) 


>  <tags>  (2480) 
{'openbind_xx01zvns2b_c1_fragmenstein', 'fragmenstein_placed'}

>  <ref_pdb>  (2480) 
175

>  <scratch_subdir>  (2480) 
/opt/xchem-fragalysis-2/maxwin/BulkDock/SCRATCH/511028/C37271-P277

>  <alias>  (2480) 
C[C@H](CN)n1cc2c(C(=O)Nc3cc(F)cc(N4CCCC4)c3)cc(Cl)cc2c1C1CNC1

>  <HIPPO Compound ID>  (2480) 
37271

>  <fragmenstein_runtime>  (2480) 
6.579319

$$$$
C[S@@](=O)(=NCCN[C@@H]1NC[C@H]1n1ncc2c(C(=O)Nc3cc(F)cc(N4CCCC4)c3)cc(Cl)cc21)c1nccn1Cc1cscn1
     RDKit          3D

 47 53  0  0  0  0  0  0  0  0999 V2000
   -5.1135   11.1272  -25.0387 C   0  0  0  0  0  0  0  0  0  0  0  0
   -5.5210    9.4267  -24.9619 S   0  0  1  0  0  0  0  0  0  0  0  0
   -4.3636    8.7117  -25.4586 O   0  0  0  0  0  0  0  0  0  0  0  0
   -6.2115    9.2029  -23.5952 N   0  0  0  0  0  0  0  0  0  0  0  0
   -5.3418    8.8347  -22.4627 C   0  0  0  0  0  0  0  0  0  0  0  0
   -5.0416    7.3452  -22.3848 C   0  0  0  0  0  0  0  0  0  0  0  0
   -3.8636    6.9925  -21.5776 N   0  0  0  0  0  0  0  0  0  0  0  0
   -4.0819    7.0044  -20.1338 C   0  0  2  0  0  0  0  0  0  0  0  0
   -2.8164    6.4817  -19.6115 N   0  0  0  0  0  0  0  0  0  0  0  0
   -3.3893    5.1253  -19.5100 C   0  0  0  0  0  0  0  0  0  0  0  0
   -4.8010    5.7410  -19.5746 C   0  0  1  0  0  0  0  0  0  0  0  0
   -5.3431    5.9087  -18.1791 N   0  0  0  0  0  0  0  0  0  0  0  0
   -4.6281    6.5092  -17.1985 N   0  0  0  0  0  0  0  0  0  0  0  0
   -5.3454    6.3233  -16.0953 C   0  0  0  0  0  0  0  0  0  0  0  0
   -6.5630    5.6641  -16.3433 C   0  0  0  0  0  0  0  0  0  0  0  0
   -7.6770    5.2876  -15.5636 C   0  0  0  0  0  0  0  0  0  0  0  0
   -7.7265    5.6876  -14.1366 C   0  0  0  0  0  0  0  0  0  0  0  0
   -7.4957    6.8041  -13.8815 O   0  0  0  0  0  0  0  0  0  0  0  0
   -8.0655    4.4960  -13.2087 N   0  0  0  0  0  0  0  0  0  0  0  0
   -8.2773    4.4524  -11.8278 C   0  0  0  0  0  0  0  0  0  0  0  0
   -8.6212    3.2473  -11.2318 C   0  0  0  0  0  0  0  0  0  0  0  0
   -8.8258    3.2050   -9.8608 C   0  0  0  0  0  0  0  0  0  0  0  0
   -9.1896    2.0519   -9.2827 F   0  0  0  0  0  0  0  0  0  0  0  0
   -8.6700    4.3405   -9.0699 C   0  0  0  0  0  0  0  0  0  0  0  0
   -8.3072    5.5708   -9.6306 C   0  0  0  0  0  0  0  0  0  0  0  0
   -8.1305    6.6971   -8.8590 N   0  0  0  0  0  0  0  0  0  0  0  0
   -7.5962    7.9600   -9.3695 C   0  0  0  0  0  0  0  0  0  0  0  0
   -7.1901    8.7238   -8.1116 C   0  0  0  0  0  0  0  0  0  0  0  0
   -8.1868    8.2347   -7.0776 C   0  0  0  0  0  0  0  0  0  0  0  0
   -8.3357    6.7539   -7.4144 C   0  0  0  0  0  0  0  0  0  0  0  0
   -8.1297    5.5942  -11.0289 C   0  0  0  0  0  0  0  0  0  0  0  0
   -8.7846    4.7085  -16.1861 C   0  0  0  0  0  0  0  0  0  0  0  0
   -8.7643    4.5001  -17.5626 C   0  0  0  0  0  0  0  0  0  0  0  0
  -10.2034    3.9761  -18.3374 Cl  0  0  0  0  0  0  0  0  0  0  0  0
   -7.6429    4.7969  -18.3491 C   0  0  0  0  0  0  0  0  0  0  0  0
   -6.5528    5.4110  -17.7190 C   0  0  0  0  0  0  0  0  0  0  0  0
   -6.8567    9.0493  -26.0774 C   0  0  0  0  0  0  0  0  0  0  0  0
   -7.1175    7.7806  -26.3786 N   0  0  0  0  0  0  0  0  0  0  0  0
   -8.2389    7.7612  -27.1483 C   0  0  0  0  0  0  0  0  0  0  0  0
   -8.6764    9.0384  -27.3633 C   0  0  0  0  0  0  0  0  0  0  0  0
   -7.7725    9.8638  -26.7208 N   0  0  0  0  0  0  0  0  0  0  0  0
   -7.7783   11.3015  -26.9401 C   0  0  0  0  0  0  0  0  0  0  0  0
   -8.8550   12.0066  -26.1785 C   0  0  0  0  0  0  0  0  0  0  0  0
   -8.6960   12.8427  -25.0867 C   0  0  0  0  0  0  0  0  0  0  0  0
  -10.2119   13.4647  -24.5771 S   0  0  0  0  0  0  0  0  0  0  0  0
  -10.9687   12.6056  -25.8516 C   0  0  0  0  0  0  0  0  0  0  0  0
  -10.1688   11.8995  -26.6243 N   0  0  0  0  0  0  0  0  0  0  0  0
  2  1  1  1
  2  3  2  0
  2  4  2  0
  4  5  1  0
  5  6  1  0
  6  7  1  0
  8  7  1  6
  8  9  1  0
  9 10  1  0
 10 11  1  0
 11 12  1  1
 12 13  1  0
 13 14  2  0
 14 15  1  0
 15 16  2  0
 16 17  1  0
 17 18  2  0
 17 19  1  0
 19 20  1  0
 20 21  2  0
 21 22  1  0
 22 23  1  0
 22 24  2  0
 24 25  1  0
 25 26  1  0
 26 27  1  0
 27 28  1  0
 28 29  1  0
 29 30  1  0
 25 31  2  0
 16 32  1  0
 32 33  2  0
 33 34  1  0
 33 35  1  0
 35 36  2  0
  2 37  1  0
 37 38  2  0
 38 39  1  0
 39 40  2  0
 40 41  1  0
 41 42  1  0
 42 43  1  0
 43 44  2  0
 44 45  1  0
 45 46  1  0
 46 47  2  0
 11  8  1  0
 36 12  1  0
 41 37  1  0
 47 43  1  0
 36 15  1  0
 31 20  1  0
 30 26  1  0
M  END
>  <smiles>  (2481) 
C37283-P277

>  <fragmenstein_outcome>  (2481) 
acceptable

>  <inchikey>  (2481) 
KBTJNNUCMXLQBH-UHFFFAOYSA-N

>  <fragmenstein_mode>  (2481) 
expansion

>  <HIPPO Pose ID>  (2481) 
28318

>  <Energy>  (2481) 
114.951103

>  <fragmenstein_error>  (2481) 


>  <tags>  (2481) 
{'openbind_xx01zvns2b_c1_fragmenstein', 'fragmenstein_placed'}

>  <ref_pdb>  (2481) 
175

>  <scratch_subdir>  (2481) 
/opt/xchem-fragalysis-2/maxwin/BulkDock/SCRATCH/511028/C37283-P277

>  <alias>  (2481) 
C[S@@](=O)(=NCCN[C@@H]1NC[C@H]1n1ncc2c(C(=O)Nc3cc(F)cc(N4CCCC4)c3)cc(Cl)cc21)c1nccn1Cc1cscn1

>  <HIPPO Compound ID>  (2481) 
18897

>  <fragmenstein_runtime>  (2481) 
16.271708

$$$$
Cc1c(F)cc(NC(=O)c2cc(Cl)cc3c2C(F)(F)NN3C2CNC2)cc1N1CCCC1
     RDKit          3D

 32 36  0  0  0  0  0  0  0  0999 V2000
   -8.8149    5.0962   -7.4170 C   0  0  0  0  0  0  0  0  0  0  0  0
   -8.5355    4.8607   -8.8702 C   0  0  0  0  0  0  0  0  0  0  0  0
   -8.3860    5.9832   -9.6805 C   0  0  0  0  0  0  0  0  0  0  0  0
   -8.3939    7.2004   -9.1248 F   0  0  0  0  0  0  0  0  0  0  0  0
   -8.2150    5.8882  -11.0490 C   0  0  0  0  0  0  0  0  0  0  0  0
   -8.1680    4.6386  -11.6497 C   0  0  0  0  0  0  0  0  0  0  0  0
   -7.9921    4.5539  -13.0259 N   0  0  0  0  0  0  0  0  0  0  0  0
   -7.9880    5.6517  -14.1012 C   0  0  0  0  0  0  0  0  0  0  0  0
   -8.0547    6.8101  -13.9983 O   0  0  0  0  0  0  0  0  0  0  0  0
   -7.7906    5.1251  -15.4520 C   0  0  0  0  0  0  0  0  0  0  0  0
   -8.8773    4.7236  -16.2171 C   0  0  0  0  0  0  0  0  0  0  0  0
   -8.7091    4.5629  -17.5958 C   0  0  0  0  0  0  0  0  0  0  0  0
  -10.0827    4.1536  -18.5393 Cl  0  0  0  0  0  0  0  0  0  0  0  0
   -7.4736    4.7979  -18.2173 C   0  0  0  0  0  0  0  0  0  0  0  0
   -6.3960    5.1632  -17.4301 C   0  0  0  0  0  0  0  0  0  0  0  0
   -6.5637    5.3095  -16.0588 C   0  0  0  0  0  0  0  0  0  0  0  0
   -5.2754    5.7251  -15.4611 C   0  0  0  0  0  0  0  0  0  0  0  0
   -4.7711    4.8223  -14.5852 F   0  0  0  0  0  0  0  0  0  0  0  0
   -5.2811    6.9286  -14.8443 F   0  0  0  0  0  0  0  0  0  0  0  0
   -4.3235    5.7884  -16.5813 N   0  0  0  0  0  0  0  0  0  0  0  0
   -5.0573    5.4469  -17.7951 N   0  0  0  0  0  0  0  0  0  0  0  0
   -4.6533    6.2040  -18.9572 C   0  0  0  0  0  0  0  0  0  0  0  0
   -3.1510    6.0061  -19.2756 C   0  0  0  0  0  0  0  0  0  0  0  0
   -3.4822    5.8140  -20.6930 N   0  0  0  0  0  0  0  0  0  0  0  0
   -4.8927    5.5515  -20.3126 C   0  0  0  0  0  0  0  0  0  0  0  0
   -8.2587    3.4948  -10.8604 C   0  0  0  0  0  0  0  0  0  0  0  0
   -8.4171    3.5897   -9.4598 C   0  0  0  0  0  0  0  0  0  0  0  0
   -8.4708    2.3902   -8.7527 N   0  0  0  0  0  0  0  0  0  0  0  0
   -7.6181    2.2160   -7.5806 C   0  0  0  0  0  0  0  0  0  0  0  0
   -8.5649    1.9508   -6.4228 C   0  0  0  0  0  0  0  0  0  0  0  0
   -9.7702    1.3143   -7.0762 C   0  0  0  0  0  0  0  0  0  0  0  0
   -9.8315    1.9672   -8.4448 C   0  0  0  0  0  0  0  0  0  0  0  0
  1  2  1  0
  2  3  2  0
  3  4  1  0
  3  5  1  0
  5  6  2  0
  6  7  1  0
  7  8  1  0
  8  9  2  0
  8 10  1  0
 10 11  2  0
 11 12  1  0
 12 13  1  0
 12 14  2  0
 14 15  1  0
 15 16  2  0
 16 17  1  0
 17 18  1  0
 17 19  1  0
 17 20  1  0
 20 21  1  0
 21 22  1  0
 22 23  1  0
 23 24  1  0
 24 25  1  0
  6 26  1  0
 26 27  2  0
 27 28  1  0
 28 29  1  0
 29 30  1  0
 30 31  1  0
 31 32  1  0
 27  2  1  0
 32 28  1  0
 16 10  1  0
 25 22  1  0
 21 15  1  0
M  END
>  <smiles>  (2482) 
C37301-P277

>  <fragmenstein_outcome>  (2482) 
acceptable

>  <inchikey>  (2482) 
SPEDQXIAVLGKEG-UHFFFAOYSA-N

>  <fragmenstein_mode>  (2482) 
expansion

>  <HIPPO Pose ID>  (2482) 
28320

>  <Energy>  (2482) 
84.305915

>  <fragmenstein_error>  (2482) 


>  <tags>  (2482) 
{'openbind_xx01zvns2b_c1_fragmenstein', 'fragmenstein_placed'}

>  <ref_pdb>  (2482) 
175

>  <scratch_subdir>  (2482) 
/opt/xchem-fragalysis-2/maxwin/BulkDock/SCRATCH/511028/C37301-P277

>  <alias>  (2482) 
Cc1c(F)cc(NC(=O)c2cc(Cl)cc3c2C(F)(F)NN3C2CNC2)cc1N1CCCC1

>  <HIPPO Compound ID>  (2482) 
37301

>  <fragmenstein_runtime>  (2482) 
17.85236

$$$$
Cn1c(C2CNC2)c2cc(Cl)cc(C(=O)Nc3cc(F)cc(N4CCCC4)c3)c2c1F
     RDKit          3D

 31 35  0  0  0  0  0  0  0  0999 V2000
   -3.1280    6.2971  -16.4642 C   0  0  0  0  0  0  0  0  0  0  0  0
   -4.5034    5.8846  -16.6183 N   0  0  0  0  0  0  0  0  0  0  0  0
   -5.1826    5.7780  -17.8196 C   0  0  0  0  0  0  0  0  0  0  0  0
   -4.5850    6.4380  -19.0919 C   0  0  0  0  0  0  0  0  0  0  0  0
   -3.4883    5.6670  -19.8558 C   0  0  0  0  0  0  0  0  0  0  0  0
   -3.9227    6.4392  -21.0543 N   0  0  0  0  0  0  0  0  0  0  0  0
   -5.2875    6.4517  -20.4416 C   0  0  0  0  0  0  0  0  0  0  0  0
   -6.4153    5.2242  -17.5267 C   0  0  0  0  0  0  0  0  0  0  0  0
   -7.4542    4.8399  -18.3776 C   0  0  0  0  0  0  0  0  0  0  0  0
   -8.6425    4.5201  -17.6645 C   0  0  0  0  0  0  0  0  0  0  0  0
  -10.0562    4.1168  -18.5655 Cl  0  0  0  0  0  0  0  0  0  0  0  0
   -8.7923    4.6106  -16.2472 C   0  0  0  0  0  0  0  0  0  0  0  0
   -7.7385    5.0092  -15.4060 C   0  0  0  0  0  0  0  0  0  0  0  0
   -7.9838    5.5349  -14.0669 C   0  0  0  0  0  0  0  0  0  0  0  0
   -8.0890    6.6926  -13.9685 O   0  0  0  0  0  0  0  0  0  0  0  0
   -8.0256    4.4340  -12.9923 N   0  0  0  0  0  0  0  0  0  0  0  0
   -8.1077    4.5263  -11.6087 C   0  0  0  0  0  0  0  0  0  0  0  0
   -8.0462    5.7850  -11.0196 C   0  0  0  0  0  0  0  0  0  0  0  0
   -8.0759    5.8919   -9.6442 C   0  0  0  0  0  0  0  0  0  0  0  0
   -7.9876    7.0938   -9.0681 F   0  0  0  0  0  0  0  0  0  0  0  0
   -8.1813    4.7781   -8.8374 C   0  0  0  0  0  0  0  0  0  0  0  0
   -8.2344    3.5042   -9.4025 C   0  0  0  0  0  0  0  0  0  0  0  0
   -8.3608    2.3505   -8.6133 N   0  0  0  0  0  0  0  0  0  0  0  0
   -7.7780    2.3685   -7.2602 C   0  0  0  0  0  0  0  0  0  0  0  0
   -8.9737    2.4683   -6.3257 C   0  0  0  0  0  0  0  0  0  0  0  0
   -9.9840    1.5947   -7.0284 C   0  0  0  0  0  0  0  0  0  0  0  0
   -9.7765    1.9632   -8.4923 C   0  0  0  0  0  0  0  0  0  0  0  0
   -8.2052    3.3873  -10.8063 C   0  0  0  0  0  0  0  0  0  0  0  0
   -6.5558    5.2690  -16.0991 C   0  0  0  0  0  0  0  0  0  0  0  0
   -5.3590    5.6724  -15.5790 C   0  0  0  0  0  0  0  0  0  0  0  0
   -5.0508    5.8328  -14.2869 F   0  0  0  0  0  0  0  0  0  0  0  0
  1  2  1  0
  2  3  1  0
  3  4  1  0
  4  5  1  0
  5  6  1  0
  6  7  1  0
  3  8  2  0
  8  9  1  0
  9 10  2  0
 10 11  1  0
 10 12  1  0
 12 13  2  0
 13 14  1  0
 14 15  2  0
 14 16  1  0
 16 17  1  0
 17 18  2  0
 18 19  1  0
 19 20  1  0
 19 21  2  0
 21 22  1  0
 22 23  1  0
 23 24  1  0
 24 25  1  0
 25 26  1  0
 26 27  1  0
 22 28  2  0
 13 29  1  0
 29 30  2  0
 30 31  1  0
 30  2  1  0
  7  4  1  0
 29  8  1  0
 28 17  1  0
 27 23  1  0
M  END
>  <smiles>  (2483) 
C37305-P277

>  <fragmenstein_outcome>  (2483) 
acceptable

>  <inchikey>  (2483) 
CYVZMROZHZZWES-UHFFFAOYSA-N

>  <fragmenstein_mode>  (2483) 
expansion

>  <HIPPO Pose ID>  (2483) 
28321

>  <Energy>  (2483) 
90.1621

>  <fragmenstein_error>  (2483) 


>  <tags>  (2483) 
{'openbind_xx01zvns2b_c1_fragmenstein', 'fragmenstein_placed'}

>  <ref_pdb>  (2483) 
175

>  <scratch_subdir>  (2483) 
/opt/xchem-fragalysis-2/maxwin/BulkDock/SCRATCH/511028/C37305-P277

>  <alias>  (2483) 
Cn1c(C2CNC2)c2cc(Cl)cc(C(=O)Nc3cc(F)cc(N4CCCC4)c3)c2c1F

>  <HIPPO Compound ID>  (2483) 
36256

>  <fragmenstein_runtime>  (2483) 
15.201246

$$$$
CN[C@@H]1CCCN1c1cc(F)cc(NC(=O)c2cc(Cl)cc3c2cnn3[C@@H]2CN(C)[C@@H]2CO)c1
     RDKit          3D

 34 38  0  0  0  0  0  0  0  0999 V2000
   -5.7116    5.8877   -6.2721 C   0  0  0  0  0  0  0  0  0  0  0  0
   -7.0988    6.0224   -6.6936 N   0  0  0  0  0  0  0  0  0  0  0  0
   -7.2197    6.6661   -7.9984 C   0  0  2  0  0  0  0  0  0  0  0  0
   -7.0473    8.1912   -7.8549 C   0  0  0  0  0  0  0  0  0  0  0  0
   -7.6740    8.7170   -9.1322 C   0  0  0  0  0  0  0  0  0  0  0  0
   -8.9101    7.8404   -9.2552 C   0  0  0  0  0  0  0  0  0  0  0  0
   -8.5047    6.5299   -8.7186 N   0  0  0  0  0  0  0  0  0  0  0  0
   -8.5503    5.4087   -9.5559 C   0  0  0  0  0  0  0  0  0  0  0  0
   -8.8602    4.1685   -8.9853 C   0  0  0  0  0  0  0  0  0  0  0  0
   -8.9339    3.0275   -9.7695 C   0  0  0  0  0  0  0  0  0  0  0  0
   -9.2681    1.8621   -9.2009 F   0  0  0  0  0  0  0  0  0  0  0  0
   -8.7016    3.0833  -11.1352 C   0  0  0  0  0  0  0  0  0  0  0  0
   -8.3908    4.3002  -11.7287 C   0  0  0  0  0  0  0  0  0  0  0  0
   -8.2065    4.3542  -13.1107 N   0  0  0  0  0  0  0  0  0  0  0  0
   -7.6139    5.4665  -13.9997 C   0  0  0  0  0  0  0  0  0  0  0  0
   -7.2570    6.5437  -13.7267 O   0  0  0  0  0  0  0  0  0  0  0  0
   -7.5469    5.0721  -15.4246 C   0  0  0  0  0  0  0  0  0  0  0  0
   -8.7014    4.7248  -16.1325 C   0  0  0  0  0  0  0  0  0  0  0  0
   -8.6474    4.6107  -17.5209 C   0  0  0  0  0  0  0  0  0  0  0  0
  -10.0912    4.2178  -18.3730 Cl  0  0  0  0  0  0  0  0  0  0  0  0
   -7.4744    4.8850  -18.2430 C   0  0  0  0  0  0  0  0  0  0  0  0
   -6.3209    5.2045  -17.5116 C   0  0  0  0  0  0  0  0  0  0  0  0
   -6.3322    5.2396  -16.1152 C   0  0  0  0  0  0  0  0  0  0  0  0
   -4.9908    5.4663  -15.7530 C   0  0  0  0  0  0  0  0  0  0  0  0
   -4.1872    5.5636  -16.8113 N   0  0  0  0  0  0  0  0  0  0  0  0
   -5.0442    5.6200  -17.8611 N   0  0  0  0  0  0  0  0  0  0  0  0
   -4.7643    6.6530  -18.8716 C   0  0  2  0  0  0  0  0  0  0  0  0
   -5.0366    6.4080  -20.3594 C   0  0  0  0  0  0  0  0  0  0  0  0
   -3.8279    7.2533  -20.6070 N   0  0  0  0  0  0  0  0  0  0  0  0
   -3.1006    6.9268  -21.8119 C   0  0  0  0  0  0  0  0  0  0  0  0
   -3.2598    6.7112  -19.3292 C   0  0  2  0  0  0  0  0  0  0  0  0
   -2.3248    5.4843  -19.3995 C   0  0  0  0  0  0  0  0  0  0  0  0
   -2.9369    4.3340  -19.9776 O   0  0  0  0  0  0  0  0  0  0  0  0
   -8.2983    5.4517  -10.9373 C   0  0  0  0  0  0  0  0  0  0  0  0
  1  2  1  0
  3  2  1  1
  3  4  1  0
  4  5  1  0
  5  6  1  0
  6  7  1  0
  7  8  1  0
  8  9  2  0
  9 10  1  0
 10 11  1  0
 10 12  2  0
 12 13  1  0
 13 14  1  0
 14 15  1  0
 15 16  2  0
 15 17  1  0
 17 18  2  0
 18 19  1  0
 19 20  1  0
 19 21  2  0
 21 22  1  0
 22 23  2  0
 23 24  1  0
 24 25  2  0
 25 26  1  0
 27 26  1  1
 27 28  1  0
 28 29  1  0
 29 30  1  0
 29 31  1  0
 31 32  1  6
 32 33  1  0
 13 34  2  0
  7  3  1  0
 34  8  1  0
 23 17  1  0
 31 27  1  0
 26 22  1  0
M  END
>  <smiles>  (2484) 
C37306-P277

>  <fragmenstein_outcome>  (2484) 
acceptable

>  <inchikey>  (2484) 
IBCFVGJRBLHVGP-UHFFFAOYSA-N

>  <fragmenstein_mode>  (2484) 
expansion

>  <HIPPO Pose ID>  (2484) 
28322

>  <Energy>  (2484) 
49.120993

>  <fragmenstein_error>  (2484) 


>  <tags>  (2484) 
{'openbind_xx01zvns2b_c1_fragmenstein', 'fragmenstein_placed'}

>  <ref_pdb>  (2484) 
175

>  <scratch_subdir>  (2484) 
/opt/xchem-fragalysis-2/maxwin/BulkDock/SCRATCH/511028/C37306-P277

>  <alias>  (2484) 
CN[C@@H]1CCCN1c1cc(F)cc(NC(=O)c2cc(Cl)cc3c2cnn3[C@@H]2CN(C)[C@@H]2CO)c1

>  <HIPPO Compound ID>  (2484) 
41021

>  <fragmenstein_runtime>  (2484) 
13.98628

$$$$
COn1cc2c(C(=O)Nc3cc(F)cc(N4CCCC4)c3)cc(Cl)cc2c1C1CNC1
     RDKit          3D

 31 35  0  0  0  0  0  0  0  0999 V2000
   -3.3536    7.7190  -16.9125 C   0  0  0  0  0  0  0  0  0  0  0  0
   -3.3869    6.3046  -17.0590 O   0  0  0  0  0  0  0  0  0  0  0  0
   -4.7139    5.8720  -17.0218 N   0  0  0  0  0  0  0  0  0  0  0  0
   -5.4475    5.7673  -15.8702 C   0  0  0  0  0  0  0  0  0  0  0  0
   -6.6852    5.2962  -16.2305 C   0  0  0  0  0  0  0  0  0  0  0  0
   -7.7981    5.1098  -15.4074 C   0  0  0  0  0  0  0  0  0  0  0  0
   -7.8833    5.6995  -14.0727 C   0  0  0  0  0  0  0  0  0  0  0  0
   -7.7069    6.8531  -14.0134 O   0  0  0  0  0  0  0  0  0  0  0  0
   -8.1667    4.6705  -12.9546 N   0  0  0  0  0  0  0  0  0  0  0  0
   -8.1971    4.8242  -11.5688 C   0  0  0  0  0  0  0  0  0  0  0  0
   -7.9433    6.0930  -11.0597 C   0  0  0  0  0  0  0  0  0  0  0  0
   -7.9184    6.2817   -9.6988 C   0  0  0  0  0  0  0  0  0  0  0  0
   -7.6467    7.4860   -9.1920 F   0  0  0  0  0  0  0  0  0  0  0  0
   -8.1520    5.2419   -8.8289 C   0  0  0  0  0  0  0  0  0  0  0  0
   -8.4175    3.9493   -9.2873 C   0  0  0  0  0  0  0  0  0  0  0  0
   -8.6217    2.9548   -8.3613 N   0  0  0  0  0  0  0  0  0  0  0  0
   -8.6896    3.2216   -6.9197 C   0  0  0  0  0  0  0  0  0  0  0  0
   -9.0142    1.8803   -6.2964 C   0  0  0  0  0  0  0  0  0  0  0  0
   -9.8233    1.2136   -7.3814 C   0  0  0  0  0  0  0  0  0  0  0  0
   -9.0925    1.6145   -8.6567 C   0  0  0  0  0  0  0  0  0  0  0  0
   -8.4302    3.7543  -10.6882 C   0  0  0  0  0  0  0  0  0  0  0  0
   -8.9212    4.6516  -16.1246 C   0  0  0  0  0  0  0  0  0  0  0  0
   -8.8971    4.4356  -17.5424 C   0  0  0  0  0  0  0  0  0  0  0  0
  -10.3893    4.0623  -18.3181 Cl  0  0  0  0  0  0  0  0  0  0  0  0
   -7.7649    4.6179  -18.3713 C   0  0  0  0  0  0  0  0  0  0  0  0
   -6.6717    5.0652  -17.6364 C   0  0  0  0  0  0  0  0  0  0  0  0
   -5.4310    5.4284  -18.1079 C   0  0  0  0  0  0  0  0  0  0  0  0
   -4.9501    5.3694  -19.5932 C   0  0  0  0  0  0  0  0  0  0  0  0
   -3.4473    5.1694  -19.8212 C   0  0  0  0  0  0  0  0  0  0  0  0
   -3.3127    6.5531  -20.2913 N   0  0  0  0  0  0  0  0  0  0  0  0
   -4.7758    6.7282  -20.2869 C   0  0  0  0  0  0  0  0  0  0  0  0
  1  2  1  0
  2  3  1  0
  3  4  1  0
  4  5  2  0
  5  6  1  0
  6  7  1  0
  7  8  2  0
  7  9  1  0
  9 10  1  0
 10 11  2  0
 11 12  1  0
 12 13  1  0
 12 14  2  0
 14 15  1  0
 15 16  1  0
 16 17  1  0
 17 18  1  0
 18 19  1  0
 19 20  1  0
 15 21  2  0
  6 22  2  0
 22 23  1  0
 23 24  1  0
 23 25  2  0
 25 26  1  0
 26 27  2  0
 27 28  1  0
 28 29  1  0
 29 30  1  0
 30 31  1  0
 27  3  1  0
 31 28  1  0
 26  5  1  0
 21 10  1  0
 20 16  1  0
M  END
>  <smiles>  (2485) 
C37259-P277

>  <fragmenstein_outcome>  (2485) 
acceptable

>  <inchikey>  (2485) 
JZNAFSUZJWYZEQ-UHFFFAOYSA-N

>  <fragmenstein_mode>  (2485) 
expansion

>  <HIPPO Pose ID>  (2485) 
28323

>  <Energy>  (2485) 
57.985404

>  <fragmenstein_error>  (2485) 


>  <tags>  (2485) 
{'openbind_xx01zvns2b_c1_fragmenstein', 'fragmenstein_placed'}

>  <ref_pdb>  (2485) 
175

>  <scratch_subdir>  (2485) 
/opt/xchem-fragalysis-2/maxwin/BulkDock/SCRATCH/511028/C37259-P277

>  <alias>  (2485) 
COn1cc2c(C(=O)Nc3cc(F)cc(N4CCCC4)c3)cc(Cl)cc2c1C1CNC1

>  <HIPPO Compound ID>  (2485) 
37259

>  <fragmenstein_runtime>  (2485) 
15.053703

$$$$
O=C([O-])[C@@H](Nc1cc(F)cc(N2CCCC2)c1)c1cc(Cl)cc2c1cnn2C1CNC1
     RDKit          3D

 31 35  0  0  0  0  0  0  0  0999 V2000
  -10.4057    6.0192  -13.8839 O   0  0  0  0  0  0  0  0  0  0  0  0
   -9.2329    6.4912  -13.7448 C   0  0  0  0  0  0  0  0  0  0  0  0
   -8.9015    7.6765  -13.4320 O   0  0  0  0  0  0  0  0  0  0  0  0
   -8.0303    5.4845  -13.9241 C   0  0  1  0  0  0  0  0  0  0  0  0
   -8.1061    4.2743  -13.0651 N   0  0  0  0  0  0  0  0  0  0  0  0
   -8.1257    4.4873  -11.6629 C   0  0  0  0  0  0  0  0  0  0  0  0
   -7.9214    5.7361  -11.0655 C   0  0  0  0  0  0  0  0  0  0  0  0
   -7.9930    5.8963   -9.6926 C   0  0  0  0  0  0  0  0  0  0  0  0
   -7.8596    7.1204   -9.1625 F   0  0  0  0  0  0  0  0  0  0  0  0
   -8.1715    4.8134   -8.8572 C   0  0  0  0  0  0  0  0  0  0  0  0
   -8.2732    3.5282   -9.3901 C   0  0  0  0  0  0  0  0  0  0  0  0
   -8.3950    2.3915   -8.5697 N   0  0  0  0  0  0  0  0  0  0  0  0
   -7.8340    2.4446   -7.2109 C   0  0  0  0  0  0  0  0  0  0  0  0
   -9.0456    2.5445   -6.2976 C   0  0  0  0  0  0  0  0  0  0  0  0
  -10.0278    1.6384   -7.0003 C   0  0  0  0  0  0  0  0  0  0  0  0
   -9.8046    1.9846   -8.4690 C   0  0  0  0  0  0  0  0  0  0  0  0
   -8.2824    3.3868  -10.7982 C   0  0  0  0  0  0  0  0  0  0  0  0
   -7.8865    5.1147  -15.4022 C   0  0  0  0  0  0  0  0  0  0  0  0
   -8.9966    4.6243  -16.1269 C   0  0  0  0  0  0  0  0  0  0  0  0
   -8.9706    4.4672  -17.5063 C   0  0  0  0  0  0  0  0  0  0  0  0
  -10.4073    4.0622  -18.3493 Cl  0  0  0  0  0  0  0  0  0  0  0  0
   -7.8173    4.7124  -18.2377 C   0  0  0  0  0  0  0  0  0  0  0  0
   -6.6890    5.1340  -17.5295 C   0  0  0  0  0  0  0  0  0  0  0  0
   -6.6978    5.3286  -16.1488 C   0  0  0  0  0  0  0  0  0  0  0  0
   -5.3800    5.7608  -15.8626 C   0  0  0  0  0  0  0  0  0  0  0  0
   -4.6005    5.8417  -16.9467 N   0  0  0  0  0  0  0  0  0  0  0  0
   -5.4230    5.4724  -17.9475 N   0  0  0  0  0  0  0  0  0  0  0  0
   -5.0303    5.4678  -19.3674 C   0  0  0  0  0  0  0  0  0  0  0  0
   -3.5203    5.4365  -19.6515 C   0  0  0  0  0  0  0  0  0  0  0  0
   -3.7687    6.4120  -20.7595 N   0  0  0  0  0  0  0  0  0  0  0  0
   -4.9510    6.8804  -19.9728 C   0  0  0  0  0  0  0  0  0  0  0  0
  1  2  2  0
  2  3  1  0
  2  4  1  0
  4  5  1  1
  5  6  1  0
  6  7  2  0
  7  8  1  0
  8  9  1  0
  8 10  2  0
 10 11  1  0
 11 12  1  0
 12 13  1  0
 13 14  1  0
 14 15  1  0
 15 16  1  0
 11 17  2  0
  4 18  1  0
 18 19  2  0
 19 20  1  0
 20 21  1  0
 20 22  2  0
 22 23  1  0
 23 24  2  0
 24 25  1  0
 25 26  2  0
 26 27  1  0
 27 28  1  0
 28 29  1  0
 29 30  1  0
 30 31  1  0
 17  6  1  0
 24 18  1  0
 31 28  1  0
 16 12  1  0
 27 23  1  0
M  CHG  1   3  -1
M  END
>  <smiles>  (2486) 
C37333-P277

>  <fragmenstein_outcome>  (2486) 
acceptable

>  <inchikey>  (2486) 
OXJUTCNZUAHHTM-UHFFFAOYSA-N

>  <fragmenstein_mode>  (2486) 
expansion

>  <HIPPO Pose ID>  (2486) 
28333

>  <Energy>  (2486) 
156.10334

>  <fragmenstein_error>  (2486) 


>  <tags>  (2486) 
{'openbind_xx01zvns2b_c1_fragmenstein', 'fragmenstein_placed'}

>  <ref_pdb>  (2486) 
175

>  <scratch_subdir>  (2486) 
/opt/xchem-fragalysis-2/maxwin/BulkDock/SCRATCH/511028/C37333-P277

>  <alias>  (2486) 
O=C([O-])[C@@H](Nc1cc(F)cc(N2CCCC2)c1)c1cc(Cl)cc2c1cnn2C1CNC1

>  <HIPPO Compound ID>  (2486) 
40883

>  <fragmenstein_runtime>  (2486) 
10.605411

$$$$
CNC(=O)[C@](O)(Nc1cc(F)cc(N2CCCC2)c1)c1cc(Cl)cc2c1cnn2C1CNC1
     RDKit          3D

 33 37  0  0  0  0  0  0  0  0999 V2000
   -3.9990    3.0372  -12.5658 C   0  0  0  0  0  0  0  0  0  0  0  0
   -5.1105    3.8347  -12.9881 N   0  0  0  0  0  0  0  0  0  0  0  0
   -6.6096    3.4598  -13.1767 C   0  0  0  0  0  0  0  0  0  0  0  0
   -7.1777    2.4628  -12.9417 O   0  0  0  0  0  0  0  0  0  0  0  0
   -7.3731    4.7822  -13.7137 C   0  0  2  0  0  0  0  0  0  0  0  0
   -6.6655    5.9771  -13.3907 O   0  0  0  0  0  0  0  0  0  0  0  0
   -8.7104    4.7998  -13.0687 N   0  0  0  0  0  0  0  0  0  0  0  0
   -8.7067    5.0525  -11.6738 C   0  0  0  0  0  0  0  0  0  0  0  0
   -8.6333    6.3690  -11.2264 C   0  0  0  0  0  0  0  0  0  0  0  0
   -8.5233    6.6272   -9.8737 C   0  0  0  0  0  0  0  0  0  0  0  0
   -8.4039    7.8943   -9.4548 F   0  0  0  0  0  0  0  0  0  0  0  0
   -8.5194    5.5982   -8.9441 C   0  0  0  0  0  0  0  0  0  0  0  0
   -8.6587    4.2626   -9.3339 C   0  0  0  0  0  0  0  0  0  0  0  0
   -8.7219    3.2652   -8.3857 N   0  0  0  0  0  0  0  0  0  0  0  0
   -9.0828    3.5231   -6.9880 C   0  0  0  0  0  0  0  0  0  0  0  0
   -9.8561    2.2853   -6.5619 C   0  0  0  0  0  0  0  0  0  0  0  0
   -9.1857    1.2049   -7.3784 C   0  0  0  0  0  0  0  0  0  0  0  0
   -8.9490    1.8665   -8.7272 C   0  0  0  0  0  0  0  0  0  0  0  0
   -8.7087    4.0132  -10.7209 C   0  0  0  0  0  0  0  0  0  0  0  0
   -7.4934    4.8038  -15.2529 C   0  0  0  0  0  0  0  0  0  0  0  0
   -8.7213    4.5288  -15.9182 C   0  0  0  0  0  0  0  0  0  0  0  0
   -8.8415    4.5223  -17.3101 C   0  0  0  0  0  0  0  0  0  0  0  0
  -10.3565    4.2157  -18.0652 Cl  0  0  0  0  0  0  0  0  0  0  0  0
   -7.7550    4.7936  -18.1284 C   0  0  0  0  0  0  0  0  0  0  0  0
   -6.5501    5.1140  -17.5028 C   0  0  0  0  0  0  0  0  0  0  0  0
   -6.4039    5.1368  -16.1141 C   0  0  0  0  0  0  0  0  0  0  0  0
   -5.0635    5.5614  -15.9384 C   0  0  0  0  0  0  0  0  0  0  0  0
   -4.4042    5.7449  -17.0807 N   0  0  0  0  0  0  0  0  0  0  0  0
   -5.3185    5.4516  -18.0208 N   0  0  0  0  0  0  0  0  0  0  0  0
   -5.0294    5.4999  -19.4632 C   0  0  0  0  0  0  0  0  0  0  0  0
   -3.5344    5.4876  -19.8325 C   0  0  0  0  0  0  0  0  0  0  0  0
   -3.8414    6.5089  -20.8765 N   0  0  0  0  0  0  0  0  0  0  0  0
   -4.9906    6.9316  -20.0243 C   0  0  0  0  0  0  0  0  0  0  0  0
  1  2  1  0
  2  3  1  0
  3  4  2  0
  3  5  1  0
  5  6  1  1
  5  7  1  0
  7  8  1  0
  8  9  2  0
  9 10  1  0
 10 11  1  0
 10 12  2  0
 12 13  1  0
 13 14  1  0
 14 15  1  0
 15 16  1  0
 16 17  1  0
 17 18  1  0
 13 19  2  0
  5 20  1  0
 20 21  2  0
 21 22  1  0
 22 23  1  0
 22 24  2  0
 24 25  1  0
 25 26  2  0
 26 27  1  0
 27 28  2  0
 28 29  1  0
 29 30  1  0
 30 31  1  0
 31 32  1  0
 32 33  1  0
 19  8  1  0
 26 20  1  0
 33 30  1  0
 18 14  1  0
 29 25  1  0
M  END
>  <smiles>  (2487) 
C37355-P277

>  <fragmenstein_outcome>  (2487) 
acceptable

>  <inchikey>  (2487) 
ZESYTFLPEVNJTR-UHFFFAOYSA-N

>  <fragmenstein_mode>  (2487) 
expansion

>  <HIPPO Pose ID>  (2487) 
28341

>  <Energy>  (2487) 
103.949905

>  <fragmenstein_error>  (2487) 


>  <tags>  (2487) 
{'openbind_xx01zvns2b_c1_fragmenstein', 'fragmenstein_placed'}

>  <ref_pdb>  (2487) 
175

>  <scratch_subdir>  (2487) 
/opt/xchem-fragalysis-2/maxwin/BulkDock/SCRATCH/511028/C37355-P277

>  <alias>  (2487) 
CNC(=O)[C@](O)(Nc1cc(F)cc(N2CCCC2)c1)c1cc(Cl)cc2c1cnn2C1CNC1

>  <HIPPO Compound ID>  (2487) 
37355

>  <fragmenstein_runtime>  (2487) 
18.481987

$$$$
O=C(Nc1cc(F)cc(N2CCCC2)c1)c1cc(Cl)cc2c1c[n+]([O-])n2C1CNC1
     RDKit          3D

 30 34  0  0  0  0  0  0  0  0999 V2000
   -8.6300    6.5982  -13.8650 O   0  0  0  0  0  0  0  0  0  0  0  0
   -8.3027    5.4799  -13.9276 C   0  0  0  0  0  0  0  0  0  0  0  0
   -8.1302    4.4258  -12.8171 N   0  0  0  0  0  0  0  0  0  0  0  0
   -8.2284    4.5455  -11.4327 C   0  0  0  0  0  0  0  0  0  0  0  0
   -8.3160    5.8178  -10.8717 C   0  0  0  0  0  0  0  0  0  0  0  0
   -8.3725    5.9612   -9.4979 C   0  0  0  0  0  0  0  0  0  0  0  0
   -8.4484    7.1878   -8.9640 F   0  0  0  0  0  0  0  0  0  0  0  0
   -8.3642    4.8572   -8.6648 C   0  0  0  0  0  0  0  0  0  0  0  0
   -8.2992    3.5661   -9.1997 C   0  0  0  0  0  0  0  0  0  0  0  0
   -8.3873    2.4166   -8.3947 N   0  0  0  0  0  0  0  0  0  0  0  0
   -7.8926    2.4992   -7.0085 C   0  0  0  0  0  0  0  0  0  0  0  0
   -9.1515    2.5854   -6.1586 C   0  0  0  0  0  0  0  0  0  0  0  0
  -10.0722    1.6352   -6.8847 C   0  0  0  0  0  0  0  0  0  0  0  0
   -9.7845    1.9430   -8.3494 C   0  0  0  0  0  0  0  0  0  0  0  0
   -8.2183    3.4216  -10.6009 C   0  0  0  0  0  0  0  0  0  0  0  0
   -7.9056    4.9945  -15.2575 C   0  0  0  0  0  0  0  0  0  0  0  0
   -8.9024    4.6061  -16.1464 C   0  0  0  0  0  0  0  0  0  0  0  0
   -8.6055    4.4975  -17.4957 C   0  0  0  0  0  0  0  0  0  0  0  0
   -9.8727    4.0620  -18.5688 Cl  0  0  0  0  0  0  0  0  0  0  0  0
   -7.3349    4.8019  -18.0068 C   0  0  0  0  0  0  0  0  0  0  0  0
   -6.3271    5.1699  -17.1005 C   0  0  0  0  0  0  0  0  0  0  0  0
   -6.5802    5.2273  -15.6948 C   0  0  0  0  0  0  0  0  0  0  0  0
   -5.3741    5.5825  -14.9684 C   0  0  0  0  0  0  0  0  0  0  0  0
   -4.4090    5.7498  -15.8798 N   0  0  0  0  0  0  0  0  0  0  0  0
   -3.1936    6.0165  -15.7216 O   0  0  0  0  0  0  0  0  0  0  0  0
   -5.0054    5.5808  -17.2239 N   0  0  0  0  0  0  0  0  0  0  0  0
   -4.2504    5.9930  -18.4256 C   0  0  0  0  0  0  0  0  0  0  0  0
   -4.1661    4.9838  -19.5686 C   0  0  0  0  0  0  0  0  0  0  0  0
   -4.2128    6.1388  -20.5009 N   0  0  0  0  0  0  0  0  0  0  0  0
   -4.9711    6.8827  -19.4557 C   0  0  0  0  0  0  0  0  0  0  0  0
  1  2  2  0
  2  3  1  0
  3  4  1  0
  4  5  2  0
  5  6  1  0
  6  7  1  0
  6  8  2  0
  8  9  1  0
  9 10  1  0
 10 11  1  0
 11 12  1  0
 12 13  1  0
 13 14  1  0
  9 15  2  0
  2 16  1  0
 16 17  2  0
 17 18  1  0
 18 19  1  0
 18 20  2  0
 20 21  1  0
 21 22  2  0
 22 23  1  0
 23 24  2  0
 24 25  1  0
 24 26  1  0
 26 27  1  0
 27 28  1  0
 28 29  1  0
 29 30  1  0
 15  4  1  0
 22 16  1  0
 30 27  1  0
 14 10  1  0
 26 21  1  0
M  CHG  2  24   1  25  -1
M  END
>  <smiles>  (2488) 
C37264-P277

>  <fragmenstein_outcome>  (2488) 
acceptable

>  <inchikey>  (2488) 
YYNZABYFMHAFAK-UHFFFAOYSA-N

>  <fragmenstein_mode>  (2488) 
expansion

>  <HIPPO Pose ID>  (2488) 
28343

>  <Energy>  (2488) 
66.2021

>  <fragmenstein_error>  (2488) 


>  <tags>  (2488) 
{'openbind_xx01zvns2b_c1_fragmenstein', 'fragmenstein_placed'}

>  <ref_pdb>  (2488) 
175

>  <scratch_subdir>  (2488) 
/opt/xchem-fragalysis-2/maxwin/BulkDock/SCRATCH/511028/C37264-P277

>  <alias>  (2488) 
O=C(Nc1cc(F)cc(N2CCCC2)c1)c1cc(Cl)cc2c1c[n+]([O-])n2C1CNC1

>  <HIPPO Compound ID>  (2488) 
37264

>  <fragmenstein_runtime>  (2488) 
17.305357

$$$$
Cn1cc2c(C(=O)Nc3cc(F)cc(N4CCCC4)c3)cc(Cl)cc2c1C1CNC1
     RDKit          3D

 30 34  0  0  0  0  0  0  0  0999 V2000
   -3.1923    6.0288  -16.8272 C   0  0  0  0  0  0  0  0  0  0  0  0
   -4.5824    5.6386  -16.8602 N   0  0  0  0  0  0  0  0  0  0  0  0
   -5.3498    5.5759  -15.7179 C   0  0  0  0  0  0  0  0  0  0  0  0
   -6.6094    5.1892  -16.0890 C   0  0  0  0  0  0  0  0  0  0  0  0
   -7.7308    5.0695  -15.2658 C   0  0  0  0  0  0  0  0  0  0  0  0
   -7.7839    5.6821  -13.9340 C   0  0  0  0  0  0  0  0  0  0  0  0
   -7.5109    6.8175  -13.8839 O   0  0  0  0  0  0  0  0  0  0  0  0
   -8.1045    4.6776  -12.8033 N   0  0  0  0  0  0  0  0  0  0  0  0
   -8.2444    4.8746  -11.4280 C   0  0  0  0  0  0  0  0  0  0  0  0
   -8.0483    6.1582  -10.9276 C   0  0  0  0  0  0  0  0  0  0  0  0
   -8.1247    6.3863   -9.5710 C   0  0  0  0  0  0  0  0  0  0  0  0
   -7.9092    7.6196   -9.0927 F   0  0  0  0  0  0  0  0  0  0  0  0
   -8.4138    5.3584   -8.6964 C   0  0  0  0  0  0  0  0  0  0  0  0
   -8.6536    4.0568   -9.1529 C   0  0  0  0  0  0  0  0  0  0  0  0
   -8.9978    3.0851   -8.2498 N   0  0  0  0  0  0  0  0  0  0  0  0
   -9.2896    3.3406   -6.8402 C   0  0  0  0  0  0  0  0  0  0  0  0
  -10.0596    2.1093   -6.4065 C   0  0  0  0  0  0  0  0  0  0  0  0
   -9.3638    1.0372   -7.2109 C   0  0  0  0  0  0  0  0  0  0  0  0
   -9.0981    1.6740   -8.5655 C   0  0  0  0  0  0  0  0  0  0  0  0
   -8.5401    3.8258  -10.5441 C   0  0  0  0  0  0  0  0  0  0  0  0
   -8.8743    4.6717  -15.9870 C   0  0  0  0  0  0  0  0  0  0  0  0
   -8.8591    4.4701  -17.4094 C   0  0  0  0  0  0  0  0  0  0  0  0
  -10.3578    4.1337  -18.2005 Cl  0  0  0  0  0  0  0  0  0  0  0  0
   -7.7237    4.6293  -18.2397 C   0  0  0  0  0  0  0  0  0  0  0  0
   -6.6035    4.9929  -17.4972 C   0  0  0  0  0  0  0  0  0  0  0  0
   -5.3512    5.3349  -17.9695 C   0  0  0  0  0  0  0  0  0  0  0  0
   -4.9762    5.4355  -19.4864 C   0  0  0  0  0  0  0  0  0  0  0  0
   -3.5092    5.3422  -19.9420 C   0  0  0  0  0  0  0  0  0  0  0  0
   -3.7814    6.4227  -20.9237 N   0  0  0  0  0  0  0  0  0  0  0  0
   -4.8934    6.8730  -20.0437 C   0  0  0  0  0  0  0  0  0  0  0  0
  1  2  1  0
  2  3  1  0
  3  4  2  0
  4  5  1  0
  5  6  1  0
  6  7  2  0
  6  8  1  0
  8  9  1  0
  9 10  2  0
 10 11  1  0
 11 12  1  0
 11 13  2  0
 13 14  1  0
 14 15  1  0
 15 16  1  0
 16 17  1  0
 17 18  1  0
 18 19  1  0
 14 20  2  0
  5 21  2  0
 21 22  1  0
 22 23  1  0
 22 24  2  0
 24 25  1  0
 25 26  2  0
 26 27  1  0
 27 28  1  0
 28 29  1  0
 29 30  1  0
 26  2  1  0
 30 27  1  0
 25  4  1  0
 20  9  1  0
 19 15  1  0
M  END
>  <smiles>  (2489) 
C37255-P277

>  <fragmenstein_outcome>  (2489) 
acceptable

>  <inchikey>  (2489) 
CZLOGUWXQFFTQU-UHFFFAOYSA-N

>  <fragmenstein_mode>  (2489) 
expansion

>  <HIPPO Pose ID>  (2489) 
28344

>  <Energy>  (2489) 
84.359754

>  <fragmenstein_error>  (2489) 


>  <tags>  (2489) 
{'openbind_xx01zvns2b_c1_fragmenstein', 'fragmenstein_placed'}

>  <ref_pdb>  (2489) 
175

>  <scratch_subdir>  (2489) 
/opt/xchem-fragalysis-2/maxwin/BulkDock/SCRATCH/511028/C37255-P277

>  <alias>  (2489) 
Cn1cc2c(C(=O)Nc3cc(F)cc(N4CCCC4)c3)cc(Cl)cc2c1C1CNC1

>  <HIPPO Compound ID>  (2489) 
37255

>  <fragmenstein_runtime>  (2489) 
28.819822

$$$$
O=C(Nc1cc(F)cc(N2CCCC2)c1)c1cc(Cl)cc2c1[C@]1(CNCN1)NN2C1CNC1
     RDKit          3D

 33 38  0  0  0  0  0  0  0  0999 V2000
   -7.9133    6.8890  -14.0226 O   0  0  0  0  0  0  0  0  0  0  0  0
   -7.9447    5.7215  -14.0691 C   0  0  0  0  0  0  0  0  0  0  0  0
   -8.1439    4.6785  -12.9448 N   0  0  0  0  0  0  0  0  0  0  0  0
   -8.2477    4.8444  -11.5604 C   0  0  0  0  0  0  0  0  0  0  0  0
   -8.0466    6.1210  -11.0461 C   0  0  0  0  0  0  0  0  0  0  0  0
   -8.0938    6.3183   -9.6849 C   0  0  0  0  0  0  0  0  0  0  0  0
   -7.8419    7.5197   -9.1662 F   0  0  0  0  0  0  0  0  0  0  0  0
   -8.3706    5.2875   -8.8206 C   0  0  0  0  0  0  0  0  0  0  0  0
   -8.6213    3.9976   -9.2846 C   0  0  0  0  0  0  0  0  0  0  0  0
   -8.9461    3.0350   -8.3660 N   0  0  0  0  0  0  0  0  0  0  0  0
   -9.2689    3.3230   -6.9653 C   0  0  0  0  0  0  0  0  0  0  0  0
  -10.0449    2.1045   -6.5100 C   0  0  0  0  0  0  0  0  0  0  0  0
   -9.3552    1.0149   -7.2936 C   0  0  0  0  0  0  0  0  0  0  0  0
   -9.0807    1.6263   -8.6587 C   0  0  0  0  0  0  0  0  0  0  0  0
   -8.5235    3.7811  -10.6809 C   0  0  0  0  0  0  0  0  0  0  0  0
   -7.7623    5.1482  -15.4078 C   0  0  0  0  0  0  0  0  0  0  0  0
   -8.8948    4.6995  -16.0908 C   0  0  0  0  0  0  0  0  0  0  0  0
   -8.8326    4.4901  -17.4721 C   0  0  0  0  0  0  0  0  0  0  0  0
  -10.2654    4.0849  -18.3254 Cl  0  0  0  0  0  0  0  0  0  0  0  0
   -7.6512    4.6929  -18.1833 C   0  0  0  0  0  0  0  0  0  0  0  0
   -6.5324    5.1155  -17.4899 C   0  0  0  0  0  0  0  0  0  0  0  0
   -6.5784    5.3529  -16.1092 C   0  0  0  0  0  0  0  0  0  0  0  0
   -5.2117    5.7885  -15.6809 C   0  0  1  0  0  0  0  0  0  0  0  0
   -4.9868    6.9749  -14.7320 C   0  0  0  0  0  0  0  0  0  0  0  0
   -3.5902    6.7548  -14.2914 N   0  0  0  0  0  0  0  0  0  0  0  0
   -3.6013    5.3182  -14.0367 C   0  0  0  0  0  0  0  0  0  0  0  0
   -4.4628    4.7099  -15.0368 N   0  0  0  0  0  0  0  0  0  0  0  0
   -4.4690    6.0234  -16.9670 N   0  0  0  0  0  0  0  0  0  0  0  0
   -5.2467    5.3916  -17.9950 N   0  0  0  0  0  0  0  0  0  0  0  0
   -4.8066    5.3243  -19.3650 C   0  0  0  0  0  0  0  0  0  0  0  0
   -3.2737    5.2081  -19.5408 C   0  0  0  0  0  0  0  0  0  0  0  0
   -3.3507    6.2116  -20.6226 N   0  0  0  0  0  0  0  0  0  0  0  0
   -4.6477    6.6828  -20.0745 C   0  0  0  0  0  0  0  0  0  0  0  0
  1  2  2  0
  2  3  1  0
  3  4  1  0
  4  5  2  0
  5  6  1  0
  6  7  1  0
  6  8  2  0
  8  9  1  0
  9 10  1  0
 10 11  1  0
 11 12  1  0
 12 13  1  0
 13 14  1  0
  9 15  2  0
  2 16  1  0
 16 17  2  0
 17 18  1  0
 18 19  1  0
 18 20  2  0
 20 21  1  0
 21 22  2  0
 22 23  1  0
 23 24  1  1
 24 25  1  0
 25 26  1  0
 26 27  1  0
 23 28  1  0
 28 29  1  0
 29 30  1  0
 30 31  1  0
 31 32  1  0
 32 33  1  0
 15  4  1  0
 22 16  1  0
 27 23  1  0
 33 30  1  0
 14 10  1  0
 29 21  1  0
M  END
>  <smiles>  (2490) 
C37364-P277

>  <fragmenstein_outcome>  (2490) 
acceptable

>  <inchikey>  (2490) 
GHWMFKBSZBTFMR-UHFFFAOYSA-N

>  <fragmenstein_mode>  (2490) 
expansion

>  <HIPPO Pose ID>  (2490) 
28345

>  <Energy>  (2490) 
51.313465

>  <fragmenstein_error>  (2490) 


>  <tags>  (2490) 
{'openbind_xx01zvns2b_c1_fragmenstein', 'fragmenstein_placed'}

>  <ref_pdb>  (2490) 
175

>  <scratch_subdir>  (2490) 
/opt/xchem-fragalysis-2/maxwin/BulkDock/SCRATCH/511028/C37364-P277

>  <alias>  (2490) 
O=C(Nc1cc(F)cc(N2CCCC2)c1)c1cc(Cl)cc2c1[C@]1(CNCN1)NN2C1CNC1

>  <HIPPO Compound ID>  (2490) 
35235

>  <fragmenstein_runtime>  (2490) 
19.906469

$$$$
O=C(Nc1cc(F)cc(N2CCCC2)c1)c1cc(Cl)cc2c1C[C@]13CCCC[C@H]1O[C@H]1NCC[C@H]1N23
     RDKit          3D

 36 42  0  0  0  0  0  0  0  0999 V2000
   -7.5269    6.7957  -13.8162 O   0  0  0  0  0  0  0  0  0  0  0  0
   -7.7264    5.6719  -14.0638 C   0  0  0  0  0  0  0  0  0  0  0  0
   -8.0461    4.4816  -13.1306 N   0  0  0  0  0  0  0  0  0  0  0  0
   -8.2730    4.4445  -11.7533 C   0  0  0  0  0  0  0  0  0  0  0  0
   -8.5967    3.2373  -11.1507 C   0  0  0  0  0  0  0  0  0  0  0  0
   -8.8180    3.2062   -9.7821 C   0  0  0  0  0  0  0  0  0  0  0  0
   -9.1554    2.0501   -9.1944 F   0  0  0  0  0  0  0  0  0  0  0  0
   -8.7081    4.3562   -9.0029 C   0  0  0  0  0  0  0  0  0  0  0  0
   -8.3808    5.5915   -9.5740 C   0  0  0  0  0  0  0  0  0  0  0  0
   -8.2645    6.7370   -8.8192 N   0  0  0  0  0  0  0  0  0  0  0  0
   -8.0983    8.0721   -9.3952 C   0  0  0  0  0  0  0  0  0  0  0  0
   -8.3505    9.0206   -8.2269 C   0  0  0  0  0  0  0  0  0  0  0  0
   -7.9353    8.2054   -7.0156 C   0  0  0  0  0  0  0  0  0  0  0  0
   -8.4049    6.7974   -7.3688 C   0  0  0  0  0  0  0  0  0  0  0  0
   -8.1648    5.5987  -10.9663 C   0  0  0  0  0  0  0  0  0  0  0  0
   -7.6533    5.2489  -15.4783 C   0  0  0  0  0  0  0  0  0  0  0  0
   -8.7928    4.8026  -16.1392 C   0  0  0  0  0  0  0  0  0  0  0  0
   -8.7228    4.5496  -17.5108 C   0  0  0  0  0  0  0  0  0  0  0  0
  -10.1539    4.0940  -18.3464 Cl  0  0  0  0  0  0  0  0  0  0  0  0
   -7.5268    4.7070  -18.2232 C   0  0  0  0  0  0  0  0  0  0  0  0
   -6.3877    5.1388  -17.5591 C   0  0  0  0  0  0  0  0  0  0  0  0
   -6.4724    5.4132  -16.1959 C   0  0  0  0  0  0  0  0  0  0  0  0
   -5.1383    5.8249  -15.6811 C   0  0  0  0  0  0  0  0  0  0  0  0
   -4.3267    6.0521  -17.0039 C   0  0  2  0  0  0  0  0  0  0  0  0
   -2.9162    5.4372  -16.7930 C   0  0  0  0  0  0  0  0  0  0  0  0
   -1.7593    6.3051  -17.2739 C   0  0  0  0  0  0  0  0  0  0  0  0
   -1.7999    7.7159  -16.6992 C   0  0  0  0  0  0  0  0  0  0  0  0
   -3.2088    8.2815  -16.4972 C   0  0  0  0  0  0  0  0  0  0  0  0
   -4.2805    7.5828  -17.3370 C   0  0  1  0  0  0  0  0  0  0  0  0
   -3.9571    7.8803  -18.7006 O   0  0  0  0  0  0  0  0  0  0  0  0
   -4.8465    7.2747  -19.6366 C   0  0  1  0  0  0  0  0  0  0  0  0
   -4.2526    7.4156  -20.9733 N   0  0  0  0  0  0  0  0  0  0  0  0
   -3.1461    6.4507  -20.9422 C   0  0  0  0  0  0  0  0  0  0  0  0
   -3.6449    5.2694  -20.1115 C   0  0  0  0  0  0  0  0  0  0  0  0
   -4.9392    5.7508  -19.4612 C   0  0  1  0  0  0  0  0  0  0  0  0
   -5.0832    5.3055  -18.0692 N   0  0  0  0  0  0  0  0  0  0  0  0
  1  2  2  0
  2  3  1  0
  3  4  1  0
  4  5  2  0
  5  6  1  0
  6  7  1  0
  6  8  2  0
  8  9  1  0
  9 10  1  0
 10 11  1  0
 11 12  1  0
 12 13  1  0
 13 14  1  0
  9 15  2  0
  2 16  1  0
 16 17  2  0
 17 18  1  0
 18 19  1  0
 18 20  2  0
 20 21  1  0
 21 22  2  0
 22 23  1  0
 24 23  1  1
 24 25  1  0
 25 26  1  0
 26 27  1  0
 27 28  1  0
 29 28  1  1
 29 30  1  0
 30 31  1  0
 31 32  1  6
 32 33  1  0
 33 34  1  0
 35 34  1  1
 35 36  1  0
 15  4  1  0
 22 16  1  0
 29 24  1  0
 35 31  1  0
 14 10  1  0
 36 21  1  0
 36 24  1  0
M  END
>  <smiles>  (2491) 
C37378-P277

>  <fragmenstein_outcome>  (2491) 
acceptable

>  <inchikey>  (2491) 
KDVINVGGQBVTGF-UHFFFAOYSA-N

>  <fragmenstein_mode>  (2491) 
expansion

>  <HIPPO Pose ID>  (2491) 
28346

>  <Energy>  (2491) 
124.627802

>  <fragmenstein_error>  (2491) 


>  <tags>  (2491) 
{'openbind_xx01zvns2b_c1_fragmenstein', 'fragmenstein_placed'}

>  <ref_pdb>  (2491) 
175

>  <scratch_subdir>  (2491) 
/opt/xchem-fragalysis-2/maxwin/BulkDock/SCRATCH/511028/C37378-P277

>  <alias>  (2491) 
O=C(Nc1cc(F)cc(N2CCCC2)c1)c1cc(Cl)cc2c1C[C@]13CCCC[C@H]1O[C@H]1NCC[C@H]1N23

>  <HIPPO Compound ID>  (2491) 
27133

>  <fragmenstein_runtime>  (2491) 
11.928093

$$$$
Nc1c(F)cc(N2CCCC2)cc1NC(=O)c1cc(Cl)cc2c1cnn2C1CNC1
     RDKit          3D

 30 34  0  0  0  0  0  0  0  0999 V2000
   -7.4723    7.2967  -11.5608 N   0  0  0  0  0  0  0  0  0  0  0  0
   -8.0469    6.1675  -10.9398 C   0  0  0  0  0  0  0  0  0  0  0  0
   -8.2062    6.2457   -9.5520 C   0  0  0  0  0  0  0  0  0  0  0  0
   -8.0002    7.4209   -8.9314 F   0  0  0  0  0  0  0  0  0  0  0  0
   -8.5452    5.1521   -8.7818 C   0  0  0  0  0  0  0  0  0  0  0  0
   -8.7337    3.9032   -9.3685 C   0  0  0  0  0  0  0  0  0  0  0  0
   -9.0726    2.7733   -8.6076 N   0  0  0  0  0  0  0  0  0  0  0  0
   -9.7803    3.0021   -7.3269 C   0  0  0  0  0  0  0  0  0  0  0  0
   -8.7581    2.7168   -6.2452 C   0  0  0  0  0  0  0  0  0  0  0  0
   -8.0638    1.5399   -6.8640 C   0  0  0  0  0  0  0  0  0  0  0  0
   -7.8855    1.9462   -8.3172 C   0  0  0  0  0  0  0  0  0  0  0  0
   -8.5356    3.7889  -10.7596 C   0  0  0  0  0  0  0  0  0  0  0  0
   -8.2018    4.9064  -11.5541 C   0  0  0  0  0  0  0  0  0  0  0  0
   -8.0331    4.6935  -12.9365 N   0  0  0  0  0  0  0  0  0  0  0  0
   -7.8635    5.6998  -14.0913 C   0  0  0  0  0  0  0  0  0  0  0  0
   -7.7594    6.8633  -14.0731 O   0  0  0  0  0  0  0  0  0  0  0  0
   -7.7128    5.0826  -15.4137 C   0  0  0  0  0  0  0  0  0  0  0  0
   -8.8376    4.7004  -16.1391 C   0  0  0  0  0  0  0  0  0  0  0  0
   -8.7291    4.5523  -17.5168 C   0  0  0  0  0  0  0  0  0  0  0  0
  -10.1413    4.1587  -18.4160 Cl  0  0  0  0  0  0  0  0  0  0  0  0
   -7.5300    4.8136  -18.2027 C   0  0  0  0  0  0  0  0  0  0  0  0
   -6.3976    5.1672  -17.4486 C   0  0  0  0  0  0  0  0  0  0  0  0
   -6.4689    5.2386  -16.0544 C   0  0  0  0  0  0  0  0  0  0  0  0
   -5.1599    5.5369  -15.6327 C   0  0  0  0  0  0  0  0  0  0  0  0
   -4.3096    5.6256  -16.6507 N   0  0  0  0  0  0  0  0  0  0  0  0
   -5.1073    5.5802  -17.7440 N   0  0  0  0  0  0  0  0  0  0  0  0
   -4.6447    6.3716  -18.8938 C   0  0  0  0  0  0  0  0  0  0  0  0
   -3.4692    5.7153  -19.6490 C   0  0  0  0  0  0  0  0  0  0  0  0
   -4.0058    6.3867  -20.8659 N   0  0  0  0  0  0  0  0  0  0  0  0
   -5.3520    6.2783  -20.2358 C   0  0  0  0  0  0  0  0  0  0  0  0
  1  2  1  0
  2  3  2  0
  3  4  1  0
  3  5  1  0
  5  6  2  0
  6  7  1  0
  7  8  1  0
  8  9  1  0
  9 10  1  0
 10 11  1  0
  6 12  1  0
 12 13  2  0
 13 14  1  0
 14 15  1  0
 15 16  2  0
 15 17  1  0
 17 18  2  0
 18 19  1  0
 19 20  1  0
 19 21  2  0
 21 22  1  0
 22 23  2  0
 23 24  1  0
 24 25  2  0
 25 26  1  0
 26 27  1  0
 27 28  1  0
 28 29  1  0
 29 30  1  0
 13  2  1  0
 23 17  1  0
 30 27  1  0
 11  7  1  0
 26 22  1  0
M  END
>  <smiles>  (2492) 
C37379-P277

>  <fragmenstein_outcome>  (2492) 
acceptable

>  <inchikey>  (2492) 
LBEVZDUOWMWVAZ-UHFFFAOYSA-N

>  <fragmenstein_mode>  (2492) 
expansion

>  <HIPPO Pose ID>  (2492) 
28347

>  <Energy>  (2492) 
104.469223

>  <fragmenstein_error>  (2492) 


>  <tags>  (2492) 
{'openbind_xx01zvns2b_c1_fragmenstein', 'fragmenstein_placed'}

>  <ref_pdb>  (2492) 
175

>  <scratch_subdir>  (2492) 
/opt/xchem-fragalysis-2/maxwin/BulkDock/SCRATCH/511028/C37379-P277

>  <alias>  (2492) 
Nc1c(F)cc(N2CCCC2)cc1NC(=O)c1cc(Cl)cc2c1cnn2C1CNC1

>  <HIPPO Compound ID>  (2492) 
37379

>  <fragmenstein_runtime>  (2492) 
18.753218

$$$$
O=C(NCC(F)F)[C@](O)(Nc1cc(F)cc(N2CCCC2)c1)c1cc(Cl)cc2c1cnn2C1CNC1
     RDKit          3D

 36 40  0  0  0  0  0  0  0  0999 V2000
   -7.1033    1.9856  -13.5599 O   0  0  0  0  0  0  0  0  0  0  0  0
   -6.6282    3.0450  -13.4187 C   0  0  0  0  0  0  0  0  0  0  0  0
   -5.2367    3.4591  -12.8571 N   0  0  0  0  0  0  0  0  0  0  0  0
   -4.1134    2.6498  -12.4450 C   0  0  0  0  0  0  0  0  0  0  0  0
   -3.0493    2.5583  -13.5257 C   0  0  0  0  0  0  0  0  0  0  0  0
   -3.4732    1.7824  -14.5523 F   0  0  0  0  0  0  0  0  0  0  0  0
   -1.9300    1.9758  -13.0297 F   0  0  0  0  0  0  0  0  0  0  0  0
   -7.4040    4.4263  -13.7389 C   0  0  2  0  0  0  0  0  0  0  0  0
   -6.6684    5.5693  -13.2970 O   0  0  0  0  0  0  0  0  0  0  0  0
   -8.7177    4.4169  -13.0535 N   0  0  0  0  0  0  0  0  0  0  0  0
   -8.6864    4.3387  -11.6357 C   0  0  0  0  0  0  0  0  0  0  0  0
   -8.7581    3.1126  -10.9821 C   0  0  0  0  0  0  0  0  0  0  0  0
   -8.6862    3.0707   -9.6005 C   0  0  0  0  0  0  0  0  0  0  0  0
   -8.8185    1.8997   -8.9679 F   0  0  0  0  0  0  0  0  0  0  0  0
   -8.5004    4.2273   -8.8499 C   0  0  0  0  0  0  0  0  0  0  0  0
   -8.4516    5.4887   -9.4538 C   0  0  0  0  0  0  0  0  0  0  0  0
   -8.3081    6.6480   -8.7161 N   0  0  0  0  0  0  0  0  0  0  0  0
   -8.4261    6.6792   -7.2547 C   0  0  0  0  0  0  0  0  0  0  0  0
   -8.8632    8.1060   -6.9338 C   0  0  0  0  0  0  0  0  0  0  0  0
   -8.3116    8.9146   -8.0921 C   0  0  0  0  0  0  0  0  0  0  0  0
   -8.5250    7.9824   -9.2791 C   0  0  0  0  0  0  0  0  0  0  0  0
   -8.5472    5.5068  -10.8585 C   0  0  0  0  0  0  0  0  0  0  0  0
   -7.5454    4.6050  -15.2608 C   0  0  0  0  0  0  0  0  0  0  0  0
   -8.7448    4.2882  -15.9499 C   0  0  0  0  0  0  0  0  0  0  0  0
   -8.8611    4.3978  -17.3365 C   0  0  0  0  0  0  0  0  0  0  0  0
  -10.3523    4.0205  -18.1097 Cl  0  0  0  0  0  0  0  0  0  0  0  0
   -7.8003    4.8398  -18.1199 C   0  0  0  0  0  0  0  0  0  0  0  0
   -6.6251    5.2065  -17.4601 C   0  0  0  0  0  0  0  0  0  0  0  0
   -6.4797    5.0883  -16.0770 C   0  0  0  0  0  0  0  0  0  0  0  0
   -5.1666    5.5618  -15.8400 C   0  0  0  0  0  0  0  0  0  0  0  0
   -4.5485    5.9889  -16.9387 N   0  0  0  0  0  0  0  0  0  0  0  0
   -5.4416    5.7496  -17.9187 N   0  0  0  0  0  0  0  0  0  0  0  0
   -5.2607    6.2935  -19.2769 C   0  0  0  0  0  0  0  0  0  0  0  0
   -3.8000    6.6614  -19.6238 C   0  0  0  0  0  0  0  0  0  0  0  0
   -4.0386    6.1010  -20.9803 N   0  0  0  0  0  0  0  0  0  0  0  0
   -5.0682    5.2288  -20.3585 C   0  0  0  0  0  0  0  0  0  0  0  0
  1  2  2  0
  2  3  1  0
  3  4  1  0
  4  5  1  0
  5  6  1  0
  5  7  1  0
  2  8  1  0
  8  9  1  1
  8 10  1  0
 10 11  1  0
 11 12  2  0
 12 13  1  0
 13 14  1  0
 13 15  2  0
 15 16  1  0
 16 17  1  0
 17 18  1  0
 18 19  1  0
 19 20  1  0
 20 21  1  0
 16 22  2  0
  8 23  1  0
 23 24  2  0
 24 25  1  0
 25 26  1  0
 25 27  2  0
 27 28  1  0
 28 29  2  0
 29 30  1  0
 30 31  2  0
 31 32  1  0
 32 33  1  0
 33 34  1  0
 34 35  1  0
 35 36  1  0
 22 11  1  0
 29 23  1  0
 36 33  1  0
 21 17  1  0
 32 28  1  0
M  END
>  <smiles>  (2493) 
C37354-P194

>  <fragmenstein_outcome>  (2493) 
acceptable

>  <inchikey>  (2493) 
NTKACNNGQCNXNF-UHFFFAOYSA-N

>  <fragmenstein_mode>  (2493) 
expansion

>  <HIPPO Pose ID>  (2493) 
28351

>  <Energy>  (2493) 
133.242138

>  <fragmenstein_error>  (2493) 


>  <tags>  (2493) 
{'openbind_xx01zvns2b_c1_fragmenstein', 'fragmenstein_placed'}

>  <ref_pdb>  (2493) 
175

>  <scratch_subdir>  (2493) 
/opt/xchem-fragalysis-2/maxwin/BulkDock/SCRATCH/511028/C37354-P194

>  <alias>  (2493) 
O=C(NCC(F)F)[C@](O)(Nc1cc(F)cc(N2CCCC2)c1)c1cc(Cl)cc2c1cnn2C1CNC1

>  <HIPPO Compound ID>  (2493) 
22033

>  <fragmenstein_runtime>  (2493) 
8.048416

$$$$
C[C@H]1NC[C@@H]1c1c2cc(Cl)cc([C@@](O)(Nc3cc(F)cc(N4CCCC4)c3)C(=O)NCC(F)F)c2cn1O
     RDKit          3D

 38 42  0  0  0  0  0  0  0  0999 V2000
   -2.4318    5.9331  -20.8138 C   0  0  0  0  0  0  0  0  0  0  0  0
   -3.3453    6.3230  -19.6648 C   0  0  1  0  0  0  0  0  0  0  0  0
   -4.0827    7.5684  -19.9521 N   0  0  0  0  0  0  0  0  0  0  0  0
   -5.3139    6.7916  -20.1872 C   0  0  0  0  0  0  0  0  0  0  0  0
   -4.7024    5.5784  -19.4527 C   0  0  2  0  0  0  0  0  0  0  0  0
   -5.1809    5.4061  -17.9575 C   0  0  0  0  0  0  0  0  0  0  0  0
   -6.4454    5.1203  -17.4770 C   0  0  0  0  0  0  0  0  0  0  0  0
   -7.5752    4.8362  -18.2286 C   0  0  0  0  0  0  0  0  0  0  0  0
   -8.6749    4.5873  -17.3843 C   0  0  0  0  0  0  0  0  0  0  0  0
  -10.1941    4.2443  -18.1416 Cl  0  0  0  0  0  0  0  0  0  0  0  0
   -8.6264    4.6183  -15.9389 C   0  0  0  0  0  0  0  0  0  0  0  0
   -7.4586    4.8765  -15.1480 C   0  0  0  0  0  0  0  0  0  0  0  0
   -7.4126    4.8812  -13.6174 C   0  0  1  0  0  0  0  0  0  0  0  0
   -6.9647    6.1862  -13.2926 O   0  0  0  0  0  0  0  0  0  0  0  0
   -8.7582    4.7206  -13.0213 N   0  0  0  0  0  0  0  0  0  0  0  0
   -8.7382    4.5969  -11.5958 C   0  0  0  0  0  0  0  0  0  0  0  0
   -8.8842    3.3466  -10.9905 C   0  0  0  0  0  0  0  0  0  0  0  0
   -8.8605    3.2439   -9.6092 C   0  0  0  0  0  0  0  0  0  0  0  0
   -9.0355    2.0481   -9.0313 F   0  0  0  0  0  0  0  0  0  0  0  0
   -8.6728    4.3647   -8.8064 C   0  0  0  0  0  0  0  0  0  0  0  0
   -8.5121    5.6387   -9.3624 C   0  0  0  0  0  0  0  0  0  0  0  0
   -8.3288    6.7577   -8.5817 N   0  0  0  0  0  0  0  0  0  0  0  0
   -8.2513    8.1214   -9.1060 C   0  0  0  0  0  0  0  0  0  0  0  0
   -8.2611    9.0107   -7.8658 C   0  0  0  0  0  0  0  0  0  0  0  0
   -7.6776    8.1212   -6.7841 C   0  0  0  0  0  0  0  0  0  0  0  0
   -8.2399    6.7449   -7.1255 C   0  0  0  0  0  0  0  0  0  0  0  0
   -8.5525    5.7181  -10.7685 C   0  0  0  0  0  0  0  0  0  0  0  0
   -6.4642    3.7025  -13.0494 C   0  0  0  0  0  0  0  0  0  0  0  0
   -6.7902    2.5819  -13.0447 O   0  0  0  0  0  0  0  0  0  0  0  0
   -5.1162    4.3562  -12.6603 N   0  0  0  0  0  0  0  0  0  0  0  0
   -3.8620    3.7576  -12.2762 C   0  0  0  0  0  0  0  0  0  0  0  0
   -3.4282    2.6954  -13.2912 C   0  0  0  0  0  0  0  0  0  0  0  0
   -2.1723    2.2629  -13.0101 F   0  0  0  0  0  0  0  0  0  0  0  0
   -3.3483    3.2560  -14.5331 F   0  0  0  0  0  0  0  0  0  0  0  0
   -6.3977    5.1391  -16.0364 C   0  0  0  0  0  0  0  0  0  0  0  0
   -5.1095    5.4602  -15.7021 C   0  0  0  0  0  0  0  0  0  0  0  0
   -4.3815    5.4507  -16.8525 N   0  0  0  0  0  0  0  0  0  0  0  0
   -3.0024    5.3924  -16.8475 O   0  0  0  0  0  0  0  0  0  0  0  0
  2  1  1  6
  2  3  1  0
  3  4  1  0
  4  5  1  0
  5  6  1  1
  6  7  2  0
  7  8  1  0
  8  9  2  0
  9 10  1  0
  9 11  1  0
 11 12  2  0
 12 13  1  0
 13 14  1  1
 13 15  1  0
 15 16  1  0
 16 17  2  0
 17 18  1  0
 18 19  1  0
 18 20  2  0
 20 21  1  0
 21 22  1  0
 22 23  1  0
 23 24  1  0
 24 25  1  0
 25 26  1  0
 21 27  2  0
 13 28  1  0
 28 29  2  0
 28 30  1  0
 30 31  1  0
 31 32  1  0
 32 33  1  0
 32 34  1  0
 12 35  1  0
 35 36  2  0
 36 37  1  0
 37 38  1  0
  5  2  1  0
 37  6  1  0
 35  7  1  0
 27 16  1  0
 26 22  1  0
M  END
>  <smiles>  (2494) 
C37393-P277

>  <fragmenstein_outcome>  (2494) 
acceptable

>  <inchikey>  (2494) 
NAAWFQKTVSHBBN-UHFFFAOYSA-N

>  <fragmenstein_mode>  (2494) 
expansion

>  <HIPPO Pose ID>  (2494) 
28353

>  <Energy>  (2494) 
117.219128

>  <fragmenstein_error>  (2494) 


>  <tags>  (2494) 
{'openbind_xx01zvns2b_c1_fragmenstein', 'fragmenstein_placed'}

>  <ref_pdb>  (2494) 
175

>  <scratch_subdir>  (2494) 
/opt/xchem-fragalysis-2/maxwin/BulkDock/SCRATCH/511028/C37393-P277

>  <alias>  (2494) 
C[C@H]1NC[C@@H]1c1c2cc(Cl)cc([C@@](O)(Nc3cc(F)cc(N4CCCC4)c3)C(=O)NCC(F)F)c2cn1O

>  <HIPPO Compound ID>  (2494) 
37393

>  <fragmenstein_runtime>  (2494) 
7.046237

$$$$
O=C(NCC(F)F)[C@](O)(Nc1cc(F)cc(N2CCCC2)c1)c1cc(Cl)cc2c1c(F)nn2C1CNC1
     RDKit          3D

 37 41  0  0  0  0  0  0  0  0999 V2000
   -7.2784    2.1687  -12.9218 O   0  0  0  0  0  0  0  0  0  0  0  0
   -6.6424    3.1460  -13.0190 C   0  0  0  0  0  0  0  0  0  0  0  0
   -5.1508    3.4121  -12.6836 N   0  0  0  0  0  0  0  0  0  0  0  0
   -4.1575    2.5550  -12.0693 C   0  0  0  0  0  0  0  0  0  0  0  0
   -2.9369    2.2479  -12.9235 C   0  0  0  0  0  0  0  0  0  0  0  0
   -2.2292    3.3887  -13.1324 F   0  0  0  0  0  0  0  0  0  0  0  0
   -3.2720    1.7816  -14.1448 F   0  0  0  0  0  0  0  0  0  0  0  0
   -7.3246    4.5460  -13.4654 C   0  0  2  0  0  0  0  0  0  0  0  0
   -6.5777    5.6670  -13.0243 O   0  0  0  0  0  0  0  0  0  0  0  0
   -8.6755    4.5809  -12.8197 N   0  0  0  0  0  0  0  0  0  0  0  0
   -8.6828    4.5270  -11.3938 C   0  0  0  0  0  0  0  0  0  0  0  0
   -8.8889    3.3242  -10.7121 C   0  0  0  0  0  0  0  0  0  0  0  0
   -8.8313    3.2944   -9.3271 C   0  0  0  0  0  0  0  0  0  0  0  0
   -9.0539    2.1427   -8.6771 F   0  0  0  0  0  0  0  0  0  0  0  0
   -8.5459    4.4439   -8.5972 C   0  0  0  0  0  0  0  0  0  0  0  0
   -8.3474    5.6782   -9.2302 C   0  0  0  0  0  0  0  0  0  0  0  0
   -8.0687    6.8223   -8.5175 N   0  0  0  0  0  0  0  0  0  0  0  0
   -8.0817    6.9008   -7.0577 C   0  0  0  0  0  0  0  0  0  0  0  0
   -8.0267    8.3973   -6.7590 C   0  0  0  0  0  0  0  0  0  0  0  0
   -7.2973    8.9697   -7.9601 C   0  0  0  0  0  0  0  0  0  0  0  0
   -7.8367    8.1341   -9.1168 C   0  0  0  0  0  0  0  0  0  0  0  0
   -8.4398    5.6856  -10.6366 C   0  0  0  0  0  0  0  0  0  0  0  0
   -7.4360    4.6884  -15.0126 C   0  0  0  0  0  0  0  0  0  0  0  0
   -8.6677    4.4792  -15.7022 C   0  0  0  0  0  0  0  0  0  0  0  0
   -8.7868    4.5303  -17.0963 C   0  0  0  0  0  0  0  0  0  0  0  0
  -10.2861    4.2352  -17.8854 Cl  0  0  0  0  0  0  0  0  0  0  0  0
   -7.7038    4.8303  -17.9028 C   0  0  0  0  0  0  0  0  0  0  0  0
   -6.4978    5.0942  -17.2594 C   0  0  0  0  0  0  0  0  0  0  0  0
   -6.3440    5.0453  -15.8680 C   0  0  0  0  0  0  0  0  0  0  0  0
   -4.9890    5.4229  -15.7019 C   0  0  0  0  0  0  0  0  0  0  0  0
   -4.3963    5.5665  -14.5108 F   0  0  0  0  0  0  0  0  0  0  0  0
   -4.3342    5.6506  -16.8394 N   0  0  0  0  0  0  0  0  0  0  0  0
   -5.2600    5.4106  -17.7786 N   0  0  0  0  0  0  0  0  0  0  0  0
   -4.9889    5.4459  -19.2295 C   0  0  0  0  0  0  0  0  0  0  0  0
   -3.5055    5.4409  -19.6369 C   0  0  0  0  0  0  0  0  0  0  0  0
   -3.8511    6.4422  -20.6896 N   0  0  0  0  0  0  0  0  0  0  0  0
   -4.9811    6.8682  -19.8142 C   0  0  0  0  0  0  0  0  0  0  0  0
  1  2  2  0
  2  3  1  0
  3  4  1  0
  4  5  1  0
  5  6  1  0
  5  7  1  0
  2  8  1  0
  8  9  1  1
  8 10  1  0
 10 11  1  0
 11 12  2  0
 12 13  1  0
 13 14  1  0
 13 15  2  0
 15 16  1  0
 16 17  1  0
 17 18  1  0
 18 19  1  0
 19 20  1  0
 20 21  1  0
 16 22  2  0
  8 23  1  0
 23 24  2  0
 24 25  1  0
 25 26  1  0
 25 27  2  0
 27 28  1  0
 28 29  2  0
 29 30  1  0
 30 31  1  0
 30 32  2  0
 32 33  1  0
 33 34  1  0
 34 35  1  0
 35 36  1  0
 36 37  1  0
 22 11  1  0
 29 23  1  0
 37 34  1  0
 21 17  1  0
 33 28  1  0
M  END
>  <smiles>  (2495) 
C37403-P277

>  <fragmenstein_outcome>  (2495) 
acceptable

>  <inchikey>  (2495) 
OVCLBNQEVQXDTP-UHFFFAOYSA-N

>  <fragmenstein_mode>  (2495) 
expansion

>  <HIPPO Pose ID>  (2495) 
28357

>  <Energy>  (2495) 
126.564818

>  <fragmenstein_error>  (2495) 


>  <tags>  (2495) 
{'openbind_xx01zvns2b_c1_fragmenstein', 'fragmenstein_placed'}

>  <ref_pdb>  (2495) 
175

>  <scratch_subdir>  (2495) 
/opt/xchem-fragalysis-2/maxwin/BulkDock/SCRATCH/511028/C37403-P277

>  <alias>  (2495) 
O=C(NCC(F)F)[C@](O)(Nc1cc(F)cc(N2CCCC2)c1)c1cc(Cl)cc2c1c(F)nn2C1CNC1

>  <HIPPO Compound ID>  (2495) 
37403

>  <fragmenstein_runtime>  (2495) 
7.75847

$$$$
O=C(Nc1cc(F)cc(N2CCCC2)c1)c1cc(Cl)cc2c1cnn2C1CNC1
     RDKit          3D

 29 33  0  0  0  0  0  0  0  0999 V2000
   -7.7355    6.8989  -13.8871 O   0  0  0  0  0  0  0  0  0  0  0  0
   -7.8680    5.7470  -14.0224 C   0  0  0  0  0  0  0  0  0  0  0  0
   -8.0553    4.6321  -12.9734 N   0  0  0  0  0  0  0  0  0  0  0  0
   -8.2085    4.7070  -11.5908 C   0  0  0  0  0  0  0  0  0  0  0  0
   -8.2424    5.9598  -10.9812 C   0  0  0  0  0  0  0  0  0  0  0  0
   -8.3163    6.0518   -9.6038 C   0  0  0  0  0  0  0  0  0  0  0  0
   -8.3456    7.2574   -9.0203 F   0  0  0  0  0  0  0  0  0  0  0  0
   -8.3507    4.9168   -8.8144 C   0  0  0  0  0  0  0  0  0  0  0  0
   -8.3175    3.6462   -9.3984 C   0  0  0  0  0  0  0  0  0  0  0  0
   -8.3743    2.4695   -8.6329 N   0  0  0  0  0  0  0  0  0  0  0  0
   -7.7859    2.4934   -7.2817 C   0  0  0  0  0  0  0  0  0  0  0  0
   -8.9769    2.4932   -6.3362 C   0  0  0  0  0  0  0  0  0  0  0  0
   -9.9409    1.5829   -7.0574 C   0  0  0  0  0  0  0  0  0  0  0  0
   -9.7701    2.0081   -8.5101 C   0  0  0  0  0  0  0  0  0  0  0  0
   -8.2673    3.5522  -10.8044 C   0  0  0  0  0  0  0  0  0  0  0  0
   -7.7450    5.2350  -15.3979 C   0  0  0  0  0  0  0  0  0  0  0  0
   -8.8335    4.6592  -16.0571 C   0  0  0  0  0  0  0  0  0  0  0  0
   -8.7753    4.4805  -17.4378 C   0  0  0  0  0  0  0  0  0  0  0  0
  -10.1776    3.9554  -18.2784 Cl  0  0  0  0  0  0  0  0  0  0  0  0
   -7.6450    4.8315  -18.1877 C   0  0  0  0  0  0  0  0  0  0  0  0
   -6.5692    5.4120  -17.5021 C   0  0  0  0  0  0  0  0  0  0  0  0
   -6.5936    5.5970  -16.1236 C   0  0  0  0  0  0  0  0  0  0  0  0
   -5.3653    6.2235  -15.8231 C   0  0  0  0  0  0  0  0  0  0  0  0
   -4.6270    6.4540  -16.9073 N   0  0  0  0  0  0  0  0  0  0  0  0
   -5.3831    5.9826  -17.9150 N   0  0  0  0  0  0  0  0  0  0  0  0
   -5.0358    6.2139  -19.3217 C   0  0  0  0  0  0  0  0  0  0  0  0
   -3.5886    6.6714  -19.5935 C   0  0  0  0  0  0  0  0  0  0  0  0
   -3.5340    5.6862  -20.7080 N   0  0  0  0  0  0  0  0  0  0  0  0
   -4.5840    4.9268  -19.9894 C   0  0  0  0  0  0  0  0  0  0  0  0
  1  2  2  0
  2  3  1  0
  3  4  1  0
  4  5  2  0
  5  6  1  0
  6  7  1  0
  6  8  2  0
  8  9  1  0
  9 10  1  0
 10 11  1  0
 11 12  1  0
 12 13  1  0
 13 14  1  0
  9 15  2  0
  2 16  1  0
 16 17  2  0
 17 18  1  0
 18 19  1  0
 18 20  2  0
 20 21  1  0
 21 22  2  0
 22 23  1  0
 23 24  2  0
 24 25  1  0
 25 26  1  0
 26 27  1  0
 27 28  1  0
 28 29  1  0
 15  4  1  0
 22 16  1  0
 29 26  1  0
 14 10  1  0
 25 21  1  0
M  END
>  <smiles>  (2496) 
C254-P277

>  <fragmenstein_outcome>  (2496) 
acceptable

>  <inchikey>  (2496) 
KOINTBWNZYBEOK-UHFFFAOYSA-N

>  <fragmenstein_mode>  (2496) 
expansion

>  <HIPPO Pose ID>  (2496) 
28360

>  <Energy>  (2496) 
60.729109

>  <fragmenstein_error>  (2496) 


>  <tags>  (2496) 
{'openbind_xx01zvns2b_c1_fragmenstein', 'fragmenstein_placed'}

>  <ref_pdb>  (2496) 
175

>  <scratch_subdir>  (2496) 
/opt/xchem-fragalysis-2/maxwin/BulkDock/SCRATCH/511028/C254-P277

>  <alias>  (2496) 
O=C(Nc1cc(F)cc(N2CCCC2)c1)c1cc(Cl)cc2c1cnn2C1CNC1

>  <HIPPO Compound ID>  (2496) 
254

>  <fragmenstein_runtime>  (2496) 
18.590788

$$$$
CN1Cn2cc3c(C(=O)Nc4cc(F)cc(N5CCCC5)c4)cc(Cl)cc3c2[C@@H]2CCN[C@@H]21
     RDKit          3D

 33 38  0  0  0  0  0  0  0  0999 V2000
   -2.4846    9.0994  -18.7163 C   0  0  0  0  0  0  0  0  0  0  0  0
   -3.1889    7.8301  -18.5314 N   0  0  0  0  0  0  0  0  0  0  0  0
   -3.8786    7.8410  -17.2401 C   0  0  0  0  0  0  0  0  0  0  0  0
   -4.7737    6.6864  -17.0952 N   0  0  0  0  0  0  0  0  0  0  0  0
   -5.4096    6.3834  -15.9121 C   0  0  0  0  0  0  0  0  0  0  0  0
   -6.5225    5.6487  -16.2341 C   0  0  0  0  0  0  0  0  0  0  0  0
   -7.5884    5.3213  -15.3950 C   0  0  0  0  0  0  0  0  0  0  0  0
   -7.7090    5.8227  -14.0187 C   0  0  0  0  0  0  0  0  0  0  0  0
   -7.4633    6.9479  -13.8269 O   0  0  0  0  0  0  0  0  0  0  0  0
   -8.1428    4.7120  -13.0383 N   0  0  0  0  0  0  0  0  0  0  0  0
   -8.2691    4.7282  -11.6516 C   0  0  0  0  0  0  0  0  0  0  0  0
   -8.6602    3.5850  -10.9713 C   0  0  0  0  0  0  0  0  0  0  0  0
   -8.8227    3.6636   -9.5941 C   0  0  0  0  0  0  0  0  0  0  0  0
   -9.2487    2.5980   -8.9148 F   0  0  0  0  0  0  0  0  0  0  0  0
   -8.5692    4.8341   -8.8872 C   0  0  0  0  0  0  0  0  0  0  0  0
   -8.1252    5.9766   -9.5479 C   0  0  0  0  0  0  0  0  0  0  0  0
   -7.8198    7.1086   -8.8098 N   0  0  0  0  0  0  0  0  0  0  0  0
   -8.9587    7.8561   -8.2571 C   0  0  0  0  0  0  0  0  0  0  0  0
   -8.4471    9.2911   -8.1026 C   0  0  0  0  0  0  0  0  0  0  0  0
   -6.9353    9.1736   -8.2439 C   0  0  0  0  0  0  0  0  0  0  0  0
   -6.7910    8.0433   -9.2533 C   0  0  0  0  0  0  0  0  0  0  0  0
   -7.9983    5.9052  -10.9393 C   0  0  0  0  0  0  0  0  0  0  0  0
   -8.6410    4.6999  -16.1020 C   0  0  0  0  0  0  0  0  0  0  0  0
   -8.5827    4.4498  -17.5162 C   0  0  0  0  0  0  0  0  0  0  0  0
  -10.0108    3.8498  -18.2797 Cl  0  0  0  0  0  0  0  0  0  0  0  0
   -7.4798    4.7478  -18.3518 C   0  0  0  0  0  0  0  0  0  0  0  0
   -6.4748    5.3791  -17.6311 C   0  0  0  0  0  0  0  0  0  0  0  0
   -5.3576    5.9978  -18.1421 C   0  0  0  0  0  0  0  0  0  0  0  0
   -4.7984    6.1690  -19.5066 C   0  0  2  0  0  0  0  0  0  0  0  0
   -3.7006    5.1644  -19.8495 C   0  0  0  0  0  0  0  0  0  0  0  0
   -2.6327    5.9746  -20.5766 C   0  0  0  0  0  0  0  0  0  0  0  0
   -3.2472    7.2795  -20.8455 N   0  0  0  0  0  0  0  0  0  0  0  0
   -4.0794    7.5241  -19.6611 C   0  0  2  0  0  0  0  0  0  0  0  0
  1  2  1  0
  2  3  1  0
  3  4  1  0
  4  5  1  0
  5  6  2  0
  6  7  1  0
  7  8  1  0
  8  9  2  0
  8 10  1  0
 10 11  1  0
 11 12  2  0
 12 13  1  0
 13 14  1  0
 13 15  2  0
 15 16  1  0
 16 17  1  0
 17 18  1  0
 18 19  1  0
 19 20  1  0
 20 21  1  0
 16 22  2  0
  7 23  2  0
 23 24  1  0
 24 25  1  0
 24 26  2  0
 26 27  1  0
 27 28  2  0
 28 29  1  0
 29 30  1  1
 30 31  1  0
 31 32  1  0
 33 32  1  6
 33  2  1  0
 28  4  1  0
 33 29  1  0
 27  6  1  0
 22 11  1  0
 21 17  1  0
M  END
>  <smiles>  (2497) 
C37427-P277

>  <fragmenstein_outcome>  (2497) 
acceptable

>  <inchikey>  (2497) 
YDAGAIFMCFHNRC-UHFFFAOYSA-N

>  <fragmenstein_mode>  (2497) 
expansion

>  <HIPPO Pose ID>  (2497) 
28362

>  <Energy>  (2497) 
63.314992

>  <fragmenstein_error>  (2497) 


>  <tags>  (2497) 
{'openbind_xx01zvns2b_c1_fragmenstein', 'fragmenstein_placed'}

>  <ref_pdb>  (2497) 
175

>  <scratch_subdir>  (2497) 
/opt/xchem-fragalysis-2/maxwin/BulkDock/SCRATCH/511028/C37427-P277

>  <alias>  (2497) 
CN1Cn2cc3c(C(=O)Nc4cc(F)cc(N5CCCC5)c4)cc(Cl)cc3c2[C@@H]2CCN[C@@H]21

>  <HIPPO Compound ID>  (2497) 
37427

>  <fragmenstein_runtime>  (2497) 
27.309711

$$$$
O=C(Nc1cc(F)cc(N2CCCC2)c1)c1cc(Cl)cc2c1C[C@]13CCNC[C@H]1O[C@H]1NCC[C@H]1N23
     RDKit          3D

 36 42  0  0  0  0  0  0  0  0999 V2000
   -7.5418    6.7518  -13.5069 O   0  0  0  0  0  0  0  0  0  0  0  0
   -7.7820    5.6435  -13.7879 C   0  0  0  0  0  0  0  0  0  0  0  0
   -8.1202    4.4300  -12.8866 N   0  0  0  0  0  0  0  0  0  0  0  0
   -8.3194    4.3528  -11.5048 C   0  0  0  0  0  0  0  0  0  0  0  0
   -8.5982    3.1194  -10.9280 C   0  0  0  0  0  0  0  0  0  0  0  0
   -8.7716    3.0386   -9.5533 C   0  0  0  0  0  0  0  0  0  0  0  0
   -9.0664    1.8592   -8.9881 F   0  0  0  0  0  0  0  0  0  0  0  0
   -8.6438    4.1626   -8.7420 C   0  0  0  0  0  0  0  0  0  0  0  0
   -8.3480    5.4202   -9.2829 C   0  0  0  0  0  0  0  0  0  0  0  0
   -8.2098    6.5379   -8.4886 N   0  0  0  0  0  0  0  0  0  0  0  0
   -7.7042    7.8221   -8.9751 C   0  0  0  0  0  0  0  0  0  0  0  0
   -7.2319    8.5395   -7.7124 C   0  0  0  0  0  0  0  0  0  0  0  0
   -8.1460    7.9850   -6.6360 C   0  0  0  0  0  0  0  0  0  0  0  0
   -8.2919    6.5189   -7.0309 C   0  0  0  0  0  0  0  0  0  0  0  0
   -8.2112    5.4839  -10.6846 C   0  0  0  0  0  0  0  0  0  0  0  0
   -7.6706    5.2379  -15.2123 C   0  0  0  0  0  0  0  0  0  0  0  0
   -8.7569    4.6798  -15.8798 C   0  0  0  0  0  0  0  0  0  0  0  0
   -8.6437    4.4099  -17.2448 C   0  0  0  0  0  0  0  0  0  0  0  0
  -10.0148    3.8697  -18.1230 Cl  0  0  0  0  0  0  0  0  0  0  0  0
   -7.4469    4.6207  -17.9345 C   0  0  0  0  0  0  0  0  0  0  0  0
   -6.3636    5.1740  -17.2689 C   0  0  0  0  0  0  0  0  0  0  0  0
   -6.5056    5.5085  -15.9302 C   0  0  0  0  0  0  0  0  0  0  0  0
   -5.3257    6.2908  -15.4899 C   0  0  0  0  0  0  0  0  0  0  0  0
   -4.3159    6.1462  -16.6873 C   0  0  2  0  0  0  0  0  0  0  0  0
   -3.1731    5.2204  -16.1938 C   0  0  0  0  0  0  0  0  0  0  0  0
   -1.8299    5.4263  -16.8769 C   0  0  0  0  0  0  0  0  0  0  0  0
   -1.4036    6.8203  -16.8362 N   0  0  0  0  0  0  0  0  0  0  0  0
   -2.3466    7.6394  -17.5864 C   0  0  0  0  0  0  0  0  0  0  0  0
   -3.7907    7.5698  -17.0582 C   0  0  1  0  0  0  0  0  0  0  0  0
   -4.6912    8.3234  -17.8830 O   0  0  0  0  0  0  0  0  0  0  0  0
   -5.1343    7.6935  -19.0811 C   0  0  1  0  0  0  0  0  0  0  0  0
   -4.3270    8.1467  -20.2182 N   0  0  0  0  0  0  0  0  0  0  0  0
   -4.0373    6.9547  -21.0162 C   0  0  0  0  0  0  0  0  0  0  0  0
   -4.0416    5.7830  -20.0483 C   0  0  0  0  0  0  0  0  0  0  0  0
   -5.1730    6.1527  -19.1121 C   0  0  1  0  0  0  0  0  0  0  0  0
   -5.0844    5.4780  -17.8100 N   0  0  0  0  0  0  0  0  0  0  0  0
  1  2  2  0
  2  3  1  0
  3  4  1  0
  4  5  2  0
  5  6  1  0
  6  7  1  0
  6  8  2  0
  8  9  1  0
  9 10  1  0
 10 11  1  0
 11 12  1  0
 12 13  1  0
 13 14  1  0
  9 15  2  0
  2 16  1  0
 16 17  2  0
 17 18  1  0
 18 19  1  0
 18 20  2  0
 20 21  1  0
 21 22  2  0
 22 23  1  0
 24 23  1  1
 24 25  1  0
 25 26  1  0
 26 27  1  0
 27 28  1  0
 29 28  1  6
 29 30  1  0
 30 31  1  0
 31 32  1  6
 32 33  1  0
 33 34  1  0
 35 34  1  6
 35 36  1  0
 15  4  1  0
 22 16  1  0
 29 24  1  0
 35 31  1  0
 14 10  1  0
 36 21  1  0
 36 24  1  0
M  END
>  <smiles>  (2498) 
C37439-P277

>  <fragmenstein_outcome>  (2498) 
acceptable

>  <inchikey>  (2498) 
JNUJROPEFXLZPI-UHFFFAOYSA-N

>  <fragmenstein_mode>  (2498) 
expansion

>  <HIPPO Pose ID>  (2498) 
28364

>  <Energy>  (2498) 
136.132496

>  <fragmenstein_error>  (2498) 


>  <tags>  (2498) 
{'openbind_xx01zvns2b_c1_fragmenstein', 'fragmenstein_placed'}

>  <ref_pdb>  (2498) 
175

>  <scratch_subdir>  (2498) 
/opt/xchem-fragalysis-2/maxwin/BulkDock/SCRATCH/511028/C37439-P277

>  <alias>  (2498) 
O=C(Nc1cc(F)cc(N2CCCC2)c1)c1cc(Cl)cc2c1C[C@]13CCNC[C@H]1O[C@H]1NCC[C@H]1N23

>  <HIPPO Compound ID>  (2498) 
37439

>  <fragmenstein_runtime>  (2498) 
13.430109

$$$$
COn1cc2c(C(=O)Nc3ccc([C@H]4CCOC4)cc3F)cc(Cl)cc2c1C1CNC1
     RDKit          3D

 31 35  0  0  0  0  0  0  0  0999 V2000
   -2.4972    5.2708  -15.8317 C   0  0  0  0  0  0  0  0  0  0  0  0
   -3.2710    6.3322  -16.3793 O   0  0  0  0  0  0  0  0  0  0  0  0
   -4.5902    5.9066  -16.5081 N   0  0  0  0  0  0  0  0  0  0  0  0
   -5.4530    5.7928  -15.4608 C   0  0  0  0  0  0  0  0  0  0  0  0
   -6.6356    5.3455  -15.9858 C   0  0  0  0  0  0  0  0  0  0  0  0
   -7.8109    5.1084  -15.2796 C   0  0  0  0  0  0  0  0  0  0  0  0
   -8.0261    5.5882  -13.9116 C   0  0  0  0  0  0  0  0  0  0  0  0
   -7.8928    6.7304  -13.7179 O   0  0  0  0  0  0  0  0  0  0  0  0
   -8.3034    4.4344  -12.9296 N   0  0  0  0  0  0  0  0  0  0  0  0
   -8.3789    4.4282  -11.5336 C   0  0  0  0  0  0  0  0  0  0  0  0
   -8.3216    3.2016  -10.8773 C   0  0  0  0  0  0  0  0  0  0  0  0
   -8.2581    3.1473   -9.4782 C   0  0  0  0  0  0  0  0  0  0  0  0
   -8.2749    4.3165   -8.6986 C   0  0  0  0  0  0  0  0  0  0  0  0
   -8.0883    4.2017   -7.1923 C   0  0  1  0  0  0  0  0  0  0  0  0
   -6.7513    4.7537   -6.7254 C   0  0  0  0  0  0  0  0  0  0  0  0
   -7.0517    6.1926   -6.3600 C   0  0  0  0  0  0  0  0  0  0  0  0
   -8.4444    6.2721   -6.0343 O   0  0  0  0  0  0  0  0  0  0  0  0
   -9.0535    5.0053   -6.3297 C   0  0  0  0  0  0  0  0  0  0  0  0
   -8.4056    5.5399   -9.3660 C   0  0  0  0  0  0  0  0  0  0  0  0
   -8.4476    5.5912  -10.7626 C   0  0  0  0  0  0  0  0  0  0  0  0
   -8.5828    6.7977  -11.3291 F   0  0  0  0  0  0  0  0  0  0  0  0
   -8.8349    4.6372  -16.1122 C   0  0  0  0  0  0  0  0  0  0  0  0
   -8.6824    4.5128  -17.5328 C   0  0  0  0  0  0  0  0  0  0  0  0
  -10.0902    4.0641  -18.4175 Cl  0  0  0  0  0  0  0  0  0  0  0  0
   -7.5056    4.8224  -18.2629 C   0  0  0  0  0  0  0  0  0  0  0  0
   -6.4837    5.2236  -17.4055 C   0  0  0  0  0  0  0  0  0  0  0  0
   -5.2287    5.7026  -17.7080 C   0  0  0  0  0  0  0  0  0  0  0  0
   -4.5991    6.1376  -19.0575 C   0  0  0  0  0  0  0  0  0  0  0  0
   -3.1536    5.6451  -19.2930 C   0  0  0  0  0  0  0  0  0  0  0  0
   -3.4754    5.4889  -20.7190 N   0  0  0  0  0  0  0  0  0  0  0  0
   -4.9123    5.3742  -20.3406 C   0  0  0  0  0  0  0  0  0  0  0  0
  1  2  1  0
  2  3  1  0
  3  4  1  0
  4  5  2  0
  5  6  1  0
  6  7  1  0
  7  8  2  0
  7  9  1  0
  9 10  1  0
 10 11  2  0
 11 12  1  0
 12 13  2  0
 14 13  1  6
 14 15  1  0
 15 16  1  0
 16 17  1  0
 17 18  1  0
 13 19  1  0
 19 20  2  0
 20 21  1  0
  6 22  2  0
 22 23  1  0
 23 24  1  0
 23 25  2  0
 25 26  1  0
 26 27  2  0
 27 28  1  0
 28 29  1  0
 29 30  1  0
 30 31  1  0
 27  3  1  0
 31 28  1  0
 26  5  1  0
 20 10  1  0
 18 14  1  0
M  END
>  <smiles>  (2499) 
C37458-P278

>  <fragmenstein_outcome>  (2499) 
acceptable

>  <inchikey>  (2499) 
BHJRENTVRKGLJG-UHFFFAOYSA-N

>  <fragmenstein_mode>  (2499) 
expansion

>  <HIPPO Pose ID>  (2499) 
28370

>  <Energy>  (2499) 
97.598366

>  <fragmenstein_error>  (2499) 


>  <tags>  (2499) 
{'openbind_xx01zvns2b_c1_fragmenstein', 'fragmenstein_placed'}

>  <ref_pdb>  (2499) 
175

>  <scratch_subdir>  (2499) 
/opt/xchem-fragalysis-2/maxwin/BulkDock/SCRATCH/511028/C37458-P278

>  <alias>  (2499) 
COn1cc2c(C(=O)Nc3ccc([C@H]4CCOC4)cc3F)cc(Cl)cc2c1C1CNC1

>  <HIPPO Compound ID>  (2499) 
37458

>  <fragmenstein_runtime>  (2499) 
12.135521

$$$$
CC1(n2ncc3c(C(=O)Nc4ccc([C@H]5CCOC5)cc4F)cc(Cl)cc32)CNC1
     RDKit          3D

 30 34  0  0  0  0  0  0  0  0999 V2000
   -4.7779    7.9594  -18.9672 C   0  0  0  0  0  0  0  0  0  0  0  0
   -4.6917    6.4500  -19.2014 C   0  0  0  0  0  0  0  0  0  0  0  0
   -5.0863    5.7106  -17.9777 N   0  0  0  0  0  0  0  0  0  0  0  0
   -4.2493    5.7867  -16.9136 N   0  0  0  0  0  0  0  0  0  0  0  0
   -5.0670    5.7311  -15.8659 C   0  0  0  0  0  0  0  0  0  0  0  0
   -6.3871    5.4171  -16.2366 C   0  0  0  0  0  0  0  0  0  0  0  0
   -7.6001    5.2386  -15.5549 C   0  0  0  0  0  0  0  0  0  0  0  0
   -7.6956    5.6597  -14.1475 C   0  0  0  0  0  0  0  0  0  0  0  0
   -7.4217    6.7553  -13.8654 O   0  0  0  0  0  0  0  0  0  0  0  0
   -8.1253    4.4820  -13.2628 N   0  0  0  0  0  0  0  0  0  0  0  0
   -8.2157    4.3772  -11.8802 C   0  0  0  0  0  0  0  0  0  0  0  0
   -8.1477    3.0913  -11.3683 C   0  0  0  0  0  0  0  0  0  0  0  0
   -8.1674    2.8905   -9.9972 C   0  0  0  0  0  0  0  0  0  0  0  0
   -8.3270    3.9501   -9.0953 C   0  0  0  0  0  0  0  0  0  0  0  0
   -8.3633    3.5861   -7.6335 C   0  0  1  0  0  0  0  0  0  0  0  0
   -8.8314    4.5968   -6.6098 C   0  0  0  0  0  0  0  0  0  0  0  0
   -9.2121    3.6941   -5.4569 C   0  0  0  0  0  0  0  0  0  0  0  0
   -9.8738    2.5838   -6.0545 O   0  0  0  0  0  0  0  0  0  0  0  0
   -9.2771    2.3808   -7.3380 C   0  0  0  0  0  0  0  0  0  0  0  0
   -8.3898    5.2473   -9.6119 C   0  0  0  0  0  0  0  0  0  0  0  0
   -8.3306    5.4546  -10.9976 C   0  0  0  0  0  0  0  0  0  0  0  0
   -8.4519    6.7101  -11.4526 F   0  0  0  0  0  0  0  0  0  0  0  0
   -8.7221    4.7682  -16.2322 C   0  0  0  0  0  0  0  0  0  0  0  0
   -8.6559    4.5836  -17.6060 C   0  0  0  0  0  0  0  0  0  0  0  0
  -10.0824    4.1026  -18.4260 Cl  0  0  0  0  0  0  0  0  0  0  0  0
   -7.4952    4.8716  -18.3392 C   0  0  0  0  0  0  0  0  0  0  0  0
   -6.3565    5.2845  -17.6273 C   0  0  0  0  0  0  0  0  0  0  0  0
   -3.3550    5.8960  -19.7719 C   0  0  0  0  0  0  0  0  0  0  0  0
   -3.9108    6.1404  -21.1211 N   0  0  0  0  0  0  0  0  0  0  0  0
   -5.2678    5.9840  -20.5398 C   0  0  0  0  0  0  0  0  0  0  0  0
  1  2  1  0
  2  3  1  0
  3  4  1  0
  4  5  2  0
  5  6  1  0
  6  7  2  0
  7  8  1  0
  8  9  2  0
  8 10  1  0
 10 11  1  0
 11 12  2  0
 12 13  1  0
 13 14  2  0
 15 14  1  6
 15 16  1  0
 16 17  1  0
 17 18  1  0
 18 19  1  0
 14 20  1  0
 20 21  2  0
 21 22  1  0
  7 23  1  0
 23 24  2  0
 24 25  1  0
 24 26  1  0
 26 27  2  0
  2 28  1  0
 28 29  1  0
 29 30  1  0
 30  2  1  0
 27  3  1  0
 27  6  1  0
 21 11  1  0
 19 15  1  0
M  END
>  <smiles>  (2500) 
C37462-P278

>  <fragmenstein_outcome>  (2500) 
acceptable

>  <inchikey>  (2500) 
QEOWCKJFPVSFLR-UHFFFAOYSA-N

>  <fragmenstein_mode>  (2500) 
expansion

>  <HIPPO Pose ID>  (2500) 
28371

>  <Energy>  (2500) 
106.021758

>  <fragmenstein_error>  (2500) 


>  <tags>  (2500) 
{'openbind_xx01zvns2b_c1_fragmenstein', 'fragmenstein_placed'}

>  <ref_pdb>  (2500) 
175

>  <scratch_subdir>  (2500) 
/opt/xchem-fragalysis-2/maxwin/BulkDock/SCRATCH/511028/C37462-P278

>  <alias>  (2500) 
CC1(n2ncc3c(C(=O)Nc4ccc([C@H]5CCOC5)cc4F)cc(Cl)cc32)CNC1

>  <HIPPO Compound ID>  (2500) 
37462

>  <fragmenstein_runtime>  (2500) 
14.197518

$$$$
O=C(Nc1ccc([C@@H]2CCOC2)cc1F)c1cc(Cl)cc2c1c[n+]([O-])n2C1CNC1
     RDKit          3D

 30 34  0  0  0  0  0  0  0  0999 V2000
   -7.0967    6.5690  -13.9965 O   0  0  0  0  0  0  0  0  0  0  0  0
   -7.5267    5.5008  -14.1916 C   0  0  0  0  0  0  0  0  0  0  0  0
   -8.1472    4.4756  -13.2135 N   0  0  0  0  0  0  0  0  0  0  0  0
   -8.2769    4.5118  -11.8224 C   0  0  0  0  0  0  0  0  0  0  0  0
   -8.4439    3.3174  -11.1218 C   0  0  0  0  0  0  0  0  0  0  0  0
   -8.5284    3.3133   -9.7192 C   0  0  0  0  0  0  0  0  0  0  0  0
   -8.4674    4.5085   -8.9926 C   0  0  0  0  0  0  0  0  0  0  0  0
   -8.5690    4.5902   -7.4913 C   0  0  2  0  0  0  0  0  0  0  0  0
   -7.2729    4.9908   -6.8094 C   0  0  0  0  0  0  0  0  0  0  0  0
   -7.5581    4.6689   -5.3553 C   0  0  0  0  0  0  0  0  0  0  0  0
   -8.6102    3.6948   -5.3223 O   0  0  0  0  0  0  0  0  0  0  0  0
   -8.9353    3.3537   -6.6825 C   0  0  0  0  0  0  0  0  0  0  0  0
   -8.3340    5.7069   -9.7110 C   0  0  0  0  0  0  0  0  0  0  0  0
   -8.2470    5.7050  -11.1015 C   0  0  0  0  0  0  0  0  0  0  0  0
   -8.2218    6.8932  -11.7199 F   0  0  0  0  0  0  0  0  0  0  0  0
   -7.5529    5.0371  -15.5952 C   0  0  0  0  0  0  0  0  0  0  0  0
   -8.7705    4.6814  -16.1804 C   0  0  0  0  0  0  0  0  0  0  0  0
   -8.8516    4.4931  -17.5546 C   0  0  0  0  0  0  0  0  0  0  0  0
  -10.3832    4.1693  -18.2541 Cl  0  0  0  0  0  0  0  0  0  0  0  0
   -7.7411    4.6424  -18.3884 C   0  0  0  0  0  0  0  0  0  0  0  0
   -6.5176    4.9505  -17.7852 C   0  0  0  0  0  0  0  0  0  0  0  0
   -6.3811    5.1349  -16.3829 C   0  0  0  0  0  0  0  0  0  0  0  0
   -4.9842    5.3722  -16.0501 C   0  0  0  0  0  0  0  0  0  0  0  0
   -4.2952    5.3025  -17.1997 N   0  0  0  0  0  0  0  0  0  0  0  0
   -3.0628    5.1958  -17.3885 O   0  0  0  0  0  0  0  0  0  0  0  0
   -5.2445    5.1531  -18.2897 N   0  0  0  0  0  0  0  0  0  0  0  0
   -4.9503    5.2586  -19.7288 C   0  0  0  0  0  0  0  0  0  0  0  0
   -3.4832    5.5011  -20.1620 C   0  0  0  0  0  0  0  0  0  0  0  0
   -4.0110    6.4353  -21.1965 N   0  0  0  0  0  0  0  0  0  0  0  0
   -5.1500    6.6908  -20.2727 C   0  0  0  0  0  0  0  0  0  0  0  0
  1  2  2  0
  2  3  1  0
  3  4  1  0
  4  5  2  0
  5  6  1  0
  6  7  2  0
  8  7  1  6
  8  9  1  0
  9 10  1  0
 10 11  1  0
 11 12  1  0
  7 13  1  0
 13 14  2  0
 14 15  1  0
  2 16  1  0
 16 17  2  0
 17 18  1  0
 18 19  1  0
 18 20  2  0
 20 21  1  0
 21 22  2  0
 22 23  1  0
 23 24  2  0
 24 25  1  0
 24 26  1  0
 26 27  1  0
 27 28  1  0
 28 29  1  0
 29 30  1  0
 14  4  1  0
 22 16  1  0
 30 27  1  0
 12  8  1  0
 26 21  1  0
M  CHG  2  24   1  25  -1
M  END
>  <smiles>  (2501) 
C37463-P278

>  <fragmenstein_outcome>  (2501) 
acceptable

>  <inchikey>  (2501) 
ACDFYRHXIVZDBA-UHFFFAOYSA-N

>  <fragmenstein_mode>  (2501) 
expansion

>  <HIPPO Pose ID>  (2501) 
28372

>  <Energy>  (2501) 
98.504192

>  <fragmenstein_error>  (2501) 


>  <tags>  (2501) 
{'openbind_xx01zvns2b_c1_fragmenstein', 'fragmenstein_placed'}

>  <ref_pdb>  (2501) 
175

>  <scratch_subdir>  (2501) 
/opt/xchem-fragalysis-2/maxwin/BulkDock/SCRATCH/511028/C37463-P278

>  <alias>  (2501) 
O=C(Nc1ccc([C@@H]2CCOC2)cc1F)c1cc(Cl)cc2c1c[n+]([O-])n2C1CNC1

>  <HIPPO Compound ID>  (2501) 
37463

>  <fragmenstein_runtime>  (2501) 
10.293935

$$$$
NC1(n2ncc3c(C(=O)Nc4ccc([C@H]5CCOC5)cc4F)cc(Cl)cc32)CNC1
     RDKit          3D

 30 34  0  0  0  0  0  0  0  0999 V2000
   -5.8452    4.8021  -20.5779 N   0  0  0  0  0  0  0  0  0  0  0  0
   -5.0720    5.5633  -19.5727 C   0  0  0  0  0  0  0  0  0  0  0  0
   -5.4095    5.4433  -18.1285 N   0  0  0  0  0  0  0  0  0  0  0  0
   -4.5344    5.8294  -17.1665 N   0  0  0  0  0  0  0  0  0  0  0  0
   -5.2426    5.7640  -16.0409 C   0  0  0  0  0  0  0  0  0  0  0  0
   -6.5593    5.3107  -16.2509 C   0  0  0  0  0  0  0  0  0  0  0  0
   -7.6909    5.0882  -15.4453 C   0  0  0  0  0  0  0  0  0  0  0  0
   -7.6681    5.5301  -14.0397 C   0  0  0  0  0  0  0  0  0  0  0  0
   -7.3400    6.6300  -13.8272 O   0  0  0  0  0  0  0  0  0  0  0  0
   -8.0771    4.4014  -13.0675 N   0  0  0  0  0  0  0  0  0  0  0  0
   -8.2537    4.4171  -11.6817 C   0  0  0  0  0  0  0  0  0  0  0  0
   -8.3949    3.1943  -11.0299 C   0  0  0  0  0  0  0  0  0  0  0  0
   -8.4500    3.1321   -9.6312 C   0  0  0  0  0  0  0  0  0  0  0  0
   -8.4002    4.2948   -8.8476 C   0  0  0  0  0  0  0  0  0  0  0  0
   -8.3665    4.1868   -7.3352 C   0  0  1  0  0  0  0  0  0  0  0  0
   -8.6397    5.4675   -6.5553 C   0  0  0  0  0  0  0  0  0  0  0  0
   -9.1076    4.9436   -5.2221 C   0  0  0  0  0  0  0  0  0  0  0  0
   -9.9456    3.8384   -5.5515 O   0  0  0  0  0  0  0  0  0  0  0  0
   -9.3659    3.1995   -6.7082 C   0  0  0  0  0  0  0  0  0  0  0  0
   -8.2992    5.5225   -9.5174 C   0  0  0  0  0  0  0  0  0  0  0  0
   -8.2390    5.5795  -10.9124 C   0  0  0  0  0  0  0  0  0  0  0  0
   -8.2163    6.7935  -11.4787 F   0  0  0  0  0  0  0  0  0  0  0  0
   -8.8749    4.6260  -16.0200 C   0  0  0  0  0  0  0  0  0  0  0  0
   -8.9456    4.4404  -17.3924 C   0  0  0  0  0  0  0  0  0  0  0  0
  -10.4535    4.0774  -18.1223 Cl  0  0  0  0  0  0  0  0  0  0  0  0
   -7.8415    4.6509  -18.2163 C   0  0  0  0  0  0  0  0  0  0  0  0
   -6.6479    5.0920  -17.6248 C   0  0  0  0  0  0  0  0  0  0  0  0
   -3.5567    5.4782  -19.8997 C   0  0  0  0  0  0  0  0  0  0  0  0
   -3.7166    6.6504  -20.8050 N   0  0  0  0  0  0  0  0  0  0  0  0
   -4.9301    7.0351  -20.0376 C   0  0  0  0  0  0  0  0  0  0  0  0
  1  2  1  0
  2  3  1  0
  3  4  1  0
  4  5  2  0
  5  6  1  0
  6  7  2  0
  7  8  1  0
  8  9  2  0
  8 10  1  0
 10 11  1  0
 11 12  2  0
 12 13  1  0
 13 14  2  0
 15 14  1  6
 15 16  1  0
 16 17  1  0
 17 18  1  0
 18 19  1  0
 14 20  1  0
 20 21  2  0
 21 22  1  0
  7 23  1  0
 23 24  2  0
 24 25  1  0
 24 26  1  0
 26 27  2  0
  2 28  1  0
 28 29  1  0
 29 30  1  0
 30  2  1  0
 27  3  1  0
 27  6  1  0
 21 11  1  0
 19 15  1  0
M  END
>  <smiles>  (2502) 
C37465-P278

>  <fragmenstein_outcome>  (2502) 
acceptable

>  <inchikey>  (2502) 
IDXOQASWDCFXOY-UHFFFAOYSA-N

>  <fragmenstein_mode>  (2502) 
expansion

>  <HIPPO Pose ID>  (2502) 
28373

>  <Energy>  (2502) 
162.873352

>  <fragmenstein_error>  (2502) 


>  <tags>  (2502) 
{'openbind_xx01zvns2b_c1_fragmenstein', 'fragmenstein_placed'}

>  <ref_pdb>  (2502) 
175

>  <scratch_subdir>  (2502) 
/opt/xchem-fragalysis-2/maxwin/BulkDock/SCRATCH/511028/C37465-P278

>  <alias>  (2502) 
NC1(n2ncc3c(C(=O)Nc4ccc([C@H]5CCOC5)cc4F)cc(Cl)cc32)CNC1

>  <HIPPO Compound ID>  (2502) 
37465

>  <fragmenstein_runtime>  (2502) 
12.649891

$$$$
C[C@H](CN)n1cc2c(C(=O)Nc3ccc([C@@H]4CCOC4)cc3F)cc(Cl)cc2c1C1CNC1
     RDKit          3D

 33 37  0  0  0  0  0  0  0  0999 V2000
   -2.1120    5.3310  -17.1574 C   0  0  0  0  0  0  0  0  0  0  0  0
   -3.0191    6.5273  -16.8794 C   0  0  2  0  0  0  0  0  0  0  0  0
   -2.5706    7.2934  -15.5990 C   0  0  0  0  0  0  0  0  0  0  0  0
   -2.2179    6.4630  -14.4428 N   0  0  0  0  0  0  0  0  0  0  0  0
   -4.4334    6.1359  -16.9428 N   0  0  0  0  0  0  0  0  0  0  0  0
   -5.2758    6.0888  -15.8546 C   0  0  0  0  0  0  0  0  0  0  0  0
   -6.4704    5.5686  -16.2664 C   0  0  0  0  0  0  0  0  0  0  0  0
   -7.5881    5.3314  -15.4687 C   0  0  0  0  0  0  0  0  0  0  0  0
   -7.7207    5.8063  -14.0846 C   0  0  0  0  0  0  0  0  0  0  0  0
   -7.5311    6.9369  -13.8676 O   0  0  0  0  0  0  0  0  0  0  0  0
   -8.0954    4.6554  -13.1314 N   0  0  0  0  0  0  0  0  0  0  0  0
   -8.2191    4.6333  -11.7450 C   0  0  0  0  0  0  0  0  0  0  0  0
   -8.2134    5.8051  -10.9989 C   0  0  0  0  0  0  0  0  0  0  0  0
   -8.3369    5.7437   -9.6086 C   0  0  0  0  0  0  0  0  0  0  0  0
   -8.4673    4.5132   -8.9362 C   0  0  0  0  0  0  0  0  0  0  0  0
   -8.6271    4.5406   -7.4386 C   0  0  2  0  0  0  0  0  0  0  0  0
   -7.3634    4.9219   -6.6886 C   0  0  0  0  0  0  0  0  0  0  0  0
   -7.7006    4.5344   -5.2608 C   0  0  0  0  0  0  0  0  0  0  0  0
   -8.7799    3.5912   -5.3070 O   0  0  0  0  0  0  0  0  0  0  0  0
   -9.0233    3.2763   -6.6905 C   0  0  0  0  0  0  0  0  0  0  0  0
   -8.4609    3.3390   -9.6986 C   0  0  0  0  0  0  0  0  0  0  0  0
   -8.3370    3.4120  -11.0870 C   0  0  0  0  0  0  0  0  0  0  0  0
   -8.2892    2.2837  -11.8055 F   0  0  0  0  0  0  0  0  0  0  0  0
   -8.6441    4.7596  -16.1978 C   0  0  0  0  0  0  0  0  0  0  0  0
   -8.5582    4.5095  -17.6066 C   0  0  0  0  0  0  0  0  0  0  0  0
  -10.0026    3.9719  -18.3781 Cl  0  0  0  0  0  0  0  0  0  0  0  0
   -7.4177    4.7578  -18.4150 C   0  0  0  0  0  0  0  0  0  0  0  0
   -6.3782    5.3068  -17.6632 C   0  0  0  0  0  0  0  0  0  0  0  0
   -5.1367    5.7454  -18.0871 C   0  0  0  0  0  0  0  0  0  0  0  0
   -4.5790    5.7378  -19.5648 C   0  0  0  0  0  0  0  0  0  0  0  0
   -3.7246    6.9654  -19.9914 C   0  0  0  0  0  0  0  0  0  0  0  0
   -4.3481    6.8992  -21.3194 N   0  0  0  0  0  0  0  0  0  0  0  0
   -5.5150    6.2542  -20.6735 C   0  0  0  0  0  0  0  0  0  0  0  0
  2  1  1  1
  2  3  1  0
  3  4  1  0
  2  5  1  0
  5  6  1  0
  6  7  2  0
  7  8  1  0
  8  9  1  0
  9 10  2  0
  9 11  1  0
 11 12  1  0
 12 13  2  0
 13 14  1  0
 14 15  2  0
 16 15  1  6
 16 17  1  0
 17 18  1  0
 18 19  1  0
 19 20  1  0
 15 21  1  0
 21 22  2  0
 22 23  1  0
  8 24  2  0
 24 25  1  0
 25 26  1  0
 25 27  2  0
 27 28  1  0
 28 29  2  0
 29 30  1  0
 30 31  1  0
 31 32  1  0
 32 33  1  0
 29  5  1  0
 33 30  1  0
 28  7  1  0
 22 12  1  0
 20 16  1  0
M  END
>  <smiles>  (2503) 
C37471-P278

>  <fragmenstein_outcome>  (2503) 
acceptable

>  <inchikey>  (2503) 
GFZOTSOZMQYOOB-UHFFFAOYSA-N

>  <fragmenstein_mode>  (2503) 
expansion

>  <HIPPO Pose ID>  (2503) 
28374

>  <Energy>  (2503) 
134.301472

>  <fragmenstein_error>  (2503) 


>  <tags>  (2503) 
{'openbind_xx01zvns2b_c1_fragmenstein', 'fragmenstein_placed'}

>  <ref_pdb>  (2503) 
175

>  <scratch_subdir>  (2503) 
/opt/xchem-fragalysis-2/maxwin/BulkDock/SCRATCH/511028/C37471-P278

>  <alias>  (2503) 
C[C@H](CN)n1cc2c(C(=O)Nc3ccc([C@@H]4CCOC4)cc3F)cc(Cl)cc2c1C1CNC1

>  <HIPPO Compound ID>  (2503) 
18011

>  <fragmenstein_runtime>  (2503) 
5.450774

$$$$
CN[C@H]1CC2=C(CNN2C2CNC2)[C@H](C(=O)Nc2ccc([C@@H]3CCOC3)cc2F)C1
     RDKit          3D

 30 34  0  0  0  0  0  0  0  0999 V2000
  -10.7028    4.7595  -18.6766 C   0  0  0  0  0  0  0  0  0  0  0  0
  -10.2170    3.9276  -17.6035 N   0  0  0  0  0  0  0  0  0  0  0  0
   -8.8681    4.2496  -17.1156 C   0  0  1  0  0  0  0  0  0  0  0  0
   -7.8113    4.7771  -18.1241 C   0  0  0  0  0  0  0  0  0  0  0  0
   -6.5129    5.0236  -17.4175 C   0  0  0  0  0  0  0  0  0  0  0  0
   -6.4544    5.3261  -16.1163 C   0  0  0  0  0  0  0  0  0  0  0  0
   -5.0451    5.5780  -15.7355 C   0  0  0  0  0  0  0  0  0  0  0  0
   -4.2849    5.4442  -17.0084 N   0  0  0  0  0  0  0  0  0  0  0  0
   -5.2571    5.0544  -18.0027 N   0  0  0  0  0  0  0  0  0  0  0  0
   -5.0240    5.2825  -19.4195 C   0  0  0  0  0  0  0  0  0  0  0  0
   -3.5444    5.3806  -19.8651 C   0  0  0  0  0  0  0  0  0  0  0  0
   -3.8975    6.5675  -20.6766 N   0  0  0  0  0  0  0  0  0  0  0  0
   -5.0969    6.7691  -19.8370 C   0  0  0  0  0  0  0  0  0  0  0  0
   -7.6602    5.6825  -15.3351 C   0  0  2  0  0  0  0  0  0  0  0  0
   -7.4842    5.9638  -13.8322 C   0  0  0  0  0  0  0  0  0  0  0  0
   -7.1561    7.0335  -13.4855 O   0  0  0  0  0  0  0  0  0  0  0  0
   -7.8959    4.7165  -12.9991 N   0  0  0  0  0  0  0  0  0  0  0  0
   -8.0733    4.5642  -11.6237 C   0  0  0  0  0  0  0  0  0  0  0  0
   -8.1115    3.2853  -11.0777 C   0  0  0  0  0  0  0  0  0  0  0  0
   -8.1622    3.1205   -9.6863 C   0  0  0  0  0  0  0  0  0  0  0  0
   -8.2007    4.2255   -8.8188 C   0  0  0  0  0  0  0  0  0  0  0  0
   -8.0950    4.0053   -7.3286 C   0  0  2  0  0  0  0  0  0  0  0  0
   -9.2823    4.4245   -6.4861 C   0  0  0  0  0  0  0  0  0  0  0  0
   -8.6746    4.4438   -5.0975 C   0  0  0  0  0  0  0  0  0  0  0  0
   -7.3134    4.8771   -5.2442 O   0  0  0  0  0  0  0  0  0  0  0  0
   -6.9682    4.7769   -6.6400 C   0  0  0  0  0  0  0  0  0  0  0  0
   -8.2763    5.5017   -9.3861 C   0  0  0  0  0  0  0  0  0  0  0  0
   -8.2126    5.6619  -10.7702 C   0  0  0  0  0  0  0  0  0  0  0  0
   -8.3470    6.9021  -11.2605 F   0  0  0  0  0  0  0  0  0  0  0  0
   -8.9619    5.0160  -15.7814 C   0  0  0  0  0  0  0  0  0  0  0  0
  1  2  1  0
  3  2  1  6
  3  4  1  0
  4  5  1  0
  5  6  2  0
  6  7  1  0
  7  8  1  0
  8  9  1  0
  9 10  1  0
 10 11  1  0
 11 12  1  0
 12 13  1  0
  6 14  1  0
 14 15  1  1
 15 16  2  0
 15 17  1  0
 17 18  1  0
 18 19  2  0
 19 20  1  0
 20 21  2  0
 22 21  1  6
 22 23  1  0
 23 24  1  0
 24 25  1  0
 25 26  1  0
 21 27  1  0
 27 28  2  0
 28 29  1  0
 14 30  1  0
 30  3  1  0
  9  5  1  0
 13 10  1  0
 28 18  1  0
 26 22  1  0
M  END
>  <smiles>  (2504) 
C37474-P278

>  <fragmenstein_outcome>  (2504) 
acceptable

>  <inchikey>  (2504) 
JDQIKAQVPLEYNU-UHFFFAOYSA-N

>  <fragmenstein_mode>  (2504) 
expansion

>  <HIPPO Pose ID>  (2504) 
28375

>  <Energy>  (2504) 
153.93946

>  <fragmenstein_error>  (2504) 


>  <tags>  (2504) 
{'openbind_xx01zvns2b_c1_fragmenstein', 'fragmenstein_placed'}

>  <ref_pdb>  (2504) 
175

>  <scratch_subdir>  (2504) 
/opt/xchem-fragalysis-2/maxwin/BulkDock/SCRATCH/511028/C37474-P278

>  <alias>  (2504) 
CN[C@H]1CC2=C(CNN2C2CNC2)[C@H](C(=O)Nc2ccc([C@@H]3CCOC3)cc2F)C1

>  <HIPPO Compound ID>  (2504) 
37474

>  <fragmenstein_runtime>  (2504) 
6.974968

$$$$
O=C(O)Cc1nn(C2CNC2)c2cc(Cl)cc(C(=O)Nc3ccc([C@@H]4CCOC4)cc3F)c12
     RDKit          3D

 33 37  0  0  0  0  0  0  0  0999 V2000
   -5.1822    3.2286  -13.8734 O   0  0  0  0  0  0  0  0  0  0  0  0
   -4.6702    4.2879  -13.5483 C   0  0  0  0  0  0  0  0  0  0  0  0
   -4.2259    4.4569  -12.2830 O   0  0  0  0  0  0  0  0  0  0  0  0
   -4.4473    5.5155  -14.3951 C   0  0  0  0  0  0  0  0  0  0  0  0
   -5.0343    5.3915  -15.7654 C   0  0  0  0  0  0  0  0  0  0  0  0
   -4.2468    5.5361  -16.8353 N   0  0  0  0  0  0  0  0  0  0  0  0
   -5.0938    5.4991  -17.8891 N   0  0  0  0  0  0  0  0  0  0  0  0
   -4.6788    6.2575  -19.0798 C   0  0  0  0  0  0  0  0  0  0  0  0
   -3.4251    5.6575  -19.7508 C   0  0  0  0  0  0  0  0  0  0  0  0
   -3.9930    6.1200  -21.0420 N   0  0  0  0  0  0  0  0  0  0  0  0
   -5.3395    5.9900  -20.4236 C   0  0  0  0  0  0  0  0  0  0  0  0
   -6.3711    5.0996  -17.5444 C   0  0  0  0  0  0  0  0  0  0  0  0
   -7.5347    4.7813  -18.2668 C   0  0  0  0  0  0  0  0  0  0  0  0
   -8.7033    4.4988  -17.5438 C   0  0  0  0  0  0  0  0  0  0  0  0
  -10.1553    4.1479  -18.3878 Cl  0  0  0  0  0  0  0  0  0  0  0  0
   -8.7554    4.6023  -16.1618 C   0  0  0  0  0  0  0  0  0  0  0  0
   -7.6070    4.9697  -15.4688 C   0  0  0  0  0  0  0  0  0  0  0  0
   -7.7338    5.5123  -14.1102 C   0  0  0  0  0  0  0  0  0  0  0  0
   -7.5595    6.6615  -14.0032 O   0  0  0  0  0  0  0  0  0  0  0  0
   -8.0205    4.4403  -13.0392 N   0  0  0  0  0  0  0  0  0  0  0  0
   -8.2404    4.5663  -11.6632 C   0  0  0  0  0  0  0  0  0  0  0  0
   -8.3262    3.4185  -10.8755 C   0  0  0  0  0  0  0  0  0  0  0  0
   -8.4252    3.5222   -9.4749 C   0  0  0  0  0  0  0  0  0  0  0  0
   -8.4488    4.7746   -8.8345 C   0  0  0  0  0  0  0  0  0  0  0  0
   -8.5620    4.8984   -7.3291 C   0  0  2  0  0  0  0  0  0  0  0  0
   -8.2204    6.2560   -6.7271 C   0  0  0  0  0  0  0  0  0  0  0  0
   -8.0334    5.9235   -5.2661 C   0  0  0  0  0  0  0  0  0  0  0  0
   -7.4399    4.6237   -5.2269 O   0  0  0  0  0  0  0  0  0  0  0  0
   -7.6135    4.0169   -6.5250 C   0  0  0  0  0  0  0  0  0  0  0  0
   -8.4317    5.9126   -9.6462 C   0  0  0  0  0  0  0  0  0  0  0  0
   -8.3257    5.8073  -11.0302 C   0  0  0  0  0  0  0  0  0  0  0  0
   -8.3630    6.9533  -11.7202 F   0  0  0  0  0  0  0  0  0  0  0  0
   -6.3804    5.1365  -16.1459 C   0  0  0  0  0  0  0  0  0  0  0  0
  1  2  2  0
  2  3  1  0
  2  4  1  0
  4  5  1  0
  5  6  2  0
  6  7  1  0
  7  8  1  0
  8  9  1  0
  9 10  1  0
 10 11  1  0
  7 12  1  0
 12 13  2  0
 13 14  1  0
 14 15  1  0
 14 16  2  0
 16 17  1  0
 17 18  1  0
 18 19  2  0
 18 20  1  0
 20 21  1  0
 21 22  2  0
 22 23  1  0
 23 24  2  0
 25 24  1  6
 25 26  1  0
 26 27  1  0
 27 28  1  0
 28 29  1  0
 24 30  1  0
 30 31  2  0
 31 32  1  0
 17 33  2  0
 33  5  1  0
 11  8  1  0
 33 12  1  0
 31 21  1  0
 29 25  1  0
M  END
>  <smiles>  (2505) 
C37478-P278

>  <fragmenstein_outcome>  (2505) 
acceptable

>  <inchikey>  (2505) 
UAKSGJHYLXBQKT-UHFFFAOYSA-N

>  <fragmenstein_mode>  (2505) 
expansion

>  <HIPPO Pose ID>  (2505) 
28377

>  <Energy>  (2505) 
91.959074

>  <fragmenstein_error>  (2505) 


>  <tags>  (2505) 
{'openbind_xx01zvns2b_c1_fragmenstein', 'fragmenstein_placed'}

>  <ref_pdb>  (2505) 
175

>  <scratch_subdir>  (2505) 
/opt/xchem-fragalysis-2/maxwin/BulkDock/SCRATCH/511028/C37478-P278

>  <alias>  (2505) 
O=C(O)Cc1nn(C2CNC2)c2cc(Cl)cc(C(=O)Nc3ccc([C@@H]4CCOC4)cc3F)c12

>  <HIPPO Compound ID>  (2505) 
37478

>  <fragmenstein_runtime>  (2505) 
10.995487

$$$$
Cc1c([C@H]2CCOC2)ccc(NC(=O)c2cc(Cl)cc3c(C4CNC4)n(C)cc23)c1F
     RDKit          3D

 31 35  0  0  0  0  0  0  0  0999 V2000
   -8.9741    2.3238   -8.8191 C   0  0  0  0  0  0  0  0  0  0  0  0
   -8.5839    3.5898   -9.5211 C   0  0  0  0  0  0  0  0  0  0  0  0
   -8.1709    4.7379   -8.8118 C   0  0  0  0  0  0  0  0  0  0  0  0
   -7.9948    4.7260   -7.3066 C   0  0  1  0  0  0  0  0  0  0  0  0
   -6.6884    5.2980   -6.7770 C   0  0  0  0  0  0  0  0  0  0  0  0
   -7.0320    5.5289   -5.3209 C   0  0  0  0  0  0  0  0  0  0  0  0
   -8.4143    5.9102   -5.2783 O   0  0  0  0  0  0  0  0  0  0  0  0
   -9.0138    5.5557   -6.5375 C   0  0  0  0  0  0  0  0  0  0  0  0
   -7.9094    5.9077   -9.5459 C   0  0  0  0  0  0  0  0  0  0  0  0
   -7.9443    5.9180  -10.9428 C   0  0  0  0  0  0  0  0  0  0  0  0
   -8.2454    4.7569  -11.6424 C   0  0  0  0  0  0  0  0  0  0  0  0
   -8.1596    4.7192  -13.0342 N   0  0  0  0  0  0  0  0  0  0  0  0
   -7.6062    5.7586  -14.0336 C   0  0  0  0  0  0  0  0  0  0  0  0
   -7.2060    6.8411  -13.8559 O   0  0  0  0  0  0  0  0  0  0  0  0
   -7.5713    5.2410  -15.4111 C   0  0  0  0  0  0  0  0  0  0  0  0
   -8.7019    4.7558  -16.0969 C   0  0  0  0  0  0  0  0  0  0  0  0
   -8.7035    4.4979  -17.5091 C   0  0  0  0  0  0  0  0  0  0  0  0
  -10.2083    4.0598  -18.2294 Cl  0  0  0  0  0  0  0  0  0  0  0  0
   -7.5889    4.6588  -18.3663 C   0  0  0  0  0  0  0  0  0  0  0  0
   -6.4728    5.0949  -17.6560 C   0  0  0  0  0  0  0  0  0  0  0  0
   -5.2167    5.3843  -18.1566 C   0  0  0  0  0  0  0  0  0  0  0  0
   -4.8510    5.2843  -19.6937 C   0  0  0  0  0  0  0  0  0  0  0  0
   -3.4084    5.5122  -20.1723 C   0  0  0  0  0  0  0  0  0  0  0  0
   -3.7319    6.9245  -20.4626 N   0  0  0  0  0  0  0  0  0  0  0  0
   -5.1676    6.5609  -20.5049 C   0  0  0  0  0  0  0  0  0  0  0  0
   -4.4405    5.7607  -17.0736 N   0  0  0  0  0  0  0  0  0  0  0  0
   -3.0328    6.0874  -17.0466 C   0  0  0  0  0  0  0  0  0  0  0  0
   -5.2076    5.7829  -15.9264 C   0  0  0  0  0  0  0  0  0  0  0  0
   -6.4692    5.3700  -16.2591 C   0  0  0  0  0  0  0  0  0  0  0  0
   -8.5893    3.6119  -10.9278 C   0  0  0  0  0  0  0  0  0  0  0  0
   -8.9165    2.5046  -11.6101 F   0  0  0  0  0  0  0  0  0  0  0  0
  1  2  1  0
  2  3  2  0
  4  3  1  6
  4  5  1  0
  5  6  1  0
  6  7  1  0
  7  8  1  0
  3  9  1  0
  9 10  2  0
 10 11  1  0
 11 12  1  0
 12 13  1  0
 13 14  2  0
 13 15  1  0
 15 16  2  0
 16 17  1  0
 17 18  1  0
 17 19  2  0
 19 20  1  0
 20 21  2  0
 21 22  1  0
 22 23  1  0
 23 24  1  0
 24 25  1  0
 21 26  1  0
 26 27  1  0
 26 28  1  0
 28 29  2  0
 11 30  2  0
 30 31  1  0
 30  2  1  0
  8  4  1  0
 29 15  1  0
 29 20  1  0
 25 22  1  0
M  END
>  <smiles>  (2506) 
C37511-P278

>  <fragmenstein_outcome>  (2506) 
acceptable

>  <inchikey>  (2506) 
KQLLKWBEDJXULU-UHFFFAOYSA-N

>  <fragmenstein_mode>  (2506) 
expansion

>  <HIPPO Pose ID>  (2506) 
28384

>  <Energy>  (2506) 
119.406053

>  <fragmenstein_error>  (2506) 


>  <tags>  (2506) 
{'openbind_xx01zvns2b_c1_fragmenstein', 'fragmenstein_placed'}

>  <ref_pdb>  (2506) 
175

>  <scratch_subdir>  (2506) 
/opt/xchem-fragalysis-2/maxwin/BulkDock/SCRATCH/511028/C37511-P278

>  <alias>  (2506) 
Cc1c([C@H]2CCOC2)ccc(NC(=O)c2cc(Cl)cc3c(C4CNC4)n(C)cc23)c1F

>  <HIPPO Compound ID>  (2506) 
37511

>  <fragmenstein_runtime>  (2506) 
12.396366

$$$$
Nc1nn(C2CNC2)c2cc(Cl)cc(C(=O)Nc3ccc([C@H]4CCOC4)cc3F)c12
     RDKit          3D

 30 34  0  0  0  0  0  0  0  0999 V2000
   -4.4439    5.7609  -15.0626 N   0  0  0  0  0  0  0  0  0  0  0  0
   -5.0291    5.5091  -16.2401 C   0  0  0  0  0  0  0  0  0  0  0  0
   -4.3548    5.5363  -17.3792 N   0  0  0  0  0  0  0  0  0  0  0  0
   -5.2802    5.2700  -18.3138 N   0  0  0  0  0  0  0  0  0  0  0  0
   -4.9743    5.2932  -19.7518 C   0  0  0  0  0  0  0  0  0  0  0  0
   -3.4736    5.4243  -20.0988 C   0  0  0  0  0  0  0  0  0  0  0  0
   -3.8661    6.3703  -21.1828 N   0  0  0  0  0  0  0  0  0  0  0  0
   -5.0616    6.7063  -20.3591 C   0  0  0  0  0  0  0  0  0  0  0  0
   -6.5267    4.9946  -17.7959 C   0  0  0  0  0  0  0  0  0  0  0  0
   -7.7441    4.6345  -18.3886 C   0  0  0  0  0  0  0  0  0  0  0  0
   -8.8439    4.4628  -17.5442 C   0  0  0  0  0  0  0  0  0  0  0  0
  -10.3773    4.1283  -18.2339 Cl  0  0  0  0  0  0  0  0  0  0  0  0
   -8.7530    4.6470  -16.1691 C   0  0  0  0  0  0  0  0  0  0  0  0
   -7.5379    5.0360  -15.5978 C   0  0  0  0  0  0  0  0  0  0  0  0
   -7.4963    5.4921  -14.1896 C   0  0  0  0  0  0  0  0  0  0  0  0
   -7.0336    6.5465  -13.9895 O   0  0  0  0  0  0  0  0  0  0  0  0
   -8.1348    4.4750  -13.2130 N   0  0  0  0  0  0  0  0  0  0  0  0
   -8.2475    4.5019  -11.8201 C   0  0  0  0  0  0  0  0  0  0  0  0
   -8.3307    3.2994  -11.1234 C   0  0  0  0  0  0  0  0  0  0  0  0
   -8.2797    3.2917   -9.7215 C   0  0  0  0  0  0  0  0  0  0  0  0
   -8.1897    4.4872   -8.9860 C   0  0  0  0  0  0  0  0  0  0  0  0
   -7.9930    4.4182   -7.4782 C   0  0  1  0  0  0  0  0  0  0  0  0
   -6.5522    4.6938   -7.0791 C   0  0  0  0  0  0  0  0  0  0  0  0
   -6.5176    6.1879   -6.8456 C   0  0  0  0  0  0  0  0  0  0  0  0
   -7.8328    6.5771   -6.4350 O   0  0  0  0  0  0  0  0  0  0  0  0
   -8.7245    5.4702   -6.6512 C   0  0  0  0  0  0  0  0  0  0  0  0
   -8.2150    5.6931   -9.6965 C   0  0  0  0  0  0  0  0  0  0  0  0
   -8.2323    5.6942  -11.0930 C   0  0  0  0  0  0  0  0  0  0  0  0
   -8.2872    6.8807  -11.7150 F   0  0  0  0  0  0  0  0  0  0  0  0
   -6.3976    5.1842  -16.4190 C   0  0  0  0  0  0  0  0  0  0  0  0
  1  2  1  0
  2  3  2  0
  3  4  1  0
  4  5  1  0
  5  6  1  0
  6  7  1  0
  7  8  1  0
  4  9  1  0
  9 10  2  0
 10 11  1  0
 11 12  1  0
 11 13  2  0
 13 14  1  0
 14 15  1  0
 15 16  2  0
 15 17  1  0
 17 18  1  0
 18 19  2  0
 19 20  1  0
 20 21  2  0
 22 21  1  6
 22 23  1  0
 23 24  1  0
 24 25  1  0
 25 26  1  0
 21 27  1  0
 27 28  2  0
 28 29  1  0
 14 30  2  0
 30  2  1  0
  8  5  1  0
 30  9  1  0
 28 18  1  0
 26 22  1  0
M  END
>  <smiles>  (2507) 
C37526-P278

>  <fragmenstein_outcome>  (2507) 
acceptable

>  <inchikey>  (2507) 
URLDNRVAIRGYMC-UHFFFAOYSA-N

>  <fragmenstein_mode>  (2507) 
expansion

>  <HIPPO Pose ID>  (2507) 
28387

>  <Energy>  (2507) 
41.48081

>  <fragmenstein_error>  (2507) 


>  <tags>  (2507) 
{'openbind_xx01zvns2b_c1_fragmenstein', 'fragmenstein_placed'}

>  <ref_pdb>  (2507) 
175

>  <scratch_subdir>  (2507) 
/opt/xchem-fragalysis-2/maxwin/BulkDock/SCRATCH/511028/C37526-P278

>  <alias>  (2507) 
Nc1nn(C2CNC2)c2cc(Cl)cc(C(=O)Nc3ccc([C@H]4CCOC4)cc3F)c12

>  <HIPPO Compound ID>  (2507) 
32710

>  <fragmenstein_runtime>  (2507) 
10.673743

$$$$
Cc1c([C@H]2CCOC2)ccc(C(=O)C(=O)c2cc(Cl)cc3c2cnn3[C@@H]2C[C@@](C)(CO)[C@H]2C)c1F
     RDKit          3D

 35 39  0  0  0  0  0  0  0  0999 V2000
   -8.6762    5.2259   -8.6087 C   0  0  0  0  0  0  0  0  0  0  0  0
   -8.1198    4.1270   -9.4536 C   0  0  0  0  0  0  0  0  0  0  0  0
   -7.8033    2.8694   -8.9142 C   0  0  0  0  0  0  0  0  0  0  0  0
   -8.3877    2.2894   -7.6274 C   0  0  1  0  0  0  0  0  0  0  0  0
   -8.3564    3.0780   -6.3208 C   0  0  0  0  0  0  0  0  0  0  0  0
   -9.7901    3.1328   -5.8372 C   0  0  0  0  0  0  0  0  0  0  0  0
  -10.5101    2.1245   -6.5375 O   0  0  0  0  0  0  0  0  0  0  0  0
   -9.8562    1.9266   -7.7962 C   0  0  0  0  0  0  0  0  0  0  0  0
   -7.0262    2.0156   -9.7064 C   0  0  0  0  0  0  0  0  0  0  0  0
   -6.7367    2.3071  -11.0430 C   0  0  0  0  0  0  0  0  0  0  0  0
   -7.2139    3.4767  -11.6433 C   0  0  0  0  0  0  0  0  0  0  0  0
   -6.9994    3.6022  -13.1108 C   0  0  0  0  0  0  0  0  0  0  0  0
   -6.5746    2.6316  -13.7385 O   0  0  0  0  0  0  0  0  0  0  0  0
   -7.1942    4.8814  -13.9018 C   0  0  0  0  0  0  0  0  0  0  0  0
   -7.0099    5.9809  -13.3998 O   0  0  0  0  0  0  0  0  0  0  0  0
   -7.3745    4.7923  -15.3641 C   0  0  0  0  0  0  0  0  0  0  0  0
   -8.6071    4.4906  -15.9510 C   0  0  0  0  0  0  0  0  0  0  0  0
   -8.7249    4.4885  -17.3427 C   0  0  0  0  0  0  0  0  0  0  0  0
  -10.2514    4.1670  -18.0709 Cl  0  0  0  0  0  0  0  0  0  0  0  0
   -7.6437    4.7936  -18.1811 C   0  0  0  0  0  0  0  0  0  0  0  0
   -6.4172    5.0928  -17.5725 C   0  0  0  0  0  0  0  0  0  0  0  0
   -6.2676    5.0860  -16.1849 C   0  0  0  0  0  0  0  0  0  0  0  0
   -4.9113    5.4051  -15.9711 C   0  0  0  0  0  0  0  0  0  0  0  0
   -4.2423    5.6042  -17.1049 N   0  0  0  0  0  0  0  0  0  0  0  0
   -5.1804    5.4532  -18.0659 N   0  0  0  0  0  0  0  0  0  0  0  0
   -4.9075    5.8273  -19.4779 C   0  0  2  0  0  0  0  0  0  0  0  0
   -3.5175    5.3896  -19.9993 C   0  0  0  0  0  0  0  0  0  0  0  0
   -3.3411    6.8099  -20.6299 C   0  0  1  0  0  0  0  0  0  0  0  0
   -1.9391    7.3732  -20.3814 C   0  0  0  0  0  0  0  0  0  0  0  0
   -3.7283    6.8969  -22.1089 C   0  0  0  0  0  0  0  0  0  0  0  0
   -3.6739    8.2536  -22.5465 O   0  0  0  0  0  0  0  0  0  0  0  0
   -4.4099    7.3027  -19.5918 C   0  0  1  0  0  0  0  0  0  0  0  0
   -5.4436    8.3296  -19.9993 C   0  0  0  0  0  0  0  0  0  0  0  0
   -7.8597    4.3995  -10.8195 C   0  0  0  0  0  0  0  0  0  0  0  0
   -8.2947    5.5733  -11.2987 F   0  0  0  0  0  0  0  0  0  0  0  0
  1  2  1  0
  2  3  2  0
  4  3  1  6
  4  5  1  0
  5  6  1  0
  6  7  1  0
  7  8  1  0
  3  9  1  0
  9 10  2  0
 10 11  1  0
 11 12  1  0
 12 13  2  0
 12 14  1  0
 14 15  2  0
 14 16  1  0
 16 17  2  0
 17 18  1  0
 18 19  1  0
 18 20  2  0
 20 21  1  0
 21 22  2  0
 22 23  1  0
 23 24  2  0
 24 25  1  0
 26 25  1  1
 26 27  1  0
 27 28  1  0
 28 29  1  6
 28 30  1  0
 30 31  1  0
 28 32  1  0
 32 33  1  6
 11 34  2  0
 34 35  1  0
 34  2  1  0
  8  4  1  0
 22 16  1  0
 32 26  1  0
 25 21  1  0
M  END
>  <smiles>  (2508) 
C37541-P278

>  <fragmenstein_outcome>  (2508) 
acceptable

>  <inchikey>  (2508) 
SSDCLPMFGGSNOJ-UHFFFAOYSA-N

>  <fragmenstein_mode>  (2508) 
expansion

>  <HIPPO Pose ID>  (2508) 
28397

>  <Energy>  (2508) 
147.975067

>  <fragmenstein_error>  (2508) 


>  <tags>  (2508) 
{'openbind_xx01zvns2b_c1_fragmenstein', 'fragmenstein_placed'}

>  <ref_pdb>  (2508) 
175

>  <scratch_subdir>  (2508) 
/opt/xchem-fragalysis-2/maxwin/BulkDock/SCRATCH/511028/C37541-P278

>  <alias>  (2508) 
Cc1c([C@H]2CCOC2)ccc(C(=O)C(=O)c2cc(Cl)cc3c2cnn3[C@@H]2C[C@@](C)(CO)[C@H]2C)c1F

>  <HIPPO Compound ID>  (2508) 
37541

>  <fragmenstein_runtime>  (2508) 
34.354927

$$$$
CCN1C[C@H](n2ncc3c(C(=O)Nc4ccc([C@@]5(CN)CCOC5)cc4F)cc(Cl)cc32)[C@@H]1C
     RDKit          3D

 34 38  0  0  0  0  0  0  0  0999 V2000
   -1.6951    7.1577  -22.2064 C   0  0  0  0  0  0  0  0  0  0  0  0
   -2.7555    7.5965  -21.2039 C   0  0  0  0  0  0  0  0  0  0  0  0
   -3.7724    6.5641  -21.0543 N   0  0  0  0  0  0  0  0  0  0  0  0
   -4.8579    6.9893  -20.1416 C   0  0  0  0  0  0  0  0  0  0  0  0
   -4.9562    5.5217  -19.6723 C   0  0  2  0  0  0  0  0  0  0  0  0
   -5.2709    5.4259  -18.2322 N   0  0  0  0  0  0  0  0  0  0  0  0
   -4.4331    5.8495  -17.2636 N   0  0  0  0  0  0  0  0  0  0  0  0
   -5.1654    5.8086  -16.1526 C   0  0  0  0  0  0  0  0  0  0  0  0
   -6.4694    5.3284  -16.3787 C   0  0  0  0  0  0  0  0  0  0  0  0
   -7.6261    5.1364  -15.5987 C   0  0  0  0  0  0  0  0  0  0  0  0
   -7.6857    5.7271  -14.2513 C   0  0  0  0  0  0  0  0  0  0  0  0
   -7.4449    6.8670  -14.1745 O   0  0  0  0  0  0  0  0  0  0  0  0
   -8.1073    4.7178  -13.1622 N   0  0  0  0  0  0  0  0  0  0  0  0
   -8.2248    4.8718  -11.7830 C   0  0  0  0  0  0  0  0  0  0  0  0
   -8.1261    6.1401  -11.2211 C   0  0  0  0  0  0  0  0  0  0  0  0
   -8.0823    6.2998   -9.8373 C   0  0  0  0  0  0  0  0  0  0  0  0
   -8.0802    5.1911   -8.9779 C   0  0  0  0  0  0  0  0  0  0  0  0
   -7.8021    5.3989   -7.4792 C   0  0  1  0  0  0  0  0  0  0  0  0
   -9.1480    5.5752   -6.7309 C   0  0  0  0  0  0  0  0  0  0  0  0
   -9.1040    5.7681   -5.2819 N   0  0  0  0  0  0  0  0  0  0  0  0
   -6.9765    4.2742   -6.8823 C   0  0  0  0  0  0  0  0  0  0  0  0
   -6.2024    4.9015   -5.7409 C   0  0  0  0  0  0  0  0  0  0  0  0
   -6.1818    6.3182   -5.9510 O   0  0  0  0  0  0  0  0  0  0  0  0
   -6.8472    6.5776   -7.1964 C   0  0  0  0  0  0  0  0  0  0  0  0
   -8.2897    3.9186   -9.5522 C   0  0  0  0  0  0  0  0  0  0  0  0
   -8.3691    3.7715  -10.9431 C   0  0  0  0  0  0  0  0  0  0  0  0
   -8.5034    2.5490  -11.4750 F   0  0  0  0  0  0  0  0  0  0  0  0
   -8.7883    4.6455  -16.1888 C   0  0  0  0  0  0  0  0  0  0  0  0
   -8.8149    4.4252  -17.5600 C   0  0  0  0  0  0  0  0  0  0  0  0
  -10.3135    4.0381  -18.2913 Cl  0  0  0  0  0  0  0  0  0  0  0  0
   -7.6916    4.6241  -18.3705 C   0  0  0  0  0  0  0  0  0  0  0  0
   -6.5172    5.0720  -17.7487 C   0  0  0  0  0  0  0  0  0  0  0  0
   -3.4638    5.4285  -20.1274 C   0  0  2  0  0  0  0  0  0  0  0  0
   -2.2751    5.5755  -19.1892 C   0  0  0  0  0  0  0  0  0  0  0  0
  1  2  1  0
  2  3  1  0
  3  4  1  0
  4  5  1  0
  5  6  1  1
  6  7  1  0
  7  8  2  0
  8  9  1  0
  9 10  2  0
 10 11  1  0
 11 12  2  0
 11 13  1  0
 13 14  1  0
 14 15  2  0
 15 16  1  0
 16 17  2  0
 17 18  1  0
 18 19  1  1
 19 20  1  0
 18 21  1  0
 21 22  1  0
 22 23  1  0
 23 24  1  0
 17 25  1  0
 25 26  2  0
 26 27  1  0
 10 28  1  0
 28 29  2  0
 29 30  1  0
 29 31  1  0
 31 32  2  0
  5 33  1  0
 33 34  1  1
 33  3  1  0
 32  6  1  0
 32  9  1  0
 26 14  1  0
 24 18  1  0
M  END
>  <smiles>  (2509) 
C37543-P278

>  <fragmenstein_outcome>  (2509) 
acceptable

>  <inchikey>  (2509) 
RGMVVABASKONMI-UHFFFAOYSA-N

>  <fragmenstein_mode>  (2509) 
expansion

>  <HIPPO Pose ID>  (2509) 
28398

>  <Energy>  (2509) 
122.328235

>  <fragmenstein_error>  (2509) 


>  <tags>  (2509) 
{'openbind_xx01zvns2b_c1_fragmenstein', 'fragmenstein_placed'}

>  <ref_pdb>  (2509) 
175

>  <scratch_subdir>  (2509) 
/opt/xchem-fragalysis-2/maxwin/BulkDock/SCRATCH/511028/C37543-P278

>  <alias>  (2509) 
CCN1C[C@H](n2ncc3c(C(=O)Nc4ccc([C@@]5(CN)CCOC5)cc4F)cc(Cl)cc32)[C@@H]1C

>  <HIPPO Compound ID>  (2509) 
37543

>  <fragmenstein_runtime>  (2509) 
8.41996

$$$$
NCCc1cc(NC(=O)c2cc(Cl)cc3c2cnn3C2(O)CN(c3ccccc3)C2)c(F)cc1[C@@H]1CCOC1
     RDKit          3D

 39 44  0  0  0  0  0  0  0  0999 V2000
   -8.6463    1.9346   -6.5697 N   0  0  0  0  0  0  0  0  0  0  0  0
   -8.6352    1.5539   -7.9848 C   0  0  0  0  0  0  0  0  0  0  0  0
   -9.4168    2.5196   -8.8561 C   0  0  0  0  0  0  0  0  0  0  0  0
   -8.7180    3.6602   -9.5708 C   0  0  0  0  0  0  0  0  0  0  0  0
   -8.6897    3.5836  -10.9903 C   0  0  0  0  0  0  0  0  0  0  0  0
   -8.3288    4.6812  -11.7605 C   0  0  0  0  0  0  0  0  0  0  0  0
   -8.2083    4.5711  -13.1475 N   0  0  0  0  0  0  0  0  0  0  0  0
   -7.4743    5.4712  -14.1650 C   0  0  0  0  0  0  0  0  0  0  0  0
   -6.9196    6.4880  -14.0144 O   0  0  0  0  0  0  0  0  0  0  0  0
   -7.4961    4.9635  -15.5520 C   0  0  0  0  0  0  0  0  0  0  0  0
   -8.6852    4.6208  -16.1915 C   0  0  0  0  0  0  0  0  0  0  0  0
   -8.7033    4.5120  -17.5805 C   0  0  0  0  0  0  0  0  0  0  0  0
  -10.2001    4.1712  -18.3496 Cl  0  0  0  0  0  0  0  0  0  0  0  0
   -7.5708    4.7752  -18.3695 C   0  0  0  0  0  0  0  0  0  0  0  0
   -6.3753    5.0743  -17.7023 C   0  0  0  0  0  0  0  0  0  0  0  0
   -6.3146    5.1011  -16.3084 C   0  0  0  0  0  0  0  0  0  0  0  0
   -4.9577    5.3291  -16.0072 C   0  0  0  0  0  0  0  0  0  0  0  0
   -4.2054    5.4390  -17.0992 N   0  0  0  0  0  0  0  0  0  0  0  0
   -5.1167    5.4932  -18.1121 N   0  0  0  0  0  0  0  0  0  0  0  0
   -4.8771    6.5786  -19.1275 C   0  0  0  0  0  0  0  0  0  0  0  0
   -5.1971    7.9295  -18.6387 O   0  0  0  0  0  0  0  0  0  0  0  0
   -3.4296    6.3985  -19.7010 C   0  0  0  0  0  0  0  0  0  0  0  0
   -3.9942    6.7156  -20.9652 N   0  0  0  0  0  0  0  0  0  0  0  0
   -3.4132    6.9187  -22.2220 C   0  0  0  0  0  0  0  0  0  0  0  0
   -2.0218    6.9650  -22.3767 C   0  0  0  0  0  0  0  0  0  0  0  0
   -1.4412    7.1769  -23.6312 C   0  0  0  0  0  0  0  0  0  0  0  0
   -2.2476    7.3531  -24.7525 C   0  0  0  0  0  0  0  0  0  0  0  0
   -3.6326    7.3205  -24.6177 C   0  0  0  0  0  0  0  0  0  0  0  0
   -4.2072    7.1100  -23.3608 C   0  0  0  0  0  0  0  0  0  0  0  0
   -5.3059    6.2847  -20.5749 C   0  0  0  0  0  0  0  0  0  0  0  0
   -8.0823    5.8833  -11.1067 C   0  0  0  0  0  0  0  0  0  0  0  0
   -7.9477    7.0276  -11.7886 F   0  0  0  0  0  0  0  0  0  0  0  0
   -8.0179    5.9569   -9.7197 C   0  0  0  0  0  0  0  0  0  0  0  0
   -8.2586    4.8336   -8.9204 C   0  0  0  0  0  0  0  0  0  0  0  0
   -7.9906    4.8957   -7.4328 C   0  0  2  0  0  0  0  0  0  0  0  0
   -9.1810    5.1514   -6.5339 C   0  0  0  0  0  0  0  0  0  0  0  0
   -8.5110    5.3815   -5.1954 C   0  0  0  0  0  0  0  0  0  0  0  0
   -7.2528    6.0225   -5.4631 O   0  0  0  0  0  0  0  0  0  0  0  0
   -7.0225    5.9519   -6.8861 C   0  0  0  0  0  0  0  0  0  0  0  0
  1  2  1  0
  2  3  1  0
  3  4  1  0
  4  5  2  0
  5  6  1  0
  6  7  1  0
  7  8  1  0
  8  9  2  0
  8 10  1  0
 10 11  2  0
 11 12  1  0
 12 13  1  0
 12 14  2  0
 14 15  1  0
 15 16  2  0
 16 17  1  0
 17 18  2  0
 18 19  1  0
 19 20  1  0
 20 21  1  0
 20 22  1  0
 22 23  1  0
 23 24  1  0
 24 25  2  0
 25 26  1  0
 26 27  2  0
 27 28  1  0
 28 29  2  0
 23 30  1  0
  6 31  2  0
 31 32  1  0
 31 33  1  0
 33 34  2  0
 35 34  1  6
 35 36  1  0
 36 37  1  0
 37 38  1  0
 38 39  1  0
 34  4  1  0
 39 35  1  0
 16 10  1  0
 30 20  1  0
 19 15  1  0
 29 24  1  0
M  END
>  <smiles>  (2510) 
C37547-P278

>  <fragmenstein_outcome>  (2510) 
acceptable

>  <inchikey>  (2510) 
XFXCHARPXKEPKI-UHFFFAOYSA-N

>  <fragmenstein_mode>  (2510) 
expansion

>  <HIPPO Pose ID>  (2510) 
28401

>  <Energy>  (2510) 
191.901278

>  <fragmenstein_error>  (2510) 


>  <tags>  (2510) 
{'openbind_xx01zvns2b_c1_fragmenstein', 'fragmenstein_placed'}

>  <ref_pdb>  (2510) 
175

>  <scratch_subdir>  (2510) 
/opt/xchem-fragalysis-2/maxwin/BulkDock/SCRATCH/511028/C37547-P278

>  <alias>  (2510) 
NCCc1cc(NC(=O)c2cc(Cl)cc3c2cnn3C2(O)CN(c3ccccc3)C2)c(F)cc1[C@@H]1CCOC1

>  <HIPPO Compound ID>  (2510) 
37547

>  <fragmenstein_runtime>  (2510) 
12.063331

$$$$
NCc1cc(NC(=O)c2cc(Cl)cc3c2cnn3C2(N)CNC2)c(F)cc1[C@@H]1CCOC1
     RDKit          3D

 32 36  0  0  0  0  0  0  0  0999 V2000
   -8.4826    7.9715   -9.4200 N   0  0  0  0  0  0  0  0  0  0  0  0
   -7.7811    6.8279   -8.8353 C   0  0  0  0  0  0  0  0  0  0  0  0
   -8.1546    5.5303   -9.5192 C   0  0  0  0  0  0  0  0  0  0  0  0
   -8.0949    5.5521  -10.9369 C   0  0  0  0  0  0  0  0  0  0  0  0
   -8.4084    4.4390  -11.6979 C   0  0  0  0  0  0  0  0  0  0  0  0
   -8.2807    4.4478  -13.0850 N   0  0  0  0  0  0  0  0  0  0  0  0
   -7.6056    5.4691  -14.0222 C   0  0  0  0  0  0  0  0  0  0  0  0
   -7.1168    6.5029  -13.7883 O   0  0  0  0  0  0  0  0  0  0  0  0
   -7.5714    5.0348  -15.4368 C   0  0  0  0  0  0  0  0  0  0  0  0
   -8.7242    4.6370  -16.1111 C   0  0  0  0  0  0  0  0  0  0  0  0
   -8.7013    4.5313  -17.4986 C   0  0  0  0  0  0  0  0  0  0  0  0
  -10.1593    4.1318  -18.3145 Cl  0  0  0  0  0  0  0  0  0  0  0  0
   -7.5573    4.8361  -18.2532 C   0  0  0  0  0  0  0  0  0  0  0  0
   -6.3901    5.1862  -17.5568 C   0  0  0  0  0  0  0  0  0  0  0  0
   -6.3776    5.2346  -16.1596 C   0  0  0  0  0  0  0  0  0  0  0  0
   -5.0441    5.5333  -15.8151 C   0  0  0  0  0  0  0  0  0  0  0  0
   -4.2560    5.6528  -16.8793 N   0  0  0  0  0  0  0  0  0  0  0  0
   -5.1245    5.6107  -17.9246 N   0  0  0  0  0  0  0  0  0  0  0  0
   -4.7305    6.3682  -19.1363 C   0  0  0  0  0  0  0  0  0  0  0  0
   -4.5612    7.8425  -18.9646 N   0  0  0  0  0  0  0  0  0  0  0  0
   -3.4558    5.7709  -19.8007 C   0  0  0  0  0  0  0  0  0  0  0  0
   -4.0196    6.1787  -21.1140 N   0  0  0  0  0  0  0  0  0  0  0  0
   -5.3753    6.0867  -20.4915 C   0  0  0  0  0  0  0  0  0  0  0  0
   -8.8191    3.2998  -11.0370 C   0  0  0  0  0  0  0  0  0  0  0  0
   -9.1988    2.2343  -11.7394 F   0  0  0  0  0  0  0  0  0  0  0  0
   -8.8353    3.2216   -9.6485 C   0  0  0  0  0  0  0  0  0  0  0  0
   -8.4750    4.3183   -8.8457 C   0  0  0  0  0  0  0  0  0  0  0  0
   -8.3322    4.1408   -7.3293 C   0  0  2  0  0  0  0  0  0  0  0  0
   -8.5546    2.7415   -6.7572 C   0  0  0  0  0  0  0  0  0  0  0  0
  -10.0371    2.7008   -6.4933 C   0  0  0  0  0  0  0  0  0  0  0  0
  -10.4015    4.0358   -6.1001 O   0  0  0  0  0  0  0  0  0  0  0  0
   -9.3332    4.9198   -6.4766 C   0  0  0  0  0  0  0  0  0  0  0  0
  1  2  1  0
  2  3  1  0
  3  4  2  0
  4  5  1  0
  5  6  1  0
  6  7  1  0
  7  8  2  0
  7  9  1  0
  9 10  2  0
 10 11  1  0
 11 12  1  0
 11 13  2  0
 13 14  1  0
 14 15  2  0
 15 16  1  0
 16 17  2  0
 17 18  1  0
 18 19  1  0
 19 20  1  0
 19 21  1  0
 21 22  1  0
 22 23  1  0
  5 24  2  0
 24 25  1  0
 24 26  1  0
 26 27  2  0
 28 27  1  6
 28 29  1  0
 29 30  1  0
 30 31  1  0
 31 32  1  0
 27  3  1  0
 32 28  1  0
 15  9  1  0
 23 19  1  0
 18 14  1  0
M  END
>  <smiles>  (2511) 
C37551-P278

>  <fragmenstein_outcome>  (2511) 
acceptable

>  <inchikey>  (2511) 
WYFKOBYMLZIVOU-UHFFFAOYSA-N

>  <fragmenstein_mode>  (2511) 
expansion

>  <HIPPO Pose ID>  (2511) 
28405

>  <Energy>  (2511) 
159.459644

>  <fragmenstein_error>  (2511) 


>  <tags>  (2511) 
{'openbind_xx01zvns2b_c1_fragmenstein', 'fragmenstein_placed'}

>  <ref_pdb>  (2511) 
175

>  <scratch_subdir>  (2511) 
/opt/xchem-fragalysis-2/maxwin/BulkDock/SCRATCH/511028/C37551-P278

>  <alias>  (2511) 
NCc1cc(NC(=O)c2cc(Cl)cc3c2cnn3C2(N)CNC2)c(F)cc1[C@@H]1CCOC1

>  <HIPPO Compound ID>  (2511) 
19057

>  <fragmenstein_runtime>  (2511) 
12.586269

$$$$
N#Cc1cc([C@H]2CCOC2)ccc1NC(=O)c1cc(Cl)cc2c1cnn2C1CNC1
     RDKit          3D

 30 34  0  0  0  0  0  0  0  0999 V2000
   -8.3584    8.1688  -11.6785 N   0  0  0  0  0  0  0  0  0  0  0  0
   -8.2745    7.0331  -11.4515 C   0  0  0  0  0  0  0  0  0  0  0  0
   -8.2526    5.6791  -10.9862 C   0  0  0  0  0  0  0  0  0  0  0  0
   -8.4274    5.5264   -9.5970 C   0  0  0  0  0  0  0  0  0  0  0  0
   -8.6097    4.2684   -9.0111 C   0  0  0  0  0  0  0  0  0  0  0  0
   -8.9753    4.1918   -7.5454 C   0  0  1  0  0  0  0  0  0  0  0  0
   -9.8195    2.9882   -7.1416 C   0  0  0  0  0  0  0  0  0  0  0  0
   -8.8469    2.1238   -6.4045 C   0  0  0  0  0  0  0  0  0  0  0  0
   -8.0440    3.0729   -5.6832 O   0  0  0  0  0  0  0  0  0  0  0  0
   -7.7810    4.1420   -6.6022 C   0  0  0  0  0  0  0  0  0  0  0  0
   -8.5311    3.1469   -9.8366 C   0  0  0  0  0  0  0  0  0  0  0  0
   -8.3657    3.2862  -11.2165 C   0  0  0  0  0  0  0  0  0  0  0  0
   -8.2274    4.5451  -11.8086 C   0  0  0  0  0  0  0  0  0  0  0  0
   -8.1066    4.5495  -13.2027 N   0  0  0  0  0  0  0  0  0  0  0  0
   -7.4356    5.5676  -14.1468 C   0  0  0  0  0  0  0  0  0  0  0  0
   -6.9455    6.6005  -13.9190 O   0  0  0  0  0  0  0  0  0  0  0  0
   -7.4968    5.1364  -15.5620 C   0  0  0  0  0  0  0  0  0  0  0  0
   -8.6960    4.6989  -16.1361 C   0  0  0  0  0  0  0  0  0  0  0  0
   -8.7702    4.4865  -17.5096 C   0  0  0  0  0  0  0  0  0  0  0  0
  -10.2844    4.0882  -18.2106 Cl  0  0  0  0  0  0  0  0  0  0  0  0
   -7.6666    4.6712  -18.3466 C   0  0  0  0  0  0  0  0  0  0  0  0
   -6.4677    5.0837  -17.7495 C   0  0  0  0  0  0  0  0  0  0  0  0
   -6.3647    5.3152  -16.3792 C   0  0  0  0  0  0  0  0  0  0  0  0
   -5.0274    5.7215  -16.1868 C   0  0  0  0  0  0  0  0  0  0  0  0
   -4.3215    5.7180  -17.3171 N   0  0  0  0  0  0  0  0  0  0  0  0
   -5.2231    5.3820  -18.2602 N   0  0  0  0  0  0  0  0  0  0  0  0
   -4.9021    5.3357  -19.6944 C   0  0  0  0  0  0  0  0  0  0  0  0
   -3.4035    5.4578  -20.0402 C   0  0  0  0  0  0  0  0  0  0  0  0
   -3.7971    6.3442  -21.1735 N   0  0  0  0  0  0  0  0  0  0  0  0
   -4.9998    6.7136  -20.3745 C   0  0  0  0  0  0  0  0  0  0  0  0
  1  2  3  0
  2  3  1  0
  3  4  2  0
  4  5  1  0
  6  5  1  6
  6  7  1  0
  7  8  1  0
  8  9  1  0
  9 10  1  0
  5 11  2  0
 11 12  1  0
 12 13  2  0
 13 14  1  0
 14 15  1  0
 15 16  2  0
 15 17  1  0
 17 18  2  0
 18 19  1  0
 19 20  1  0
 19 21  2  0
 21 22  1  0
 22 23  2  0
 23 24  1  0
 24 25  2  0
 25 26  1  0
 26 27  1  0
 27 28  1  0
 28 29  1  0
 29 30  1  0
 13  3  1  0
 23 17  1  0
 30 27  1  0
 10  6  1  0
 26 22  1  0
M  END
>  <smiles>  (2512) 
C37554-P278

>  <fragmenstein_outcome>  (2512) 
acceptable

>  <inchikey>  (2512) 
FPQPIGUOHMAGDU-UHFFFAOYSA-N

>  <fragmenstein_mode>  (2512) 
expansion

>  <HIPPO Pose ID>  (2512) 
28407

>  <Energy>  (2512) 
107.990186

>  <fragmenstein_error>  (2512) 


>  <tags>  (2512) 
{'openbind_xx01zvns2b_c1_fragmenstein', 'fragmenstein_placed'}

>  <ref_pdb>  (2512) 
175

>  <scratch_subdir>  (2512) 
/opt/xchem-fragalysis-2/maxwin/BulkDock/SCRATCH/511028/C37554-P278

>  <alias>  (2512) 
N#Cc1cc([C@H]2CCOC2)ccc1NC(=O)c1cc(Cl)cc2c1cnn2C1CNC1

>  <HIPPO Compound ID>  (2512) 
37554

>  <fragmenstein_runtime>  (2512) 
12.312302

$$$$
CC(C)NC(=O)[C@](O)(Nc1ccc([C@@H]2CCOC2)cc1F)c1cc(Cl)cc2c1cnn2C1CNC1
     RDKit          3D

 35 39  0  0  0  0  0  0  0  0999 V2000
   -3.1677    2.5464  -13.3813 C   0  0  0  0  0  0  0  0  0  0  0  0
   -4.1135    2.7276  -12.1993 C   0  0  0  0  0  0  0  0  0  0  0  0
   -3.4180    3.3881  -11.0186 C   0  0  0  0  0  0  0  0  0  0  0  0
   -5.2462    3.5054  -12.6299 N   0  0  0  0  0  0  0  0  0  0  0  0
   -6.5580    3.0693  -13.3427 C   0  0  0  0  0  0  0  0  0  0  0  0
   -6.9515    2.0035  -13.6186 O   0  0  0  0  0  0  0  0  0  0  0  0
   -7.3050    4.4395  -13.7303 C   0  0  2  0  0  0  0  0  0  0  0  0
   -6.5874    5.6029  -13.3212 O   0  0  0  0  0  0  0  0  0  0  0  0
   -8.6387    4.5174  -13.0968 N   0  0  0  0  0  0  0  0  0  0  0  0
   -8.5930    4.5757  -11.6702 C   0  0  0  0  0  0  0  0  0  0  0  0
   -8.3918    5.7813  -10.9987 C   0  0  0  0  0  0  0  0  0  0  0  0
   -8.3209    5.8121   -9.6026 C   0  0  0  0  0  0  0  0  0  0  0  0
   -8.4506    4.6416   -8.8327 C   0  0  0  0  0  0  0  0  0  0  0  0
   -8.4173    4.7732   -7.3330 C   0  0  2  0  0  0  0  0  0  0  0  0
   -7.0460    5.1164   -6.7798 C   0  0  0  0  0  0  0  0  0  0  0  0
   -7.2239    4.8653   -5.2957 C   0  0  0  0  0  0  0  0  0  0  0  0
   -8.3142    3.9483   -5.1358 O   0  0  0  0  0  0  0  0  0  0  0  0
   -8.7841    3.5885   -6.4497 C   0  0  0  0  0  0  0  0  0  0  0  0
   -8.6503    3.4325   -9.5022 C   0  0  0  0  0  0  0  0  0  0  0  0
   -8.7283    3.4176  -10.8941 C   0  0  0  0  0  0  0  0  0  0  0  0
   -8.9919    2.2655  -11.5152 F   0  0  0  0  0  0  0  0  0  0  0  0
   -7.3859    4.5844  -15.2556 C   0  0  0  0  0  0  0  0  0  0  0  0
   -8.5755    4.3388  -15.9760 C   0  0  0  0  0  0  0  0  0  0  0  0
   -8.6489    4.4909  -17.3601 C   0  0  0  0  0  0  0  0  0  0  0  0
  -10.1324    4.1679  -18.1662 Cl  0  0  0  0  0  0  0  0  0  0  0  0
   -7.5621    4.9388  -18.1074 C   0  0  0  0  0  0  0  0  0  0  0  0
   -6.3793    5.1998  -17.4130 C   0  0  0  0  0  0  0  0  0  0  0  0
   -6.2709    5.0052  -16.0348 C   0  0  0  0  0  0  0  0  0  0  0  0
   -4.9310    5.3529  -15.7459 C   0  0  0  0  0  0  0  0  0  0  0  0
   -4.2607    5.7880  -16.8074 N   0  0  0  0  0  0  0  0  0  0  0  0
   -5.1500    5.6819  -17.8140 N   0  0  0  0  0  0  0  0  0  0  0  0
   -4.8773    6.3292  -19.1069 C   0  0  0  0  0  0  0  0  0  0  0  0
   -3.3690    6.3848  -19.4356 C   0  0  0  0  0  0  0  0  0  0  0  0
   -3.6930    6.0062  -20.8221 N   0  0  0  0  0  0  0  0  0  0  0  0
   -4.9608    5.4147  -20.3235 C   0  0  0  0  0  0  0  0  0  0  0  0
  1  2  1  0
  2  3  1  0
  2  4  1  0
  4  5  1  0
  5  6  2  0
  5  7  1  0
  7  8  1  1
  7  9  1  0
  9 10  1  0
 10 11  2  0
 11 12  1  0
 12 13  2  0
 14 13  1  6
 14 15  1  0
 15 16  1  0
 16 17  1  0
 17 18  1  0
 13 19  1  0
 19 20  2  0
 20 21  1  0
  7 22  1  0
 22 23  2  0
 23 24  1  0
 24 25  1  0
 24 26  2  0
 26 27  1  0
 27 28  2  0
 28 29  1  0
 29 30  2  0
 30 31  1  0
 31 32  1  0
 32 33  1  0
 33 34  1  0
 34 35  1  0
 20 10  1  0
 28 22  1  0
 35 32  1  0
 18 14  1  0
 31 27  1  0
M  END
>  <smiles>  (2513) 
C37555-P278

>  <fragmenstein_outcome>  (2513) 
acceptable

>  <inchikey>  (2513) 
GXRUYNUYXUVCQI-UHFFFAOYSA-N

>  <fragmenstein_mode>  (2513) 
expansion

>  <HIPPO Pose ID>  (2513) 
28408

>  <Energy>  (2513) 
141.153397

>  <fragmenstein_error>  (2513) 


>  <tags>  (2513) 
{'openbind_xx01zvns2b_c1_fragmenstein', 'fragmenstein_placed'}

>  <ref_pdb>  (2513) 
175

>  <scratch_subdir>  (2513) 
/opt/xchem-fragalysis-2/maxwin/BulkDock/SCRATCH/511028/C37555-P278

>  <alias>  (2513) 
CC(C)NC(=O)[C@](O)(Nc1ccc([C@@H]2CCOC2)cc1F)c1cc(Cl)cc2c1cnn2C1CNC1

>  <HIPPO Compound ID>  (2513) 
37555

>  <fragmenstein_runtime>  (2513) 
9.753887

$$$$
O=C(NCC(F)F)[C@@](O)(Nc1ccc([C@@H]2CCOC2)cc1F)c1cc(Cl)cc2c1cnn2C1CNC1
     RDKit          3D

 36 40  0  0  0  0  0  0  0  0999 V2000
   -6.3627    7.2910  -13.6415 O   0  0  0  0  0  0  0  0  0  0  0  0
   -7.3011    6.6138  -13.4625 C   0  0  0  0  0  0  0  0  0  0  0  0
   -8.7316    6.9823  -12.9645 N   0  0  0  0  0  0  0  0  0  0  0  0
   -9.2688    8.2454  -12.4944 C   0  0  0  0  0  0  0  0  0  0  0  0
   -9.0684    8.4765  -10.9934 C   0  0  0  0  0  0  0  0  0  0  0  0
   -9.8181    7.6130  -10.2716 F   0  0  0  0  0  0  0  0  0  0  0  0
   -7.7847    8.2248  -10.6479 F   0  0  0  0  0  0  0  0  0  0  0  0
   -7.2854    4.9980  -13.7210 C   0  0  1  0  0  0  0  0  0  0  0  0
   -6.0661    4.3543  -13.4155 O   0  0  0  0  0  0  0  0  0  0  0  0
   -8.3436    4.3264  -12.9369 N   0  0  0  0  0  0  0  0  0  0  0  0
   -8.2460    4.1774  -11.5299 C   0  0  0  0  0  0  0  0  0  0  0  0
   -7.6293    5.1000  -10.6814 C   0  0  0  0  0  0  0  0  0  0  0  0
   -7.6983    4.9813   -9.2841 C   0  0  0  0  0  0  0  0  0  0  0  0
   -8.3835    3.9266   -8.6704 C   0  0  0  0  0  0  0  0  0  0  0  0
   -8.4397    3.8397   -7.1633 C   0  0  2  0  0  0  0  0  0  0  0  0
   -9.3592    2.7966   -6.5472 C   0  0  0  0  0  0  0  0  0  0  0  0
   -9.5539    3.3379   -5.1502 C   0  0  0  0  0  0  0  0  0  0  0  0
   -9.6535    4.7617   -5.2955 O   0  0  0  0  0  0  0  0  0  0  0  0
   -8.9145    5.1247   -6.4747 C   0  0  0  0  0  0  0  0  0  0  0  0
   -8.9670    2.9755   -9.5043 C   0  0  0  0  0  0  0  0  0  0  0  0
   -8.9233    3.1286  -10.8916 C   0  0  0  0  0  0  0  0  0  0  0  0
   -9.5934    2.2411  -11.6333 F   0  0  0  0  0  0  0  0  0  0  0  0
   -7.4538    4.8286  -15.2448 C   0  0  0  0  0  0  0  0  0  0  0  0
   -8.6930    4.5288  -15.8570 C   0  0  0  0  0  0  0  0  0  0  0  0
   -8.8339    4.4569  -17.2477 C   0  0  0  0  0  0  0  0  0  0  0  0
  -10.3699    4.1403  -17.9491 Cl  0  0  0  0  0  0  0  0  0  0  0  0
   -7.7659    4.6908  -18.1102 C   0  0  0  0  0  0  0  0  0  0  0  0
   -6.5369    4.9942  -17.5230 C   0  0  0  0  0  0  0  0  0  0  0  0
   -6.3671    5.0620  -16.1402 C   0  0  0  0  0  0  0  0  0  0  0  0
   -4.9983    5.3952  -15.9856 C   0  0  0  0  0  0  0  0  0  0  0  0
   -4.3490    5.5061  -17.1435 N   0  0  0  0  0  0  0  0  0  0  0  0
   -5.3004    5.2785  -18.0658 N   0  0  0  0  0  0  0  0  0  0  0  0
   -5.0256    5.2983  -19.5135 C   0  0  0  0  0  0  0  0  0  0  0  0
   -3.5344    5.4201  -19.8998 C   0  0  0  0  0  0  0  0  0  0  0  0
   -3.9542    6.3508  -20.9886 N   0  0  0  0  0  0  0  0  0  0  0  0
   -5.1205    6.7064  -20.1290 C   0  0  0  0  0  0  0  0  0  0  0  0
  1  2  2  0
  2  3  1  0
  3  4  1  0
  4  5  1  0
  5  6  1  0
  5  7  1  0
  2  8  1  0
  8  9  1  1
  8 10  1  0
 10 11  1  0
 11 12  2  0
 12 13  1  0
 13 14  2  0
 15 14  1  6
 15 16  1  0
 16 17  1  0
 17 18  1  0
 18 19  1  0
 14 20  1  0
 20 21  2  0
 21 22  1  0
  8 23  1  0
 23 24  2  0
 24 25  1  0
 25 26  1  0
 25 27  2  0
 27 28  1  0
 28 29  2  0
 29 30  1  0
 30 31  2  0
 31 32  1  0
 32 33  1  0
 33 34  1  0
 34 35  1  0
 35 36  1  0
 21 11  1  0
 29 23  1  0
 36 33  1  0
 19 15  1  0
 32 28  1  0
M  END
>  <smiles>  (2514) 
C37556-P278

>  <fragmenstein_outcome>  (2514) 
acceptable

>  <inchikey>  (2514) 
LHSOFULUZNWMKT-UHFFFAOYSA-N

>  <fragmenstein_mode>  (2514) 
expansion

>  <HIPPO Pose ID>  (2514) 
28411

>  <Energy>  (2514) 
166.830063

>  <fragmenstein_error>  (2514) 


>  <tags>  (2514) 
{'openbind_xx01zvns2b_c1_fragmenstein', 'fragmenstein_placed'}

>  <ref_pdb>  (2514) 
175

>  <scratch_subdir>  (2514) 
/opt/xchem-fragalysis-2/maxwin/BulkDock/SCRATCH/511028/C37556-P278

>  <alias>  (2514) 
O=C(NCC(F)F)[C@@](O)(Nc1ccc([C@@H]2CCOC2)cc1F)c1cc(Cl)cc2c1cnn2C1CNC1

>  <HIPPO Compound ID>  (2514) 
37556

>  <fragmenstein_runtime>  (2514) 
10.086145

$$$$
Cn1cc2c(C(=O)Nc3ccc([C@@H]4CCOC4)cc3F)cc(Cl)cc2c1C1CNC1
     RDKit          3D

 30 34  0  0  0  0  0  0  0  0999 V2000
   -3.0560    6.1323  -17.0395 C   0  0  0  0  0  0  0  0  0  0  0  0
   -4.4640    5.8103  -17.0916 N   0  0  0  0  0  0  0  0  0  0  0  0
   -5.2555    5.8426  -15.9602 C   0  0  0  0  0  0  0  0  0  0  0  0
   -6.5077    5.4245  -16.3185 C   0  0  0  0  0  0  0  0  0  0  0  0
   -7.6247    5.2833  -15.4978 C   0  0  0  0  0  0  0  0  0  0  0  0
   -7.6920    5.7114  -14.0959 C   0  0  0  0  0  0  0  0  0  0  0  0
   -7.3840    6.8015  -13.8189 O   0  0  0  0  0  0  0  0  0  0  0  0
   -8.1887    4.5551  -13.2036 N   0  0  0  0  0  0  0  0  0  0  0  0
   -8.3159    4.4708  -11.8189 C   0  0  0  0  0  0  0  0  0  0  0  0
   -8.5380    3.2024  -11.2974 C   0  0  0  0  0  0  0  0  0  0  0  0
   -8.5418    2.9821   -9.9208 C   0  0  0  0  0  0  0  0  0  0  0  0
   -8.3298    4.0229   -9.0171 C   0  0  0  0  0  0  0  0  0  0  0  0
   -8.1814    3.7652   -7.5244 C   0  0  2  0  0  0  0  0  0  0  0  0
   -8.5458    2.3816   -6.9974 C   0  0  0  0  0  0  0  0  0  0  0  0
  -10.0334    2.4776   -6.8136 C   0  0  0  0  0  0  0  0  0  0  0  0
  -10.2694    3.8135   -6.3325 O   0  0  0  0  0  0  0  0  0  0  0  0
   -9.1208    4.6102   -6.6796 C   0  0  0  0  0  0  0  0  0  0  0  0
   -8.1654    5.3145   -9.5499 C   0  0  0  0  0  0  0  0  0  0  0  0
   -8.1756    5.5341  -10.9329 C   0  0  0  0  0  0  0  0  0  0  0  0
   -8.0726    6.7968  -11.3677 F   0  0  0  0  0  0  0  0  0  0  0  0
   -8.7356    4.7828  -16.2021 C   0  0  0  0  0  0  0  0  0  0  0  0
   -8.7083    4.5168  -17.6073 C   0  0  0  0  0  0  0  0  0  0  0  0
  -10.1961    4.0525  -18.3368 Cl  0  0  0  0  0  0  0  0  0  0  0  0
   -7.5784    4.6807  -18.4408 C   0  0  0  0  0  0  0  0  0  0  0  0
   -6.4818    5.1370  -17.7122 C   0  0  0  0  0  0  0  0  0  0  0  0
   -5.2166    5.4238  -18.1879 C   0  0  0  0  0  0  0  0  0  0  0  0
   -4.8238    5.3068  -19.7156 C   0  0  0  0  0  0  0  0  0  0  0  0
   -3.3755    5.5311  -20.1754 C   0  0  0  0  0  0  0  0  0  0  0  0
   -3.6964    6.9395  -20.4874 N   0  0  0  0  0  0  0  0  0  0  0  0
   -5.1314    6.5745  -20.5441 C   0  0  0  0  0  0  0  0  0  0  0  0
  1  2  1  0
  2  3  1  0
  3  4  2  0
  4  5  1  0
  5  6  1  0
  6  7  2  0
  6  8  1  0
  8  9  1  0
  9 10  2  0
 10 11  1  0
 11 12  2  0
 13 12  1  6
 13 14  1  0
 14 15  1  0
 15 16  1  0
 16 17  1  0
 12 18  1  0
 18 19  2  0
 19 20  1  0
  5 21  2  0
 21 22  1  0
 22 23  1  0
 22 24  2  0
 24 25  1  0
 25 26  2  0
 26 27  1  0
 27 28  1  0
 28 29  1  0
 29 30  1  0
 26  2  1  0
 30 27  1  0
 25  4  1  0
 19  9  1  0
 17 13  1  0
M  END
>  <smiles>  (2515) 
C37453-P278

>  <fragmenstein_outcome>  (2515) 
acceptable

>  <inchikey>  (2515) 
MOAWKCCKOHPPBB-UHFFFAOYSA-N

>  <fragmenstein_mode>  (2515) 
expansion

>  <HIPPO Pose ID>  (2515) 
28418

>  <Energy>  (2515) 
123.011014

>  <fragmenstein_error>  (2515) 


>  <tags>  (2515) 
{'openbind_xx01zvns2b_c1_fragmenstein', 'fragmenstein_placed'}

>  <ref_pdb>  (2515) 
175

>  <scratch_subdir>  (2515) 
/opt/xchem-fragalysis-2/maxwin/BulkDock/SCRATCH/511028/C37453-P278

>  <alias>  (2515) 
Cn1cc2c(C(=O)Nc3ccc([C@@H]4CCOC4)cc3F)cc(Cl)cc2c1C1CNC1

>  <HIPPO Compound ID>  (2515) 
37453

>  <fragmenstein_runtime>  (2515) 
19.488746

$$$$
O=C(NC1CCOCC1)[C@](O)(Nc1ccc([C@@H]2CCOC2)cc1F)c1cc(Cl)cc2c1cnn2C1CNC1
     RDKit          3D

 38 43  0  0  0  0  0  0  0  0999 V2000
   -5.3978    6.3669  -12.8846 O   0  0  0  0  0  0  0  0  0  0  0  0
   -5.9931    5.3739  -13.0689 C   0  0  0  0  0  0  0  0  0  0  0  0
   -5.6492    3.9064  -12.6837 N   0  0  0  0  0  0  0  0  0  0  0  0
   -4.5485    3.3704  -11.9087 C   0  0  0  0  0  0  0  0  0  0  0  0
   -4.6236    3.8708  -10.4593 C   0  0  0  0  0  0  0  0  0  0  0  0
   -4.2268    2.7956   -9.4605 C   0  0  0  0  0  0  0  0  0  0  0  0
   -3.1040    2.0819   -9.9638 O   0  0  0  0  0  0  0  0  0  0  0  0
   -3.4416    1.2558  -11.0813 C   0  0  0  0  0  0  0  0  0  0  0  0
   -4.5259    1.8512  -11.9780 C   0  0  0  0  0  0  0  0  0  0  0  0
   -7.4302    5.4009  -13.7810 C   0  0  2  0  0  0  0  0  0  0  0  0
   -7.9252    6.7399  -13.7859 O   0  0  0  0  0  0  0  0  0  0  0  0
   -8.3943    4.5587  -13.0568 N   0  0  0  0  0  0  0  0  0  0  0  0
   -8.4506    4.5666  -11.6550 C   0  0  0  0  0  0  0  0  0  0  0  0
   -8.3886    5.7270  -10.8906 C   0  0  0  0  0  0  0  0  0  0  0  0
   -8.4278    5.6659   -9.4925 C   0  0  0  0  0  0  0  0  0  0  0  0
   -8.5413    4.4426   -8.8059 C   0  0  0  0  0  0  0  0  0  0  0  0
   -8.6082    4.4837   -7.3015 C   0  0  2  0  0  0  0  0  0  0  0  0
   -7.3089    4.9404   -6.6596 C   0  0  0  0  0  0  0  0  0  0  0  0
   -7.5331    4.5979   -5.2033 C   0  0  0  0  0  0  0  0  0  0  0  0
   -8.4792    3.5260   -5.1542 O   0  0  0  0  0  0  0  0  0  0  0  0
   -8.8910    3.2204   -6.5010 C   0  0  0  0  0  0  0  0  0  0  0  0
   -8.6091    3.2736   -9.5642 C   0  0  0  0  0  0  0  0  0  0  0  0
   -8.5606    3.3539  -10.9583 C   0  0  0  0  0  0  0  0  0  0  0  0
   -8.5446    2.2247  -11.6748 F   0  0  0  0  0  0  0  0  0  0  0  0
   -7.3796    5.0420  -15.2760 C   0  0  0  0  0  0  0  0  0  0  0  0
   -8.5956    4.7026  -15.9362 C   0  0  0  0  0  0  0  0  0  0  0  0
   -8.6834    4.5235  -17.3147 C   0  0  0  0  0  0  0  0  0  0  0  0
  -10.1964    4.1662  -18.0465 Cl  0  0  0  0  0  0  0  0  0  0  0  0
   -7.5750    4.6945  -18.1300 C   0  0  0  0  0  0  0  0  0  0  0  0
   -6.3667    5.0196  -17.5057 C   0  0  0  0  0  0  0  0  0  0  0  0
   -6.2399    5.1793  -16.1216 C   0  0  0  0  0  0  0  0  0  0  0  0
   -4.8657    5.4952  -15.9586 C   0  0  0  0  0  0  0  0  0  0  0  0
   -4.1830    5.5124  -17.1033 N   0  0  0  0  0  0  0  0  0  0  0  0
   -5.1182    5.2671  -18.0349 N   0  0  0  0  0  0  0  0  0  0  0  0
   -4.8381    5.2465  -19.4809 C   0  0  0  0  0  0  0  0  0  0  0  0
   -3.3586    5.4160  -19.8778 C   0  0  0  0  0  0  0  0  0  0  0  0
   -3.8188    6.2972  -20.9914 N   0  0  0  0  0  0  0  0  0  0  0  0
   -5.0011    6.6259  -20.1447 C   0  0  0  0  0  0  0  0  0  0  0  0
  1  2  2  0
  2  3  1  0
  3  4  1  0
  4  5  1  0
  5  6  1  0
  6  7  1  0
  7  8  1  0
  8  9  1  0
  2 10  1  0
 10 11  1  6
 10 12  1  0
 12 13  1  0
 13 14  2  0
 14 15  1  0
 15 16  2  0
 17 16  1  6
 17 18  1  0
 18 19  1  0
 19 20  1  0
 20 21  1  0
 16 22  1  0
 22 23  2  0
 23 24  1  0
 10 25  1  0
 25 26  2  0
 26 27  1  0
 27 28  1  0
 27 29  2  0
 29 30  1  0
 30 31  2  0
 31 32  1  0
 32 33  2  0
 33 34  1  0
 34 35  1  0
 35 36  1  0
 36 37  1  0
 37 38  1  0
  9  4  1  0
 23 13  1  0
 31 25  1  0
 38 35  1  0
 21 17  1  0
 34 30  1  0
M  END
>  <smiles>  (2516) 
C37564-P278

>  <fragmenstein_outcome>  (2516) 
acceptable

>  <inchikey>  (2516) 
JAQWSODHSSZHCB-UHFFFAOYSA-N

>  <fragmenstein_mode>  (2516) 
expansion

>  <HIPPO Pose ID>  (2516) 
28421

>  <Energy>  (2516) 
149.520195

>  <fragmenstein_error>  (2516) 


>  <tags>  (2516) 
{'openbind_xx01zvns2b_c1_fragmenstein', 'fragmenstein_placed'}

>  <ref_pdb>  (2516) 
175

>  <scratch_subdir>  (2516) 
/opt/xchem-fragalysis-2/maxwin/BulkDock/SCRATCH/511028/C37564-P278

>  <alias>  (2516) 
O=C(NC1CCOCC1)[C@](O)(Nc1ccc([C@@H]2CCOC2)cc1F)c1cc(Cl)cc2c1cnn2C1CNC1

>  <HIPPO Compound ID>  (2516) 
37564

>  <fragmenstein_runtime>  (2516) 
13.714377

$$$$
CCCNC(=O)[C@@](O)(Nc1ccc([C@H]2CCOC2)cc1F)c1cc(Cl)cc2c1cnn2C1CNC1
     RDKit          3D

 35 39  0  0  0  0  0  0  0  0999 V2000
  -11.5148   10.0840  -12.6046 C   0  0  0  0  0  0  0  0  0  0  0  0
  -10.9123    8.8541  -13.2662 C   0  0  0  0  0  0  0  0  0  0  0  0
   -9.5046    8.5916  -12.7429 C   0  0  0  0  0  0  0  0  0  0  0  0
   -8.9492    7.3220  -13.1477 N   0  0  0  0  0  0  0  0  0  0  0  0
   -7.4889    6.9349  -13.5470 C   0  0  0  0  0  0  0  0  0  0  0  0
   -6.5362    7.6044  -13.6817 O   0  0  0  0  0  0  0  0  0  0  0  0
   -7.4440    5.3062  -13.7220 C   0  0  1  0  0  0  0  0  0  0  0  0
   -6.2466    4.7122  -13.2585 O   0  0  0  0  0  0  0  0  0  0  0  0
   -8.5637    4.6635  -13.0012 N   0  0  0  0  0  0  0  0  0  0  0  0
   -8.4638    4.5326  -11.5839 C   0  0  0  0  0  0  0  0  0  0  0  0
   -8.1136    5.5693  -10.7160 C   0  0  0  0  0  0  0  0  0  0  0  0
   -8.1162    5.3918   -9.3219 C   0  0  0  0  0  0  0  0  0  0  0  0
   -8.4800    4.1721   -8.7345 C   0  0  0  0  0  0  0  0  0  0  0  0
   -8.4591    3.9688   -7.2317 C   0  0  1  0  0  0  0  0  0  0  0  0
   -8.6821    5.2257   -6.3962 C   0  0  0  0  0  0  0  0  0  0  0  0
   -9.1696    4.6646   -5.0852 C   0  0  0  0  0  0  0  0  0  0  0  0
  -10.0519    3.6105   -5.4587 O   0  0  0  0  0  0  0  0  0  0  0  0
   -9.5022    3.0002   -6.6448 C   0  0  0  0  0  0  0  0  0  0  0  0
   -8.8030    3.1227   -9.5964 C   0  0  0  0  0  0  0  0  0  0  0  0
   -8.8223    3.3223  -10.9770 C   0  0  0  0  0  0  0  0  0  0  0  0
   -9.2064    2.3091  -11.7552 F   0  0  0  0  0  0  0  0  0  0  0  0
   -7.4730    5.0416  -15.2425 C   0  0  0  0  0  0  0  0  0  0  0  0
   -8.6496    4.6940  -15.9416 C   0  0  0  0  0  0  0  0  0  0  0  0
   -8.6779    4.6019  -17.3366 C   0  0  0  0  0  0  0  0  0  0  0  0
  -10.1549    4.1992  -18.1295 Cl  0  0  0  0  0  0  0  0  0  0  0  0
   -7.5593    4.9056  -18.1182 C   0  0  0  0  0  0  0  0  0  0  0  0
   -6.3708    5.2177  -17.4467 C   0  0  0  0  0  0  0  0  0  0  0  0
   -6.3105    5.2315  -16.0475 C   0  0  0  0  0  0  0  0  0  0  0  0
   -4.9471    5.4790  -15.7633 C   0  0  0  0  0  0  0  0  0  0  0  0
   -4.2025    5.6133  -16.8547 N   0  0  0  0  0  0  0  0  0  0  0  0
   -5.1019    5.5937  -17.8602 N   0  0  0  0  0  0  0  0  0  0  0  0
   -4.7206    6.3248  -19.0775 C   0  0  0  0  0  0  0  0  0  0  0  0
   -3.4763    5.7133  -19.7598 C   0  0  0  0  0  0  0  0  0  0  0  0
   -4.0742    6.1389  -21.0494 N   0  0  0  0  0  0  0  0  0  0  0  0
   -5.4056    6.0193  -20.3989 C   0  0  0  0  0  0  0  0  0  0  0  0
  1  2  1  0
  2  3  1  0
  3  4  1  0
  4  5  1  0
  5  6  2  0
  5  7  1  0
  7  8  1  1
  7  9  1  0
  9 10  1  0
 10 11  2  0
 11 12  1  0
 12 13  2  0
 14 13  1  6
 14 15  1  0
 15 16  1  0
 16 17  1  0
 17 18  1  0
 13 19  1  0
 19 20  2  0
 20 21  1  0
  7 22  1  0
 22 23  2  0
 23 24  1  0
 24 25  1  0
 24 26  2  0
 26 27  1  0
 27 28  2  0
 28 29  1  0
 29 30  2  0
 30 31  1  0
 31 32  1  0
 32 33  1  0
 33 34  1  0
 34 35  1  0
 20 10  1  0
 28 22  1  0
 35 32  1  0
 18 14  1  0
 31 27  1  0
M  END
>  <smiles>  (2517) 
C37568-P278

>  <fragmenstein_outcome>  (2517) 
acceptable

>  <inchikey>  (2517) 
PCHZGDHHWFXEJJ-UHFFFAOYSA-N

>  <fragmenstein_mode>  (2517) 
expansion

>  <HIPPO Pose ID>  (2517) 
28423

>  <Energy>  (2517) 
144.94886

>  <fragmenstein_error>  (2517) 


>  <tags>  (2517) 
{'openbind_xx01zvns2b_c1_fragmenstein', 'fragmenstein_placed'}

>  <ref_pdb>  (2517) 
175

>  <scratch_subdir>  (2517) 
/opt/xchem-fragalysis-2/maxwin/BulkDock/SCRATCH/511028/C37568-P278

>  <alias>  (2517) 
CCCNC(=O)[C@@](O)(Nc1ccc([C@H]2CCOC2)cc1F)c1cc(Cl)cc2c1cnn2C1CNC1

>  <HIPPO Compound ID>  (2517) 
42539

>  <fragmenstein_runtime>  (2517) 
10.967303

$$$$
O=N[C@H](Nc1ccc([C@H]2CCOC2)cc1F)c1cc(Cl)cc2c1cnn2C1CNC1
     RDKit          3D

 30 34  0  0  0  0  0  0  0  0999 V2000
   -5.3446    4.4531  -12.8458 O   0  0  0  0  0  0  0  0  0  0  0  0
   -6.2316    3.8977  -13.5066 N   0  0  0  0  0  0  0  0  0  0  0  0
   -7.3666    4.8301  -13.8587 C   0  0  2  0  0  0  0  0  0  0  0  0
   -8.6136    4.3901  -13.2297 N   0  0  0  0  0  0  0  0  0  0  0  0
   -8.5668    4.4544  -11.8158 C   0  0  0  0  0  0  0  0  0  0  0  0
   -8.6035    3.2737  -11.0703 C   0  0  0  0  0  0  0  0  0  0  0  0
   -8.5843    3.3020   -9.6746 C   0  0  0  0  0  0  0  0  0  0  0  0
   -8.5653    4.5199   -8.9857 C   0  0  0  0  0  0  0  0  0  0  0  0
   -8.7013    4.5961   -7.4854 C   0  0  1  0  0  0  0  0  0  0  0  0
   -9.5623    3.5256   -6.8227 C   0  0  0  0  0  0  0  0  0  0  0  0
   -8.6481    2.8644   -5.8310 C   0  0  0  0  0  0  0  0  0  0  0  0
   -7.6377    3.8392   -5.5214 O   0  0  0  0  0  0  0  0  0  0  0  0
   -7.3721    4.5277   -6.7496 C   0  0  0  0  0  0  0  0  0  0  0  0
   -8.4570    5.7052   -9.7281 C   0  0  0  0  0  0  0  0  0  0  0  0
   -8.4553    5.6650  -11.1204 C   0  0  0  0  0  0  0  0  0  0  0  0
   -8.4016    6.8249  -11.7956 F   0  0  0  0  0  0  0  0  0  0  0  0
   -7.4746    4.8991  -15.3750 C   0  0  0  0  0  0  0  0  0  0  0  0
   -8.6253    4.4980  -16.0887 C   0  0  0  0  0  0  0  0  0  0  0  0
   -8.6797    4.5442  -17.4797 C   0  0  0  0  0  0  0  0  0  0  0  0
  -10.1322    4.0929  -18.2764 Cl  0  0  0  0  0  0  0  0  0  0  0  0
   -7.6032    5.0029  -18.2365 C   0  0  0  0  0  0  0  0  0  0  0  0
   -6.4768    5.4532  -17.5394 C   0  0  0  0  0  0  0  0  0  0  0  0
   -6.4000    5.4051  -16.1495 C   0  0  0  0  0  0  0  0  0  0  0  0
   -5.1280    5.9432  -15.8465 C   0  0  0  0  0  0  0  0  0  0  0  0
   -4.4687    6.3476  -16.9256 N   0  0  0  0  0  0  0  0  0  0  0  0
   -5.2856    6.0181  -17.9435 N   0  0  0  0  0  0  0  0  0  0  0  0
   -4.9753    6.4525  -19.3102 C   0  0  0  0  0  0  0  0  0  0  0  0
   -3.4586    6.5568  -19.5767 C   0  0  0  0  0  0  0  0  0  0  0  0
   -3.6622    5.8502  -20.8503 N   0  0  0  0  0  0  0  0  0  0  0  0
   -4.9381    5.3171  -20.3216 C   0  0  0  0  0  0  0  0  0  0  0  0
  1  2  2  0
  2  3  1  0
  3  4  1  1
  4  5  1  0
  5  6  2  0
  6  7  1  0
  7  8  2  0
  9  8  1  6
  9 10  1  0
 10 11  1  0
 11 12  1  0
 12 13  1  0
  8 14  1  0
 14 15  2  0
 15 16  1  0
  3 17  1  0
 17 18  2  0
 18 19  1  0
 19 20  1  0
 19 21  2  0
 21 22  1  0
 22 23  2  0
 23 24  1  0
 24 25  2  0
 25 26  1  0
 26 27  1  0
 27 28  1  0
 28 29  1  0
 29 30  1  0
 15  5  1  0
 23 17  1  0
 30 27  1  0
 13  9  1  0
 26 22  1  0
M  END
>  <smiles>  (2518) 
C37571-P278

>  <fragmenstein_outcome>  (2518) 
acceptable

>  <inchikey>  (2518) 
WQQHLNOWTVQOIN-UHFFFAOYSA-N

>  <fragmenstein_mode>  (2518) 
expansion

>  <HIPPO Pose ID>  (2518) 
28425

>  <Energy>  (2518) 
97.436824

>  <fragmenstein_error>  (2518) 


>  <tags>  (2518) 
{'openbind_xx01zvns2b_c1_fragmenstein', 'fragmenstein_placed'}

>  <ref_pdb>  (2518) 
175

>  <scratch_subdir>  (2518) 
/opt/xchem-fragalysis-2/maxwin/BulkDock/SCRATCH/511028/C37571-P278

>  <alias>  (2518) 
O=N[C@H](Nc1ccc([C@H]2CCOC2)cc1F)c1cc(Cl)cc2c1cnn2C1CNC1

>  <HIPPO Compound ID>  (2518) 
35109

>  <fragmenstein_runtime>  (2518) 
8.736357

$$$$
Cc1ccc(S(=O)(=O)CNC(=O)[C@](O)(Nc2ccc([C@H]3CCOC3)cc2F)c2cc(Cl)cc3c2cnn3C2CNC2)cc1
     RDKit          3D

 43 48  0  0  0  0  0  0  0  0999 V2000
   -1.9817    7.2437   -9.1387 C   0  0  0  0  0  0  0  0  0  0  0  0
   -2.2738    5.8960   -9.7317 C   0  0  0  0  0  0  0  0  0  0  0  0
   -2.2680    5.7229  -11.1238 C   0  0  0  0  0  0  0  0  0  0  0  0
   -2.5684    4.4813  -11.6853 C   0  0  0  0  0  0  0  0  0  0  0  0
   -2.8933    3.4142  -10.8465 C   0  0  0  0  0  0  0  0  0  0  0  0
   -3.3320    1.8275  -11.5463 S   0  0  0  0  0  0  0  0  0  0  0  0
   -3.0016    1.8957  -12.9604 O   0  0  0  0  0  0  0  0  0  0  0  0
   -2.7040    0.8355  -10.6881 O   0  0  0  0  0  0  0  0  0  0  0  0
   -5.1321    1.8443  -11.3118 C   0  0  0  0  0  0  0  0  0  0  0  0
   -5.8778    2.8464  -12.0541 N   0  0  0  0  0  0  0  0  0  0  0  0
   -6.7857    2.7172  -13.1616 C   0  0  0  0  0  0  0  0  0  0  0  0
   -7.2203    1.7434  -13.7052 O   0  0  0  0  0  0  0  0  0  0  0  0
   -7.2984    4.1916  -13.5732 C   0  0  2  0  0  0  0  0  0  0  0  0
   -6.3705    5.1888  -13.1476 O   0  0  0  0  0  0  0  0  0  0  0  0
   -8.5946    4.4896  -12.9051 N   0  0  0  0  0  0  0  0  0  0  0  0
   -8.5219    4.6211  -11.4867 C   0  0  0  0  0  0  0  0  0  0  0  0
   -8.2039    5.8496  -10.9039 C   0  0  0  0  0  0  0  0  0  0  0  0
   -8.0008    5.9534   -9.5233 C   0  0  0  0  0  0  0  0  0  0  0  0
   -8.1095    4.8328   -8.6813 C   0  0  0  0  0  0  0  0  0  0  0  0
   -7.7863    5.0030   -7.2154 C   0  0  1  0  0  0  0  0  0  0  0  0
   -8.4112    4.0618   -6.2047 C   0  0  0  0  0  0  0  0  0  0  0  0
   -7.4782    4.2111   -5.0187 C   0  0  0  0  0  0  0  0  0  0  0  0
   -6.1542    4.4655   -5.5352 O   0  0  0  0  0  0  0  0  0  0  0  0
   -6.2967    4.8381   -6.9220 C   0  0  0  0  0  0  0  0  0  0  0  0
   -8.4593    3.6063   -9.2596 C   0  0  0  0  0  0  0  0  0  0  0  0
   -8.6721    3.5159  -10.6362 C   0  0  0  0  0  0  0  0  0  0  0  0
   -8.9991    2.3303  -11.1674 F   0  0  0  0  0  0  0  0  0  0  0  0
   -7.4075    4.3644  -15.0964 C   0  0  0  0  0  0  0  0  0  0  0  0
   -8.6517    4.2546  -15.7738 C   0  0  0  0  0  0  0  0  0  0  0  0
   -8.7641    4.4065  -17.1572 C   0  0  0  0  0  0  0  0  0  0  0  0
  -10.2871    4.2078  -17.9352 Cl  0  0  0  0  0  0  0  0  0  0  0  0
   -7.6599    4.7135  -17.9428 C   0  0  0  0  0  0  0  0  0  0  0  0
   -6.4265    4.8222  -17.2966 C   0  0  0  0  0  0  0  0  0  0  0  0
   -6.2782    4.6397  -15.9221 C   0  0  0  0  0  0  0  0  0  0  0  0
   -4.8844    4.7971  -15.7140 C   0  0  0  0  0  0  0  0  0  0  0  0
   -4.2116    5.0868  -16.8288 N   0  0  0  0  0  0  0  0  0  0  0  0
   -5.1616    5.0740  -17.7831 N   0  0  0  0  0  0  0  0  0  0  0  0
   -4.8865    5.3196  -19.2095 C   0  0  0  0  0  0  0  0  0  0  0  0
   -3.4078    5.5498  -19.5813 C   0  0  0  0  0  0  0  0  0  0  0  0
   -3.8750    6.6417  -20.4812 N   0  0  0  0  0  0  0  0  0  0  0  0
   -5.0487    6.8039  -19.5891 C   0  0  0  0  0  0  0  0  0  0  0  0
   -2.8987    3.5673   -9.4568 C   0  0  0  0  0  0  0  0  0  0  0  0
   -2.5984    4.8123   -8.9040 C   0  0  0  0  0  0  0  0  0  0  0  0
  1  2  1  0
  2  3  2  0
  3  4  1  0
  4  5  2  0
  5  6  1  0
  6  7  2  0
  6  8  2  0
  6  9  1  0
  9 10  1  0
 10 11  1  0
 11 12  2  0
 11 13  1  0
 13 14  1  1
 13 15  1  0
 15 16  1  0
 16 17  2  0
 17 18  1  0
 18 19  2  0
 20 19  1  6
 20 21  1  0
 21 22  1  0
 22 23  1  0
 23 24  1  0
 19 25  1  0
 25 26  2  0
 26 27  1  0
 13 28  1  0
 28 29  2  0
 29 30  1  0
 30 31  1  0
 30 32  2  0
 32 33  1  0
 33 34  2  0
 34 35  1  0
 35 36  2  0
 36 37  1  0
 37 38  1  0
 38 39  1  0
 39 40  1  0
 40 41  1  0
  5 42  1  0
 42 43  2  0
 43  2  1  0
 26 16  1  0
 34 28  1  0
 41 38  1  0
 24 20  1  0
 37 33  1  0
M  END
>  <smiles>  (2519) 
C37572-P166

>  <fragmenstein_outcome>  (2519) 
acceptable

>  <inchikey>  (2519) 
DDWWVWXDQALHTM-UHFFFAOYSA-N

>  <fragmenstein_mode>  (2519) 
expansion

>  <HIPPO Pose ID>  (2519) 
28427

>  <Energy>  (2519) 
215.707334

>  <fragmenstein_error>  (2519) 


>  <tags>  (2519) 
{'openbind_xx01zvns2b_c1_fragmenstein', 'fragmenstein_placed'}

>  <ref_pdb>  (2519) 
175

>  <scratch_subdir>  (2519) 
/opt/xchem-fragalysis-2/maxwin/BulkDock/SCRATCH/511028/C37572-P166

>  <alias>  (2519) 
Cc1ccc(S(=O)(=O)CNC(=O)[C@](O)(Nc2ccc([C@H]3CCOC3)cc2F)c2cc(Cl)cc3c2cnn3C2CNC2)cc1

>  <HIPPO Compound ID>  (2519) 
34132

>  <fragmenstein_runtime>  (2519) 
17.704842

$$$$
O=C(Nc1ccc([C@@H]2CCOC2)cc1F)c1cc(Cl)cc2c1[C@@]1(CCNC1)NN2C1CNC1
     RDKit          3D

 33 38  0  0  0  0  0  0  0  0999 V2000
   -7.3838    6.7348  -13.9144 O   0  0  0  0  0  0  0  0  0  0  0  0
   -7.5699    5.6094  -14.1549 C   0  0  0  0  0  0  0  0  0  0  0  0
   -7.9701    4.4427  -13.2304 N   0  0  0  0  0  0  0  0  0  0  0  0
   -8.1281    4.3972  -11.8449 C   0  0  0  0  0  0  0  0  0  0  0  0
   -8.2218    3.1349  -11.2698 C   0  0  0  0  0  0  0  0  0  0  0  0
   -8.3033    2.9901   -9.8859 C   0  0  0  0  0  0  0  0  0  0  0  0
   -8.3310    4.1002   -9.0322 C   0  0  0  0  0  0  0  0  0  0  0  0
   -8.3696    3.8766   -7.5373 C   0  0  2  0  0  0  0  0  0  0  0  0
   -9.1903    2.6635   -7.1156 C   0  0  0  0  0  0  0  0  0  0  0  0
   -9.5359    2.9864   -5.6931 C   0  0  0  0  0  0  0  0  0  0  0  0
   -9.7900    4.3984   -5.6670 O   0  0  0  0  0  0  0  0  0  0  0  0
   -8.9516    4.9956   -6.6695 C   0  0  0  0  0  0  0  0  0  0  0  0
   -8.2464    5.3696   -9.6168 C   0  0  0  0  0  0  0  0  0  0  0  0
   -8.1592    5.5120  -11.0070 C   0  0  0  0  0  0  0  0  0  0  0  0
   -8.1542    6.7568  -11.5029 F   0  0  0  0  0  0  0  0  0  0  0  0
   -7.4615    5.1590  -15.5527 C   0  0  0  0  0  0  0  0  0  0  0  0
   -8.6521    4.7622  -16.1726 C   0  0  0  0  0  0  0  0  0  0  0  0
   -8.6784    4.5160  -17.5441 C   0  0  0  0  0  0  0  0  0  0  0  0
  -10.1712    4.1260  -18.2919 Cl  0  0  0  0  0  0  0  0  0  0  0  0
   -7.5280    4.6493  -18.3118 C   0  0  0  0  0  0  0  0  0  0  0  0
   -6.3448    4.9948  -17.6744 C   0  0  0  0  0  0  0  0  0  0  0  0
   -6.2897    5.2451  -16.2966 C   0  0  0  0  0  0  0  0  0  0  0  0
   -4.8534    5.5673  -15.9532 C   0  0  2  0  0  0  0  0  0  0  0  0
   -4.1900    4.5592  -15.0174 C   0  0  0  0  0  0  0  0  0  0  0  0
   -4.2921    5.1724  -13.6275 C   0  0  0  0  0  0  0  0  0  0  0  0
   -4.5107    6.6144  -13.7812 N   0  0  0  0  0  0  0  0  0  0  0  0
   -4.5949    6.8917  -15.2234 C   0  0  0  0  0  0  0  0  0  0  0  0
   -4.1353    5.5610  -17.2735 N   0  0  0  0  0  0  0  0  0  0  0  0
   -5.0751    5.1487  -18.2667 N   0  0  0  0  0  0  0  0  0  0  0  0
   -4.8280    5.3354  -19.6807 C   0  0  0  0  0  0  0  0  0  0  0  0
   -3.3446    5.4568  -20.0989 C   0  0  0  0  0  0  0  0  0  0  0  0
   -3.6986    6.6296  -20.9271 N   0  0  0  0  0  0  0  0  0  0  0  0
   -4.9398    6.8031  -20.1445 C   0  0  0  0  0  0  0  0  0  0  0  0
  1  2  2  0
  2  3  1  0
  3  4  1  0
  4  5  2  0
  5  6  1  0
  6  7  2  0
  8  7  1  6
  8  9  1  0
  9 10  1  0
 10 11  1  0
 11 12  1  0
  7 13  1  0
 13 14  2  0
 14 15  1  0
  2 16  1  0
 16 17  2  0
 17 18  1  0
 18 19  1  0
 18 20  2  0
 20 21  1  0
 21 22  2  0
 22 23  1  0
 23 24  1  1
 24 25  1  0
 25 26  1  0
 26 27  1  0
 23 28  1  0
 28 29  1  0
 29 30  1  0
 30 31  1  0
 31 32  1  0
 32 33  1  0
 14  4  1  0
 22 16  1  0
 27 23  1  0
 33 30  1  0
 12  8  1  0
 29 21  1  0
M  END
>  <smiles>  (2520) 
C37573-P278

>  <fragmenstein_outcome>  (2520) 
acceptable

>  <inchikey>  (2520) 
SMAUVPULZPUOFN-UHFFFAOYSA-N

>  <fragmenstein_mode>  (2520) 
expansion

>  <HIPPO Pose ID>  (2520) 
28428

>  <Energy>  (2520) 
161.907786

>  <fragmenstein_error>  (2520) 


>  <tags>  (2520) 
{'openbind_xx01zvns2b_c1_fragmenstein', 'fragmenstein_placed'}

>  <ref_pdb>  (2520) 
175

>  <scratch_subdir>  (2520) 
/opt/xchem-fragalysis-2/maxwin/BulkDock/SCRATCH/511028/C37573-P278

>  <alias>  (2520) 
O=C(Nc1ccc([C@@H]2CCOC2)cc1F)c1cc(Cl)cc2c1[C@@]1(CCNC1)NN2C1CNC1

>  <HIPPO Compound ID>  (2520) 
37573

>  <fragmenstein_runtime>  (2520) 
16.866277

$$$$
O=C(Nc1ccc([C@H]2CCOC2)cc1F)c1cc(Cl)cc2c1CC1(CCCCC1)N2C1CNC1
     RDKit          3D

 34 39  0  0  0  0  0  0  0  0999 V2000
   -7.5944    6.7966  -13.7499 O   0  0  0  0  0  0  0  0  0  0  0  0
   -7.8372    5.6723  -13.9516 C   0  0  0  0  0  0  0  0  0  0  0  0
   -8.2389    4.5445  -12.9765 N   0  0  0  0  0  0  0  0  0  0  0  0
   -8.3308    4.5401  -11.5848 C   0  0  0  0  0  0  0  0  0  0  0  0
   -8.0475    5.6788  -10.8424 C   0  0  0  0  0  0  0  0  0  0  0  0
   -8.1197    5.6397   -9.4473 C   0  0  0  0  0  0  0  0  0  0  0  0
   -8.4529    4.4586   -8.7588 C   0  0  0  0  0  0  0  0  0  0  0  0
   -8.5053    4.4975   -7.2503 C   0  0  1  0  0  0  0  0  0  0  0  0
   -8.7474    3.2118   -6.4845 C   0  0  0  0  0  0  0  0  0  0  0  0
   -8.2049    3.5338   -5.1029 C   0  0  0  0  0  0  0  0  0  0  0  0
   -7.2808    4.6284   -5.2222 O   0  0  0  0  0  0  0  0  0  0  0  0
   -7.2028    4.9720   -6.6108 C   0  0  0  0  0  0  0  0  0  0  0  0
   -8.7549    3.3216   -9.5168 C   0  0  0  0  0  0  0  0  0  0  0  0
   -8.6959    3.3772  -10.9108 C   0  0  0  0  0  0  0  0  0  0  0  0
   -9.0156    2.2902  -11.6184 F   0  0  0  0  0  0  0  0  0  0  0  0
   -7.7370    5.1994  -15.3523 C   0  0  0  0  0  0  0  0  0  0  0  0
   -8.8219    4.6280  -16.0016 C   0  0  0  0  0  0  0  0  0  0  0  0
   -8.7617    4.4335  -17.3851 C   0  0  0  0  0  0  0  0  0  0  0  0
  -10.1780    3.9363  -18.2074 Cl  0  0  0  0  0  0  0  0  0  0  0  0
   -7.6139    4.7331  -18.1242 C   0  0  0  0  0  0  0  0  0  0  0  0
   -6.5170    5.2519  -17.4612 C   0  0  0  0  0  0  0  0  0  0  0  0
   -6.5993    5.4937  -16.0953 C   0  0  0  0  0  0  0  0  0  0  0  0
   -5.3594    6.1708  -15.6404 C   0  0  0  0  0  0  0  0  0  0  0  0
   -4.3857    5.9362  -16.8482 C   0  0  0  0  0  0  0  0  0  0  0  0
   -3.4500    4.7548  -16.5062 C   0  0  0  0  0  0  0  0  0  0  0  0
   -2.1726    5.1759  -15.7640 C   0  0  0  0  0  0  0  0  0  0  0  0
   -2.2803    6.4690  -14.9737 C   0  0  0  0  0  0  0  0  0  0  0  0
   -2.7608    7.6350  -15.8258 C   0  0  0  0  0  0  0  0  0  0  0  0
   -3.5651    7.2194  -17.0596 C   0  0  0  0  0  0  0  0  0  0  0  0
   -5.2655    5.6334  -18.0202 N   0  0  0  0  0  0  0  0  0  0  0  0
   -4.8798    5.2842  -19.3789 C   0  0  0  0  0  0  0  0  0  0  0  0
   -3.4446    5.5010  -19.8836 C   0  0  0  0  0  0  0  0  0  0  0  0
   -3.8278    6.8161  -20.4370 N   0  0  0  0  0  0  0  0  0  0  0  0
   -5.2472    6.3943  -20.3938 C   0  0  0  0  0  0  0  0  0  0  0  0
  1  2  2  0
  2  3  1  0
  3  4  1  0
  4  5  2  0
  5  6  1  0
  6  7  2  0
  8  7  1  6
  8  9  1  0
  9 10  1  0
 10 11  1  0
 11 12  1  0
  7 13  1  0
 13 14  2  0
 14 15  1  0
  2 16  1  0
 16 17  2  0
 17 18  1  0
 18 19  1  0
 18 20  2  0
 20 21  1  0
 21 22  2  0
 22 23  1  0
 23 24  1  0
 24 25  1  0
 25 26  1  0
 26 27  1  0
 27 28  1  0
 28 29  1  0
 24 30  1  0
 30 31  1  0
 31 32  1  0
 32 33  1  0
 33 34  1  0
 14  4  1  0
 22 16  1  0
 29 24  1  0
 34 31  1  0
 12  8  1  0
 30 21  1  0
M  END
>  <smiles>  (2521) 
C37577-P278

>  <fragmenstein_outcome>  (2521) 
acceptable

>  <inchikey>  (2521) 
SFYKUJRVIAYCNI-UHFFFAOYSA-N

>  <fragmenstein_mode>  (2521) 
expansion

>  <HIPPO Pose ID>  (2521) 
28431

>  <Energy>  (2521) 
135.110775

>  <fragmenstein_error>  (2521) 


>  <tags>  (2521) 
{'openbind_xx01zvns2b_c1_fragmenstein', 'fragmenstein_placed'}

>  <ref_pdb>  (2521) 
175

>  <scratch_subdir>  (2521) 
/opt/xchem-fragalysis-2/maxwin/BulkDock/SCRATCH/511028/C37577-P278

>  <alias>  (2521) 
O=C(Nc1ccc([C@H]2CCOC2)cc1F)c1cc(Cl)cc2c1CC1(CCCCC1)N2C1CNC1

>  <HIPPO Compound ID>  (2521) 
37577

>  <fragmenstein_runtime>  (2521) 
14.051849

$$$$
O=C(Nc1ccc([C@@H]2CCOC2)cc1F)c1cc(Cl)cc2c1CC1(CCCCC1)N2C1CNC1
     RDKit          3D

 34 39  0  0  0  0  0  0  0  0999 V2000
   -7.3396    6.6917  -13.4570 O   0  0  0  0  0  0  0  0  0  0  0  0
   -7.6027    5.5774  -13.6911 C   0  0  0  0  0  0  0  0  0  0  0  0
   -8.0650    4.4373  -12.7521 N   0  0  0  0  0  0  0  0  0  0  0  0
   -8.2037    4.4064  -11.3613 C   0  0  0  0  0  0  0  0  0  0  0  0
   -7.8948    5.5128  -10.5741 C   0  0  0  0  0  0  0  0  0  0  0  0
   -8.0482    5.4593   -9.1805 C   0  0  0  0  0  0  0  0  0  0  0  0
   -8.5237    4.3026   -8.5426 C   0  0  0  0  0  0  0  0  0  0  0  0
   -8.7037    4.2318   -7.0339 C   0  0  2  0  0  0  0  0  0  0  0  0
   -9.4872    5.3786   -6.3926 C   0  0  0  0  0  0  0  0  0  0  0  0
   -8.7641    5.6431   -5.0934 C   0  0  0  0  0  0  0  0  0  0  0  0
   -7.3893    5.4052   -5.3940 O   0  0  0  0  0  0  0  0  0  0  0  0
   -7.3819    4.2643   -6.2693 C   0  0  0  0  0  0  0  0  0  0  0  0
   -8.8075    3.1822   -9.3438 C   0  0  0  0  0  0  0  0  0  0  0  0
   -8.6548    3.2450  -10.7329 C   0  0  0  0  0  0  0  0  0  0  0  0
   -8.9609    2.1707  -11.4744 F   0  0  0  0  0  0  0  0  0  0  0  0
   -7.5132    5.1371  -15.1103 C   0  0  0  0  0  0  0  0  0  0  0  0
   -8.6069    4.5728  -15.7568 C   0  0  0  0  0  0  0  0  0  0  0  0
   -8.5417    4.3579  -17.1381 C   0  0  0  0  0  0  0  0  0  0  0  0
   -9.9528    3.8555  -17.9584 Cl  0  0  0  0  0  0  0  0  0  0  0  0
   -7.3904    4.6360  -17.8810 C   0  0  0  0  0  0  0  0  0  0  0  0
   -6.2940    5.1698  -17.2301 C   0  0  0  0  0  0  0  0  0  0  0  0
   -6.3795    5.4371  -15.8665 C   0  0  0  0  0  0  0  0  0  0  0  0
   -5.1452    6.1318  -15.4162 C   0  0  0  0  0  0  0  0  0  0  0  0
   -4.2019    6.0439  -16.6714 C   0  0  0  0  0  0  0  0  0  0  0  0
   -3.0446    5.0764  -16.3232 C   0  0  0  0  0  0  0  0  0  0  0  0
   -2.0574    5.6492  -15.2982 C   0  0  0  0  0  0  0  0  0  0  0  0
   -1.5382    7.0138  -15.7174 C   0  0  0  0  0  0  0  0  0  0  0  0
   -2.6908    7.9783  -15.9371 C   0  0  0  0  0  0  0  0  0  0  0  0
   -3.6726    7.4592  -16.9846 C   0  0  0  0  0  0  0  0  0  0  0  0
   -5.0449    5.5305  -17.7960 N   0  0  0  0  0  0  0  0  0  0  0  0
   -4.6844    5.3243  -19.1863 C   0  0  0  0  0  0  0  0  0  0  0  0
   -3.2060    5.3771  -19.6253 C   0  0  0  0  0  0  0  0  0  0  0  0
   -3.5943    6.1984  -20.7914 N   0  0  0  0  0  0  0  0  0  0  0  0
   -4.8594    6.5559  -20.0977 C   0  0  0  0  0  0  0  0  0  0  0  0
  1  2  2  0
  2  3  1  0
  3  4  1  0
  4  5  2  0
  5  6  1  0
  6  7  2  0
  8  7  1  6
  8  9  1  0
  9 10  1  0
 10 11  1  0
 11 12  1  0
  7 13  1  0
 13 14  2  0
 14 15  1  0
  2 16  1  0
 16 17  2  0
 17 18  1  0
 18 19  1  0
 18 20  2  0
 20 21  1  0
 21 22  2  0
 22 23  1  0
 23 24  1  0
 24 25  1  0
 25 26  1  0
 26 27  1  0
 27 28  1  0
 28 29  1  0
 24 30  1  0
 30 31  1  0
 31 32  1  0
 32 33  1  0
 33 34  1  0
 14  4  1  0
 22 16  1  0
 29 24  1  0
 34 31  1  0
 12  8  1  0
 30 21  1  0
M  END
>  <smiles>  (2522) 
C37577-P175

>  <fragmenstein_outcome>  (2522) 
acceptable

>  <inchikey>  (2522) 
MCXMKUCGFQMJBM-UHFFFAOYSA-N

>  <fragmenstein_mode>  (2522) 
expansion

>  <HIPPO Pose ID>  (2522) 
28432

>  <Energy>  (2522) 
129.5849

>  <fragmenstein_error>  (2522) 


>  <tags>  (2522) 
{'openbind_xx01zvns2b_c1_fragmenstein', 'fragmenstein_placed'}

>  <ref_pdb>  (2522) 
175

>  <scratch_subdir>  (2522) 
/opt/xchem-fragalysis-2/maxwin/BulkDock/SCRATCH/511028/C37577-P175

>  <alias>  (2522) 
O=C(Nc1ccc([C@@H]2CCOC2)cc1F)c1cc(Cl)cc2c1CC1(CCCCC1)N2C1CNC1

>  <HIPPO Compound ID>  (2522) 
33531

>  <fragmenstein_runtime>  (2522) 
16.535018

$$$$
O=C(Nc1ccc([C@H]2CCOC2)cc1F)c1cc(Cl)c2c3c1cnn3C1(CNC1)C(=O)N2
     RDKit          3D

 32 37  0  0  0  0  0  0  0  0999 V2000
   -7.4610    6.7775  -13.7521 O   0  0  0  0  0  0  0  0  0  0  0  0
   -7.6842    5.6589  -13.9878 C   0  0  0  0  0  0  0  0  0  0  0  0
   -8.0058    4.4858  -13.0460 N   0  0  0  0  0  0  0  0  0  0  0  0
   -8.2069    4.4607  -11.6722 C   0  0  0  0  0  0  0  0  0  0  0  0
   -8.3541    3.2078  -11.0821 C   0  0  0  0  0  0  0  0  0  0  0  0
   -8.5824    3.0979   -9.7144 C   0  0  0  0  0  0  0  0  0  0  0  0
   -8.6996    4.2421   -8.9186 C   0  0  0  0  0  0  0  0  0  0  0  0
   -9.0478    4.1700   -7.4559 C   0  0  1  0  0  0  0  0  0  0  0  0
   -9.8986    2.9757   -7.0424 C   0  0  0  0  0  0  0  0  0  0  0  0
   -8.9231    2.0894   -6.3330 C   0  0  0  0  0  0  0  0  0  0  0  0
   -8.0801    3.0221   -5.6397 O   0  0  0  0  0  0  0  0  0  0  0  0
   -7.8128    4.0670   -6.5842 C   0  0  0  0  0  0  0  0  0  0  0  0
   -8.5125    5.4972   -9.5099 C   0  0  0  0  0  0  0  0  0  0  0  0
   -8.2815    5.6014  -10.8759 C   0  0  0  0  0  0  0  0  0  0  0  0
   -8.2286    6.8329  -11.3985 F   0  0  0  0  0  0  0  0  0  0  0  0
   -7.6927    5.2175  -15.3797 C   0  0  0  0  0  0  0  0  0  0  0  0
   -8.8671    4.6992  -15.9522 C   0  0  0  0  0  0  0  0  0  0  0  0
   -8.9183    4.4121  -17.3128 C   0  0  0  0  0  0  0  0  0  0  0  0
  -10.4104    3.9853  -18.0358 Cl  0  0  0  0  0  0  0  0  0  0  0  0
   -7.7827    4.5665  -18.0978 C   0  0  0  0  0  0  0  0  0  0  0  0
   -6.6593    5.0864  -17.4975 C   0  0  0  0  0  0  0  0  0  0  0  0
   -6.5590    5.4220  -16.1700 C   0  0  0  0  0  0  0  0  0  0  0  0
   -5.2391    5.9074  -16.0440 C   0  0  0  0  0  0  0  0  0  0  0  0
   -4.5675    5.8865  -17.2058 N   0  0  0  0  0  0  0  0  0  0  0  0
   -5.4752    5.3923  -18.0770 N   0  0  0  0  0  0  0  0  0  0  0  0
   -5.3397    5.2404  -19.5477 C   0  0  0  0  0  0  0  0  0  0  0  0
   -3.8636    5.0375  -19.9452 C   0  0  0  0  0  0  0  0  0  0  0  0
   -3.7065    6.5003  -20.1179 N   0  0  0  0  0  0  0  0  0  0  0  0
   -5.1769    6.6156  -20.2394 C   0  0  0  0  0  0  0  0  0  0  0  0
   -6.4972    4.3174  -20.1583 C   0  0  0  0  0  0  0  0  0  0  0  0
   -6.4843    3.6849  -21.2192 O   0  0  0  0  0  0  0  0  0  0  0  0
   -7.6732    4.1962  -19.4273 N   0  0  0  0  0  0  0  0  0  0  0  0
  1  2  2  0
  2  3  1  0
  3  4  1  0
  4  5  2  0
  5  6  1  0
  6  7  2  0
  8  7  1  6
  8  9  1  0
  9 10  1  0
 10 11  1  0
 11 12  1  0
  7 13  1  0
 13 14  2  0
 14 15  1  0
  2 16  1  0
 16 17  2  0
 17 18  1  0
 18 19  1  0
 18 20  2  0
 20 21  1  0
 21 22  2  0
 22 23  1  0
 23 24  2  0
 24 25  1  0
 25 26  1  0
 26 27  1  0
 27 28  1  0
 28 29  1  0
 26 30  1  0
 30 31  2  0
 30 32  1  0
 14  4  1  0
 22 16  1  0
 29 26  1  0
 12  8  1  0
 32 20  1  0
 25 21  1  0
M  END
>  <smiles>  (2523) 
C37581-P278

>  <fragmenstein_outcome>  (2523) 
acceptable

>  <inchikey>  (2523) 
HKYPBOUGJSVKGX-UHFFFAOYSA-N

>  <fragmenstein_mode>  (2523) 
expansion

>  <HIPPO Pose ID>  (2523) 
28434

>  <Energy>  (2523) 
68.536049

>  <fragmenstein_error>  (2523) 


>  <tags>  (2523) 
{'openbind_xx01zvns2b_c1_fragmenstein', 'fragmenstein_placed'}

>  <ref_pdb>  (2523) 
175

>  <scratch_subdir>  (2523) 
/opt/xchem-fragalysis-2/maxwin/BulkDock/SCRATCH/511028/C37581-P278

>  <alias>  (2523) 
O=C(Nc1ccc([C@H]2CCOC2)cc1F)c1cc(Cl)c2c3c1cnn3C1(CNC1)C(=O)N2

>  <HIPPO Compound ID>  (2523) 
37581

>  <fragmenstein_runtime>  (2523) 
16.937853

$$$$
O=C(Nc1ccc([C@H]2CCOC2)cc1F)c1cc(Cl)cc2c1c[n+]([O-])n2C1CNC1
     RDKit          3D

 30 34  0  0  0  0  0  0  0  0999 V2000
   -7.1398    6.4456  -13.5723 O   0  0  0  0  0  0  0  0  0  0  0  0
   -7.5726    5.4109  -13.8938 C   0  0  0  0  0  0  0  0  0  0  0  0
   -8.2524    4.3063  -13.0561 N   0  0  0  0  0  0  0  0  0  0  0  0
   -8.4501    4.2058  -11.6783 C   0  0  0  0  0  0  0  0  0  0  0  0
   -8.8128    2.9584  -11.1816 C   0  0  0  0  0  0  0  0  0  0  0  0
   -8.8878    2.7371   -9.8065 C   0  0  0  0  0  0  0  0  0  0  0  0
   -8.5722    3.7474   -8.8875 C   0  0  0  0  0  0  0  0  0  0  0  0
   -8.4206    3.4699   -7.3986 C   0  0  1  0  0  0  0  0  0  0  0  0
   -9.4261    4.1716   -6.5089 C   0  0  0  0  0  0  0  0  0  0  0  0
  -10.4332    3.0975   -6.1311 C   0  0  0  0  0  0  0  0  0  0  0  0
  -10.0451    1.8982   -6.7890 O   0  0  0  0  0  0  0  0  0  0  0  0
   -8.6382    2.0216   -6.9704 C   0  0  0  0  0  0  0  0  0  0  0  0
   -8.2923    5.0259   -9.3965 C   0  0  0  0  0  0  0  0  0  0  0  0
   -8.2553    5.2530  -10.7764 C   0  0  0  0  0  0  0  0  0  0  0  0
   -8.0528    6.5083  -11.2025 F   0  0  0  0  0  0  0  0  0  0  0  0
   -7.4636    5.0299  -15.3241 C   0  0  0  0  0  0  0  0  0  0  0  0
   -8.5758    4.5396  -16.0041 C   0  0  0  0  0  0  0  0  0  0  0  0
   -8.5169    4.3644  -17.3783 C   0  0  0  0  0  0  0  0  0  0  0  0
   -9.9372    3.8118  -18.1643 Cl  0  0  0  0  0  0  0  0  0  0  0  0
   -7.3722    4.6822  -18.1261 C   0  0  0  0  0  0  0  0  0  0  0  0
   -6.2429    5.1512  -17.4387 C   0  0  0  0  0  0  0  0  0  0  0  0
   -6.2543    5.2922  -16.0159 C   0  0  0  0  0  0  0  0  0  0  0  0
   -4.9511    5.7197  -15.5383 C   0  0  0  0  0  0  0  0  0  0  0  0
   -4.1724    5.8642  -16.6127 N   0  0  0  0  0  0  0  0  0  0  0  0
   -2.9874    6.2664  -16.7020 O   0  0  0  0  0  0  0  0  0  0  0  0
   -4.9748    5.5850  -17.8127 N   0  0  0  0  0  0  0  0  0  0  0  0
   -4.5303    6.1863  -19.0878 C   0  0  0  0  0  0  0  0  0  0  0  0
   -3.1634    5.6255  -19.5594 C   0  0  0  0  0  0  0  0  0  0  0  0
   -3.6336    5.8156  -20.9558 N   0  0  0  0  0  0  0  0  0  0  0  0
   -5.0231    5.6533  -20.4261 C   0  0  0  0  0  0  0  0  0  0  0  0
  1  2  2  0
  2  3  1  0
  3  4  1  0
  4  5  2  0
  5  6  1  0
  6  7  2  0
  8  7  1  6
  8  9  1  0
  9 10  1  0
 10 11  1  0
 11 12  1  0
  7 13  1  0
 13 14  2  0
 14 15  1  0
  2 16  1  0
 16 17  2  0
 17 18  1  0
 18 19  1  0
 18 20  2  0
 20 21  1  0
 21 22  2  0
 22 23  1  0
 23 24  2  0
 24 25  1  0
 24 26  1  0
 26 27  1  0
 27 28  1  0
 28 29  1  0
 29 30  1  0
 14  4  1  0
 22 16  1  0
 30 27  1  0
 12  8  1  0
 26 21  1  0
M  CHG  2  24   1  25  -1
M  END
>  <smiles>  (2524) 
C37463-P202

>  <fragmenstein_outcome>  (2524) 
acceptable

>  <inchikey>  (2524) 
IDNRCKUUEMFNEG-UHFFFAOYSA-N

>  <fragmenstein_mode>  (2524) 
expansion

>  <HIPPO Pose ID>  (2524) 
28443

>  <Energy>  (2524) 
102.233089

>  <fragmenstein_error>  (2524) 


>  <tags>  (2524) 
{'openbind_xx01zvns2b_c1_fragmenstein', 'fragmenstein_placed'}

>  <ref_pdb>  (2524) 
175

>  <scratch_subdir>  (2524) 
/opt/xchem-fragalysis-2/maxwin/BulkDock/SCRATCH/511028/C37463-P202

>  <alias>  (2524) 
O=C(Nc1ccc([C@H]2CCOC2)cc1F)c1cc(Cl)cc2c1c[n+]([O-])n2C1CNC1

>  <HIPPO Compound ID>  (2524) 
28933

>  <fragmenstein_runtime>  (2524) 
15.150922

$$$$
C[C@]1(OCCCO)C(=O)N(C2CNC2)c2cc(Cl)cc(C(=O)Nc3ccc([C@@H]4CCOC4)cc3F)c21
     RDKit          3D

 36 40  0  0  0  0  0  0  0  0999 V2000
   -4.8240    6.6510  -14.9332 C   0  0  0  0  0  0  0  0  0  0  0  0
   -5.0574    5.3509  -15.6981 C   0  0  2  0  0  0  0  0  0  0  0  0
   -4.8637    4.1667  -14.9298 O   0  0  0  0  0  0  0  0  0  0  0  0
   -3.6783    4.0800  -14.1488 C   0  0  0  0  0  0  0  0  0  0  0  0
   -3.5192    2.6171  -13.7505 C   0  0  0  0  0  0  0  0  0  0  0  0
   -2.4048    2.4014  -12.7438 C   0  0  0  0  0  0  0  0  0  0  0  0
   -2.1882    1.0080  -12.5541 O   0  0  0  0  0  0  0  0  0  0  0  0
   -4.2238    5.3598  -17.0249 C   0  0  0  0  0  0  0  0  0  0  0  0
   -3.0054    5.4570  -17.0849 O   0  0  0  0  0  0  0  0  0  0  0  0
   -5.1200    5.2161  -18.0966 N   0  0  0  0  0  0  0  0  0  0  0  0
   -4.8003    5.2394  -19.5330 C   0  0  0  0  0  0  0  0  0  0  0  0
   -3.3342    5.4506  -19.9898 C   0  0  0  0  0  0  0  0  0  0  0  0
   -3.8536    6.2956  -21.1022 N   0  0  0  0  0  0  0  0  0  0  0  0
   -5.0179    6.6049  -20.2301 C   0  0  0  0  0  0  0  0  0  0  0  0
   -6.4275    5.0363  -17.6166 C   0  0  0  0  0  0  0  0  0  0  0  0
   -7.5715    4.7317  -18.3353 C   0  0  0  0  0  0  0  0  0  0  0  0
   -8.7584    4.5543  -17.6246 C   0  0  0  0  0  0  0  0  0  0  0  0
  -10.2138    4.1915  -18.4475 Cl  0  0  0  0  0  0  0  0  0  0  0  0
   -8.8110    4.7435  -16.2438 C   0  0  0  0  0  0  0  0  0  0  0  0
   -7.6599    5.1077  -15.5536 C   0  0  0  0  0  0  0  0  0  0  0  0
   -7.8040    5.5556  -14.1616 C   0  0  0  0  0  0  0  0  0  0  0  0
   -7.9125    6.6976  -13.9594 O   0  0  0  0  0  0  0  0  0  0  0  0
   -7.8723    4.3643  -13.1988 N   0  0  0  0  0  0  0  0  0  0  0  0
   -7.9902    4.3273  -11.8148 C   0  0  0  0  0  0  0  0  0  0  0  0
   -8.1676    5.4733  -11.0467 C   0  0  0  0  0  0  0  0  0  0  0  0
   -8.2772    5.3730   -9.6521 C   0  0  0  0  0  0  0  0  0  0  0  0
   -8.2310    4.1257   -9.0064 C   0  0  0  0  0  0  0  0  0  0  0  0
   -8.2853    3.9768   -7.4996 C   0  0  2  0  0  0  0  0  0  0  0  0
   -9.1507    2.8314   -6.9930 C   0  0  0  0  0  0  0  0  0  0  0  0
   -9.3597    3.2108   -5.5452 C   0  0  0  0  0  0  0  0  0  0  0  0
   -9.4816    4.6399   -5.5174 O   0  0  0  0  0  0  0  0  0  0  0  0
   -8.8211    5.1563   -6.6843 C   0  0  0  0  0  0  0  0  0  0  0  0
   -8.0315    2.9845   -9.8010 C   0  0  0  0  0  0  0  0  0  0  0  0
   -7.9136    3.0929  -11.1833 C   0  0  0  0  0  0  0  0  0  0  0  0
   -7.6514    2.0027  -11.9204 F   0  0  0  0  0  0  0  0  0  0  0  0
   -6.4559    5.1966  -16.2321 C   0  0  0  0  0  0  0  0  0  0  0  0
  2  1  1  1
  2  3  1  0
  3  4  1  0
  4  5  1  0
  5  6  1  0
  6  7  1  0
  2  8  1  0
  8  9  2  0
  8 10  1  0
 10 11  1  0
 11 12  1  0
 12 13  1  0
 13 14  1  0
 10 15  1  0
 15 16  2  0
 16 17  1  0
 17 18  1  0
 17 19  2  0
 19 20  1  0
 20 21  1  0
 21 22  2  0
 21 23  1  0
 23 24  1  0
 24 25  2  0
 25 26  1  0
 26 27  2  0
 28 27  1  6
 28 29  1  0
 29 30  1  0
 30 31  1  0
 31 32  1  0
 27 33  1  0
 33 34  2  0
 34 35  1  0
 20 36  2  0
 36  2  1  0
 14 11  1  0
 36 15  1  0
 34 24  1  0
 32 28  1  0
M  END
>  <smiles>  (2525) 
C37595-P278

>  <fragmenstein_outcome>  (2525) 
acceptable

>  <inchikey>  (2525) 
MNVVHVKFTIYVFM-UHFFFAOYSA-N

>  <fragmenstein_mode>  (2525) 
expansion

>  <HIPPO Pose ID>  (2525) 
28444

>  <Energy>  (2525) 
127.915118

>  <fragmenstein_error>  (2525) 


>  <tags>  (2525) 
{'openbind_xx01zvns2b_c1_fragmenstein', 'fragmenstein_placed'}

>  <ref_pdb>  (2525) 
175

>  <scratch_subdir>  (2525) 
/opt/xchem-fragalysis-2/maxwin/BulkDock/SCRATCH/511028/C37595-P278

>  <alias>  (2525) 
C[C@]1(OCCCO)C(=O)N(C2CNC2)c2cc(Cl)cc(C(=O)Nc3ccc([C@@H]4CCOC4)cc3F)c21

>  <HIPPO Compound ID>  (2525) 
37595

>  <fragmenstein_runtime>  (2525) 
12.528233

$$$$
Cc1c(F)c(NC(=O)c2cc(Cl)cc3c2c[n+]([O-])n3C2CNC2)cc(CN)c1[C@H]1CCOC1
     RDKit          3D

 33 37  0  0  0  0  0  0  0  0999 V2000
   -8.3480    7.4309   -9.0628 C   0  0  0  0  0  0  0  0  0  0  0  0
   -8.3955    6.0146   -9.5829 C   0  0  0  0  0  0  0  0  0  0  0  0
   -8.3813    5.8765  -10.9811 C   0  0  0  0  0  0  0  0  0  0  0  0
   -8.4066    6.9964  -11.7195 F   0  0  0  0  0  0  0  0  0  0  0  0
   -8.4028    4.6366  -11.6030 C   0  0  0  0  0  0  0  0  0  0  0  0
   -8.2609    4.5220  -12.9971 N   0  0  0  0  0  0  0  0  0  0  0  0
   -7.6657    5.5134  -14.0354 C   0  0  0  0  0  0  0  0  0  0  0  0
   -7.2732    6.6078  -13.9006 O   0  0  0  0  0  0  0  0  0  0  0  0
   -7.6249    4.9961  -15.4280 C   0  0  0  0  0  0  0  0  0  0  0  0
   -8.7990    4.5536  -16.0415 C   0  0  0  0  0  0  0  0  0  0  0  0
   -8.8470    4.4018  -17.4245 C   0  0  0  0  0  0  0  0  0  0  0  0
  -10.3518    4.0611  -18.1753 Cl  0  0  0  0  0  0  0  0  0  0  0  0
   -7.7348    4.6280  -18.2395 C   0  0  0  0  0  0  0  0  0  0  0  0
   -6.5522    5.0396  -17.6185 C   0  0  0  0  0  0  0  0  0  0  0  0
   -6.4622    5.2359  -16.2124 C   0  0  0  0  0  0  0  0  0  0  0  0
   -5.1398    5.7400  -15.8713 C   0  0  0  0  0  0  0  0  0  0  0  0
   -4.4553    5.8692  -17.0168 N   0  0  0  0  0  0  0  0  0  0  0  0
   -3.3138    6.3487  -17.2094 O   0  0  0  0  0  0  0  0  0  0  0  0
   -5.3132    5.4168  -18.1156 N   0  0  0  0  0  0  0  0  0  0  0  0
   -5.0177    5.5314  -19.5617 C   0  0  0  0  0  0  0  0  0  0  0  0
   -3.5471    5.3873  -19.9904 C   0  0  0  0  0  0  0  0  0  0  0  0
   -3.6797    6.6289  -20.7751 N   0  0  0  0  0  0  0  0  0  0  0  0
   -4.8856    6.9951  -20.0142 C   0  0  0  0  0  0  0  0  0  0  0  0
   -8.5599    3.5167  -10.7888 C   0  0  0  0  0  0  0  0  0  0  0  0
   -8.5788    3.6025   -9.3533 C   0  0  0  0  0  0  0  0  0  0  0  0
   -8.7303    2.2664   -8.6397 C   0  0  0  0  0  0  0  0  0  0  0  0
   -9.7403    2.1894   -7.6007 N   0  0  0  0  0  0  0  0  0  0  0  0
   -8.3924    4.8670   -8.7320 C   0  0  0  0  0  0  0  0  0  0  0  0
   -8.1313    5.1153   -7.2507 C   0  0  1  0  0  0  0  0  0  0  0  0
   -9.3170    5.2812   -6.3223 C   0  0  0  0  0  0  0  0  0  0  0  0
   -8.6791    5.2476   -4.9427 C   0  0  0  0  0  0  0  0  0  0  0  0
   -7.3803    4.6510   -5.0689 O   0  0  0  0  0  0  0  0  0  0  0  0
   -7.2371    4.2066   -6.4340 C   0  0  0  0  0  0  0  0  0  0  0  0
  1  2  1  0
  2  3  2  0
  3  4  1  0
  3  5  1  0
  5  6  1  0
  6  7  1  0
  7  8  2  0
  7  9  1  0
  9 10  2  0
 10 11  1  0
 11 12  1  0
 11 13  2  0
 13 14  1  0
 14 15  2  0
 15 16  1  0
 16 17  2  0
 17 18  1  0
 17 19  1  0
 19 20  1  0
 20 21  1  0
 21 22  1  0
 22 23  1  0
  5 24  2  0
 24 25  1  0
 25 26  1  0
 26 27  1  0
 25 28  2  0
 29 28  1  6
 29 30  1  0
 30 31  1  0
 31 32  1  0
 32 33  1  0
 28  2  1  0
 33 29  1  0
 15  9  1  0
 23 20  1  0
 19 14  1  0
M  CHG  2  17   1  18  -1
M  END
>  <smiles>  (2526) 
C37597-P278

>  <fragmenstein_outcome>  (2526) 
acceptable

>  <inchikey>  (2526) 
JWNHMHNARZEGLB-UHFFFAOYSA-N

>  <fragmenstein_mode>  (2526) 
expansion

>  <HIPPO Pose ID>  (2526) 
28446

>  <Energy>  (2526) 
112.676203

>  <fragmenstein_error>  (2526) 


>  <tags>  (2526) 
{'openbind_xx01zvns2b_c1_fragmenstein', 'fragmenstein_placed'}

>  <ref_pdb>  (2526) 
175

>  <scratch_subdir>  (2526) 
/opt/xchem-fragalysis-2/maxwin/BulkDock/SCRATCH/511028/C37597-P278

>  <alias>  (2526) 
Cc1c(F)c(NC(=O)c2cc(Cl)cc3c2c[n+]([O-])n3C2CNC2)cc(CN)c1[C@H]1CCOC1

>  <HIPPO Compound ID>  (2526) 
43026

>  <fragmenstein_runtime>  (2526) 
17.535026

$$$$
O=C(O)C[C@H]1OCC[C@H]1c1ccc(NC(=O)c2cc(Cl)cc3c2cnn3C2CNC2)c(F)c1
     RDKit          3D

 33 37  0  0  0  0  0  0  0  0999 V2000
   -6.2134    3.1920   -9.0097 O   0  0  0  0  0  0  0  0  0  0  0  0
   -6.7726    2.1217   -8.8323 C   0  0  0  0  0  0  0  0  0  0  0  0
   -6.2499    1.0380   -9.4537 O   0  0  0  0  0  0  0  0  0  0  0  0
   -8.0050    1.7910   -7.9936 C   0  0  0  0  0  0  0  0  0  0  0  0
   -8.7169    2.9218   -7.2268 C   0  0  1  0  0  0  0  0  0  0  0  0
   -8.2019    3.0232   -5.8793 O   0  0  0  0  0  0  0  0  0  0  0  0
   -7.7777    4.3600   -5.6286 C   0  0  0  0  0  0  0  0  0  0  0  0
   -7.6657    5.0486   -6.9659 C   0  0  0  0  0  0  0  0  0  0  0  0
   -8.7555    4.3584   -7.7737 C   0  0  1  0  0  0  0  0  0  0  0  0
   -8.7231    4.5524   -9.2649 C   0  0  0  0  0  0  0  0  0  0  0  0
   -9.1388    3.5287  -10.1240 C   0  0  0  0  0  0  0  0  0  0  0  0
   -8.8920    3.5792  -11.4844 C   0  0  0  0  0  0  0  0  0  0  0  0
   -8.3776    4.7339  -12.0430 C   0  0  0  0  0  0  0  0  0  0  0  0
   -8.1225    4.6924  -13.4024 N   0  0  0  0  0  0  0  0  0  0  0  0
   -7.4491    5.7179  -14.3214 C   0  0  0  0  0  0  0  0  0  0  0  0
   -6.9313    6.7300  -14.0718 O   0  0  0  0  0  0  0  0  0  0  0  0
   -7.4306    5.2444  -15.7111 C   0  0  0  0  0  0  0  0  0  0  0  0
   -8.5927    4.8177  -16.3504 C   0  0  0  0  0  0  0  0  0  0  0  0
   -8.5620    4.5899  -17.7184 C   0  0  0  0  0  0  0  0  0  0  0  0
  -10.0245    4.1327  -18.4885 Cl  0  0  0  0  0  0  0  0  0  0  0  0
   -7.4050    4.8109  -18.4819 C   0  0  0  0  0  0  0  0  0  0  0  0
   -6.2352    5.1994  -17.8060 C   0  0  0  0  0  0  0  0  0  0  0  0
   -6.2267    5.3492  -16.4200 C   0  0  0  0  0  0  0  0  0  0  0  0
   -4.8849    5.6022  -16.0783 C   0  0  0  0  0  0  0  0  0  0  0  0
   -4.0919    5.6131  -17.1452 N   0  0  0  0  0  0  0  0  0  0  0  0
   -4.9602    5.5825  -18.1841 N   0  0  0  0  0  0  0  0  0  0  0  0
   -4.5849    6.3858  -19.3547 C   0  0  0  0  0  0  0  0  0  0  0  0
   -3.3622    5.8056  -20.0898 C   0  0  0  0  0  0  0  0  0  0  0  0
   -3.9774    6.3075  -21.3440 N   0  0  0  0  0  0  0  0  0  0  0  0
   -5.3006    6.1738  -20.6771 C   0  0  0  0  0  0  0  0  0  0  0  0
   -8.1446    5.8381  -11.2244 C   0  0  0  0  0  0  0  0  0  0  0  0
   -7.8208    7.0316  -11.7338 F   0  0  0  0  0  0  0  0  0  0  0  0
   -8.2823    5.7438   -9.8427 C   0  0  0  0  0  0  0  0  0  0  0  0
  1  2  2  0
  2  3  1  0
  2  4  1  0
  5  4  1  6
  5  6  1  0
  6  7  1  0
  7  8  1  0
  8  9  1  0
  9 10  1  6
 10 11  2  0
 11 12  1  0
 12 13  2  0
 13 14  1  0
 14 15  1  0
 15 16  2  0
 15 17  1  0
 17 18  2  0
 18 19  1  0
 19 20  1  0
 19 21  2  0
 21 22  1  0
 22 23  2  0
 23 24  1  0
 24 25  2  0
 25 26  1  0
 26 27  1  0
 27 28  1  0
 28 29  1  0
 29 30  1  0
 13 31  1  0
 31 32  1  0
 31 33  2  0
  9  5  1  0
 33 10  1  0
 23 17  1  0
 30 27  1  0
 26 22  1  0
M  END
>  <smiles>  (2527) 
C37600-P278

>  <fragmenstein_outcome>  (2527) 
acceptable

>  <inchikey>  (2527) 
UBEANCGSIVAOLP-UHFFFAOYSA-N

>  <fragmenstein_mode>  (2527) 
expansion

>  <HIPPO Pose ID>  (2527) 
28448

>  <Energy>  (2527) 
89.548259

>  <fragmenstein_error>  (2527) 


>  <tags>  (2527) 
{'openbind_xx01zvns2b_c1_fragmenstein', 'fragmenstein_placed'}

>  <ref_pdb>  (2527) 
175

>  <scratch_subdir>  (2527) 
/opt/xchem-fragalysis-2/maxwin/BulkDock/SCRATCH/511028/C37600-P278

>  <alias>  (2527) 
O=C(O)C[C@H]1OCC[C@H]1c1ccc(NC(=O)c2cc(Cl)cc3c2cnn3C2CNC2)c(F)c1

>  <HIPPO Compound ID>  (2527) 
37600

>  <fragmenstein_runtime>  (2527) 
15.617071

$$$$
O=C(Nc1ccc([C@H]2CCOC2=O)cc1F)c1cc(Cl)cc2c1c[n+]([O-])n2C1CNC1
     RDKit          3D

 31 35  0  0  0  0  0  0  0  0999 V2000
   -7.1615    6.9245  -14.1079 O   0  0  0  0  0  0  0  0  0  0  0  0
   -7.6382    5.9038  -14.4009 C   0  0  0  0  0  0  0  0  0  0  0  0
   -8.3197    4.8360  -13.5312 N   0  0  0  0  0  0  0  0  0  0  0  0
   -8.4696    4.7563  -12.1584 C   0  0  0  0  0  0  0  0  0  0  0  0
   -8.8809    3.5122  -11.7122 C   0  0  0  0  0  0  0  0  0  0  0  0
   -8.9179    3.2220  -10.3723 C   0  0  0  0  0  0  0  0  0  0  0  0
   -8.3814    4.1262   -9.4540 C   0  0  0  0  0  0  0  0  0  0  0  0
   -7.8585    3.5608   -8.1572 C   0  0  1  0  0  0  0  0  0  0  0  0
   -8.8809    3.2050   -7.1030 C   0  0  0  0  0  0  0  0  0  0  0  0
   -9.1890    1.7564   -7.3688 C   0  0  0  0  0  0  0  0  0  0  0  0
   -8.0271    1.2141   -7.9877 O   0  0  0  0  0  0  0  0  0  0  0  0
   -7.2338    2.2093   -8.4803 C   0  0  0  0  0  0  0  0  0  0  0  0
   -6.2313    2.0235   -9.1619 O   0  0  0  0  0  0  0  0  0  0  0  0
   -8.0978    5.4312   -9.8705 C   0  0  0  0  0  0  0  0  0  0  0  0
   -8.1741    5.7472  -11.2286 C   0  0  0  0  0  0  0  0  0  0  0  0
   -7.9148    7.0033  -11.6082 F   0  0  0  0  0  0  0  0  0  0  0  0
   -7.5881    5.4272  -15.8022 C   0  0  0  0  0  0  0  0  0  0  0  0
   -8.7352    4.8749  -16.3811 C   0  0  0  0  0  0  0  0  0  0  0  0
   -8.7377    4.5203  -17.7179 C   0  0  0  0  0  0  0  0  0  0  0  0
  -10.2164    4.0115  -18.4040 Cl  0  0  0  0  0  0  0  0  0  0  0  0
   -7.6038    4.6564  -18.5159 C   0  0  0  0  0  0  0  0  0  0  0  0
   -6.4527    5.1886  -17.9216 C   0  0  0  0  0  0  0  0  0  0  0  0
   -6.4086    5.5881  -16.5598 C   0  0  0  0  0  0  0  0  0  0  0  0
   -5.0992    6.1299  -16.2372 C   0  0  0  0  0  0  0  0  0  0  0  0
   -4.3755    6.1049  -17.3652 N   0  0  0  0  0  0  0  0  0  0  0  0
   -3.2306    6.5670  -17.5864 O   0  0  0  0  0  0  0  0  0  0  0  0
   -5.1987    5.4997  -18.4174 N   0  0  0  0  0  0  0  0  0  0  0  0
   -4.8355    5.3417  -19.8451 C   0  0  0  0  0  0  0  0  0  0  0  0
   -3.3351    5.2360  -20.1508 C   0  0  0  0  0  0  0  0  0  0  0  0
   -3.3010    6.6856  -20.4270 N   0  0  0  0  0  0  0  0  0  0  0  0
   -4.7712    6.6877  -20.5814 C   0  0  0  0  0  0  0  0  0  0  0  0
  1  2  2  0
  2  3  1  0
  3  4  1  0
  4  5  2  0
  5  6  1  0
  6  7  2  0
  8  7  1  6
  8  9  1  0
  9 10  1  0
 10 11  1  0
 11 12  1  0
 12 13  2  0
  7 14  1  0
 14 15  2  0
 15 16  1  0
  2 17  1  0
 17 18  2  0
 18 19  1  0
 19 20  1  0
 19 21  2  0
 21 22  1  0
 22 23  2  0
 23 24  1  0
 24 25  2  0
 25 26  1  0
 25 27  1  0
 27 28  1  0
 28 29  1  0
 29 30  1  0
 30 31  1  0
 15  4  1  0
 23 17  1  0
 31 28  1  0
 12  8  1  0
 27 22  1  0
M  CHG  2  25   1  26  -1
M  END
>  <smiles>  (2528) 
C37605-P278

>  <fragmenstein_outcome>  (2528) 
acceptable

>  <inchikey>  (2528) 
QDPDISRMIJEWNO-UHFFFAOYSA-N

>  <fragmenstein_mode>  (2528) 
expansion

>  <HIPPO Pose ID>  (2528) 
28451

>  <Energy>  (2528) 
100.045003

>  <fragmenstein_error>  (2528) 


>  <tags>  (2528) 
{'openbind_xx01zvns2b_c1_fragmenstein', 'fragmenstein_placed'}

>  <ref_pdb>  (2528) 
175

>  <scratch_subdir>  (2528) 
/opt/xchem-fragalysis-2/maxwin/BulkDock/SCRATCH/511028/C37605-P278

>  <alias>  (2528) 
O=C(Nc1ccc([C@H]2CCOC2=O)cc1F)c1cc(Cl)cc2c1c[n+]([O-])n2C1CNC1

>  <HIPPO Compound ID>  (2528) 
21642

>  <fragmenstein_runtime>  (2528) 
10.658009

$$$$
O=C(Nc1ccc([C@H]2CCOC2)c(Cc2ccncc2)c1F)c1cc(Cl)cc2c1c[n+]([O-])n2C1CNC1
     RDKit          3D

 37 42  0  0  0  0  0  0  0  0999 V2000
   -7.0771    6.4831  -13.9896 O   0  0  0  0  0  0  0  0  0  0  0  0
   -7.5146    5.4203  -14.1973 C   0  0  0  0  0  0  0  0  0  0  0  0
   -8.0630    4.3539  -13.2213 N   0  0  0  0  0  0  0  0  0  0  0  0
   -8.2681    4.4079  -11.8445 C   0  0  0  0  0  0  0  0  0  0  0  0
   -8.3036    3.2477  -11.0920 C   0  0  0  0  0  0  0  0  0  0  0  0
   -8.3405    3.3295   -9.6941 C   0  0  0  0  0  0  0  0  0  0  0  0
   -8.3489    4.5697   -9.0197 C   0  0  0  0  0  0  0  0  0  0  0  0
   -8.3266    4.6274   -7.5011 C   0  0  1  0  0  0  0  0  0  0  0  0
   -8.7650    3.4201   -6.6870 C   0  0  0  0  0  0  0  0  0  0  0  0
   -8.1988    3.7464   -5.3169 C   0  0  0  0  0  0  0  0  0  0  0  0
   -7.0252    4.5546   -5.5124 O   0  0  0  0  0  0  0  0  0  0  0  0
   -6.9351    4.8582   -6.9152 C   0  0  0  0  0  0  0  0  0  0  0  0
   -8.3653    5.7626   -9.7976 C   0  0  0  0  0  0  0  0  0  0  0  0
   -8.4333    7.1369   -9.1464 C   0  0  0  0  0  0  0  0  0  0  0  0
   -8.1583    8.3630   -9.9888 C   0  0  0  0  0  0  0  0  0  0  0  0
   -9.1698    9.2994  -10.2256 C   0  0  0  0  0  0  0  0  0  0  0  0
   -8.8771   10.4171  -10.9920 C   0  0  0  0  0  0  0  0  0  0  0  0
   -7.6668   10.6649  -11.5377 N   0  0  0  0  0  0  0  0  0  0  0  0
   -6.7078    9.7405  -11.3069 C   0  0  0  0  0  0  0  0  0  0  0  0
   -6.8949    8.5990  -10.5412 C   0  0  0  0  0  0  0  0  0  0  0  0
   -8.3732    5.6393  -11.1971 C   0  0  0  0  0  0  0  0  0  0  0  0
   -8.5868    6.7252  -11.9538 F   0  0  0  0  0  0  0  0  0  0  0  0
   -7.5354    4.9841  -15.6027 C   0  0  0  0  0  0  0  0  0  0  0  0
   -8.7435    4.6338  -16.2043 C   0  0  0  0  0  0  0  0  0  0  0  0
   -8.8007    4.4729  -17.5823 C   0  0  0  0  0  0  0  0  0  0  0  0
  -10.3219    4.1551  -18.3061 Cl  0  0  0  0  0  0  0  0  0  0  0  0
   -7.6758    4.6391  -18.3974 C   0  0  0  0  0  0  0  0  0  0  0  0
   -6.4620    4.9510  -17.7729 C   0  0  0  0  0  0  0  0  0  0  0  0
   -6.3534    5.1169  -16.3686 C   0  0  0  0  0  0  0  0  0  0  0  0
   -4.9735    5.3944  -16.0028 C   0  0  0  0  0  0  0  0  0  0  0  0
   -4.2575    5.3730  -17.1358 N   0  0  0  0  0  0  0  0  0  0  0  0
   -3.0144    5.3654  -17.2867 O   0  0  0  0  0  0  0  0  0  0  0  0
   -5.1810    5.1794  -18.2506 N   0  0  0  0  0  0  0  0  0  0  0  0
   -4.8673    5.2538  -19.6864 C   0  0  0  0  0  0  0  0  0  0  0  0
   -3.4020    5.4991  -20.1126 C   0  0  0  0  0  0  0  0  0  0  0  0
   -3.9306    6.4008  -21.1762 N   0  0  0  0  0  0  0  0  0  0  0  0
   -5.0833    6.6659  -20.2717 C   0  0  0  0  0  0  0  0  0  0  0  0
  1  2  2  0
  2  3  1  0
  3  4  1  0
  4  5  2  0
  5  6  1  0
  6  7  2  0
  8  7  1  6
  8  9  1  0
  9 10  1  0
 10 11  1  0
 11 12  1  0
  7 13  1  0
 13 14  1  0
 14 15  1  0
 15 16  2  0
 16 17  1  0
 17 18  2  0
 18 19  1  0
 19 20  2  0
 13 21  2  0
 21 22  1  0
  2 23  1  0
 23 24  2  0
 24 25  1  0
 25 26  1  0
 25 27  2  0
 27 28  1  0
 28 29  2  0
 29 30  1  0
 30 31  2  0
 31 32  1  0
 31 33  1  0
 33 34  1  0
 34 35  1  0
 35 36  1  0
 36 37  1  0
 21  4  1  0
 29 23  1  0
 37 34  1  0
 12  8  1  0
 20 15  1  0
 33 28  1  0
M  CHG  2  31   1  32  -1
M  END
>  <smiles>  (2529) 
C37608-P278

>  <fragmenstein_outcome>  (2529) 
acceptable

>  <inchikey>  (2529) 
YKYAAOVJZZSEPB-UHFFFAOYSA-N

>  <fragmenstein_mode>  (2529) 
expansion

>  <HIPPO Pose ID>  (2529) 
28454

>  <Energy>  (2529) 
132.57748

>  <fragmenstein_error>  (2529) 


>  <tags>  (2529) 
{'openbind_xx01zvns2b_c1_fragmenstein', 'fragmenstein_placed'}

>  <ref_pdb>  (2529) 
175

>  <scratch_subdir>  (2529) 
/opt/xchem-fragalysis-2/maxwin/BulkDock/SCRATCH/511028/C37608-P278

>  <alias>  (2529) 
O=C(Nc1ccc([C@H]2CCOC2)c(Cc2ccncc2)c1F)c1cc(Cl)cc2c1c[n+]([O-])n2C1CNC1

>  <HIPPO Compound ID>  (2529) 
37608

>  <fragmenstein_runtime>  (2529) 
8.542161

$$$$
O=C(Nc1ccc([C@@H]2CCOC2)cc1F)c1cc(Cl)cc2c3n(cc12)C[C@H]1NCC[C@@H]31
     RDKit          3D

 31 36  0  0  0  0  0  0  0  0999 V2000
   -7.4675    6.8156  -13.7015 O   0  0  0  0  0  0  0  0  0  0  0  0
   -7.6567    5.6976  -13.9740 C   0  0  0  0  0  0  0  0  0  0  0  0
   -7.9887    4.4903  -13.0721 N   0  0  0  0  0  0  0  0  0  0  0  0
   -8.2427    4.4253  -11.7002 C   0  0  0  0  0  0  0  0  0  0  0  0
   -8.4816    3.1558  -11.1836 C   0  0  0  0  0  0  0  0  0  0  0  0
   -8.7829    2.9725   -9.8342 C   0  0  0  0  0  0  0  0  0  0  0  0
   -8.8389    4.0496   -8.9463 C   0  0  0  0  0  0  0  0  0  0  0  0
   -9.2332    3.8576   -7.4840 C   0  0  2  0  0  0  0  0  0  0  0  0
   -8.1221    3.2895   -6.6533 C   0  0  0  0  0  0  0  0  0  0  0  0
   -8.3615    1.7953   -6.7565 C   0  0  0  0  0  0  0  0  0  0  0  0
   -9.7648    1.5983   -6.7676 O   0  0  0  0  0  0  0  0  0  0  0  0
  -10.3336    2.8140   -7.2274 C   0  0  0  0  0  0  0  0  0  0  0  0
   -8.5601    5.3266   -9.4621 C   0  0  0  0  0  0  0  0  0  0  0  0
   -8.2885    5.5109  -10.8270 C   0  0  0  0  0  0  0  0  0  0  0  0
   -8.1447    6.7680  -11.2663 F   0  0  0  0  0  0  0  0  0  0  0  0
   -7.6197    5.2841  -15.3842 C   0  0  0  0  0  0  0  0  0  0  0  0
   -8.7270    4.6934  -16.0403 C   0  0  0  0  0  0  0  0  0  0  0  0
   -8.7774    4.4690  -17.4590 C   0  0  0  0  0  0  0  0  0  0  0  0
  -10.2786    3.9697  -18.1415 Cl  0  0  0  0  0  0  0  0  0  0  0  0
   -7.7292    4.7436  -18.3592 C   0  0  0  0  0  0  0  0  0  0  0  0
   -6.6671    5.3181  -17.6860 C   0  0  0  0  0  0  0  0  0  0  0  0
   -5.5614    5.8718  -18.2476 C   0  0  0  0  0  0  0  0  0  0  0  0
   -4.8221    6.4234  -17.2359 N   0  0  0  0  0  0  0  0  0  0  0  0
   -5.4156    6.2638  -16.0271 C   0  0  0  0  0  0  0  0  0  0  0  0
   -6.5965    5.5910  -16.2796 C   0  0  0  0  0  0  0  0  0  0  0  0
   -3.6755    7.1807  -17.7161 C   0  0  0  0  0  0  0  0  0  0  0  0
   -3.9744    7.3082  -19.2404 C   0  0  1  0  0  0  0  0  0  0  0  0
   -2.7830    7.0902  -20.0794 N   0  0  0  0  0  0  0  0  0  0  0  0
   -3.0543    5.8962  -20.8906 C   0  0  0  0  0  0  0  0  0  0  0  0
   -4.0454    5.0918  -20.0734 C   0  0  0  0  0  0  0  0  0  0  0  0
   -4.9670    6.1631  -19.5546 C   0  0  1  0  0  0  0  0  0  0  0  0
  1  2  2  0
  2  3  1  0
  3  4  1  0
  4  5  2  0
  5  6  1  0
  6  7  2  0
  8  7  1  6
  8  9  1  0
  9 10  1  0
 10 11  1  0
 11 12  1  0
  7 13  1  0
 13 14  2  0
 14 15  1  0
  2 16  1  0
 16 17  2  0
 17 18  1  0
 18 19  1  0
 18 20  2  0
 20 21  1  0
 21 22  2  0
 22 23  1  0
 23 24  1  0
 24 25  2  0
 23 26  1  0
 27 26  1  1
 27 28  1  0
 28 29  1  0
 29 30  1  0
 31 30  1  1
 14  4  1  0
 25 16  1  0
 31 27  1  0
 12  8  1  0
 25 21  1  0
 31 22  1  0
M  END
>  <smiles>  (2530) 
C37611-P278

>  <fragmenstein_outcome>  (2530) 
acceptable

>  <inchikey>  (2530) 
WYSOANXTDNOONN-UHFFFAOYSA-N

>  <fragmenstein_mode>  (2530) 
expansion

>  <HIPPO Pose ID>  (2530) 
28457

>  <Energy>  (2530) 
128.990617

>  <fragmenstein_error>  (2530) 


>  <tags>  (2530) 
{'openbind_xx01zvns2b_c1_fragmenstein', 'fragmenstein_placed'}

>  <ref_pdb>  (2530) 
175

>  <scratch_subdir>  (2530) 
/opt/xchem-fragalysis-2/maxwin/BulkDock/SCRATCH/511028/C37611-P278

>  <alias>  (2530) 
O=C(Nc1ccc([C@@H]2CCOC2)cc1F)c1cc(Cl)cc2c3n(cc12)C[C@H]1NCC[C@@H]31

>  <HIPPO Compound ID>  (2530) 
18644

>  <fragmenstein_runtime>  (2530) 
15.872062

$$$$
O=C(NCCCF)[C@](O)(Nc1ccc([C@@H]2CCOC2)cc1F)c1cc(Cl)cc2c1cnn2C1CNC1
     RDKit          3D

 36 40  0  0  0  0  0  0  0  0999 V2000
   -5.3168    5.5026  -12.5816 O   0  0  0  0  0  0  0  0  0  0  0  0
   -6.1151    4.7198  -12.9354 C   0  0  0  0  0  0  0  0  0  0  0  0
   -6.1463    3.1711  -12.7810 N   0  0  0  0  0  0  0  0  0  0  0  0
   -5.2531    2.2817  -12.0793 C   0  0  0  0  0  0  0  0  0  0  0  0
   -3.9213    2.1098  -12.7940 C   0  0  0  0  0  0  0  0  0  0  0  0
   -2.9186    1.4077  -11.8940 C   0  0  0  0  0  0  0  0  0  0  0  0
   -2.5290    2.2694  -10.9145 F   0  0  0  0  0  0  0  0  0  0  0  0
   -7.4933    5.2237  -13.6117 C   0  0  2  0  0  0  0  0  0  0  0  0
   -7.5774    6.6479  -13.5106 O   0  0  0  0  0  0  0  0  0  0  0  0
   -8.6613    4.6493  -12.9212 N   0  0  0  0  0  0  0  0  0  0  0  0
   -8.6210    4.6631  -11.5037 C   0  0  0  0  0  0  0  0  0  0  0  0
   -8.4567    5.8342  -10.7666 C   0  0  0  0  0  0  0  0  0  0  0  0
   -8.4160    5.7990   -9.3690 C   0  0  0  0  0  0  0  0  0  0  0  0
   -8.5548    4.5934   -8.6576 C   0  0  0  0  0  0  0  0  0  0  0  0
   -8.5735    4.6618   -7.1531 C   0  0  2  0  0  0  0  0  0  0  0  0
   -7.2370    5.0395   -6.5396 C   0  0  0  0  0  0  0  0  0  0  0  0
   -7.4466    4.7110   -5.0749 C   0  0  0  0  0  0  0  0  0  0  0  0
   -8.5111    3.7548   -4.9904 O   0  0  0  0  0  0  0  0  0  0  0  0
   -8.9167    3.4266   -6.3332 C   0  0  0  0  0  0  0  0  0  0  0  0
   -8.7237    3.4150   -9.3896 C   0  0  0  0  0  0  0  0  0  0  0  0
   -8.7620    3.4665  -10.7847 C   0  0  0  0  0  0  0  0  0  0  0  0
   -8.9261    2.3319  -11.4774 F   0  0  0  0  0  0  0  0  0  0  0  0
   -7.5082    5.0038  -15.1255 C   0  0  0  0  0  0  0  0  0  0  0  0
   -8.6624    4.5519  -15.8173 C   0  0  0  0  0  0  0  0  0  0  0  0
   -8.7261    4.4917  -17.2119 C   0  0  0  0  0  0  0  0  0  0  0  0
  -10.1882    4.0436  -17.9976 Cl  0  0  0  0  0  0  0  0  0  0  0  0
   -7.6526    4.8800  -18.0033 C   0  0  0  0  0  0  0  0  0  0  0  0
   -6.5277    5.3758  -17.3396 C   0  0  0  0  0  0  0  0  0  0  0  0
   -6.4312    5.4346  -15.9504 C   0  0  0  0  0  0  0  0  0  0  0  0
   -5.1687    6.0404  -15.7265 C   0  0  0  0  0  0  0  0  0  0  0  0
   -4.5248    6.3473  -16.8503 N   0  0  0  0  0  0  0  0  0  0  0  0
   -5.3610    5.9325  -17.8142 N   0  0  0  0  0  0  0  0  0  0  0  0
   -5.0902    6.1433  -19.2421 C   0  0  0  0  0  0  0  0  0  0  0  0
   -3.6461    6.5447  -19.5931 C   0  0  0  0  0  0  0  0  0  0  0  0
   -3.6505    5.5128  -20.6532 N   0  0  0  0  0  0  0  0  0  0  0  0
   -4.7364    4.8261  -19.9191 C   0  0  0  0  0  0  0  0  0  0  0  0
  1  2  2  0
  2  3  1  0
  3  4  1  0
  4  5  1  0
  5  6  1  0
  6  7  1  0
  2  8  1  0
  8  9  1  6
  8 10  1  0
 10 11  1  0
 11 12  2  0
 12 13  1  0
 13 14  2  0
 15 14  1  6
 15 16  1  0
 16 17  1  0
 17 18  1  0
 18 19  1  0
 14 20  1  0
 20 21  2  0
 21 22  1  0
  8 23  1  0
 23 24  2  0
 24 25  1  0
 25 26  1  0
 25 27  2  0
 27 28  1  0
 28 29  2  0
 29 30  1  0
 30 31  2  0
 31 32  1  0
 32 33  1  0
 33 34  1  0
 34 35  1  0
 35 36  1  0
 21 11  1  0
 29 23  1  0
 36 33  1  0
 19 15  1  0
 32 28  1  0
M  END
>  <smiles>  (2531) 
C37614-P278

>  <fragmenstein_outcome>  (2531) 
acceptable

>  <inchikey>  (2531) 
OQJVSVQHZLHMQO-UHFFFAOYSA-N

>  <fragmenstein_mode>  (2531) 
expansion

>  <HIPPO Pose ID>  (2531) 
28458

>  <Energy>  (2531) 
140.409587

>  <fragmenstein_error>  (2531) 


>  <tags>  (2531) 
{'openbind_xx01zvns2b_c1_fragmenstein', 'fragmenstein_placed'}

>  <ref_pdb>  (2531) 
175

>  <scratch_subdir>  (2531) 
/opt/xchem-fragalysis-2/maxwin/BulkDock/SCRATCH/511028/C37614-P278

>  <alias>  (2531) 
O=C(NCCCF)[C@](O)(Nc1ccc([C@@H]2CCOC2)cc1F)c1cc(Cl)cc2c1cnn2C1CNC1

>  <HIPPO Compound ID>  (2531) 
43336

>  <fragmenstein_runtime>  (2531) 
11.497806

$$$$
O=C(NCCCF)[C@@](O)(Nc1ccc([C@H]2CCOC2)cc1F)c1cc(Cl)cc2c1cnn2C1CNC1
     RDKit          3D

 36 40  0  0  0  0  0  0  0  0999 V2000
   -6.4924    7.6166  -13.6847 O   0  0  0  0  0  0  0  0  0  0  0  0
   -7.4167    6.9042  -13.5669 C   0  0  0  0  0  0  0  0  0  0  0  0
   -8.8937    7.2201  -13.1566 N   0  0  0  0  0  0  0  0  0  0  0  0
   -9.5026    8.4586  -12.7177 C   0  0  0  0  0  0  0  0  0  0  0  0
  -10.8786    8.7381  -13.3103 C   0  0  0  0  0  0  0  0  0  0  0  0
  -11.5677    9.8569  -12.5472 C   0  0  0  0  0  0  0  0  0  0  0  0
  -10.7968   10.9771  -12.6197 F   0  0  0  0  0  0  0  0  0  0  0  0
   -7.2822    5.2791  -13.7260 C   0  0  1  0  0  0  0  0  0  0  0  0
   -6.0307    4.7567  -13.3299 O   0  0  0  0  0  0  0  0  0  0  0  0
   -8.3208    4.5680  -12.9434 N   0  0  0  0  0  0  0  0  0  0  0  0
   -8.2405    4.5489  -11.5226 C   0  0  0  0  0  0  0  0  0  0  0  0
   -7.8803    5.6622  -10.7602 C   0  0  0  0  0  0  0  0  0  0  0  0
   -7.9261    5.6438   -9.3678 C   0  0  0  0  0  0  0  0  0  0  0  0
   -8.3119    4.4998   -8.6609 C   0  0  0  0  0  0  0  0  0  0  0  0
   -8.2988    4.5987   -7.1572 C   0  0  1  0  0  0  0  0  0  0  0  0
   -8.8180    3.4767   -6.2832 C   0  0  0  0  0  0  0  0  0  0  0  0
   -8.2003    3.8660   -4.9539 C   0  0  0  0  0  0  0  0  0  0  0  0
   -6.8603    4.3031   -5.2451 O   0  0  0  0  0  0  0  0  0  0  0  0
   -6.8894    4.8238   -6.5892 C   0  0  0  0  0  0  0  0  0  0  0  0
   -8.6765    3.3717   -9.3990 C   0  0  0  0  0  0  0  0  0  0  0  0
   -8.6565    3.4131  -10.8021 C   0  0  0  0  0  0  0  0  0  0  0  0
   -9.0288    2.3185  -11.4812 F   0  0  0  0  0  0  0  0  0  0  0  0
   -7.3796    4.9914  -15.2350 C   0  0  0  0  0  0  0  0  0  0  0  0
   -8.5755    4.5480  -15.8319 C   0  0  0  0  0  0  0  0  0  0  0  0
   -8.7043    4.4359  -17.2155 C   0  0  0  0  0  0  0  0  0  0  0  0
  -10.2445    4.0844  -17.8677 Cl  0  0  0  0  0  0  0  0  0  0  0  0
   -7.6632    4.7377  -18.0913 C   0  0  0  0  0  0  0  0  0  0  0  0
   -6.4681    5.1733  -17.5165 C   0  0  0  0  0  0  0  0  0  0  0  0
   -6.3089    5.2831  -16.1322 C   0  0  0  0  0  0  0  0  0  0  0  0
   -4.9831    5.7556  -15.9798 C   0  0  0  0  0  0  0  0  0  0  0  0
   -4.3652    5.9690  -17.1395 N   0  0  0  0  0  0  0  0  0  0  0  0
   -5.2845    5.6313  -18.0632 N   0  0  0  0  0  0  0  0  0  0  0  0
   -5.0976    6.0158  -19.4759 C   0  0  0  0  0  0  0  0  0  0  0  0
   -3.6123    6.0047  -19.9133 C   0  0  0  0  0  0  0  0  0  0  0  0
   -4.0577    5.4209  -21.2027 N   0  0  0  0  0  0  0  0  0  0  0  0
   -5.2321    4.8730  -20.4847 C   0  0  0  0  0  0  0  0  0  0  0  0
  1  2  2  0
  2  3  1  0
  3  4  1  0
  4  5  1  0
  5  6  1  0
  6  7  1  0
  2  8  1  0
  8  9  1  1
  8 10  1  0
 10 11  1  0
 11 12  2  0
 12 13  1  0
 13 14  2  0
 15 14  1  6
 15 16  1  0
 16 17  1  0
 17 18  1  0
 18 19  1  0
 14 20  1  0
 20 21  2  0
 21 22  1  0
  8 23  1  0
 23 24  2  0
 24 25  1  0
 25 26  1  0
 25 27  2  0
 27 28  1  0
 28 29  2  0
 29 30  1  0
 30 31  2  0
 31 32  1  0
 32 33  1  0
 33 34  1  0
 34 35  1  0
 35 36  1  0
 21 11  1  0
 29 23  1  0
 36 33  1  0
 19 15  1  0
 32 28  1  0
M  END
>  <smiles>  (2532) 
C37614-P246

>  <fragmenstein_outcome>  (2532) 
acceptable

>  <inchikey>  (2532) 
IMBKDSFAVYMYDM-UHFFFAOYSA-N

>  <fragmenstein_mode>  (2532) 
expansion

>  <HIPPO Pose ID>  (2532) 
28459

>  <Energy>  (2532) 
136.924404

>  <fragmenstein_error>  (2532) 


>  <tags>  (2532) 
{'openbind_xx01zvns2b_c1_fragmenstein', 'fragmenstein_placed'}

>  <ref_pdb>  (2532) 
175

>  <scratch_subdir>  (2532) 
/opt/xchem-fragalysis-2/maxwin/BulkDock/SCRATCH/511028/C37614-P246

>  <alias>  (2532) 
O=C(NCCCF)[C@@](O)(Nc1ccc([C@H]2CCOC2)cc1F)c1cc(Cl)cc2c1cnn2C1CNC1

>  <HIPPO Compound ID>  (2532) 
37614

>  <fragmenstein_runtime>  (2532) 
12.179874

$$$$
CN1CCC2(CC1)Cc1c(C(=O)Nc3ccc([C@H]4CCOC4)cc3F)cc(Cl)cc1N2C1CNC1
     RDKit          3D

 35 40  0  0  0  0  0  0  0  0999 V2000
   -1.5033    7.3693  -13.6135 C   0  0  0  0  0  0  0  0  0  0  0  0
   -2.4982    6.9298  -14.5885 N   0  0  0  0  0  0  0  0  0  0  0  0
   -2.2105    5.5684  -15.0571 C   0  0  0  0  0  0  0  0  0  0  0  0
   -2.9364    5.2155  -16.3636 C   0  0  0  0  0  0  0  0  0  0  0  0
   -4.2256    6.0385  -16.5609 C   0  0  0  0  0  0  0  0  0  0  0  0
   -3.8601    7.5507  -16.5606 C   0  0  0  0  0  0  0  0  0  0  0  0
   -2.6311    7.8721  -15.6941 C   0  0  0  0  0  0  0  0  0  0  0  0
   -5.1935    5.7605  -15.3705 C   0  0  0  0  0  0  0  0  0  0  0  0
   -6.4571    5.4006  -16.0550 C   0  0  0  0  0  0  0  0  0  0  0  0
   -7.6972    5.2040  -15.4642 C   0  0  0  0  0  0  0  0  0  0  0  0
   -7.9287    5.6872  -14.0928 C   0  0  0  0  0  0  0  0  0  0  0  0
   -7.8864    6.8351  -13.8983 O   0  0  0  0  0  0  0  0  0  0  0  0
   -8.1428    4.5203  -13.1198 N   0  0  0  0  0  0  0  0  0  0  0  0
   -8.2527    4.5082  -11.7347 C   0  0  0  0  0  0  0  0  0  0  0  0
   -8.3451    5.6826  -10.9986 C   0  0  0  0  0  0  0  0  0  0  0  0
   -8.4481    5.6204   -9.6071 C   0  0  0  0  0  0  0  0  0  0  0  0
   -8.4639    4.3868   -8.9275 C   0  0  0  0  0  0  0  0  0  0  0  0
   -8.5767    4.4071   -7.4239 C   0  0  1  0  0  0  0  0  0  0  0  0
   -8.8143    3.1144   -6.6679 C   0  0  0  0  0  0  0  0  0  0  0  0
   -8.3389    3.4646   -5.2666 C   0  0  0  0  0  0  0  0  0  0  0  0
   -7.4620    4.6016   -5.3531 O   0  0  0  0  0  0  0  0  0  0  0  0
   -7.3168    4.9239   -6.7421 C   0  0  0  0  0  0  0  0  0  0  0  0
   -8.3612    3.2129   -9.6841 C   0  0  0  0  0  0  0  0  0  0  0  0
   -8.2484    3.2869  -11.0711 C   0  0  0  0  0  0  0  0  0  0  0  0
   -8.0801    2.1673  -11.7864 F   0  0  0  0  0  0  0  0  0  0  0  0
   -8.7527    4.7373  -16.2292 C   0  0  0  0  0  0  0  0  0  0  0  0
   -8.5577    4.5583  -17.5981 C   0  0  0  0  0  0  0  0  0  0  0  0
   -9.9065    4.0832  -18.5437 Cl  0  0  0  0  0  0  0  0  0  0  0  0
   -7.3249    4.8366  -18.2082 C   0  0  0  0  0  0  0  0  0  0  0  0
   -6.2598    5.2545  -17.4212 C   0  0  0  0  0  0  0  0  0  0  0  0
   -4.9364    5.5892  -17.8304 N   0  0  0  0  0  0  0  0  0  0  0  0
   -4.6339    6.2480  -19.0863 C   0  0  0  0  0  0  0  0  0  0  0  0
   -3.1628    6.0688  -19.5527 C   0  0  0  0  0  0  0  0  0  0  0  0
   -3.6498    6.0122  -20.9415 N   0  0  0  0  0  0  0  0  0  0  0  0
   -4.9446    5.5052  -20.3922 C   0  0  0  0  0  0  0  0  0  0  0  0
  1  2  1  0
  2  3  1  0
  3  4  1  0
  4  5  1  0
  5  6  1  0
  6  7  1  0
  5  8  1  0
  8  9  1  0
  9 10  2  0
 10 11  1  0
 11 12  2  0
 11 13  1  0
 13 14  1  0
 14 15  2  0
 15 16  1  0
 16 17  2  0
 18 17  1  6
 18 19  1  0
 19 20  1  0
 20 21  1  0
 21 22  1  0
 17 23  1  0
 23 24  2  0
 24 25  1  0
 10 26  1  0
 26 27  2  0
 27 28  1  0
 27 29  1  0
 29 30  2  0
 30 31  1  0
 31 32  1  0
 32 33  1  0
 33 34  1  0
 34 35  1  0
  7  2  1  0
 30  9  1  0
 35 32  1  0
 31  5  1  0
 24 14  1  0
 22 18  1  0
M  END
>  <smiles>  (2533) 
C37615-P278

>  <fragmenstein_outcome>  (2533) 
acceptable

>  <inchikey>  (2533) 
WIBZCOWSGTVCFF-UHFFFAOYSA-N

>  <fragmenstein_mode>  (2533) 
expansion

>  <HIPPO Pose ID>  (2533) 
28460

>  <Energy>  (2533) 
128.238735

>  <fragmenstein_error>  (2533) 


>  <tags>  (2533) 
{'openbind_xx01zvns2b_c1_fragmenstein', 'fragmenstein_placed'}

>  <ref_pdb>  (2533) 
175

>  <scratch_subdir>  (2533) 
/opt/xchem-fragalysis-2/maxwin/BulkDock/SCRATCH/511028/C37615-P278

>  <alias>  (2533) 
CN1CCC2(CC1)Cc1c(C(=O)Nc3ccc([C@H]4CCOC4)cc3F)cc(Cl)cc1N2C1CNC1

>  <HIPPO Compound ID>  (2533) 
19707

>  <fragmenstein_runtime>  (2533) 
12.008797

$$$$
O=C(Nc1ccc([C@H]2CCOC2)cc1F)c1cc(Cl)cc2c1cnn2C1(NO)CNC1
     RDKit          3D

 31 35  0  0  0  0  0  0  0  0999 V2000
   -7.4675    6.7424  -13.5892 O   0  0  0  0  0  0  0  0  0  0  0  0
   -7.8157    5.6721  -13.8962 C   0  0  0  0  0  0  0  0  0  0  0  0
   -8.3550    4.5103  -13.0357 N   0  0  0  0  0  0  0  0  0  0  0  0
   -8.4859    4.3920  -11.6501 C   0  0  0  0  0  0  0  0  0  0  0  0
   -8.8865    3.1479  -11.1849 C   0  0  0  0  0  0  0  0  0  0  0  0
   -8.9455    2.8703   -9.8221 C   0  0  0  0  0  0  0  0  0  0  0  0
   -8.5512    3.8071   -8.8673 C   0  0  0  0  0  0  0  0  0  0  0  0
   -8.3817    3.4052   -7.4048 C   0  0  1  0  0  0  0  0  0  0  0  0
   -9.4406    3.9501   -6.4664 C   0  0  0  0  0  0  0  0  0  0  0  0
  -10.4084    2.7930   -6.2416 C   0  0  0  0  0  0  0  0  0  0  0  0
   -9.9247    1.6742   -6.9752 O   0  0  0  0  0  0  0  0  0  0  0  0
   -8.5175    1.9045   -7.1107 C   0  0  0  0  0  0  0  0  0  0  0  0
   -8.2290    5.0946   -9.3322 C   0  0  0  0  0  0  0  0  0  0  0  0
   -8.2172    5.3844  -10.7099 C   0  0  0  0  0  0  0  0  0  0  0  0
   -7.9529    6.6422  -11.0891 F   0  0  0  0  0  0  0  0  0  0  0  0
   -7.7377    5.2995  -15.3302 C   0  0  0  0  0  0  0  0  0  0  0  0
   -8.8234    4.7266  -16.0000 C   0  0  0  0  0  0  0  0  0  0  0  0
   -8.7801    4.5565  -17.3788 C   0  0  0  0  0  0  0  0  0  0  0  0
  -10.1878    4.0220  -18.2012 Cl  0  0  0  0  0  0  0  0  0  0  0  0
   -7.6559    4.9116  -18.1257 C   0  0  0  0  0  0  0  0  0  0  0  0
   -6.5544    5.4449  -17.4384 C   0  0  0  0  0  0  0  0  0  0  0  0
   -6.5803    5.6378  -16.0580 C   0  0  0  0  0  0  0  0  0  0  0  0
   -5.3194    6.1869  -15.7498 C   0  0  0  0  0  0  0  0  0  0  0  0
   -4.5391    6.3219  -16.8198 N   0  0  0  0  0  0  0  0  0  0  0  0
   -5.3109    5.8971  -17.8441 N   0  0  0  0  0  0  0  0  0  0  0  0
   -4.7980    5.8203  -19.2349 C   0  0  0  0  0  0  0  0  0  0  0  0
   -4.9127    4.5170  -19.9073 N   0  0  0  0  0  0  0  0  0  0  0  0
   -5.9784    4.5911  -20.8854 O   0  0  0  0  0  0  0  0  0  0  0  0
   -3.3127    6.2642  -19.4043 C   0  0  0  0  0  0  0  0  0  0  0  0
   -3.7055    7.0152  -20.6278 N   0  0  0  0  0  0  0  0  0  0  0  0
   -5.0936    7.0628  -20.1029 C   0  0  0  0  0  0  0  0  0  0  0  0
  1  2  2  0
  2  3  1  0
  3  4  1  0
  4  5  2  0
  5  6  1  0
  6  7  2  0
  8  7  1  6
  8  9  1  0
  9 10  1  0
 10 11  1  0
 11 12  1  0
  7 13  1  0
 13 14  2  0
 14 15  1  0
  2 16  1  0
 16 17  2  0
 17 18  1  0
 18 19  1  0
 18 20  2  0
 20 21  1  0
 21 22  2  0
 22 23  1  0
 23 24  2  0
 24 25  1  0
 25 26  1  0
 26 27  1  0
 27 28  1  0
 26 29  1  0
 29 30  1  0
 30 31  1  0
 14  4  1  0
 22 16  1  0
 31 26  1  0
 12  8  1  0
 25 21  1  0
M  END
>  <smiles>  (2534) 
C37617-P278

>  <fragmenstein_outcome>  (2534) 
acceptable

>  <inchikey>  (2534) 
WLJQFYQWVJNKGJ-UHFFFAOYSA-N

>  <fragmenstein_mode>  (2534) 
expansion

>  <HIPPO Pose ID>  (2534) 
28462

>  <Energy>  (2534) 
187.713743

>  <fragmenstein_error>  (2534) 


>  <tags>  (2534) 
{'openbind_xx01zvns2b_c1_fragmenstein', 'fragmenstein_placed'}

>  <ref_pdb>  (2534) 
175

>  <scratch_subdir>  (2534) 
/opt/xchem-fragalysis-2/maxwin/BulkDock/SCRATCH/511028/C37617-P278

>  <alias>  (2534) 
O=C(Nc1ccc([C@H]2CCOC2)cc1F)c1cc(Cl)cc2c1cnn2C1(NO)CNC1

>  <HIPPO Compound ID>  (2534) 
37531

>  <fragmenstein_runtime>  (2534) 
11.437525

$$$$
CCN1CCC2(CC1)Cc1c(C(=O)Nc3ccc([C@H]4CCOC4)cc3F)cc(Cl)cc1N2C1CNC1
     RDKit          3D

 36 41  0  0  0  0  0  0  0  0999 V2000
    0.9806    7.1865  -17.3670 C   0  0  0  0  0  0  0  0  0  0  0  0
   -0.4258    7.3394  -17.9393 C   0  0  0  0  0  0  0  0  0  0  0  0
   -1.4474    7.4269  -16.8843 N   0  0  0  0  0  0  0  0  0  0  0  0
   -1.7189    6.1484  -16.2193 C   0  0  0  0  0  0  0  0  0  0  0  0
   -2.8081    5.3330  -16.9033 C   0  0  0  0  0  0  0  0  0  0  0  0
   -4.1586    6.0813  -16.8860 C   0  0  0  0  0  0  0  0  0  0  0  0
   -3.9530    7.6193  -16.7475 C   0  0  0  0  0  0  0  0  0  0  0  0
   -2.6497    8.1162  -17.3705 C   0  0  0  0  0  0  0  0  0  0  0  0
   -4.9904    5.6315  -15.6467 C   0  0  0  0  0  0  0  0  0  0  0  0
   -6.3285    5.3815  -16.2361 C   0  0  0  0  0  0  0  0  0  0  0  0
   -7.5222    5.1796  -15.5503 C   0  0  0  0  0  0  0  0  0  0  0  0
   -7.6556    5.6757  -14.1651 C   0  0  0  0  0  0  0  0  0  0  0  0
   -7.4401    6.8061  -13.9761 O   0  0  0  0  0  0  0  0  0  0  0  0
   -8.0671    4.5623  -13.1879 N   0  0  0  0  0  0  0  0  0  0  0  0
   -8.2045    4.5797  -11.8028 C   0  0  0  0  0  0  0  0  0  0  0  0
   -8.1991    5.7713  -11.0877 C   0  0  0  0  0  0  0  0  0  0  0  0
   -8.3113    5.7468   -9.6948 C   0  0  0  0  0  0  0  0  0  0  0  0
   -8.4245    4.5336   -8.9893 C   0  0  0  0  0  0  0  0  0  0  0  0
   -8.5135    4.5944   -7.4846 C   0  0  1  0  0  0  0  0  0  0  0  0
   -8.8488    3.3390   -6.7030 C   0  0  0  0  0  0  0  0  0  0  0  0
   -8.3873    3.7044   -5.3040 C   0  0  0  0  0  0  0  0  0  0  0  0
   -7.3380    4.6811   -5.4259 O   0  0  0  0  0  0  0  0  0  0  0  0
   -7.2051    5.0054   -6.8184 C   0  0  0  0  0  0  0  0  0  0  0  0
   -8.4369    3.3410   -9.7238 C   0  0  0  0  0  0  0  0  0  0  0  0
   -8.3251    3.3779  -11.1137 C   0  0  0  0  0  0  0  0  0  0  0  0
   -8.2737    2.2328  -11.8039 F   0  0  0  0  0  0  0  0  0  0  0  0
   -8.6394    4.7451  -16.2468 C   0  0  0  0  0  0  0  0  0  0  0  0
   -8.5454    4.5933  -17.6313 C   0  0  0  0  0  0  0  0  0  0  0  0
   -9.9569    4.1195  -18.4857 Cl  0  0  0  0  0  0  0  0  0  0  0  0
   -7.3648    4.9016  -18.3295 C   0  0  0  0  0  0  0  0  0  0  0  0
   -6.2440    5.3118  -17.6239 C   0  0  0  0  0  0  0  0  0  0  0  0
   -4.9591    5.6815  -18.1210 N   0  0  0  0  0  0  0  0  0  0  0  0
   -4.6869    6.4229  -19.3384 C   0  0  0  0  0  0  0  0  0  0  0  0
   -3.4123    5.9476  -20.0939 C   0  0  0  0  0  0  0  0  0  0  0  0
   -4.0558    6.4138  -21.3417 N   0  0  0  0  0  0  0  0  0  0  0  0
   -5.3588    6.0934  -20.6704 C   0  0  0  0  0  0  0  0  0  0  0  0
  1  2  1  0
  2  3  1  0
  3  4  1  0
  4  5  1  0
  5  6  1  0
  6  7  1  0
  7  8  1  0
  6  9  1  0
  9 10  1  0
 10 11  2  0
 11 12  1  0
 12 13  2  0
 12 14  1  0
 14 15  1  0
 15 16  2  0
 16 17  1  0
 17 18  2  0
 19 18  1  6
 19 20  1  0
 20 21  1  0
 21 22  1  0
 22 23  1  0
 18 24  1  0
 24 25  2  0
 25 26  1  0
 11 27  1  0
 27 28  2  0
 28 29  1  0
 28 30  1  0
 30 31  2  0
 31 32  1  0
 32 33  1  0
 33 34  1  0
 34 35  1  0
 35 36  1  0
  8  3  1  0
 31 10  1  0
 36 33  1  0
 32  6  1  0
 25 15  1  0
 23 19  1  0
M  END
>  <smiles>  (2535) 
C37622-P278

>  <fragmenstein_outcome>  (2535) 
acceptable

>  <inchikey>  (2535) 
JQNASAAYNNXCEV-UHFFFAOYSA-N

>  <fragmenstein_mode>  (2535) 
expansion

>  <HIPPO Pose ID>  (2535) 
28463

>  <Energy>  (2535) 
135.397309

>  <fragmenstein_error>  (2535) 


>  <tags>  (2535) 
{'openbind_xx01zvns2b_c1_fragmenstein', 'fragmenstein_placed'}

>  <ref_pdb>  (2535) 
175

>  <scratch_subdir>  (2535) 
/opt/xchem-fragalysis-2/maxwin/BulkDock/SCRATCH/511028/C37622-P278

>  <alias>  (2535) 
CCN1CCC2(CC1)Cc1c(C(=O)Nc3ccc([C@H]4CCOC4)cc3F)cc(Cl)cc1N2C1CNC1

>  <HIPPO Compound ID>  (2535) 
37622

>  <fragmenstein_runtime>  (2535) 
13.441095

$$$$
O=C(Nc1ccc([C@H]2CCOC2)cc1F)c1cc(Cl)cc2c1cnn2C1CC2(CCOCC2)C1
     RDKit          3D

 34 39  0  0  0  0  0  0  0  0999 V2000
   -7.8132    6.7853  -13.8207 O   0  0  0  0  0  0  0  0  0  0  0  0
   -7.8348    5.6413  -14.0401 C   0  0  0  0  0  0  0  0  0  0  0  0
   -8.0237    4.4490  -13.0915 N   0  0  0  0  0  0  0  0  0  0  0  0
   -8.1281    4.4045  -11.7063 C   0  0  0  0  0  0  0  0  0  0  0  0
   -8.2184    5.5474  -10.9203 C   0  0  0  0  0  0  0  0  0  0  0  0
   -8.3138    5.4312   -9.5255 C   0  0  0  0  0  0  0  0  0  0  0  0
   -8.3285    4.1733   -8.8977 C   0  0  0  0  0  0  0  0  0  0  0  0
   -8.3782    4.0007   -7.3927 C   0  0  1  0  0  0  0  0  0  0  0  0
   -8.7403    5.2200   -6.5563 C   0  0  0  0  0  0  0  0  0  0  0  0
   -9.2363    4.5922   -5.2772 C   0  0  0  0  0  0  0  0  0  0  0  0
  -10.0101    3.4710   -5.7018 O   0  0  0  0  0  0  0  0  0  0  0  0
   -9.3821    2.9493   -6.8908 C   0  0  0  0  0  0  0  0  0  0  0  0
   -8.2090    3.0340   -9.7098 C   0  0  0  0  0  0  0  0  0  0  0  0
   -8.1133    3.1595  -11.0918 C   0  0  0  0  0  0  0  0  0  0  0  0
   -7.9247    2.0714  -11.8506 F   0  0  0  0  0  0  0  0  0  0  0  0
   -7.6953    5.1938  -15.4370 C   0  0  0  0  0  0  0  0  0  0  0  0
   -8.7869    4.6470  -16.1112 C   0  0  0  0  0  0  0  0  0  0  0  0
   -8.7333    4.4937  -17.4926 C   0  0  0  0  0  0  0  0  0  0  0  0
  -10.1522    3.9959  -18.3144 Cl  0  0  0  0  0  0  0  0  0  0  0  0
   -7.6015    4.8475  -18.2361 C   0  0  0  0  0  0  0  0  0  0  0  0
   -6.5062    5.3612  -17.5270 C   0  0  0  0  0  0  0  0  0  0  0  0
   -6.5250    5.5120  -16.1415 C   0  0  0  0  0  0  0  0  0  0  0  0
   -5.2598    6.0364  -15.8158 C   0  0  0  0  0  0  0  0  0  0  0  0
   -4.5014    6.2430  -16.8900 N   0  0  0  0  0  0  0  0  0  0  0  0
   -5.3070    5.9131  -17.9215 N   0  0  0  0  0  0  0  0  0  0  0  0
   -5.0768    6.4651  -19.2708 C   0  0  0  0  0  0  0  0  0  0  0  0
   -3.6675    7.0713  -19.4747 C   0  0  0  0  0  0  0  0  0  0  0  0
   -3.6864    6.4823  -20.9183 C   0  0  0  0  0  0  0  0  0  0  0  0
   -2.3179    5.9410  -21.3499 C   0  0  0  0  0  0  0  0  0  0  0  0
   -1.5316    7.0788  -21.9907 C   0  0  0  0  0  0  0  0  0  0  0  0
   -2.1470    7.5923  -23.1770 O   0  0  0  0  0  0  0  0  0  0  0  0
   -3.5453    7.3167  -23.2904 C   0  0  0  0  0  0  0  0  0  0  0  0
   -4.2727    7.4585  -21.9590 C   0  0  0  0  0  0  0  0  0  0  0  0
   -4.6913    5.4291  -20.3274 C   0  0  0  0  0  0  0  0  0  0  0  0
  1  2  2  0
  2  3  1  0
  3  4  1  0
  4  5  2  0
  5  6  1  0
  6  7  2  0
  8  7  1  6
  8  9  1  0
  9 10  1  0
 10 11  1  0
 11 12  1  0
  7 13  1  0
 13 14  2  0
 14 15  1  0
  2 16  1  0
 16 17  2  0
 17 18  1  0
 18 19  1  0
 18 20  2  0
 20 21  1  0
 21 22  2  0
 22 23  1  0
 23 24  2  0
 24 25  1  0
 25 26  1  0
 26 27  1  0
 27 28  1  0
 28 29  1  0
 29 30  1  0
 30 31  1  0
 31 32  1  0
 32 33  1  0
 28 34  1  0
 14  4  1  0
 22 16  1  0
 34 26  1  0
 12  8  1  0
 25 21  1  0
 33 28  1  0
M  END
>  <smiles>  (2536) 
C37627-P278

>  <fragmenstein_outcome>  (2536) 
acceptable

>  <inchikey>  (2536) 
CIYQHLIDBRMVRA-UHFFFAOYSA-N

>  <fragmenstein_mode>  (2536) 
expansion

>  <HIPPO Pose ID>  (2536) 
28466

>  <Energy>  (2536) 
112.375374

>  <fragmenstein_error>  (2536) 


>  <tags>  (2536) 
{'openbind_xx01zvns2b_c1_fragmenstein', 'fragmenstein_placed'}

>  <ref_pdb>  (2536) 
175

>  <scratch_subdir>  (2536) 
/opt/xchem-fragalysis-2/maxwin/BulkDock/SCRATCH/511028/C37627-P278

>  <alias>  (2536) 
O=C(Nc1ccc([C@H]2CCOC2)cc1F)c1cc(Cl)cc2c1cnn2C1CC2(CCOCC2)C1

>  <HIPPO Compound ID>  (2536) 
27497

>  <fragmenstein_runtime>  (2536) 
10.198387

$$$$
CC(C)NC(=O)[C@](O)(Nc1ccc([C@@H]2CCOC2)cc1F)c1cc(Cl)cc2c1c(F)nn2C1CNC1
     RDKit          3D

 36 40  0  0  0  0  0  0  0  0999 V2000
   -3.8045    2.1679  -13.3927 C   0  0  0  0  0  0  0  0  0  0  0  0
   -4.7021    2.7757  -12.3259 C   0  0  0  0  0  0  0  0  0  0  0  0
   -5.2246    1.7299  -11.3510 C   0  0  0  0  0  0  0  0  0  0  0  0
   -5.7999    3.5053  -12.9229 N   0  0  0  0  0  0  0  0  0  0  0  0
   -6.0880    5.0338  -12.9741 C   0  0  0  0  0  0  0  0  0  0  0  0
   -5.5213    5.9310  -12.4745 O   0  0  0  0  0  0  0  0  0  0  0  0
   -7.4500    5.3002  -13.7821 C   0  0  2  0  0  0  0  0  0  0  0  0
   -7.7085    6.7078  -13.7899 O   0  0  0  0  0  0  0  0  0  0  0  0
   -8.5860    4.6338  -13.1194 N   0  0  0  0  0  0  0  0  0  0  0  0
   -8.5756    4.6651  -11.7027 C   0  0  0  0  0  0  0  0  0  0  0  0
   -8.5429    5.8550  -10.9800 C   0  0  0  0  0  0  0  0  0  0  0  0
   -8.4857    5.8354   -9.5841 C   0  0  0  0  0  0  0  0  0  0  0  0
   -8.4843    4.6268   -8.8634 C   0  0  0  0  0  0  0  0  0  0  0  0
   -8.4454    4.7086   -7.3606 C   0  0  2  0  0  0  0  0  0  0  0  0
   -7.0790    5.0778   -6.8130 C   0  0  0  0  0  0  0  0  0  0  0  0
   -7.2389    4.7874   -5.3353 C   0  0  0  0  0  0  0  0  0  0  0  0
   -8.2740    3.8063   -5.1952 O   0  0  0  0  0  0  0  0  0  0  0  0
   -8.7699    3.4884   -6.5105 C   0  0  0  0  0  0  0  0  0  0  0  0
   -8.5309    3.4305   -9.5828 C   0  0  0  0  0  0  0  0  0  0  0  0
   -8.5781    3.4658  -10.9767 C   0  0  0  0  0  0  0  0  0  0  0  0
   -8.5777    2.3152  -11.6615 F   0  0  0  0  0  0  0  0  0  0  0  0
   -7.3870    4.9815  -15.2840 C   0  0  0  0  0  0  0  0  0  0  0  0
   -8.5663    4.5898  -15.9807 C   0  0  0  0  0  0  0  0  0  0  0  0
   -8.6337    4.5181  -17.3720 C   0  0  0  0  0  0  0  0  0  0  0  0
  -10.1163    4.1009  -18.1377 Cl  0  0  0  0  0  0  0  0  0  0  0  0
   -7.5475    4.8734  -18.1626 C   0  0  0  0  0  0  0  0  0  0  0  0
   -6.3814    5.2746  -17.5014 C   0  0  0  0  0  0  0  0  0  0  0  0
   -6.2648    5.2900  -16.1052 C   0  0  0  0  0  0  0  0  0  0  0  0
   -4.9302    5.7173  -15.9031 C   0  0  0  0  0  0  0  0  0  0  0  0
   -4.3336    5.8551  -14.7174 F   0  0  0  0  0  0  0  0  0  0  0  0
   -4.2760    5.9967  -17.0190 N   0  0  0  0  0  0  0  0  0  0  0  0
   -5.1932    5.7963  -17.9731 N   0  0  0  0  0  0  0  0  0  0  0  0
   -5.0242    6.4106  -19.2968 C   0  0  0  0  0  0  0  0  0  0  0  0
   -3.5501    6.7129  -19.6455 C   0  0  0  0  0  0  0  0  0  0  0  0
   -3.8047    6.1905  -20.9995 N   0  0  0  0  0  0  0  0  0  0  0  0
   -4.9415    5.4155  -20.4417 C   0  0  0  0  0  0  0  0  0  0  0  0
  1  2  1  0
  2  3  1  0
  2  4  1  0
  4  5  1  0
  5  6  2  0
  5  7  1  0
  7  8  1  6
  7  9  1  0
  9 10  1  0
 10 11  2  0
 11 12  1  0
 12 13  2  0
 14 13  1  6
 14 15  1  0
 15 16  1  0
 16 17  1  0
 17 18  1  0
 13 19  1  0
 19 20  2  0
 20 21  1  0
  7 22  1  0
 22 23  2  0
 23 24  1  0
 24 25  1  0
 24 26  2  0
 26 27  1  0
 27 28  2  0
 28 29  1  0
 29 30  1  0
 29 31  2  0
 31 32  1  0
 32 33  1  0
 33 34  1  0
 34 35  1  0
 35 36  1  0
 20 10  1  0
 28 22  1  0
 36 33  1  0
 18 14  1  0
 32 27  1  0
M  END
>  <smiles>  (2537) 
C37632-P278

>  <fragmenstein_outcome>  (2537) 
acceptable

>  <inchikey>  (2537) 
AYHRFAIRZJSWGP-UHFFFAOYSA-N

>  <fragmenstein_mode>  (2537) 
expansion

>  <HIPPO Pose ID>  (2537) 
28470

>  <Energy>  (2537) 
141.607248

>  <fragmenstein_error>  (2537) 


>  <tags>  (2537) 
{'openbind_xx01zvns2b_c1_fragmenstein', 'fragmenstein_placed'}

>  <ref_pdb>  (2537) 
175

>  <scratch_subdir>  (2537) 
/opt/xchem-fragalysis-2/maxwin/BulkDock/SCRATCH/511028/C37632-P278

>  <alias>  (2537) 
CC(C)NC(=O)[C@](O)(Nc1ccc([C@@H]2CCOC2)cc1F)c1cc(Cl)cc2c1c(F)nn2C1CNC1

>  <HIPPO Compound ID>  (2537) 
27260

>  <fragmenstein_runtime>  (2537) 
15.334871

$$$$
CC1(C)Cc2c([C@H]3CCOC3)ccc(NC(=O)c3cc(Cl)cc4c3cnn4C3CNC3)c2O1
     RDKit          3D

 33 38  0  0  0  0  0  0  0  0999 V2000
   -9.0266    8.9771  -10.7767 C   0  0  0  0  0  0  0  0  0  0  0  0
   -8.1088    7.7705  -10.5719 C   0  0  0  0  0  0  0  0  0  0  0  0
   -6.6443    8.2240  -10.5979 C   0  0  0  0  0  0  0  0  0  0  0  0
   -8.4601    7.0124   -9.2781 C   0  0  0  0  0  0  0  0  0  0  0  0
   -8.4247    5.6054   -9.7636 C   0  0  0  0  0  0  0  0  0  0  0  0
   -8.5716    4.4155   -9.0481 C   0  0  0  0  0  0  0  0  0  0  0  0
   -8.7892    4.4398   -7.5551 C   0  0  1  0  0  0  0  0  0  0  0  0
   -9.6112    3.3159   -6.9303 C   0  0  0  0  0  0  0  0  0  0  0  0
   -8.7371    2.7569   -5.8364 C   0  0  0  0  0  0  0  0  0  0  0  0
   -7.7705    3.7695   -5.5321 O   0  0  0  0  0  0  0  0  0  0  0  0
   -7.4880    4.4340   -6.7683 C   0  0  0  0  0  0  0  0  0  0  0  0
   -8.5106    3.2239   -9.7880 C   0  0  0  0  0  0  0  0  0  0  0  0
   -8.3566    3.2362  -11.1872 C   0  0  0  0  0  0  0  0  0  0  0  0
   -8.2250    4.4367  -11.8819 C   0  0  0  0  0  0  0  0  0  0  0  0
   -8.0163    4.4032  -13.2587 N   0  0  0  0  0  0  0  0  0  0  0  0
   -7.4469    5.4776  -14.2150 C   0  0  0  0  0  0  0  0  0  0  0  0
   -6.9927    6.5296  -13.9877 O   0  0  0  0  0  0  0  0  0  0  0  0
   -7.4925    5.0522  -15.6256 C   0  0  0  0  0  0  0  0  0  0  0  0
   -8.6898    4.6311  -16.2057 C   0  0  0  0  0  0  0  0  0  0  0  0
   -8.7546    4.4431  -17.5818 C   0  0  0  0  0  0  0  0  0  0  0  0
  -10.2743    4.0777  -18.2846 Cl  0  0  0  0  0  0  0  0  0  0  0  0
   -7.6434    4.6301  -18.4124 C   0  0  0  0  0  0  0  0  0  0  0  0
   -6.4447    5.0298  -17.8047 C   0  0  0  0  0  0  0  0  0  0  0  0
   -6.3537    5.2408  -16.4300 C   0  0  0  0  0  0  0  0  0  0  0  0
   -5.0216    5.6489  -16.2159 C   0  0  0  0  0  0  0  0  0  0  0  0
   -4.3074    5.6802  -17.3395 N   0  0  0  0  0  0  0  0  0  0  0  0
   -5.1948    5.3372  -18.2987 N   0  0  0  0  0  0  0  0  0  0  0  0
   -4.8612    5.3828  -19.7344 C   0  0  0  0  0  0  0  0  0  0  0  0
   -3.3505    5.4619  -20.0406 C   0  0  0  0  0  0  0  0  0  0  0  0
   -3.6410    6.5438  -21.0073 N   0  0  0  0  0  0  0  0  0  0  0  0
   -4.9062    6.8174  -20.2913 C   0  0  0  0  0  0  0  0  0  0  0  0
   -8.2831    5.6082  -11.1477 C   0  0  0  0  0  0  0  0  0  0  0  0
   -8.3087    6.8698  -11.6856 O   0  0  0  0  0  0  0  0  0  0  0  0
  1  2  1  0
  2  3  1  0
  2  4  1  0
  4  5  1  0
  5  6  2  0
  7  6  1  6
  7  8  1  0
  8  9  1  0
  9 10  1  0
 10 11  1  0
  6 12  1  0
 12 13  2  0
 13 14  1  0
 14 15  1  0
 15 16  1  0
 16 17  2  0
 16 18  1  0
 18 19  2  0
 19 20  1  0
 20 21  1  0
 20 22  2  0
 22 23  1  0
 23 24  2  0
 24 25  1  0
 25 26  2  0
 26 27  1  0
 27 28  1  0
 28 29  1  0
 29 30  1  0
 30 31  1  0
 14 32  2  0
 32 33  1  0
 33  2  1  0
 32  5  1  0
 11  7  1  0
 24 18  1  0
 31 28  1  0
 27 23  1  0
M  END
>  <smiles>  (2538) 
C37639-P278

>  <fragmenstein_outcome>  (2538) 
acceptable

>  <inchikey>  (2538) 
VMACUZMWTCLIGN-UHFFFAOYSA-N

>  <fragmenstein_mode>  (2538) 
expansion

>  <HIPPO Pose ID>  (2538) 
28471

>  <Energy>  (2538) 
112.672484

>  <fragmenstein_error>  (2538) 


>  <tags>  (2538) 
{'openbind_xx01zvns2b_c1_fragmenstein', 'fragmenstein_placed'}

>  <ref_pdb>  (2538) 
175

>  <scratch_subdir>  (2538) 
/opt/xchem-fragalysis-2/maxwin/BulkDock/SCRATCH/511028/C37639-P278

>  <alias>  (2538) 
CC1(C)Cc2c([C@H]3CCOC3)ccc(NC(=O)c3cc(Cl)cc4c3cnn4C3CNC3)c2O1

>  <HIPPO Compound ID>  (2538) 
37639

>  <fragmenstein_runtime>  (2538) 
8.087281

$$$$
O=C(Nc1ccc([C@@H]2CCOC2)c(F)c1F)c1cc(Cl)cc2c1cnn2C1CNC1
     RDKit          3D

 30 34  0  0  0  0  0  0  0  0999 V2000
   -7.1364    6.5851  -13.9398 O   0  0  0  0  0  0  0  0  0  0  0  0
   -7.5815    5.5303  -14.1676 C   0  0  0  0  0  0  0  0  0  0  0  0
   -8.1983    4.4769  -13.2192 N   0  0  0  0  0  0  0  0  0  0  0  0
   -8.3062    4.4626  -11.8260 C   0  0  0  0  0  0  0  0  0  0  0  0
   -8.4623    3.2338  -11.1897 C   0  0  0  0  0  0  0  0  0  0  0  0
   -8.4741    3.1472   -9.7913 C   0  0  0  0  0  0  0  0  0  0  0  0
   -8.3633    4.2925   -8.9888 C   0  0  0  0  0  0  0  0  0  0  0  0
   -8.2650    4.1702   -7.4834 C   0  0  2  0  0  0  0  0  0  0  0  0
   -9.0477    3.0275   -6.8501 C   0  0  0  0  0  0  0  0  0  0  0  0
   -9.0809    3.4285   -5.3944 C   0  0  0  0  0  0  0  0  0  0  0  0
   -9.1993    4.8565   -5.3724 O   0  0  0  0  0  0  0  0  0  0  0  0
   -8.7471    5.3566   -6.6442 C   0  0  0  0  0  0  0  0  0  0  0  0
   -8.2474    5.5232   -9.6484 C   0  0  0  0  0  0  0  0  0  0  0  0
   -8.1409    6.6570   -8.9394 F   0  0  0  0  0  0  0  0  0  0  0  0
   -8.2297    5.6122  -11.0420 C   0  0  0  0  0  0  0  0  0  0  0  0
   -8.1985    6.8300  -11.6024 F   0  0  0  0  0  0  0  0  0  0  0  0
   -7.5868    5.0847  -15.5772 C   0  0  0  0  0  0  0  0  0  0  0  0
   -8.7689    4.6577  -16.1828 C   0  0  0  0  0  0  0  0  0  0  0  0
   -8.8060    4.4542  -17.5580 C   0  0  0  0  0  0  0  0  0  0  0  0
  -10.3121    4.0882  -18.2870 Cl  0  0  0  0  0  0  0  0  0  0  0  0
   -7.6781    4.6277  -18.3660 C   0  0  0  0  0  0  0  0  0  0  0  0
   -6.4902    5.0202  -17.7341 C   0  0  0  0  0  0  0  0  0  0  0  0
   -6.4272    5.2480  -16.3593 C   0  0  0  0  0  0  0  0  0  0  0  0
   -5.0929    5.6375  -16.1238 C   0  0  0  0  0  0  0  0  0  0  0  0
   -4.3522    5.6350  -17.2314 N   0  0  0  0  0  0  0  0  0  0  0  0
   -5.2267    5.3050  -18.2068 N   0  0  0  0  0  0  0  0  0  0  0  0
   -4.8648    5.3264  -19.6371 C   0  0  0  0  0  0  0  0  0  0  0  0
   -4.9122    6.7492  -20.2243 C   0  0  0  0  0  0  0  0  0  0  0  0
   -3.6363    6.4667  -20.9184 N   0  0  0  0  0  0  0  0  0  0  0  0
   -3.3493    5.4162  -19.9169 C   0  0  0  0  0  0  0  0  0  0  0  0
  1  2  2  0
  2  3  1  0
  3  4  1  0
  4  5  2  0
  5  6  1  0
  6  7  2  0
  8  7  1  6
  8  9  1  0
  9 10  1  0
 10 11  1  0
 11 12  1  0
  7 13  1  0
 13 14  1  0
 13 15  2  0
 15 16  1  0
  2 17  1  0
 17 18  2  0
 18 19  1  0
 19 20  1  0
 19 21  2  0
 21 22  1  0
 22 23  2  0
 23 24  1  0
 24 25  2  0
 25 26  1  0
 26 27  1  0
 27 28  1  0
 28 29  1  0
 29 30  1  0
 15  4  1  0
 23 17  1  0
 30 27  1  0
 12  8  1  0
 26 22  1  0
M  END
>  <smiles>  (2539) 
C37640-P278

>  <fragmenstein_outcome>  (2539) 
acceptable

>  <inchikey>  (2539) 
ZGKPQEPIGFCUGR-UHFFFAOYSA-N

>  <fragmenstein_mode>  (2539) 
expansion

>  <HIPPO Pose ID>  (2539) 
28472

>  <Energy>  (2539) 
96.82194

>  <fragmenstein_error>  (2539) 


>  <tags>  (2539) 
{'openbind_xx01zvns2b_c1_fragmenstein', 'fragmenstein_placed'}

>  <ref_pdb>  (2539) 
175

>  <scratch_subdir>  (2539) 
/opt/xchem-fragalysis-2/maxwin/BulkDock/SCRATCH/511028/C37640-P278

>  <alias>  (2539) 
O=C(Nc1ccc([C@@H]2CCOC2)c(F)c1F)c1cc(Cl)cc2c1cnn2C1CNC1

>  <HIPPO Compound ID>  (2539) 
37640

>  <fragmenstein_runtime>  (2539) 
14.242056

$$$$
N#Cc1c([C@@H]2CCOC2)ccc(NC(=O)c2cc(Cl)cc3c2cnn3C2CNC2)c1F
     RDKit          3D

 31 35  0  0  0  0  0  0  0  0999 V2000
   -9.5717    1.4621   -7.8216 N   0  0  0  0  0  0  0  0  0  0  0  0
   -9.1398    2.2303   -8.5775 C   0  0  0  0  0  0  0  0  0  0  0  0
   -8.6696    3.3579   -9.3337 C   0  0  0  0  0  0  0  0  0  0  0  0
   -8.2011    4.5038   -8.6449 C   0  0  0  0  0  0  0  0  0  0  0  0
   -8.0106    4.5006   -7.1381 C   0  0  2  0  0  0  0  0  0  0  0  0
   -9.0782    5.2432   -6.3599 C   0  0  0  0  0  0  0  0  0  0  0  0
   -8.4194    5.3894   -5.0045 C   0  0  0  0  0  0  0  0  0  0  0  0
   -7.0150    5.5639   -5.2434 O   0  0  0  0  0  0  0  0  0  0  0  0
   -6.7361    5.1532   -6.5962 C   0  0  0  0  0  0  0  0  0  0  0  0
   -7.9228    5.6551   -9.3951 C   0  0  0  0  0  0  0  0  0  0  0  0
   -7.9965    5.6424  -10.7887 C   0  0  0  0  0  0  0  0  0  0  0  0
   -8.3623    4.4854  -11.4742 C   0  0  0  0  0  0  0  0  0  0  0  0
   -8.3035    4.4738  -12.8743 N   0  0  0  0  0  0  0  0  0  0  0  0
   -7.7758    5.5374  -13.8667 C   0  0  0  0  0  0  0  0  0  0  0  0
   -7.3790    6.6204  -13.6763 O   0  0  0  0  0  0  0  0  0  0  0  0
   -7.6967    5.0778  -15.2765 C   0  0  0  0  0  0  0  0  0  0  0  0
   -8.8034    4.5791  -15.9628 C   0  0  0  0  0  0  0  0  0  0  0  0
   -8.7662    4.4786  -17.3545 C   0  0  0  0  0  0  0  0  0  0  0  0
  -10.1953    4.0319  -18.1965 Cl  0  0  0  0  0  0  0  0  0  0  0  0
   -7.6381    4.8414  -18.1033 C   0  0  0  0  0  0  0  0  0  0  0  0
   -6.5207    5.3038  -17.3958 C   0  0  0  0  0  0  0  0  0  0  0  0
   -6.5294    5.4025  -16.0036 C   0  0  0  0  0  0  0  0  0  0  0  0
   -5.2569    5.9145  -15.6730 C   0  0  0  0  0  0  0  0  0  0  0  0
   -4.5025    6.1485  -16.7418 N   0  0  0  0  0  0  0  0  0  0  0  0
   -5.2948    5.8116  -17.7799 N   0  0  0  0  0  0  0  0  0  0  0  0
   -4.9367    6.2591  -19.1352 C   0  0  0  0  0  0  0  0  0  0  0  0
   -3.4148    6.2060  -19.3841 C   0  0  0  0  0  0  0  0  0  0  0  0
   -3.6690    5.5503  -20.6720 N   0  0  0  0  0  0  0  0  0  0  0  0
   -5.0251    5.1895  -20.2104 C   0  0  0  0  0  0  0  0  0  0  0  0
   -8.7393    3.3607  -10.7367 C   0  0  0  0  0  0  0  0  0  0  0  0
   -9.1992    2.2890  -11.3950 F   0  0  0  0  0  0  0  0  0  0  0  0
  1  2  3  0
  2  3  1  0
  3  4  2  0
  5  4  1  6
  5  6  1  0
  6  7  1  0
  7  8  1  0
  8  9  1  0
  4 10  1  0
 10 11  2  0
 11 12  1  0
 12 13  1  0
 13 14  1  0
 14 15  2  0
 14 16  1  0
 16 17  2  0
 17 18  1  0
 18 19  1  0
 18 20  2  0
 20 21  1  0
 21 22  2  0
 22 23  1  0
 23 24  2  0
 24 25  1  0
 25 26  1  0
 26 27  1  0
 27 28  1  0
 28 29  1  0
 12 30  2  0
 30 31  1  0
 30  3  1  0
  9  5  1  0
 22 16  1  0
 29 26  1  0
 25 21  1  0
M  END
>  <smiles>  (2540) 
C37641-P278

>  <fragmenstein_outcome>  (2540) 
acceptable

>  <inchikey>  (2540) 
MYMYZCHOVGVKSW-UHFFFAOYSA-N

>  <fragmenstein_mode>  (2540) 
expansion

>  <HIPPO Pose ID>  (2540) 
28473

>  <Energy>  (2540) 
98.266959

>  <fragmenstein_error>  (2540) 


>  <tags>  (2540) 
{'openbind_xx01zvns2b_c1_fragmenstein', 'fragmenstein_placed'}

>  <ref_pdb>  (2540) 
175

>  <scratch_subdir>  (2540) 
/opt/xchem-fragalysis-2/maxwin/BulkDock/SCRATCH/511028/C37641-P278

>  <alias>  (2540) 
N#Cc1c([C@@H]2CCOC2)ccc(NC(=O)c2cc(Cl)cc3c2cnn3C2CNC2)c1F

>  <HIPPO Compound ID>  (2540) 
37641

>  <fragmenstein_runtime>  (2540) 
12.46253

$$$$
O=C(Nc1ccc([C@@H]2CO[C@H](C(F)F)C2)cc1F)c1cc(Cl)cc2c1cnn2C1CNC1
     RDKit          3D

 32 36  0  0  0  0  0  0  0  0999 V2000
   -7.3664    6.6534  -13.7623 O   0  0  0  0  0  0  0  0  0  0  0  0
   -7.7398    5.5722  -13.9951 C   0  0  0  0  0  0  0  0  0  0  0  0
   -8.3340    4.4964  -13.0618 N   0  0  0  0  0  0  0  0  0  0  0  0
   -8.5007    4.4899  -11.6726 C   0  0  0  0  0  0  0  0  0  0  0  0
   -8.7482    3.2733  -11.0422 C   0  0  0  0  0  0  0  0  0  0  0  0
   -8.8931    3.2072   -9.6509 C   0  0  0  0  0  0  0  0  0  0  0  0
   -8.7897    4.3588   -8.8509 C   0  0  0  0  0  0  0  0  0  0  0  0
   -8.8471    4.2806   -7.3316 C   0  0  2  0  0  0  0  0  0  0  0  0
   -7.7951    3.3187   -6.8324 C   0  0  0  0  0  0  0  0  0  0  0  0
   -8.4687    2.2181   -6.2009 O   0  0  0  0  0  0  0  0  0  0  0  0
   -9.6543    2.7650   -5.6315 C   0  0  2  0  0  0  0  0  0  0  0  0
  -10.7298    1.7381   -5.3092 C   0  0  0  0  0  0  0  0  0  0  0  0
  -11.1104    1.0733   -6.4255 F   0  0  0  0  0  0  0  0  0  0  0  0
  -11.8431    2.3718   -4.8461 F   0  0  0  0  0  0  0  0  0  0  0  0
  -10.1080    3.6951   -6.7202 C   0  0  0  0  0  0  0  0  0  0  0  0
   -8.5550    5.5810   -9.4922 C   0  0  0  0  0  0  0  0  0  0  0  0
   -8.4252    5.6416  -10.8838 C   0  0  0  0  0  0  0  0  0  0  0  0
   -8.2884    6.8552  -11.4343 F   0  0  0  0  0  0  0  0  0  0  0  0
   -7.6132    5.1171  -15.3970 C   0  0  0  0  0  0  0  0  0  0  0  0
   -8.7110    4.6598  -16.1216 C   0  0  0  0  0  0  0  0  0  0  0  0
   -8.6073    4.5258  -17.5034 C   0  0  0  0  0  0  0  0  0  0  0  0
  -10.0130    4.0778  -18.3833 Cl  0  0  0  0  0  0  0  0  0  0  0  0
   -7.4273    4.8357  -18.2015 C   0  0  0  0  0  0  0  0  0  0  0  0
   -6.3110    5.2431  -17.4500 C   0  0  0  0  0  0  0  0  0  0  0  0
   -6.3916    5.3522  -16.0574 C   0  0  0  0  0  0  0  0  0  0  0  0
   -5.1052    5.7450  -15.6436 C   0  0  0  0  0  0  0  0  0  0  0  0
   -4.2597    5.8660  -16.6597 N   0  0  0  0  0  0  0  0  0  0  0  0
   -5.0303    5.6763  -17.7536 N   0  0  0  0  0  0  0  0  0  0  0  0
   -4.4540    6.1286  -19.0249 C   0  0  0  0  0  0  0  0  0  0  0  0
   -4.6030    5.2437  -20.2455 C   0  0  0  0  0  0  0  0  0  0  0  0
   -4.8372    6.4818  -21.0438 N   0  0  0  0  0  0  0  0  0  0  0  0
   -5.2831    7.1511  -19.8000 C   0  0  0  0  0  0  0  0  0  0  0  0
  1  2  2  0
  2  3  1  0
  3  4  1  0
  4  5  2  0
  5  6  1  0
  6  7  2  0
  8  7  1  6
  8  9  1  0
  9 10  1  0
 10 11  1  0
 11 12  1  6
 12 13  1  0
 12 14  1  0
 11 15  1  0
  7 16  1  0
 16 17  2  0
 17 18  1  0
  2 19  1  0
 19 20  2  0
 20 21  1  0
 21 22  1  0
 21 23  2  0
 23 24  1  0
 24 25  2  0
 25 26  1  0
 26 27  2  0
 27 28  1  0
 28 29  1  0
 29 30  1  0
 30 31  1  0
 31 32  1  0
 17  4  1  0
 25 19  1  0
 32 29  1  0
 15  8  1  0
 28 24  1  0
M  END
>  <smiles>  (2541) 
C37643-P278

>  <fragmenstein_outcome>  (2541) 
acceptable

>  <inchikey>  (2541) 
NUKXHUOVMRSKLP-UHFFFAOYSA-N

>  <fragmenstein_mode>  (2541) 
expansion

>  <HIPPO Pose ID>  (2541) 
28474

>  <Energy>  (2541) 
134.964873

>  <fragmenstein_error>  (2541) 


>  <tags>  (2541) 
{'openbind_xx01zvns2b_c1_fragmenstein', 'fragmenstein_placed'}

>  <ref_pdb>  (2541) 
175

>  <scratch_subdir>  (2541) 
/opt/xchem-fragalysis-2/maxwin/BulkDock/SCRATCH/511028/C37643-P278

>  <alias>  (2541) 
O=C(Nc1ccc([C@@H]2CO[C@H](C(F)F)C2)cc1F)c1cc(Cl)cc2c1cnn2C1CNC1

>  <HIPPO Compound ID>  (2541) 
37643

>  <fragmenstein_runtime>  (2541) 
14.835501

$$$$
NCn1cc2c(C(=O)Nc3ccc([C@H]4CCOC4)cc3F)cc(Cl)cc2c1C1CNC1
     RDKit          3D

 31 35  0  0  0  0  0  0  0  0999 V2000
   -2.1704    5.4881  -16.4879 N   0  0  0  0  0  0  0  0  0  0  0  0
   -3.0868    6.6177  -16.4411 C   0  0  0  0  0  0  0  0  0  0  0  0
   -4.4354    6.0733  -16.5582 N   0  0  0  0  0  0  0  0  0  0  0  0
   -5.2345    5.8341  -15.4660 C   0  0  0  0  0  0  0  0  0  0  0  0
   -6.4443    5.3997  -15.9352 C   0  0  0  0  0  0  0  0  0  0  0  0
   -7.5741    5.1243  -15.1617 C   0  0  0  0  0  0  0  0  0  0  0  0
   -7.6945    5.5376  -13.7487 C   0  0  0  0  0  0  0  0  0  0  0  0
   -7.4417    6.6467  -13.4889 O   0  0  0  0  0  0  0  0  0  0  0  0
   -8.0526    4.3516  -12.8293 N   0  0  0  0  0  0  0  0  0  0  0  0
   -8.2617    4.3041  -11.4447 C   0  0  0  0  0  0  0  0  0  0  0  0
   -8.3980    3.0516  -10.8582 C   0  0  0  0  0  0  0  0  0  0  0  0
   -8.5133    2.9166   -9.4674 C   0  0  0  0  0  0  0  0  0  0  0  0
   -8.5196    4.0324   -8.6190 C   0  0  0  0  0  0  0  0  0  0  0  0
   -8.5782    3.8438   -7.1202 C   0  0  1  0  0  0  0  0  0  0  0  0
   -8.9268    5.0566   -6.2696 C   0  0  0  0  0  0  0  0  0  0  0  0
   -9.3875    4.4112   -4.9857 C   0  0  0  0  0  0  0  0  0  0  0  0
  -10.1792    3.2994   -5.4040 O   0  0  0  0  0  0  0  0  0  0  0  0
   -9.5966    2.8029   -6.6258 C   0  0  0  0  0  0  0  0  0  0  0  0
   -8.3915    5.2876   -9.2129 C   0  0  0  0  0  0  0  0  0  0  0  0
   -8.2774    5.4155  -10.6008 C   0  0  0  0  0  0  0  0  0  0  0  0
   -8.2101    6.6611  -11.0694 F   0  0  0  0  0  0  0  0  0  0  0  0
   -8.6420    4.6519  -15.9466 C   0  0  0  0  0  0  0  0  0  0  0  0
   -8.5620    4.5433  -17.3770 C   0  0  0  0  0  0  0  0  0  0  0  0
   -9.9929    4.0471  -18.2139 Cl  0  0  0  0  0  0  0  0  0  0  0  0
   -7.4325    4.8966  -18.1628 C   0  0  0  0  0  0  0  0  0  0  0  0
   -6.3680    5.3178  -17.3647 C   0  0  0  0  0  0  0  0  0  0  0  0
   -5.1476    5.8526  -17.7304 C   0  0  0  0  0  0  0  0  0  0  0  0
   -4.5956    6.3479  -19.1020 C   0  0  0  0  0  0  0  0  0  0  0  0
   -5.2764    6.0500  -20.4367 C   0  0  0  0  0  0  0  0  0  0  0  0
   -3.9121    6.0098  -21.0381 N   0  0  0  0  0  0  0  0  0  0  0  0
   -3.4213    5.5486  -19.7120 C   0  0  0  0  0  0  0  0  0  0  0  0
  1  2  1  0
  2  3  1  0
  3  4  1  0
  4  5  2  0
  5  6  1  0
  6  7  1  0
  7  8  2  0
  7  9  1  0
  9 10  1  0
 10 11  2  0
 11 12  1  0
 12 13  2  0
 14 13  1  6
 14 15  1  0
 15 16  1  0
 16 17  1  0
 17 18  1  0
 13 19  1  0
 19 20  2  0
 20 21  1  0
  6 22  2  0
 22 23  1  0
 23 24  1  0
 23 25  2  0
 25 26  1  0
 26 27  2  0
 27 28  1  0
 28 29  1  0
 29 30  1  0
 30 31  1  0
 27  3  1  0
 31 28  1  0
 26  5  1  0
 20 10  1  0
 18 14  1  0
M  END
>  <smiles>  (2542) 
C37468-P278

>  <fragmenstein_outcome>  (2542) 
acceptable

>  <inchikey>  (2542) 
HHYPXYWQMSDATR-UHFFFAOYSA-N

>  <fragmenstein_mode>  (2542) 
expansion

>  <HIPPO Pose ID>  (2542) 
28476

>  <Energy>  (2542) 
128.819878

>  <fragmenstein_error>  (2542) 


>  <tags>  (2542) 
{'openbind_xx01zvns2b_c1_fragmenstein', 'fragmenstein_placed'}

>  <ref_pdb>  (2542) 
175

>  <scratch_subdir>  (2542) 
/opt/xchem-fragalysis-2/maxwin/BulkDock/SCRATCH/511028/C37468-P278

>  <alias>  (2542) 
NCn1cc2c(C(=O)Nc3ccc([C@H]4CCOC4)cc3F)cc(Cl)cc2c1C1CNC1

>  <HIPPO Compound ID>  (2542) 
37468

>  <fragmenstein_runtime>  (2542) 
12.561129

$$$$
O=C(Nc1ccc([C@@H]2CCOC2)cc1F)c1cc(Cl)cc2c1CC1(CCNCC1)N2C1CNC1
     RDKit          3D

 34 39  0  0  0  0  0  0  0  0999 V2000
   -7.3624    6.6750  -13.6009 O   0  0  0  0  0  0  0  0  0  0  0  0
   -7.7469    5.5976  -13.8345 C   0  0  0  0  0  0  0  0  0  0  0  0
   -8.2794    4.4981  -12.8900 N   0  0  0  0  0  0  0  0  0  0  0  0
   -8.3591    4.4599  -11.4948 C   0  0  0  0  0  0  0  0  0  0  0  0
   -7.9942    5.5447  -10.7058 C   0  0  0  0  0  0  0  0  0  0  0  0
   -8.0165    5.4381   -9.3066 C   0  0  0  0  0  0  0  0  0  0  0  0
   -8.4126    4.2500   -8.6648 C   0  0  0  0  0  0  0  0  0  0  0  0
   -8.3571    4.1326   -7.1561 C   0  0  2  0  0  0  0  0  0  0  0  0
   -9.1918    3.0363   -6.5105 C   0  0  0  0  0  0  0  0  0  0  0  0
   -9.2694    3.4999   -5.0743 C   0  0  0  0  0  0  0  0  0  0  0  0
   -9.3625    4.9312   -5.1203 O   0  0  0  0  0  0  0  0  0  0  0  0
   -8.8436    5.3642   -6.3881 C   0  0  0  0  0  0  0  0  0  0  0  0
   -8.7818    3.1683   -9.4730 C   0  0  0  0  0  0  0  0  0  0  0  0
   -8.7690    3.2906  -10.8620 C   0  0  0  0  0  0  0  0  0  0  0  0
   -9.1725    2.2565  -11.6045 F   0  0  0  0  0  0  0  0  0  0  0  0
   -7.6770    5.1424  -15.2512 C   0  0  0  0  0  0  0  0  0  0  0  0
   -8.7994    4.6525  -15.9106 C   0  0  0  0  0  0  0  0  0  0  0  0
   -8.7557    4.4644  -17.2971 C   0  0  0  0  0  0  0  0  0  0  0  0
  -10.1933    4.0301  -18.1311 Cl  0  0  0  0  0  0  0  0  0  0  0  0
   -7.5930    4.7105  -18.0321 C   0  0  0  0  0  0  0  0  0  0  0  0
   -6.4604    5.1459  -17.3650 C   0  0  0  0  0  0  0  0  0  0  0  0
   -6.5168    5.3618  -15.9923 C   0  0  0  0  0  0  0  0  0  0  0  0
   -5.2102    5.8790  -15.5046 C   0  0  0  0  0  0  0  0  0  0  0  0
   -4.3291    5.9305  -16.8084 C   0  0  0  0  0  0  0  0  0  0  0  0
   -3.8882    7.3943  -17.0257 C   0  0  0  0  0  0  0  0  0  0  0  0
   -2.9941    7.9075  -15.8901 C   0  0  0  0  0  0  0  0  0  0  0  0
   -2.2349    6.8531  -15.2188 N   0  0  0  0  0  0  0  0  0  0  0  0
   -1.8696    5.7783  -16.1280 C   0  0  0  0  0  0  0  0  0  0  0  0
   -3.1017    5.0098  -16.6111 C   0  0  0  0  0  0  0  0  0  0  0  0
   -5.1962    5.4411  -17.9279 N   0  0  0  0  0  0  0  0  0  0  0  0
   -4.8898    5.3576  -19.3387 C   0  0  0  0  0  0  0  0  0  0  0  0
   -3.4331    5.4554  -19.8350 C   0  0  0  0  0  0  0  0  0  0  0  0
   -3.9087    6.2915  -20.9678 N   0  0  0  0  0  0  0  0  0  0  0  0
   -5.0845    6.6653  -20.1353 C   0  0  0  0  0  0  0  0  0  0  0  0
  1  2  2  0
  2  3  1  0
  3  4  1  0
  4  5  2  0
  5  6  1  0
  6  7  2  0
  8  7  1  6
  8  9  1  0
  9 10  1  0
 10 11  1  0
 11 12  1  0
  7 13  1  0
 13 14  2  0
 14 15  1  0
  2 16  1  0
 16 17  2  0
 17 18  1  0
 18 19  1  0
 18 20  2  0
 20 21  1  0
 21 22  2  0
 22 23  1  0
 23 24  1  0
 24 25  1  0
 25 26  1  0
 26 27  1  0
 27 28  1  0
 28 29  1  0
 24 30  1  0
 30 31  1  0
 31 32  1  0
 32 33  1  0
 33 34  1  0
 14  4  1  0
 22 16  1  0
 29 24  1  0
 34 31  1  0
 12  8  1  0
 30 21  1  0
M  END
>  <smiles>  (2543) 
C37580-P278

>  <fragmenstein_outcome>  (2543) 
acceptable

>  <inchikey>  (2543) 
LFDXQNYRFLHMMW-UHFFFAOYSA-N

>  <fragmenstein_mode>  (2543) 
expansion

>  <HIPPO Pose ID>  (2543) 
28478

>  <Energy>  (2543) 
120.868028

>  <fragmenstein_error>  (2543) 


>  <tags>  (2543) 
{'openbind_xx01zvns2b_c1_fragmenstein', 'fragmenstein_placed'}

>  <ref_pdb>  (2543) 
175

>  <scratch_subdir>  (2543) 
/opt/xchem-fragalysis-2/maxwin/BulkDock/SCRATCH/511028/C37580-P278

>  <alias>  (2543) 
O=C(Nc1ccc([C@@H]2CCOC2)cc1F)c1cc(Cl)cc2c1CC1(CCNCC1)N2C1CNC1

>  <HIPPO Compound ID>  (2543) 
37580

>  <fragmenstein_runtime>  (2543) 
17.757617

$$$$
O=C(Nc1ccc([C@H]2CCOC2)cc1F)c1cc(Cl)cc2c1C[C@]13CNC[C@@H]1O[C@H]1NCC[C@H]1N23
     RDKit          3D

 35 41  0  0  0  0  0  0  0  0999 V2000
   -7.6955    6.9954  -13.9293 O   0  0  0  0  0  0  0  0  0  0  0  0
   -7.7903    5.8502  -14.1275 C   0  0  0  0  0  0  0  0  0  0  0  0
   -7.9529    4.6751  -13.1420 N   0  0  0  0  0  0  0  0  0  0  0  0
   -8.1223    4.6704  -11.7585 C   0  0  0  0  0  0  0  0  0  0  0  0
   -8.1768    5.8387  -11.0067 C   0  0  0  0  0  0  0  0  0  0  0  0
   -8.2342    5.7705   -9.6068 C   0  0  0  0  0  0  0  0  0  0  0  0
   -8.2101    4.5357   -8.9370 C   0  0  0  0  0  0  0  0  0  0  0  0
   -8.0902    4.4150   -7.4240 C   0  0  1  0  0  0  0  0  0  0  0  0
   -6.6644    4.6554   -6.9536 C   0  0  0  0  0  0  0  0  0  0  0  0
   -6.6183    6.1418   -6.6773 C   0  0  0  0  0  0  0  0  0  0  0  0
   -7.9419    6.5359   -6.3005 O   0  0  0  0  0  0  0  0  0  0  0  0
   -8.8381    5.4490   -6.5886 C   0  0  0  0  0  0  0  0  0  0  0  0
   -8.2028    3.3634   -9.7129 C   0  0  0  0  0  0  0  0  0  0  0  0
   -8.1681    3.4411  -11.1036 C   0  0  0  0  0  0  0  0  0  0  0  0
   -8.0860    2.3148  -11.8261 F   0  0  0  0  0  0  0  0  0  0  0  0
   -7.6896    5.3457  -15.5116 C   0  0  0  0  0  0  0  0  0  0  0  0
   -8.8027    4.7912  -16.1299 C   0  0  0  0  0  0  0  0  0  0  0  0
   -8.7288    4.4318  -17.4758 C   0  0  0  0  0  0  0  0  0  0  0  0
  -10.1652    3.9682  -18.2830 Cl  0  0  0  0  0  0  0  0  0  0  0  0
   -7.5268    4.5014  -18.1802 C   0  0  0  0  0  0  0  0  0  0  0  0
   -6.4016    4.9828  -17.5308 C   0  0  0  0  0  0  0  0  0  0  0  0
   -6.5122    5.4688  -16.2321 C   0  0  0  0  0  0  0  0  0  0  0  0
   -5.2598    6.1806  -15.8647 C   0  0  0  0  0  0  0  0  0  0  0  0
   -4.2731    5.6070  -16.9201 C   0  0  2  0  0  0  0  0  0  0  0  0
   -3.3023    4.6491  -16.2219 C   0  0  0  0  0  0  0  0  0  0  0  0
   -2.2794    5.5239  -15.5736 N   0  0  0  0  0  0  0  0  0  0  0  0
   -2.4051    6.8651  -16.2094 C   0  0  0  0  0  0  0  0  0  0  0  0
   -3.2412    6.6040  -17.4535 C   0  0  2  0  0  0  0  0  0  0  0  0
   -3.8538    7.7033  -18.1084 O   0  0  0  0  0  0  0  0  0  0  0  0
   -4.6832    7.2664  -19.2126 C   0  0  1  0  0  0  0  0  0  0  0  0
   -4.0473    7.5888  -20.4987 N   0  0  0  0  0  0  0  0  0  0  0  0
   -3.1861    6.4399  -20.8074 C   0  0  0  0  0  0  0  0  0  0  0  0
   -3.7889    5.2194  -20.1264 C   0  0  0  0  0  0  0  0  0  0  0  0
   -4.9744    5.7419  -19.3246 C   0  0  1  0  0  0  0  0  0  0  0  0
   -5.0806    5.0293  -18.0376 N   0  0  0  0  0  0  0  0  0  0  0  0
  1  2  2  0
  2  3  1  0
  3  4  1  0
  4  5  2  0
  5  6  1  0
  6  7  2  0
  8  7  1  6
  8  9  1  0
  9 10  1  0
 10 11  1  0
 11 12  1  0
  7 13  1  0
 13 14  2  0
 14 15  1  0
  2 16  1  0
 16 17  2  0
 17 18  1  0
 18 19  1  0
 18 20  2  0
 20 21  1  0
 21 22  2  0
 22 23  1  0
 24 23  1  1
 24 25  1  0
 25 26  1  0
 26 27  1  0
 28 27  1  1
 28 29  1  0
 29 30  1  0
 30 31  1  6
 31 32  1  0
 32 33  1  0
 34 33  1  6
 34 35  1  0
 14  4  1  0
 22 16  1  0
 28 24  1  0
 34 30  1  0
 12  8  1  0
 35 21  1  0
 35 24  1  0
M  END
>  <smiles>  (2544) 
C37652-P278

>  <fragmenstein_outcome>  (2544) 
acceptable

>  <inchikey>  (2544) 
AZOHVIVAPASBLC-UHFFFAOYSA-N

>  <fragmenstein_mode>  (2544) 
expansion

>  <HIPPO Pose ID>  (2544) 
28479

>  <Energy>  (2544) 
201.597128

>  <fragmenstein_error>  (2544) 


>  <tags>  (2544) 
{'openbind_xx01zvns2b_c1_fragmenstein', 'fragmenstein_placed'}

>  <ref_pdb>  (2544) 
175

>  <scratch_subdir>  (2544) 
/opt/xchem-fragalysis-2/maxwin/BulkDock/SCRATCH/511028/C37652-P278

>  <alias>  (2544) 
O=C(Nc1ccc([C@H]2CCOC2)cc1F)c1cc(Cl)cc2c1C[C@]13CNC[C@@H]1O[C@H]1NCC[C@H]1N23

>  <HIPPO Compound ID>  (2544) 
18134

>  <fragmenstein_runtime>  (2544) 
11.085545

$$$$
O=C(Nc1ccc(N2CCCCC2)c(F)c1)c1cc(Cl)cc2c3n(cc12)C[C@H]1C[C@]2(CNNC2=O)C[C@@H]31
     RDKit          3D

 37 43  0  0  0  0  0  0  0  0999 V2000
   -7.7488    6.7889  -13.4247 O   0  0  0  0  0  0  0  0  0  0  0  0
   -7.9196    5.6659  -13.6920 C   0  0  0  0  0  0  0  0  0  0  0  0
   -8.2706    4.4663  -12.7904 N   0  0  0  0  0  0  0  0  0  0  0  0
   -8.3879    4.3797  -11.4086 C   0  0  0  0  0  0  0  0  0  0  0  0
   -8.5485    3.1424  -10.8011 C   0  0  0  0  0  0  0  0  0  0  0  0
   -8.6636    3.0533   -9.4052 C   0  0  0  0  0  0  0  0  0  0  0  0
   -8.6347    4.1892   -8.5754 C   0  0  0  0  0  0  0  0  0  0  0  0
   -8.7975    4.0925   -7.1949 N   0  0  0  0  0  0  0  0  0  0  0  0
   -8.2773    5.1469   -6.3204 C   0  0  0  0  0  0  0  0  0  0  0  0
   -8.0331    4.6249   -4.9057 C   0  0  0  0  0  0  0  0  0  0  0  0
   -9.2972    4.0265   -4.2974 C   0  0  0  0  0  0  0  0  0  0  0  0
  -10.1364    3.2655   -5.3220 C   0  0  0  0  0  0  0  0  0  0  0  0
   -9.3392    2.8818   -6.5686 C   0  0  0  0  0  0  0  0  0  0  0  0
   -8.4542    5.4212   -9.2378 C   0  0  0  0  0  0  0  0  0  0  0  0
   -8.4360    6.5751   -8.5473 F   0  0  0  0  0  0  0  0  0  0  0  0
   -8.3316    5.5220  -10.6225 C   0  0  0  0  0  0  0  0  0  0  0  0
   -7.7565    5.2564  -15.0897 C   0  0  0  0  0  0  0  0  0  0  0  0
   -8.8015    4.7408  -15.8798 C   0  0  0  0  0  0  0  0  0  0  0  0
   -8.7015    4.6002  -17.3076 C   0  0  0  0  0  0  0  0  0  0  0  0
  -10.1357    4.1443  -18.1436 Cl  0  0  0  0  0  0  0  0  0  0  0  0
   -7.5666    4.9274  -18.0886 C   0  0  0  0  0  0  0  0  0  0  0  0
   -6.5576    5.4208  -17.2764 C   0  0  0  0  0  0  0  0  0  0  0  0
   -5.3742    5.9833  -17.6589 C   0  0  0  0  0  0  0  0  0  0  0  0
   -4.7133    6.3328  -16.5140 N   0  0  0  0  0  0  0  0  0  0  0  0
   -5.4550    6.1226  -15.4034 C   0  0  0  0  0  0  0  0  0  0  0  0
   -6.6344    5.5689  -15.8521 C   0  0  0  0  0  0  0  0  0  0  0  0
   -3.4490    7.0025  -16.7265 C   0  0  0  0  0  0  0  0  0  0  0  0
   -3.3320    7.0478  -18.2627 C   0  0  1  0  0  0  0  0  0  0  0  0
   -2.1419    6.2510  -18.7960 C   0  0  0  0  0  0  0  0  0  0  0  0
   -2.6778    5.5315  -20.0393 C   0  0  1  0  0  0  0  0  0  0  0  0
   -2.4898    6.3338  -21.3284 C   0  0  0  0  0  0  0  0  0  0  0  0
   -1.1617    5.9165  -21.8193 N   0  0  0  0  0  0  0  0  0  0  0  0
   -1.0292    4.5864  -21.3941 N   0  0  0  0  0  0  0  0  0  0  0  0
   -1.8165    4.3225  -20.2886 C   0  0  0  0  0  0  0  0  0  0  0  0
   -1.7797    3.3054  -19.6208 O   0  0  0  0  0  0  0  0  0  0  0  0
   -4.1171    5.1927  -19.6714 C   0  0  0  0  0  0  0  0  0  0  0  0
   -4.6122    6.3719  -18.8573 C   0  0  1  0  0  0  0  0  0  0  0  0
  1  2  2  0
  2  3  1  0
  3  4  1  0
  4  5  2  0
  5  6  1  0
  6  7  2  0
  7  8  1  0
  8  9  1  0
  9 10  1  0
 10 11  1  0
 11 12  1  0
 12 13  1  0
  7 14  1  0
 14 15  1  0
 14 16  2  0
  2 17  1  0
 17 18  2  0
 18 19  1  0
 19 20  1  0
 19 21  2  0
 21 22  1  0
 22 23  2  0
 23 24  1  0
 24 25  1  0
 25 26  2  0
 24 27  1  0
 28 27  1  1
 28 29  1  0
 30 29  1  1
 30 31  1  0
 31 32  1  0
 32 33  1  0
 33 34  1  0
 34 35  2  0
 30 36  1  0
 37 36  1  1
 16  4  1  0
 26 17  1  0
 37 28  1  0
 13  8  1  0
 26 22  1  0
 34 30  1  0
 37 23  1  0
M  END
>  <smiles>  (2545) 
C37662-P279

>  <fragmenstein_outcome>  (2545) 
acceptable

>  <inchikey>  (2545) 
QPOTWHIPJPHPKL-UHFFFAOYSA-N

>  <fragmenstein_mode>  (2545) 
expansion

>  <HIPPO Pose ID>  (2545) 
28482

>  <Energy>  (2545) 
132.014744

>  <fragmenstein_error>  (2545) 


>  <tags>  (2545) 
{'openbind_xx01zvns2b_c1_fragmenstein', 'fragmenstein_placed'}

>  <ref_pdb>  (2545) 
175

>  <scratch_subdir>  (2545) 
/opt/xchem-fragalysis-2/maxwin/BulkDock/SCRATCH/511028/C37662-P279

>  <alias>  (2545) 
O=C(Nc1ccc(N2CCCCC2)c(F)c1)c1cc(Cl)cc2c3n(cc12)C[C@H]1C[C@]2(CNNC2=O)C[C@@H]31

>  <HIPPO Compound ID>  (2545) 
34859

>  <fragmenstein_runtime>  (2545) 
9.141571

$$$$
O=C(Nc1ccc(N2CCCCC2)c(F)c1)c1cc(Cl)cc2c1c[n+]([O-])n2C1CNC1
     RDKit          3D

 31 35  0  0  0  0  0  0  0  0999 V2000
   -7.0101    6.5786  -13.7386 O   0  0  0  0  0  0  0  0  0  0  0  0
   -7.5249    5.5671  -14.0096 C   0  0  0  0  0  0  0  0  0  0  0  0
   -8.2011    4.5152  -13.1058 N   0  0  0  0  0  0  0  0  0  0  0  0
   -8.2988    4.4434  -11.7219 C   0  0  0  0  0  0  0  0  0  0  0  0
   -8.7359    3.2560  -11.1593 C   0  0  0  0  0  0  0  0  0  0  0  0
   -8.7797    3.1104   -9.7716 C   0  0  0  0  0  0  0  0  0  0  0  0
   -8.3975    4.1361   -8.8875 C   0  0  0  0  0  0  0  0  0  0  0  0
   -8.3604    3.9156   -7.5177 N   0  0  0  0  0  0  0  0  0  0  0  0
   -8.3713    2.5503   -6.9825 C   0  0  0  0  0  0  0  0  0  0  0  0
   -9.7920    2.2312   -6.5585 C   0  0  0  0  0  0  0  0  0  0  0  0
  -10.1815    3.1917   -5.4457 C   0  0  0  0  0  0  0  0  0  0  0  0
   -9.9273    4.6670   -5.7759 C   0  0  0  0  0  0  0  0  0  0  0  0
   -8.6124    4.9476   -6.5174 C   0  0  0  0  0  0  0  0  0  0  0  0
   -8.0050    5.3423   -9.5003 C   0  0  0  0  0  0  0  0  0  0  0  0
   -7.5892    6.3842   -8.7600 F   0  0  0  0  0  0  0  0  0  0  0  0
   -7.9491    5.4992  -10.8918 C   0  0  0  0  0  0  0  0  0  0  0  0
   -7.5842    5.1688  -15.4342 C   0  0  0  0  0  0  0  0  0  0  0  0
   -8.8172    4.8478  -16.0126 C   0  0  0  0  0  0  0  0  0  0  0  0
   -8.9054    4.6312  -17.3818 C   0  0  0  0  0  0  0  0  0  0  0  0
  -10.4477    4.3532  -18.0755 Cl  0  0  0  0  0  0  0  0  0  0  0  0
   -7.7928    4.7308  -18.2185 C   0  0  0  0  0  0  0  0  0  0  0  0
   -6.5614    5.0220  -17.6237 C   0  0  0  0  0  0  0  0  0  0  0  0
   -6.4118    5.2213  -16.2255 C   0  0  0  0  0  0  0  0  0  0  0  0
   -5.0033    5.4103  -15.9037 C   0  0  0  0  0  0  0  0  0  0  0  0
   -4.3261    5.3158  -17.0594 N   0  0  0  0  0  0  0  0  0  0  0  0
   -3.0978    5.1927  -17.2666 O   0  0  0  0  0  0  0  0  0  0  0  0
   -5.2885    5.1909  -18.1385 N   0  0  0  0  0  0  0  0  0  0  0  0
   -5.0154    5.3267  -19.5778 C   0  0  0  0  0  0  0  0  0  0  0  0
   -5.1974    6.7808  -20.0715 C   0  0  0  0  0  0  0  0  0  0  0  0
   -4.0889    6.5280  -21.0332 N   0  0  0  0  0  0  0  0  0  0  0  0
   -3.5552    5.5547  -20.0363 C   0  0  0  0  0  0  0  0  0  0  0  0
  1  2  2  0
  2  3  1  0
  3  4  1  0
  4  5  2  0
  5  6  1  0
  6  7  2  0
  7  8  1  0
  8  9  1  0
  9 10  1  0
 10 11  1  0
 11 12  1  0
 12 13  1  0
  7 14  1  0
 14 15  1  0
 14 16  2  0
  2 17  1  0
 17 18  2  0
 18 19  1  0
 19 20  1  0
 19 21  2  0
 21 22  1  0
 22 23  2  0
 23 24  1  0
 24 25  2  0
 25 26  1  0
 25 27  1  0
 27 28  1  0
 28 29  1  0
 29 30  1  0
 30 31  1  0
 16  4  1  0
 23 17  1  0
 31 28  1  0
 13  8  1  0
 27 22  1  0
M  CHG  2  25   1  26  -1
M  END
>  <smiles>  (2546) 
C37666-P279

>  <fragmenstein_outcome>  (2546) 
acceptable

>  <inchikey>  (2546) 
GZBHIILNROBLBK-UHFFFAOYSA-N

>  <fragmenstein_mode>  (2546) 
expansion

>  <HIPPO Pose ID>  (2546) 
28483

>  <Energy>  (2546) 
83.201887

>  <fragmenstein_error>  (2546) 


>  <tags>  (2546) 
{'openbind_xx01zvns2b_c1_fragmenstein', 'fragmenstein_placed'}

>  <ref_pdb>  (2546) 
175

>  <scratch_subdir>  (2546) 
/opt/xchem-fragalysis-2/maxwin/BulkDock/SCRATCH/511028/C37666-P279

>  <alias>  (2546) 
O=C(Nc1ccc(N2CCCCC2)c(F)c1)c1cc(Cl)cc2c1c[n+]([O-])n2C1CNC1

>  <HIPPO Compound ID>  (2546) 
37666

>  <fragmenstein_runtime>  (2546) 
10.780924

$$$$
C[C@@H](CN)n1cc2c(C(=O)Nc3ccc(N4CCCCC4)c(F)c3)cc(Cl)cc2c1C1CNC1
     RDKit          3D

 34 38  0  0  0  0  0  0  0  0999 V2000
   -2.8354    7.7215  -17.0592 C   0  0  0  0  0  0  0  0  0  0  0  0
   -3.0146    6.2123  -16.8774 C   0  0  1  0  0  0  0  0  0  0  0  0
   -2.2914    5.7033  -15.5988 C   0  0  0  0  0  0  0  0  0  0  0  0
   -0.8349    5.8930  -15.6069 N   0  0  0  0  0  0  0  0  0  0  0  0
   -4.4395    5.8606  -16.9263 N   0  0  0  0  0  0  0  0  0  0  0  0
   -5.2444    5.8807  -15.8010 C   0  0  0  0  0  0  0  0  0  0  0  0
   -6.4816    5.4273  -16.1609 C   0  0  0  0  0  0  0  0  0  0  0  0
   -7.5936    5.2694  -15.3381 C   0  0  0  0  0  0  0  0  0  0  0  0
   -7.6679    5.7357  -13.9553 C   0  0  0  0  0  0  0  0  0  0  0  0
   -7.4639    6.8649  -13.7417 O   0  0  0  0  0  0  0  0  0  0  0  0
   -8.0852    4.5967  -13.0016 N   0  0  0  0  0  0  0  0  0  0  0  0
   -8.2410    4.5873  -11.6228 C   0  0  0  0  0  0  0  0  0  0  0  0
   -8.5226    3.3956  -10.9630 C   0  0  0  0  0  0  0  0  0  0  0  0
   -8.6913    3.3884   -9.5711 C   0  0  0  0  0  0  0  0  0  0  0  0
   -8.6046    4.5692   -8.8154 C   0  0  0  0  0  0  0  0  0  0  0  0
   -8.8209    4.6121   -7.4296 N   0  0  0  0  0  0  0  0  0  0  0  0
   -7.6439    5.0713   -6.6704 C   0  0  0  0  0  0  0  0  0  0  0  0
   -7.8856    4.9276   -5.1709 C   0  0  0  0  0  0  0  0  0  0  0  0
   -8.1754    3.4788   -4.7845 C   0  0  0  0  0  0  0  0  0  0  0  0
   -8.8466    2.6868   -5.9084 C   0  0  0  0  0  0  0  0  0  0  0  0
   -9.6637    3.5917   -6.8007 C   0  0  0  0  0  0  0  0  0  0  0  0
   -8.3038    5.7493   -9.5207 C   0  0  0  0  0  0  0  0  0  0  0  0
   -8.2273    6.9251   -8.8736 F   0  0  0  0  0  0  0  0  0  0  0  0
   -8.1188    5.7648  -10.8971 C   0  0  0  0  0  0  0  0  0  0  0  0
   -8.7205    4.8104  -16.0403 C   0  0  0  0  0  0  0  0  0  0  0  0
   -8.6986    4.5796  -17.4507 C   0  0  0  0  0  0  0  0  0  0  0  0
  -10.2053    4.2022  -18.1875 Cl  0  0  0  0  0  0  0  0  0  0  0  0
   -7.5675    4.7430  -18.2869 C   0  0  0  0  0  0  0  0  0  0  0  0
   -6.4602    5.1777  -17.5582 C   0  0  0  0  0  0  0  0  0  0  0  0
   -5.2089    5.5233  -18.0390 C   0  0  0  0  0  0  0  0  0  0  0  0
   -4.8762    5.5517  -19.5761 C   0  0  0  0  0  0  0  0  0  0  0  0
   -5.1341    6.9178  -20.2594 C   0  0  0  0  0  0  0  0  0  0  0  0
   -4.0305    6.5953  -21.2068 N   0  0  0  0  0  0  0  0  0  0  0  0
   -3.4498    5.7517  -20.1266 C   0  0  0  0  0  0  0  0  0  0  0  0
  2  1  1  1
  2  3  1  0
  3  4  1  0
  2  5  1  0
  5  6  1  0
  6  7  2  0
  7  8  1  0
  8  9  1  0
  9 10  2  0
  9 11  1  0
 11 12  1  0
 12 13  2  0
 13 14  1  0
 14 15  2  0
 15 16  1  0
 16 17  1  0
 17 18  1  0
 18 19  1  0
 19 20  1  0
 20 21  1  0
 15 22  1  0
 22 23  1  0
 22 24  2  0
  8 25  2  0
 25 26  1  0
 26 27  1  0
 26 28  2  0
 28 29  1  0
 29 30  2  0
 30 31  1  0
 31 32  1  0
 32 33  1  0
 33 34  1  0
 30  5  1  0
 34 31  1  0
 29  7  1  0
 24 12  1  0
 21 16  1  0
M  END
>  <smiles>  (2547) 
C37675-P279

>  <fragmenstein_outcome>  (2547) 
acceptable

>  <inchikey>  (2547) 
KERKRUPGXVPAQM-UHFFFAOYSA-N

>  <fragmenstein_mode>  (2547) 
expansion

>  <HIPPO Pose ID>  (2547) 
28485

>  <Energy>  (2547) 
131.632633

>  <fragmenstein_error>  (2547) 


>  <tags>  (2547) 
{'openbind_xx01zvns2b_c1_fragmenstein', 'fragmenstein_placed'}

>  <ref_pdb>  (2547) 
175

>  <scratch_subdir>  (2547) 
/opt/xchem-fragalysis-2/maxwin/BulkDock/SCRATCH/511028/C37675-P279

>  <alias>  (2547) 
C[C@@H](CN)n1cc2c(C(=O)Nc3ccc(N4CCCCC4)c(F)c3)cc(Cl)cc2c1C1CNC1

>  <HIPPO Compound ID>  (2547) 
24931

>  <fragmenstein_runtime>  (2547) 
11.569179

$$$$
COCc1cc2c(C(=O)Nc3ccc(N4CCCCC4)c(F)c3)cc(Cl)cc2n1C1CNC1
     RDKit          3D

 33 37  0  0  0  0  0  0  0  0999 V2000
   -1.3949    7.7368  -17.8915 C   0  0  0  0  0  0  0  0  0  0  0  0
   -2.7495    7.3153  -17.8160 O   0  0  0  0  0  0  0  0  0  0  0  0
   -2.8623    6.0275  -17.2305 C   0  0  0  0  0  0  0  0  0  0  0  0
   -4.3099    5.6941  -17.2012 C   0  0  0  0  0  0  0  0  0  0  0  0
   -5.1093    5.6996  -16.0719 C   0  0  0  0  0  0  0  0  0  0  0  0
   -6.4063    5.2647  -16.4255 C   0  0  0  0  0  0  0  0  0  0  0  0
   -7.6062    5.0727  -15.7147 C   0  0  0  0  0  0  0  0  0  0  0  0
   -7.6968    5.5375  -14.3239 C   0  0  0  0  0  0  0  0  0  0  0  0
   -7.4781    6.6579  -14.0901 O   0  0  0  0  0  0  0  0  0  0  0  0
   -8.1331    4.3923  -13.3958 N   0  0  0  0  0  0  0  0  0  0  0  0
   -8.2949    4.3606  -12.0239 C   0  0  0  0  0  0  0  0  0  0  0  0
   -8.5445    3.1380  -11.4131 C   0  0  0  0  0  0  0  0  0  0  0  0
   -8.6577    3.0570  -10.0293 C   0  0  0  0  0  0  0  0  0  0  0  0
   -8.5387    4.2019   -9.2397 C   0  0  0  0  0  0  0  0  0  0  0  0
   -8.5299    4.1444   -7.8419 N   0  0  0  0  0  0  0  0  0  0  0  0
   -9.4139    3.1831   -7.1698 C   0  0  0  0  0  0  0  0  0  0  0  0
   -8.6528    2.3226   -6.1828 C   0  0  0  0  0  0  0  0  0  0  0  0
   -7.8530    3.1789   -5.1934 C   0  0  0  0  0  0  0  0  0  0  0  0
   -7.1700    4.3735   -5.8458 C   0  0  0  0  0  0  0  0  0  0  0  0
   -7.1456    4.2314   -7.3587 C   0  0  0  0  0  0  0  0  0  0  0  0
   -8.3098    5.4299   -9.8873 C   0  0  0  0  0  0  0  0  0  0  0  0
   -8.1806    6.5580   -9.1672 F   0  0  0  0  0  0  0  0  0  0  0  0
   -8.1817    5.5162  -11.2637 C   0  0  0  0  0  0  0  0  0  0  0  0
   -8.7466    4.5749  -16.3438 C   0  0  0  0  0  0  0  0  0  0  0  0
   -8.7131    4.3379  -17.7052 C   0  0  0  0  0  0  0  0  0  0  0  0
  -10.1665    3.8867  -18.4982 Cl  0  0  0  0  0  0  0  0  0  0  0  0
   -7.5487    4.5416  -18.4525 C   0  0  0  0  0  0  0  0  0  0  0  0
   -6.3904    5.0046  -17.7948 C   0  0  0  0  0  0  0  0  0  0  0  0
   -5.1218    5.3383  -18.2632 N   0  0  0  0  0  0  0  0  0  0  0  0
   -4.8639    5.3755  -19.7252 C   0  0  0  0  0  0  0  0  0  0  0  0
   -4.8707    6.8022  -20.3042 C   0  0  0  0  0  0  0  0  0  0  0  0
   -3.8626    6.3426  -21.3003 N   0  0  0  0  0  0  0  0  0  0  0  0
   -3.4479    5.3045  -20.3097 C   0  0  0  0  0  0  0  0  0  0  0  0
  1  2  1  0
  2  3  1  0
  3  4  1  0
  4  5  2  0
  5  6  1  0
  6  7  2  0
  7  8  1  0
  8  9  2  0
  8 10  1  0
 10 11  1  0
 11 12  2  0
 12 13  1  0
 13 14  2  0
 14 15  1  0
 15 16  1  0
 16 17  1  0
 17 18  1  0
 18 19  1  0
 19 20  1  0
 14 21  1  0
 21 22  1  0
 21 23  2  0
  7 24  1  0
 24 25  2  0
 25 26  1  0
 25 27  1  0
 27 28  2  0
 28 29  1  0
 29 30  1  0
 30 31  1  0
 31 32  1  0
 32 33  1  0
 29  4  1  0
 33 30  1  0
 28  6  1  0
 23 11  1  0
 20 15  1  0
M  END
>  <smiles>  (2548) 
C37707-P73

>  <fragmenstein_outcome>  (2548) 
acceptable

>  <inchikey>  (2548) 
XOXHVKFKXBVCDY-UHFFFAOYSA-N

>  <fragmenstein_mode>  (2548) 
expansion

>  <HIPPO Pose ID>  (2548) 
28495

>  <Energy>  (2548) 
97.52502

>  <fragmenstein_error>  (2548) 


>  <tags>  (2548) 
{'openbind_xx01zvns2b_c1_fragmenstein', 'fragmenstein_placed'}

>  <ref_pdb>  (2548) 
175

>  <scratch_subdir>  (2548) 
/opt/xchem-fragalysis-2/maxwin/BulkDock/SCRATCH/511028/C37707-P73

>  <alias>  (2548) 
COCc1cc2c(C(=O)Nc3ccc(N4CCCCC4)c(F)c3)cc(Cl)cc2n1C1CNC1

>  <HIPPO Compound ID>  (2548) 
37707

>  <fragmenstein_runtime>  (2548) 
10.493988

$$$$
CCOC(=O)c1nn(C2CNC2)c2c(C#N)c(Cl)cc(C(=O)Nc3ccc(N4CCCCC4)c(F)c3)c12
     RDKit          3D

 37 41  0  0  0  0  0  0  0  0999 V2000
   -1.5709    7.0887  -12.9149 C   0  0  0  0  0  0  0  0  0  0  0  0
   -2.8391    6.2617  -12.8328 C   0  0  0  0  0  0  0  0  0  0  0  0
   -3.4317    6.2236  -14.1347 O   0  0  0  0  0  0  0  0  0  0  0  0
   -4.5954    5.5081  -14.1953 C   0  0  0  0  0  0  0  0  0  0  0  0
   -5.0954    4.9292  -13.2388 O   0  0  0  0  0  0  0  0  0  0  0  0
   -5.1745    5.4676  -15.5454 C   0  0  0  0  0  0  0  0  0  0  0  0
   -4.4135    5.6026  -16.6409 N   0  0  0  0  0  0  0  0  0  0  0  0
   -5.2570    5.4885  -17.6842 N   0  0  0  0  0  0  0  0  0  0  0  0
   -4.9330    6.2523  -18.9136 C   0  0  0  0  0  0  0  0  0  0  0  0
   -4.8441    5.4671  -20.2104 C   0  0  0  0  0  0  0  0  0  0  0  0
   -3.5893    6.1805  -20.5479 N   0  0  0  0  0  0  0  0  0  0  0  0
   -3.4082    6.4487  -19.1089 C   0  0  0  0  0  0  0  0  0  0  0  0
   -6.5295    5.0910  -17.3051 C   0  0  0  0  0  0  0  0  0  0  0  0
   -7.6926    4.6758  -17.9919 C   0  0  0  0  0  0  0  0  0  0  0  0
   -7.5978    4.2103  -19.3340 C   0  0  0  0  0  0  0  0  0  0  0  0
   -7.4278    3.7078  -20.3685 N   0  0  0  0  0  0  0  0  0  0  0  0
   -8.8866    4.5523  -17.2689 C   0  0  0  0  0  0  0  0  0  0  0  0
  -10.3852    4.2562  -18.0580 Cl  0  0  0  0  0  0  0  0  0  0  0  0
   -8.9246    4.7688  -15.8995 C   0  0  0  0  0  0  0  0  0  0  0  0
   -7.7559    5.0979  -15.2180 C   0  0  0  0  0  0  0  0  0  0  0  0
   -7.8758    5.5919  -13.8398 C   0  0  0  0  0  0  0  0  0  0  0  0
   -7.7114    6.7357  -13.6712 O   0  0  0  0  0  0  0  0  0  0  0  0
   -8.2288    4.4733  -12.8370 N   0  0  0  0  0  0  0  0  0  0  0  0
   -8.3558    4.5082  -11.4527 C   0  0  0  0  0  0  0  0  0  0  0  0
   -8.5288    3.3272  -10.7392 C   0  0  0  0  0  0  0  0  0  0  0  0
   -8.5625    3.3543   -9.3352 C   0  0  0  0  0  0  0  0  0  0  0  0
   -8.4510    4.5549   -8.6070 C   0  0  0  0  0  0  0  0  0  0  0  0
   -8.4044    4.5221   -7.2041 N   0  0  0  0  0  0  0  0  0  0  0  0
   -7.8939    5.7008   -6.4923 C   0  0  0  0  0  0  0  0  0  0  0  0
   -7.4511    5.3164   -5.0792 C   0  0  0  0  0  0  0  0  0  0  0  0
   -8.5575    4.5924   -4.3215 C   0  0  0  0  0  0  0  0  0  0  0  0
   -9.0485    3.3976   -5.1298 C   0  0  0  0  0  0  0  0  0  0  0  0
   -9.4993    3.8170   -6.5234 C   0  0  0  0  0  0  0  0  0  0  0  0
   -8.3157    5.7279   -9.3735 C   0  0  0  0  0  0  0  0  0  0  0  0
   -8.2485    6.9343   -8.7841 F   0  0  0  0  0  0  0  0  0  0  0  0
   -8.2596    5.7108  -10.7658 C   0  0  0  0  0  0  0  0  0  0  0  0
   -6.5315    5.2248  -15.9078 C   0  0  0  0  0  0  0  0  0  0  0  0
  1  2  1  0
  2  3  1  0
  3  4  1  0
  4  5  2  0
  4  6  1  0
  6  7  2  0
  7  8  1  0
  8  9  1  0
  9 10  1  0
 10 11  1  0
 11 12  1  0
  8 13  1  0
 13 14  2  0
 14 15  1  0
 15 16  3  0
 14 17  1  0
 17 18  1  0
 17 19  2  0
 19 20  1  0
 20 21  1  0
 21 22  2  0
 21 23  1  0
 23 24  1  0
 24 25  2  0
 25 26  1  0
 26 27  2  0
 27 28  1  0
 28 29  1  0
 29 30  1  0
 30 31  1  0
 31 32  1  0
 32 33  1  0
 27 34  1  0
 34 35  1  0
 34 36  2  0
 20 37  2  0
 37  6  1  0
 12  9  1  0
 37 13  1  0
 36 24  1  0
 33 28  1  0
M  END
>  <smiles>  (2549) 
C37724-P279

>  <fragmenstein_outcome>  (2549) 
acceptable

>  <inchikey>  (2549) 
DGKKWSIBKOPHSR-UHFFFAOYSA-N

>  <fragmenstein_mode>  (2549) 
expansion

>  <HIPPO Pose ID>  (2549) 
28497

>  <Energy>  (2549) 
116.625446

>  <fragmenstein_error>  (2549) 


>  <tags>  (2549) 
{'openbind_xx01zvns2b_c1_fragmenstein', 'fragmenstein_placed'}

>  <ref_pdb>  (2549) 
175

>  <scratch_subdir>  (2549) 
/opt/xchem-fragalysis-2/maxwin/BulkDock/SCRATCH/511028/C37724-P279

>  <alias>  (2549) 
CCOC(=O)c1nn(C2CNC2)c2c(C#N)c(Cl)cc(C(=O)Nc3ccc(N4CCCCC4)c(F)c3)c12

>  <HIPPO Compound ID>  (2549) 
37724

>  <fragmenstein_runtime>  (2549) 
11.938913

$$$$
O=C(C(=O)c1cc(Cl)cc2c1cnn2C1CNC1)c1ccc(N2CCCCC2)c(F)c1
     RDKit          3D

 31 35  0  0  0  0  0  0  0  0999 V2000
   -7.3095    2.6301  -13.4530 O   0  0  0  0  0  0  0  0  0  0  0  0
   -7.4933    3.7425  -12.9695 C   0  0  0  0  0  0  0  0  0  0  0  0
   -7.3089    4.9396  -13.8747 C   0  0  0  0  0  0  0  0  0  0  0  0
   -6.9212    6.0197  -13.4457 O   0  0  0  0  0  0  0  0  0  0  0  0
   -7.5084    4.7955  -15.3180 C   0  0  0  0  0  0  0  0  0  0  0  0
   -8.7716    4.5365  -15.8585 C   0  0  0  0  0  0  0  0  0  0  0  0
   -8.9338    4.5257  -17.2416 C   0  0  0  0  0  0  0  0  0  0  0  0
  -10.5006    4.3443  -17.9203 Cl  0  0  0  0  0  0  0  0  0  0  0  0
   -7.8644    4.7484  -18.1134 C   0  0  0  0  0  0  0  0  0  0  0  0
   -6.6116    5.0111  -17.5465 C   0  0  0  0  0  0  0  0  0  0  0  0
   -6.4150    5.0388  -16.1691 C   0  0  0  0  0  0  0  0  0  0  0  0
   -5.0435    5.3313  -16.0112 C   0  0  0  0  0  0  0  0  0  0  0  0
   -4.4091    5.4757  -17.1769 N   0  0  0  0  0  0  0  0  0  0  0  0
   -5.3815    5.2915  -18.0951 N   0  0  0  0  0  0  0  0  0  0  0  0
   -5.1530    5.3996  -19.5435 C   0  0  0  0  0  0  0  0  0  0  0  0
   -5.1789    6.8551  -20.0471 C   0  0  0  0  0  0  0  0  0  0  0  0
   -4.0648    6.4948  -20.9745 N   0  0  0  0  0  0  0  0  0  0  0  0
   -3.6748    5.4610  -19.9721 C   0  0  0  0  0  0  0  0  0  0  0  0
   -7.8041    3.9107  -11.5268 C   0  0  0  0  0  0  0  0  0  0  0  0
   -8.0474    5.1279  -10.8902 C   0  0  0  0  0  0  0  0  0  0  0  0
   -8.2240    5.1801   -9.4917 C   0  0  0  0  0  0  0  0  0  0  0  0
   -8.2053    4.0296   -8.6769 C   0  0  0  0  0  0  0  0  0  0  0  0
   -8.3331    4.1188   -7.2850 N   0  0  0  0  0  0  0  0  0  0  0  0
   -8.3905    2.9036   -6.4528 C   0  0  0  0  0  0  0  0  0  0  0  0
   -9.8553    2.5911   -6.1961 C   0  0  0  0  0  0  0  0  0  0  0  0
  -10.5210    3.7537   -5.4532 C   0  0  0  0  0  0  0  0  0  0  0  0
   -9.6344    4.9998   -5.3489 C   0  0  0  0  0  0  0  0  0  0  0  0
   -8.9080    5.3171   -6.6619 C   0  0  0  0  0  0  0  0  0  0  0  0
   -7.9945    2.8234   -9.3780 C   0  0  0  0  0  0  0  0  0  0  0  0
   -7.9386    1.6404   -8.7588 F   0  0  0  0  0  0  0  0  0  0  0  0
   -7.7988    2.7619  -10.7552 C   0  0  0  0  0  0  0  0  0  0  0  0
  1  2  2  0
  2  3  1  0
  3  4  2  0
  3  5  1  0
  5  6  2  0
  6  7  1  0
  7  8  1  0
  7  9  2  0
  9 10  1  0
 10 11  2  0
 11 12  1  0
 12 13  2  0
 13 14  1  0
 14 15  1  0
 15 16  1  0
 16 17  1  0
 17 18  1  0
  2 19  1  0
 19 20  2  0
 20 21  1  0
 21 22  2  0
 22 23  1  0
 23 24  1  0
 24 25  1  0
 25 26  1  0
 26 27  1  0
 27 28  1  0
 22 29  1  0
 29 30  1  0
 29 31  2  0
 11  5  1  0
 18 15  1  0
 31 19  1  0
 14 10  1  0
 28 23  1  0
M  END
>  <smiles>  (2550) 
C37727-P279

>  <fragmenstein_outcome>  (2550) 
acceptable

>  <inchikey>  (2550) 
OULMMIWLKUJUSQ-UHFFFAOYSA-N

>  <fragmenstein_mode>  (2550) 
expansion

>  <HIPPO Pose ID>  (2550) 
28500

>  <Energy>  (2550) 
130.41639

>  <fragmenstein_error>  (2550) 


>  <tags>  (2550) 
{'openbind_xx01zvns2b_c1_fragmenstein', 'fragmenstein_placed'}

>  <ref_pdb>  (2550) 
175

>  <scratch_subdir>  (2550) 
/opt/xchem-fragalysis-2/maxwin/BulkDock/SCRATCH/511028/C37727-P279

>  <alias>  (2550) 
O=C(C(=O)c1cc(Cl)cc2c1cnn2C1CNC1)c1ccc(N2CCCCC2)c(F)c1

>  <HIPPO Compound ID>  (2550) 
37727

>  <fragmenstein_runtime>  (2550) 
4.451113

$$$$
NCc1cc(NC(=O)c2cc(Cl)cc3c2cnn3[C@H]2CN[C@]2(C=O)Cc2ccccc2)cc(F)c1N1CCCCC1
     RDKit          3D

 41 46  0  0  0  0  0  0  0  0999 V2000
   -8.5171    1.9068   -7.5412 N   0  0  0  0  0  0  0  0  0  0  0  0
   -9.3561    2.4139   -8.6123 C   0  0  0  0  0  0  0  0  0  0  0  0
   -8.7755    3.6020   -9.3472 C   0  0  0  0  0  0  0  0  0  0  0  0
   -8.7154    3.5517  -10.7623 C   0  0  0  0  0  0  0  0  0  0  0  0
   -8.3008    4.6600  -11.4995 C   0  0  0  0  0  0  0  0  0  0  0  0
   -8.1276    4.5744  -12.8804 N   0  0  0  0  0  0  0  0  0  0  0  0
   -7.5464    5.5959  -13.8846 C   0  0  0  0  0  0  0  0  0  0  0  0
   -7.0511    6.6382  -13.7032 O   0  0  0  0  0  0  0  0  0  0  0  0
   -7.5770    5.1214  -15.2826 C   0  0  0  0  0  0  0  0  0  0  0  0
   -8.7787    4.7845  -15.9088 C   0  0  0  0  0  0  0  0  0  0  0  0
   -8.8029    4.5944  -17.2898 C   0  0  0  0  0  0  0  0  0  0  0  0
  -10.3113    4.3073  -18.0572 Cl  0  0  0  0  0  0  0  0  0  0  0  0
   -7.6573    4.7360  -18.0839 C   0  0  0  0  0  0  0  0  0  0  0  0
   -6.4573    5.0411  -17.4270 C   0  0  0  0  0  0  0  0  0  0  0  0
   -6.3935    5.2013  -16.0441 C   0  0  0  0  0  0  0  0  0  0  0  0
   -5.0261    5.4319  -15.7763 C   0  0  0  0  0  0  0  0  0  0  0  0
   -4.2704    5.3594  -16.8740 N   0  0  0  0  0  0  0  0  0  0  0  0
   -5.1766    5.2966  -17.8688 N   0  0  0  0  0  0  0  0  0  0  0  0
   -4.7944    5.4032  -19.2826 C   0  0  1  0  0  0  0  0  0  0  0  0
   -5.2575    6.7165  -19.9378 C   0  0  0  0  0  0  0  0  0  0  0  0
   -3.9989    6.7110  -20.7295 N   0  0  0  0  0  0  0  0  0  0  0  0
   -3.3553    5.9639  -19.5645 C   0  0  1  0  0  0  0  0  0  0  0  0
   -2.7032    6.9709  -18.4986 C   0  0  0  0  0  0  0  0  0  0  0  0
   -3.0811    8.0949  -18.1687 O   0  0  0  0  0  0  0  0  0  0  0  0
   -2.3669    4.8856  -20.0278 C   0  0  0  0  0  0  0  0  0  0  0  0
   -1.0803    5.4534  -20.5835 C   0  0  0  0  0  0  0  0  0  0  0  0
   -1.0331    6.0398  -21.8565 C   0  0  0  0  0  0  0  0  0  0  0  0
    0.1622    6.5594  -22.3574 C   0  0  0  0  0  0  0  0  0  0  0  0
    1.3255    6.4965  -21.5949 C   0  0  0  0  0  0  0  0  0  0  0  0
    1.2940    5.9157  -20.3301 C   0  0  0  0  0  0  0  0  0  0  0  0
    0.0994    5.3972  -19.8275 C   0  0  0  0  0  0  0  0  0  0  0  0
   -8.0166    5.8502  -10.8389 C   0  0  0  0  0  0  0  0  0  0  0  0
   -8.0634    5.9065   -9.4510 C   0  0  0  0  0  0  0  0  0  0  0  0
   -7.7435    7.0698   -8.8587 F   0  0  0  0  0  0  0  0  0  0  0  0
   -8.3779    4.7820   -8.6693 C   0  0  0  0  0  0  0  0  0  0  0  0
   -8.1997    4.7663   -7.2605 N   0  0  0  0  0  0  0  0  0  0  0  0
   -6.7736    4.9794   -6.9112 C   0  0  0  0  0  0  0  0  0  0  0  0
   -6.5856    5.1243   -5.3946 C   0  0  0  0  0  0  0  0  0  0  0  0
   -7.7519    4.5521   -4.6001 C   0  0  0  0  0  0  0  0  0  0  0  0
   -9.0826    5.1764   -5.0311 C   0  0  0  0  0  0  0  0  0  0  0  0
   -9.0928    5.6344   -6.4957 C   0  0  0  0  0  0  0  0  0  0  0  0
  1  2  1  0
  2  3  1  0
  3  4  2  0
  4  5  1  0
  5  6  1  0
  6  7  1  0
  7  8  2  0
  7  9  1  0
  9 10  2  0
 10 11  1  0
 11 12  1  0
 11 13  2  0
 13 14  1  0
 14 15  2  0
 15 16  1  0
 16 17  2  0
 17 18  1  0
 19 18  1  1
 19 20  1  0
 20 21  1  0
 21 22  1  0
 22 23  1  0
 23 24  2  0
 22 25  1  6
 25 26  1  0
 26 27  2  0
 27 28  1  0
 28 29  2  0
 29 30  1  0
 30 31  2  0
  5 32  2  0
 32 33  1  0
 33 34  1  0
 33 35  2  0
 35 36  1  0
 36 37  1  0
 37 38  1  0
 38 39  1  0
 39 40  1  0
 40 41  1  0
 35  3  1  0
 41 36  1  0
 15  9  1  0
 22 19  1  0
 31 26  1  0
 18 14  1  0
M  END
>  <smiles>  (2551) 
C37745-P279

>  <fragmenstein_outcome>  (2551) 
acceptable

>  <inchikey>  (2551) 
JCKDPTFRKGFNRH-UHFFFAOYSA-N

>  <fragmenstein_mode>  (2551) 
expansion

>  <HIPPO Pose ID>  (2551) 
28507

>  <Energy>  (2551) 
128.778907

>  <fragmenstein_error>  (2551) 


>  <tags>  (2551) 
{'openbind_xx01zvns2b_c1_fragmenstein', 'fragmenstein_placed'}

>  <ref_pdb>  (2551) 
175

>  <scratch_subdir>  (2551) 
/opt/xchem-fragalysis-2/maxwin/BulkDock/SCRATCH/511028/C37745-P279

>  <alias>  (2551) 
NCc1cc(NC(=O)c2cc(Cl)cc3c2cnn3[C@H]2CN[C@]2(C=O)Cc2ccccc2)cc(F)c1N1CCCCC1

>  <HIPPO Compound ID>  (2551) 
42344

>  <fragmenstein_runtime>  (2551) 
10.353966

$$$$
NCc1cc(NC(=O)c2cc(Cl)cc3c2cc(CN2CCCC2)n3C2CNC2)cc(F)c1N1CCCCC1
     RDKit          3D

 38 43  0  0  0  0  0  0  0  0999 V2000
   -7.8645    1.6455   -8.4800 N   0  0  0  0  0  0  0  0  0  0  0  0
   -9.0497    2.4679   -8.6383 C   0  0  0  0  0  0  0  0  0  0  0  0
   -8.7187    3.7372   -9.3848 C   0  0  0  0  0  0  0  0  0  0  0  0
   -8.6373    3.6778  -10.7982 C   0  0  0  0  0  0  0  0  0  0  0  0
   -8.3159    4.8092  -11.5440 C   0  0  0  0  0  0  0  0  0  0  0  0
   -8.2116    4.7346  -12.9319 N   0  0  0  0  0  0  0  0  0  0  0  0
   -7.7357    5.7853  -13.9607 C   0  0  0  0  0  0  0  0  0  0  0  0
   -7.4294    6.9033  -13.8149 O   0  0  0  0  0  0  0  0  0  0  0  0
   -7.6661    5.2406  -15.3376 C   0  0  0  0  0  0  0  0  0  0  0  0
   -8.8099    4.7249  -15.9449 C   0  0  0  0  0  0  0  0  0  0  0  0
   -8.8044    4.5120  -17.3167 C   0  0  0  0  0  0  0  0  0  0  0  0
  -10.2843    4.1470  -18.0955 Cl  0  0  0  0  0  0  0  0  0  0  0  0
   -7.6672    4.7343  -18.1043 C   0  0  0  0  0  0  0  0  0  0  0  0
   -6.5119    5.2337  -17.4772 C   0  0  0  0  0  0  0  0  0  0  0  0
   -6.5037    5.4875  -16.1060 C   0  0  0  0  0  0  0  0  0  0  0  0
   -5.2466    6.0624  -15.8115 C   0  0  0  0  0  0  0  0  0  0  0  0
   -4.5301    6.2312  -16.9828 C   0  0  0  0  0  0  0  0  0  0  0  0
   -3.2673    7.0263  -17.1169 C   0  0  0  0  0  0  0  0  0  0  0  0
   -2.0637    6.2486  -16.8090 N   0  0  0  0  0  0  0  0  0  0  0  0
   -1.9311    5.9211  -15.3826 C   0  0  0  0  0  0  0  0  0  0  0  0
   -0.4302    5.7942  -15.1320 C   0  0  0  0  0  0  0  0  0  0  0  0
    0.2332    6.2395  -16.4247 C   0  0  0  0  0  0  0  0  0  0  0  0
   -0.8551    7.0113  -17.1426 C   0  0  0  0  0  0  0  0  0  0  0  0
   -5.2776    5.6358  -17.9850 N   0  0  0  0  0  0  0  0  0  0  0  0
   -4.9979    5.5341  -19.4386 C   0  0  0  0  0  0  0  0  0  0  0  0
   -5.0297    6.8815  -20.1742 C   0  0  0  0  0  0  0  0  0  0  0  0
   -3.8963    6.4077  -21.0083 N   0  0  0  0  0  0  0  0  0  0  0  0
   -3.5502    5.4410  -19.9308 C   0  0  0  0  0  0  0  0  0  0  0  0
   -8.0708    6.0103  -10.8882 C   0  0  0  0  0  0  0  0  0  0  0  0
   -8.1243    6.0702   -9.4990 C   0  0  0  0  0  0  0  0  0  0  0  0
   -7.8141    7.2387   -8.9109 F   0  0  0  0  0  0  0  0  0  0  0  0
   -8.4474    4.9500   -8.7114 C   0  0  0  0  0  0  0  0  0  0  0  0
   -8.4154    4.9800   -7.2941 N   0  0  0  0  0  0  0  0  0  0  0  0
   -7.0264    4.9203   -6.8158 C   0  0  0  0  0  0  0  0  0  0  0  0
   -7.0374    4.5470   -5.3320 C   0  0  0  0  0  0  0  0  0  0  0  0
   -8.0581    5.3504   -4.5216 C   0  0  0  0  0  0  0  0  0  0  0  0
   -8.6509    6.5004   -5.3260 C   0  0  0  0  0  0  0  0  0  0  0  0
   -9.2449    6.0156   -6.6521 C   0  0  0  0  0  0  0  0  0  0  0  0
  1  2  1  0
  2  3  1  0
  3  4  2  0
  4  5  1  0
  5  6  1  0
  6  7  1  0
  7  8  2  0
  7  9  1  0
  9 10  2  0
 10 11  1  0
 11 12  1  0
 11 13  2  0
 13 14  1  0
 14 15  2  0
 15 16  1  0
 16 17  2  0
 17 18  1  0
 18 19  1  0
 19 20  1  0
 20 21  1  0
 21 22  1  0
 22 23  1  0
 17 24  1  0
 24 25  1  0
 25 26  1  0
 26 27  1  0
 27 28  1  0
  5 29  2  0
 29 30  1  0
 30 31  1  0
 30 32  2  0
 32 33  1  0
 33 34  1  0
 34 35  1  0
 35 36  1  0
 36 37  1  0
 37 38  1  0
 32  3  1  0
 38 33  1  0
 15  9  1  0
 23 19  1  0
 28 25  1  0
 24 14  1  0
M  END
>  <smiles>  (2552) 
C37750-P279

>  <fragmenstein_outcome>  (2552) 
acceptable

>  <inchikey>  (2552) 
MTASNEMVSHPYKM-UHFFFAOYSA-N

>  <fragmenstein_mode>  (2552) 
expansion

>  <HIPPO Pose ID>  (2552) 
28508

>  <Energy>  (2552) 
87.001389

>  <fragmenstein_error>  (2552) 


>  <tags>  (2552) 
{'openbind_xx01zvns2b_c1_fragmenstein', 'fragmenstein_placed'}

>  <ref_pdb>  (2552) 
175

>  <scratch_subdir>  (2552) 
/opt/xchem-fragalysis-2/maxwin/BulkDock/SCRATCH/511028/C37750-P279

>  <alias>  (2552) 
NCc1cc(NC(=O)c2cc(Cl)cc3c2cc(CN2CCCC2)n3C2CNC2)cc(F)c1N1CCCCC1

>  <HIPPO Compound ID>  (2552) 
41893

>  <fragmenstein_runtime>  (2552) 
9.254546

$$$$
O=C(Nc1cc(F)c2c(c1)CN[C@]21CCCC[C@@H]1C(=O)O)c1cc(Cl)cc2c1cnn2C1CNC1
     RDKit          3D

 35 40  0  0  0  0  0  0  0  0999 V2000
   -7.2763    6.6471  -13.8587 O   0  0  0  0  0  0  0  0  0  0  0  0
   -7.6413    5.5549  -14.0512 C   0  0  0  0  0  0  0  0  0  0  0  0
   -8.1953    4.4972  -13.0717 N   0  0  0  0  0  0  0  0  0  0  0  0
   -8.3228    4.5273  -11.6871 C   0  0  0  0  0  0  0  0  0  0  0  0
   -8.0810    5.7102  -10.9766 C   0  0  0  0  0  0  0  0  0  0  0  0
   -8.2097    5.7406   -9.5886 C   0  0  0  0  0  0  0  0  0  0  0  0
   -7.9564    6.8881   -8.9461 F   0  0  0  0  0  0  0  0  0  0  0  0
   -8.5575    4.5919   -8.9025 C   0  0  0  0  0  0  0  0  0  0  0  0
   -8.7886    3.4162   -9.6249 C   0  0  0  0  0  0  0  0  0  0  0  0
   -8.6872    3.3656  -11.0094 C   0  0  0  0  0  0  0  0  0  0  0  0
   -9.0824    2.2977   -8.6863 C   0  0  0  0  0  0  0  0  0  0  0  0
   -9.3637    2.9573   -7.3940 N   0  0  0  0  0  0  0  0  0  0  0  0
   -8.6663    4.2997   -7.4205 C   0  0  2  0  0  0  0  0  0  0  0  0
   -9.4716    5.2988   -6.5742 C   0  0  0  0  0  0  0  0  0  0  0  0
   -9.2783    5.2073   -5.0627 C   0  0  0  0  0  0  0  0  0  0  0  0
   -8.6696    3.9137   -4.5841 C   0  0  0  0  0  0  0  0  0  0  0  0
   -7.3775    3.5806   -5.3211 C   0  0  0  0  0  0  0  0  0  0  0  0
   -7.2859    4.1156   -6.7727 C   0  0  2  0  0  0  0  0  0  0  0  0
   -6.4438    5.3774   -6.7976 C   0  0  0  0  0  0  0  0  0  0  0  0
   -6.4884    6.3128   -6.0137 O   0  0  0  0  0  0  0  0  0  0  0  0
   -5.5615    5.4106   -7.8178 O   0  0  0  0  0  0  0  0  0  0  0  0
   -7.6663    5.0879  -15.4487 C   0  0  0  0  0  0  0  0  0  0  0  0
   -8.8750    4.7103  -16.0347 C   0  0  0  0  0  0  0  0  0  0  0  0
   -8.9404    4.5278  -17.4099 C   0  0  0  0  0  0  0  0  0  0  0  0
  -10.4775    4.2919  -18.1215 Cl  0  0  0  0  0  0  0  0  0  0  0  0
   -7.8184    4.6688  -18.2334 C   0  0  0  0  0  0  0  0  0  0  0  0
   -6.6096    5.0272  -17.6198 C   0  0  0  0  0  0  0  0  0  0  0  0
   -6.5157    5.2306  -16.2453 C   0  0  0  0  0  0  0  0  0  0  0  0
   -5.1698    5.5905  -16.0302 C   0  0  0  0  0  0  0  0  0  0  0  0
   -4.4510    5.5980  -17.1518 N   0  0  0  0  0  0  0  0  0  0  0  0
   -5.3526    5.3087  -18.1118 N   0  0  0  0  0  0  0  0  0  0  0  0
   -5.0348    5.3543  -19.5461 C   0  0  0  0  0  0  0  0  0  0  0  0
   -5.1004    6.7838  -20.1195 C   0  0  0  0  0  0  0  0  0  0  0  0
   -3.9205    6.4384  -20.9636 N   0  0  0  0  0  0  0  0  0  0  0  0
   -3.5362    5.4696  -19.8940 C   0  0  0  0  0  0  0  0  0  0  0  0
  1  2  2  0
  2  3  1  0
  3  4  1  0
  4  5  2  0
  5  6  1  0
  6  7  1  0
  6  8  2  0
  8  9  1  0
  9 10  2  0
  9 11  1  0
 11 12  1  0
 12 13  1  0
 13 14  1  1
 14 15  1  0
 15 16  1  0
 16 17  1  0
 17 18  1  0
 18 19  1  1
 19 20  2  0
 19 21  1  0
  2 22  1  0
 22 23  2  0
 23 24  1  0
 24 25  1  0
 24 26  2  0
 26 27  1  0
 27 28  2  0
 28 29  1  0
 29 30  2  0
 30 31  1  0
 31 32  1  0
 32 33  1  0
 33 34  1  0
 34 35  1  0
 10  4  1  0
 18 13  1  0
 28 22  1  0
 35 32  1  0
 13  8  1  0
 31 27  1  0
M  END
>  <smiles>  (2553) 
C37807-P279

>  <fragmenstein_outcome>  (2553) 
acceptable

>  <inchikey>  (2553) 
MUOVYVDWEFCGAQ-UHFFFAOYSA-N

>  <fragmenstein_mode>  (2553) 
expansion

>  <HIPPO Pose ID>  (2553) 
28520

>  <Energy>  (2553) 
46.634204

>  <fragmenstein_error>  (2553) 


>  <tags>  (2553) 
{'openbind_xx01zvns2b_c1_fragmenstein', 'fragmenstein_placed'}

>  <ref_pdb>  (2553) 
175

>  <scratch_subdir>  (2553) 
/opt/xchem-fragalysis-2/maxwin/BulkDock/SCRATCH/511028/C37807-P279

>  <alias>  (2553) 
O=C(Nc1cc(F)c2c(c1)CN[C@]21CCCC[C@@H]1C(=O)O)c1cc(Cl)cc2c1cnn2C1CNC1

>  <HIPPO Compound ID>  (2553) 
37807

>  <fragmenstein_runtime>  (2553) 
8.180274

$$$$
O=C(N[C@@H]1C[C@H]2CN[C@H]3CCCC[C@H]3[C@@H]2[C@H](F)C1)c1cc(Cl)c2c3c1cnn3C1(CNC1)C(=O)N2
     RDKit          3D

 35 41  0  0  0  0  0  0  0  0999 V2000
   -6.5903    6.5112  -13.6193 O   0  0  0  0  0  0  0  0  0  0  0  0
   -7.0226    5.4552  -13.8489 C   0  0  0  0  0  0  0  0  0  0  0  0
   -7.3980    4.3068  -12.9033 N   0  0  0  0  0  0  0  0  0  0  0  0
   -7.4110    4.2452  -11.4559 C   0  0  1  0  0  0  0  0  0  0  0  0
   -8.0830    5.4787  -10.8768 C   0  0  0  0  0  0  0  0  0  0  0  0
   -7.9706    5.5282   -9.3656 C   0  0  1  0  0  0  0  0  0  0  0  0
   -8.9257    6.3914   -8.9252 F   0  0  0  0  0  0  0  0  0  0  0  0
   -8.0949    4.1589   -8.6829 C   0  0  2  0  0  0  0  0  0  0  0  0
   -8.7140    3.0744   -9.5664 C   0  0  2  0  0  0  0  0  0  0  0  0
   -8.7367    1.7220   -8.8198 C   0  0  0  0  0  0  0  0  0  0  0  0
   -8.9441    1.8201   -7.3747 N   0  0  0  0  0  0  0  0  0  0  0  0
   -9.7003    2.9964   -7.0202 C   0  0  1  0  0  0  0  0  0  0  0  0
  -10.2636    2.9474   -5.5933 C   0  0  0  0  0  0  0  0  0  0  0  0
   -9.5012    3.7868   -4.5783 C   0  0  0  0  0  0  0  0  0  0  0  0
   -8.0265    3.8512   -4.9058 C   0  0  0  0  0  0  0  0  0  0  0  0
   -7.7792    4.5612   -6.2186 C   0  0  0  0  0  0  0  0  0  0  0  0
   -8.8173    4.2396   -7.3046 C   0  0  1  0  0  0  0  0  0  0  0  0
   -8.0470    2.9456  -10.9474 C   0  0  0  0  0  0  0  0  0  0  0  0
   -7.1834    5.0730  -15.2646 C   0  0  0  0  0  0  0  0  0  0  0  0
   -8.3972    4.5898  -15.7975 C   0  0  0  0  0  0  0  0  0  0  0  0
   -8.5073    4.3228  -17.1710 C   0  0  0  0  0  0  0  0  0  0  0  0
  -10.0321    3.8978  -17.8315 Cl  0  0  0  0  0  0  0  0  0  0  0  0
   -7.4135    4.4916  -18.0212 C   0  0  0  0  0  0  0  0  0  0  0  0
   -6.2697    5.0154  -17.4608 C   0  0  0  0  0  0  0  0  0  0  0  0
   -6.1041    5.3115  -16.1292 C   0  0  0  0  0  0  0  0  0  0  0  0
   -4.7806    5.8057  -16.0616 C   0  0  0  0  0  0  0  0  0  0  0  0
   -4.1761    5.8386  -17.2583 N   0  0  0  0  0  0  0  0  0  0  0  0
   -5.1171    5.3565  -18.0908 N   0  0  0  0  0  0  0  0  0  0  0  0
   -5.0880    5.3174  -19.5642 C   0  0  0  0  0  0  0  0  0  0  0  0
   -5.0027    6.7510  -20.1457 C   0  0  0  0  0  0  0  0  0  0  0  0
   -3.9561    6.2845  -21.0832 N   0  0  0  0  0  0  0  0  0  0  0  0
   -3.6657    5.1650  -20.1493 C   0  0  0  0  0  0  0  0  0  0  0  0
   -6.2391    4.4128  -20.1656 C   0  0  0  0  0  0  0  0  0  0  0  0
   -6.2105    3.9243  -21.3036 O   0  0  0  0  0  0  0  0  0  0  0  0
   -7.3572    4.1574  -19.3741 N   0  0  0  0  0  0  0  0  0  0  0  0
  1  2  2  0
  2  3  1  0
  4  3  1  6
  4  5  1  0
  5  6  1  0
  6  7  1  1
  8  6  1  6
  8  9  1  0
  9 10  1  1
 10 11  1  0
 11 12  1  0
 12 13  1  1
 13 14  1  0
 14 15  1  0
 15 16  1  0
 17 16  1  1
  9 18  1  0
  2 19  1  0
 19 20  2  0
 20 21  1  0
 21 22  1  0
 21 23  2  0
 23 24  1  0
 24 25  2  0
 25 26  1  0
 26 27  2  0
 27 28  1  0
 28 29  1  0
 29 30  1  0
 30 31  1  0
 31 32  1  0
 29 33  1  0
 33 34  2  0
 33 35  1  0
 18  4  1  0
 25 19  1  0
 32 29  1  0
 17  8  1  0
 35 23  1  0
 17 12  1  0
 28 24  1  0
M  END
>  <smiles>  (2554) 
C37786-P224

>  <fragmenstein_outcome>  (2554) 
acceptable

>  <inchikey>  (2554) 
FFRMZLMYASPMAX-UHFFFAOYSA-N

>  <fragmenstein_mode>  (2554) 
expansion

>  <HIPPO Pose ID>  (2554) 
28523

>  <Energy>  (2554) 
45.554182

>  <fragmenstein_error>  (2554) 


>  <tags>  (2554) 
{'openbind_xx01zvns2b_c1_fragmenstein', 'fragmenstein_placed'}

>  <ref_pdb>  (2554) 
175

>  <scratch_subdir>  (2554) 
/opt/xchem-fragalysis-2/maxwin/BulkDock/SCRATCH/511028/C37786-P224

>  <alias>  (2554) 
O=C(N[C@@H]1C[C@H]2CN[C@H]3CCCC[C@H]3[C@@H]2[C@H](F)C1)c1cc(Cl)c2c3c1cnn3C1(CNC1)C(=O)N2

>  <HIPPO Compound ID>  (2554) 
37786

>  <fragmenstein_runtime>  (2554) 
17.913068

$$$$
O=C(NCCCF)[C@](O)(Nc1ccc(N2CCCCC2)c(F)c1)c1cc(Cl)cc2c1cnn2C1CNC1
     RDKit          3D

 37 41  0  0  0  0  0  0  0  0999 V2000
   -7.2092    2.1170  -13.4228 O   0  0  0  0  0  0  0  0  0  0  0  0
   -6.6533    3.1153  -13.1759 C   0  0  0  0  0  0  0  0  0  0  0  0
   -5.2620    3.3592  -12.5181 N   0  0  0  0  0  0  0  0  0  0  0  0
   -4.2414    2.4280  -12.1218 C   0  0  0  0  0  0  0  0  0  0  0  0
   -3.1586    2.3628  -13.1906 C   0  0  0  0  0  0  0  0  0  0  0  0
   -2.4459    3.6975  -13.3120 C   0  0  0  0  0  0  0  0  0  0  0  0
   -1.7527    3.9339  -12.1641 F   0  0  0  0  0  0  0  0  0  0  0  0
   -7.2371    4.5966  -13.4943 C   0  0  2  0  0  0  0  0  0  0  0  0
   -6.3342    5.6231  -13.0808 O   0  0  0  0  0  0  0  0  0  0  0  0
   -8.4893    4.9093  -12.7761 N   0  0  0  0  0  0  0  0  0  0  0  0
   -8.5322    4.6732  -11.3907 C   0  0  0  0  0  0  0  0  0  0  0  0
   -8.6590    3.3863  -10.8795 C   0  0  0  0  0  0  0  0  0  0  0  0
   -8.6329    3.1420   -9.4978 C   0  0  0  0  0  0  0  0  0  0  0  0
   -8.4897    4.1701   -8.5530 C   0  0  0  0  0  0  0  0  0  0  0  0
   -8.4698    3.9229   -7.1760 N   0  0  0  0  0  0  0  0  0  0  0  0
   -9.0303    4.9435   -6.2775 C   0  0  0  0  0  0  0  0  0  0  0  0
   -9.7125    4.3153   -5.0567 C   0  0  0  0  0  0  0  0  0  0  0  0
  -10.6189    3.1506   -5.4578 C   0  0  0  0  0  0  0  0  0  0  0  0
   -9.9204    2.1427   -6.3745 C   0  0  0  0  0  0  0  0  0  0  0  0
   -8.4784    2.5475   -6.6596 C   0  0  0  0  0  0  0  0  0  0  0  0
   -8.3537    5.4625   -9.0972 C   0  0  0  0  0  0  0  0  0  0  0  0
   -8.1771    6.5271   -8.2949 F   0  0  0  0  0  0  0  0  0  0  0  0
   -8.3808    5.7152  -10.4757 C   0  0  0  0  0  0  0  0  0  0  0  0
   -7.4041    4.7567  -15.0209 C   0  0  0  0  0  0  0  0  0  0  0  0
   -8.6493    4.5099  -15.6546 C   0  0  0  0  0  0  0  0  0  0  0  0
   -8.8058    4.5658  -17.0433 C   0  0  0  0  0  0  0  0  0  0  0  0
  -10.3457    4.3343  -17.7690 Cl  0  0  0  0  0  0  0  0  0  0  0  0
   -7.7414    4.8482  -17.8898 C   0  0  0  0  0  0  0  0  0  0  0  0
   -6.5107    5.1005  -17.2866 C   0  0  0  0  0  0  0  0  0  0  0  0
   -6.3307    5.0807  -15.9021 C   0  0  0  0  0  0  0  0  0  0  0  0
   -4.9699    5.4344  -15.7490 C   0  0  0  0  0  0  0  0  0  0  0  0
   -4.3225    5.5963  -16.9030 N   0  0  0  0  0  0  0  0  0  0  0  0
   -5.2743    5.3798  -17.8293 N   0  0  0  0  0  0  0  0  0  0  0  0
   -5.0190    5.3937  -19.2800 C   0  0  0  0  0  0  0  0  0  0  0  0
   -5.1201    6.8004  -19.8961 C   0  0  0  0  0  0  0  0  0  0  0  0
   -3.9810    6.4298  -20.7859 N   0  0  0  0  0  0  0  0  0  0  0  0
   -3.5412    5.4989  -19.7024 C   0  0  0  0  0  0  0  0  0  0  0  0
  1  2  2  0
  2  3  1  0
  3  4  1  0
  4  5  1  0
  5  6  1  0
  6  7  1  0
  2  8  1  0
  8  9  1  1
  8 10  1  0
 10 11  1  0
 11 12  2  0
 12 13  1  0
 13 14  2  0
 14 15  1  0
 15 16  1  0
 16 17  1  0
 17 18  1  0
 18 19  1  0
 19 20  1  0
 14 21  1  0
 21 22  1  0
 21 23  2  0
  8 24  1  0
 24 25  2  0
 25 26  1  0
 26 27  1  0
 26 28  2  0
 28 29  1  0
 29 30  2  0
 30 31  1  0
 31 32  2  0
 32 33  1  0
 33 34  1  0
 34 35  1  0
 35 36  1  0
 36 37  1  0
 23 11  1  0
 30 24  1  0
 37 34  1  0
 20 15  1  0
 33 29  1  0
M  END
>  <smiles>  (2555) 
C37821-P279

>  <fragmenstein_outcome>  (2555) 
acceptable

>  <inchikey>  (2555) 
MTPLTZGDUBPQBF-UHFFFAOYSA-N

>  <fragmenstein_mode>  (2555) 
expansion

>  <HIPPO Pose ID>  (2555) 
28525

>  <Energy>  (2555) 
125.476466

>  <fragmenstein_error>  (2555) 


>  <tags>  (2555) 
{'openbind_xx01zvns2b_c1_fragmenstein', 'fragmenstein_placed'}

>  <ref_pdb>  (2555) 
175

>  <scratch_subdir>  (2555) 
/opt/xchem-fragalysis-2/maxwin/BulkDock/SCRATCH/511028/C37821-P279

>  <alias>  (2555) 
O=C(NCCCF)[C@](O)(Nc1ccc(N2CCCCC2)c(F)c1)c1cc(Cl)cc2c1cnn2C1CNC1

>  <HIPPO Compound ID>  (2555) 
37821

>  <fragmenstein_runtime>  (2555) 
9.44001

$$$$
CCN1CCC2(CC1)Cc1c(C(=O)N[C@H]3C[C@H]4CN[C@H]5CCCC[C@H]5[C@H]4[C@H](F)C3)cc(Cl)cc1N2C1CNC1
     RDKit          3D

 39 45  0  0  0  0  0  0  0  0999 V2000
    0.7742    6.4737  -16.3754 C   0  0  0  0  0  0  0  0  0  0  0  0
   -0.5552    7.1044  -16.7781 C   0  0  0  0  0  0  0  0  0  0  0  0
   -1.5683    7.0202  -15.7191 N   0  0  0  0  0  0  0  0  0  0  0  0
   -2.6912    7.9396  -15.9420 C   0  0  0  0  0  0  0  0  0  0  0  0
   -3.6596    7.4877  -17.0404 C   0  0  0  0  0  0  0  0  0  0  0  0
   -4.1714    6.0497  -16.8084 C   0  0  0  0  0  0  0  0  0  0  0  0
   -2.9960    5.0941  -16.5130 C   0  0  0  0  0  0  0  0  0  0  0  0
   -2.0503    5.6619  -15.4445 C   0  0  0  0  0  0  0  0  0  0  0  0
   -5.1129    6.0625  -15.5482 C   0  0  0  0  0  0  0  0  0  0  0  0
   -6.3873    5.5144  -16.0705 C   0  0  0  0  0  0  0  0  0  0  0  0
   -7.5595    5.2876  -15.3655 C   0  0  0  0  0  0  0  0  0  0  0  0
   -7.6668    5.7045  -13.9570 C   0  0  0  0  0  0  0  0  0  0  0  0
   -7.5450    6.8324  -13.6973 O   0  0  0  0  0  0  0  0  0  0  0  0
   -7.9575    4.5012  -13.0514 N   0  0  0  0  0  0  0  0  0  0  0  0
   -8.2552    4.4397  -11.6432 C   0  0  2  0  0  0  0  0  0  0  0  0
   -7.7199    5.6378  -10.8515 C   0  0  0  0  0  0  0  0  0  0  0  0
   -7.7320    5.4051   -9.3376 C   0  0  1  0  0  0  0  0  0  0  0  0
   -8.0342    6.5947   -8.7390 F   0  0  0  0  0  0  0  0  0  0  0  0
   -8.7671    4.3600   -8.9359 C   0  0  1  0  0  0  0  0  0  0  0  0
   -8.5591    2.9933   -9.6401 C   0  0  2  0  0  0  0  0  0  0  0  0
   -7.9002    2.0024   -8.6832 C   0  0  0  0  0  0  0  0  0  0  0  0
   -8.6702    1.7888   -7.4557 N   0  0  0  0  0  0  0  0  0  0  0  0
   -9.6786    2.8124   -7.1819 C   0  0  1  0  0  0  0  0  0  0  0  0
  -10.2385    2.7093   -5.7561 C   0  0  0  0  0  0  0  0  0  0  0  0
   -9.4881    3.5755   -4.7436 C   0  0  0  0  0  0  0  0  0  0  0  0
   -8.0280    3.7533   -5.1286 C   0  0  0  0  0  0  0  0  0  0  0  0
   -7.8609    4.4438   -6.4844 C   0  0  0  0  0  0  0  0  0  0  0  0
   -9.0512    4.1998   -7.4258 C   0  0  1  0  0  0  0  0  0  0  0  0
   -7.8285    3.1295  -10.9845 C   0  0  0  0  0  0  0  0  0  0  0  0
   -8.6757    4.7971  -16.0304 C   0  0  0  0  0  0  0  0  0  0  0  0
   -8.5938    4.5847  -17.4064 C   0  0  0  0  0  0  0  0  0  0  0  0
  -10.0180    4.1365  -18.2424 Cl  0  0  0  0  0  0  0  0  0  0  0  0
   -7.4080    4.8112  -18.1158 C   0  0  0  0  0  0  0  0  0  0  0  0
   -6.2920    5.2680  -17.4309 C   0  0  0  0  0  0  0  0  0  0  0  0
   -5.0077    5.5534  -17.9534 N   0  0  0  0  0  0  0  0  0  0  0  0
   -4.6678    5.4512  -19.3572 C   0  0  0  0  0  0  0  0  0  0  0  0
   -4.9014    6.7458  -20.1623 C   0  0  0  0  0  0  0  0  0  0  0  0
   -3.6189    6.5231  -20.8625 N   0  0  0  0  0  0  0  0  0  0  0  0
   -3.2044    5.5762  -19.8140 C   0  0  0  0  0  0  0  0  0  0  0  0
  1  2  1  0
  2  3  1  0
  3  4  1  0
  4  5  1  0
  5  6  1  0
  6  7  1  0
  7  8  1  0
  6  9  1  0
  9 10  1  0
 10 11  2  0
 11 12  1  0
 12 13  2  0
 12 14  1  0
 15 14  1  6
 15 16  1  0
 16 17  1  0
 17 18  1  1
 19 17  1  1
 19 20  1  0
 20 21  1  1
 21 22  1  0
 22 23  1  0
 23 24  1  1
 24 25  1  0
 25 26  1  0
 26 27  1  0
 28 27  1  1
 20 29  1  0
 11 30  1  0
 30 31  2  0
 31 32  1  0
 31 33  1  0
 33 34  2  0
 34 35  1  0
 35 36  1  0
 36 37  1  0
 37 38  1  0
 38 39  1  0
  8  3  1  0
 34 10  1  0
 39 36  1  0
 35  6  1  0
 29 15  1  0
 28 19  1  0
 28 23  1  0
M  END
>  <smiles>  (2556) 
C37829-P279

>  <fragmenstein_outcome>  (2556) 
acceptable

>  <inchikey>  (2556) 
XYXMGVBGXAVTIO-UHFFFAOYSA-N

>  <fragmenstein_mode>  (2556) 
expansion

>  <HIPPO Pose ID>  (2556) 
28529

>  <Energy>  (2556) 
109.248879

>  <fragmenstein_error>  (2556) 


>  <tags>  (2556) 
{'openbind_xx01zvns2b_c1_fragmenstein', 'fragmenstein_placed'}

>  <ref_pdb>  (2556) 
175

>  <scratch_subdir>  (2556) 
/opt/xchem-fragalysis-2/maxwin/BulkDock/SCRATCH/511028/C37829-P279

>  <alias>  (2556) 
CCN1CCC2(CC1)Cc1c(C(=O)N[C@H]3C[C@H]4CN[C@H]5CCCC[C@H]5[C@H]4[C@H](F)C3)cc(Cl)cc1N2C1CNC1

>  <HIPPO Compound ID>  (2556) 
37829

>  <fragmenstein_runtime>  (2556) 
26.805098

$$$$
CN1Cc2cc(NC(=O)c3cc(Cl)c4c5c3cnn5C3(CNC3)C(=O)N4)cc(F)c2C12CCCCC2
     RDKit          3D

 36 42  0  0  0  0  0  0  0  0999 V2000
  -10.2407    2.1716   -6.4190 C   0  0  0  0  0  0  0  0  0  0  0  0
   -9.0567    2.6470   -7.1021 N   0  0  0  0  0  0  0  0  0  0  0  0
   -8.9619    2.1074   -8.4776 C   0  0  0  0  0  0  0  0  0  0  0  0
   -8.7886    3.2905   -9.3684 C   0  0  0  0  0  0  0  0  0  0  0  0
   -8.6527    3.3096  -10.7519 C   0  0  0  0  0  0  0  0  0  0  0  0
   -8.3862    4.5292  -11.3789 C   0  0  0  0  0  0  0  0  0  0  0  0
   -8.1947    4.5475  -12.7584 N   0  0  0  0  0  0  0  0  0  0  0  0
   -7.7287    5.6874  -13.6919 C   0  0  0  0  0  0  0  0  0  0  0  0
   -7.3587    6.7662  -13.4427 O   0  0  0  0  0  0  0  0  0  0  0  0
   -7.7316    5.2671  -15.1045 C   0  0  0  0  0  0  0  0  0  0  0  0
   -8.9196    4.8252  -15.7213 C   0  0  0  0  0  0  0  0  0  0  0  0
   -8.9512    4.5502  -17.0907 C   0  0  0  0  0  0  0  0  0  0  0  0
  -10.4466    4.2324  -17.8717 Cl  0  0  0  0  0  0  0  0  0  0  0  0
   -7.7936    4.6577  -17.8513 C   0  0  0  0  0  0  0  0  0  0  0  0
   -6.6650    5.1363  -17.2243 C   0  0  0  0  0  0  0  0  0  0  0  0
   -6.5772    5.4465  -15.8869 C   0  0  0  0  0  0  0  0  0  0  0  0
   -5.2392    5.8858  -15.7448 C   0  0  0  0  0  0  0  0  0  0  0  0
   -4.5554    5.8693  -16.9014 N   0  0  0  0  0  0  0  0  0  0  0  0
   -5.4637    5.4183  -17.7892 N   0  0  0  0  0  0  0  0  0  0  0  0
   -5.3544    5.3566  -19.2635 C   0  0  0  0  0  0  0  0  0  0  0  0
   -5.2751    6.7887  -19.8614 C   0  0  0  0  0  0  0  0  0  0  0  0
   -4.1852    6.3255  -20.7534 N   0  0  0  0  0  0  0  0  0  0  0  0
   -3.8968    5.2603  -19.7610 C   0  0  0  0  0  0  0  0  0  0  0  0
   -6.4907    4.4169  -19.8998 C   0  0  0  0  0  0  0  0  0  0  0  0
   -6.4526    3.8035  -20.9716 O   0  0  0  0  0  0  0  0  0  0  0  0
   -7.6723    4.2872  -19.1817 N   0  0  0  0  0  0  0  0  0  0  0  0
   -8.2801    5.7015  -10.6195 C   0  0  0  0  0  0  0  0  0  0  0  0
   -8.4401    5.6569   -9.2349 C   0  0  0  0  0  0  0  0  0  0  0  0
   -8.3079    6.7831   -8.5209 F   0  0  0  0  0  0  0  0  0  0  0  0
   -8.6993    4.4530   -8.6066 C   0  0  0  0  0  0  0  0  0  0  0  0
   -8.7854    4.1217   -7.1329 C   0  0  0  0  0  0  0  0  0  0  0  0
   -7.3766    4.2977   -6.5451 C   0  0  0  0  0  0  0  0  0  0  0  0
   -7.3109    3.8264   -5.0945 C   0  0  0  0  0  0  0  0  0  0  0  0
   -8.4249    4.3966   -4.2207 C   0  0  0  0  0  0  0  0  0  0  0  0
   -9.2227    5.4756   -4.9304 C   0  0  0  0  0  0  0  0  0  0  0  0
   -9.7343    5.0538   -6.3159 C   0  0  0  0  0  0  0  0  0  0  0  0
  1  2  1  0
  2  3  1  0
  3  4  1  0
  4  5  2  0
  5  6  1  0
  6  7  1  0
  7  8  1  0
  8  9  2  0
  8 10  1  0
 10 11  2  0
 11 12  1  0
 12 13  1  0
 12 14  2  0
 14 15  1  0
 15 16  2  0
 16 17  1  0
 17 18  2  0
 18 19  1  0
 19 20  1  0
 20 21  1  0
 21 22  1  0
 22 23  1  0
 20 24  1  0
 24 25  2  0
 24 26  1  0
  6 27  2  0
 27 28  1  0
 28 29  1  0
 28 30  2  0
 30 31  1  0
 31 32  1  0
 32 33  1  0
 33 34  1  0
 34 35  1  0
 35 36  1  0
 31  2  1  0
 30  4  1  0
 36 31  1  0
 16 10  1  0
 23 20  1  0
 26 14  1  0
 19 15  1  0
M  END
>  <smiles>  (2557) 
C37842-P279

>  <fragmenstein_outcome>  (2557) 
acceptable

>  <inchikey>  (2557) 
WKJWUWSRTXBVLP-UHFFFAOYSA-N

>  <fragmenstein_mode>  (2557) 
expansion

>  <HIPPO Pose ID>  (2557) 
28533

>  <Energy>  (2557) 
55.847365

>  <fragmenstein_error>  (2557) 


>  <tags>  (2557) 
{'openbind_xx01zvns2b_c1_fragmenstein', 'fragmenstein_placed'}

>  <ref_pdb>  (2557) 
175

>  <scratch_subdir>  (2557) 
/opt/xchem-fragalysis-2/maxwin/BulkDock/SCRATCH/511028/C37842-P279

>  <alias>  (2557) 
CN1Cc2cc(NC(=O)c3cc(Cl)c4c5c3cnn5C3(CNC3)C(=O)N4)cc(F)c2C12CCCCC2

>  <HIPPO Compound ID>  (2557) 
31163

>  <fragmenstein_runtime>  (2557) 
7.359654

$$$$
O=C(Nc1ccc(N2CCCCC2)c(F)c1F)c1cc(Cl)cc2c1cnn2C1CNC1
     RDKit          3D

 31 35  0  0  0  0  0  0  0  0999 V2000
   -7.3316    6.6965  -13.7453 O   0  0  0  0  0  0  0  0  0  0  0  0
   -7.6046    5.5955  -14.0100 C   0  0  0  0  0  0  0  0  0  0  0  0
   -8.1311    4.4581  -13.1212 N   0  0  0  0  0  0  0  0  0  0  0  0
   -8.3372    4.4069  -11.7487 C   0  0  0  0  0  0  0  0  0  0  0  0
   -8.6176    3.1587  -11.2082 C   0  0  0  0  0  0  0  0  0  0  0  0
   -8.9046    3.0267   -9.8528 C   0  0  0  0  0  0  0  0  0  0  0  0
   -8.9154    4.1318   -8.9922 C   0  0  0  0  0  0  0  0  0  0  0  0
   -9.3142    4.0175   -7.6552 N   0  0  0  0  0  0  0  0  0  0  0  0
   -8.3142    4.4220   -6.6676 C   0  0  0  0  0  0  0  0  0  0  0  0
   -8.0134    3.2672   -5.7228 C   0  0  0  0  0  0  0  0  0  0  0  0
   -8.1021    1.9462   -6.4736 C   0  0  0  0  0  0  0  0  0  0  0  0
   -9.5391    1.6614   -6.8319 C   0  0  0  0  0  0  0  0  0  0  0  0
  -10.2324    2.9353   -7.2605 C   0  0  0  0  0  0  0  0  0  0  0  0
   -8.5735    5.3791   -9.5512 C   0  0  0  0  0  0  0  0  0  0  0  0
   -8.5826    6.4909   -8.7930 F   0  0  0  0  0  0  0  0  0  0  0  0
   -8.3097    5.5190  -10.9105 C   0  0  0  0  0  0  0  0  0  0  0  0
   -8.1327    6.7566  -11.3938 F   0  0  0  0  0  0  0  0  0  0  0  0
   -7.5269    5.1802  -15.4128 C   0  0  0  0  0  0  0  0  0  0  0  0
   -8.6812    4.7961  -16.0900 C   0  0  0  0  0  0  0  0  0  0  0  0
   -8.6274    4.6425  -17.4655 C   0  0  0  0  0  0  0  0  0  0  0  0
  -10.0790    4.2567  -18.2875 Cl  0  0  0  0  0  0  0  0  0  0  0  0
   -7.4568    4.8926  -18.1976 C   0  0  0  0  0  0  0  0  0  0  0  0
   -6.2973    5.2530  -17.4886 C   0  0  0  0  0  0  0  0  0  0  0  0
   -6.3132    5.3425  -16.0953 C   0  0  0  0  0  0  0  0  0  0  0  0
   -4.9850    5.6175  -15.7239 C   0  0  0  0  0  0  0  0  0  0  0  0
   -4.1749    5.6954  -16.7756 N   0  0  0  0  0  0  0  0  0  0  0  0
   -5.0170    5.6498  -17.8355 N   0  0  0  0  0  0  0  0  0  0  0  0
   -4.6065    6.4238  -19.0154 C   0  0  0  0  0  0  0  0  0  0  0  0
   -5.3505    6.2547  -20.3299 C   0  0  0  0  0  0  0  0  0  0  0  0
   -4.0300    6.3532  -21.0114 N   0  0  0  0  0  0  0  0  0  0  0  0
   -3.4308    5.7794  -19.7753 C   0  0  0  0  0  0  0  0  0  0  0  0
  1  2  2  0
  2  3  1  0
  3  4  1  0
  4  5  2  0
  5  6  1  0
  6  7  2  0
  7  8  1  0
  8  9  1  0
  9 10  1  0
 10 11  1  0
 11 12  1  0
 12 13  1  0
  7 14  1  0
 14 15  1  0
 14 16  2  0
 16 17  1  0
  2 18  1  0
 18 19  2  0
 19 20  1  0
 20 21  1  0
 20 22  2  0
 22 23  1  0
 23 24  2  0
 24 25  1  0
 25 26  2  0
 26 27  1  0
 27 28  1  0
 28 29  1  0
 29 30  1  0
 30 31  1  0
 16  4  1  0
 24 18  1  0
 31 28  1  0
 13  8  1  0
 27 23  1  0
M  END
>  <smiles>  (2558) 
C37847-P279

>  <fragmenstein_outcome>  (2558) 
acceptable

>  <inchikey>  (2558) 
DBQNZTCIWZPJQN-UHFFFAOYSA-N

>  <fragmenstein_mode>  (2558) 
expansion

>  <HIPPO Pose ID>  (2558) 
28536

>  <Energy>  (2558) 
122.381339

>  <fragmenstein_error>  (2558) 


>  <tags>  (2558) 
{'openbind_xx01zvns2b_c1_fragmenstein', 'fragmenstein_placed'}

>  <ref_pdb>  (2558) 
175

>  <scratch_subdir>  (2558) 
/opt/xchem-fragalysis-2/maxwin/BulkDock/SCRATCH/511028/C37847-P279

>  <alias>  (2558) 
O=C(Nc1ccc(N2CCCCC2)c(F)c1F)c1cc(Cl)cc2c1cnn2C1CNC1

>  <HIPPO Compound ID>  (2558) 
37847

>  <fragmenstein_runtime>  (2558) 
44.426268

$$$$
CNCc1cc(NC(=O)c2cc(Cl)cc3c2cnn3C2CNC2)cc(F)c1N1CCCCC1
     RDKit          3D

 33 37  0  0  0  0  0  0  0  0999 V2000
   -7.8502    1.9022   -7.2235 C   0  0  0  0  0  0  0  0  0  0  0  0
   -9.2783    1.9360   -7.3926 N   0  0  0  0  0  0  0  0  0  0  0  0
   -9.6267    2.4647   -8.6950 C   0  0  0  0  0  0  0  0  0  0  0  0
   -8.9693    3.7264   -9.2380 C   0  0  0  0  0  0  0  0  0  0  0  0
   -8.7563    3.6427  -10.6602 C   0  0  0  0  0  0  0  0  0  0  0  0
   -8.3281    4.7243  -11.4146 C   0  0  0  0  0  0  0  0  0  0  0  0
   -8.1356    4.6325  -12.7895 N   0  0  0  0  0  0  0  0  0  0  0  0
   -7.6834    5.6962  -13.8111 C   0  0  0  0  0  0  0  0  0  0  0  0
   -7.3268    6.7966  -13.6507 O   0  0  0  0  0  0  0  0  0  0  0  0
   -7.6068    5.1891  -15.1939 C   0  0  0  0  0  0  0  0  0  0  0  0
   -8.7378    4.7468  -15.8781 C   0  0  0  0  0  0  0  0  0  0  0  0
   -8.6771    4.6025  -17.2632 C   0  0  0  0  0  0  0  0  0  0  0  0
  -10.1145    4.2012  -18.1121 Cl  0  0  0  0  0  0  0  0  0  0  0  0
   -7.5161    4.8890  -17.9997 C   0  0  0  0  0  0  0  0  0  0  0  0
   -6.3807    5.2976  -17.2831 C   0  0  0  0  0  0  0  0  0  0  0  0
   -6.4066    5.4168  -15.8941 C   0  0  0  0  0  0  0  0  0  0  0  0
   -5.1106    5.8397  -15.5368 C   0  0  0  0  0  0  0  0  0  0  0  0
   -4.3187    6.0012  -16.5911 N   0  0  0  0  0  0  0  0  0  0  0  0
   -5.1189    5.7302  -17.6435 N   0  0  0  0  0  0  0  0  0  0  0  0
   -4.7218    6.2255  -18.9673 C   0  0  0  0  0  0  0  0  0  0  0  0
   -4.9446    5.2754  -20.1292 C   0  0  0  0  0  0  0  0  0  0  0  0
   -3.5766    5.5899  -20.6206 N   0  0  0  0  0  0  0  0  0  0  0  0
   -3.2217    5.9976  -19.2478 C   0  0  0  0  0  0  0  0  0  0  0  0
   -8.0934    5.9186  -10.7718 C   0  0  0  0  0  0  0  0  0  0  0  0
   -8.2587    6.0129   -9.3952 C   0  0  0  0  0  0  0  0  0  0  0  0
   -8.0384    7.2377   -8.8826 F   0  0  0  0  0  0  0  0  0  0  0  0
   -8.6720    4.9398   -8.5511 C   0  0  0  0  0  0  0  0  0  0  0  0
   -8.7472    5.1982   -7.1719 N   0  0  0  0  0  0  0  0  0  0  0  0
   -9.5619    4.4769   -6.1944 C   0  0  0  0  0  0  0  0  0  0  0  0
   -9.9433    5.4123   -5.0506 C   0  0  0  0  0  0  0  0  0  0  0  0
   -8.7159    5.9380   -4.3073 C   0  0  0  0  0  0  0  0  0  0  0  0
   -7.4379    5.7813   -5.1248 C   0  0  0  0  0  0  0  0  0  0  0  0
   -7.6920    6.0694   -6.6032 C   0  0  0  0  0  0  0  0  0  0  0  0
  1  2  1  0
  2  3  1  0
  3  4  1  0
  4  5  2  0
  5  6  1  0
  6  7  1  0
  7  8  1  0
  8  9  2  0
  8 10  1  0
 10 11  2  0
 11 12  1  0
 12 13  1  0
 12 14  2  0
 14 15  1  0
 15 16  2  0
 16 17  1  0
 17 18  2  0
 18 19  1  0
 19 20  1  0
 20 21  1  0
 21 22  1  0
 22 23  1  0
  6 24  2  0
 24 25  1  0
 25 26  1  0
 25 27  2  0
 27 28  1  0
 28 29  1  0
 29 30  1  0
 30 31  1  0
 31 32  1  0
 32 33  1  0
 27  4  1  0
 33 28  1  0
 16 10  1  0
 23 20  1  0
 19 15  1  0
M  END
>  <smiles>  (2559) 
C37868-P279

>  <fragmenstein_outcome>  (2559) 
acceptable

>  <inchikey>  (2559) 
KEULZDLXKWCYKD-UHFFFAOYSA-N

>  <fragmenstein_mode>  (2559) 
expansion

>  <HIPPO Pose ID>  (2559) 
28544

>  <Energy>  (2559) 
107.889497

>  <fragmenstein_error>  (2559) 


>  <tags>  (2559) 
{'openbind_xx01zvns2b_c1_fragmenstein', 'fragmenstein_placed'}

>  <ref_pdb>  (2559) 
175

>  <scratch_subdir>  (2559) 
/opt/xchem-fragalysis-2/maxwin/BulkDock/SCRATCH/511028/C37868-P279

>  <alias>  (2559) 
CNCc1cc(NC(=O)c2cc(Cl)cc3c2cnn3C2CNC2)cc(F)c1N1CCCCC1

>  <HIPPO Compound ID>  (2559) 
37868

>  <fragmenstein_runtime>  (2559) 
13.056536

$$$$
COc1cc2c(C(=O)Nc3cccc(C#N)c3)cc(Cl)cc2n1C1CNC1
     RDKit          3D

 27 30  0  0  0  0  0  0  0  0999 V2000
   -2.3004    5.9823  -15.9787 C   0  0  0  0  0  0  0  0  0  0  0  0
   -3.0724    5.6521  -17.1284 O   0  0  0  0  0  0  0  0  0  0  0  0
   -4.3754    5.4490  -16.9249 C   0  0  0  0  0  0  0  0  0  0  0  0
   -5.1455    5.4829  -15.7809 C   0  0  0  0  0  0  0  0  0  0  0  0
   -6.4756    5.1128  -16.1142 C   0  0  0  0  0  0  0  0  0  0  0  0
   -7.6673    4.9623  -15.3692 C   0  0  0  0  0  0  0  0  0  0  0  0
   -7.6943    5.4859  -13.9864 C   0  0  0  0  0  0  0  0  0  0  0  0
   -7.3541    6.5957  -13.8481 O   0  0  0  0  0  0  0  0  0  0  0  0
   -8.1045    4.4248  -12.9380 N   0  0  0  0  0  0  0  0  0  0  0  0
   -8.2675    4.5318  -11.5558 C   0  0  0  0  0  0  0  0  0  0  0  0
   -8.0933    5.7807  -10.9461 C   0  0  0  0  0  0  0  0  0  0  0  0
   -8.2007    5.9276   -9.5669 C   0  0  0  0  0  0  0  0  0  0  0  0
   -8.4847    4.8179   -8.7852 C   0  0  0  0  0  0  0  0  0  0  0  0
   -8.6782    3.5635   -9.3800 C   0  0  0  0  0  0  0  0  0  0  0  0
   -9.0274    2.4840   -8.5062 C   0  0  0  0  0  0  0  0  0  0  0  0
   -9.3641    1.7465   -7.6771 N   0  0  0  0  0  0  0  0  0  0  0  0
   -8.5697    3.4146  -10.7714 C   0  0  0  0  0  0  0  0  0  0  0  0
   -8.8380    4.5388  -16.0012 C   0  0  0  0  0  0  0  0  0  0  0  0
   -8.8368    4.3400  -17.3791 C   0  0  0  0  0  0  0  0  0  0  0  0
  -10.3123    4.0023  -18.1923 Cl  0  0  0  0  0  0  0  0  0  0  0  0
   -7.6847    4.5167  -18.1500 C   0  0  0  0  0  0  0  0  0  0  0  0
   -6.5046    4.8933  -17.4920 C   0  0  0  0  0  0  0  0  0  0  0  0
   -5.2306    5.1488  -17.9683 N   0  0  0  0  0  0  0  0  0  0  0  0
   -4.9263    5.1345  -19.4286 C   0  0  0  0  0  0  0  0  0  0  0  0
   -4.8599    6.5490  -20.0265 C   0  0  0  0  0  0  0  0  0  0  0  0
   -3.3806    6.4847  -19.9932 N   0  0  0  0  0  0  0  0  0  0  0  0
   -3.4600    5.0151  -19.8639 C   0  0  0  0  0  0  0  0  0  0  0  0
  1  2  1  0
  2  3  1  0
  3  4  2  0
  4  5  1  0
  5  6  2  0
  6  7  1  0
  7  8  2  0
  7  9  1  0
  9 10  1  0
 10 11  2  0
 11 12  1  0
 12 13  2  0
 13 14  1  0
 14 15  1  0
 15 16  3  0
 14 17  2  0
  6 18  1  0
 18 19  2  0
 19 20  1  0
 19 21  1  0
 21 22  2  0
 22 23  1  0
 23 24  1  0
 24 25  1  0
 25 26  1  0
 26 27  1  0
 23  3  1  0
 27 24  1  0
 22  5  1  0
 17 10  1  0
M  END
>  <smiles>  (2560) 
C37874-P280

>  <fragmenstein_outcome>  (2560) 
acceptable

>  <inchikey>  (2560) 
QXWHSIUPKUDZSM-UHFFFAOYSA-N

>  <fragmenstein_mode>  (2560) 
expansion

>  <HIPPO Pose ID>  (2560) 
28545

>  <Energy>  (2560) 
80.511973

>  <fragmenstein_error>  (2560) 


>  <tags>  (2560) 
{'openbind_xx01zvns2b_c1_fragmenstein', 'fragmenstein_placed'}

>  <ref_pdb>  (2560) 
175

>  <scratch_subdir>  (2560) 
/opt/xchem-fragalysis-2/maxwin/BulkDock/SCRATCH/511028/C37874-P280

>  <alias>  (2560) 
COc1cc2c(C(=O)Nc3cccc(C#N)c3)cc(Cl)cc2n1C1CNC1

>  <HIPPO Compound ID>  (2560) 
28393

>  <fragmenstein_runtime>  (2560) 
8.373399

$$$$
N#Cc1cccc(NC(=O)c2cc(Cl)cc3c2cc(CN)n3C2CNC2)c1
     RDKit          3D

 27 30  0  0  0  0  0  0  0  0999 V2000
   -9.3942    1.7373   -7.6821 N   0  0  0  0  0  0  0  0  0  0  0  0
   -9.0432    2.4729   -8.5068 C   0  0  0  0  0  0  0  0  0  0  0  0
   -8.6727    3.5481   -9.3770 C   0  0  0  0  0  0  0  0  0  0  0  0
   -8.4240    4.7888   -8.7744 C   0  0  0  0  0  0  0  0  0  0  0  0
   -8.1161    5.8950   -9.5516 C   0  0  0  0  0  0  0  0  0  0  0  0
   -8.0432    5.7584  -10.9342 C   0  0  0  0  0  0  0  0  0  0  0  0
   -8.2792    4.5240  -11.5528 C   0  0  0  0  0  0  0  0  0  0  0  0
   -8.1757    4.4330  -12.9420 N   0  0  0  0  0  0  0  0  0  0  0  0
   -7.7618    5.4933  -13.9905 C   0  0  0  0  0  0  0  0  0  0  0  0
   -7.5174    6.6292  -13.8634 O   0  0  0  0  0  0  0  0  0  0  0  0
   -7.6878    4.9619  -15.3687 C   0  0  0  0  0  0  0  0  0  0  0  0
   -8.8379    4.5098  -16.0169 C   0  0  0  0  0  0  0  0  0  0  0  0
   -8.8107    4.3166  -17.3932 C   0  0  0  0  0  0  0  0  0  0  0  0
  -10.2668    3.9542  -18.2285 Cl  0  0  0  0  0  0  0  0  0  0  0  0
   -7.6502    4.5212  -18.1443 C   0  0  0  0  0  0  0  0  0  0  0  0
   -6.4875    4.9390  -17.4758 C   0  0  0  0  0  0  0  0  0  0  0  0
   -6.4924    5.1582  -16.0992 C   0  0  0  0  0  0  0  0  0  0  0  0
   -5.1915    5.5948  -15.7545 C   0  0  0  0  0  0  0  0  0  0  0  0
   -4.3999    5.6281  -16.8917 C   0  0  0  0  0  0  0  0  0  0  0  0
   -2.9632    5.9991  -17.0077 C   0  0  0  0  0  0  0  0  0  0  0  0
   -2.4102    6.4812  -15.7445 N   0  0  0  0  0  0  0  0  0  0  0  0
   -5.2171    5.2498  -17.9465 N   0  0  0  0  0  0  0  0  0  0  0  0
   -4.9358    5.1928  -19.4141 C   0  0  0  0  0  0  0  0  0  0  0  0
   -5.0089    6.5740  -20.0844 C   0  0  0  0  0  0  0  0  0  0  0  0
   -3.5391    6.5792  -20.2025 N   0  0  0  0  0  0  0  0  0  0  0  0
   -3.4980    5.1350  -19.9309 C   0  0  0  0  0  0  0  0  0  0  0  0
   -8.6010    3.4100  -10.7721 C   0  0  0  0  0  0  0  0  0  0  0  0
  1  2  3  0
  2  3  1  0
  3  4  2  0
  4  5  1  0
  5  6  2  0
  6  7  1  0
  7  8  1  0
  8  9  1  0
  9 10  2  0
  9 11  1  0
 11 12  2  0
 12 13  1  0
 13 14  1  0
 13 15  2  0
 15 16  1  0
 16 17  2  0
 17 18  1  0
 18 19  2  0
 19 20  1  0
 20 21  1  0
 19 22  1  0
 22 23  1  0
 23 24  1  0
 24 25  1  0
 25 26  1  0
  7 27  2  0
 27  3  1  0
 17 11  1  0
 26 23  1  0
 22 16  1  0
M  END
>  <smiles>  (2561) 
C37884-P280

>  <fragmenstein_outcome>  (2561) 
acceptable

>  <inchikey>  (2561) 
YHLCQEMAHUCREL-UHFFFAOYSA-N

>  <fragmenstein_mode>  (2561) 
expansion

>  <HIPPO Pose ID>  (2561) 
28547

>  <Energy>  (2561) 
60.719471

>  <fragmenstein_error>  (2561) 


>  <tags>  (2561) 
{'openbind_xx01zvns2b_c1_fragmenstein', 'fragmenstein_placed'}

>  <ref_pdb>  (2561) 
175

>  <scratch_subdir>  (2561) 
/opt/xchem-fragalysis-2/maxwin/BulkDock/SCRATCH/511028/C37884-P280

>  <alias>  (2561) 
N#Cc1cccc(NC(=O)c2cc(Cl)cc3c2cc(CN)n3C2CNC2)c1

>  <HIPPO Compound ID>  (2561) 
41508

>  <fragmenstein_runtime>  (2561) 
13.741937

$$$$
N#Cc1cccc(NC(=O)c2cc(CO)cc3c2cnn3C2CNC2)c1
     RDKit          3D

 26 29  0  0  0  0  0  0  0  0999 V2000
   -9.3586    1.6969   -7.5985 N   0  0  0  0  0  0  0  0  0  0  0  0
   -9.0263    2.4395   -8.4242 C   0  0  0  0  0  0  0  0  0  0  0  0
   -8.6950    3.5269   -9.2932 C   0  0  0  0  0  0  0  0  0  0  0  0
   -8.5543    4.7874   -8.6955 C   0  0  0  0  0  0  0  0  0  0  0  0
   -8.3075    5.9075   -9.4733 C   0  0  0  0  0  0  0  0  0  0  0  0
   -8.1845    5.7637  -10.8507 C   0  0  0  0  0  0  0  0  0  0  0  0
   -8.2959    4.5067  -11.4612 C   0  0  0  0  0  0  0  0  0  0  0  0
   -8.0886    4.4093  -12.8371 N   0  0  0  0  0  0  0  0  0  0  0  0
   -7.7689    5.4989  -13.8822 C   0  0  0  0  0  0  0  0  0  0  0  0
   -7.5526    6.6387  -13.7459 O   0  0  0  0  0  0  0  0  0  0  0  0
   -7.6218    4.9821  -15.2574 C   0  0  0  0  0  0  0  0  0  0  0  0
   -8.7032    4.4943  -15.9971 C   0  0  0  0  0  0  0  0  0  0  0  0
   -8.5936    4.3473  -17.3909 C   0  0  0  0  0  0  0  0  0  0  0  0
   -9.7843    3.8544  -18.1822 C   0  0  0  0  0  0  0  0  0  0  0  0
   -9.7217    4.3073  -19.5196 O   0  0  0  0  0  0  0  0  0  0  0  0
   -7.3873    4.6878  -18.0487 C   0  0  0  0  0  0  0  0  0  0  0  0
   -6.3009    5.1387  -17.2834 C   0  0  0  0  0  0  0  0  0  0  0  0
   -6.3972    5.2480  -15.8979 C   0  0  0  0  0  0  0  0  0  0  0  0
   -5.1302    5.6969  -15.4759 C   0  0  0  0  0  0  0  0  0  0  0  0
   -4.2865    5.8707  -16.4877 N   0  0  0  0  0  0  0  0  0  0  0  0
   -5.0374    5.6130  -17.5830 N   0  0  0  0  0  0  0  0  0  0  0  0
   -4.5821    6.1875  -18.8569 C   0  0  0  0  0  0  0  0  0  0  0  0
   -4.8939    5.4397  -20.1413 C   0  0  0  0  0  0  0  0  0  0  0  0
   -3.4900    5.6851  -20.5857 N   0  0  0  0  0  0  0  0  0  0  0  0
   -3.1183    5.7994  -19.1587 C   0  0  0  0  0  0  0  0  0  0  0  0
   -8.5586    3.3786  -10.6815 C   0  0  0  0  0  0  0  0  0  0  0  0
  1  2  3  0
  2  3  1  0
  3  4  2  0
  4  5  1  0
  5  6  2  0
  6  7  1  0
  7  8  1  0
  8  9  1  0
  9 10  2  0
  9 11  1  0
 11 12  2  0
 12 13  1  0
 13 14  1  0
 14 15  1  0
 13 16  2  0
 16 17  1  0
 17 18  2  0
 18 19  1  0
 19 20  2  0
 20 21  1  0
 21 22  1  0
 22 23  1  0
 23 24  1  0
 24 25  1  0
  7 26  2  0
 26  3  1  0
 18 11  1  0
 25 22  1  0
 21 17  1  0
M  END
>  <smiles>  (2562) 
C37910-P280

>  <fragmenstein_outcome>  (2562) 
acceptable

>  <inchikey>  (2562) 
SIFQVDTYBKASIM-UHFFFAOYSA-N

>  <fragmenstein_mode>  (2562) 
expansion

>  <HIPPO Pose ID>  (2562) 
28548

>  <Energy>  (2562) 
89.019553

>  <fragmenstein_error>  (2562) 


>  <tags>  (2562) 
{'openbind_xx01zvns2b_c1_fragmenstein', 'fragmenstein_placed'}

>  <ref_pdb>  (2562) 
175

>  <scratch_subdir>  (2562) 
/opt/xchem-fragalysis-2/maxwin/BulkDock/SCRATCH/511028/C37910-P280

>  <alias>  (2562) 
N#Cc1cccc(NC(=O)c2cc(CO)cc3c2cnn3C2CNC2)c1

>  <HIPPO Compound ID>  (2562) 
37910

>  <fragmenstein_runtime>  (2562) 
7.25576

$$$$
Cc1nn(C2CNC2)c2cc(Cl)cc(C(=O)C(=O)c3cccc(C#N)c3)c12
     RDKit          3D

 27 30  0  0  0  0  0  0  0  0999 V2000
   -4.4208    5.7223  -14.1506 C   0  0  0  0  0  0  0  0  0  0  0  0
   -4.9996    5.5803  -15.5078 C   0  0  0  0  0  0  0  0  0  0  0  0
   -4.2340    5.8490  -16.5632 N   0  0  0  0  0  0  0  0  0  0  0  0
   -5.0360    5.6495  -17.6257 N   0  0  0  0  0  0  0  0  0  0  0  0
   -4.6298    6.2516  -18.9028 C   0  0  0  0  0  0  0  0  0  0  0  0
   -4.9067    5.4682  -20.1738 C   0  0  0  0  0  0  0  0  0  0  0  0
   -3.5244    5.7816  -20.6346 N   0  0  0  0  0  0  0  0  0  0  0  0
   -3.1455    5.9570  -19.2185 C   0  0  0  0  0  0  0  0  0  0  0  0
   -6.2863    5.1718  -17.2901 C   0  0  0  0  0  0  0  0  0  0  0  0
   -7.4063    4.7734  -18.0368 C   0  0  0  0  0  0  0  0  0  0  0  0
   -8.5590    4.3894  -17.3354 C   0  0  0  0  0  0  0  0  0  0  0  0
   -9.9647    3.9588  -18.2318 Cl  0  0  0  0  0  0  0  0  0  0  0  0
   -8.6259    4.4388  -15.9440 C   0  0  0  0  0  0  0  0  0  0  0  0
   -7.5084    4.8611  -15.2178 C   0  0  0  0  0  0  0  0  0  0  0  0
   -7.6068    5.1880  -13.7881 C   0  0  0  0  0  0  0  0  0  0  0  0
   -7.3461    6.3401  -13.4634 O   0  0  0  0  0  0  0  0  0  0  0  0
   -7.9384    4.1327  -12.7516 C   0  0  0  0  0  0  0  0  0  0  0  0
   -7.8688    2.9593  -13.0914 O   0  0  0  0  0  0  0  0  0  0  0  0
   -8.2316    4.4524  -11.3278 C   0  0  0  0  0  0  0  0  0  0  0  0
   -8.2230    5.7555  -10.8132 C   0  0  0  0  0  0  0  0  0  0  0  0
   -8.4031    5.9835   -9.4498 C   0  0  0  0  0  0  0  0  0  0  0  0
   -8.6147    4.9115   -8.5919 C   0  0  0  0  0  0  0  0  0  0  0  0
   -8.6726    3.6068   -9.0916 C   0  0  0  0  0  0  0  0  0  0  0  0
   -8.9669    2.5520   -8.1707 C   0  0  0  0  0  0  0  0  0  0  0  0
   -9.2586    1.8280   -7.3139 N   0  0  0  0  0  0  0  0  0  0  0  0
   -8.4749    3.3752  -10.4543 C   0  0  0  0  0  0  0  0  0  0  0  0
   -6.3094    5.1855  -15.8918 C   0  0  0  0  0  0  0  0  0  0  0  0
  1  2  1  0
  2  3  2  0
  3  4  1  0
  4  5  1  0
  5  6  1  0
  6  7  1  0
  7  8  1  0
  4  9  1  0
  9 10  2  0
 10 11  1  0
 11 12  1  0
 11 13  2  0
 13 14  1  0
 14 15  1  0
 15 16  2  0
 15 17  1  0
 17 18  2  0
 17 19  1  0
 19 20  2  0
 20 21  1  0
 21 22  2  0
 22 23  1  0
 23 24  1  0
 24 25  3  0
 23 26  2  0
 14 27  2  0
 27  2  1  0
  8  5  1  0
 27  9  1  0
 26 19  1  0
M  END
>  <smiles>  (2563) 
C37944-P280

>  <fragmenstein_outcome>  (2563) 
acceptable

>  <inchikey>  (2563) 
HKIBVAYOOMZNJJ-UHFFFAOYSA-N

>  <fragmenstein_mode>  (2563) 
expansion

>  <HIPPO Pose ID>  (2563) 
28549

>  <Energy>  (2563) 
121.187442

>  <fragmenstein_error>  (2563) 


>  <tags>  (2563) 
{'openbind_xx01zvns2b_c1_fragmenstein', 'fragmenstein_placed'}

>  <ref_pdb>  (2563) 
175

>  <scratch_subdir>  (2563) 
/opt/xchem-fragalysis-2/maxwin/BulkDock/SCRATCH/511028/C37944-P280

>  <alias>  (2563) 
Cc1nn(C2CNC2)c2cc(Cl)cc(C(=O)C(=O)c3cccc(C#N)c3)c12

>  <HIPPO Compound ID>  (2563) 
37944

>  <fragmenstein_runtime>  (2563) 
4.060026

$$$$
N#Cc1cc(C(=O)C(=O)c2cc(Cl)cc3c2cnn3C2CNC2)cc2ncccc12
     RDKit          3D

 30 34  0  0  0  0  0  0  0  0999 V2000
   -7.2133    7.5134   -8.0542 N   0  0  0  0  0  0  0  0  0  0  0  0
   -7.5759    6.5440   -8.5801 C   0  0  0  0  0  0  0  0  0  0  0  0
   -8.0004    5.3332   -9.2248 C   0  0  0  0  0  0  0  0  0  0  0  0
   -7.8105    5.2212  -10.6103 C   0  0  0  0  0  0  0  0  0  0  0  0
   -8.1464    4.0397  -11.2686 C   0  0  0  0  0  0  0  0  0  0  0  0
   -7.8381    3.7640  -12.6995 C   0  0  0  0  0  0  0  0  0  0  0  0
   -7.7080    2.6065  -13.0683 O   0  0  0  0  0  0  0  0  0  0  0  0
   -7.6337    4.8846  -13.7022 C   0  0  0  0  0  0  0  0  0  0  0  0
   -7.4985    6.0471  -13.3334 O   0  0  0  0  0  0  0  0  0  0  0  0
   -7.5394    4.6498  -15.1479 C   0  0  0  0  0  0  0  0  0  0  0  0
   -8.6535    4.3050  -15.9146 C   0  0  0  0  0  0  0  0  0  0  0  0
   -8.5593    4.3309  -17.3058 C   0  0  0  0  0  0  0  0  0  0  0  0
   -9.9566    3.9719  -18.2469 Cl  0  0  0  0  0  0  0  0  0  0  0  0
   -7.3817    4.7211  -17.9689 C   0  0  0  0  0  0  0  0  0  0  0  0
   -6.2734    5.0869  -17.1846 C   0  0  0  0  0  0  0  0  0  0  0  0
   -6.3391    5.0212  -15.7873 C   0  0  0  0  0  0  0  0  0  0  0  0
   -5.0589    5.4045  -15.3432 C   0  0  0  0  0  0  0  0  0  0  0  0
   -4.2388    5.6970  -16.3432 N   0  0  0  0  0  0  0  0  0  0  0  0
   -5.0035    5.5752  -17.4505 N   0  0  0  0  0  0  0  0  0  0  0  0
   -4.3945    6.0574  -18.6954 C   0  0  0  0  0  0  0  0  0  0  0  0
   -5.2500    6.8626  -19.6697 C   0  0  0  0  0  0  0  0  0  0  0  0
   -4.4830    6.1952  -20.7577 N   0  0  0  0  0  0  0  0  0  0  0  0
   -4.2880    5.0489  -19.8255 C   0  0  0  0  0  0  0  0  0  0  0  0
   -8.7114    2.9987  -10.5261 C   0  0  0  0  0  0  0  0  0  0  0  0
   -8.9069    3.0809   -9.1569 C   0  0  0  0  0  0  0  0  0  0  0  0
   -9.4291    2.0202   -8.5299 N   0  0  0  0  0  0  0  0  0  0  0  0
   -9.5371    2.0494   -7.1863 C   0  0  0  0  0  0  0  0  0  0  0  0
   -9.1928    3.1348   -6.4145 C   0  0  0  0  0  0  0  0  0  0  0  0
   -8.7001    4.2575   -7.0703 C   0  0  0  0  0  0  0  0  0  0  0  0
   -8.5331    4.2556   -8.4765 C   0  0  0  0  0  0  0  0  0  0  0  0
  1  2  3  0
  2  3  1  0
  3  4  2  0
  4  5  1  0
  5  6  1  0
  6  7  2  0
  6  8  1  0
  8  9  2  0
  8 10  1  0
 10 11  2  0
 11 12  1  0
 12 13  1  0
 12 14  2  0
 14 15  1  0
 15 16  2  0
 16 17  1  0
 17 18  2  0
 18 19  1  0
 19 20  1  0
 20 21  1  0
 21 22  1  0
 22 23  1  0
  5 24  2  0
 24 25  1  0
 25 26  2  0
 26 27  1  0
 27 28  2  0
 28 29  1  0
 29 30  2  0
 30  3  1  0
 16 10  1  0
 23 20  1  0
 30 25  1  0
 19 15  1  0
M  END
>  <smiles>  (2564) 
C37952-P280

>  <fragmenstein_outcome>  (2564) 
acceptable

>  <inchikey>  (2564) 
IJUGQUAIKMLGIM-UHFFFAOYSA-N

>  <fragmenstein_mode>  (2564) 
expansion

>  <HIPPO Pose ID>  (2564) 
28553

>  <Energy>  (2564) 
121.492836

>  <fragmenstein_error>  (2564) 


>  <tags>  (2564) 
{'openbind_xx01zvns2b_c1_fragmenstein', 'fragmenstein_placed'}

>  <ref_pdb>  (2564) 
175

>  <scratch_subdir>  (2564) 
/opt/xchem-fragalysis-2/maxwin/BulkDock/SCRATCH/511028/C37952-P280

>  <alias>  (2564) 
N#Cc1cc(C(=O)C(=O)c2cc(Cl)cc3c2cnn3C2CNC2)cc2ncccc12

>  <HIPPO Compound ID>  (2564) 
19579

>  <fragmenstein_runtime>  (2564) 
4.250506

$$$$
C[C@H]1[C@H](n2ncc3c(C(=O)C(=O)c4cccc(C#N)c4)cc(Cl)cc32)C[C@@]1(C)O
     RDKit          3D

 29 32  0  0  0  0  0  0  0  0999 V2000
   -4.5139    7.2198  -20.9653 C   0  0  0  0  0  0  0  0  0  0  0  0
   -3.7658    6.5446  -19.8338 C   0  0  1  0  0  0  0  0  0  0  0  0
   -4.3435    5.2259  -19.2483 C   0  0  2  0  0  0  0  0  0  0  0  0
   -4.9230    5.3848  -17.8821 N   0  0  0  0  0  0  0  0  0  0  0  0
   -4.1549    5.7938  -16.8501 N   0  0  0  0  0  0  0  0  0  0  0  0
   -4.9411    5.6465  -15.7866 C   0  0  0  0  0  0  0  0  0  0  0  0
   -6.2440    5.2015  -16.1170 C   0  0  0  0  0  0  0  0  0  0  0  0
   -7.4328    4.9158  -15.3978 C   0  0  0  0  0  0  0  0  0  0  0  0
   -7.4137    5.0792  -13.9253 C   0  0  0  0  0  0  0  0  0  0  0  0
   -6.3440    5.1380  -13.3252 O   0  0  0  0  0  0  0  0  0  0  0  0
   -8.6550    5.3158  -13.1035 C   0  0  0  0  0  0  0  0  0  0  0  0
   -9.6459    5.8281  -13.6081 O   0  0  0  0  0  0  0  0  0  0  0  0
   -8.5458    5.1237  -11.6365 C   0  0  0  0  0  0  0  0  0  0  0  0
   -8.2942    6.2843  -10.8933 C   0  0  0  0  0  0  0  0  0  0  0  0
   -8.1892    6.2185   -9.5091 C   0  0  0  0  0  0  0  0  0  0  0  0
   -8.3583    4.9966   -8.8660 C   0  0  0  0  0  0  0  0  0  0  0  0
   -8.6358    3.8304   -9.5970 C   0  0  0  0  0  0  0  0  0  0  0  0
   -8.9228    2.6509   -8.8299 C   0  0  0  0  0  0  0  0  0  0  0  0
   -9.2133    1.8272   -8.0672 N   0  0  0  0  0  0  0  0  0  0  0  0
   -8.7092    3.8828  -10.9993 C   0  0  0  0  0  0  0  0  0  0  0  0
   -8.5663    4.5058  -16.1113 C   0  0  0  0  0  0  0  0  0  0  0  0
   -8.5127    4.3864  -17.5012 C   0  0  0  0  0  0  0  0  0  0  0  0
   -9.9395    3.9370  -18.3502 Cl  0  0  0  0  0  0  0  0  0  0  0  0
   -7.3440    4.6516  -18.2269 C   0  0  0  0  0  0  0  0  0  0  0  0
   -6.2142    5.0639  -17.5081 C   0  0  0  0  0  0  0  0  0  0  0  0
   -2.8928    4.6695  -19.1894 C   0  0  0  0  0  0  0  0  0  0  0  0
   -2.4306    5.7857  -20.1514 C   0  0  2  0  0  0  0  0  0  0  0  0
   -1.1973    6.5507  -19.6742 C   0  0  0  0  0  0  0  0  0  0  0  0
   -2.1800    5.2977  -21.4991 O   0  0  0  0  0  0  0  0  0  0  0  0
  2  1  1  6
  2  3  1  0
  3  4  1  1
  4  5  1  0
  5  6  2  0
  6  7  1  0
  7  8  2  0
  8  9  1  0
  9 10  2  0
  9 11  1  0
 11 12  2  0
 11 13  1  0
 13 14  2  0
 14 15  1  0
 15 16  2  0
 16 17  1  0
 17 18  1  0
 18 19  3  0
 17 20  2  0
  8 21  1  0
 21 22  2  0
 22 23  1  0
 22 24  1  0
 24 25  2  0
  3 26  1  0
 26 27  1  0
 27 28  1  1
 27 29  1  0
 27  2  1  0
 25  4  1  0
 25  7  1  0
 20 13  1  0
M  END
>  <smiles>  (2565) 
C37954-P280

>  <fragmenstein_outcome>  (2565) 
acceptable

>  <inchikey>  (2565) 
PEVFSJPUVTULJR-UHFFFAOYSA-N

>  <fragmenstein_mode>  (2565) 
expansion

>  <HIPPO Pose ID>  (2565) 
28554

>  <Energy>  (2565) 
123.024536

>  <fragmenstein_error>  (2565) 


>  <tags>  (2565) 
{'openbind_xx01zvns2b_c1_fragmenstein', 'fragmenstein_placed'}

>  <ref_pdb>  (2565) 
175

>  <scratch_subdir>  (2565) 
/opt/xchem-fragalysis-2/maxwin/BulkDock/SCRATCH/511028/C37954-P280

>  <alias>  (2565) 
C[C@H]1[C@H](n2ncc3c(C(=O)C(=O)c4cccc(C#N)c4)cc(Cl)cc32)C[C@@]1(C)O

>  <HIPPO Compound ID>  (2565) 
37954

>  <fragmenstein_runtime>  (2565) 
4.899137

$$$$
N#C[C@H]1C[C@H](NC(=O)c2cc(Cl)cc3c2C[C@@]24CCCC[C@@H]2[C@@H]2NCC[C@@H]2N34)C[C@H]2CNC[C@H]21
     RDKit          3D

 34 40  0  0  0  0  0  0  0  0999 V2000
   -5.1217    5.1789   -8.3208 N   0  0  0  0  0  0  0  0  0  0  0  0
   -6.1849    5.2736   -8.7775 C   0  0  0  0  0  0  0  0  0  0  0  0
   -7.5318    5.4703   -9.3461 C   0  0  1  0  0  0  0  0  0  0  0  0
   -7.4903    5.5136  -10.8709 C   0  0  0  0  0  0  0  0  0  0  0  0
   -7.0104    4.1910  -11.4934 C   0  0  2  0  0  0  0  0  0  0  0  0
   -7.2191    4.2053  -12.9339 N   0  0  0  0  0  0  0  0  0  0  0  0
   -7.1762    5.3684  -13.9374 C   0  0  0  0  0  0  0  0  0  0  0  0
   -7.0432    6.5132  -13.7621 O   0  0  0  0  0  0  0  0  0  0  0  0
   -7.2699    4.9294  -15.3486 C   0  0  0  0  0  0  0  0  0  0  0  0
   -8.4761    4.4741  -15.8884 C   0  0  0  0  0  0  0  0  0  0  0  0
   -8.6063    4.4018  -17.2827 C   0  0  0  0  0  0  0  0  0  0  0  0
  -10.1052    3.9635  -18.0061 Cl  0  0  0  0  0  0  0  0  0  0  0  0
   -7.5800    4.8295  -18.1284 C   0  0  0  0  0  0  0  0  0  0  0  0
   -6.4126    5.3239  -17.5817 C   0  0  0  0  0  0  0  0  0  0  0  0
   -6.2324    5.2869  -16.2079 C   0  0  0  0  0  0  0  0  0  0  0  0
   -4.8274    5.6806  -15.8878 C   0  0  0  0  0  0  0  0  0  0  0  0
   -4.3226    6.2754  -17.2484 C   0  0  1  0  0  0  0  0  0  0  0  0
   -4.1377    7.7991  -17.0311 C   0  0  0  0  0  0  0  0  0  0  0  0
   -3.2089    8.4850  -18.0158 C   0  0  0  0  0  0  0  0  0  0  0  0
   -1.8356    7.8304  -18.1036 C   0  0  0  0  0  0  0  0  0  0  0  0
   -1.7865    6.3744  -17.6474 C   0  0  0  0  0  0  0  0  0  0  0  0
   -3.0748    5.5782  -17.8465 C   0  0  2  0  0  0  0  0  0  0  0  0
   -3.4302    5.1548  -19.3003 C   0  0  2  0  0  0  0  0  0  0  0  0
   -2.6991    5.6608  -20.4633 N   0  0  0  0  0  0  0  0  0  0  0  0
   -3.5038    6.6985  -21.0946 C   0  0  0  0  0  0  0  0  0  0  0  0
   -4.9271    6.5768  -20.5774 C   0  0  0  0  0  0  0  0  0  0  0  0
   -4.9085    5.4902  -19.5126 C   0  0  2  0  0  0  0  0  0  0  0  0
   -5.3940    6.0171  -18.2436 N   0  0  0  0  0  0  0  0  0  0  0  0
   -7.5342    2.9316  -10.7798 C   0  0  0  0  0  0  0  0  0  0  0  0
   -8.6744    3.1736   -9.7866 C   0  0  1  0  0  0  0  0  0  0  0  0
   -8.8721    2.0489   -8.7638 C   0  0  0  0  0  0  0  0  0  0  0  0
   -9.3090    2.7169   -7.5254 N   0  0  0  0  0  0  0  0  0  0  0  0
   -8.5344    3.9544   -7.4810 C   0  0  0  0  0  0  0  0  0  0  0  0
   -8.5634    4.4360   -8.9221 C   0  0  1  0  0  0  0  0  0  0  0  0
  1  2  3  0
  3  2  1  6
  3  4  1  0
  4  5  1  0
  5  6  1  6
  6  7  1  0
  7  8  2  0
  7  9  1  0
  9 10  2  0
 10 11  1  0
 11 12  1  0
 11 13  2  0
 13 14  1  0
 14 15  2  0
 15 16  1  0
 17 16  1  1
 17 18  1  0
 18 19  1  0
 19 20  1  0
 20 21  1  0
 22 21  1  6
 22 23  1  0
 23 24  1  6
 24 25  1  0
 25 26  1  0
 27 26  1  6
 27 28  1  0
  5 29  1  0
 30 29  1  1
 30 31  1  0
 31 32  1  0
 32 33  1  0
 34 33  1  1
 34  3  1  0
 15  9  1  0
 22 17  1  0
 27 23  1  0
 34 30  1  0
 28 14  1  0
 28 17  1  0
M  END
>  <smiles>  (2566) 
C37971-P280

>  <fragmenstein_outcome>  (2566) 
acceptable

>  <inchikey>  (2566) 
RXXWLSRGGSICTE-UHFFFAOYSA-N

>  <fragmenstein_mode>  (2566) 
expansion

>  <HIPPO Pose ID>  (2566) 
28558

>  <Energy>  (2566) 
111.635188

>  <fragmenstein_error>  (2566) 


>  <tags>  (2566) 
{'openbind_xx01zvns2b_c1_fragmenstein', 'fragmenstein_placed'}

>  <ref_pdb>  (2566) 
175

>  <scratch_subdir>  (2566) 
/opt/xchem-fragalysis-2/maxwin/BulkDock/SCRATCH/511028/C37971-P280

>  <alias>  (2566) 
N#C[C@H]1C[C@H](NC(=O)c2cc(Cl)cc3c2C[C@@]24CCCC[C@@H]2[C@@H]2NCC[C@@H]2N34)C[C@H]2CNC[C@H]21

>  <HIPPO Compound ID>  (2566) 
37971

>  <fragmenstein_runtime>  (2566) 
11.64332

$$$$
N#C[C@H]1C[C@H](NC(=O)c2cc(Cl)cc3c2CC2(CCNCC2)N3C2CNC2)C[C@H]2CNC[C@@H]21
     RDKit          3D

 33 38  0  0  0  0  0  0  0  0999 V2000
   -7.5886    7.8230   -8.4646 N   0  0  0  0  0  0  0  0  0  0  0  0
   -7.9490    6.8429   -8.9689 C   0  0  0  0  0  0  0  0  0  0  0  0
   -8.4813    5.6343   -9.6053 C   0  0  1  0  0  0  0  0  0  0  0  0
   -8.1842    5.6014  -11.1074 C   0  0  0  0  0  0  0  0  0  0  0  0
   -7.6167    4.2766  -11.6604 C   0  0  2  0  0  0  0  0  0  0  0  0
   -7.6950    4.2832  -13.1088 N   0  0  0  0  0  0  0  0  0  0  0  0
   -7.7733    5.4519  -14.0960 C   0  0  0  0  0  0  0  0  0  0  0  0
   -7.8650    6.5957  -13.9052 O   0  0  0  0  0  0  0  0  0  0  0  0
   -7.6643    5.0021  -15.4880 C   0  0  0  0  0  0  0  0  0  0  0  0
   -8.7714    4.5066  -16.1637 C   0  0  0  0  0  0  0  0  0  0  0  0
   -8.6839    4.3300  -17.5455 C   0  0  0  0  0  0  0  0  0  0  0  0
  -10.1015    3.8971  -18.4110 Cl  0  0  0  0  0  0  0  0  0  0  0  0
   -7.4956    4.5961  -18.2408 C   0  0  0  0  0  0  0  0  0  0  0  0
   -6.3934    5.0764  -17.5454 C   0  0  0  0  0  0  0  0  0  0  0  0
   -6.4968    5.2822  -16.1821 C   0  0  0  0  0  0  0  0  0  0  0  0
   -5.2432    5.8623  -15.6381 C   0  0  0  0  0  0  0  0  0  0  0  0
   -4.3371    6.0110  -16.9114 C   0  0  0  0  0  0  0  0  0  0  0  0
   -3.0380    5.2219  -16.6569 C   0  0  0  0  0  0  0  0  0  0  0  0
   -2.1562    5.8917  -15.5992 C   0  0  0  0  0  0  0  0  0  0  0  0
   -1.8679    7.2857  -15.9259 N   0  0  0  0  0  0  0  0  0  0  0  0
   -3.0976    8.0673  -16.0381 C   0  0  0  0  0  0  0  0  0  0  0  0
   -4.0169    7.5071  -17.1232 C   0  0  0  0  0  0  0  0  0  0  0  0
   -5.1211    5.4331  -18.0558 N   0  0  0  0  0  0  0  0  0  0  0  0
   -4.8008    5.4238  -19.4609 C   0  0  0  0  0  0  0  0  0  0  0  0
   -5.0582    6.7410  -20.2210 C   0  0  0  0  0  0  0  0  0  0  0  0
   -3.8707    6.4349  -21.0666 N   0  0  0  0  0  0  0  0  0  0  0  0
   -3.3514    5.6053  -19.9439 C   0  0  0  0  0  0  0  0  0  0  0  0
   -8.2243    2.9927  -11.0678 C   0  0  0  0  0  0  0  0  0  0  0  0
   -8.7856    3.2091   -9.6709 C   0  0  1  0  0  0  0  0  0  0  0  0
   -8.7378    2.0685   -8.6838 C   0  0  0  0  0  0  0  0  0  0  0  0
   -8.9846    2.7364   -7.3914 N   0  0  0  0  0  0  0  0  0  0  0  0
   -8.5167    4.1252   -7.4893 C   0  0  0  0  0  0  0  0  0  0  0  0
   -8.0749    4.3320   -8.9326 C   0  0  2  0  0  0  0  0  0  0  0  0
  1  2  3  0
  3  2  1  1
  3  4  1  0
  4  5  1  0
  5  6  1  6
  6  7  1  0
  7  8  2  0
  7  9  1  0
  9 10  2  0
 10 11  1  0
 11 12  1  0
 11 13  2  0
 13 14  1  0
 14 15  2  0
 15 16  1  0
 16 17  1  0
 17 18  1  0
 18 19  1  0
 19 20  1  0
 20 21  1  0
 21 22  1  0
 17 23  1  0
 23 24  1  0
 24 25  1  0
 25 26  1  0
 26 27  1  0
  5 28  1  0
 29 28  1  6
 29 30  1  0
 30 31  1  0
 31 32  1  0
 33 32  1  1
 33  3  1  0
 15  9  1  0
 22 17  1  0
 27 24  1  0
 33 29  1  0
 23 14  1  0
M  END
>  <smiles>  (2567) 
C37975-P280

>  <fragmenstein_outcome>  (2567) 
acceptable

>  <inchikey>  (2567) 
BXDLIVSCSQIOEE-UHFFFAOYSA-N

>  <fragmenstein_mode>  (2567) 
expansion

>  <HIPPO Pose ID>  (2567) 
28559

>  <Energy>  (2567) 
90.910333

>  <fragmenstein_error>  (2567) 


>  <tags>  (2567) 
{'openbind_xx01zvns2b_c1_fragmenstein', 'fragmenstein_placed'}

>  <ref_pdb>  (2567) 
175

>  <scratch_subdir>  (2567) 
/opt/xchem-fragalysis-2/maxwin/BulkDock/SCRATCH/511028/C37975-P280

>  <alias>  (2567) 
N#C[C@H]1C[C@H](NC(=O)c2cc(Cl)cc3c2CC2(CCNCC2)N3C2CNC2)C[C@H]2CNC[C@@H]21

>  <HIPPO Compound ID>  (2567) 
26638

>  <fragmenstein_runtime>  (2567) 
5.836495

$$$$
COCCO[C@@]1(C)C(=O)N(C2CNC2)c2cc(Cl)cc(C(=O)N[C@@H]3C[C@H]4CNC[C@@H]4[C@@H](C#N)C3)c21
     RDKit          3D

 35 39  0  0  0  0  0  0  0  0999 V2000
   -0.9942    3.3702  -12.5118 C   0  0  0  0  0  0  0  0  0  0  0  0
   -2.3017    3.4283  -11.9625 O   0  0  0  0  0  0  0  0  0  0  0  0
   -3.3320    3.2065  -12.9254 C   0  0  0  0  0  0  0  0  0  0  0  0
   -3.6431    4.4709  -13.7317 C   0  0  0  0  0  0  0  0  0  0  0  0
   -4.8241    4.2634  -14.5066 O   0  0  0  0  0  0  0  0  0  0  0  0
   -5.1875    5.3213  -15.3891 C   0  0  1  0  0  0  0  0  0  0  0  0
   -5.1639    6.7050  -14.7515 C   0  0  0  0  0  0  0  0  0  0  0  0
   -4.3302    5.4117  -16.7084 C   0  0  0  0  0  0  0  0  0  0  0  0
   -3.1410    5.7000  -16.7550 O   0  0  0  0  0  0  0  0  0  0  0  0
   -5.1747    5.1386  -17.7915 N   0  0  0  0  0  0  0  0  0  0  0  0
   -4.8276    5.1586  -19.2370 C   0  0  0  0  0  0  0  0  0  0  0  0
   -4.7760    6.5662  -19.8651 C   0  0  0  0  0  0  0  0  0  0  0  0
   -3.3000    6.5504  -19.7398 N   0  0  0  0  0  0  0  0  0  0  0  0
   -3.3442    5.0753  -19.6470 C   0  0  0  0  0  0  0  0  0  0  0  0
   -6.4758    4.8712  -17.3354 C   0  0  0  0  0  0  0  0  0  0  0  0
   -7.5734    4.5587  -18.1204 C   0  0  0  0  0  0  0  0  0  0  0  0
   -8.7835    4.3288  -17.4854 C   0  0  0  0  0  0  0  0  0  0  0  0
  -10.1833    3.9955  -18.4105 Cl  0  0  0  0  0  0  0  0  0  0  0  0
   -8.8920    4.4376  -16.1028 C   0  0  0  0  0  0  0  0  0  0  0  0
   -7.7864    4.7855  -15.3127 C   0  0  0  0  0  0  0  0  0  0  0  0
   -8.1168    5.0329  -13.8842 C   0  0  0  0  0  0  0  0  0  0  0  0
   -9.0205    5.7387  -13.6735 O   0  0  0  0  0  0  0  0  0  0  0  0
   -7.2470    4.2150  -12.9198 N   0  0  0  0  0  0  0  0  0  0  0  0
   -7.2407    4.1617  -11.4650 C   0  0  1  0  0  0  0  0  0  0  0  0
   -7.7551    5.4798  -10.8479 C   0  0  0  0  0  0  0  0  0  0  0  0
   -7.7602    5.4922   -9.3044 C   0  0  2  0  0  0  0  0  0  0  0  0
   -6.5562    6.1671   -8.7822 C   0  0  0  0  0  0  0  0  0  0  0  0
   -5.6136    6.6947   -8.3570 N   0  0  0  0  0  0  0  0  0  0  0  0
   -7.8457    4.0759   -8.7402 C   0  0  1  0  0  0  0  0  0  0  0  0
   -8.4814    3.9251   -7.3653 C   0  0  0  0  0  0  0  0  0  0  0  0
   -9.1605    2.6210   -7.3723 N   0  0  0  0  0  0  0  0  0  0  0  0
   -8.9362    2.0030   -8.6978 C   0  0  0  0  0  0  0  0  0  0  0  0
   -8.7053    3.1882   -9.6127 C   0  0  2  0  0  0  0  0  0  0  0  0
   -8.0415    2.9340  -10.9638 C   0  0  0  0  0  0  0  0  0  0  0  0
   -6.5554    4.9774  -15.9367 C   0  0  0  0  0  0  0  0  0  0  0  0
  1  2  1  0
  2  3  1  0
  3  4  1  0
  4  5  1  0
  5  6  1  0
  6  7  1  1
  6  8  1  0
  8  9  2  0
  8 10  1  0
 10 11  1  0
 11 12  1  0
 12 13  1  0
 13 14  1  0
 10 15  1  0
 15 16  2  0
 16 17  1  0
 17 18  1  0
 17 19  2  0
 19 20  1  0
 20 21  1  0
 21 22  2  0
 21 23  1  0
 24 23  1  6
 24 25  1  0
 25 26  1  0
 26 27  1  1
 27 28  3  0
 26 29  1  0
 29 30  1  1
 30 31  1  0
 31 32  1  0
 33 32  1  1
 33 34  1  0
 20 35  2  0
 35  6  1  0
 14 11  1  0
 35 15  1  0
 34 24  1  0
 33 29  1  0
M  END
>  <smiles>  (2568) 
C37994-P280

>  <fragmenstein_outcome>  (2568) 
acceptable

>  <inchikey>  (2568) 
PFJRYLXYZBHVNB-UHFFFAOYSA-N

>  <fragmenstein_mode>  (2568) 
expansion

>  <HIPPO Pose ID>  (2568) 
28562

>  <Energy>  (2568) 
111.439869

>  <fragmenstein_error>  (2568) 


>  <tags>  (2568) 
{'openbind_xx01zvns2b_c1_fragmenstein', 'fragmenstein_placed'}

>  <ref_pdb>  (2568) 
175

>  <scratch_subdir>  (2568) 
/opt/xchem-fragalysis-2/maxwin/BulkDock/SCRATCH/511028/C37994-P280

>  <alias>  (2568) 
COCCO[C@@]1(C)C(=O)N(C2CNC2)c2cc(Cl)cc(C(=O)N[C@@H]3C[C@H]4CNC[C@@H]4[C@@H](C#N)C3)c21

>  <HIPPO Compound ID>  (2568) 
37994

>  <fragmenstein_runtime>  (2568) 
11.109626

$$$$
N#Cc1cc(CN)cc(NC(=O)c2cc(Cl)cc3c2c[n+]([O-])n3C2CNC2)c1
     RDKit          3D

 28 31  0  0  0  0  0  0  0  0999 V2000
   -9.4032    1.7436   -7.7204 N   0  0  0  0  0  0  0  0  0  0  0  0
   -9.0531    2.4772   -8.5472 C   0  0  0  0  0  0  0  0  0  0  0  0
   -8.6780    3.5502   -9.4187 C   0  0  0  0  0  0  0  0  0  0  0  0
   -8.4096    4.7866   -8.8148 C   0  0  0  0  0  0  0  0  0  0  0  0
   -8.0911    5.9028   -9.5864 C   0  0  0  0  0  0  0  0  0  0  0  0
   -7.7774    7.2245   -8.9366 C   0  0  0  0  0  0  0  0  0  0  0  0
   -6.3461    7.3553   -8.6855 N   0  0  0  0  0  0  0  0  0  0  0  0
   -8.0162    5.7526  -10.9752 C   0  0  0  0  0  0  0  0  0  0  0  0
   -8.2723    4.5216  -11.5939 C   0  0  0  0  0  0  0  0  0  0  0  0
   -8.1677    4.4252  -12.9836 N   0  0  0  0  0  0  0  0  0  0  0  0
   -7.7039    5.4666  -14.0318 C   0  0  0  0  0  0  0  0  0  0  0  0
   -7.4109    6.5913  -13.9043 O   0  0  0  0  0  0  0  0  0  0  0  0
   -7.6603    4.9406  -15.4153 C   0  0  0  0  0  0  0  0  0  0  0  0
   -8.8328    4.4940  -16.0341 C   0  0  0  0  0  0  0  0  0  0  0  0
   -8.8552    4.2960  -17.4123 C   0  0  0  0  0  0  0  0  0  0  0  0
  -10.3443    3.9640  -18.2000 Cl  0  0  0  0  0  0  0  0  0  0  0  0
   -7.7217    4.4774  -18.2057 C   0  0  0  0  0  0  0  0  0  0  0  0
   -6.5495    4.9014  -17.5755 C   0  0  0  0  0  0  0  0  0  0  0  0
   -6.4811    5.1464  -16.1783 C   0  0  0  0  0  0  0  0  0  0  0  0
   -5.1525    5.6265  -15.8264 C   0  0  0  0  0  0  0  0  0  0  0  0
   -4.4380    5.6733  -16.9608 N   0  0  0  0  0  0  0  0  0  0  0  0
   -3.2569    6.0471  -17.1445 O   0  0  0  0  0  0  0  0  0  0  0  0
   -5.2931    5.2243  -18.0581 N   0  0  0  0  0  0  0  0  0  0  0  0
   -4.9499    5.2103  -19.5018 C   0  0  0  0  0  0  0  0  0  0  0  0
   -4.7749    6.6206  -20.0815 C   0  0  0  0  0  0  0  0  0  0  0  0
   -3.3087    6.4698  -19.9808 N   0  0  0  0  0  0  0  0  0  0  0  0
   -3.4671    5.0103  -19.8438 C   0  0  0  0  0  0  0  0  0  0  0  0
   -8.6136    3.4137  -10.8135 C   0  0  0  0  0  0  0  0  0  0  0  0
  1  2  3  0
  2  3  1  0
  3  4  2  0
  4  5  1  0
  5  6  1  0
  6  7  1  0
  5  8  2  0
  8  9  1  0
  9 10  1  0
 10 11  1  0
 11 12  2  0
 11 13  1  0
 13 14  2  0
 14 15  1  0
 15 16  1  0
 15 17  2  0
 17 18  1  0
 18 19  2  0
 19 20  1  0
 20 21  2  0
 21 22  1  0
 21 23  1  0
 23 24  1  0
 24 25  1  0
 25 26  1  0
 26 27  1  0
  9 28  2  0
 28  3  1  0
 19 13  1  0
 27 24  1  0
 23 18  1  0
M  CHG  2  21   1  22  -1
M  END
>  <smiles>  (2569) 
C37987-P280

>  <fragmenstein_outcome>  (2569) 
acceptable

>  <inchikey>  (2569) 
DSUHDKAMQXRJBD-UHFFFAOYSA-N

>  <fragmenstein_mode>  (2569) 
expansion

>  <HIPPO Pose ID>  (2569) 
28563

>  <Energy>  (2569) 
59.796651

>  <fragmenstein_error>  (2569) 


>  <tags>  (2569) 
{'openbind_xx01zvns2b_c1_fragmenstein', 'fragmenstein_placed'}

>  <ref_pdb>  (2569) 
175

>  <scratch_subdir>  (2569) 
/opt/xchem-fragalysis-2/maxwin/BulkDock/SCRATCH/511028/C37987-P280

>  <alias>  (2569) 
N#Cc1cc(CN)cc(NC(=O)c2cc(Cl)cc3c2c[n+]([O-])n3C2CNC2)c1

>  <HIPPO Compound ID>  (2569) 
24148

>  <fragmenstein_runtime>  (2569) 
8.956573

$$$$
N#Cc1cc(NC(=O)c2cc(Cl)cc3c2c[n+]([O-])n3C2CNC2)cc2c1C(=O)NC2
     RDKit          3D

 30 34  0  0  0  0  0  0  0  0999 V2000
   -7.4082    7.3851   -7.8956 N   0  0  0  0  0  0  0  0  0  0  0  0
   -7.7330    6.4221   -8.4574 C   0  0  0  0  0  0  0  0  0  0  0  0
   -8.0996    5.2653   -9.2140 C   0  0  0  0  0  0  0  0  0  0  0  0
   -8.0802    5.3034  -10.6179 C   0  0  0  0  0  0  0  0  0  0  0  0
   -8.3922    4.1642  -11.3853 C   0  0  0  0  0  0  0  0  0  0  0  0
   -8.3023    4.2052  -12.7790 N   0  0  0  0  0  0  0  0  0  0  0  0
   -7.7340    5.2938  -13.7161 C   0  0  0  0  0  0  0  0  0  0  0  0
   -7.3221    6.3600  -13.4757 O   0  0  0  0  0  0  0  0  0  0  0  0
   -7.6669    4.8691  -15.1378 C   0  0  0  0  0  0  0  0  0  0  0  0
   -8.8188    4.5101  -15.8401 C   0  0  0  0  0  0  0  0  0  0  0  0
   -8.7772    4.4088  -17.2286 C   0  0  0  0  0  0  0  0  0  0  0  0
  -10.2244    4.0649  -18.0930 Cl  0  0  0  0  0  0  0  0  0  0  0  0
   -7.6154    4.6885  -17.9611 C   0  0  0  0  0  0  0  0  0  0  0  0
   -6.4514    5.0025  -17.2499 C   0  0  0  0  0  0  0  0  0  0  0  0
   -6.4368    5.0383  -15.8233 C   0  0  0  0  0  0  0  0  0  0  0  0
   -5.0829    5.2692  -15.3396 C   0  0  0  0  0  0  0  0  0  0  0  0
   -4.3063    5.3821  -16.4212 N   0  0  0  0  0  0  0  0  0  0  0  0
   -3.0675    5.5387  -16.5315 O   0  0  0  0  0  0  0  0  0  0  0  0
   -5.1572    5.3549  -17.6067 N   0  0  0  0  0  0  0  0  0  0  0  0
   -4.7218    6.1604  -18.7606 C   0  0  0  0  0  0  0  0  0  0  0  0
   -5.4319    6.0080  -20.0947 C   0  0  0  0  0  0  0  0  0  0  0  0
   -4.1032    6.1345  -20.7466 N   0  0  0  0  0  0  0  0  0  0  0  0
   -3.5129    5.5552  -19.5133 C   0  0  0  0  0  0  0  0  0  0  0  0
   -8.7440    2.9700  -10.7514 C   0  0  0  0  0  0  0  0  0  0  0  0
   -8.7572    2.9339   -9.3629 C   0  0  0  0  0  0  0  0  0  0  0  0
   -8.4448    4.0712   -8.6159 C   0  0  0  0  0  0  0  0  0  0  0  0
   -8.5359    3.7079   -7.1942 C   0  0  0  0  0  0  0  0  0  0  0  0
   -8.2512    4.4154   -6.2485 O   0  0  0  0  0  0  0  0  0  0  0  0
   -8.9888    2.4093   -7.1430 N   0  0  0  0  0  0  0  0  0  0  0  0
   -9.0034    1.7830   -8.4441 C   0  0  0  0  0  0  0  0  0  0  0  0
  1  2  3  0
  2  3  1  0
  3  4  2  0
  4  5  1  0
  5  6  1  0
  6  7  1  0
  7  8  2  0
  7  9  1  0
  9 10  2  0
 10 11  1  0
 11 12  1  0
 11 13  2  0
 13 14  1  0
 14 15  2  0
 15 16  1  0
 16 17  2  0
 17 18  1  0
 17 19  1  0
 19 20  1  0
 20 21  1  0
 21 22  1  0
 22 23  1  0
  5 24  2  0
 24 25  1  0
 25 26  2  0
 26 27  1  0
 27 28  2  0
 27 29  1  0
 29 30  1  0
 26  3  1  0
 15  9  1  0
 23 20  1  0
 30 25  1  0
 19 14  1  0
M  CHG  2  17   1  18  -1
M  END
>  <smiles>  (2570) 
C38006-P280

>  <fragmenstein_outcome>  (2570) 
acceptable

>  <inchikey>  (2570) 
ZOMUTWCHAPGCMM-UHFFFAOYSA-N

>  <fragmenstein_mode>  (2570) 
expansion

>  <HIPPO Pose ID>  (2570) 
28564

>  <Energy>  (2570) 
44.862022

>  <fragmenstein_error>  (2570) 


>  <tags>  (2570) 
{'openbind_xx01zvns2b_c1_fragmenstein', 'fragmenstein_placed'}

>  <ref_pdb>  (2570) 
175

>  <scratch_subdir>  (2570) 
/opt/xchem-fragalysis-2/maxwin/BulkDock/SCRATCH/511028/C38006-P280

>  <alias>  (2570) 
N#Cc1cc(NC(=O)c2cc(Cl)cc3c2c[n+]([O-])n3C2CNC2)cc2c1C(=O)NC2

>  <HIPPO Compound ID>  (2570) 
38006

>  <fragmenstein_runtime>  (2570) 
4.055394

$$$$
N#C[C@@H]1C[C@@H](NC(=O)c2cc(Cl)cc3c2c[n+]([O-])n3C2CNC2)C[C@H]2CNC[C@@H]21
     RDKit          3D

 29 33  0  0  0  0  0  0  0  0999 V2000
   -8.4872    7.5616   -8.3238 N   0  0  0  0  0  0  0  0  0  0  0  0
   -7.9609    6.6273   -8.7610 C   0  0  0  0  0  0  0  0  0  0  0  0
   -7.1967    5.4799   -9.2541 C   0  0  2  0  0  0  0  0  0  0  0  0
   -7.1459    5.4566  -10.7913 C   0  0  0  0  0  0  0  0  0  0  0  0
   -8.3470    4.7702  -11.4671 C   0  0  1  0  0  0  0  0  0  0  0  0
   -8.1588    4.7329  -12.9008 N   0  0  0  0  0  0  0  0  0  0  0  0
   -6.9682    4.2516  -13.7363 C   0  0  0  0  0  0  0  0  0  0  0  0
   -5.9775    3.7365  -13.4106 O   0  0  0  0  0  0  0  0  0  0  0  0
   -7.1306    4.5932  -15.1819 C   0  0  0  0  0  0  0  0  0  0  0  0
   -8.2966    4.2926  -15.8984 C   0  0  0  0  0  0  0  0  0  0  0  0
   -8.3174    4.4543  -17.2820 C   0  0  0  0  0  0  0  0  0  0  0  0
   -9.7401    4.0178  -18.1584 Cl  0  0  0  0  0  0  0  0  0  0  0  0
   -7.2120    4.9588  -17.9881 C   0  0  0  0  0  0  0  0  0  0  0  0
   -6.0686    5.3277  -17.2612 C   0  0  0  0  0  0  0  0  0  0  0  0
   -6.0029    5.1360  -15.8481 C   0  0  0  0  0  0  0  0  0  0  0  0
   -4.6988    5.5297  -15.3390 C   0  0  0  0  0  0  0  0  0  0  0  0
   -3.9828    5.9404  -16.3837 N   0  0  0  0  0  0  0  0  0  0  0  0
   -2.8033    6.3643  -16.4371 O   0  0  0  0  0  0  0  0  0  0  0  0
   -4.8246    5.8602  -17.5803 N   0  0  0  0  0  0  0  0  0  0  0  0
   -4.2679    6.3303  -18.8543 C   0  0  0  0  0  0  0  0  0  0  0  0
   -5.1803    7.0209  -19.8662 C   0  0  0  0  0  0  0  0  0  0  0  0
   -4.3965    6.3207  -20.9189 N   0  0  0  0  0  0  0  0  0  0  0  0
   -4.1045    5.2560  -19.9221 C   0  0  0  0  0  0  0  0  0  0  0  0
   -8.5836    3.3650  -10.8863 C   0  0  0  0  0  0  0  0  0  0  0  0
   -8.8385    3.5241   -9.3996 C   0  0  1  0  0  0  0  0  0  0  0  0
   -9.0570    2.2888   -8.5490 C   0  0  0  0  0  0  0  0  0  0  0  0
   -8.8686    2.7877   -7.1691 N   0  0  0  0  0  0  0  0  0  0  0  0
   -8.1108    4.0486   -7.2409 C   0  0  0  0  0  0  0  0  0  0  0  0
   -7.6521    4.1407   -8.6910 C   0  0  2  0  0  0  0  0  0  0  0  0
  1  2  3  0
  3  2  1  6
  3  4  1  0
  4  5  1  0
  5  6  1  6
  6  7  1  0
  7  8  2  0
  7  9  1  0
  9 10  2  0
 10 11  1  0
 11 12  1  0
 11 13  2  0
 13 14  1  0
 14 15  2  0
 15 16  1  0
 16 17  2  0
 17 18  1  0
 17 19  1  0
 19 20  1  0
 20 21  1  0
 21 22  1  0
 22 23  1  0
  5 24  1  0
 25 24  1  6
 25 26  1  0
 26 27  1  0
 27 28  1  0
 29 28  1  1
 29  3  1  0
 15  9  1  0
 23 20  1  0
 29 25  1  0
 19 14  1  0
M  CHG  2  17   1  18  -1
M  END
>  <smiles>  (2571) 
C37970-P280

>  <fragmenstein_outcome>  (2571) 
acceptable

>  <inchikey>  (2571) 
NLYQLRDVZNIXEE-UHFFFAOYSA-N

>  <fragmenstein_mode>  (2571) 
expansion

>  <HIPPO Pose ID>  (2571) 
28565

>  <Energy>  (2571) 
54.293922

>  <fragmenstein_error>  (2571) 


>  <tags>  (2571) 
{'openbind_xx01zvns2b_c1_fragmenstein', 'fragmenstein_placed'}

>  <ref_pdb>  (2571) 
175

>  <scratch_subdir>  (2571) 
/opt/xchem-fragalysis-2/maxwin/BulkDock/SCRATCH/511028/C37970-P280

>  <alias>  (2571) 
N#C[C@@H]1C[C@@H](NC(=O)c2cc(Cl)cc3c2c[n+]([O-])n3C2CNC2)C[C@H]2CNC[C@@H]21

>  <HIPPO Compound ID>  (2571) 
37970

>  <fragmenstein_runtime>  (2571) 
12.720942

$$$$
N#C[C@@H]1C[C@@H](NC(=O)c2cc(Cl)cc3c2cnn3C2(N)CNC2)C[C@H]2CNC[C@H]21
     RDKit          3D

 29 33  0  0  0  0  0  0  0  0999 V2000
   -6.2145    6.7459   -7.7086 N   0  0  0  0  0  0  0  0  0  0  0  0
   -6.6556    5.8876   -8.3537 C   0  0  0  0  0  0  0  0  0  0  0  0
   -7.2095    4.7658   -9.1337 C   0  0  2  0  0  0  0  0  0  0  0  0
   -7.3596    5.1559  -10.6133 C   0  0  0  0  0  0  0  0  0  0  0  0
   -8.4002    4.3090  -11.3628 C   0  0  1  0  0  0  0  0  0  0  0  0
   -8.1399    4.2923  -12.7815 N   0  0  0  0  0  0  0  0  0  0  0  0
   -7.8012    5.4345  -13.7451 C   0  0  0  0  0  0  0  0  0  0  0  0
   -7.6018    6.5619  -13.5382 O   0  0  0  0  0  0  0  0  0  0  0  0
   -7.6714    4.9706  -15.1394 C   0  0  0  0  0  0  0  0  0  0  0  0
   -8.7771    4.4710  -15.8406 C   0  0  0  0  0  0  0  0  0  0  0  0
   -8.6935    4.2857  -17.2185 C   0  0  0  0  0  0  0  0  0  0  0  0
  -10.0929    3.8747  -18.1285 Cl  0  0  0  0  0  0  0  0  0  0  0  0
   -7.5184    4.5506  -17.9228 C   0  0  0  0  0  0  0  0  0  0  0  0
   -6.4334    5.0730  -17.2024 C   0  0  0  0  0  0  0  0  0  0  0  0
   -6.4806    5.2646  -15.8268 C   0  0  0  0  0  0  0  0  0  0  0  0
   -5.2175    5.7996  -15.4956 C   0  0  0  0  0  0  0  0  0  0  0  0
   -4.4393    5.9809  -16.5626 N   0  0  0  0  0  0  0  0  0  0  0  0
   -5.2238    5.6137  -17.5943 N   0  0  0  0  0  0  0  0  0  0  0  0
   -4.9639    6.0343  -18.9877 C   0  0  0  0  0  0  0  0  0  0  0  0
   -6.0863    6.6445  -19.7430 N   0  0  0  0  0  0  0  0  0  0  0  0
   -3.6962    6.8772  -19.2511 C   0  0  0  0  0  0  0  0  0  0  0  0
   -3.4609    6.0588  -20.4879 N   0  0  0  0  0  0  0  0  0  0  0  0
   -4.2271    4.9763  -19.8102 C   0  0  0  0  0  0  0  0  0  0  0  0
   -8.5487    2.9217  -10.7457 C   0  0  0  0  0  0  0  0  0  0  0  0
   -9.0988    3.0777   -9.3285 C   0  0  1  0  0  0  0  0  0  0  0  0
   -8.9079    1.8964   -8.4007 C   0  0  0  0  0  0  0  0  0  0  0  0
   -9.1576    2.5070   -7.0901 N   0  0  0  0  0  0  0  0  0  0  0  0
   -8.4558    3.7890   -7.1049 C   0  0  0  0  0  0  0  0  0  0  0  0
   -8.5400    4.2800   -8.5519 C   0  0  1  0  0  0  0  0  0  0  0  0
  1  2  3  0
  3  2  1  1
  3  4  1  0
  4  5  1  0
  5  6  1  6
  6  7  1  0
  7  8  2  0
  7  9  1  0
  9 10  2  0
 10 11  1  0
 11 12  1  0
 11 13  2  0
 13 14  1  0
 14 15  2  0
 15 16  1  0
 16 17  2  0
 17 18  1  0
 18 19  1  0
 19 20  1  0
 19 21  1  0
 21 22  1  0
 22 23  1  0
  5 24  1  0
 25 24  1  6
 25 26  1  0
 26 27  1  0
 27 28  1  0
 29 28  1  1
 29  3  1  0
 15  9  1  0
 23 19  1  0
 29 25  1  0
 18 14  1  0
M  END
>  <smiles>  (2572) 
C38002-P280

>  <fragmenstein_outcome>  (2572) 
acceptable

>  <inchikey>  (2572) 
OYXDLXXZXFYXPX-UHFFFAOYSA-N

>  <fragmenstein_mode>  (2572) 
expansion

>  <HIPPO Pose ID>  (2572) 
28566

>  <Energy>  (2572) 
124.107989

>  <fragmenstein_error>  (2572) 


>  <tags>  (2572) 
{'openbind_xx01zvns2b_c1_fragmenstein', 'fragmenstein_placed'}

>  <ref_pdb>  (2572) 
175

>  <scratch_subdir>  (2572) 
/opt/xchem-fragalysis-2/maxwin/BulkDock/SCRATCH/511028/C38002-P280

>  <alias>  (2572) 
N#C[C@@H]1C[C@@H](NC(=O)c2cc(Cl)cc3c2cnn3C2(N)CNC2)C[C@H]2CNC[C@H]21

>  <HIPPO Compound ID>  (2572) 
41748

>  <fragmenstein_runtime>  (2572) 
8.889124

$$$$
N[C@H](c1ccncc1)c1cccc(NC(=O)c2cc(Cl)cc3c2c[n+]([O-])n3C2CNC2)c1
     RDKit          3D

 32 36  0  0  0  0  0  0  0  0999 V2000
   -5.9717    5.9531   -8.2430 N   0  0  0  0  0  0  0  0  0  0  0  0
   -7.1927    6.5349   -8.7900 C   0  0  2  0  0  0  0  0  0  0  0  0
   -7.8148    7.4100   -7.7295 C   0  0  0  0  0  0  0  0  0  0  0  0
   -7.9088    8.7851   -7.9726 C   0  0  0  0  0  0  0  0  0  0  0  0
   -8.1942    9.6268   -6.9135 C   0  0  0  0  0  0  0  0  0  0  0  0
   -8.3802    9.2057   -5.6442 N   0  0  0  0  0  0  0  0  0  0  0  0
   -8.3382    7.8788   -5.4338 C   0  0  0  0  0  0  0  0  0  0  0  0
   -8.0760    6.9532   -6.4268 C   0  0  0  0  0  0  0  0  0  0  0  0
   -7.9926    5.4590   -9.4952 C   0  0  0  0  0  0  0  0  0  0  0  0
   -8.5115    4.3323   -8.8442 C   0  0  0  0  0  0  0  0  0  0  0  0
   -8.9630    3.2346   -9.5827 C   0  0  0  0  0  0  0  0  0  0  0  0
   -8.9083    3.2475  -10.9785 C   0  0  0  0  0  0  0  0  0  0  0  0
   -8.4298    4.3695  -11.6442 C   0  0  0  0  0  0  0  0  0  0  0  0
   -8.3079    4.3640  -13.0319 N   0  0  0  0  0  0  0  0  0  0  0  0
   -7.7539    5.4398  -13.9961 C   0  0  0  0  0  0  0  0  0  0  0  0
   -7.3848    6.5284  -13.7850 O   0  0  0  0  0  0  0  0  0  0  0  0
   -7.6829    4.9743  -15.4002 C   0  0  0  0  0  0  0  0  0  0  0  0
   -8.8337    4.5203  -16.0532 C   0  0  0  0  0  0  0  0  0  0  0  0
   -8.8155    4.3224  -17.4298 C   0  0  0  0  0  0  0  0  0  0  0  0
  -10.2773    3.9515  -18.2491 Cl  0  0  0  0  0  0  0  0  0  0  0  0
   -7.6624    4.5232  -18.1895 C   0  0  0  0  0  0  0  0  0  0  0  0
   -6.5091    4.9504  -17.5237 C   0  0  0  0  0  0  0  0  0  0  0  0
   -6.4807    5.1850  -16.1249 C   0  0  0  0  0  0  0  0  0  0  0  0
   -5.1562    5.6432  -15.7308 C   0  0  0  0  0  0  0  0  0  0  0  0
   -4.4064    5.6920  -16.8430 N   0  0  0  0  0  0  0  0  0  0  0  0
   -3.2076    6.0223  -16.9800 O   0  0  0  0  0  0  0  0  0  0  0  0
   -5.2375    5.2768  -17.9692 N   0  0  0  0  0  0  0  0  0  0  0  0
   -4.8958    5.3041  -19.4009 C   0  0  0  0  0  0  0  0  0  0  0  0
   -4.8794    6.7280  -19.9847 C   0  0  0  0  0  0  0  0  0  0  0  0
   -3.7870    6.2754  -20.8911 N   0  0  0  0  0  0  0  0  0  0  0  0
   -3.4179    5.2836  -19.8331 C   0  0  0  0  0  0  0  0  0  0  0  0
   -7.9981    5.4699  -10.9043 C   0  0  0  0  0  0  0  0  0  0  0  0
  2  1  1  1
  2  3  1  0
  3  4  2  0
  4  5  1  0
  5  6  2  0
  6  7  1  0
  7  8  2  0
  2  9  1  0
  9 10  2  0
 10 11  1  0
 11 12  2  0
 12 13  1  0
 13 14  1  0
 14 15  1  0
 15 16  2  0
 15 17  1  0
 17 18  2  0
 18 19  1  0
 19 20  1  0
 19 21  2  0
 21 22  1  0
 22 23  2  0
 23 24  1  0
 24 25  2  0
 25 26  1  0
 25 27  1  0
 27 28  1  0
 28 29  1  0
 29 30  1  0
 30 31  1  0
 13 32  2  0
  8  3  1  0
 32  9  1  0
 23 17  1  0
 31 28  1  0
 27 22  1  0
M  CHG  2  25   1  26  -1
M  END
>  <smiles>  (2573) 
C38009-P280

>  <fragmenstein_outcome>  (2573) 
acceptable

>  <inchikey>  (2573) 
HQNCKAAUNQBDIG-UHFFFAOYSA-N

>  <fragmenstein_mode>  (2573) 
expansion

>  <HIPPO Pose ID>  (2573) 
28567

>  <Energy>  (2573) 
79.392364

>  <fragmenstein_error>  (2573) 


>  <tags>  (2573) 
{'openbind_xx01zvns2b_c1_fragmenstein', 'fragmenstein_placed'}

>  <ref_pdb>  (2573) 
175

>  <scratch_subdir>  (2573) 
/opt/xchem-fragalysis-2/maxwin/BulkDock/SCRATCH/511028/C38009-P280

>  <alias>  (2573) 
N[C@H](c1ccncc1)c1cccc(NC(=O)c2cc(Cl)cc3c2c[n+]([O-])n3C2CNC2)c1

>  <HIPPO Compound ID>  (2573) 
38009

>  <fragmenstein_runtime>  (2573) 
16.913852

$$$$
N[C@@H](c1ccncc1)c1cccc(NC(=O)c2cc(Cl)cc3c2c[n+]([O-])n3C2CNC2)c1
     RDKit          3D

 32 36  0  0  0  0  0  0  0  0999 V2000
   -6.7556    5.3233   -7.2900 N   0  0  0  0  0  0  0  0  0  0  0  0
   -7.9565    5.8288   -7.9701 C   0  0  1  0  0  0  0  0  0  0  0  0
   -7.8649    7.3330   -7.9234 C   0  0  0  0  0  0  0  0  0  0  0  0
   -7.2501    8.1402   -8.8725 C   0  0  0  0  0  0  0  0  0  0  0  0
   -7.0939    9.4876   -8.5836 C   0  0  0  0  0  0  0  0  0  0  0  0
   -7.4740   10.0763   -7.4289 N   0  0  0  0  0  0  0  0  0  0  0  0
   -8.0470    9.2880   -6.5066 C   0  0  0  0  0  0  0  0  0  0  0  0
   -8.2470    7.9370   -6.6980 C   0  0  0  0  0  0  0  0  0  0  0  0
   -8.2560    4.9496   -9.1763 C   0  0  0  0  0  0  0  0  0  0  0  0
   -8.7460    3.6652   -8.8173 C   0  0  0  0  0  0  0  0  0  0  0  0
   -8.9361    2.6550   -9.7417 C   0  0  0  0  0  0  0  0  0  0  0  0
   -8.6565    2.9051  -11.0698 C   0  0  0  0  0  0  0  0  0  0  0  0
   -8.1969    4.1588  -11.4787 C   0  0  0  0  0  0  0  0  0  0  0  0
   -7.9534    4.2712  -12.8469 N   0  0  0  0  0  0  0  0  0  0  0  0
   -7.4159    5.4556  -13.6749 C   0  0  0  0  0  0  0  0  0  0  0  0
   -7.0195    6.4982  -13.3341 O   0  0  0  0  0  0  0  0  0  0  0  0
   -7.4172    5.1000  -15.1274 C   0  0  0  0  0  0  0  0  0  0  0  0
   -8.5768    4.5751  -15.7268 C   0  0  0  0  0  0  0  0  0  0  0  0
   -8.6113    4.3250  -17.0956 C   0  0  0  0  0  0  0  0  0  0  0  0
  -10.0766    3.8352  -17.8401 Cl  0  0  0  0  0  0  0  0  0  0  0  0
   -7.5057    4.5574  -17.9090 C   0  0  0  0  0  0  0  0  0  0  0  0
   -6.3533    5.0719  -17.3069 C   0  0  0  0  0  0  0  0  0  0  0  0
   -6.2699    5.3569  -15.9182 C   0  0  0  0  0  0  0  0  0  0  0  0
   -4.9496    5.8826  -15.6096 C   0  0  0  0  0  0  0  0  0  0  0  0
   -4.2585    5.9268  -16.7611 N   0  0  0  0  0  0  0  0  0  0  0  0
   -3.0952    6.3339  -16.9748 O   0  0  0  0  0  0  0  0  0  0  0  0
   -5.1183    5.4285  -17.8243 N   0  0  0  0  0  0  0  0  0  0  0  0
   -4.8208    5.3177  -19.2583 C   0  0  0  0  0  0  0  0  0  0  0  0
   -4.9305    6.6509  -20.0152 C   0  0  0  0  0  0  0  0  0  0  0  0
   -3.8766    6.1256  -20.9373 N   0  0  0  0  0  0  0  0  0  0  0  0
   -3.3611    5.3555  -19.7520 C   0  0  0  0  0  0  0  0  0  0  0  0
   -7.9953    5.1858  -10.5379 C   0  0  0  0  0  0  0  0  0  0  0  0
  2  1  1  6
  2  3  1  0
  3  4  2  0
  4  5  1  0
  5  6  2  0
  6  7  1  0
  7  8  2  0
  2  9  1  0
  9 10  2  0
 10 11  1  0
 11 12  2  0
 12 13  1  0
 13 14  1  0
 14 15  1  0
 15 16  2  0
 15 17  1  0
 17 18  2  0
 18 19  1  0
 19 20  1  0
 19 21  2  0
 21 22  1  0
 22 23  2  0
 23 24  1  0
 24 25  2  0
 25 26  1  0
 25 27  1  0
 27 28  1  0
 28 29  1  0
 29 30  1  0
 30 31  1  0
 13 32  2  0
  8  3  1  0
 32  9  1  0
 23 17  1  0
 31 28  1  0
 27 22  1  0
M  CHG  2  25   1  26  -1
M  END
>  <smiles>  (2574) 
C38009-P181

>  <fragmenstein_outcome>  (2574) 
acceptable

>  <inchikey>  (2574) 
QABYHKMCPXOYCS-UHFFFAOYSA-N

>  <fragmenstein_mode>  (2574) 
expansion

>  <HIPPO Pose ID>  (2574) 
28568

>  <Energy>  (2574) 
83.174989

>  <fragmenstein_error>  (2574) 


>  <tags>  (2574) 
{'openbind_xx01zvns2b_c1_fragmenstein', 'fragmenstein_placed'}

>  <ref_pdb>  (2574) 
175

>  <scratch_subdir>  (2574) 
/opt/xchem-fragalysis-2/maxwin/BulkDock/SCRATCH/511028/C38009-P181

>  <alias>  (2574) 
N[C@@H](c1ccncc1)c1cccc(NC(=O)c2cc(Cl)cc3c2c[n+]([O-])n3C2CNC2)c1

>  <HIPPO Compound ID>  (2574) 
24337

>  <fragmenstein_runtime>  (2574) 
19.587429

$$$$
N#C[C@@H]1C[C@H](NC(=O)c2cc(Cl)cc3c2cnn3C2CNC2)C[C@H]2CNC[C@H]21
     RDKit          3D

 28 32  0  0  0  0  0  0  0  0999 V2000
   -7.5166    7.6123   -8.2578 N   0  0  0  0  0  0  0  0  0  0  0  0
   -7.4799    6.5829   -8.7916 C   0  0  0  0  0  0  0  0  0  0  0  0
   -7.4011    5.2619   -9.4392 C   0  0  2  0  0  0  0  0  0  0  0  0
   -7.4231    5.4081  -10.9567 C   0  0  0  0  0  0  0  0  0  0  0  0
   -7.0889    4.0765  -11.6356 C   0  0  2  0  0  0  0  0  0  0  0  0
   -7.3731    4.1131  -13.0626 N   0  0  0  0  0  0  0  0  0  0  0  0
   -7.5387    5.3067  -14.0180 C   0  0  0  0  0  0  0  0  0  0  0  0
   -7.5506    6.4514  -13.8016 O   0  0  0  0  0  0  0  0  0  0  0  0
   -7.5920    4.8902  -15.4301 C   0  0  0  0  0  0  0  0  0  0  0  0
   -8.7812    4.4660  -16.0225 C   0  0  0  0  0  0  0  0  0  0  0  0
   -8.8292    4.2974  -17.4059 C   0  0  0  0  0  0  0  0  0  0  0  0
  -10.3332    3.9603  -18.1619 Cl  0  0  0  0  0  0  0  0  0  0  0  0
   -7.7081    4.4997  -18.2228 C   0  0  0  0  0  0  0  0  0  0  0  0
   -6.5234    4.9188  -17.6026 C   0  0  0  0  0  0  0  0  0  0  0  0
   -6.4526    5.1161  -16.2240 C   0  0  0  0  0  0  0  0  0  0  0  0
   -5.1372    5.5602  -15.9906 C   0  0  0  0  0  0  0  0  0  0  0  0
   -4.4121    5.6252  -17.1045 N   0  0  0  0  0  0  0  0  0  0  0  0
   -5.2715    5.2511  -18.0783 N   0  0  0  0  0  0  0  0  0  0  0  0
   -4.8863    5.2682  -19.5032 C   0  0  0  0  0  0  0  0  0  0  0  0
   -4.7920    6.6956  -20.0683 C   0  0  0  0  0  0  0  0  0  0  0  0
   -3.5115    6.3265  -20.7155 N   0  0  0  0  0  0  0  0  0  0  0  0
   -3.3610    5.2197  -19.7463 C   0  0  0  0  0  0  0  0  0  0  0  0
   -7.6564    2.8400  -10.9126 C   0  0  0  0  0  0  0  0  0  0  0  0
   -8.7547    3.1200   -9.8788 C   0  0  1  0  0  0  0  0  0  0  0  0
   -8.9298    2.0089   -8.8374 C   0  0  0  0  0  0  0  0  0  0  0  0
   -9.3393    2.6924   -7.6021 N   0  0  0  0  0  0  0  0  0  0  0  0
   -8.5539    3.9216   -7.5877 C   0  0  0  0  0  0  0  0  0  0  0  0
   -8.5796    4.3888   -9.0355 C   0  0  1  0  0  0  0  0  0  0  0  0
  1  2  3  0
  3  2  1  1
  3  4  1  0
  4  5  1  0
  5  6  1  6
  6  7  1  0
  7  8  2  0
  7  9  1  0
  9 10  2  0
 10 11  1  0
 11 12  1  0
 11 13  2  0
 13 14  1  0
 14 15  2  0
 15 16  1  0
 16 17  2  0
 17 18  1  0
 18 19  1  0
 19 20  1  0
 20 21  1  0
 21 22  1  0
  5 23  1  0
 24 23  1  1
 24 25  1  0
 25 26  1  0
 26 27  1  0
 28 27  1  1
 28  3  1  0
 15  9  1  0
 22 19  1  0
 28 24  1  0
 18 14  1  0
M  END
>  <smiles>  (2575) 
C37985-P280

>  <fragmenstein_outcome>  (2575) 
acceptable

>  <inchikey>  (2575) 
CIVSINIHSMXZBO-UHFFFAOYSA-N

>  <fragmenstein_mode>  (2575) 
expansion

>  <HIPPO Pose ID>  (2575) 
28569

>  <Energy>  (2575) 
55.092225

>  <fragmenstein_error>  (2575) 


>  <tags>  (2575) 
{'openbind_xx01zvns2b_c1_fragmenstein', 'fragmenstein_placed'}

>  <ref_pdb>  (2575) 
175

>  <scratch_subdir>  (2575) 
/opt/xchem-fragalysis-2/maxwin/BulkDock/SCRATCH/511028/C37985-P280

>  <alias>  (2575) 
N#C[C@@H]1C[C@H](NC(=O)c2cc(Cl)cc3c2cnn3C2CNC2)C[C@H]2CNC[C@H]21

>  <HIPPO Compound ID>  (2575) 
20204

>  <fragmenstein_runtime>  (2575) 
14.353695

$$$$
CCN1CCC2(CC1)Cc1c(C(=O)N[C@@H]3C[C@H]4CNC[C@@H]4[C@@H](C#N)C3)cc(Cl)cc1N2C1CNC1
     RDKit          3D

 35 40  0  0  0  0  0  0  0  0999 V2000
   -2.1130    8.3340  -12.6316 C   0  0  0  0  0  0  0  0  0  0  0  0
   -1.5851    7.4240  -13.7358 C   0  0  0  0  0  0  0  0  0  0  0  0
   -2.6515    6.8910  -14.5958 N   0  0  0  0  0  0  0  0  0  0  0  0
   -3.3684    7.9494  -15.3223 C   0  0  0  0  0  0  0  0  0  0  0  0
   -4.0984    7.4465  -16.5763 C   0  0  0  0  0  0  0  0  0  0  0  0
   -4.5220    5.9704  -16.4510 C   0  0  0  0  0  0  0  0  0  0  0  0
   -3.3082    5.0755  -16.1118 C   0  0  0  0  0  0  0  0  0  0  0  0
   -2.1431    5.8647  -15.5051 C   0  0  0  0  0  0  0  0  0  0  0  0
   -5.5757    5.8571  -15.2789 C   0  0  0  0  0  0  0  0  0  0  0  0
   -6.7476    5.2096  -15.9267 C   0  0  0  0  0  0  0  0  0  0  0  0
   -7.9808    4.8629  -15.3766 C   0  0  0  0  0  0  0  0  0  0  0  0
   -8.3800    5.1192  -13.9717 C   0  0  0  0  0  0  0  0  0  0  0  0
   -9.3371    5.7579  -13.7848 O   0  0  0  0  0  0  0  0  0  0  0  0
   -7.3935    4.4884  -12.9770 N   0  0  0  0  0  0  0  0  0  0  0  0
   -7.4255    4.4275  -11.5302 C   0  0  1  0  0  0  0  0  0  0  0  0
   -8.0455    5.7142  -10.9497 C   0  0  0  0  0  0  0  0  0  0  0  0
   -8.0648    5.7559   -9.4102 C   0  0  2  0  0  0  0  0  0  0  0  0
   -6.9954    6.6378   -8.9140 C   0  0  0  0  0  0  0  0  0  0  0  0
   -6.1431    7.3150   -8.5107 N   0  0  0  0  0  0  0  0  0  0  0  0
   -7.9321    4.3478   -8.8229 C   0  0  1  0  0  0  0  0  0  0  0  0
   -8.4689    4.1401   -7.4149 C   0  0  0  0  0  0  0  0  0  0  0  0
   -9.0089    2.7729   -7.3805 N   0  0  0  0  0  0  0  0  0  0  0  0
   -8.8240    2.1671   -8.7173 C   0  0  0  0  0  0  0  0  0  0  0  0
   -8.7414    3.3608   -9.6418 C   0  0  2  0  0  0  0  0  0  0  0  0
   -8.1435    3.1552  -11.0302 C   0  0  0  0  0  0  0  0  0  0  0  0
   -8.9808    4.3932  -16.2199 C   0  0  0  0  0  0  0  0  0  0  0  0
   -8.7473    4.2947  -17.5856 C   0  0  0  0  0  0  0  0  0  0  0  0
  -10.0564    3.8758  -18.5956 Cl  0  0  0  0  0  0  0  0  0  0  0  0
   -7.5095    4.6189  -18.1341 C   0  0  0  0  0  0  0  0  0  0  0  0
   -6.5074    5.0812  -17.2954 C   0  0  0  0  0  0  0  0  0  0  0  0
   -5.2141    5.5025  -17.6889 N   0  0  0  0  0  0  0  0  0  0  0  0
   -4.6984    5.3851  -19.0392 C   0  0  0  0  0  0  0  0  0  0  0  0
   -4.8639    6.6556  -19.8987 C   0  0  0  0  0  0  0  0  0  0  0  0
   -3.5274    6.3991  -20.4860 N   0  0  0  0  0  0  0  0  0  0  0  0
   -3.1928    5.5538  -19.3216 C   0  0  0  0  0  0  0  0  0  0  0  0
  1  2  1  0
  2  3  1  0
  3  4  1  0
  4  5  1  0
  5  6  1  0
  6  7  1  0
  7  8  1  0
  6  9  1  0
  9 10  1  0
 10 11  2  0
 11 12  1  0
 12 13  2  0
 12 14  1  0
 15 14  1  6
 15 16  1  0
 16 17  1  0
 17 18  1  1
 18 19  3  0
 17 20  1  0
 20 21  1  1
 21 22  1  0
 22 23  1  0
 24 23  1  1
 24 25  1  0
 11 26  1  0
 26 27  2  0
 27 28  1  0
 27 29  1  0
 29 30  2  0
 30 31  1  0
 31 32  1  0
 32 33  1  0
 33 34  1  0
 34 35  1  0
  8  3  1  0
 30 10  1  0
 35 32  1  0
 31  6  1  0
 25 15  1  0
 24 20  1  0
M  END
>  <smiles>  (2576) 
C38021-P280

>  <fragmenstein_outcome>  (2576) 
acceptable

>  <inchikey>  (2576) 
SSFZBJVVIVMHKI-UHFFFAOYSA-N

>  <fragmenstein_mode>  (2576) 
expansion

>  <HIPPO Pose ID>  (2576) 
28570

>  <Energy>  (2576) 
88.087944

>  <fragmenstein_error>  (2576) 


>  <tags>  (2576) 
{'openbind_xx01zvns2b_c1_fragmenstein', 'fragmenstein_placed'}

>  <ref_pdb>  (2576) 
175

>  <scratch_subdir>  (2576) 
/opt/xchem-fragalysis-2/maxwin/BulkDock/SCRATCH/511028/C38021-P280

>  <alias>  (2576) 
CCN1CCC2(CC1)Cc1c(C(=O)N[C@@H]3C[C@H]4CNC[C@@H]4[C@@H](C#N)C3)cc(Cl)cc1N2C1CNC1

>  <HIPPO Compound ID>  (2576) 
34125

>  <fragmenstein_runtime>  (2576) 
15.310895

$$$$
N#C[C@@H]1C[C@H](NC(=O)c2cc(Cl)cc3c2C[C@@]24CCNC[C@@H]2O[C@H]2NCC[C@@H]2N34)C[C@@H]2CNC[C@H]21
     RDKit          3D

 35 41  0  0  0  0  0  0  0  0999 V2000
   -7.0072    7.5013   -8.2663 N   0  0  0  0  0  0  0  0  0  0  0  0
   -7.0787    6.4451   -8.7416 C   0  0  0  0  0  0  0  0  0  0  0  0
   -7.1257    5.0968   -9.3282 C   0  0  2  0  0  0  0  0  0  0  0  0
   -7.1571    5.1774  -10.8687 C   0  0  0  0  0  0  0  0  0  0  0  0
   -7.2792    3.7896  -11.5326 C   0  0  2  0  0  0  0  0  0  0  0  0
   -7.3886    3.9051  -12.9736 N   0  0  0  0  0  0  0  0  0  0  0  0
   -8.3051    4.7836  -13.8374 C   0  0  0  0  0  0  0  0  0  0  0  0
   -9.1725    5.4993  -13.5323 O   0  0  0  0  0  0  0  0  0  0  0  0
   -7.9815    4.6646  -15.2799 C   0  0  0  0  0  0  0  0  0  0  0  0
   -9.0240    4.2990  -16.1238 C   0  0  0  0  0  0  0  0  0  0  0  0
   -8.8502    4.3395  -17.5025 C   0  0  0  0  0  0  0  0  0  0  0  0
  -10.1840    3.9779  -18.5085 Cl  0  0  0  0  0  0  0  0  0  0  0  0
   -7.6557    4.7862  -18.0652 C   0  0  0  0  0  0  0  0  0  0  0  0
   -6.6361    5.2053  -17.2292 C   0  0  0  0  0  0  0  0  0  0  0  0
   -6.7773    5.0782  -15.8436 C   0  0  0  0  0  0  0  0  0  0  0  0
   -5.5063    5.4724  -15.1716 C   0  0  0  0  0  0  0  0  0  0  0  0
   -4.6416    6.0284  -16.3578 C   0  0  1  0  0  0  0  0  0  0  0  0
   -4.3661    7.5417  -16.1151 C   0  0  0  0  0  0  0  0  0  0  0  0
   -2.9492    7.8176  -15.6142 C   0  0  0  0  0  0  0  0  0  0  0  0
   -2.5066    6.8037  -14.6687 N   0  0  0  0  0  0  0  0  0  0  0  0
   -2.3613    5.4900  -15.3117 C   0  0  0  0  0  0  0  0  0  0  0  0
   -3.3028    5.2121  -16.5103 C   0  0  2  0  0  0  0  0  0  0  0  0
   -2.5538    5.3988  -17.7492 O   0  0  0  0  0  0  0  0  0  0  0  0
   -3.3140    6.0801  -18.7277 C   0  0  1  0  0  0  0  0  0  0  0  0
   -2.8151    5.9636  -20.0970 N   0  0  0  0  0  0  0  0  0  0  0  0
   -3.9233    6.6109  -20.8291 C   0  0  0  0  0  0  0  0  0  0  0  0
   -5.2182    6.2321  -20.0952 C   0  0  0  0  0  0  0  0  0  0  0  0
   -4.7552    5.5457  -18.8224 C   0  0  2  0  0  0  0  0  0  0  0  0
   -5.4788    5.8959  -17.5984 N   0  0  0  0  0  0  0  0  0  0  0  0
   -8.4588    2.9885  -10.9542 C   0  0  0  0  0  0  0  0  0  0  0  0
   -8.3110    2.9141   -9.4421 C   0  0  2  0  0  0  0  0  0  0  0  0
   -9.3887    2.2357   -8.6303 C   0  0  0  0  0  0  0  0  0  0  0  0
   -9.1702    2.7520   -7.2701 N   0  0  0  0  0  0  0  0  0  0  0  0
   -8.4934    4.0481   -7.3618 C   0  0  0  0  0  0  0  0  0  0  0  0
   -8.3412    4.3148   -8.8510 C   0  0  1  0  0  0  0  0  0  0  0  0
  1  2  3  0
  3  2  1  1
  3  4  1  0
  4  5  1  0
  5  6  1  6
  6  7  1  0
  7  8  2  0
  7  9  1  0
  9 10  2  0
 10 11  1  0
 11 12  1  0
 11 13  2  0
 13 14  1  0
 14 15  2  0
 15 16  1  0
 17 16  1  1
 17 18  1  0
 18 19  1  0
 19 20  1  0
 20 21  1  0
 22 21  1  1
 22 23  1  0
 23 24  1  0
 24 25  1  6
 25 26  1  0
 26 27  1  0
 28 27  1  6
 28 29  1  0
  5 30  1  0
 31 30  1  6
 31 32  1  0
 32 33  1  0
 33 34  1  0
 35 34  1  1
 35  3  1  0
 15  9  1  0
 22 17  1  0
 28 24  1  0
 35 31  1  0
 29 14  1  0
 29 17  1  0
M  END
>  <smiles>  (2577) 
C38025-P280

>  <fragmenstein_outcome>  (2577) 
acceptable

>  <inchikey>  (2577) 
ZNMBKZWBRGGKCY-UHFFFAOYSA-N

>  <fragmenstein_mode>  (2577) 
expansion

>  <HIPPO Pose ID>  (2577) 
28571

>  <Energy>  (2577) 
137.907133

>  <fragmenstein_error>  (2577) 


>  <tags>  (2577) 
{'openbind_xx01zvns2b_c1_fragmenstein', 'fragmenstein_placed'}

>  <ref_pdb>  (2577) 
175

>  <scratch_subdir>  (2577) 
/opt/xchem-fragalysis-2/maxwin/BulkDock/SCRATCH/511028/C38025-P280

>  <alias>  (2577) 
N#C[C@@H]1C[C@H](NC(=O)c2cc(Cl)cc3c2C[C@@]24CCNC[C@@H]2O[C@H]2NCC[C@@H]2N34)C[C@@H]2CNC[C@H]21

>  <HIPPO Compound ID>  (2577) 
42744

>  <fragmenstein_runtime>  (2577) 
8.743165

$$$$
Cn1cc2cc(NC(=O)c3cc(Cl)cc4c3cnn4C3CNC3)cc(C#N)c2c1
     RDKit          3D

 29 33  0  0  0  0  0  0  0  0999 V2000
   -9.4705    1.9670   -6.2919 C   0  0  0  0  0  0  0  0  0  0  0  0
   -9.1206    2.6567   -7.5095 N   0  0  0  0  0  0  0  0  0  0  0  0
   -9.4511    2.2427   -8.7785 C   0  0  0  0  0  0  0  0  0  0  0  0
   -8.8994    3.1400   -9.6523 C   0  0  0  0  0  0  0  0  0  0  0  0
   -8.9535    3.0937  -11.0423 C   0  0  0  0  0  0  0  0  0  0  0  0
   -8.2029    4.1421  -11.6250 C   0  0  0  0  0  0  0  0  0  0  0  0
   -8.1652    4.2279  -13.0197 N   0  0  0  0  0  0  0  0  0  0  0  0
   -7.5084    5.2811  -13.9449 C   0  0  0  0  0  0  0  0  0  0  0  0
   -6.9629    6.2819  -13.6858 O   0  0  0  0  0  0  0  0  0  0  0  0
   -7.5753    4.9200  -15.3815 C   0  0  0  0  0  0  0  0  0  0  0  0
   -8.7644    4.5093  -15.9985 C   0  0  0  0  0  0  0  0  0  0  0  0
   -8.8065    4.3464  -17.3830 C   0  0  0  0  0  0  0  0  0  0  0  0
  -10.2990    4.0006  -18.1610 Cl  0  0  0  0  0  0  0  0  0  0  0  0
   -7.6834    4.5556  -18.1857 C   0  0  0  0  0  0  0  0  0  0  0  0
   -6.5035    4.9626  -17.5531 C   0  0  0  0  0  0  0  0  0  0  0  0
   -6.4280    5.1439  -16.1753 C   0  0  0  0  0  0  0  0  0  0  0  0
   -5.0942    5.5559  -15.9499 C   0  0  0  0  0  0  0  0  0  0  0  0
   -4.3758    5.6243  -17.0718 N   0  0  0  0  0  0  0  0  0  0  0  0
   -5.2553    5.2897  -18.0348 N   0  0  0  0  0  0  0  0  0  0  0  0
   -4.9306    5.3040  -19.4672 C   0  0  0  0  0  0  0  0  0  0  0  0
   -4.9423    6.7220  -20.0645 C   0  0  0  0  0  0  0  0  0  0  0  0
   -3.7855    6.3092  -20.9120 N   0  0  0  0  0  0  0  0  0  0  0  0
   -3.4327    5.3458  -19.8221 C   0  0  0  0  0  0  0  0  0  0  0  0
   -7.4238    5.0747  -10.8561 C   0  0  0  0  0  0  0  0  0  0  0  0
   -7.3368    5.0425   -9.4482 C   0  0  0  0  0  0  0  0  0  0  0  0
   -6.3296    5.6839   -8.6880 C   0  0  0  0  0  0  0  0  0  0  0  0
   -5.4494    6.1247   -8.0747 N   0  0  0  0  0  0  0  0  0  0  0  0
   -8.1567    4.0748   -8.8895 C   0  0  0  0  0  0  0  0  0  0  0  0
   -8.3357    3.7857   -7.5595 C   0  0  0  0  0  0  0  0  0  0  0  0
  1  2  1  0
  2  3  1  0
  3  4  2  0
  4  5  1  0
  5  6  2  0
  6  7  1  0
  7  8  1  0
  8  9  2  0
  8 10  1  0
 10 11  2  0
 11 12  1  0
 12 13  1  0
 12 14  2  0
 14 15  1  0
 15 16  2  0
 16 17  1  0
 17 18  2  0
 18 19  1  0
 19 20  1  0
 20 21  1  0
 21 22  1  0
 22 23  1  0
  6 24  1  0
 24 25  2  0
 25 26  1  0
 26 27  3  0
 25 28  1  0
 28 29  2  0
 29  2  1  0
 28  4  1  0
 16 10  1  0
 23 20  1  0
 19 15  1  0
M  END
>  <smiles>  (2578) 
C38040-P280

>  <fragmenstein_outcome>  (2578) 
acceptable

>  <inchikey>  (2578) 
KKPATQNVQDEWIT-UHFFFAOYSA-N

>  <fragmenstein_mode>  (2578) 
expansion

>  <HIPPO Pose ID>  (2578) 
28573

>  <Energy>  (2578) 
79.130687

>  <fragmenstein_error>  (2578) 


>  <tags>  (2578) 
{'openbind_xx01zvns2b_c1_fragmenstein', 'fragmenstein_placed'}

>  <ref_pdb>  (2578) 
175

>  <scratch_subdir>  (2578) 
/opt/xchem-fragalysis-2/maxwin/BulkDock/SCRATCH/511028/C38040-P280

>  <alias>  (2578) 
Cn1cc2cc(NC(=O)c3cc(Cl)cc4c3cnn4C3CNC3)cc(C#N)c2c1

>  <HIPPO Compound ID>  (2578) 
38040

>  <fragmenstein_runtime>  (2578) 
4.537395

$$$$
CNCn1cc2c(C(=O)N[C@H]3C[C@@H]4CNC[C@H]4[C@@H](C#N)C3)cc(Cl)cc2c1C1CNC1
     RDKit          3D

 31 35  0  0  0  0  0  0  0  0999 V2000
   -1.7946    6.8339  -16.4294 C   0  0  0  0  0  0  0  0  0  0  0  0
   -2.5748    7.4345  -17.4993 N   0  0  0  0  0  0  0  0  0  0  0  0
   -3.9432    7.7136  -17.1039 C   0  0  0  0  0  0  0  0  0  0  0  0
   -4.7386    6.4843  -17.0176 N   0  0  0  0  0  0  0  0  0  0  0  0
   -5.3562    6.1416  -15.8203 C   0  0  0  0  0  0  0  0  0  0  0  0
   -6.4876    5.4352  -16.1313 C   0  0  0  0  0  0  0  0  0  0  0  0
   -7.5478    5.1077  -15.2823 C   0  0  0  0  0  0  0  0  0  0  0  0
   -7.6684    5.5899  -13.8964 C   0  0  0  0  0  0  0  0  0  0  0  0
   -7.4906    6.7221  -13.6909 O   0  0  0  0  0  0  0  0  0  0  0  0
   -8.0094    4.4448  -12.9323 N   0  0  0  0  0  0  0  0  0  0  0  0
   -8.2993    4.4642  -11.5156 C   0  0  2  0  0  0  0  0  0  0  0  0
   -7.2735    5.3078  -10.7393 C   0  0  0  0  0  0  0  0  0  0  0  0
   -7.6616    5.4996   -9.2565 C   0  0  2  0  0  0  0  0  0  0  0  0
   -6.4522    5.7153   -8.4393 C   0  0  0  0  0  0  0  0  0  0  0  0
   -5.5207    5.9000   -7.7707 N   0  0  0  0  0  0  0  0  0  0  0  0
   -8.5227    4.3358   -8.7680 C   0  0  2  0  0  0  0  0  0  0  0  0
   -8.5332    3.9621   -7.2994 C   0  0  0  0  0  0  0  0  0  0  0  0
   -9.2178    2.6647   -7.3091 N   0  0  0  0  0  0  0  0  0  0  0  0
   -8.8918    1.9954   -8.5895 C   0  0  0  0  0  0  0  0  0  0  0  0
   -8.1508    3.0241   -9.4329 C   0  0  1  0  0  0  0  0  0  0  0  0
   -8.4467    3.0455  -10.9329 C   0  0  0  0  0  0  0  0  0  0  0  0
   -8.6231    4.5162  -15.9845 C   0  0  0  0  0  0  0  0  0  0  0  0
   -8.5919    4.2939  -17.4017 C   0  0  0  0  0  0  0  0  0  0  0  0
  -10.0461    3.7920  -18.1847 Cl  0  0  0  0  0  0  0  0  0  0  0  0
   -7.4919    4.5780  -18.2405 C   0  0  0  0  0  0  0  0  0  0  0  0
   -6.4606    5.1866  -17.5312 C   0  0  0  0  0  0  0  0  0  0  0  0
   -5.3240    5.7699  -18.0576 C   0  0  0  0  0  0  0  0  0  0  0  0
   -4.9212    5.6723  -19.5681 C   0  0  0  0  0  0  0  0  0  0  0  0
   -4.7362    6.9637  -20.3775 C   0  0  0  0  0  0  0  0  0  0  0  0
   -3.6444    6.2860  -21.1283 N   0  0  0  0  0  0  0  0  0  0  0  0
   -3.4557    5.3977  -19.9425 C   0  0  0  0  0  0  0  0  0  0  0  0
  1  2  1  0
  2  3  1  0
  3  4  1  0
  4  5  1  0
  5  6  2  0
  6  7  1  0
  7  8  1  0
  8  9  2  0
  8 10  1  0
 11 10  1  6
 11 12  1  0
 12 13  1  0
 13 14  1  1
 14 15  3  0
 13 16  1  0
 16 17  1  1
 17 18  1  0
 18 19  1  0
 20 19  1  1
 20 21  1  0
  7 22  2  0
 22 23  1  0
 23 24  1  0
 23 25  2  0
 25 26  1  0
 26 27  2  0
 27 28  1  0
 28 29  1  0
 29 30  1  0
 30 31  1  0
 27  4  1  0
 31 28  1  0
 26  6  1  0
 21 11  1  0
 20 16  1  0
M  END
>  <smiles>  (2579) 
C38027-P280

>  <fragmenstein_outcome>  (2579) 
acceptable

>  <inchikey>  (2579) 
BDONDXPYZICNIZ-UHFFFAOYSA-N

>  <fragmenstein_mode>  (2579) 
expansion

>  <HIPPO Pose ID>  (2579) 
28578

>  <Energy>  (2579) 
99.772628

>  <fragmenstein_error>  (2579) 


>  <tags>  (2579) 
{'openbind_xx01zvns2b_c1_fragmenstein', 'fragmenstein_placed'}

>  <ref_pdb>  (2579) 
175

>  <scratch_subdir>  (2579) 
/opt/xchem-fragalysis-2/maxwin/BulkDock/SCRATCH/511028/C38027-P280

>  <alias>  (2579) 
CNCn1cc2c(C(=O)N[C@H]3C[C@@H]4CNC[C@H]4[C@@H](C#N)C3)cc(Cl)cc2c1C1CNC1

>  <HIPPO Compound ID>  (2579) 
19640

>  <fragmenstein_runtime>  (2579) 
6.570542

$$$$
C[C@H]1CCCCCN2C[C@H]3[C@H](C(=O)N[C@H]4C[C@@H]5CNC[C@H]5[C@@H](C#N)C4)C[C@@H](Cl)C[C@@H]3N12
     RDKit          3D

 31 35  0  0  0  0  0  0  0  0999 V2000
   -5.3112    7.1040  -19.7614 C   0  0  0  0  0  0  0  0  0  0  0  0
   -4.8500    5.6948  -19.3841 C   0  0  1  0  0  0  0  0  0  0  0  0
   -3.3752    5.4580  -19.7907 C   0  0  0  0  0  0  0  0  0  0  0  0
   -2.3447    6.5078  -19.3488 C   0  0  0  0  0  0  0  0  0  0  0  0
   -1.4098    6.0465  -18.2366 C   0  0  0  0  0  0  0  0  0  0  0  0
   -1.9764    6.1355  -16.8214 C   0  0  0  0  0  0  0  0  0  0  0  0
   -3.2278    5.2944  -16.5708 C   0  0  0  0  0  0  0  0  0  0  0  0
   -4.4352    6.0434  -16.9714 N   0  0  0  0  0  0  0  0  0  0  0  0
   -5.3783    6.1535  -15.8251 C   0  0  0  0  0  0  0  0  0  0  0  0
   -6.4569    5.1331  -16.1372 C   0  0  1  0  0  0  0  0  0  0  0  0
   -7.8264    5.2712  -15.5104 C   0  0  2  0  0  0  0  0  0  0  0  0
   -7.7829    5.6706  -14.0365 C   0  0  0  0  0  0  0  0  0  0  0  0
   -7.5730    6.7897  -13.7774 O   0  0  0  0  0  0  0  0  0  0  0  0
   -8.1373    4.4814  -13.1196 N   0  0  0  0  0  0  0  0  0  0  0  0
   -8.4009    4.4376  -11.7076 C   0  0  2  0  0  0  0  0  0  0  0  0
   -7.7254    5.5667  -10.9230 C   0  0  0  0  0  0  0  0  0  0  0  0
   -8.4600    5.7438   -9.5942 C   0  0  2  0  0  0  0  0  0  0  0  0
   -7.8324    6.7690   -8.7640 C   0  0  0  0  0  0  0  0  0  0  0  0
   -7.3902    7.6451   -8.1467 N   0  0  0  0  0  0  0  0  0  0  0  0
   -8.7540    4.3930   -8.9467 C   0  0  2  0  0  0  0  0  0  0  0  0
   -8.5515    4.1623   -7.4655 C   0  0  0  0  0  0  0  0  0  0  0  0
   -8.7482    2.7067   -7.3288 N   0  0  0  0  0  0  0  0  0  0  0  0
   -8.5438    2.0868   -8.6646 C   0  0  0  0  0  0  0  0  0  0  0  0
   -8.0046    3.2092   -9.5413 C   0  0  1  0  0  0  0  0  0  0  0  0
   -8.2007    3.0642  -11.0532 C   0  0  0  0  0  0  0  0  0  0  0  0
   -8.7417    4.1441  -15.9806 C   0  0  0  0  0  0  0  0  0  0  0  0
   -8.7785    3.9385  -17.5045 C   0  0  1  0  0  0  0  0  0  0  0  0
  -10.2635    4.6121  -18.2214 Cl  0  0  0  0  0  0  0  0  0  0  0  0
   -7.5181    4.3342  -18.2909 C   0  0  0  0  0  0  0  0  0  0  0  0
   -6.5814    5.3342  -17.6336 C   0  0  2  0  0  0  0  0  0  0  0  0
   -5.1554    5.2700  -18.0038 N   0  0  0  0  0  0  0  0  0  0  0  0
  2  1  1  1
  2  3  1  0
  3  4  1  0
  4  5  1  0
  5  6  1  0
  6  7  1  0
  7  8  1  0
  8  9  1  0
 10  9  1  1
 10 11  1  0
 11 12  1  1
 12 13  2  0
 12 14  1  0
 15 14  1  6
 15 16  1  0
 16 17  1  0
 17 18  1  1
 18 19  3  0
 17 20  1  0
 20 21  1  1
 21 22  1  0
 22 23  1  0
 24 23  1  1
 24 25  1  0
 11 26  1  0
 26 27  1  0
 27 28  1  6
 27 29  1  0
 30 29  1  6
 30 31  1  0
 31  2  1  0
 31  8  1  0
 30 10  1  0
 25 15  1  0
 24 20  1  0
M  END
>  <smiles>  (2580) 
C38060-P280

>  <fragmenstein_outcome>  (2580) 
acceptable

>  <inchikey>  (2580) 
IHBCBUAQHKHQDF-UHFFFAOYSA-N

>  <fragmenstein_mode>  (2580) 
expansion

>  <HIPPO Pose ID>  (2580) 
28579

>  <Energy>  (2580) 
83.649902

>  <fragmenstein_error>  (2580) 


>  <tags>  (2580) 
{'openbind_xx01zvns2b_c1_fragmenstein', 'fragmenstein_placed'}

>  <ref_pdb>  (2580) 
175

>  <scratch_subdir>  (2580) 
/opt/xchem-fragalysis-2/maxwin/BulkDock/SCRATCH/511028/C38060-P280

>  <alias>  (2580) 
C[C@H]1CCCCCN2C[C@H]3[C@H](C(=O)N[C@H]4C[C@@H]5CNC[C@H]5[C@@H](C#N)C4)C[C@@H](Cl)C[C@@H]3N12

>  <HIPPO Compound ID>  (2580) 
31983

>  <fragmenstein_runtime>  (2580) 
8.081189

$$$$
CNCc1ccc(NC(=O)c2cc(Cl)cc3c2cnn3C2CNC2)cc1C#N
     RDKit          3D

 28 31  0  0  0  0  0  0  0  0999 V2000
   -8.9581    1.8057   -6.8027 C   0  0  0  0  0  0  0  0  0  0  0  0
   -9.6050    3.0844   -7.0431 N   0  0  0  0  0  0  0  0  0  0  0  0
   -8.6721    4.0956   -7.5329 C   0  0  0  0  0  0  0  0  0  0  0  0
   -8.6181    4.2090   -9.0433 C   0  0  0  0  0  0  0  0  0  0  0  0
   -8.7232    3.0701   -9.8589 C   0  0  0  0  0  0  0  0  0  0  0  0
   -8.5662    3.1419  -11.2368 C   0  0  0  0  0  0  0  0  0  0  0  0
   -8.3101    4.3602  -11.8351 C   0  0  0  0  0  0  0  0  0  0  0  0
   -8.0756    4.3916  -13.1957 N   0  0  0  0  0  0  0  0  0  0  0  0
   -7.7006    5.5585  -14.1146 C   0  0  0  0  0  0  0  0  0  0  0  0
   -7.4533    6.6681  -13.8634 O   0  0  0  0  0  0  0  0  0  0  0  0
   -7.5574    5.1141  -15.5071 C   0  0  0  0  0  0  0  0  0  0  0  0
   -8.6252    4.5844  -16.2272 C   0  0  0  0  0  0  0  0  0  0  0  0
   -8.4779    4.3969  -17.5974 C   0  0  0  0  0  0  0  0  0  0  0  0
   -9.8322    3.8333  -18.4900 Cl  0  0  0  0  0  0  0  0  0  0  0  0
   -7.2911    4.7315  -18.2752 C   0  0  0  0  0  0  0  0  0  0  0  0
   -6.2150    5.2225  -17.5149 C   0  0  0  0  0  0  0  0  0  0  0  0
   -6.3298    5.3743  -16.1340 C   0  0  0  0  0  0  0  0  0  0  0  0
   -5.0699    5.8231  -15.6975 C   0  0  0  0  0  0  0  0  0  0  0  0
   -4.2121    5.9660  -16.6996 N   0  0  0  0  0  0  0  0  0  0  0  0
   -4.9492    5.6993  -17.8002 N   0  0  0  0  0  0  0  0  0  0  0  0
   -4.4659    6.2626  -19.0637 C   0  0  0  0  0  0  0  0  0  0  0  0
   -4.7934    5.5318  -20.3474 C   0  0  0  0  0  0  0  0  0  0  0  0
   -3.3789    5.7394  -20.7855 N   0  0  0  0  0  0  0  0  0  0  0  0
   -3.0139    5.8250  -19.3550 C   0  0  0  0  0  0  0  0  0  0  0  0
   -8.2359    5.5151  -11.0641 C   0  0  0  0  0  0  0  0  0  0  0  0
   -8.3865    5.4463   -9.6744 C   0  0  0  0  0  0  0  0  0  0  0  0
   -8.3014    6.6739   -8.9384 C   0  0  0  0  0  0  0  0  0  0  0  0
   -8.2324    7.6648   -8.3385 N   0  0  0  0  0  0  0  0  0  0  0  0
  1  2  1  0
  2  3  1  0
  3  4  1  0
  4  5  2  0
  5  6  1  0
  6  7  2  0
  7  8  1  0
  8  9  1  0
  9 10  2  0
  9 11  1  0
 11 12  2  0
 12 13  1  0
 13 14  1  0
 13 15  2  0
 15 16  1  0
 16 17  2  0
 17 18  1  0
 18 19  2  0
 19 20  1  0
 20 21  1  0
 21 22  1  0
 22 23  1  0
 23 24  1  0
  7 25  1  0
 25 26  2  0
 26 27  1  0
 27 28  3  0
 26  4  1  0
 17 11  1  0
 24 21  1  0
 20 16  1  0
M  END
>  <smiles>  (2581) 
C38055-P280

>  <fragmenstein_outcome>  (2581) 
acceptable

>  <inchikey>  (2581) 
DFNWTKBXLMELIO-UHFFFAOYSA-N

>  <fragmenstein_mode>  (2581) 
expansion

>  <HIPPO Pose ID>  (2581) 
28580

>  <Energy>  (2581) 
71.202495

>  <fragmenstein_error>  (2581) 


>  <tags>  (2581) 
{'openbind_xx01zvns2b_c1_fragmenstein', 'fragmenstein_placed'}

>  <ref_pdb>  (2581) 
175

>  <scratch_subdir>  (2581) 
/opt/xchem-fragalysis-2/maxwin/BulkDock/SCRATCH/511028/C38055-P280

>  <alias>  (2581) 
CNCc1ccc(NC(=O)c2cc(Cl)cc3c2cnn3C2CNC2)cc1C#N

>  <HIPPO Compound ID>  (2581) 
38055

>  <fragmenstein_runtime>  (2581) 
7.718651

$$$$
CC(=O)NN1CC[C@H]2[C@@H]1Nc1c(Cl)cc(C(=O)Nc3ccc(F)cc3)c3cnn2c13
     RDKit          3D

 30 34  0  0  0  0  0  0  0  0999 V2000
   -5.8575    8.8549  -23.4971 C   0  0  0  0  0  0  0  0  0  0  0  0
   -5.4742    8.5480  -22.0659 C   0  0  0  0  0  0  0  0  0  0  0  0
   -5.3296    9.3687  -21.2459 O   0  0  0  0  0  0  0  0  0  0  0  0
   -5.3161    7.0009  -21.9837 N   0  0  0  0  0  0  0  0  0  0  0  0
   -4.8809    6.2069  -20.9599 N   0  0  0  0  0  0  0  0  0  0  0  0
   -3.4446    6.2380  -20.7176 C   0  0  0  0  0  0  0  0  0  0  0  0
   -3.3252    5.6403  -19.3345 C   0  0  0  0  0  0  0  0  0  0  0  0
   -4.4969    6.3227  -18.6659 C   0  0  1  0  0  0  0  0  0  0  0  0
   -5.6450    6.2507  -19.7055 C   0  0  2  0  0  0  0  0  0  0  0  0
   -6.6512    5.1631  -19.4570 N   0  0  0  0  0  0  0  0  0  0  0  0
   -7.0710    5.0663  -18.1297 C   0  0  0  0  0  0  0  0  0  0  0  0
   -8.3133    4.6462  -17.6124 C   0  0  0  0  0  0  0  0  0  0  0  0
   -9.6078    4.1902  -18.6553 Cl  0  0  0  0  0  0  0  0  0  0  0  0
   -8.6058    4.7314  -16.2368 C   0  0  0  0  0  0  0  0  0  0  0  0
   -7.6358    5.2018  -15.3422 C   0  0  0  0  0  0  0  0  0  0  0  0
   -7.9870    5.7743  -14.0377 C   0  0  0  0  0  0  0  0  0  0  0  0
   -7.9719    6.9379  -13.9629 O   0  0  0  0  0  0  0  0  0  0  0  0
   -8.2201    4.7097  -12.9558 N   0  0  0  0  0  0  0  0  0  0  0  0
   -8.3847    4.8395  -11.5820 C   0  0  0  0  0  0  0  0  0  0  0  0
   -8.4825    3.7040  -10.7819 C   0  0  0  0  0  0  0  0  0  0  0  0
   -8.5766    3.8461   -9.3950 C   0  0  0  0  0  0  0  0  0  0  0  0
   -8.5716    5.1159   -8.8249 C   0  0  0  0  0  0  0  0  0  0  0  0
   -8.6697    5.2455   -7.4946 F   0  0  0  0  0  0  0  0  0  0  0  0
   -8.4854    6.2539   -9.6145 C   0  0  0  0  0  0  0  0  0  0  0  0
   -8.3945    6.1141  -10.9974 C   0  0  0  0  0  0  0  0  0  0  0  0
   -6.3422    5.4579  -15.8103 C   0  0  0  0  0  0  0  0  0  0  0  0
   -5.1072    5.9301  -15.3027 C   0  0  0  0  0  0  0  0  0  0  0  0
   -4.1960    6.1431  -16.2627 N   0  0  0  0  0  0  0  0  0  0  0  0
   -4.8738    5.8313  -17.3791 N   0  0  0  0  0  0  0  0  0  0  0  0
   -6.1334    5.3772  -17.1631 C   0  0  0  0  0  0  0  0  0  0  0  0
  1  2  1  0
  2  3  2  0
  2  4  1  0
  4  5  1  0
  5  6  1  0
  6  7  1  0
  8  7  1  6
  8  9  1  0
  9 10  1  1
 10 11  1  0
 11 12  2  0
 12 13  1  0
 12 14  1  0
 14 15  2  0
 15 16  1  0
 16 17  2  0
 16 18  1  0
 18 19  1  0
 19 20  2  0
 20 21  1  0
 21 22  2  0
 22 23  1  0
 22 24  1  0
 24 25  2  0
 15 26  1  0
 26 27  1  0
 27 28  2  0
 28 29  1  0
 29 30  1  0
  9  5  1  0
 30 11  1  0
 29  8  1  0
 25 19  1  0
 30 26  2  0
M  END
>  <smiles>  (2582) 
C38108-P281

>  <fragmenstein_outcome>  (2582) 
acceptable

>  <inchikey>  (2582) 
JSYXVFBNCLUBQB-UHFFFAOYSA-N

>  <fragmenstein_mode>  (2582) 
expansion

>  <HIPPO Pose ID>  (2582) 
28585

>  <Energy>  (2582) 
99.656947

>  <fragmenstein_error>  (2582) 


>  <tags>  (2582) 
{'openbind_xx01zvns2b_c1_fragmenstein', 'fragmenstein_placed'}

>  <ref_pdb>  (2582) 
175

>  <scratch_subdir>  (2582) 
/opt/xchem-fragalysis-2/maxwin/BulkDock/SCRATCH/511028/C38108-P281

>  <alias>  (2582) 
CC(=O)NN1CC[C@H]2[C@@H]1Nc1c(Cl)cc(C(=O)Nc3ccc(F)cc3)c3cnn2c13

>  <HIPPO Compound ID>  (2582) 
39412

>  <fragmenstein_runtime>  (2582) 
11.121575

$$$$
CC(=O)NN1CC[C@@H]2[C@H]1Nc1c(Cl)cc(C(=O)Nc3ccc(F)cc3)c3cnn2c13
     RDKit          3D

 30 34  0  0  0  0  0  0  0  0999 V2000
   -5.4654    9.8726  -16.8206 C   0  0  0  0  0  0  0  0  0  0  0  0
   -6.0752    9.5875  -18.1802 C   0  0  0  0  0  0  0  0  0  0  0  0
   -6.7464   10.3494  -18.7603 O   0  0  0  0  0  0  0  0  0  0  0  0
   -5.5328    8.1939  -18.6070 N   0  0  0  0  0  0  0  0  0  0  0  0
   -5.6239    7.5221  -19.8248 N   0  0  0  0  0  0  0  0  0  0  0  0
   -4.2651    7.4926  -20.4121 C   0  0  0  0  0  0  0  0  0  0  0  0
   -3.5456    6.3171  -19.7443 C   0  0  0  0  0  0  0  0  0  0  0  0
   -4.6646    5.4111  -19.2288 C   0  0  2  0  0  0  0  0  0  0  0  0
   -5.9558    6.0556  -19.7804 C   0  0  1  0  0  0  0  0  0  0  0  0
   -7.1682    5.3795  -19.2823 N   0  0  0  0  0  0  0  0  0  0  0  0
   -7.2638    5.1325  -17.9425 C   0  0  0  0  0  0  0  0  0  0  0  0
   -8.3836    4.7644  -17.1901 C   0  0  0  0  0  0  0  0  0  0  0  0
   -9.8758    4.3743  -17.9679 Cl  0  0  0  0  0  0  0  0  0  0  0  0
   -8.3396    4.8133  -15.7902 C   0  0  0  0  0  0  0  0  0  0  0  0
   -7.1403    5.1717  -15.1387 C   0  0  0  0  0  0  0  0  0  0  0  0
   -7.1468    5.7053  -13.7706 C   0  0  0  0  0  0  0  0  0  0  0  0
   -6.7042    6.7751  -13.6231 O   0  0  0  0  0  0  0  0  0  0  0  0
   -7.7581    4.7291  -12.7505 N   0  0  0  0  0  0  0  0  0  0  0  0
   -8.0315    4.8910  -11.4007 C   0  0  0  0  0  0  0  0  0  0  0  0
   -8.3843    3.7858  -10.6304 C   0  0  0  0  0  0  0  0  0  0  0  0
   -8.5749    3.9413   -9.2561 C   0  0  0  0  0  0  0  0  0  0  0  0
   -8.4438    5.1998   -8.6766 C   0  0  0  0  0  0  0  0  0  0  0  0
   -8.6465    5.3476   -7.3597 F   0  0  0  0  0  0  0  0  0  0  0  0
   -8.1326    6.3135   -9.4449 C   0  0  0  0  0  0  0  0  0  0  0  0
   -7.9173    6.1562  -10.8112 C   0  0  0  0  0  0  0  0  0  0  0  0
   -5.9564    5.2804  -15.8842 C   0  0  0  0  0  0  0  0  0  0  0  0
   -4.5834    5.5841  -15.7054 C   0  0  0  0  0  0  0  0  0  0  0  0
   -3.8946    5.6492  -16.8614 N   0  0  0  0  0  0  0  0  0  0  0  0
   -4.8304    5.3457  -17.7797 N   0  0  0  0  0  0  0  0  0  0  0  0
   -6.0772    5.2037  -17.2433 C   0  0  0  0  0  0  0  0  0  0  0  0
  1  2  1  0
  2  3  2  0
  2  4  1  0
  4  5  1  0
  5  6  1  0
  6  7  1  0
  8  7  1  1
  8  9  1  0
  9 10  1  1
 10 11  1  0
 11 12  2  0
 12 13  1  0
 12 14  1  0
 14 15  2  0
 15 16  1  0
 16 17  2  0
 16 18  1  0
 18 19  1  0
 19 20  2  0
 20 21  1  0
 21 22  2  0
 22 23  1  0
 22 24  1  0
 24 25  2  0
 15 26  1  0
 26 27  1  0
 27 28  2  0
 28 29  1  0
 29 30  1  0
  9  5  1  0
 30 11  1  0
 29  8  1  0
 25 19  1  0
 30 26  2  0
M  END
>  <smiles>  (2583) 
C38108-P1

>  <fragmenstein_outcome>  (2583) 
acceptable

>  <inchikey>  (2583) 
RZHMDQYEPYGJOG-UHFFFAOYSA-N

>  <fragmenstein_mode>  (2583) 
expansion

>  <HIPPO Pose ID>  (2583) 
28586

>  <Energy>  (2583) 
108.61031

>  <fragmenstein_error>  (2583) 


>  <tags>  (2583) 
{'openbind_xx01zvns2b_c1_fragmenstein', 'fragmenstein_placed'}

>  <ref_pdb>  (2583) 
175

>  <scratch_subdir>  (2583) 
/opt/xchem-fragalysis-2/maxwin/BulkDock/SCRATCH/511028/C38108-P1

>  <alias>  (2583) 
CC(=O)NN1CC[C@@H]2[C@H]1Nc1c(Cl)cc(C(=O)Nc3ccc(F)cc3)c3cnn2c13

>  <HIPPO Compound ID>  (2583) 
38108

>  <fragmenstein_runtime>  (2583) 
9.134598

$$$$
O=C(Nc1ccc(F)cc1)c1cc(Cl)cc2c(C3CNC3)n(F)c(F)c12
     RDKit          3D

 26 29  0  0  0  0  0  0  0  0999 V2000
   -7.1855    6.9525  -14.1133 O   0  0  0  0  0  0  0  0  0  0  0  0
   -7.4555    5.8193  -14.1932 C   0  0  0  0  0  0  0  0  0  0  0  0
   -7.9674    4.8346  -13.1207 N   0  0  0  0  0  0  0  0  0  0  0  0
   -8.1575    5.0063  -11.7545 C   0  0  0  0  0  0  0  0  0  0  0  0
   -8.5110    3.9088  -10.9690 C   0  0  0  0  0  0  0  0  0  0  0  0
   -8.6851    4.0700   -9.5920 C   0  0  0  0  0  0  0  0  0  0  0  0
   -8.5259    5.3270   -9.0182 C   0  0  0  0  0  0  0  0  0  0  0  0
   -8.7107    5.4823   -7.7000 F   0  0  0  0  0  0  0  0  0  0  0  0
   -8.1935    6.4294   -9.7942 C   0  0  0  0  0  0  0  0  0  0  0  0
   -8.0013    6.2664  -11.1659 C   0  0  0  0  0  0  0  0  0  0  0  0
   -7.4090    5.2072  -15.5232 C   0  0  0  0  0  0  0  0  0  0  0  0
   -8.5860    4.7854  -16.1790 C   0  0  0  0  0  0  0  0  0  0  0  0
   -8.6456    4.5232  -17.5865 C   0  0  0  0  0  0  0  0  0  0  0  0
  -10.1903    4.1455  -18.2529 Cl  0  0  0  0  0  0  0  0  0  0  0  0
   -7.5541    4.6417  -18.4770 C   0  0  0  0  0  0  0  0  0  0  0  0
   -6.4017    5.0411  -17.8069 C   0  0  0  0  0  0  0  0  0  0  0  0
   -5.1762    5.3454  -18.3591 C   0  0  0  0  0  0  0  0  0  0  0  0
   -4.7978    5.3797  -19.8677 C   0  0  0  0  0  0  0  0  0  0  0  0
   -3.3004    5.3356  -20.2368 C   0  0  0  0  0  0  0  0  0  0  0  0
   -3.4789    6.5111  -21.1008 N   0  0  0  0  0  0  0  0  0  0  0  0
   -4.7829    6.7956  -20.4779 C   0  0  0  0  0  0  0  0  0  0  0  0
   -4.3730    5.6936  -17.3111 N   0  0  0  0  0  0  0  0  0  0  0  0
   -3.0670    6.0984  -17.4253 F   0  0  0  0  0  0  0  0  0  0  0  0
   -5.0293    5.6474  -16.1245 C   0  0  0  0  0  0  0  0  0  0  0  0
   -4.4697    5.8843  -14.9337 F   0  0  0  0  0  0  0  0  0  0  0  0
   -6.3256    5.2995  -16.3962 C   0  0  0  0  0  0  0  0  0  0  0  0
  1  2  2  0
  2  3  1  0
  3  4  1  0
  4  5  2  0
  5  6  1  0
  6  7  2  0
  7  8  1  0
  7  9  1  0
  9 10  2  0
  2 11  1  0
 11 12  2  0
 12 13  1  0
 13 14  1  0
 13 15  2  0
 15 16  1  0
 16 17  2  0
 17 18  1  0
 18 19  1  0
 19 20  1  0
 20 21  1  0
 17 22  1  0
 22 23  1  0
 22 24  1  0
 24 25  1  0
 24 26  2  0
 10  4  1  0
 26 11  1  0
 26 16  1  0
 21 18  1  0
M  END
>  <smiles>  (2584) 
C38109-P281

>  <fragmenstein_outcome>  (2584) 
acceptable

>  <inchikey>  (2584) 
MUUWOZXFFVCXED-UHFFFAOYSA-N

>  <fragmenstein_mode>  (2584) 
expansion

>  <HIPPO Pose ID>  (2584) 
28587

>  <Energy>  (2584) 
68.416311

>  <fragmenstein_error>  (2584) 


>  <tags>  (2584) 
{'openbind_xx01zvns2b_c1_fragmenstein', 'fragmenstein_placed'}

>  <ref_pdb>  (2584) 
175

>  <scratch_subdir>  (2584) 
/opt/xchem-fragalysis-2/maxwin/BulkDock/SCRATCH/511028/C38109-P281

>  <alias>  (2584) 
O=C(Nc1ccc(F)cc1)c1cc(Cl)cc2c(C3CNC3)n(F)c(F)c12

>  <HIPPO Compound ID>  (2584) 
38109

>  <fragmenstein_runtime>  (2584) 
10.529102

$$$$
COCc1cc2c(C(=O)Nc3ccc(F)cc3)cc(Cl)cc2n1C1CNC1
     RDKit          3D

 27 30  0  0  0  0  0  0  0  0999 V2000
   -3.0620    9.4142  -19.2217 C   0  0  0  0  0  0  0  0  0  0  0  0
   -3.9880    8.4143  -18.8425 O   0  0  0  0  0  0  0  0  0  0  0  0
   -3.4515    7.4737  -17.9190 C   0  0  0  0  0  0  0  0  0  0  0  0
   -4.5765    6.5602  -17.5711 C   0  0  0  0  0  0  0  0  0  0  0  0
   -5.1717    6.4240  -16.3281 C   0  0  0  0  0  0  0  0  0  0  0  0
   -6.3958    5.7209  -16.4815 C   0  0  0  0  0  0  0  0  0  0  0  0
   -7.4865    5.4360  -15.6262 C   0  0  0  0  0  0  0  0  0  0  0  0
   -7.5047    6.0055  -14.2565 C   0  0  0  0  0  0  0  0  0  0  0  0
   -7.1974    7.1250  -14.1271 O   0  0  0  0  0  0  0  0  0  0  0  0
   -7.9383    4.9576  -13.2058 N   0  0  0  0  0  0  0  0  0  0  0  0
   -8.1671    5.0888  -11.8405 C   0  0  0  0  0  0  0  0  0  0  0  0
   -8.4583    3.9545  -11.0813 C   0  0  0  0  0  0  0  0  0  0  0  0
   -8.6443    4.0729   -9.7011 C   0  0  0  0  0  0  0  0  0  0  0  0
   -8.5547    5.3226   -9.0971 C   0  0  0  0  0  0  0  0  0  0  0  0
   -8.7440    5.4359   -7.7753 F   0  0  0  0  0  0  0  0  0  0  0  0
   -8.2884    6.4606   -9.8470 C   0  0  0  0  0  0  0  0  0  0  0  0
   -8.0899    6.3421  -11.2225 C   0  0  0  0  0  0  0  0  0  0  0  0
   -8.6302    4.8123  -16.1356 C   0  0  0  0  0  0  0  0  0  0  0  0
   -8.6959    4.5060  -17.4877 C   0  0  0  0  0  0  0  0  0  0  0  0
  -10.1843    3.9853  -18.1611 Cl  0  0  0  0  0  0  0  0  0  0  0  0
   -7.6169    4.7227  -18.3443 C   0  0  0  0  0  0  0  0  0  0  0  0
   -6.4719    5.3455  -17.8233 C   0  0  0  0  0  0  0  0  0  0  0  0
   -5.3015    5.7625  -18.4389 N   0  0  0  0  0  0  0  0  0  0  0  0
   -5.0186    5.3965  -19.8540 C   0  0  0  0  0  0  0  0  0  0  0  0
   -3.5550    5.2893  -20.2669 C   0  0  0  0  0  0  0  0  0  0  0  0
   -3.6706    6.5217  -21.0615 N   0  0  0  0  0  0  0  0  0  0  0  0
   -5.1353    6.5510  -20.8484 C   0  0  0  0  0  0  0  0  0  0  0  0
  1  2  1  0
  2  3  1  0
  3  4  1  0
  4  5  2  0
  5  6  1  0
  6  7  2  0
  7  8  1  0
  8  9  2  0
  8 10  1  0
 10 11  1  0
 11 12  2  0
 12 13  1  0
 13 14  2  0
 14 15  1  0
 14 16  1  0
 16 17  2  0
  7 18  1  0
 18 19  2  0
 19 20  1  0
 19 21  1  0
 21 22  2  0
 22 23  1  0
 23 24  1  0
 24 25  1  0
 25 26  1  0
 26 27  1  0
 23  4  1  0
 27 24  1  0
 22  6  1  0
 17 11  1  0
M  END
>  <smiles>  (2585) 
C38112-P281

>  <fragmenstein_outcome>  (2585) 
acceptable

>  <inchikey>  (2585) 
HJFXXWHMBUJBFQ-UHFFFAOYSA-N

>  <fragmenstein_mode>  (2585) 
expansion

>  <HIPPO Pose ID>  (2585) 
28588

>  <Energy>  (2585) 
66.19579

>  <fragmenstein_error>  (2585) 


>  <tags>  (2585) 
{'openbind_xx01zvns2b_c1_fragmenstein', 'fragmenstein_placed'}

>  <ref_pdb>  (2585) 
175

>  <scratch_subdir>  (2585) 
/opt/xchem-fragalysis-2/maxwin/BulkDock/SCRATCH/511028/C38112-P281

>  <alias>  (2585) 
COCc1cc2c(C(=O)Nc3ccc(F)cc3)cc(Cl)cc2n1C1CNC1

>  <HIPPO Compound ID>  (2585) 
33555

>  <fragmenstein_runtime>  (2585) 
7.302173

$$$$
Cc1cc(NC(=O)c2cc(Cl)cc3c(C4CNC4)n(C)cc23)ccc1F
     RDKit          3D

 26 29  0  0  0  0  0  0  0  0999 V2000
   -8.9574    2.9996   -8.6549 C   0  0  0  0  0  0  0  0  0  0  0  0
   -8.6626    4.1800   -9.5275 C   0  0  0  0  0  0  0  0  0  0  0  0
   -8.4663    4.0088  -10.9070 C   0  0  0  0  0  0  0  0  0  0  0  0
   -8.1409    5.1041  -11.7079 C   0  0  0  0  0  0  0  0  0  0  0  0
   -7.8964    4.9151  -13.0638 N   0  0  0  0  0  0  0  0  0  0  0  0
   -7.4874    5.9223  -14.1581 C   0  0  0  0  0  0  0  0  0  0  0  0
   -7.2162    7.0552  -14.0808 O   0  0  0  0  0  0  0  0  0  0  0  0
   -7.4764    5.3097  -15.4880 C   0  0  0  0  0  0  0  0  0  0  0  0
   -8.6493    4.8804  -16.1398 C   0  0  0  0  0  0  0  0  0  0  0  0
   -8.6927    4.5793  -17.5411 C   0  0  0  0  0  0  0  0  0  0  0  0
  -10.2282    4.1827  -18.2207 Cl  0  0  0  0  0  0  0  0  0  0  0  0
   -7.5890    4.6673  -18.4198 C   0  0  0  0  0  0  0  0  0  0  0  0
   -6.4367    5.0485  -17.7381 C   0  0  0  0  0  0  0  0  0  0  0  0
   -5.1892    5.2988  -18.2679 C   0  0  0  0  0  0  0  0  0  0  0  0
   -4.8824    5.3641  -19.7969 C   0  0  0  0  0  0  0  0  0  0  0  0
   -3.4422    5.5342  -20.3248 C   0  0  0  0  0  0  0  0  0  0  0  0
   -3.9686    6.4710  -21.3517 N   0  0  0  0  0  0  0  0  0  0  0  0
   -5.0787    6.7753  -20.4078 C   0  0  0  0  0  0  0  0  0  0  0  0
   -4.3498    5.5232  -17.1982 N   0  0  0  0  0  0  0  0  0  0  0  0
   -2.9101    5.5725  -17.2237 C   0  0  0  0  0  0  0  0  0  0  0  0
   -5.0836    5.6577  -16.0389 C   0  0  0  0  0  0  0  0  0  0  0  0
   -6.3810    5.3429  -16.3474 C   0  0  0  0  0  0  0  0  0  0  0  0
   -8.0317    6.3775  -11.1402 C   0  0  0  0  0  0  0  0  0  0  0  0
   -8.2319    6.5561   -9.7733 C   0  0  0  0  0  0  0  0  0  0  0  0
   -8.5285    5.4573   -8.9776 C   0  0  0  0  0  0  0  0  0  0  0  0
   -8.6989    5.6443   -7.6600 F   0  0  0  0  0  0  0  0  0  0  0  0
  1  2  1  0
  2  3  2  0
  3  4  1  0
  4  5  1  0
  5  6  1  0
  6  7  2  0
  6  8  1  0
  8  9  2  0
  9 10  1  0
 10 11  1  0
 10 12  2  0
 12 13  1  0
 13 14  2  0
 14 15  1  0
 15 16  1  0
 16 17  1  0
 17 18  1  0
 14 19  1  0
 19 20  1  0
 19 21  1  0
 21 22  2  0
  4 23  2  0
 23 24  1  0
 24 25  2  0
 25 26  1  0
 25  2  1  0
 22  8  1  0
 22 13  1  0
 18 15  1  0
M  END
>  <smiles>  (2586) 
C38119-P281

>  <fragmenstein_outcome>  (2586) 
acceptable

>  <inchikey>  (2586) 
BUEOTCYTPUSPMV-UHFFFAOYSA-N

>  <fragmenstein_mode>  (2586) 
expansion

>  <HIPPO Pose ID>  (2586) 
28589

>  <Energy>  (2586) 
84.175503

>  <fragmenstein_error>  (2586) 


>  <tags>  (2586) 
{'openbind_xx01zvns2b_c1_fragmenstein', 'fragmenstein_placed'}

>  <ref_pdb>  (2586) 
175

>  <scratch_subdir>  (2586) 
/opt/xchem-fragalysis-2/maxwin/BulkDock/SCRATCH/511028/C38119-P281

>  <alias>  (2586) 
Cc1cc(NC(=O)c2cc(Cl)cc3c(C4CNC4)n(C)cc23)ccc1F

>  <HIPPO Compound ID>  (2586) 
38119

>  <fragmenstein_runtime>  (2586) 
10.384306

$$$$
CN(N)c1ccc(NC(=O)c2cc(Cl)cc3c2cc(O)n3[C@@H]2CN[C@H]2OCc2ccccc2)cc1
     RDKit          3D

 35 39  0  0  0  0  0  0  0  0999 V2000
   -7.6530    4.2636   -6.8888 C   0  0  0  0  0  0  0  0  0  0  0  0
   -8.5495    5.2435   -7.5313 N   0  0  0  0  0  0  0  0  0  0  0  0
   -8.6268    6.5281   -6.9271 N   0  0  0  0  0  0  0  0  0  0  0  0
   -8.4637    5.1849   -8.9558 C   0  0  0  0  0  0  0  0  0  0  0  0
   -8.6597    3.9646   -9.6293 C   0  0  0  0  0  0  0  0  0  0  0  0
   -8.5704    3.8668  -11.0235 C   0  0  0  0  0  0  0  0  0  0  0  0
   -8.2856    4.9982  -11.7753 C   0  0  0  0  0  0  0  0  0  0  0  0
   -8.1554    4.8933  -13.1547 N   0  0  0  0  0  0  0  0  0  0  0  0
   -7.7680    5.9520  -14.2085 C   0  0  0  0  0  0  0  0  0  0  0  0
   -7.5721    7.0976  -14.0941 O   0  0  0  0  0  0  0  0  0  0  0  0
   -7.6855    5.3851  -15.5756 C   0  0  0  0  0  0  0  0  0  0  0  0
   -8.7732    4.7101  -16.1271 C   0  0  0  0  0  0  0  0  0  0  0  0
   -8.7981    4.4565  -17.4919 C   0  0  0  0  0  0  0  0  0  0  0  0
  -10.2561    3.9225  -18.2103 Cl  0  0  0  0  0  0  0  0  0  0  0  0
   -7.7230    4.7615  -18.3262 C   0  0  0  0  0  0  0  0  0  0  0  0
   -6.6403    5.4477  -17.7648 C   0  0  0  0  0  0  0  0  0  0  0  0
   -6.6073    5.7690  -16.4035 C   0  0  0  0  0  0  0  0  0  0  0  0
   -5.4388    6.5442  -16.1852 C   0  0  0  0  0  0  0  0  0  0  0  0
   -4.8558    6.7773  -17.4050 C   0  0  0  0  0  0  0  0  0  0  0  0
   -3.8622    7.5973  -17.7160 O   0  0  0  0  0  0  0  0  0  0  0  0
   -5.5150    6.0057  -18.3393 N   0  0  0  0  0  0  0  0  0  0  0  0
   -5.1607    5.8443  -19.7779 C   0  0  2  0  0  0  0  0  0  0  0  0
   -3.6972    5.4597  -20.0066 C   0  0  0  0  0  0  0  0  0  0  0  0
   -3.3899    6.8366  -20.4272 N   0  0  0  0  0  0  0  0  0  0  0  0
   -4.8296    7.1575  -20.5048 C   0  0  1  0  0  0  0  0  0  0  0  0
   -5.2775    7.2744  -21.8672 O   0  0  0  0  0  0  0  0  0  0  0  0
   -4.7261    8.3501  -22.6194 C   0  0  0  0  0  0  0  0  0  0  0  0
   -5.4817    8.5522  -23.9108 C   0  0  0  0  0  0  0  0  0  0  0  0
   -5.5561    9.8273  -24.4909 C   0  0  0  0  0  0  0  0  0  0  0  0
   -6.2078   10.0166  -25.7121 C   0  0  0  0  0  0  0  0  0  0  0  0
   -6.7836    8.9326  -26.3719 C   0  0  0  0  0  0  0  0  0  0  0  0
   -6.7033    7.6591  -25.8143 C   0  0  0  0  0  0  0  0  0  0  0  0
   -6.0527    7.4706  -24.5940 C   0  0  0  0  0  0  0  0  0  0  0  0
   -8.1208    6.2265  -11.1353 C   0  0  0  0  0  0  0  0  0  0  0  0
   -8.2168    6.3194   -9.7425 C   0  0  0  0  0  0  0  0  0  0  0  0
  1  2  1  0
  2  3  1  0
  2  4  1  0
  4  5  2  0
  5  6  1  0
  6  7  2  0
  7  8  1  0
  8  9  1  0
  9 10  2  0
  9 11  1  0
 11 12  2  0
 12 13  1  0
 13 14  1  0
 13 15  2  0
 15 16  1  0
 16 17  2  0
 17 18  1  0
 18 19  2  0
 19 20  1  0
 19 21  1  0
 22 21  1  1
 22 23  1  0
 23 24  1  0
 24 25  1  0
 25 26  1  6
 26 27  1  0
 27 28  1  0
 28 29  2  0
 29 30  1  0
 30 31  2  0
 31 32  1  0
 32 33  2  0
  7 34  1  0
 34 35  2  0
 35  4  1  0
 17 11  1  0
 25 22  1  0
 33 28  1  0
 21 16  1  0
M  END
>  <smiles>  (2587) 
C38159-P281

>  <fragmenstein_outcome>  (2587) 
acceptable

>  <inchikey>  (2587) 
VXYJVXQINILPFZ-UHFFFAOYSA-N

>  <fragmenstein_mode>  (2587) 
expansion

>  <HIPPO Pose ID>  (2587) 
28598

>  <Energy>  (2587) 
89.309775

>  <fragmenstein_error>  (2587) 


>  <tags>  (2587) 
{'openbind_xx01zvns2b_c1_fragmenstein', 'fragmenstein_placed'}

>  <ref_pdb>  (2587) 
175

>  <scratch_subdir>  (2587) 
/opt/xchem-fragalysis-2/maxwin/BulkDock/SCRATCH/511028/C38159-P281

>  <alias>  (2587) 
CN(N)c1ccc(NC(=O)c2cc(Cl)cc3c2cc(O)n3[C@@H]2CN[C@H]2OCc2ccccc2)cc1

>  <HIPPO Compound ID>  (2587) 
33181

>  <fragmenstein_runtime>  (2587) 
11.863059

$$$$
CC(C)n1cc2c(C(=O)Nc3ccc(F)c(CN)c3)cc(Cl)cc2c1C1CNC1
     RDKit          3D

 29 32  0  0  0  0  0  0  0  0999 V2000
   -2.2291    6.5552  -16.4406 C   0  0  0  0  0  0  0  0  0  0  0  0
   -3.4743    7.3349  -16.8446 C   0  0  0  0  0  0  0  0  0  0  0  0
   -3.2513    8.3857  -17.9243 C   0  0  0  0  0  0  0  0  0  0  0  0
   -4.6383    6.4632  -16.9865 N   0  0  0  0  0  0  0  0  0  0  0  0
   -5.4145    6.2725  -15.8528 C   0  0  0  0  0  0  0  0  0  0  0  0
   -6.5611    5.6434  -16.2261 C   0  0  0  0  0  0  0  0  0  0  0  0
   -7.6681    5.4094  -15.4174 C   0  0  0  0  0  0  0  0  0  0  0  0
   -7.8317    6.0325  -14.0982 C   0  0  0  0  0  0  0  0  0  0  0  0
   -7.6528    7.1838  -14.0282 O   0  0  0  0  0  0  0  0  0  0  0  0
   -8.1970    5.0098  -13.0045 N   0  0  0  0  0  0  0  0  0  0  0  0
   -8.3217    5.1649  -11.6280 C   0  0  0  0  0  0  0  0  0  0  0  0
   -8.2439    6.4459  -11.0724 C   0  0  0  0  0  0  0  0  0  0  0  0
   -8.3684    6.6245   -9.7003 C   0  0  0  0  0  0  0  0  0  0  0  0
   -8.5708    5.5195   -8.8847 C   0  0  0  0  0  0  0  0  0  0  0  0
   -8.7337    5.7363   -7.5700 F   0  0  0  0  0  0  0  0  0  0  0  0
   -8.6410    4.2212   -9.4076 C   0  0  0  0  0  0  0  0  0  0  0  0
   -8.9738    3.0236   -8.5526 C   0  0  0  0  0  0  0  0  0  0  0  0
   -8.4677    3.0801   -7.1867 N   0  0  0  0  0  0  0  0  0  0  0  0
   -8.5218    4.0574  -10.8028 C   0  0  0  0  0  0  0  0  0  0  0  0
   -8.7063    4.7919  -16.1300 C   0  0  0  0  0  0  0  0  0  0  0  0
   -8.6099    4.5000  -17.5312 C   0  0  0  0  0  0  0  0  0  0  0  0
  -10.0489    3.9589  -18.3078 Cl  0  0  0  0  0  0  0  0  0  0  0  0
   -7.4677    4.7280  -18.3404 C   0  0  0  0  0  0  0  0  0  0  0  0
   -6.4473    5.3286  -17.6030 C   0  0  0  0  0  0  0  0  0  0  0  0
   -5.2161    5.7864  -18.0561 C   0  0  0  0  0  0  0  0  0  0  0  0
   -4.7354    5.5265  -19.5388 C   0  0  0  0  0  0  0  0  0  0  0  0
   -3.2437    5.4916  -19.8761 C   0  0  0  0  0  0  0  0  0  0  0  0
   -3.4789    6.3916  -21.0164 N   0  0  0  0  0  0  0  0  0  0  0  0
   -4.8301    6.7099  -20.5111 C   0  0  0  0  0  0  0  0  0  0  0  0
  1  2  1  0
  2  3  1  0
  2  4  1  0
  4  5  1  0
  5  6  2  0
  6  7  1  0
  7  8  1  0
  8  9  2  0
  8 10  1  0
 10 11  1  0
 11 12  2  0
 12 13  1  0
 13 14  2  0
 14 15  1  0
 14 16  1  0
 16 17  1  0
 17 18  1  0
 16 19  2  0
  7 20  2  0
 20 21  1  0
 21 22  1  0
 21 23  2  0
 23 24  1  0
 24 25  2  0
 25 26  1  0
 26 27  1  0
 27 28  1  0
 28 29  1  0
 25  4  1  0
 29 26  1  0
 24  6  1  0
 19 11  1  0
M  END
>  <smiles>  (2588) 
C38162-P281

>  <fragmenstein_outcome>  (2588) 
acceptable

>  <inchikey>  (2588) 
YYDFKBLRUMJUDC-UHFFFAOYSA-N

>  <fragmenstein_mode>  (2588) 
expansion

>  <HIPPO Pose ID>  (2588) 
28599

>  <Energy>  (2588) 
86.562136

>  <fragmenstein_error>  (2588) 


>  <tags>  (2588) 
{'openbind_xx01zvns2b_c1_fragmenstein', 'fragmenstein_placed'}

>  <ref_pdb>  (2588) 
175

>  <scratch_subdir>  (2588) 
/opt/xchem-fragalysis-2/maxwin/BulkDock/SCRATCH/511028/C38162-P281

>  <alias>  (2588) 
CC(C)n1cc2c(C(=O)Nc3ccc(F)c(CN)c3)cc(Cl)cc2c1C1CNC1

>  <HIPPO Compound ID>  (2588) 
38162

>  <fragmenstein_runtime>  (2588) 
14.24935

$$$$
O=C(N[C@@H]1CCC2=C(CNC2)C1)c1cc(Cl)cc2c1cnn2C1CNC1
     RDKit          3D

 26 30  0  0  0  0  0  0  0  0999 V2000
   -6.5877    6.7475  -14.2421 O   0  0  0  0  0  0  0  0  0  0  0  0
   -7.0789    5.6931  -14.2745 C   0  0  0  0  0  0  0  0  0  0  0  0
   -7.6008    4.8062  -13.1416 N   0  0  0  0  0  0  0  0  0  0  0  0
   -7.5453    4.9839  -11.7083 C   0  0  2  0  0  0  0  0  0  0  0  0
   -8.2889    3.9030  -10.9217 C   0  0  0  0  0  0  0  0  0  0  0  0
   -8.2028    4.1274   -9.3997 C   0  0  0  0  0  0  0  0  0  0  0  0
   -8.2179    5.5706   -9.0250 C   0  0  0  0  0  0  0  0  0  0  0  0
   -8.1634    6.5791   -9.8932 C   0  0  0  0  0  0  0  0  0  0  0  0
   -8.1307    7.8877   -9.2069 C   0  0  0  0  0  0  0  0  0  0  0  0
   -8.2412    7.5642   -7.7677 N   0  0  0  0  0  0  0  0  0  0  0  0
   -8.2024    6.0903   -7.6374 C   0  0  0  0  0  0  0  0  0  0  0  0
   -8.0316    6.4084  -11.3569 C   0  0  0  0  0  0  0  0  0  0  0  0
   -7.2299    5.0810  -15.6103 C   0  0  0  0  0  0  0  0  0  0  0  0
   -8.4597    4.5994  -16.0748 C   0  0  0  0  0  0  0  0  0  0  0  0
   -8.6051    4.3163  -17.4324 C   0  0  0  0  0  0  0  0  0  0  0  0
  -10.1642    3.9385  -18.0594 Cl  0  0  0  0  0  0  0  0  0  0  0  0
   -7.5417    4.4471  -18.3364 C   0  0  0  0  0  0  0  0  0  0  0  0
   -6.3114    4.9017  -17.8435 C   0  0  0  0  0  0  0  0  0  0  0  0
   -6.1427    5.2117  -16.4979 C   0  0  0  0  0  0  0  0  0  0  0  0
   -4.8093    5.6601  -16.3963 C   0  0  0  0  0  0  0  0  0  0  0  0
   -4.1705    5.6388  -17.5626 N   0  0  0  0  0  0  0  0  0  0  0  0
   -5.0997    5.1982  -18.4352 N   0  0  0  0  0  0  0  0  0  0  0  0
   -4.8534    5.1594  -19.8878 C   0  0  0  0  0  0  0  0  0  0  0  0
   -3.3652    5.1362  -20.3026 C   0  0  0  0  0  0  0  0  0  0  0  0
   -3.6931    6.1408  -21.3547 N   0  0  0  0  0  0  0  0  0  0  0  0
   -4.8419    6.5648  -20.5178 C   0  0  0  0  0  0  0  0  0  0  0  0
  1  2  2  0
  2  3  1  0
  4  3  1  6
  4  5  1  0
  5  6  1  0
  6  7  1  0
  7  8  2  0
  8  9  1  0
  9 10  1  0
 10 11  1  0
  8 12  1  0
  2 13  1  0
 13 14  2  0
 14 15  1  0
 15 16  1  0
 15 17  2  0
 17 18  1  0
 18 19  2  0
 19 20  1  0
 20 21  2  0
 21 22  1  0
 22 23  1  0
 23 24  1  0
 24 25  1  0
 25 26  1  0
 12  4  1  0
 19 13  1  0
 26 23  1  0
 11  7  1  0
 22 18  1  0
M  END
>  <smiles>  (2589) 
C38165-P76

>  <fragmenstein_outcome>  (2589) 
acceptable

>  <inchikey>  (2589) 
ZIYQYBMPWSNFJF-UHFFFAOYSA-N

>  <fragmenstein_mode>  (2589) 
expansion

>  <HIPPO Pose ID>  (2589) 
28602

>  <Energy>  (2589) 
36.779281

>  <fragmenstein_error>  (2589) 


>  <tags>  (2589) 
{'openbind_xx01zvns2b_c1_fragmenstein', 'fragmenstein_placed'}

>  <ref_pdb>  (2589) 
175

>  <scratch_subdir>  (2589) 
/opt/xchem-fragalysis-2/maxwin/BulkDock/SCRATCH/511028/C38165-P76

>  <alias>  (2589) 
O=C(N[C@@H]1CCC2=C(CNC2)C1)c1cc(Cl)cc2c1cnn2C1CNC1

>  <HIPPO Compound ID>  (2589) 
38165

>  <fragmenstein_runtime>  (2589) 
14.771416

$$$$
NCOc1ccc(NC(=O)c2cc(Cl)cc3c2c[n+]([O-])n3C2CNC2)cc1
     RDKit          3D

 27 30  0  0  0  0  0  0  0  0999 V2000
   -8.8805    5.3484   -5.4595 N   0  0  0  0  0  0  0  0  0  0  0  0
   -8.5115    4.8976   -6.7962 C   0  0  0  0  0  0  0  0  0  0  0  0
   -8.6077    6.0074   -7.6780 O   0  0  0  0  0  0  0  0  0  0  0  0
   -8.4253    5.7504   -9.0100 C   0  0  0  0  0  0  0  0  0  0  0  0
   -8.0169    4.5361   -9.5573 C   0  0  0  0  0  0  0  0  0  0  0  0
   -7.8774    4.4031  -10.9424 C   0  0  0  0  0  0  0  0  0  0  0  0
   -8.1632    5.4730  -11.7890 C   0  0  0  0  0  0  0  0  0  0  0  0
   -8.0606    5.3331  -13.1674 N   0  0  0  0  0  0  0  0  0  0  0  0
   -7.3554    4.2533  -14.0156 C   0  0  0  0  0  0  0  0  0  0  0  0
   -6.8163    3.2716  -13.6927 O   0  0  0  0  0  0  0  0  0  0  0  0
   -7.4974    4.5506  -15.4536 C   0  0  0  0  0  0  0  0  0  0  0  0
   -8.7406    4.3856  -16.0716 C   0  0  0  0  0  0  0  0  0  0  0  0
   -8.8538    4.5254  -17.4478 C   0  0  0  0  0  0  0  0  0  0  0  0
  -10.3825    4.3138  -18.1995 Cl  0  0  0  0  0  0  0  0  0  0  0  0
   -7.7509    4.8380  -18.2430 C   0  0  0  0  0  0  0  0  0  0  0  0
   -6.5207    5.0337  -17.6082 C   0  0  0  0  0  0  0  0  0  0  0  0
   -6.3582    4.9020  -16.2049 C   0  0  0  0  0  0  0  0  0  0  0  0
   -4.9773    5.1365  -15.8405 C   0  0  0  0  0  0  0  0  0  0  0  0
   -4.3109    5.3762  -16.9786 N   0  0  0  0  0  0  0  0  0  0  0  0
   -3.1007    5.6352  -17.1368 O   0  0  0  0  0  0  0  0  0  0  0  0
   -5.2523    5.3104  -18.0892 N   0  0  0  0  0  0  0  0  0  0  0  0
   -4.9588    5.3688  -19.5311 C   0  0  0  0  0  0  0  0  0  0  0  0
   -3.5029    5.5671  -19.9986 C   0  0  0  0  0  0  0  0  0  0  0  0
   -4.0399    6.4649  -21.0669 N   0  0  0  0  0  0  0  0  0  0  0  0
   -5.1571    6.7754  -20.1297 C   0  0  0  0  0  0  0  0  0  0  0  0
   -8.5784    6.6876  -11.2500 C   0  0  0  0  0  0  0  0  0  0  0  0
   -8.6915    6.8273   -9.8626 C   0  0  0  0  0  0  0  0  0  0  0  0
  1  2  1  0
  2  3  1  0
  3  4  1  0
  4  5  2  0
  5  6  1  0
  6  7  2  0
  7  8  1  0
  8  9  1  0
  9 10  2  0
  9 11  1  0
 11 12  2  0
 12 13  1  0
 13 14  1  0
 13 15  2  0
 15 16  1  0
 16 17  2  0
 17 18  1  0
 18 19  2  0
 19 20  1  0
 19 21  1  0
 21 22  1  0
 22 23  1  0
 23 24  1  0
 24 25  1  0
  7 26  1  0
 26 27  2  0
 27  4  1  0
 17 11  1  0
 25 22  1  0
 21 16  1  0
M  CHG  2  19   1  20  -1
M  END
>  <smiles>  (2590) 
C38177-P281

>  <fragmenstein_outcome>  (2590) 
acceptable

>  <inchikey>  (2590) 
QLQYVKZFOKRXFC-UHFFFAOYSA-N

>  <fragmenstein_mode>  (2590) 
expansion

>  <HIPPO Pose ID>  (2590) 
28612

>  <Energy>  (2590) 
37.297821

>  <fragmenstein_error>  (2590) 


>  <tags>  (2590) 
{'openbind_xx01zvns2b_c1_fragmenstein', 'fragmenstein_placed'}

>  <ref_pdb>  (2590) 
175

>  <scratch_subdir>  (2590) 
/opt/xchem-fragalysis-2/maxwin/BulkDock/SCRATCH/511028/C38177-P281

>  <alias>  (2590) 
NCOc1ccc(NC(=O)c2cc(Cl)cc3c2c[n+]([O-])n3C2CNC2)cc1

>  <HIPPO Compound ID>  (2590) 
38177

>  <fragmenstein_runtime>  (2590) 
9.463105

$$$$
CCc1nn(C2CNC2)c2cc(Cl)cc([C@@](O)(N[C@@H]3CC[C@H]4CNC[C@H]4C3)C(=O)NCC(F)F)c12
     RDKit          3D

 35 39  0  0  0  0  0  0  0  0999 V2000
   -2.1160    5.7510  -15.2394 C   0  0  0  0  0  0  0  0  0  0  0  0
   -3.5680    5.3586  -14.9848 C   0  0  0  0  0  0  0  0  0  0  0  0
   -4.4835    5.4260  -16.1648 C   0  0  0  0  0  0  0  0  0  0  0  0
   -3.9304    5.7051  -17.3411 N   0  0  0  0  0  0  0  0  0  0  0  0
   -4.9523    5.7716  -18.1967 N   0  0  0  0  0  0  0  0  0  0  0  0
   -4.7239    6.6139  -19.3737 C   0  0  0  0  0  0  0  0  0  0  0  0
   -3.5314    6.0999  -20.2130 C   0  0  0  0  0  0  0  0  0  0  0  0
   -4.2637    6.5860  -21.4083 N   0  0  0  0  0  0  0  0  0  0  0  0
   -5.5207    6.3797  -20.6387 C   0  0  0  0  0  0  0  0  0  0  0  0
   -6.1449    5.3317  -17.6616 C   0  0  0  0  0  0  0  0  0  0  0  0
   -7.3985    5.0578  -18.2245 C   0  0  0  0  0  0  0  0  0  0  0  0
   -8.4263    4.6502  -17.3799 C   0  0  0  0  0  0  0  0  0  0  0  0
   -9.9600    4.2533  -18.0611 Cl  0  0  0  0  0  0  0  0  0  0  0  0
   -8.2415    4.5979  -16.0024 C   0  0  0  0  0  0  0  0  0  0  0  0
   -6.9905    4.8955  -15.3984 C   0  0  0  0  0  0  0  0  0  0  0  0
   -6.8403    4.9114  -13.8720 C   0  0  1  0  0  0  0  0  0  0  0  0
   -6.2476    6.1701  -13.6052 O   0  0  0  0  0  0  0  0  0  0  0  0
   -8.1193    4.9421  -13.1136 N   0  0  0  0  0  0  0  0  0  0  0  0
   -7.8673    5.1294  -11.6650 C   0  0  2  0  0  0  0  0  0  0  0  0
   -8.4281    3.9866  -10.8207 C   0  0  0  0  0  0  0  0  0  0  0  0
   -7.9670    4.1551   -9.3783 C   0  0  0  0  0  0  0  0  0  0  0  0
   -8.3591    5.5078   -8.7740 C   0  0  1  0  0  0  0  0  0  0  0  0
   -7.4897    5.8449   -7.5531 C   0  0  0  0  0  0  0  0  0  0  0  0
   -6.7395    7.0706   -7.8827 N   0  0  0  0  0  0  0  0  0  0  0  0
   -6.7741    7.1798   -9.3452 C   0  0  0  0  0  0  0  0  0  0  0  0
   -8.1817    6.7165   -9.6961 C   0  0  1  0  0  0  0  0  0  0  0  0
   -8.4024    6.4804  -11.1896 C   0  0  0  0  0  0  0  0  0  0  0  0
   -6.0290    3.5873  -13.3888 C   0  0  0  0  0  0  0  0  0  0  0  0
   -6.3415    2.5071  -13.7019 O   0  0  0  0  0  0  0  0  0  0  0  0
   -4.9183    4.0712  -12.4159 N   0  0  0  0  0  0  0  0  0  0  0  0
   -3.9019    3.3240  -11.7021 C   0  0  0  0  0  0  0  0  0  0  0  0
   -3.3667    2.0842  -12.4184 C   0  0  0  0  0  0  0  0  0  0  0  0
   -2.6288    2.4611  -13.4985 F   0  0  0  0  0  0  0  0  0  0  0  0
   -2.4977    1.4386  -11.5916 F   0  0  0  0  0  0  0  0  0  0  0  0
   -5.9004    5.1947  -16.2851 C   0  0  0  0  0  0  0  0  0  0  0  0
  1  2  1  0
  2  3  1  0
  3  4  2  0
  4  5  1  0
  5  6  1  0
  6  7  1  0
  7  8  1  0
  8  9  1  0
  5 10  1  0
 10 11  2  0
 11 12  1  0
 12 13  1  0
 12 14  2  0
 14 15  1  0
 15 16  1  0
 16 17  1  6
 16 18  1  0
 19 18  1  6
 19 20  1  0
 20 21  1  0
 22 21  1  6
 22 23  1  0
 23 24  1  0
 24 25  1  0
 26 25  1  6
 26 27  1  0
 16 28  1  0
 28 29  2  0
 28 30  1  0
 30 31  1  0
 31 32  1  0
 32 33  1  0
 32 34  1  0
 15 35  2  0
 35  3  1  0
  9  6  1  0
 35 10  1  0
 27 19  1  0
 26 22  1  0
M  END
>  <smiles>  (2591) 
C33388-P281

>  <fragmenstein_outcome>  (2591) 
acceptable

>  <inchikey>  (2591) 
UTEJQQZLMUFYTG-UHFFFAOYSA-N

>  <fragmenstein_mode>  (2591) 
expansion

>  <HIPPO Pose ID>  (2591) 
28613

>  <Energy>  (2591) 
132.719496

>  <fragmenstein_error>  (2591) 


>  <tags>  (2591) 
{'openbind_xx01zvns2b_c1_fragmenstein', 'fragmenstein_placed'}

>  <ref_pdb>  (2591) 
175

>  <scratch_subdir>  (2591) 
/opt/xchem-fragalysis-2/maxwin/BulkDock/SCRATCH/511028/C33388-P281

>  <alias>  (2591) 
CCc1nn(C2CNC2)c2cc(Cl)cc([C@@](O)(N[C@@H]3CC[C@H]4CNC[C@H]4C3)C(=O)NCC(F)F)c12

>  <HIPPO Compound ID>  (2591) 
33388

>  <fragmenstein_runtime>  (2591) 
9.350305

$$$$
C[C@]1(OCCCO)C(=O)N(C2CNC2)c2cc(Cl)cc(C(=O)N[C@H]3CC[C@H]4CNC[C@@H]4C3)c21
     RDKit          3D

 33 37  0  0  0  0  0  0  0  0999 V2000
   -4.1404    6.3239  -15.2377 C   0  0  0  0  0  0  0  0  0  0  0  0
   -4.7162    5.0772  -15.9087 C   0  0  2  0  0  0  0  0  0  0  0  0
   -4.6049    3.8591  -15.1790 O   0  0  0  0  0  0  0  0  0  0  0  0
   -3.5124    3.7082  -14.2816 C   0  0  0  0  0  0  0  0  0  0  0  0
   -3.5636    2.2777  -13.7474 C   0  0  0  0  0  0  0  0  0  0  0  0
   -2.6059    2.0194  -12.5956 C   0  0  0  0  0  0  0  0  0  0  0  0
   -1.2510    2.0565  -13.0260 O   0  0  0  0  0  0  0  0  0  0  0  0
   -4.0158    4.9656  -17.2985 C   0  0  0  0  0  0  0  0  0  0  0  0
   -2.8110    4.8385  -17.4766 O   0  0  0  0  0  0  0  0  0  0  0  0
   -5.0088    5.0388  -18.2815 N   0  0  0  0  0  0  0  0  0  0  0  0
   -4.7972    5.1839  -19.7239 C   0  0  0  0  0  0  0  0  0  0  0  0
   -3.3650    5.4916  -20.2367 C   0  0  0  0  0  0  0  0  0  0  0  0
   -3.9668    6.4253  -21.2282 N   0  0  0  0  0  0  0  0  0  0  0  0
   -5.0904    6.6059  -20.2733 C   0  0  0  0  0  0  0  0  0  0  0  0
   -6.2800    4.9830  -17.6962 C   0  0  0  0  0  0  0  0  0  0  0  0
   -7.4970    4.7709  -18.3212 C   0  0  0  0  0  0  0  0  0  0  0  0
   -8.6327    4.6663  -17.5193 C   0  0  0  0  0  0  0  0  0  0  0  0
  -10.1540    4.3224  -18.2425 Cl  0  0  0  0  0  0  0  0  0  0  0  0
   -8.5623    4.8779  -16.1374 C   0  0  0  0  0  0  0  0  0  0  0  0
   -7.3259    5.1362  -15.5351 C   0  0  0  0  0  0  0  0  0  0  0  0
   -7.2753    5.6193  -14.1411 C   0  0  0  0  0  0  0  0  0  0  0  0
   -6.6998    6.6142  -13.9548 O   0  0  0  0  0  0  0  0  0  0  0  0
   -8.0234    4.7038  -13.1619 N   0  0  0  0  0  0  0  0  0  0  0  0
   -8.3065    4.8664  -11.7481 C   0  0  1  0  0  0  0  0  0  0  0  0
   -7.3129    4.0579  -10.9057 C   0  0  0  0  0  0  0  0  0  0  0  0
   -7.6178    4.1029   -9.3990 C   0  0  0  0  0  0  0  0  0  0  0  0
   -8.3665    5.3669   -9.0054 C   0  0  1  0  0  0  0  0  0  0  0  0
   -8.1374    5.9060   -7.6072 C   0  0  0  0  0  0  0  0  0  0  0  0
   -8.5178    7.3334   -7.6869 N   0  0  0  0  0  0  0  0  0  0  0  0
   -8.5917    7.7098   -9.1139 C   0  0  0  0  0  0  0  0  0  0  0  0
   -7.9660    6.5466   -9.8595 C   0  0  2  0  0  0  0  0  0  0  0  0
   -8.3715    6.3536  -11.3140 C   0  0  0  0  0  0  0  0  0  0  0  0
   -6.1738    5.1207  -16.3142 C   0  0  0  0  0  0  0  0  0  0  0  0
  2  1  1  1
  2  3  1  0
  3  4  1  0
  4  5  1  0
  5  6  1  0
  6  7  1  0
  2  8  1  0
  8  9  2  0
  8 10  1  0
 10 11  1  0
 11 12  1  0
 12 13  1  0
 13 14  1  0
 10 15  1  0
 15 16  2  0
 16 17  1  0
 17 18  1  0
 17 19  2  0
 19 20  1  0
 20 21  1  0
 21 22  2  0
 21 23  1  0
 24 23  1  6
 24 25  1  0
 25 26  1  0
 27 26  1  6
 27 28  1  0
 28 29  1  0
 29 30  1  0
 31 30  1  1
 31 32  1  0
 20 33  2  0
 33  2  1  0
 14 11  1  0
 33 15  1  0
 32 24  1  0
 31 27  1  0
M  END
>  <smiles>  (2592) 
C33392-P281

>  <fragmenstein_outcome>  (2592) 
acceptable

>  <inchikey>  (2592) 
NFJISSXABHXOOR-UHFFFAOYSA-N

>  <fragmenstein_mode>  (2592) 
expansion

>  <HIPPO Pose ID>  (2592) 
28615

>  <Energy>  (2592) 
107.670859

>  <fragmenstein_error>  (2592) 


>  <tags>  (2592) 
{'openbind_xx01zvns2b_c1_fragmenstein', 'fragmenstein_placed'}

>  <ref_pdb>  (2592) 
175

>  <scratch_subdir>  (2592) 
/opt/xchem-fragalysis-2/maxwin/BulkDock/SCRATCH/511028/C33392-P281

>  <alias>  (2592) 
C[C@]1(OCCCO)C(=O)N(C2CNC2)c2cc(Cl)cc(C(=O)N[C@H]3CC[C@H]4CNC[C@@H]4C3)c21

>  <HIPPO Compound ID>  (2592) 
19124

>  <fragmenstein_runtime>  (2592) 
10.678427

$$$$
O=C(Nc1ccc(Oc2ccncc2)cc1)c1cc(Cl)cc2c1c[n+]([O-])n2C1CNC1
     RDKit          3D

 31 35  0  0  0  0  0  0  0  0999 V2000
   -6.9889    7.2109  -14.2172 O   0  0  0  0  0  0  0  0  0  0  0  0
   -7.4351    6.1479  -14.3843 C   0  0  0  0  0  0  0  0  0  0  0  0
   -8.0806    5.1716  -13.3907 N   0  0  0  0  0  0  0  0  0  0  0  0
   -8.2243    5.2508  -12.0191 C   0  0  0  0  0  0  0  0  0  0  0  0
   -8.8009    4.1546  -11.4048 C   0  0  0  0  0  0  0  0  0  0  0  0
   -8.9834    4.1634  -10.0342 C   0  0  0  0  0  0  0  0  0  0  0  0
   -8.4892    5.2077   -9.2400 C   0  0  0  0  0  0  0  0  0  0  0  0
   -8.4962    5.1755   -7.8499 O   0  0  0  0  0  0  0  0  0  0  0  0
   -8.7143    3.9339   -7.2831 C   0  0  0  0  0  0  0  0  0  0  0  0
   -7.9873    2.8275   -7.7014 C   0  0  0  0  0  0  0  0  0  0  0  0
   -8.4987    1.5869   -7.4066 C   0  0  0  0  0  0  0  0  0  0  0  0
   -9.5723    1.3806   -6.6198 N   0  0  0  0  0  0  0  0  0  0  0  0
  -10.1532    2.4785   -6.0929 C   0  0  0  0  0  0  0  0  0  0  0  0
   -9.7688    3.7750   -6.3954 C   0  0  0  0  0  0  0  0  0  0  0  0
   -7.9431    6.3265   -9.8653 C   0  0  0  0  0  0  0  0  0  0  0  0
   -7.8249    6.3547  -11.2628 C   0  0  0  0  0  0  0  0  0  0  0  0
   -7.4366    5.5605  -15.7446 C   0  0  0  0  0  0  0  0  0  0  0  0
   -8.6061    4.9921  -16.2677 C   0  0  0  0  0  0  0  0  0  0  0  0
   -8.6487    4.5881  -17.5945 C   0  0  0  0  0  0  0  0  0  0  0  0
  -10.1425    4.0593  -18.2492 Cl  0  0  0  0  0  0  0  0  0  0  0  0
   -7.5352    4.6924  -18.4275 C   0  0  0  0  0  0  0  0  0  0  0  0
   -6.3666    5.2423  -17.8861 C   0  0  0  0  0  0  0  0  0  0  0  0
   -6.2801    5.6865  -16.5423 C   0  0  0  0  0  0  0  0  0  0  0  0
   -4.9619    6.2397  -16.2768 C   0  0  0  0  0  0  0  0  0  0  0  0
   -4.2741    6.1776  -17.4244 N   0  0  0  0  0  0  0  0  0  0  0  0
   -3.1383    6.6377  -17.6962 O   0  0  0  0  0  0  0  0  0  0  0  0
   -5.1305    5.5419  -18.4289 N   0  0  0  0  0  0  0  0  0  0  0  0
   -4.8174    5.3614  -19.8613 C   0  0  0  0  0  0  0  0  0  0  0  0
   -3.3328    5.1921  -20.1977 C   0  0  0  0  0  0  0  0  0  0  0  0
   -3.2479    6.6255  -20.5336 N   0  0  0  0  0  0  0  0  0  0  0  0
   -4.7229    6.6976  -20.6113 C   0  0  0  0  0  0  0  0  0  0  0  0
  1  2  2  0
  2  3  1  0
  3  4  1  0
  4  5  2  0
  5  6  1  0
  6  7  2  0
  7  8  1  0
  8  9  1  0
  9 10  2  0
 10 11  1  0
 11 12  2  0
 12 13  1  0
 13 14  2  0
  7 15  1  0
 15 16  2  0
  2 17  1  0
 17 18  2  0
 18 19  1  0
 19 20  1  0
 19 21  2  0
 21 22  1  0
 22 23  2  0
 23 24  1  0
 24 25  2  0
 25 26  1  0
 25 27  1  0
 27 28  1  0
 28 29  1  0
 29 30  1  0
 30 31  1  0
 16  4  1  0
 23 17  1  0
 31 28  1  0
 14  9  1  0
 27 22  1  0
M  CHG  2  25   1  26  -1
M  END
>  <smiles>  (2593) 
C38184-P281

>  <fragmenstein_outcome>  (2593) 
acceptable

>  <inchikey>  (2593) 
NTSAYNDZMRSMJO-UHFFFAOYSA-N

>  <fragmenstein_mode>  (2593) 
expansion

>  <HIPPO Pose ID>  (2593) 
28619

>  <Energy>  (2593) 
77.732163

>  <fragmenstein_error>  (2593) 


>  <tags>  (2593) 
{'openbind_xx01zvns2b_c1_fragmenstein', 'fragmenstein_placed'}

>  <ref_pdb>  (2593) 
175

>  <scratch_subdir>  (2593) 
/opt/xchem-fragalysis-2/maxwin/BulkDock/SCRATCH/511028/C38184-P281

>  <alias>  (2593) 
O=C(Nc1ccc(Oc2ccncc2)cc1)c1cc(Cl)cc2c1c[n+]([O-])n2C1CNC1

>  <HIPPO Compound ID>  (2593) 
38184

>  <fragmenstein_runtime>  (2593) 
11.112977

$$$$
N#Cc1cc(NC(=O)c2cc(Cl)cc3c2cnn3C2CNC2)ccc1F
     RDKit          3D

 26 29  0  0  0  0  0  0  0  0999 V2000
   -9.2464    2.2685   -7.6835 N   0  0  0  0  0  0  0  0  0  0  0  0
   -8.9779    3.0362   -8.5098 C   0  0  0  0  0  0  0  0  0  0  0  0
   -8.6759    4.0842   -9.4286 C   0  0  0  0  0  0  0  0  0  0  0  0
   -8.5329    3.8756  -10.8051 C   0  0  0  0  0  0  0  0  0  0  0  0
   -8.2543    4.9701  -11.6248 C   0  0  0  0  0  0  0  0  0  0  0  0
   -8.0323    4.8036  -12.9877 N   0  0  0  0  0  0  0  0  0  0  0  0
   -7.7468    5.8420  -14.0893 C   0  0  0  0  0  0  0  0  0  0  0  0
   -7.5762    6.9946  -14.0171 O   0  0  0  0  0  0  0  0  0  0  0  0
   -7.5907    5.2502  -15.4252 C   0  0  0  0  0  0  0  0  0  0  0  0
   -8.6844    4.7333  -16.1126 C   0  0  0  0  0  0  0  0  0  0  0  0
   -8.5944    4.5542  -17.4891 C   0  0  0  0  0  0  0  0  0  0  0  0
  -10.0013    4.0637  -18.3422 Cl  0  0  0  0  0  0  0  0  0  0  0  0
   -7.4300    4.8650  -18.2092 C   0  0  0  0  0  0  0  0  0  0  0  0
   -6.3240    5.3383  -17.4839 C   0  0  0  0  0  0  0  0  0  0  0  0
   -6.3839    5.5013  -16.1008 C   0  0  0  0  0  0  0  0  0  0  0  0
   -5.1171    5.9918  -15.7298 C   0  0  0  0  0  0  0  0  0  0  0  0
   -4.3070    6.1469  -16.7711 N   0  0  0  0  0  0  0  0  0  0  0  0
   -5.0753    5.8159  -17.8310 N   0  0  0  0  0  0  0  0  0  0  0  0
   -4.6790    6.3101  -19.1531 C   0  0  0  0  0  0  0  0  0  0  0  0
   -3.1759    6.1018  -19.4282 C   0  0  0  0  0  0  0  0  0  0  0  0
   -3.5238    5.7112  -20.8090 N   0  0  0  0  0  0  0  0  0  0  0  0
   -4.8829    5.3547  -20.3118 C   0  0  0  0  0  0  0  0  0  0  0  0
   -8.1459    6.2575  -11.0738 C   0  0  0  0  0  0  0  0  0  0  0  0
   -8.2918    6.4594   -9.7071 C   0  0  0  0  0  0  0  0  0  0  0  0
   -8.5431    5.3650   -8.8981 C   0  0  0  0  0  0  0  0  0  0  0  0
   -8.6756    5.5459   -7.5790 F   0  0  0  0  0  0  0  0  0  0  0  0
  1  2  3  0
  2  3  1  0
  3  4  2  0
  4  5  1  0
  5  6  1  0
  6  7  1  0
  7  8  2  0
  7  9  1  0
  9 10  2  0
 10 11  1  0
 11 12  1  0
 11 13  2  0
 13 14  1  0
 14 15  2  0
 15 16  1  0
 16 17  2  0
 17 18  1  0
 18 19  1  0
 19 20  1  0
 20 21  1  0
 21 22  1  0
  5 23  2  0
 23 24  1  0
 24 25  2  0
 25 26  1  0
 25  3  1  0
 15  9  1  0
 22 19  1  0
 18 14  1  0
M  END
>  <smiles>  (2594) 
C38010-P281

>  <fragmenstein_outcome>  (2594) 
acceptable

>  <inchikey>  (2594) 
OSKFTALCHBYWQV-UHFFFAOYSA-N

>  <fragmenstein_mode>  (2594) 
expansion

>  <HIPPO Pose ID>  (2594) 
28624

>  <Energy>  (2594) 
62.851503

>  <fragmenstein_error>  (2594) 


>  <tags>  (2594) 
{'openbind_xx01zvns2b_c1_fragmenstein', 'fragmenstein_placed'}

>  <ref_pdb>  (2594) 
175

>  <scratch_subdir>  (2594) 
/opt/xchem-fragalysis-2/maxwin/BulkDock/SCRATCH/511028/C38010-P281

>  <alias>  (2594) 
N#Cc1cc(NC(=O)c2cc(Cl)cc3c2cnn3C2CNC2)ccc1F

>  <HIPPO Compound ID>  (2594) 
38010

>  <fragmenstein_runtime>  (2594) 
17.879649

$$$$
O=C(N[C@H]1CCC2=C(CNC2)C1)c1cc(Cl)cc2c1C[C@]13CNC[C@H]1O[C@H]1NCC[C@H]1N23
     RDKit          3D

 32 38  0  0  0  0  0  0  0  0999 V2000
   -7.3535    6.8654  -14.0177 O   0  0  0  0  0  0  0  0  0  0  0  0
   -7.6436    5.7403  -14.1049 C   0  0  0  0  0  0  0  0  0  0  0  0
   -8.2170    4.7763  -13.0574 N   0  0  0  0  0  0  0  0  0  0  0  0
   -8.4698    4.9644  -11.6437 C   0  0  1  0  0  0  0  0  0  0  0  0
   -7.6004    4.0662  -10.7598 C   0  0  0  0  0  0  0  0  0  0  0  0
   -8.0073    4.1823   -9.2777 C   0  0  0  0  0  0  0  0  0  0  0  0
   -8.2877    5.5935   -8.8850 C   0  0  0  0  0  0  0  0  0  0  0  0
   -8.4363    6.6007   -9.7445 C   0  0  0  0  0  0  0  0  0  0  0  0
   -8.6398    7.8823   -9.0341 C   0  0  0  0  0  0  0  0  0  0  0  0
   -8.7785    7.5114   -7.6051 N   0  0  0  0  0  0  0  0  0  0  0  0
   -8.3898    6.0834   -7.4902 C   0  0  0  0  0  0  0  0  0  0  0  0
   -8.3611    6.4493  -11.2197 C   0  0  0  0  0  0  0  0  0  0  0  0
   -7.5539    5.1224  -15.4381 C   0  0  0  0  0  0  0  0  0  0  0  0
   -8.7124    4.7435  -16.1015 C   0  0  0  0  0  0  0  0  0  0  0  0
   -8.6527    4.4587  -17.4649 C   0  0  0  0  0  0  0  0  0  0  0  0
  -10.1170    4.1124  -18.2913 Cl  0  0  0  0  0  0  0  0  0  0  0  0
   -7.4475    4.5311  -18.1750 C   0  0  0  0  0  0  0  0  0  0  0  0
   -6.2876    4.8925  -17.5033 C   0  0  0  0  0  0  0  0  0  0  0  0
   -6.3583    5.1653  -16.1353 C   0  0  0  0  0  0  0  0  0  0  0  0
   -5.0087    5.5115  -15.6177 C   0  0  0  0  0  0  0  0  0  0  0  0
   -4.3134    5.8840  -16.9490 C   0  0  2  0  0  0  0  0  0  0  0  0
   -2.7963    5.7360  -16.8038 C   0  0  0  0  0  0  0  0  0  0  0  0
   -2.3770    6.8966  -15.9942 N   0  0  0  0  0  0  0  0  0  0  0  0
   -3.3188    7.9895  -16.3256 C   0  0  0  0  0  0  0  0  0  0  0  0
   -4.4202    7.4010  -17.2270 C   0  0  1  0  0  0  0  0  0  0  0  0
   -4.0783    7.7477  -18.5803 O   0  0  0  0  0  0  0  0  0  0  0  0
   -4.8842    7.0750  -19.5464 C   0  0  1  0  0  0  0  0  0  0  0  0
   -4.2381    7.2984  -20.8382 N   0  0  0  0  0  0  0  0  0  0  0  0
   -3.1099    6.3668  -20.8483 C   0  0  0  0  0  0  0  0  0  0  0  0
   -3.5756    5.1298  -20.0924 C   0  0  0  0  0  0  0  0  0  0  0  0
   -4.8801    5.5400  -19.4102 C   0  0  1  0  0  0  0  0  0  0  0  0
   -4.9664    5.0575  -18.0181 N   0  0  0  0  0  0  0  0  0  0  0  0
  1  2  2  0
  2  3  1  0
  4  3  1  6
  4  5  1  0
  5  6  1  0
  6  7  1  0
  7  8  2  0
  8  9  1  0
  9 10  1  0
 10 11  1  0
  8 12  1  0
  2 13  1  0
 13 14  2  0
 14 15  1  0
 15 16  1  0
 15 17  2  0
 17 18  1  0
 18 19  2  0
 19 20  1  0
 21 20  1  1
 21 22  1  0
 22 23  1  0
 23 24  1  0
 25 24  1  1
 25 26  1  0
 26 27  1  0
 27 28  1  6
 28 29  1  0
 29 30  1  0
 31 30  1  1
 31 32  1  0
 12  4  1  0
 19 13  1  0
 25 21  1  0
 31 27  1  0
 11  7  1  0
 32 18  1  0
 32 21  1  0
M  END
>  <smiles>  (2595) 
C38214-P281

>  <fragmenstein_outcome>  (2595) 
acceptable

>  <inchikey>  (2595) 
SSYIBFASXRACKS-UHFFFAOYSA-N

>  <fragmenstein_mode>  (2595) 
expansion

>  <HIPPO Pose ID>  (2595) 
28628

>  <Energy>  (2595) 
134.290169

>  <fragmenstein_error>  (2595) 


>  <tags>  (2595) 
{'openbind_xx01zvns2b_c1_fragmenstein', 'fragmenstein_placed'}

>  <ref_pdb>  (2595) 
175

>  <scratch_subdir>  (2595) 
/opt/xchem-fragalysis-2/maxwin/BulkDock/SCRATCH/511028/C38214-P281

>  <alias>  (2595) 
O=C(N[C@H]1CCC2=C(CNC2)C1)c1cc(Cl)cc2c1C[C@]13CNC[C@H]1O[C@H]1NCC[C@H]1N23

>  <HIPPO Compound ID>  (2595) 
20845

>  <fragmenstein_runtime>  (2595) 
10.515377

$$$$
O=C(Nc1ccc2c(c1)CN(CC(F)F)C2)[C@H]1C[C@H](Cl)CC2=C1CNN2C1CNC1
     RDKit          3D

 30 34  0  0  0  0  0  0  0  0999 V2000
   -6.6360    6.8245  -14.3535 O   0  0  0  0  0  0  0  0  0  0  0  0
   -7.0457    5.7300  -14.3673 C   0  0  0  0  0  0  0  0  0  0  0  0
   -7.7863    4.9168  -13.2662 N   0  0  0  0  0  0  0  0  0  0  0  0
   -8.0734    5.2381  -11.9578 C   0  0  0  0  0  0  0  0  0  0  0  0
   -7.7662    6.4567  -11.3380 C   0  0  0  0  0  0  0  0  0  0  0  0
   -7.8840    6.5852   -9.9408 C   0  0  0  0  0  0  0  0  0  0  0  0
   -8.3107    5.4869   -9.2136 C   0  0  0  0  0  0  0  0  0  0  0  0
   -8.6793    4.3251   -9.8760 C   0  0  0  0  0  0  0  0  0  0  0  0
   -8.5804    4.1754  -11.2318 C   0  0  0  0  0  0  0  0  0  0  0  0
   -9.0907    3.2775   -8.9255 C   0  0  0  0  0  0  0  0  0  0  0  0
   -9.1989    3.9801   -7.6295 N   0  0  0  0  0  0  0  0  0  0  0  0
   -8.8294    3.0542   -6.5516 C   0  0  0  0  0  0  0  0  0  0  0  0
   -9.6924    1.7787   -6.5213 C   0  0  0  0  0  0  0  0  0  0  0  0
   -9.7748    1.1734   -7.7310 F   0  0  0  0  0  0  0  0  0  0  0  0
  -10.9612    2.0747   -6.1368 F   0  0  0  0  0  0  0  0  0  0  0  0
   -8.3974    5.2196   -7.7376 C   0  0  0  0  0  0  0  0  0  0  0  0
   -6.8692    4.6998  -15.4990 C   0  0  1  0  0  0  0  0  0  0  0  0
   -8.2357    4.3590  -16.1303 C   0  0  0  0  0  0  0  0  0  0  0  0
   -8.3752    4.7370  -17.5977 C   0  0  2  0  0  0  0  0  0  0  0  0
   -9.8388    4.0133  -18.2958 Cl  0  0  0  0  0  0  0  0  0  0  0  0
   -7.1639    4.5831  -18.4940 C   0  0  0  0  0  0  0  0  0  0  0  0
   -5.9265    4.9980  -17.7834 C   0  0  0  0  0  0  0  0  0  0  0  0
   -5.8088    5.0734  -16.4606 C   0  0  0  0  0  0  0  0  0  0  0  0
   -4.4067    5.4412  -16.1235 C   0  0  0  0  0  0  0  0  0  0  0  0
   -3.7497    5.6638  -17.4446 N   0  0  0  0  0  0  0  0  0  0  0  0
   -4.7412    5.3094  -18.4038 N   0  0  0  0  0  0  0  0  0  0  0  0
   -4.5518    5.3806  -19.8199 C   0  0  0  0  0  0  0  0  0  0  0  0
   -3.1199    5.6095  -20.3354 C   0  0  0  0  0  0  0  0  0  0  0  0
   -3.6916    6.5269  -21.3702 N   0  0  0  0  0  0  0  0  0  0  0  0
   -4.8180    6.7758  -20.4207 C   0  0  0  0  0  0  0  0  0  0  0  0
  1  2  2  0
  2  3  1  0
  3  4  1  0
  4  5  2  0
  5  6  1  0
  6  7  2  0
  7  8  1  0
  8  9  2  0
  8 10  1  0
 10 11  1  0
 11 12  1  0
 12 13  1  0
 13 14  1  0
 13 15  1  0
 11 16  1  0
 17  2  1  1
 17 18  1  0
 18 19  1  0
 19 20  1  6
 19 21  1  0
 21 22  1  0
 22 23  2  0
 23 24  1  0
 24 25  1  0
 25 26  1  0
 26 27  1  0
 27 28  1  0
 28 29  1  0
 29 30  1  0
  9  4  1  0
 23 17  1  0
 30 27  1  0
 16  7  1  0
 26 22  1  0
M  END
>  <smiles>  (2596) 
C38240-P281

>  <fragmenstein_outcome>  (2596) 
acceptable

>  <inchikey>  (2596) 
VWJCRAYTNJEGRE-UHFFFAOYSA-N

>  <fragmenstein_mode>  (2596) 
expansion

>  <HIPPO Pose ID>  (2596) 
28636

>  <Energy>  (2596) 
153.638541

>  <fragmenstein_error>  (2596) 


>  <tags>  (2596) 
{'openbind_xx01zvns2b_c1_fragmenstein', 'fragmenstein_placed'}

>  <ref_pdb>  (2596) 
175

>  <scratch_subdir>  (2596) 
/opt/xchem-fragalysis-2/maxwin/BulkDock/SCRATCH/511028/C38240-P281

>  <alias>  (2596) 
O=C(Nc1ccc2c(c1)CN(CC(F)F)C2)[C@H]1C[C@H](Cl)CC2=C1CNN2C1CNC1

>  <HIPPO Compound ID>  (2596) 
38240

>  <fragmenstein_runtime>  (2596) 
8.330779

$$$$
Nc1nn(C2CNC2)c2cc(Cl)cc(C(=O)Nc3ccc4c(c3)CN(CC(F)F)C4)c12
     RDKit          3D

 31 35  0  0  0  0  0  0  0  0999 V2000
   -4.8700    6.7799  -14.5510 N   0  0  0  0  0  0  0  0  0  0  0  0
   -5.2041    6.3519  -15.7787 C   0  0  0  0  0  0  0  0  0  0  0  0
   -4.3933    6.4688  -16.8175 N   0  0  0  0  0  0  0  0  0  0  0  0
   -5.1149    6.0048  -17.8547 N   0  0  0  0  0  0  0  0  0  0  0  0
   -4.6931    6.3623  -19.2114 C   0  0  0  0  0  0  0  0  0  0  0  0
   -3.1823    6.1570  -19.4381 C   0  0  0  0  0  0  0  0  0  0  0  0
   -3.4997    5.6112  -20.7749 N   0  0  0  0  0  0  0  0  0  0  0  0
   -4.8551    5.2760  -20.2557 C   0  0  0  0  0  0  0  0  0  0  0  0
   -6.3503    5.5066  -17.4995 C   0  0  0  0  0  0  0  0  0  0  0  0
   -7.4146    4.9302  -18.2151 C   0  0  0  0  0  0  0  0  0  0  0  0
   -8.5751    4.5994  -17.5037 C   0  0  0  0  0  0  0  0  0  0  0  0
   -9.9389    3.9952  -18.3506 Cl  0  0  0  0  0  0  0  0  0  0  0  0
   -8.6953    4.8445  -16.1432 C   0  0  0  0  0  0  0  0  0  0  0  0
   -7.6489    5.4728  -15.4702 C   0  0  0  0  0  0  0  0  0  0  0  0
   -7.8662    6.0211  -14.1241 C   0  0  0  0  0  0  0  0  0  0  0  0
   -7.8211    7.1770  -13.9876 O   0  0  0  0  0  0  0  0  0  0  0  0
   -8.0932    4.9072  -13.0969 N   0  0  0  0  0  0  0  0  0  0  0  0
   -8.2149    4.9651  -11.7190 C   0  0  0  0  0  0  0  0  0  0  0  0
   -8.5144    6.1764  -11.0681 C   0  0  0  0  0  0  0  0  0  0  0  0
   -8.6430    6.2252   -9.6761 C   0  0  0  0  0  0  0  0  0  0  0  0
   -8.4034    5.0650   -8.9637 C   0  0  0  0  0  0  0  0  0  0  0  0
   -8.0126    3.9018   -9.6172 C   0  0  0  0  0  0  0  0  0  0  0  0
   -7.9749    3.8080  -10.9930 C   0  0  0  0  0  0  0  0  0  0  0  0
   -7.5534    2.8947   -8.6244 C   0  0  0  0  0  0  0  0  0  0  0  0
   -7.9190    3.4440   -7.3013 N   0  0  0  0  0  0  0  0  0  0  0  0
   -8.7340    2.4926   -6.5322 C   0  0  0  0  0  0  0  0  0  0  0  0
  -10.0729    2.0162   -7.1052 C   0  0  0  0  0  0  0  0  0  0  0  0
   -9.9450    1.5359   -8.3628 F   0  0  0  0  0  0  0  0  0  0  0  0
  -10.5501    0.9908   -6.3507 F   0  0  0  0  0  0  0  0  0  0  0  0
   -8.4880    4.7881   -7.4972 C   0  0  0  0  0  0  0  0  0  0  0  0
   -6.4445    5.7675  -16.1320 C   0  0  0  0  0  0  0  0  0  0  0  0
  1  2  1  0
  2  3  2  0
  3  4  1  0
  4  5  1  0
  5  6  1  0
  6  7  1  0
  7  8  1  0
  4  9  1  0
  9 10  2  0
 10 11  1  0
 11 12  1  0
 11 13  2  0
 13 14  1  0
 14 15  1  0
 15 16  2  0
 15 17  1  0
 17 18  1  0
 18 19  2  0
 19 20  1  0
 20 21  2  0
 21 22  1  0
 22 23  2  0
 22 24  1  0
 24 25  1  0
 25 26  1  0
 26 27  1  0
 27 28  1  0
 27 29  1  0
 25 30  1  0
 14 31  2  0
 31  2  1  0
  8  5  1  0
 31  9  1  0
 23 18  1  0
 30 21  1  0
M  END
>  <smiles>  (2597) 
C38287-P281

>  <fragmenstein_outcome>  (2597) 
acceptable

>  <inchikey>  (2597) 
BOBJRRGCTBTGPJ-UHFFFAOYSA-N

>  <fragmenstein_mode>  (2597) 
expansion

>  <HIPPO Pose ID>  (2597) 
28646

>  <Energy>  (2597) 
62.17631

>  <fragmenstein_error>  (2597) 


>  <tags>  (2597) 
{'openbind_xx01zvns2b_c1_fragmenstein', 'fragmenstein_placed'}

>  <ref_pdb>  (2597) 
175

>  <scratch_subdir>  (2597) 
/opt/xchem-fragalysis-2/maxwin/BulkDock/SCRATCH/511028/C38287-P281

>  <alias>  (2597) 
Nc1nn(C2CNC2)c2cc(Cl)cc(C(=O)Nc3ccc4c(c3)CN(CC(F)F)C4)c12

>  <HIPPO Compound ID>  (2597) 
38287

>  <fragmenstein_runtime>  (2597) 
11.867432

$$$$
O=C(NC1CCOCC1)[C@@](O)(Nc1ccc2c(c1)CN(CC(F)F)C2)c1cc(Cl)cc2c1cnn2C1CNC1
     RDKit          3D

 39 44  0  0  0  0  0  0  0  0999 V2000
   -6.5484    7.6155  -13.9801 O   0  0  0  0  0  0  0  0  0  0  0  0
   -7.4205    6.8650  -13.7519 C   0  0  0  0  0  0  0  0  0  0  0  0
   -8.8812    7.1294  -13.2566 N   0  0  0  0  0  0  0  0  0  0  0  0
   -9.5334    8.3703  -12.8496 C   0  0  0  0  0  0  0  0  0  0  0  0
   -9.4623    8.5770  -11.3364 C   0  0  0  0  0  0  0  0  0  0  0  0
  -10.4154    9.6591  -10.8405 C   0  0  0  0  0  0  0  0  0  0  0  0
  -10.9765   10.3893  -11.9261 O   0  0  0  0  0  0  0  0  0  0  0  0
  -11.7907    9.5479  -12.7366 C   0  0  0  0  0  0  0  0  0  0  0  0
  -10.9513    8.4754  -13.4110 C   0  0  0  0  0  0  0  0  0  0  0  0
   -7.2445    5.2467  -13.9440 C   0  0  1  0  0  0  0  0  0  0  0  0
   -5.9598    4.7519  -13.6188 O   0  0  0  0  0  0  0  0  0  0  0  0
   -8.2230    4.4804  -13.1337 N   0  0  0  0  0  0  0  0  0  0  0  0
   -8.0829    4.4354  -11.7224 C   0  0  0  0  0  0  0  0  0  0  0  0
   -7.5621    5.5225  -10.9817 C   0  0  0  0  0  0  0  0  0  0  0  0
   -7.5266    5.5392   -9.5957 C   0  0  0  0  0  0  0  0  0  0  0  0
   -8.0311    4.4488   -8.9403 C   0  0  0  0  0  0  0  0  0  0  0  0
   -8.5565    3.3531   -9.6175 C   0  0  0  0  0  0  0  0  0  0  0  0
   -8.5945    3.3349  -11.0069 C   0  0  0  0  0  0  0  0  0  0  0  0
   -9.0089    2.3522   -8.5871 C   0  0  0  0  0  0  0  0  0  0  0  0
   -9.1117    3.1625   -7.3393 N   0  0  0  0  0  0  0  0  0  0  0  0
   -8.9550    2.3847   -6.0952 C   0  0  0  0  0  0  0  0  0  0  0  0
   -8.7698    3.2739   -4.8404 C   0  0  0  0  0  0  0  0  0  0  0  0
   -9.6398    2.9585   -3.8529 F   0  0  0  0  0  0  0  0  0  0  0  0
   -7.5108    3.1417   -4.3362 F   0  0  0  0  0  0  0  0  0  0  0  0
   -8.1086    4.2279   -7.4770 C   0  0  0  0  0  0  0  0  0  0  0  0
   -7.3969    4.9758  -15.4527 C   0  0  0  0  0  0  0  0  0  0  0  0
   -8.6191    4.5625  -16.0331 C   0  0  0  0  0  0  0  0  0  0  0  0
   -8.7569    4.3863  -17.4136 C   0  0  0  0  0  0  0  0  0  0  0  0
  -10.2964    4.0152  -18.0834 Cl  0  0  0  0  0  0  0  0  0  0  0  0
   -7.6957    4.5936  -18.2909 C   0  0  0  0  0  0  0  0  0  0  0  0
   -6.4870    5.0199  -17.7360 C   0  0  0  0  0  0  0  0  0  0  0  0
   -6.3258    5.2142  -16.3646 C   0  0  0  0  0  0  0  0  0  0  0  0
   -4.9851    5.6576  -16.2415 C   0  0  0  0  0  0  0  0  0  0  0  0
   -4.3468    5.7336  -17.4081 N   0  0  0  0  0  0  0  0  0  0  0  0
   -5.2706    5.3416  -18.3030 N   0  0  0  0  0  0  0  0  0  0  0  0
   -5.0104    5.3159  -19.7537 C   0  0  0  0  0  0  0  0  0  0  0  0
   -5.0203    6.7211  -20.3816 C   0  0  0  0  0  0  0  0  0  0  0  0
   -3.8722    6.3005  -21.2302 N   0  0  0  0  0  0  0  0  0  0  0  0
   -3.5214    5.3203  -20.1604 C   0  0  0  0  0  0  0  0  0  0  0  0
  1  2  2  0
  2  3  1  0
  3  4  1  0
  4  5  1  0
  5  6  1  0
  6  7  1  0
  7  8  1  0
  8  9  1  0
  2 10  1  0
 10 11  1  1
 10 12  1  0
 12 13  1  0
 13 14  2  0
 14 15  1  0
 15 16  2  0
 16 17  1  0
 17 18  2  0
 17 19  1  0
 19 20  1  0
 20 21  1  0
 21 22  1  0
 22 23  1  0
 22 24  1  0
 20 25  1  0
 10 26  1  0
 26 27  2  0
 27 28  1  0
 28 29  1  0
 28 30  2  0
 30 31  1  0
 31 32  2  0
 32 33  1  0
 33 34  2  0
 34 35  1  0
 35 36  1  0
 36 37  1  0
 37 38  1  0
 38 39  1  0
  9  4  1  0
 18 13  1  0
 32 26  1  0
 39 36  1  0
 25 16  1  0
 35 31  1  0
M  END
>  <smiles>  (2598) 
C38324-P283

>  <fragmenstein_outcome>  (2598) 
acceptable

>  <inchikey>  (2598) 
XIYLXQVRKGSYCA-UHFFFAOYSA-N

>  <fragmenstein_mode>  (2598) 
expansion

>  <HIPPO Pose ID>  (2598) 
28654

>  <Energy>  (2598) 
167.014871

>  <fragmenstein_error>  (2598) 


>  <tags>  (2598) 
{'openbind_xx01zvns2b_c1_fragmenstein', 'fragmenstein_placed'}

>  <ref_pdb>  (2598) 
175

>  <scratch_subdir>  (2598) 
/opt/xchem-fragalysis-2/maxwin/BulkDock/SCRATCH/511028/C38324-P283

>  <alias>  (2598) 
O=C(NC1CCOCC1)[C@@](O)(Nc1ccc2c(c1)CN(CC(F)F)C2)c1cc(Cl)cc2c1cnn2C1CNC1

>  <HIPPO Compound ID>  (2598) 
26707

>  <fragmenstein_runtime>  (2598) 
60.021597

$$$$
O=C(Nc1ccc2c(c1)CN(CC(F)F)C2)c1cc(Cl)cc2c1c[n+]([O-])n2C1CNC1
     RDKit          3D

 31 35  0  0  0  0  0  0  0  0999 V2000
   -7.5922    6.7352  -14.1027 O   0  0  0  0  0  0  0  0  0  0  0  0
   -7.6539    5.5791  -14.2491 C   0  0  0  0  0  0  0  0  0  0  0  0
   -7.9193    4.4557  -13.2285 N   0  0  0  0  0  0  0  0  0  0  0  0
   -8.0657    4.5069  -11.8454 C   0  0  0  0  0  0  0  0  0  0  0  0
   -8.2073    5.7636  -11.2258 C   0  0  0  0  0  0  0  0  0  0  0  0
   -8.3320    5.8753   -9.8444 C   0  0  0  0  0  0  0  0  0  0  0  0
   -8.2784    4.7170   -9.1011 C   0  0  0  0  0  0  0  0  0  0  0  0
   -8.1235    3.4663   -9.7033 C   0  0  0  0  0  0  0  0  0  0  0  0
   -8.0444    3.3373  -11.0826 C   0  0  0  0  0  0  0  0  0  0  0  0
   -8.0616    2.4211   -8.6289 C   0  0  0  0  0  0  0  0  0  0  0  0
   -7.8748    3.2042   -7.3810 N   0  0  0  0  0  0  0  0  0  0  0  0
   -8.3997    2.5863   -6.1632 C   0  0  0  0  0  0  0  0  0  0  0  0
   -9.8292    2.0435   -6.1842 C   0  0  0  0  0  0  0  0  0  0  0  0
  -10.5915    2.7604   -7.0465 F   0  0  0  0  0  0  0  0  0  0  0  0
  -10.4085    2.2159   -4.9676 F   0  0  0  0  0  0  0  0  0  0  0  0
   -8.3663    4.5623   -7.6216 C   0  0  0  0  0  0  0  0  0  0  0  0
   -7.4719    5.0817  -15.6278 C   0  0  0  0  0  0  0  0  0  0  0  0
   -8.5157    4.4168  -16.2682 C   0  0  0  0  0  0  0  0  0  0  0  0
   -8.4480    4.2390  -17.6430 C   0  0  0  0  0  0  0  0  0  0  0  0
   -9.7730    3.5624  -18.4604 Cl  0  0  0  0  0  0  0  0  0  0  0  0
   -7.3698    4.6753  -18.4181 C   0  0  0  0  0  0  0  0  0  0  0  0
   -6.3299    5.3333  -17.7673 C   0  0  0  0  0  0  0  0  0  0  0  0
   -6.3483    5.5412  -16.3601 C   0  0  0  0  0  0  0  0  0  0  0  0
   -5.1847    6.3105  -15.9544 C   0  0  0  0  0  0  0  0  0  0  0  0
   -4.5069    6.6045  -17.0680 N   0  0  0  0  0  0  0  0  0  0  0  0
   -3.5143    7.3497  -17.2357 O   0  0  0  0  0  0  0  0  0  0  0  0
   -5.1837    5.9750  -18.2006 N   0  0  0  0  0  0  0  0  0  0  0  0
   -4.7870    6.2854  -19.5879 C   0  0  0  0  0  0  0  0  0  0  0  0
   -5.0308    5.2160  -20.6574 C   0  0  0  0  0  0  0  0  0  0  0  0
   -3.6765    5.4843  -21.1839 N   0  0  0  0  0  0  0  0  0  0  0  0
   -3.2906    5.9679  -19.8433 C   0  0  0  0  0  0  0  0  0  0  0  0
  1  2  2  0
  2  3  1  0
  3  4  1  0
  4  5  2  0
  5  6  1  0
  6  7  2  0
  7  8  1  0
  8  9  2  0
  8 10  1  0
 10 11  1  0
 11 12  1  0
 12 13  1  0
 13 14  1  0
 13 15  1  0
 11 16  1  0
  2 17  1  0
 17 18  2  0
 18 19  1  0
 19 20  1  0
 19 21  2  0
 21 22  1  0
 22 23  2  0
 23 24  1  0
 24 25  2  0
 25 26  1  0
 25 27  1  0
 27 28  1  0
 28 29  1  0
 29 30  1  0
 30 31  1  0
  9  4  1  0
 23 17  1  0
 31 28  1  0
 16  7  1  0
 27 22  1  0
M  CHG  2  25   1  26  -1
M  END
>  <smiles>  (2599) 
C38228-P283

>  <fragmenstein_outcome>  (2599) 
acceptable

>  <inchikey>  (2599) 
MNPQHGPAIZELSB-UHFFFAOYSA-N

>  <fragmenstein_mode>  (2599) 
expansion

>  <HIPPO Pose ID>  (2599) 
28655

>  <Energy>  (2599) 
113.879637

>  <fragmenstein_error>  (2599) 


>  <tags>  (2599) 
{'openbind_xx01zvns2b_c1_fragmenstein', 'fragmenstein_placed'}

>  <ref_pdb>  (2599) 
175

>  <scratch_subdir>  (2599) 
/opt/xchem-fragalysis-2/maxwin/BulkDock/SCRATCH/511028/C38228-P283

>  <alias>  (2599) 
O=C(Nc1ccc2c(c1)CN(CC(F)F)C2)c1cc(Cl)cc2c1c[n+]([O-])n2C1CNC1

>  <HIPPO Compound ID>  (2599) 
25398

>  <fragmenstein_runtime>  (2599) 
10.045419

$$$$
CC(C)(n1cc2c(C(=O)Nc3ccc4c(c3)CN(CC(F)F)C4)cc(Cl)cc2c1C1CNC1)S(C)(=O)=O
     RDKit          3D

 37 41  0  0  0  0  0  0  0  0999 V2000
   -3.1425    7.8507  -15.1831 C   0  0  0  0  0  0  0  0  0  0  0  0
   -3.2367    7.3522  -16.6548 C   0  0  0  0  0  0  0  0  0  0  0  0
   -3.4041    8.6393  -17.4969 C   0  0  0  0  0  0  0  0  0  0  0  0
   -4.4004    6.4286  -16.8298 N   0  0  0  0  0  0  0  0  0  0  0  0
   -5.1753    6.0177  -15.7625 C   0  0  0  0  0  0  0  0  0  0  0  0
   -6.3197    5.4610  -16.2453 C   0  0  0  0  0  0  0  0  0  0  0  0
   -7.4236    5.0901  -15.4769 C   0  0  0  0  0  0  0  0  0  0  0  0
   -7.6052    5.5092  -14.0794 C   0  0  0  0  0  0  0  0  0  0  0  0
   -7.4560    6.6384  -13.8246 O   0  0  0  0  0  0  0  0  0  0  0  0
   -7.9635    4.3184  -13.1693 N   0  0  0  0  0  0  0  0  0  0  0  0
   -8.1154    4.2502  -11.7881 C   0  0  0  0  0  0  0  0  0  0  0  0
   -8.2898    3.0023  -11.1732 C   0  0  0  0  0  0  0  0  0  0  0  0
   -8.4067    2.8993   -9.7828 C   0  0  0  0  0  0  0  0  0  0  0  0
   -8.3300    4.0579   -9.0330 C   0  0  0  0  0  0  0  0  0  0  0  0
   -8.1536    5.2950   -9.6433 C   0  0  0  0  0  0  0  0  0  0  0  0
   -8.0607    5.4125  -11.0176 C   0  0  0  0  0  0  0  0  0  0  0  0
   -8.0941    6.3662   -8.6076 C   0  0  0  0  0  0  0  0  0  0  0  0
   -7.9847    5.6423   -7.3195 N   0  0  0  0  0  0  0  0  0  0  0  0
   -8.7016    6.2978   -6.2193 C   0  0  0  0  0  0  0  0  0  0  0  0
   -8.2242    7.7100   -5.8374 C   0  0  0  0  0  0  0  0  0  0  0  0
   -8.4012    8.5822   -6.8602 F   0  0  0  0  0  0  0  0  0  0  0  0
   -6.9041    7.7131   -5.5295 F   0  0  0  0  0  0  0  0  0  0  0  0
   -8.4158    4.2421   -7.5545 C   0  0  0  0  0  0  0  0  0  0  0  0
   -8.4503    4.5294  -16.2483 C   0  0  0  0  0  0  0  0  0  0  0  0
   -8.3381    4.3947  -17.6656 C   0  0  0  0  0  0  0  0  0  0  0  0
   -9.7386    3.8180  -18.4898 Cl  0  0  0  0  0  0  0  0  0  0  0  0
   -7.2108    4.7889  -18.4429 C   0  0  0  0  0  0  0  0  0  0  0  0
   -6.1938    5.3502  -17.6588 C   0  0  0  0  0  0  0  0  0  0  0  0
   -4.9903    5.9560  -18.0174 C   0  0  0  0  0  0  0  0  0  0  0  0
   -4.3344    6.1491  -19.4555 C   0  0  0  0  0  0  0  0  0  0  0  0
   -3.7522    4.9061  -20.1267 C   0  0  0  0  0  0  0  0  0  0  0  0
   -4.9243    4.8600  -21.0333 N   0  0  0  0  0  0  0  0  0  0  0  0
   -5.2028    6.2737  -20.6968 C   0  0  0  0  0  0  0  0  0  0  0  0
   -1.6103    6.5335  -17.0010 S   0  0  0  0  0  0  0  0  0  0  0  0
   -0.3949    7.8328  -16.9606 C   0  0  0  0  0  0  0  0  0  0  0  0
   -1.2912    5.6535  -15.8913 O   0  0  0  0  0  0  0  0  0  0  0  0
   -1.5881    6.0245  -18.3577 O   0  0  0  0  0  0  0  0  0  0  0  0
  1  2  1  0
  2  3  1  0
  2  4  1  0
  4  5  1  0
  5  6  2  0
  6  7  1  0
  7  8  1  0
  8  9  2  0
  8 10  1  0
 10 11  1  0
 11 12  2  0
 12 13  1  0
 13 14  2  0
 14 15  1  0
 15 16  2  0
 15 17  1  0
 17 18  1  0
 18 19  1  0
 19 20  1  0
 20 21  1  0
 20 22  1  0
 18 23  1  0
  7 24  2  0
 24 25  1  0
 25 26  1  0
 25 27  2  0
 27 28  1  0
 28 29  2  0
 29 30  1  0
 30 31  1  0
 31 32  1  0
 32 33  1  0
  2 34  1  0
 34 35  1  0
 34 36  2  0
 34 37  2  0
 29  4  1  0
 33 30  1  0
 28  6  1  0
 16 11  1  0
 23 14  1  0
M  END
>  <smiles>  (2600) 
C38340-P283

>  <fragmenstein_outcome>  (2600) 
acceptable

>  <inchikey>  (2600) 
HWTJIMFKHHGRQQ-UHFFFAOYSA-N

>  <fragmenstein_mode>  (2600) 
expansion

>  <HIPPO Pose ID>  (2600) 
28656

>  <Energy>  (2600) 
175.023906

>  <fragmenstein_error>  (2600) 


>  <tags>  (2600) 
{'openbind_xx01zvns2b_c1_fragmenstein', 'fragmenstein_placed'}

>  <ref_pdb>  (2600) 
175

>  <scratch_subdir>  (2600) 
/opt/xchem-fragalysis-2/maxwin/BulkDock/SCRATCH/511028/C38340-P283

>  <alias>  (2600) 
CC(C)(n1cc2c(C(=O)Nc3ccc4c(c3)CN(CC(F)F)C4)cc(Cl)cc2c1C1CNC1)S(C)(=O)=O

>  <HIPPO Compound ID>  (2600) 
21364

>  <fragmenstein_runtime>  (2600) 
9.154446

$$$$
O=C(Nc1ccc2c(c1)CN(CC(F)F)C2)c1cc(Cl)cc2c1cnn2C1CNC1
     RDKit          3D

 30 34  0  0  0  0  0  0  0  0999 V2000
   -7.3101    6.6537  -14.0778 O   0  0  0  0  0  0  0  0  0  0  0  0
   -7.5174    5.5195  -14.2562 C   0  0  0  0  0  0  0  0  0  0  0  0
   -7.9330    4.4125  -13.2685 N   0  0  0  0  0  0  0  0  0  0  0  0
   -8.0837    4.4450  -11.8876 C   0  0  0  0  0  0  0  0  0  0  0  0
   -8.1471    5.6898  -11.2339 C   0  0  0  0  0  0  0  0  0  0  0  0
   -8.2564    5.7699   -9.8493 C   0  0  0  0  0  0  0  0  0  0  0  0
   -8.2680    4.5883   -9.1418 C   0  0  0  0  0  0  0  0  0  0  0  0
   -8.2057    3.3478   -9.7831 C   0  0  0  0  0  0  0  0  0  0  0  0
   -8.1438    3.2536  -11.1633 C   0  0  0  0  0  0  0  0  0  0  0  0
   -8.2091    2.2664   -8.7448 C   0  0  0  0  0  0  0  0  0  0  0  0
   -7.9273    2.9954   -7.4908 N   0  0  0  0  0  0  0  0  0  0  0  0
   -8.3928    2.3593   -6.2597 C   0  0  0  0  0  0  0  0  0  0  0  0
   -9.8599    1.9437   -6.1781 C   0  0  0  0  0  0  0  0  0  0  0  0
  -10.6486    2.8914   -6.7388 F   0  0  0  0  0  0  0  0  0  0  0  0
  -10.0825    0.8015   -6.8722 F   0  0  0  0  0  0  0  0  0  0  0  0
   -8.3309    4.3903   -7.6658 C   0  0  0  0  0  0  0  0  0  0  0  0
   -7.4408    5.0323  -15.6423 C   0  0  0  0  0  0  0  0  0  0  0  0
   -8.5785    4.5148  -16.2581 C   0  0  0  0  0  0  0  0  0  0  0  0
   -8.5799    4.3466  -17.6359 C   0  0  0  0  0  0  0  0  0  0  0  0
  -10.0401    3.8688  -18.3915 Cl  0  0  0  0  0  0  0  0  0  0  0  0
   -7.4678    4.6608  -18.4304 C   0  0  0  0  0  0  0  0  0  0  0  0
   -6.3230    5.1568  -17.7884 C   0  0  0  0  0  0  0  0  0  0  0  0
   -6.2929    5.3228  -16.4013 C   0  0  0  0  0  0  0  0  0  0  0  0
   -5.0116    5.8329  -16.1215 C   0  0  0  0  0  0  0  0  0  0  0  0
   -4.2745    5.9871  -17.2173 N   0  0  0  0  0  0  0  0  0  0  0  0
   -5.1026    5.6350  -18.2270 N   0  0  0  0  0  0  0  0  0  0  0  0
   -4.7464    6.0616  -19.5937 C   0  0  0  0  0  0  0  0  0  0  0  0
   -5.1139    5.1466  -20.7601 C   0  0  0  0  0  0  0  0  0  0  0  0
   -3.7546    5.3533  -21.3070 N   0  0  0  0  0  0  0  0  0  0  0  0
   -3.2910    5.6633  -19.9384 C   0  0  0  0  0  0  0  0  0  0  0  0
  1  2  2  0
  2  3  1  0
  3  4  1  0
  4  5  2  0
  5  6  1  0
  6  7  2  0
  7  8  1  0
  8  9  2  0
  8 10  1  0
 10 11  1  0
 11 12  1  0
 12 13  1  0
 13 14  1  0
 13 15  1  0
 11 16  1  0
  2 17  1  0
 17 18  2  0
 18 19  1  0
 19 20  1  0
 19 21  2  0
 21 22  1  0
 22 23  2  0
 23 24  1  0
 24 25  2  0
 25 26  1  0
 26 27  1  0
 27 28  1  0
 28 29  1  0
 29 30  1  0
  9  4  1  0
 23 17  1  0
 30 27  1  0
 16  7  1  0
 26 22  1  0
M  END
>  <smiles>  (2601) 
C261-P283

>  <fragmenstein_outcome>  (2601) 
acceptable

>  <inchikey>  (2601) 
QWEOQFKKAVAVDN-UHFFFAOYSA-N

>  <fragmenstein_mode>  (2601) 
expansion

>  <HIPPO Pose ID>  (2601) 
28663

>  <Energy>  (2601) 
113.482371

>  <fragmenstein_error>  (2601) 


>  <tags>  (2601) 
{'openbind_xx01zvns2b_c1_fragmenstein', 'fragmenstein_placed'}

>  <ref_pdb>  (2601) 
175

>  <scratch_subdir>  (2601) 
/opt/xchem-fragalysis-2/maxwin/BulkDock/SCRATCH/511028/C261-P283

>  <alias>  (2601) 
O=C(Nc1ccc2c(c1)CN(CC(F)F)C2)c1cc(Cl)cc2c1cnn2C1CNC1

>  <HIPPO Compound ID>  (2601) 
261

>  <fragmenstein_runtime>  (2601) 
7.201283

$$$$
CC(C)O[C@]1(C)C(=O)N(C2CNC2)c2cc(Cl)cc(C(=O)Nc3ccc4c(c3)CN(CC(F)F)C4)c21
     RDKit          3D

 36 40  0  0  0  0  0  0  0  0999 V2000
   -4.2080    9.5314  -16.6916 C   0  0  0  0  0  0  0  0  0  0  0  0
   -4.0894    8.3148  -15.7802 C   0  0  0  0  0  0  0  0  0  0  0  0
   -4.2062    8.7336  -14.3197 C   0  0  0  0  0  0  0  0  0  0  0  0
   -5.1760    7.4480  -16.0971 O   0  0  0  0  0  0  0  0  0  0  0  0
   -4.8858    6.0649  -16.3048 C   0  0  2  0  0  0  0  0  0  0  0  0
   -4.0688    5.3971  -15.2025 C   0  0  0  0  0  0  0  0  0  0  0  0
   -4.1721    5.9052  -17.6784 C   0  0  0  0  0  0  0  0  0  0  0  0
   -3.0284    6.2701  -17.9193 O   0  0  0  0  0  0  0  0  0  0  0  0
   -5.0873    5.3456  -18.5808 N   0  0  0  0  0  0  0  0  0  0  0  0
   -4.9073    5.2602  -20.0434 C   0  0  0  0  0  0  0  0  0  0  0  0
   -4.8701    6.6302  -20.7643 C   0  0  0  0  0  0  0  0  0  0  0  0
   -3.8554    6.0683  -21.6872 N   0  0  0  0  0  0  0  0  0  0  0  0
   -3.4745    5.1064  -20.6224 C   0  0  0  0  0  0  0  0  0  0  0  0
   -6.2959    5.0468  -17.9249 C   0  0  0  0  0  0  0  0  0  0  0  0
   -7.4580    4.5249  -18.4657 C   0  0  0  0  0  0  0  0  0  0  0  0
   -8.5486    4.3302  -17.6184 C   0  0  0  0  0  0  0  0  0  0  0  0
  -10.0522    3.8443  -18.2790 Cl  0  0  0  0  0  0  0  0  0  0  0  0
   -8.4722    4.6139  -16.2522 C   0  0  0  0  0  0  0  0  0  0  0  0
   -7.2983    5.1622  -15.7261 C   0  0  0  0  0  0  0  0  0  0  0  0
   -7.3180    5.6611  -14.3328 C   0  0  0  0  0  0  0  0  0  0  0  0
   -7.0491    6.7800  -14.1466 O   0  0  0  0  0  0  0  0  0  0  0  0
   -7.7031    4.5462  -13.3380 N   0  0  0  0  0  0  0  0  0  0  0  0
   -7.9221    4.5963  -11.9663 C   0  0  0  0  0  0  0  0  0  0  0  0
   -7.8518    5.8323  -11.2996 C   0  0  0  0  0  0  0  0  0  0  0  0
   -8.0125    5.9165   -9.9201 C   0  0  0  0  0  0  0  0  0  0  0  0
   -8.2393    4.7475   -9.2282 C   0  0  0  0  0  0  0  0  0  0  0  0
   -8.3397    3.5235   -9.8826 C   0  0  0  0  0  0  0  0  0  0  0  0
   -8.1902    3.4245  -11.2576 C   0  0  0  0  0  0  0  0  0  0  0  0
   -8.6604    2.4609   -8.8839 C   0  0  0  0  0  0  0  0  0  0  0  0
   -8.5389    3.1189   -7.5538 N   0  0  0  0  0  0  0  0  0  0  0  0
   -9.6478    2.7994   -6.6535 C   0  0  0  0  0  0  0  0  0  0  0  0
   -9.8089    1.3391   -6.3135 C   0  0  0  0  0  0  0  0  0  0  0  0
  -10.8418    1.2146   -5.4417 F   0  0  0  0  0  0  0  0  0  0  0  0
  -10.1515    0.6324   -7.4136 F   0  0  0  0  0  0  0  0  0  0  0  0
   -8.4237    4.5687   -7.7642 C   0  0  0  0  0  0  0  0  0  0  0  0
   -6.2124    5.3881  -16.5713 C   0  0  0  0  0  0  0  0  0  0  0  0
  1  2  1  0
  2  3  1  0
  2  4  1  0
  4  5  1  0
  5  6  1  1
  5  7  1  0
  7  8  2  0
  7  9  1  0
  9 10  1  0
 10 11  1  0
 11 12  1  0
 12 13  1  0
  9 14  1  0
 14 15  2  0
 15 16  1  0
 16 17  1  0
 16 18  2  0
 18 19  1  0
 19 20  1  0
 20 21  2  0
 20 22  1  0
 22 23  1  0
 23 24  2  0
 24 25  1  0
 25 26  2  0
 26 27  1  0
 27 28  2  0
 27 29  1  0
 29 30  1  0
 30 31  1  0
 31 32  1  0
 32 33  1  0
 32 34  1  0
 30 35  1  0
 19 36  2  0
 36  5  1  0
 13 10  1  0
 36 14  1  0
 28 23  1  0
 35 26  1  0
M  END
>  <smiles>  (2602) 
C38361-P283

>  <fragmenstein_outcome>  (2602) 
acceptable

>  <inchikey>  (2602) 
SJJYNIBBFQAIKR-UHFFFAOYSA-N

>  <fragmenstein_mode>  (2602) 
expansion

>  <HIPPO Pose ID>  (2602) 
28666

>  <Energy>  (2602) 
152.173376

>  <fragmenstein_error>  (2602) 


>  <tags>  (2602) 
{'openbind_xx01zvns2b_c1_fragmenstein', 'fragmenstein_placed'}

>  <ref_pdb>  (2602) 
175

>  <scratch_subdir>  (2602) 
/opt/xchem-fragalysis-2/maxwin/BulkDock/SCRATCH/511028/C38361-P283

>  <alias>  (2602) 
CC(C)O[C@]1(C)C(=O)N(C2CNC2)c2cc(Cl)cc(C(=O)Nc3ccc4c(c3)CN(CC(F)F)C4)c21

>  <HIPPO Compound ID>  (2602) 
38361

>  <fragmenstein_runtime>  (2602) 
10.681432

$$$$
NC1(n2ncc3c(C(=O)Nc4ccc5c(c4)CN(CC(F)F)C5)cc(Cl)cc32)CNC1
     RDKit          3D

 31 35  0  0  0  0  0  0  0  0999 V2000
   -5.8045    4.5409  -20.8707 N   0  0  0  0  0  0  0  0  0  0  0  0
   -4.9547    5.3435  -19.9509 C   0  0  0  0  0  0  0  0  0  0  0  0
   -5.1940    5.3030  -18.4719 N   0  0  0  0  0  0  0  0  0  0  0  0
   -4.2269    5.6598  -17.5944 N   0  0  0  0  0  0  0  0  0  0  0  0
   -4.8147    5.5732  -16.4036 C   0  0  0  0  0  0  0  0  0  0  0  0
   -6.1604    5.1642  -16.4858 C   0  0  0  0  0  0  0  0  0  0  0  0
   -7.1980    4.9260  -15.5604 C   0  0  0  0  0  0  0  0  0  0  0  0
   -6.9484    5.2160  -14.1203 C   0  0  0  0  0  0  0  0  0  0  0  0
   -6.3812    6.2006  -13.8527 O   0  0  0  0  0  0  0  0  0  0  0  0
   -7.5943    4.1531  -13.2059 N   0  0  0  0  0  0  0  0  0  0  0  0
   -7.7553    4.1269  -11.8239 C   0  0  0  0  0  0  0  0  0  0  0  0
   -8.6443    3.1771  -11.3026 C   0  0  0  0  0  0  0  0  0  0  0  0
   -9.0782    3.2636   -9.9847 C   0  0  0  0  0  0  0  0  0  0  0  0
   -8.5918    4.2950   -9.2216 C   0  0  0  0  0  0  0  0  0  0  0  0
   -7.5102    5.0536   -9.6446 C   0  0  0  0  0  0  0  0  0  0  0  0
   -7.1262    5.0419  -10.9739 C   0  0  0  0  0  0  0  0  0  0  0  0
   -6.9477    5.7378   -8.4256 C   0  0  0  0  0  0  0  0  0  0  0  0
   -7.7143    5.1691   -7.2405 N   0  0  0  0  0  0  0  0  0  0  0  0
   -7.1206    3.8908   -6.7261 C   0  0  0  0  0  0  0  0  0  0  0  0
   -8.0389    2.9322   -5.9079 C   0  0  0  0  0  0  0  0  0  0  0  0
   -8.9533    2.3107   -6.6979 F   0  0  0  0  0  0  0  0  0  0  0  0
   -8.7375    3.6519   -4.9851 F   0  0  0  0  0  0  0  0  0  0  0  0
   -8.9825    4.7908   -7.8759 C   0  0  0  0  0  0  0  0  0  0  0  0
   -8.4647    4.5413  -16.0339 C   0  0  0  0  0  0  0  0  0  0  0  0
   -8.6758    4.3890  -17.4003 C   0  0  0  0  0  0  0  0  0  0  0  0
  -10.2421    4.0248  -18.0083 Cl  0  0  0  0  0  0  0  0  0  0  0  0
   -7.6566    4.6079  -18.3263 C   0  0  0  0  0  0  0  0  0  0  0  0
   -6.3959    4.9980  -17.8527 C   0  0  0  0  0  0  0  0  0  0  0  0
   -4.8259    6.7952  -20.4798 C   0  0  0  0  0  0  0  0  0  0  0  0
   -3.6517    6.3845  -21.2844 N   0  0  0  0  0  0  0  0  0  0  0  0
   -3.4712    5.2128  -20.3862 C   0  0  0  0  0  0  0  0  0  0  0  0
  1  2  1  0
  2  3  1  0
  3  4  1  0
  4  5  2  0
  5  6  1  0
  6  7  2  0
  7  8  1  0
  8  9  2  0
  8 10  1  0
 10 11  1  0
 11 12  2  0
 12 13  1  0
 13 14  2  0
 14 15  1  0
 15 16  2  0
 15 17  1  0
 17 18  1  0
 18 19  1  0
 19 20  1  0
 20 21  1  0
 20 22  1  0
 18 23  1  0
  7 24  1  0
 24 25  2  0
 25 26  1  0
 25 27  1  0
 27 28  2  0
  2 29  1  0
 29 30  1  0
 30 31  1  0
 31  2  1  0
 28  3  1  0
 28  6  1  0
 16 11  1  0
 23 14  1  0
M  END
>  <smiles>  (2603) 
C38363-P283

>  <fragmenstein_outcome>  (2603) 
acceptable

>  <inchikey>  (2603) 
HQMXAFLXESYAEL-UHFFFAOYSA-N

>  <fragmenstein_mode>  (2603) 
expansion

>  <HIPPO Pose ID>  (2603) 
28667

>  <Energy>  (2603) 
197.467601

>  <fragmenstein_error>  (2603) 


>  <tags>  (2603) 
{'openbind_xx01zvns2b_c1_fragmenstein', 'fragmenstein_placed'}

>  <ref_pdb>  (2603) 
175

>  <scratch_subdir>  (2603) 
/opt/xchem-fragalysis-2/maxwin/BulkDock/SCRATCH/511028/C38363-P283

>  <alias>  (2603) 
NC1(n2ncc3c(C(=O)Nc4ccc5c(c4)CN(CC(F)F)C5)cc(Cl)cc32)CNC1

>  <HIPPO Compound ID>  (2603) 
38363

>  <fragmenstein_runtime>  (2603) 
8.686232

$$$$
CN1CCC2(CC1)Cc1c(C(=O)Nc3ccc4c(c3)CN(CC(F)F)C4)cc(Cl)cc1N2C1CNC1
     RDKit          3D

 36 41  0  0  0  0  0  0  0  0999 V2000
   -1.5889    7.9176  -14.1858 C   0  0  0  0  0  0  0  0  0  0  0  0
   -2.5910    7.2795  -15.0343 N   0  0  0  0  0  0  0  0  0  0  0  0
   -2.9913    8.1345  -16.1470 C   0  0  0  0  0  0  0  0  0  0  0  0
   -4.2314    7.5771  -16.8671 C   0  0  0  0  0  0  0  0  0  0  0  0
   -4.3107    6.0247  -16.8275 C   0  0  0  0  0  0  0  0  0  0  0  0
   -2.8805    5.4633  -16.7347 C   0  0  0  0  0  0  0  0  0  0  0  0
   -2.1416    5.9556  -15.4822 C   0  0  0  0  0  0  0  0  0  0  0  0
   -5.0990    5.5810  -15.5573 C   0  0  0  0  0  0  0  0  0  0  0  0
   -6.4190    5.1998  -16.1185 C   0  0  0  0  0  0  0  0  0  0  0  0
   -7.5912    4.9437  -15.4081 C   0  0  0  0  0  0  0  0  0  0  0  0
   -7.6981    5.3955  -14.0049 C   0  0  0  0  0  0  0  0  0  0  0  0
   -7.5061    6.5309  -13.8067 O   0  0  0  0  0  0  0  0  0  0  0  0
   -7.9538    4.2353  -13.0166 N   0  0  0  0  0  0  0  0  0  0  0  0
   -8.1156    4.2444  -11.6296 C   0  0  0  0  0  0  0  0  0  0  0  0
   -8.0187    5.4650  -10.9367 C   0  0  0  0  0  0  0  0  0  0  0  0
   -8.0486    5.5103   -9.5453 C   0  0  0  0  0  0  0  0  0  0  0  0
   -8.1914    4.3197   -8.8660 C   0  0  0  0  0  0  0  0  0  0  0  0
   -8.3354    3.1062   -9.5342 C   0  0  0  0  0  0  0  0  0  0  0  0
   -8.2953    3.0490  -10.9228 C   0  0  0  0  0  0  0  0  0  0  0  0
   -8.4445    2.0084   -8.5121 C   0  0  0  0  0  0  0  0  0  0  0  0
   -8.6353    2.7057   -7.1911 N   0  0  0  0  0  0  0  0  0  0  0  0
  -10.0674    2.7206   -6.8396 C   0  0  0  0  0  0  0  0  0  0  0  0
  -10.4930    1.5545   -5.9625 C   0  0  0  0  0  0  0  0  0  0  0  0
  -11.8316    1.6101   -5.7378 F   0  0  0  0  0  0  0  0  0  0  0  0
  -10.2554    0.3915   -6.6038 F   0  0  0  0  0  0  0  0  0  0  0  0
   -8.1375    4.0804   -7.3987 C   0  0  0  0  0  0  0  0  0  0  0  0
   -8.7085    4.4941  -16.0934 C   0  0  0  0  0  0  0  0  0  0  0  0
   -8.6352    4.3675  -17.4834 C   0  0  0  0  0  0  0  0  0  0  0  0
  -10.0543    3.9343  -18.3443 Cl  0  0  0  0  0  0  0  0  0  0  0  0
   -7.4654    4.6752  -18.1973 C   0  0  0  0  0  0  0  0  0  0  0  0
   -6.3402    5.0918  -17.5058 C   0  0  0  0  0  0  0  0  0  0  0  0
   -5.0563    5.4470  -18.0240 N   0  0  0  0  0  0  0  0  0  0  0  0
   -4.7960    5.9701  -19.3603 C   0  0  0  0  0  0  0  0  0  0  0  0
   -5.2002    5.1196  -20.5757 C   0  0  0  0  0  0  0  0  0  0  0  0
   -3.9081    5.4579  -21.2181 N   0  0  0  0  0  0  0  0  0  0  0  0
   -3.3553    5.6772  -19.8703 C   0  0  0  0  0  0  0  0  0  0  0  0
  1  2  1  0
  2  3  1  0
  3  4  1  0
  4  5  1  0
  5  6  1  0
  6  7  1  0
  5  8  1  0
  8  9  1  0
  9 10  2  0
 10 11  1  0
 11 12  2  0
 11 13  1  0
 13 14  1  0
 14 15  2  0
 15 16  1  0
 16 17  2  0
 17 18  1  0
 18 19  2  0
 18 20  1  0
 20 21  1  0
 21 22  1  0
 22 23  1  0
 23 24  1  0
 23 25  1  0
 21 26  1  0
 10 27  1  0
 27 28  2  0
 28 29  1  0
 28 30  1  0
 30 31  2  0
 31 32  1  0
 32 33  1  0
 33 34  1  0
 34 35  1  0
 35 36  1  0
  7  2  1  0
 31  9  1  0
 36 33  1  0
 32  5  1  0
 19 14  1  0
 26 17  1  0
M  END
>  <smiles>  (2604) 
C38372-P283

>  <fragmenstein_outcome>  (2604) 
acceptable

>  <inchikey>  (2604) 
MFBOVJHYNZYQRZ-UHFFFAOYSA-N

>  <fragmenstein_mode>  (2604) 
expansion

>  <HIPPO Pose ID>  (2604) 
28671

>  <Energy>  (2604) 
149.980651

>  <fragmenstein_error>  (2604) 


>  <tags>  (2604) 
{'openbind_xx01zvns2b_c1_fragmenstein', 'fragmenstein_placed'}

>  <ref_pdb>  (2604) 
175

>  <scratch_subdir>  (2604) 
/opt/xchem-fragalysis-2/maxwin/BulkDock/SCRATCH/511028/C38372-P283

>  <alias>  (2604) 
CN1CCC2(CC1)Cc1c(C(=O)Nc3ccc4c(c3)CN(CC(F)F)C4)cc(Cl)cc1N2C1CNC1

>  <HIPPO Compound ID>  (2604) 
38372

>  <fragmenstein_runtime>  (2604) 
8.173007

$$$$
O=C(NCCCF)[C@](O)(Nc1ccc2c(c1)CN(CC(F)F)C2)c1cc(Cl)cc2c1cnn2C1CNC1
     RDKit          3D

 37 41  0  0  0  0  0  0  0  0999 V2000
   -5.5441    3.4853  -13.5199 O   0  0  0  0  0  0  0  0  0  0  0  0
   -5.8697    4.6082  -13.4855 C   0  0  0  0  0  0  0  0  0  0  0  0
   -5.1985    5.8332  -12.7928 N   0  0  0  0  0  0  0  0  0  0  0  0
   -4.0508    5.9040  -11.9295 C   0  0  0  0  0  0  0  0  0  0  0  0
   -2.7228    5.8329  -12.6665 C   0  0  0  0  0  0  0  0  0  0  0  0
   -2.4082    4.4512  -13.2108 C   0  0  0  0  0  0  0  0  0  0  0  0
   -1.1180    4.4575  -13.6524 F   0  0  0  0  0  0  0  0  0  0  0  0
   -7.2318    5.1725  -14.1419 C   0  0  2  0  0  0  0  0  0  0  0  0
   -7.3664    6.5840  -14.0831 O   0  0  0  0  0  0  0  0  0  0  0  0
   -8.3959    4.6168  -13.4243 N   0  0  0  0  0  0  0  0  0  0  0  0
   -8.3565    4.6947  -12.0113 C   0  0  0  0  0  0  0  0  0  0  0  0
   -8.2720    5.9311  -11.3351 C   0  0  0  0  0  0  0  0  0  0  0  0
   -8.2575    6.0081   -9.9443 C   0  0  0  0  0  0  0  0  0  0  0  0
   -8.3577    4.8342   -9.2352 C   0  0  0  0  0  0  0  0  0  0  0  0
   -8.4676    3.6084   -9.8798 C   0  0  0  0  0  0  0  0  0  0  0  0
   -8.4682    3.5171  -11.2597 C   0  0  0  0  0  0  0  0  0  0  0  0
   -8.6408    2.5267   -8.8701 C   0  0  0  0  0  0  0  0  0  0  0  0
   -8.5357    3.2070   -7.5601 N   0  0  0  0  0  0  0  0  0  0  0  0
   -9.5973    2.8531   -6.6215 C   0  0  0  0  0  0  0  0  0  0  0  0
   -9.6883    1.3742   -6.3550 C   0  0  0  0  0  0  0  0  0  0  0  0
  -10.5951    1.1674   -5.3720 F   0  0  0  0  0  0  0  0  0  0  0  0
   -8.4729    0.9703   -5.9317 F   0  0  0  0  0  0  0  0  0  0  0  0
   -8.4175    4.6506   -7.7613 C   0  0  0  0  0  0  0  0  0  0  0  0
   -7.3133    4.8872  -15.6382 C   0  0  0  0  0  0  0  0  0  0  0  0
   -8.5336    4.4866  -16.2391 C   0  0  0  0  0  0  0  0  0  0  0  0
   -8.6644    4.3247  -17.6142 C   0  0  0  0  0  0  0  0  0  0  0  0
  -10.2061    3.9644  -18.2702 Cl  0  0  0  0  0  0  0  0  0  0  0  0
   -7.5933    4.5334  -18.4726 C   0  0  0  0  0  0  0  0  0  0  0  0
   -6.3933    4.9697  -17.9023 C   0  0  0  0  0  0  0  0  0  0  0  0
   -6.2401    5.1545  -16.5281 C   0  0  0  0  0  0  0  0  0  0  0  0
   -4.9187    5.6414  -16.3961 C   0  0  0  0  0  0  0  0  0  0  0  0
   -4.2799    5.7489  -17.5585 N   0  0  0  0  0  0  0  0  0  0  0  0
   -5.1803    5.3135  -18.4595 N   0  0  0  0  0  0  0  0  0  0  0  0
   -4.9117    5.2859  -19.9077 C   0  0  0  0  0  0  0  0  0  0  0  0
   -4.9427    6.6858  -20.5440 C   0  0  0  0  0  0  0  0  0  0  0  0
   -3.7725    6.2880  -21.3715 N   0  0  0  0  0  0  0  0  0  0  0  0
   -3.4213    5.3085  -20.3023 C   0  0  0  0  0  0  0  0  0  0  0  0
  1  2  2  0
  2  3  1  0
  3  4  1  0
  4  5  1  0
  5  6  1  0
  6  7  1  0
  2  8  1  0
  8  9  1  6
  8 10  1  0
 10 11  1  0
 11 12  2  0
 12 13  1  0
 13 14  2  0
 14 15  1  0
 15 16  2  0
 15 17  1  0
 17 18  1  0
 18 19  1  0
 19 20  1  0
 20 21  1  0
 20 22  1  0
 18 23  1  0
  8 24  1  0
 24 25  2  0
 25 26  1  0
 26 27  1  0
 26 28  2  0
 28 29  1  0
 29 30  2  0
 30 31  1  0
 31 32  2  0
 32 33  1  0
 33 34  1  0
 34 35  1  0
 35 36  1  0
 36 37  1  0
 16 11  1  0
 30 24  1  0
 37 34  1  0
 23 14  1  0
 33 29  1  0
M  END
>  <smiles>  (2605) 
C38371-P283

>  <fragmenstein_outcome>  (2605) 
acceptable

>  <inchikey>  (2605) 
QZWPGSPXDZXKLI-UHFFFAOYSA-N

>  <fragmenstein_mode>  (2605) 
expansion

>  <HIPPO Pose ID>  (2605) 
28673

>  <Energy>  (2605) 
149.863589

>  <fragmenstein_error>  (2605) 


>  <tags>  (2605) 
{'openbind_xx01zvns2b_c1_fragmenstein', 'fragmenstein_placed'}

>  <ref_pdb>  (2605) 
175

>  <scratch_subdir>  (2605) 
/opt/xchem-fragalysis-2/maxwin/BulkDock/SCRATCH/511028/C38371-P283

>  <alias>  (2605) 
O=C(NCCCF)[C@](O)(Nc1ccc2c(c1)CN(CC(F)F)C2)c1cc(Cl)cc2c1cnn2C1CNC1

>  <HIPPO Compound ID>  (2605) 
30230

>  <fragmenstein_runtime>  (2605) 
9.104654

$$$$
CCN1CCC2(CC1)Cc1c(C(=O)Nc3ccc4c(c3)CN(CC(F)F)C4)cc(Cl)cc1N2C1CNC1
     RDKit          3D

 37 42  0  0  0  0  0  0  0  0999 V2000
   -0.1295    8.3161  -14.7519 C   0  0  0  0  0  0  0  0  0  0  0  0
   -1.4082    8.6119  -15.5300 C   0  0  0  0  0  0  0  0  0  0  0  0
   -1.7338    7.5778  -16.5235 N   0  0  0  0  0  0  0  0  0  0  0  0
   -2.8221    7.9956  -17.4165 C   0  0  0  0  0  0  0  0  0  0  0  0
   -4.1926    7.4492  -17.0313 C   0  0  0  0  0  0  0  0  0  0  0  0
   -4.2066    5.9016  -16.9152 C   0  0  0  0  0  0  0  0  0  0  0  0
   -2.7887    5.3250  -16.7684 C   0  0  0  0  0  0  0  0  0  0  0  0
   -1.9277    6.2549  -15.9132 C   0  0  0  0  0  0  0  0  0  0  0  0
   -4.9821    5.5339  -15.5912 C   0  0  0  0  0  0  0  0  0  0  0  0
   -6.3326    5.1868  -16.0989 C   0  0  0  0  0  0  0  0  0  0  0  0
   -7.5049    4.9978  -15.3746 C   0  0  0  0  0  0  0  0  0  0  0  0
   -7.5849    5.4981  -13.9897 C   0  0  0  0  0  0  0  0  0  0  0  0
   -7.2831    6.6142  -13.8196 O   0  0  0  0  0  0  0  0  0  0  0  0
   -8.0605    4.4245  -12.9848 N   0  0  0  0  0  0  0  0  0  0  0  0
   -8.1699    4.4697  -11.5951 C   0  0  0  0  0  0  0  0  0  0  0  0
   -7.9331    5.6926  -10.9397 C   0  0  0  0  0  0  0  0  0  0  0  0
   -7.9817    5.7888   -9.5554 C   0  0  0  0  0  0  0  0  0  0  0  0
   -8.2714    4.6440   -8.8470 C   0  0  0  0  0  0  0  0  0  0  0  0
   -8.5368    3.4274   -9.4749 C   0  0  0  0  0  0  0  0  0  0  0  0
   -8.4891    3.3210  -10.8592 C   0  0  0  0  0  0  0  0  0  0  0  0
   -8.8732    2.4070   -8.4240 C   0  0  0  0  0  0  0  0  0  0  0  0
   -8.4690    3.0452   -7.1490 N   0  0  0  0  0  0  0  0  0  0  0  0
   -9.2999    2.7075   -5.9907 C   0  0  0  0  0  0  0  0  0  0  0  0
   -8.7705    3.2977   -4.6679 C   0  0  0  0  0  0  0  0  0  0  0  0
   -9.6633    3.0943   -3.6666 F   0  0  0  0  0  0  0  0  0  0  0  0
   -8.6502    4.6549   -4.7476 F   0  0  0  0  0  0  0  0  0  0  0  0
   -8.3844    4.4946   -7.3746 C   0  0  0  0  0  0  0  0  0  0  0  0
   -8.6453    4.5575  -16.0345 C   0  0  0  0  0  0  0  0  0  0  0  0
   -8.5932    4.3648  -17.4175 C   0  0  0  0  0  0  0  0  0  0  0  0
  -10.0342    3.9512  -18.2526 Cl  0  0  0  0  0  0  0  0  0  0  0  0
   -7.4199    4.5899  -18.1459 C   0  0  0  0  0  0  0  0  0  0  0  0
   -6.2783    4.9967  -17.4734 C   0  0  0  0  0  0  0  0  0  0  0  0
   -4.9932    5.2654  -18.0276 N   0  0  0  0  0  0  0  0  0  0  0  0
   -4.7322    5.2031  -19.4512 C   0  0  0  0  0  0  0  0  0  0  0  0
   -4.9462    6.4921  -20.2754 C   0  0  0  0  0  0  0  0  0  0  0  0
   -3.8844    5.9959  -21.1993 N   0  0  0  0  0  0  0  0  0  0  0  0
   -3.3056    5.2695  -20.0308 C   0  0  0  0  0  0  0  0  0  0  0  0
  1  2  1  0
  2  3  1  0
  3  4  1  0
  4  5  1  0
  5  6  1  0
  6  7  1  0
  7  8  1  0
  6  9  1  0
  9 10  1  0
 10 11  2  0
 11 12  1  0
 12 13  2  0
 12 14  1  0
 14 15  1  0
 15 16  2  0
 16 17  1  0
 17 18  2  0
 18 19  1  0
 19 20  2  0
 19 21  1  0
 21 22  1  0
 22 23  1  0
 23 24  1  0
 24 25  1  0
 24 26  1  0
 22 27  1  0
 11 28  1  0
 28 29  2  0
 29 30  1  0
 29 31  1  0
 31 32  2  0
 32 33  1  0
 33 34  1  0
 34 35  1  0
 35 36  1  0
 36 37  1  0
  8  3  1  0
 32 10  1  0
 37 34  1  0
 33  6  1  0
 20 15  1  0
 27 18  1  0
M  END
>  <smiles>  (2606) 
C38377-P283

>  <fragmenstein_outcome>  (2606) 
acceptable

>  <inchikey>  (2606) 
URQSAQKNIPPDKR-UHFFFAOYSA-N

>  <fragmenstein_mode>  (2606) 
expansion

>  <HIPPO Pose ID>  (2606) 
28674

>  <Energy>  (2606) 
152.188261

>  <fragmenstein_error>  (2606) 


>  <tags>  (2606) 
{'openbind_xx01zvns2b_c1_fragmenstein', 'fragmenstein_placed'}

>  <ref_pdb>  (2606) 
175

>  <scratch_subdir>  (2606) 
/opt/xchem-fragalysis-2/maxwin/BulkDock/SCRATCH/511028/C38377-P283

>  <alias>  (2606) 
CCN1CCC2(CC1)Cc1c(C(=O)Nc3ccc4c(c3)CN(CC(F)F)C4)cc(Cl)cc1N2C1CNC1

>  <HIPPO Compound ID>  (2606) 
38377

>  <fragmenstein_runtime>  (2606) 
12.934928

$$$$
CN1CC[C@@]23Cc4c(C(=O)Nc5ccc6c(c5)CN(CC(F)F)C6)cc(Cl)cc4N2[C@@H]2CCN[C@H]2O[C@H]3C1
     RDKit          3D

 38 44  0  0  0  0  0  0  0  0999 V2000
   -1.6537    9.8115  -17.8921 C   0  0  0  0  0  0  0  0  0  0  0  0
   -2.4257    8.7329  -17.2730 N   0  0  0  0  0  0  0  0  0  0  0  0
   -3.8604    8.9883  -17.3953 C   0  0  0  0  0  0  0  0  0  0  0  0
   -4.6252    7.9667  -16.5679 C   0  0  0  0  0  0  0  0  0  0  0  0
   -4.3941    6.4924  -16.9811 C   0  0  1  0  0  0  0  0  0  0  0  0
   -4.8681    5.5882  -15.8072 C   0  0  0  0  0  0  0  0  0  0  0  0
   -6.2509    5.2208  -16.2389 C   0  0  0  0  0  0  0  0  0  0  0  0
   -7.3348    4.8246  -15.4519 C   0  0  0  0  0  0  0  0  0  0  0  0
   -7.3846    5.3001  -14.0485 C   0  0  0  0  0  0  0  0  0  0  0  0
   -7.0857    6.4199  -13.8927 O   0  0  0  0  0  0  0  0  0  0  0  0
   -7.9222    4.2564  -13.0411 N   0  0  0  0  0  0  0  0  0  0  0  0
   -8.1082    4.3413  -11.6605 C   0  0  0  0  0  0  0  0  0  0  0  0
   -7.8820    5.5827  -11.0373 C   0  0  0  0  0  0  0  0  0  0  0  0
   -8.0954    5.7610   -9.6768 C   0  0  0  0  0  0  0  0  0  0  0  0
   -8.5221    4.6744   -8.9479 C   0  0  0  0  0  0  0  0  0  0  0  0
   -8.7201    3.4306   -9.5342 C   0  0  0  0  0  0  0  0  0  0  0  0
   -8.5307    3.2444  -10.9018 C   0  0  0  0  0  0  0  0  0  0  0  0
   -9.1792    2.4754   -8.4786 C   0  0  0  0  0  0  0  0  0  0  0  0
   -9.1289    3.2106   -7.1632 N   0  0  0  0  0  0  0  0  0  0  0  0
   -7.9894    2.7033   -6.3706 C   0  0  0  0  0  0  0  0  0  0  0  0
   -7.8407    3.2296   -4.9360 C   0  0  0  0  0  0  0  0  0  0  0  0
   -6.6686    2.8027   -4.3911 F   0  0  0  0  0  0  0  0  0  0  0  0
   -7.7627    4.5890   -4.9018 F   0  0  0  0  0  0  0  0  0  0  0  0
   -8.8321    4.6316   -7.4959 C   0  0  0  0  0  0  0  0  0  0  0  0
   -8.4903    4.3691  -16.0809 C   0  0  0  0  0  0  0  0  0  0  0  0
   -8.5304    4.3561  -17.4787 C   0  0  0  0  0  0  0  0  0  0  0  0
   -9.9867    3.8988  -18.2676 Cl  0  0  0  0  0  0  0  0  0  0  0  0
   -7.4694    4.8585  -18.2507 C   0  0  0  0  0  0  0  0  0  0  0  0
   -6.3375    5.3449  -17.6252 C   0  0  0  0  0  0  0  0  0  0  0  0
   -5.3143    6.1342  -18.1427 N   0  0  0  0  0  0  0  0  0  0  0  0
   -4.5846    5.9791  -19.3869 C   0  0  2  0  0  0  0  0  0  0  0  0
   -5.1991    5.5485  -20.6887 C   0  0  0  0  0  0  0  0  0  0  0  0
   -3.9585    5.0970  -21.4880 C   0  0  0  0  0  0  0  0  0  0  0  0
   -2.8347    5.0464  -20.5388 N   0  0  0  0  0  0  0  0  0  0  0  0
   -3.4706    4.9473  -19.2336 C   0  0  1  0  0  0  0  0  0  0  0  0
   -2.5869    5.1012  -18.1349 O   0  0  0  0  0  0  0  0  0  0  0  0
   -2.8649    6.2450  -17.3011 C   0  0  1  0  0  0  0  0  0  0  0  0
   -2.0968    7.4495  -17.8991 C   0  0  0  0  0  0  0  0  0  0  0  0
  1  2  1  0
  2  3  1  0
  3  4  1  0
  5  4  1  1
  5  6  1  0
  6  7  1  0
  7  8  2  0
  8  9  1  0
  9 10  2  0
  9 11  1  0
 11 12  1  0
 12 13  2  0
 13 14  1  0
 14 15  2  0
 15 16  1  0
 16 17  2  0
 16 18  1  0
 18 19  1  0
 19 20  1  0
 20 21  1  0
 21 22  1  0
 21 23  1  0
 19 24  1  0
  8 25  1  0
 25 26  2  0
 26 27  1  0
 26 28  1  0
 28 29  2  0
 29 30  1  0
 30 31  1  0
 31 32  1  6
 32 33  1  0
 33 34  1  0
 35 34  1  6
 35 36  1  0
 36 37  1  0
 37 38  1  6
 38  2  1  0
 30  5  1  0
 35 31  1  0
 37  5  1  0
 29  7  1  0
 17 12  1  0
 24 15  1  0
M  END
>  <smiles>  (2607) 
C38379-P283

>  <fragmenstein_outcome>  (2607) 
acceptable

>  <inchikey>  (2607) 
YSFLXCQOQUMFKA-UHFFFAOYSA-N

>  <fragmenstein_mode>  (2607) 
expansion

>  <HIPPO Pose ID>  (2607) 
28677

>  <Energy>  (2607) 
213.492663

>  <fragmenstein_error>  (2607) 


>  <tags>  (2607) 
{'openbind_xx01zvns2b_c1_fragmenstein', 'fragmenstein_placed'}

>  <ref_pdb>  (2607) 
175

>  <scratch_subdir>  (2607) 
/opt/xchem-fragalysis-2/maxwin/BulkDock/SCRATCH/511028/C38379-P283

>  <alias>  (2607) 
CN1CC[C@@]23Cc4c(C(=O)Nc5ccc6c(c5)CN(CC(F)F)C6)cc(Cl)cc4N2[C@@H]2CCN[C@H]2O[C@H]3C1

>  <HIPPO Compound ID>  (2607) 
38379

>  <fragmenstein_runtime>  (2607) 
8.759436

$$$$
O=C(Nc1ccc2c(c1)CN(CC(F)F)C2)c1cc(Cl)cc2c1cnn2C1CC2(CCOCC2)C1
     RDKit          3D

 35 40  0  0  0  0  0  0  0  0999 V2000
   -7.2677    6.6080  -14.0336 O   0  0  0  0  0  0  0  0  0  0  0  0
   -7.5057    5.4777  -14.2028 C   0  0  0  0  0  0  0  0  0  0  0  0
   -7.9793    4.3964  -13.2108 N   0  0  0  0  0  0  0  0  0  0  0  0
   -8.1624    4.4522  -11.8341 C   0  0  0  0  0  0  0  0  0  0  0  0
   -8.1868    5.7155  -11.2152 C   0  0  0  0  0  0  0  0  0  0  0  0
   -8.3915    5.8398   -9.8489 C   0  0  0  0  0  0  0  0  0  0  0  0
   -8.5620    4.6815   -9.1235 C   0  0  0  0  0  0  0  0  0  0  0  0
   -8.5118    3.4200   -9.7158 C   0  0  0  0  0  0  0  0  0  0  0  0
   -8.3266    3.2842  -11.0837 C   0  0  0  0  0  0  0  0  0  0  0  0
   -8.6403    2.3799   -8.6431 C   0  0  0  0  0  0  0  0  0  0  0  0
   -9.0655    3.1342   -7.4399 N   0  0  0  0  0  0  0  0  0  0  0  0
   -8.6036    2.5677   -6.1591 C   0  0  0  0  0  0  0  0  0  0  0  0
   -7.5377    3.3721   -5.3846 C   0  0  0  0  0  0  0  0  0  0  0  0
   -8.1015    4.4767   -4.8180 F   0  0  0  0  0  0  0  0  0  0  0  0
   -6.9886    2.6692   -4.3686 F   0  0  0  0  0  0  0  0  0  0  0  0
   -8.7575    4.5533   -7.6552 C   0  0  0  0  0  0  0  0  0  0  0  0
   -7.4328    4.9904  -15.5889 C   0  0  0  0  0  0  0  0  0  0  0  0
   -8.5693    4.4695  -16.2089 C   0  0  0  0  0  0  0  0  0  0  0  0
   -8.5804    4.3281  -17.5914 C   0  0  0  0  0  0  0  0  0  0  0  0
  -10.0390    3.8519  -18.3528 Cl  0  0  0  0  0  0  0  0  0  0  0  0
   -7.4813    4.6769  -18.3873 C   0  0  0  0  0  0  0  0  0  0  0  0
   -6.3479    5.1894  -17.7410 C   0  0  0  0  0  0  0  0  0  0  0  0
   -6.3003    5.3227  -16.3540 C   0  0  0  0  0  0  0  0  0  0  0  0
   -5.0297    5.8678  -16.0841 C   0  0  0  0  0  0  0  0  0  0  0  0
   -4.3235    6.0880  -17.1898 N   0  0  0  0  0  0  0  0  0  0  0  0
   -5.1602    5.7325  -18.1868 N   0  0  0  0  0  0  0  0  0  0  0  0
   -4.9125    6.2333  -19.5589 C   0  0  0  0  0  0  0  0  0  0  0  0
   -4.9934    5.1856  -20.6728 C   0  0  0  0  0  0  0  0  0  0  0  0
   -3.7074    5.7953  -21.3003 C   0  0  0  0  0  0  0  0  0  0  0  0
   -2.7154    4.7492  -21.8216 C   0  0  0  0  0  0  0  0  0  0  0  0
   -1.4884    5.4494  -22.3951 C   0  0  0  0  0  0  0  0  0  0  0  0
   -1.8781    6.3588  -23.4299 O   0  0  0  0  0  0  0  0  0  0  0  0
   -2.6979    7.4099  -22.9169 C   0  0  0  0  0  0  0  0  0  0  0  0
   -4.0073    6.8385  -22.3879 C   0  0  0  0  0  0  0  0  0  0  0  0
   -3.3965    6.3536  -19.8867 C   0  0  0  0  0  0  0  0  0  0  0  0
  1  2  2  0
  2  3  1  0
  3  4  1  0
  4  5  2  0
  5  6  1  0
  6  7  2  0
  7  8  1  0
  8  9  2  0
  8 10  1  0
 10 11  1  0
 11 12  1  0
 12 13  1  0
 13 14  1  0
 13 15  1  0
 11 16  1  0
  2 17  1  0
 17 18  2  0
 18 19  1  0
 19 20  1  0
 19 21  2  0
 21 22  1  0
 22 23  2  0
 23 24  1  0
 24 25  2  0
 25 26  1  0
 26 27  1  0
 27 28  1  0
 28 29  1  0
 29 30  1  0
 30 31  1  0
 31 32  1  0
 32 33  1  0
 33 34  1  0
 29 35  1  0
  9  4  1  0
 23 17  1  0
 35 27  1  0
 16  7  1  0
 26 22  1  0
 34 29  1  0
M  END
>  <smiles>  (2608) 
C38381-P283

>  <fragmenstein_outcome>  (2608) 
acceptable

>  <inchikey>  (2608) 
PDQUROPBETWEKZ-UHFFFAOYSA-N

>  <fragmenstein_mode>  (2608) 
expansion

>  <HIPPO Pose ID>  (2608) 
28679

>  <Energy>  (2608) 
132.469986

>  <fragmenstein_error>  (2608) 


>  <tags>  (2608) 
{'openbind_xx01zvns2b_c1_fragmenstein', 'fragmenstein_placed'}

>  <ref_pdb>  (2608) 
175

>  <scratch_subdir>  (2608) 
/opt/xchem-fragalysis-2/maxwin/BulkDock/SCRATCH/511028/C38381-P283

>  <alias>  (2608) 
O=C(Nc1ccc2c(c1)CN(CC(F)F)C2)c1cc(Cl)cc2c1cnn2C1CC2(CCOCC2)C1

>  <HIPPO Compound ID>  (2608) 
38381

>  <fragmenstein_runtime>  (2608) 
8.120102

$$$$
O=C(N[C@@H]1CC2=C(CN(CC(F)F)C2)C[C@]12CCCC2=O)c1cc(Cl)cc2c1cnn2C1CNC1
     RDKit          3D

 35 40  0  0  0  0  0  0  0  0999 V2000
   -7.0288    6.5760  -14.1594 O   0  0  0  0  0  0  0  0  0  0  0  0
   -7.2558    5.4449  -14.3137 C   0  0  0  0  0  0  0  0  0  0  0  0
   -7.4280    4.3155  -13.2888 N   0  0  0  0  0  0  0  0  0  0  0  0
   -7.2604    4.3171  -11.8283 C   0  0  2  0  0  0  0  0  0  0  0  0
   -8.2273    3.2590  -11.2085 C   0  0  0  0  0  0  0  0  0  0  0  0
   -8.3531    3.3735   -9.7314 C   0  0  0  0  0  0  0  0  0  0  0  0
   -7.8750    4.4011   -9.0324 C   0  0  0  0  0  0  0  0  0  0  0  0
   -8.1640    4.2503   -7.5915 C   0  0  0  0  0  0  0  0  0  0  0  0
   -8.5770    2.8508   -7.4737 N   0  0  0  0  0  0  0  0  0  0  0  0
   -9.5148    2.5969   -6.3803 C   0  0  0  0  0  0  0  0  0  0  0  0
   -9.0106    3.1056   -5.0187 C   0  0  0  0  0  0  0  0  0  0  0  0
   -8.8377    4.4593   -5.0338 F   0  0  0  0  0  0  0  0  0  0  0  0
   -9.9520    2.8855   -4.0676 F   0  0  0  0  0  0  0  0  0  0  0  0
   -9.0051    2.3925   -8.8077 C   0  0  0  0  0  0  0  0  0  0  0  0
   -7.1379    5.5524   -9.5866 C   0  0  0  0  0  0  0  0  0  0  0  0
   -7.3242    5.7036  -11.1170 C   0  0  2  0  0  0  0  0  0  0  0  0
   -8.5737    6.5455  -11.4204 C   0  0  0  0  0  0  0  0  0  0  0  0
   -8.1529    8.0039  -11.2416 C   0  0  0  0  0  0  0  0  0  0  0  0
   -6.6888    8.0853  -11.6500 C   0  0  0  0  0  0  0  0  0  0  0  0
   -6.2098    6.6573  -11.5261 C   0  0  0  0  0  0  0  0  0  0  0  0
   -5.0337    6.3339  -11.6650 O   0  0  0  0  0  0  0  0  0  0  0  0
   -7.3634    4.9734  -15.6988 C   0  0  0  0  0  0  0  0  0  0  0  0
   -8.5790    4.5122  -16.2044 C   0  0  0  0  0  0  0  0  0  0  0  0
   -8.7034    4.3050  -17.5743 C   0  0  0  0  0  0  0  0  0  0  0  0
  -10.2455    3.9322  -18.2231 Cl  0  0  0  0  0  0  0  0  0  0  0  0
   -7.6346    4.4975  -18.4582 C   0  0  0  0  0  0  0  0  0  0  0  0
   -6.4224    4.9510  -17.9202 C   0  0  0  0  0  0  0  0  0  0  0  0
   -6.2718    5.1916  -16.5576 C   0  0  0  0  0  0  0  0  0  0  0  0
   -4.9486    5.6575  -16.4162 C   0  0  0  0  0  0  0  0  0  0  0  0
   -4.2954    5.7006  -17.5770 N   0  0  0  0  0  0  0  0  0  0  0  0
   -5.2096    5.2895  -18.4796 N   0  0  0  0  0  0  0  0  0  0  0  0
   -4.9462    5.2717  -19.9287 C   0  0  0  0  0  0  0  0  0  0  0  0
   -4.9640    6.6798  -20.5499 C   0  0  0  0  0  0  0  0  0  0  0  0
   -3.8038    6.2759  -21.3887 N   0  0  0  0  0  0  0  0  0  0  0  0
   -3.4564    5.2852  -20.3292 C   0  0  0  0  0  0  0  0  0  0  0  0
  1  2  2  0
  2  3  1  0
  4  3  1  6
  4  5  1  0
  5  6  1  0
  6  7  2  0
  7  8  1  0
  8  9  1  0
  9 10  1  0
 10 11  1  0
 11 12  1  0
 11 13  1  0
  9 14  1  0
  7 15  1  0
 16 15  1  1
 16 17  1  0
 17 18  1  0
 18 19  1  0
 19 20  1  0
 20 21  2  0
  2 22  1  0
 22 23  2  0
 23 24  1  0
 24 25  1  0
 24 26  2  0
 26 27  1  0
 27 28  2  0
 28 29  1  0
 29 30  2  0
 30 31  1  0
 31 32  1  0
 32 33  1  0
 33 34  1  0
 34 35  1  0
 16  4  1  0
 28 22  1  0
 35 32  1  0
 14  6  1  0
 20 16  1  0
 31 27  1  0
M  END
>  <smiles>  (2609) 
C38391-P283

>  <fragmenstein_outcome>  (2609) 
acceptable

>  <inchikey>  (2609) 
OJEYVYFHCOEOCP-UHFFFAOYSA-N

>  <fragmenstein_mode>  (2609) 
expansion

>  <HIPPO Pose ID>  (2609) 
28683

>  <Energy>  (2609) 
100.37185

>  <fragmenstein_error>  (2609) 


>  <tags>  (2609) 
{'openbind_xx01zvns2b_c1_fragmenstein', 'fragmenstein_placed'}

>  <ref_pdb>  (2609) 
175

>  <scratch_subdir>  (2609) 
/opt/xchem-fragalysis-2/maxwin/BulkDock/SCRATCH/511028/C38391-P283

>  <alias>  (2609) 
O=C(N[C@@H]1CC2=C(CN(CC(F)F)C2)C[C@]12CCCC2=O)c1cc(Cl)cc2c1cnn2C1CNC1

>  <HIPPO Compound ID>  (2609) 
38391

>  <fragmenstein_runtime>  (2609) 
50.8797

$$$$
CC1(C)Cc2c3c(cc(NC(=O)c4cc(Cl)cc5c4cnn5C4CNC4)c2O1)CN(CC(F)F)C3
     RDKit          3D

 35 40  0  0  0  0  0  0  0  0999 V2000
   -8.8221    9.0121  -10.9225 C   0  0  0  0  0  0  0  0  0  0  0  0
   -7.9223    7.7973  -10.6907 C   0  0  0  0  0  0  0  0  0  0  0  0
   -6.4490    8.2177  -10.7691 C   0  0  0  0  0  0  0  0  0  0  0  0
   -8.2522    7.1064   -9.3543 C   0  0  0  0  0  0  0  0  0  0  0  0
   -8.2649    5.6976   -9.7987 C   0  0  0  0  0  0  0  0  0  0  0  0
   -8.3981    4.5451   -9.0732 C   0  0  0  0  0  0  0  0  0  0  0  0
   -8.4913    3.3109   -9.7137 C   0  0  0  0  0  0  0  0  0  0  0  0
   -8.3875    3.2158  -11.1043 C   0  0  0  0  0  0  0  0  0  0  0  0
   -8.1864    4.3908  -11.8500 C   0  0  0  0  0  0  0  0  0  0  0  0
   -7.9526    4.3163  -13.2247 N   0  0  0  0  0  0  0  0  0  0  0  0
   -7.3490    5.3572  -14.2004 C   0  0  0  0  0  0  0  0  0  0  0  0
   -6.8828    6.4093  -13.9930 O   0  0  0  0  0  0  0  0  0  0  0  0
   -7.3731    4.9283  -15.6129 C   0  0  0  0  0  0  0  0  0  0  0  0
   -8.5493    4.4835  -16.2149 C   0  0  0  0  0  0  0  0  0  0  0  0
   -8.5915    4.3494  -17.5983 C   0  0  0  0  0  0  0  0  0  0  0  0
  -10.0827    3.9300  -18.3352 Cl  0  0  0  0  0  0  0  0  0  0  0  0
   -7.4881    4.6403  -18.4159 C   0  0  0  0  0  0  0  0  0  0  0  0
   -6.3060    5.0719  -17.7961 C   0  0  0  0  0  0  0  0  0  0  0  0
   -6.2366    5.1968  -16.4056 C   0  0  0  0  0  0  0  0  0  0  0  0
   -4.9263    5.6453  -16.1460 C   0  0  0  0  0  0  0  0  0  0  0  0
   -4.2097    5.8023  -17.2542 N   0  0  0  0  0  0  0  0  0  0  0  0
   -5.0696    5.4941  -18.2513 N   0  0  0  0  0  0  0  0  0  0  0  0
   -4.6914    5.9132  -19.6138 C   0  0  0  0  0  0  0  0  0  0  0  0
   -5.2060    5.1248  -20.8106 C   0  0  0  0  0  0  0  0  0  0  0  0
   -3.8384    5.1322  -21.3823 N   0  0  0  0  0  0  0  0  0  0  0  0
   -3.3144    5.3330  -20.0106 C   0  0  0  0  0  0  0  0  0  0  0  0
   -8.1813    5.6140  -11.1744 C   0  0  0  0  0  0  0  0  0  0  0  0
   -8.1753    6.8546  -11.7629 O   0  0  0  0  0  0  0  0  0  0  0  0
   -8.7296    2.2497   -8.6716 C   0  0  0  0  0  0  0  0  0  0  0  0
   -8.4824    2.9285   -7.3773 N   0  0  0  0  0  0  0  0  0  0  0  0
   -9.3539    2.5198   -6.2715 C   0  0  0  0  0  0  0  0  0  0  0  0
   -8.9241    3.1360   -4.9256 C   0  0  0  0  0  0  0  0  0  0  0  0
   -9.8723    2.9063   -3.9828 F   0  0  0  0  0  0  0  0  0  0  0  0
   -8.8338    4.4947   -5.0017 F   0  0  0  0  0  0  0  0  0  0  0  0
   -8.5152    4.3810   -7.6070 C   0  0  0  0  0  0  0  0  0  0  0  0
  1  2  1  0
  2  3  1  0
  2  4  1  0
  4  5  1  0
  5  6  2  0
  6  7  1  0
  7  8  2  0
  8  9  1  0
  9 10  1  0
 10 11  1  0
 11 12  2  0
 11 13  1  0
 13 14  2  0
 14 15  1  0
 15 16  1  0
 15 17  2  0
 17 18  1  0
 18 19  2  0
 19 20  1  0
 20 21  2  0
 21 22  1  0
 22 23  1  0
 23 24  1  0
 24 25  1  0
 25 26  1  0
  9 27  2  0
 27 28  1  0
  7 29  1  0
 29 30  1  0
 30 31  1  0
 31 32  1  0
 32 33  1  0
 32 34  1  0
 30 35  1  0
 28  2  1  0
 27  5  1  0
 35  6  1  0
 19 13  1  0
 26 23  1  0
 22 18  1  0
M  END
>  <smiles>  (2610) 
C38392-P283

>  <fragmenstein_outcome>  (2610) 
acceptable

>  <inchikey>  (2610) 
HEVHFUKGBWHRGY-UHFFFAOYSA-N

>  <fragmenstein_mode>  (2610) 
expansion

>  <HIPPO Pose ID>  (2610) 
28684

>  <Energy>  (2610) 
146.515206

>  <fragmenstein_error>  (2610) 


>  <tags>  (2610) 
{'openbind_xx01zvns2b_c1_fragmenstein', 'fragmenstein_placed'}

>  <ref_pdb>  (2610) 
175

>  <scratch_subdir>  (2610) 
/opt/xchem-fragalysis-2/maxwin/BulkDock/SCRATCH/511028/C38392-P283

>  <alias>  (2610) 
CC1(C)Cc2c3c(cc(NC(=O)c4cc(Cl)cc5c4cnn5C4CNC4)c2O1)CN(CC(F)F)C3

>  <HIPPO Compound ID>  (2610) 
38392

>  <fragmenstein_runtime>  (2610) 
16.99903

$$$$
O=C(Nc1ccc2c(c1)CN(CC(F)F)C2)c1cc(Cl)cc2c1CC1(CCCCC1)N2C1CNC1
     RDKit          3D

 35 40  0  0  0  0  0  0  0  0999 V2000
   -7.4728    6.6825  -13.9174 O   0  0  0  0  0  0  0  0  0  0  0  0
   -7.6494    5.5438  -14.1110 C   0  0  0  0  0  0  0  0  0  0  0  0
   -8.0314    4.4080  -13.1329 N   0  0  0  0  0  0  0  0  0  0  0  0
   -8.1778    4.4181  -11.7453 C   0  0  0  0  0  0  0  0  0  0  0  0
   -8.1830    5.6504  -11.0672 C   0  0  0  0  0  0  0  0  0  0  0  0
   -8.3090    5.7114   -9.6818 C   0  0  0  0  0  0  0  0  0  0  0  0
   -8.4147    4.5225   -8.9911 C   0  0  0  0  0  0  0  0  0  0  0  0
   -8.4141    3.2887   -9.6489 C   0  0  0  0  0  0  0  0  0  0  0  0
   -8.3096    3.2190  -11.0334 C   0  0  0  0  0  0  0  0  0  0  0  0
   -8.5366    2.1932   -8.6230 C   0  0  0  0  0  0  0  0  0  0  0  0
   -8.2857    2.8918   -7.3457 N   0  0  0  0  0  0  0  0  0  0  0  0
   -8.8267    2.2929   -6.1317 C   0  0  0  0  0  0  0  0  0  0  0  0
  -10.3222    2.0141   -6.0815 C   0  0  0  0  0  0  0  0  0  0  0  0
  -10.7851    2.1439   -4.8124 F   0  0  0  0  0  0  0  0  0  0  0  0
  -10.5546    0.7358   -6.4511 F   0  0  0  0  0  0  0  0  0  0  0  0
   -8.5418    4.3168   -7.5203 C   0  0  0  0  0  0  0  0  0  0  0  0
   -7.5336    5.0696  -15.5078 C   0  0  0  0  0  0  0  0  0  0  0  0
   -8.6350    4.5073  -16.1431 C   0  0  0  0  0  0  0  0  0  0  0  0
   -8.5890    4.3065  -17.5245 C   0  0  0  0  0  0  0  0  0  0  0  0
  -10.0170    3.8118  -18.3297 Cl  0  0  0  0  0  0  0  0  0  0  0  0
   -7.4447    4.5994  -18.2728 C   0  0  0  0  0  0  0  0  0  0  0  0
   -6.3421    5.1366  -17.6294 C   0  0  0  0  0  0  0  0  0  0  0  0
   -6.4062    5.3835  -16.2637 C   0  0  0  0  0  0  0  0  0  0  0  0
   -5.1701    6.0750  -15.8133 C   0  0  0  0  0  0  0  0  0  0  0  0
   -4.2809    6.1165  -17.1118 C   0  0  0  0  0  0  0  0  0  0  0  0
   -3.0018    5.2724  -16.8575 C   0  0  0  0  0  0  0  0  0  0  0  0
   -1.7804    6.1129  -16.4628 C   0  0  0  0  0  0  0  0  0  0  0  0
   -2.1513    7.3054  -15.5945 C   0  0  0  0  0  0  0  0  0  0  0  0
   -3.1004    8.2630  -16.3098 C   0  0  0  0  0  0  0  0  0  0  0  0
   -3.9330    7.5934  -17.4086 C   0  0  0  0  0  0  0  0  0  0  0  0
   -5.1096    5.5219  -18.2085 N   0  0  0  0  0  0  0  0  0  0  0  0
   -4.7867    5.3839  -19.6095 C   0  0  0  0  0  0  0  0  0  0  0  0
   -5.0097    6.6435  -20.4705 C   0  0  0  0  0  0  0  0  0  0  0  0
   -3.7943    6.2920  -21.2500 N   0  0  0  0  0  0  0  0  0  0  0  0
   -3.3260    5.4916  -20.0889 C   0  0  0  0  0  0  0  0  0  0  0  0
  1  2  2  0
  2  3  1  0
  3  4  1  0
  4  5  2  0
  5  6  1  0
  6  7  2  0
  7  8  1  0
  8  9  2  0
  8 10  1  0
 10 11  1  0
 11 12  1  0
 12 13  1  0
 13 14  1  0
 13 15  1  0
 11 16  1  0
  2 17  1  0
 17 18  2  0
 18 19  1  0
 19 20  1  0
 19 21  2  0
 21 22  1  0
 22 23  2  0
 23 24  1  0
 24 25  1  0
 25 26  1  0
 26 27  1  0
 27 28  1  0
 28 29  1  0
 29 30  1  0
 25 31  1  0
 31 32  1  0
 32 33  1  0
 33 34  1  0
 34 35  1  0
  9  4  1  0
 23 17  1  0
 30 25  1  0
 35 32  1  0
 16  7  1  0
 31 22  1  0
M  END
>  <smiles>  (2611) 
C38398-P283

>  <fragmenstein_outcome>  (2611) 
acceptable

>  <inchikey>  (2611) 
BDSILUQPPGZUJV-UHFFFAOYSA-N

>  <fragmenstein_mode>  (2611) 
expansion

>  <HIPPO Pose ID>  (2611) 
28688

>  <Energy>  (2611) 
158.397607

>  <fragmenstein_error>  (2611) 


>  <tags>  (2611) 
{'openbind_xx01zvns2b_c1_fragmenstein', 'fragmenstein_placed'}

>  <ref_pdb>  (2611) 
175

>  <scratch_subdir>  (2611) 
/opt/xchem-fragalysis-2/maxwin/BulkDock/SCRATCH/511028/C38398-P283

>  <alias>  (2611) 
O=C(Nc1ccc2c(c1)CN(CC(F)F)C2)c1cc(Cl)cc2c1CC1(CCCCC1)N2C1CNC1

>  <HIPPO Compound ID>  (2611) 
36865

>  <fragmenstein_runtime>  (2611) 
8.896567

$$$$
O=C(Nc1ccc2c(c1)CN(CC(F)F)C2)c1cc(Cl)cc2c1C[C@]13CCNC[C@H]1O[C@@H]1NCC[C@@H]1N23
     RDKit          3D

 37 43  0  0  0  0  0  0  0  0999 V2000
   -7.2866    6.6816  -13.4959 O   0  0  0  0  0  0  0  0  0  0  0  0
   -7.5175    5.5611  -13.7315 C   0  0  0  0  0  0  0  0  0  0  0  0
   -7.9633    4.4117  -12.7981 N   0  0  0  0  0  0  0  0  0  0  0  0
   -8.1206    4.3793  -11.4145 C   0  0  0  0  0  0  0  0  0  0  0  0
   -7.9830    5.5520  -10.6556 C   0  0  0  0  0  0  0  0  0  0  0  0
   -8.1453    5.5291   -9.2706 C   0  0  0  0  0  0  0  0  0  0  0  0
   -8.4504    4.3224   -8.6695 C   0  0  0  0  0  0  0  0  0  0  0  0
   -8.5858    3.1570   -9.4118 C   0  0  0  0  0  0  0  0  0  0  0  0
   -8.4249    3.1649  -10.7896 C   0  0  0  0  0  0  0  0  0  0  0  0
   -8.9123    2.0176   -8.4983 C   0  0  0  0  0  0  0  0  0  0  0  0
   -9.0152    2.6058   -7.1313 N   0  0  0  0  0  0  0  0  0  0  0  0
  -10.2935    2.2597   -6.4945 C   0  0  0  0  0  0  0  0  0  0  0  0
  -10.6100    2.8807   -5.1321 C   0  0  0  0  0  0  0  0  0  0  0  0
  -11.7877    2.3793   -4.6698 F   0  0  0  0  0  0  0  0  0  0  0  0
  -10.8156    4.2237   -5.2422 F   0  0  0  0  0  0  0  0  0  0  0  0
   -8.7259    4.0451   -7.2316 C   0  0  0  0  0  0  0  0  0  0  0  0
   -7.4182    5.1051  -15.1359 C   0  0  0  0  0  0  0  0  0  0  0  0
   -8.4993    4.4749  -15.7530 C   0  0  0  0  0  0  0  0  0  0  0  0
   -8.4312    4.1949  -17.1203 C   0  0  0  0  0  0  0  0  0  0  0  0
   -9.8128    3.5671  -17.9132 Cl  0  0  0  0  0  0  0  0  0  0  0  0
   -7.2817    4.4678  -17.8652 C   0  0  0  0  0  0  0  0  0  0  0  0
   -6.1966    5.0485  -17.2330 C   0  0  0  0  0  0  0  0  0  0  0  0
   -6.2911    5.4071  -15.8921 C   0  0  0  0  0  0  0  0  0  0  0  0
   -5.0770    6.1939  -15.4964 C   0  0  0  0  0  0  0  0  0  0  0  0
   -4.1100    5.9726  -16.7083 C   0  0  2  0  0  0  0  0  0  0  0  0
   -2.9561    5.0487  -16.2709 C   0  0  0  0  0  0  0  0  0  0  0  0
   -1.9936    5.7466  -15.3038 C   0  0  0  0  0  0  0  0  0  0  0  0
   -1.4487    6.9718  -15.8689 N   0  0  0  0  0  0  0  0  0  0  0  0
   -2.5029    7.9075  -16.2686 C   0  0  0  0  0  0  0  0  0  0  0  0
   -3.5028    7.2914  -17.2670 C   0  0  1  0  0  0  0  0  0  0  0  0
   -2.8240    7.1612  -18.5437 O   0  0  0  0  0  0  0  0  0  0  0  0
   -3.2750    6.1152  -19.4138 C   0  0  2  0  0  0  0  0  0  0  0  0
   -3.3557    6.6295  -20.7950 N   0  0  0  0  0  0  0  0  0  0  0  0
   -4.6618    7.3046  -20.8707 C   0  0  0  0  0  0  0  0  0  0  0  0
   -5.4917    6.8203  -19.6904 C   0  0  0  0  0  0  0  0  0  0  0  0
   -4.7130    5.6345  -19.1555 C   0  0  2  0  0  0  0  0  0  0  0  0
   -4.9463    5.3254  -17.7563 N   0  0  0  0  0  0  0  0  0  0  0  0
  1  2  2  0
  2  3  1  0
  3  4  1  0
  4  5  2  0
  5  6  1  0
  6  7  2  0
  7  8  1  0
  8  9  2  0
  8 10  1  0
 10 11  1  0
 11 12  1  0
 12 13  1  0
 13 14  1  0
 13 15  1  0
 11 16  1  0
  2 17  1  0
 17 18  2  0
 18 19  1  0
 19 20  1  0
 19 21  2  0
 21 22  1  0
 22 23  2  0
 23 24  1  0
 25 24  1  1
 25 26  1  0
 26 27  1  0
 27 28  1  0
 28 29  1  0
 30 29  1  1
 30 31  1  0
 31 32  1  0
 32 33  1  6
 33 34  1  0
 34 35  1  0
 36 35  1  1
 36 37  1  0
  9  4  1  0
 23 17  1  0
 30 25  1  0
 36 32  1  0
 16  7  1  0
 37 22  1  0
 37 25  1  0
M  END
>  <smiles>  (2612) 
C38380-P189

>  <fragmenstein_outcome>  (2612) 
acceptable

>  <inchikey>  (2612) 
YUHSCROXCVGKFI-UHFFFAOYSA-N

>  <fragmenstein_mode>  (2612) 
expansion

>  <HIPPO Pose ID>  (2612) 
28689

>  <Energy>  (2612) 
188.040092

>  <fragmenstein_error>  (2612) 


>  <tags>  (2612) 
{'openbind_xx01zvns2b_c1_fragmenstein', 'fragmenstein_placed'}

>  <ref_pdb>  (2612) 
175

>  <scratch_subdir>  (2612) 
/opt/xchem-fragalysis-2/maxwin/BulkDock/SCRATCH/511028/C38380-P189

>  <alias>  (2612) 
O=C(Nc1ccc2c(c1)CN(CC(F)F)C2)c1cc(Cl)cc2c1C[C@]13CCNC[C@H]1O[C@@H]1NCC[C@@H]1N23

>  <HIPPO Compound ID>  (2612) 
38380

>  <fragmenstein_runtime>  (2612) 
11.060508

$$$$
CCCN1CC(n2ncc3c(C(=O)Nc4ccc5c(c4)CN(CC(F)F)C5)cc(Cl)cc32)C1
     RDKit          3D

 33 37  0  0  0  0  0  0  0  0999 V2000
   -3.3839    8.3898  -23.6997 C   0  0  0  0  0  0  0  0  0  0  0  0
   -4.5542    7.4384  -23.4959 C   0  0  0  0  0  0  0  0  0  0  0  0
   -4.2100    6.2354  -22.6081 C   0  0  0  0  0  0  0  0  0  0  0  0
   -3.8021    6.6381  -21.2577 N   0  0  0  0  0  0  0  0  0  0  0  0
   -4.9842    6.8881  -20.3968 C   0  0  0  0  0  0  0  0  0  0  0  0
   -4.9214    5.4309  -19.9050 C   0  0  0  0  0  0  0  0  0  0  0  0
   -5.0943    5.3473  -18.4468 N   0  0  0  0  0  0  0  0  0  0  0  0
   -4.1319    5.6910  -17.5689 N   0  0  0  0  0  0  0  0  0  0  0  0
   -4.7447    5.6397  -16.3869 C   0  0  0  0  0  0  0  0  0  0  0  0
   -6.0910    5.2356  -16.4917 C   0  0  0  0  0  0  0  0  0  0  0  0
   -7.1526    5.0201  -15.5999 C   0  0  0  0  0  0  0  0  0  0  0  0
   -6.9433    5.3146  -14.1599 C   0  0  0  0  0  0  0  0  0  0  0  0
   -6.4735    6.3348  -13.8486 O   0  0  0  0  0  0  0  0  0  0  0  0
   -7.5022    4.1699  -13.2984 N   0  0  0  0  0  0  0  0  0  0  0  0
   -7.6823    4.0798  -11.9252 C   0  0  0  0  0  0  0  0  0  0  0  0
   -8.5144    3.0363  -11.4994 C   0  0  0  0  0  0  0  0  0  0  0  0
   -8.9922    2.9927  -10.2056 C   0  0  0  0  0  0  0  0  0  0  0  0
   -8.5791    3.9888   -9.3622 C   0  0  0  0  0  0  0  0  0  0  0  0
   -7.5732    4.8849   -9.6915 C   0  0  0  0  0  0  0  0  0  0  0  0
   -7.1576    4.9954  -11.0067 C   0  0  0  0  0  0  0  0  0  0  0  0
   -7.1684    5.5772   -8.4152 C   0  0  0  0  0  0  0  0  0  0  0  0
   -7.9440    4.8990   -7.2950 N   0  0  0  0  0  0  0  0  0  0  0  0
   -7.2200    3.7387   -6.7179 C   0  0  0  0  0  0  0  0  0  0  0  0
   -8.0467    2.5306   -6.1794 C   0  0  0  0  0  0  0  0  0  0  0  0
   -9.2305    2.9417   -5.6534 F   0  0  0  0  0  0  0  0  0  0  0  0
   -8.3480    1.6762   -7.1914 F   0  0  0  0  0  0  0  0  0  0  0  0
   -9.0887    4.3503   -8.0249 C   0  0  0  0  0  0  0  0  0  0  0  0
   -8.4012    4.6054  -16.1001 C   0  0  0  0  0  0  0  0  0  0  0  0
   -8.5707    4.4029  -17.4683 C   0  0  0  0  0  0  0  0  0  0  0  0
  -10.1170    3.9848  -18.0908 Cl  0  0  0  0  0  0  0  0  0  0  0  0
   -7.5256    4.6025  -18.3709 C   0  0  0  0  0  0  0  0  0  0  0  0
   -6.2945    5.0275  -17.8532 C   0  0  0  0  0  0  0  0  0  0  0  0
   -3.4708    5.4532  -20.4160 C   0  0  0  0  0  0  0  0  0  0  0  0
  1  2  1  0
  2  3  1  0
  3  4  1  0
  4  5  1  0
  5  6  1  0
  6  7  1  0
  7  8  1  0
  8  9  2  0
  9 10  1  0
 10 11  2  0
 11 12  1  0
 12 13  2  0
 12 14  1  0
 14 15  1  0
 15 16  2  0
 16 17  1  0
 17 18  2  0
 18 19  1  0
 19 20  2  0
 19 21  1  0
 21 22  1  0
 22 23  1  0
 23 24  1  0
 24 25  1  0
 24 26  1  0
 22 27  1  0
 11 28  1  0
 28 29  2  0
 29 30  1  0
 29 31  1  0
 31 32  2  0
  6 33  1  0
 33  4  1  0
 32  7  1  0
 32 10  1  0
 20 15  1  0
 27 18  1  0
M  END
>  <smiles>  (2613) 
C38399-P283

>  <fragmenstein_outcome>  (2613) 
acceptable

>  <inchikey>  (2613) 
AWWRKTPXANKXMD-UHFFFAOYSA-N

>  <fragmenstein_mode>  (2613) 
expansion

>  <HIPPO Pose ID>  (2613) 
28690

>  <Energy>  (2613) 
128.035834

>  <fragmenstein_error>  (2613) 


>  <tags>  (2613) 
{'openbind_xx01zvns2b_c1_fragmenstein', 'fragmenstein_placed'}

>  <ref_pdb>  (2613) 
175

>  <scratch_subdir>  (2613) 
/opt/xchem-fragalysis-2/maxwin/BulkDock/SCRATCH/511028/C38399-P283

>  <alias>  (2613) 
CCCN1CC(n2ncc3c(C(=O)Nc4ccc5c(c4)CN(CC(F)F)C5)cc(Cl)cc32)C1

>  <HIPPO Compound ID>  (2613) 
38399

>  <fragmenstein_runtime>  (2613) 
7.810694

$$$$
NC1(n2ncc3c([C@@H](N=O)Nc4ccc5c(c4)CN(CC(F)F)C5)cc(Cl)cc32)CNC1
     RDKit          3D

 32 36  0  0  0  0  0  0  0  0999 V2000
   -5.8619    4.5317  -20.8705 N   0  0  0  0  0  0  0  0  0  0  0  0
   -5.0896    5.3074  -19.8603 C   0  0  0  0  0  0  0  0  0  0  0  0
   -5.3778    5.1482  -18.4025 N   0  0  0  0  0  0  0  0  0  0  0  0
   -4.4115    5.3383  -17.4794 N   0  0  0  0  0  0  0  0  0  0  0  0
   -5.0395    5.2024  -16.3166 C   0  0  0  0  0  0  0  0  0  0  0  0
   -6.4141    4.9028  -16.4575 C   0  0  0  0  0  0  0  0  0  0  0  0
   -7.4861    4.6663  -15.5500 C   0  0  0  0  0  0  0  0  0  0  0  0
   -7.2846    4.6915  -14.0292 C   0  0  1  0  0  0  0  0  0  0  0  0
   -6.5843    5.9641  -13.5980 N   0  0  0  0  0  0  0  0  0  0  0  0
   -7.0844    6.9939  -14.0678 O   0  0  0  0  0  0  0  0  0  0  0  0
   -8.5389    4.4135  -13.2975 N   0  0  0  0  0  0  0  0  0  0  0  0
   -8.4427    4.4593  -11.8884 C   0  0  0  0  0  0  0  0  0  0  0  0
   -8.4125    5.7078  -11.2302 C   0  0  0  0  0  0  0  0  0  0  0  0
   -8.3292    5.8039   -9.8433 C   0  0  0  0  0  0  0  0  0  0  0  0
   -8.2819    4.6306   -9.1232 C   0  0  0  0  0  0  0  0  0  0  0  0
   -8.3000    3.3853   -9.7526 C   0  0  0  0  0  0  0  0  0  0  0  0
   -8.3746    3.2808  -11.1323 C   0  0  0  0  0  0  0  0  0  0  0  0
   -8.2697    2.3085   -8.7101 C   0  0  0  0  0  0  0  0  0  0  0  0
   -7.9134    3.0319   -7.4722 N   0  0  0  0  0  0  0  0  0  0  0  0
   -8.3883    2.4535   -6.2183 C   0  0  0  0  0  0  0  0  0  0  0  0
   -9.8633    2.0710   -6.1222 C   0  0  0  0  0  0  0  0  0  0  0  0
  -10.6061    2.8624   -6.9319 F   0  0  0  0  0  0  0  0  0  0  0  0
  -10.3289    2.3026   -4.8680 F   0  0  0  0  0  0  0  0  0  0  0  0
   -8.2569    4.4463   -7.6450 C   0  0  0  0  0  0  0  0  0  0  0  0
   -8.7453    4.3939  -16.1320 C   0  0  0  0  0  0  0  0  0  0  0  0
   -8.9249    4.3466  -17.5087 C   0  0  0  0  0  0  0  0  0  0  0  0
  -10.4897    4.0964  -18.1642 Cl  0  0  0  0  0  0  0  0  0  0  0  0
   -7.8691    4.5680  -18.3839 C   0  0  0  0  0  0  0  0  0  0  0  0
   -6.6130    4.8600  -17.8405 C   0  0  0  0  0  0  0  0  0  0  0  0
   -5.0115    6.7931  -20.2919 C   0  0  0  0  0  0  0  0  0  0  0  0
   -3.8599    6.4479  -21.1745 N   0  0  0  0  0  0  0  0  0  0  0  0
   -3.5881    5.2941  -20.2584 C   0  0  0  0  0  0  0  0  0  0  0  0
  1  2  1  0
  2  3  1  0
  3  4  1  0
  4  5  2  0
  5  6  1  0
  6  7  2  0
  7  8  1  0
  8  9  1  0
  9 10  2  0
  8 11  1  1
 11 12  1  0
 12 13  2  0
 13 14  1  0
 14 15  2  0
 15 16  1  0
 16 17  2  0
 16 18  1  0
 18 19  1  0
 19 20  1  0
 20 21  1  0
 21 22  1  0
 21 23  1  0
 19 24  1  0
  7 25  1  0
 25 26  2  0
 26 27  1  0
 26 28  1  0
 28 29  2  0
  2 30  1  0
 30 31  1  0
 31 32  1  0
 32  2  1  0
 29  3  1  0
 29  6  1  0
 17 12  1  0
 24 15  1  0
M  END
>  <smiles>  (2614) 
C38407-P283

>  <fragmenstein_outcome>  (2614) 
acceptable

>  <inchikey>  (2614) 
SDVYTJNJBQTGSB-UHFFFAOYSA-N

>  <fragmenstein_mode>  (2614) 
expansion

>  <HIPPO Pose ID>  (2614) 
28696

>  <Energy>  (2614) 
189.69399

>  <fragmenstein_error>  (2614) 


>  <tags>  (2614) 
{'openbind_xx01zvns2b_c1_fragmenstein', 'fragmenstein_placed'}

>  <ref_pdb>  (2614) 
175

>  <scratch_subdir>  (2614) 
/opt/xchem-fragalysis-2/maxwin/BulkDock/SCRATCH/511028/C38407-P283

>  <alias>  (2614) 
NC1(n2ncc3c([C@@H](N=O)Nc4ccc5c(c4)CN(CC(F)F)C5)cc(Cl)cc32)CNC1

>  <HIPPO Compound ID>  (2614) 
38407

>  <fragmenstein_runtime>  (2614) 
7.698741

$$$$
CC(=O)N[C@H]1CN(N)[C@H](c2cc(Cl)cc(C(=O)Nc3ccc4c(c3)CNC4)c2)CC12CCNCC2
     RDKit          3D

 35 39  0  0  0  0  0  0  0  0999 V2000
   -0.3347    7.1054  -22.9223 C   0  0  0  0  0  0  0  0  0  0  0  0
   -1.6715    6.4068  -22.8083 C   0  0  0  0  0  0  0  0  0  0  0  0
   -2.0584    5.6262  -23.5843 O   0  0  0  0  0  0  0  0  0  0  0  0
   -2.3409    6.9654  -21.5262 N   0  0  0  0  0  0  0  0  0  0  0  0
   -3.5909    6.6045  -20.8822 C   0  0  1  0  0  0  0  0  0  0  0  0
   -3.4371    5.2280  -20.1934 C   0  0  0  0  0  0  0  0  0  0  0  0
   -4.6893    4.7192  -19.6014 N   0  0  0  0  0  0  0  0  0  0  0  0
   -5.6231    4.4426  -20.6864 N   0  0  0  0  0  0  0  0  0  0  0  0
   -5.2211    5.7035  -18.6215 C   0  0  2  0  0  0  0  0  0  0  0  0
   -6.4019    5.2392  -17.7639 C   0  0  0  0  0  0  0  0  0  0  0  0
   -7.6067    4.7647  -18.2987 C   0  0  0  0  0  0  0  0  0  0  0  0
   -8.6759    4.3979  -17.4801 C   0  0  0  0  0  0  0  0  0  0  0  0
  -10.1613    3.9367  -18.2024 Cl  0  0  0  0  0  0  0  0  0  0  0  0
   -8.5930    4.5254  -16.1013 C   0  0  0  0  0  0  0  0  0  0  0  0
   -7.4264    5.0481  -15.5473 C   0  0  0  0  0  0  0  0  0  0  0  0
   -7.4070    5.4540  -14.1180 C   0  0  0  0  0  0  0  0  0  0  0  0
   -7.0805    6.5470  -13.8659 O   0  0  0  0  0  0  0  0  0  0  0  0
   -7.9347    4.3290  -13.1993 N   0  0  0  0  0  0  0  0  0  0  0  0
   -8.0764    4.2837  -11.8143 C   0  0  0  0  0  0  0  0  0  0  0  0
   -8.3105    3.0432  -11.2007 C   0  0  0  0  0  0  0  0  0  0  0  0
   -8.4429    2.9414   -9.8126 C   0  0  0  0  0  0  0  0  0  0  0  0
   -8.3604    4.0989   -9.0629 C   0  0  0  0  0  0  0  0  0  0  0  0
   -8.1485    5.3317   -9.6687 C   0  0  0  0  0  0  0  0  0  0  0  0
   -7.9949    5.4435  -11.0420 C   0  0  0  0  0  0  0  0  0  0  0  0
   -8.0703    6.3889   -8.6230 C   0  0  0  0  0  0  0  0  0  0  0  0
   -8.4864    5.7410   -7.3489 N   0  0  0  0  0  0  0  0  0  0  0  0
   -8.4103    4.2704   -7.5842 C   0  0  0  0  0  0  0  0  0  0  0  0
   -6.3376    5.3893  -16.3655 C   0  0  0  0  0  0  0  0  0  0  0  0
   -5.4578    7.0943  -19.2538 C   0  0  0  0  0  0  0  0  0  0  0  0
   -4.1742    7.6899  -19.9261 C   0  0  0  0  0  0  0  0  0  0  0  0
   -3.1717    8.1110  -18.8068 C   0  0  0  0  0  0  0  0  0  0  0  0
   -2.5665    9.4968  -19.0302 C   0  0  0  0  0  0  0  0  0  0  0  0
   -3.5703   10.5502  -19.1360 N   0  0  0  0  0  0  0  0  0  0  0  0
   -4.7697   10.1708  -19.8787 C   0  0  0  0  0  0  0  0  0  0  0  0
   -4.5739    8.9394  -20.7592 C   0  0  0  0  0  0  0  0  0  0  0  0
  1  2  1  0
  2  3  2  0
  2  4  1  0
  5  4  1  1
  5  6  1  0
  6  7  1  0
  7  8  1  0
  7  9  1  0
  9 10  1  6
 10 11  2  0
 11 12  1  0
 12 13  1  0
 12 14  2  0
 14 15  1  0
 15 16  1  0
 16 17  2  0
 16 18  1  0
 18 19  1  0
 19 20  2  0
 20 21  1  0
 21 22  2  0
 22 23  1  0
 23 24  2  0
 23 25  1  0
 25 26  1  0
 26 27  1  0
 15 28  2  0
  9 29  1  0
 29 30  1  0
 30 31  1  0
 31 32  1  0
 32 33  1  0
 33 34  1  0
 34 35  1  0
 30  5  1  0
 28 10  1  0
 35 30  1  0
 24 19  1  0
 27 22  1  0
M  END
>  <smiles>  (2615) 
C38427-P283

>  <fragmenstein_outcome>  (2615) 
acceptable

>  <inchikey>  (2615) 
YNMNUOATOZYDPM-UHFFFAOYSA-N

>  <fragmenstein_mode>  (2615) 
expansion

>  <HIPPO Pose ID>  (2615) 
28704

>  <Energy>  (2615) 
134.608003

>  <fragmenstein_error>  (2615) 


>  <tags>  (2615) 
{'openbind_xx01zvns2b_c1_fragmenstein', 'fragmenstein_placed'}

>  <ref_pdb>  (2615) 
175

>  <scratch_subdir>  (2615) 
/opt/xchem-fragalysis-2/maxwin/BulkDock/SCRATCH/511028/C38427-P283

>  <alias>  (2615) 
CC(=O)N[C@H]1CN(N)[C@H](c2cc(Cl)cc(C(=O)Nc3ccc4c(c3)CNC4)c2)CC12CCNCC2

>  <HIPPO Compound ID>  (2615) 
38427

>  <fragmenstein_runtime>  (2615) 
4.996243

$$$$
O=C(Nc1ccc2c(c1)CNC2)c1cc(Cl)c2n[nH]c([C@H](OCc3ccccc3)C3CCNCC3)c2c1
     RDKit          3D

 37 42  0  0  0  0  0  0  0  0999 V2000
   -7.7745    6.8102  -13.6733 O   0  0  0  0  0  0  0  0  0  0  0  0
   -7.9211    5.6785  -13.9243 C   0  0  0  0  0  0  0  0  0  0  0  0
   -8.2424    4.4796  -13.0002 N   0  0  0  0  0  0  0  0  0  0  0  0
   -8.3525    4.4104  -11.6116 C   0  0  0  0  0  0  0  0  0  0  0  0
   -8.1840    5.5591  -10.8204 C   0  0  0  0  0  0  0  0  0  0  0  0
   -8.2777    5.4937   -9.4271 C   0  0  0  0  0  0  0  0  0  0  0  0
   -8.5512    4.2698   -8.8490 C   0  0  0  0  0  0  0  0  0  0  0  0
   -8.7167    3.1273   -9.6260 C   0  0  0  0  0  0  0  0  0  0  0  0
   -8.6147    3.1764  -11.0084 C   0  0  0  0  0  0  0  0  0  0  0  0
   -8.9828    1.9683   -8.7203 C   0  0  0  0  0  0  0  0  0  0  0  0
   -9.3437    2.5747   -7.4105 N   0  0  0  0  0  0  0  0  0  0  0  0
   -8.7087    3.9085   -7.4104 C   0  0  0  0  0  0  0  0  0  0  0  0
   -7.7709    5.2564  -15.3369 C   0  0  0  0  0  0  0  0  0  0  0  0
   -8.8817    4.7046  -16.0117 C   0  0  0  0  0  0  0  0  0  0  0  0
   -8.8336    4.4044  -17.3760 C   0  0  0  0  0  0  0  0  0  0  0  0
  -10.1890    3.9477  -18.2699 Cl  0  0  0  0  0  0  0  0  0  0  0  0
   -7.6002    4.5851  -18.0308 C   0  0  0  0  0  0  0  0  0  0  0  0
   -7.2029    4.3160  -19.2789 N   0  0  0  0  0  0  0  0  0  0  0  0
   -5.9320    4.7203  -19.3440 N   0  0  0  0  0  0  0  0  0  0  0  0
   -5.3988    5.1882  -18.1582 C   0  0  0  0  0  0  0  0  0  0  0  0
   -3.9492    5.5922  -18.1319 C   0  0  2  0  0  0  0  0  0  0  0  0
   -3.3037    4.7137  -19.0763 O   0  0  0  0  0  0  0  0  0  0  0  0
   -2.0275    5.1519  -19.5388 C   0  0  0  0  0  0  0  0  0  0  0  0
   -2.0367    5.7714  -20.9171 C   0  0  0  0  0  0  0  0  0  0  0  0
   -0.8672    5.7010  -21.6936 C   0  0  0  0  0  0  0  0  0  0  0  0
   -0.8074    6.2925  -22.9567 C   0  0  0  0  0  0  0  0  0  0  0  0
   -1.9114    6.9764  -23.4570 C   0  0  0  0  0  0  0  0  0  0  0  0
   -3.0707    7.0727  -22.6918 C   0  0  0  0  0  0  0  0  0  0  0  0
   -3.1309    6.4804  -21.4273 C   0  0  0  0  0  0  0  0  0  0  0  0
   -3.1983    5.5789  -16.7724 C   0  0  0  0  0  0  0  0  0  0  0  0
   -3.3261    6.9329  -16.0455 C   0  0  0  0  0  0  0  0  0  0  0  0
   -2.7266    6.9090  -14.6427 C   0  0  0  0  0  0  0  0  0  0  0  0
   -3.2087    5.7642  -13.8798 N   0  0  0  0  0  0  0  0  0  0  0  0
   -2.7916    4.5114  -14.5023 C   0  0  0  0  0  0  0  0  0  0  0  0
   -3.4323    4.3525  -15.8778 C   0  0  0  0  0  0  0  0  0  0  0  0
   -6.4793    5.1477  -17.2970 C   0  0  0  0  0  0  0  0  0  0  0  0
   -6.5316    5.5348  -15.9532 C   0  0  0  0  0  0  0  0  0  0  0  0
  1  2  2  0
  2  3  1  0
  3  4  1  0
  4  5  2  0
  5  6  1  0
  6  7  2  0
  7  8  1  0
  8  9  2  0
  8 10  1  0
 10 11  1  0
 11 12  1  0
  2 13  1  0
 13 14  1  0
 14 15  2  0
 15 16  1  0
 15 17  1  0
 17 18  2  0
 18 19  1  0
 19 20  1  0
 20 21  1  0
 21 22  1  6
 22 23  1  0
 23 24  1  0
 24 25  2  0
 25 26  1  0
 26 27  2  0
 27 28  1  0
 28 29  2  0
 21 30  1  0
 30 31  1  0
 31 32  1  0
 32 33  1  0
 33 34  1  0
 34 35  1  0
 20 36  2  0
 36 37  1  0
  9  4  1  0
 37 13  2  0
 12  7  1  0
 36 17  1  0
 29 24  1  0
 35 30  1  0
M  END
>  <smiles>  (2616) 
C38453-P284

>  <fragmenstein_outcome>  (2616) 
acceptable

>  <inchikey>  (2616) 
YJQGEWTYBXUVIE-UHFFFAOYSA-N

>  <fragmenstein_mode>  (2616) 
expansion

>  <HIPPO Pose ID>  (2616) 
28722

>  <Energy>  (2616) 
98.289677

>  <fragmenstein_error>  (2616) 


>  <tags>  (2616) 
{'openbind_xx01zvns2b_c1_fragmenstein', 'fragmenstein_placed'}

>  <ref_pdb>  (2616) 
175

>  <scratch_subdir>  (2616) 
/opt/xchem-fragalysis-2/maxwin/BulkDock/SCRATCH/511028/C38453-P284

>  <alias>  (2616) 
O=C(Nc1ccc2c(c1)CNC2)c1cc(Cl)c2n[nH]c([C@H](OCc3ccccc3)C3CCNCC3)c2c1

>  <HIPPO Compound ID>  (2616) 
38453

>  <fragmenstein_runtime>  (2616) 
5.131915

$$$$
O=C(Nc1ccc2c(c1)CNC2)c1cc(Cl)c2n[nH]c(C[C@@]34CCNCCN3CNC4)c2c1
     RDKit          3D

 33 38  0  0  0  0  0  0  0  0999 V2000
   -7.2666    6.6998  -13.7543 O   0  0  0  0  0  0  0  0  0  0  0  0
   -7.6338    5.6252  -14.0284 C   0  0  0  0  0  0  0  0  0  0  0  0
   -8.1643    4.4861  -13.1259 N   0  0  0  0  0  0  0  0  0  0  0  0
   -8.2608    4.4013  -11.7395 C   0  0  0  0  0  0  0  0  0  0  0  0
   -8.5291    3.1517  -11.1568 C   0  0  0  0  0  0  0  0  0  0  0  0
   -8.5408    2.9939   -9.7677 C   0  0  0  0  0  0  0  0  0  0  0  0
   -8.3070    4.1080   -8.9860 C   0  0  0  0  0  0  0  0  0  0  0  0
   -8.0780    5.3533   -9.5609 C   0  0  0  0  0  0  0  0  0  0  0  0
   -8.0455    5.5198  -10.9348 C   0  0  0  0  0  0  0  0  0  0  0  0
   -7.8232    6.3513   -8.4865 C   0  0  0  0  0  0  0  0  0  0  0  0
   -8.2141    5.6843   -7.2166 N   0  0  0  0  0  0  0  0  0  0  0  0
   -8.1878    4.2196   -7.5054 C   0  0  0  0  0  0  0  0  0  0  0  0
   -7.5722    5.2048  -15.4505 C   0  0  0  0  0  0  0  0  0  0  0  0
   -8.7513    4.6985  -16.0643 C   0  0  0  0  0  0  0  0  0  0  0  0
   -8.7919    4.3724  -17.4259 C   0  0  0  0  0  0  0  0  0  0  0  0
  -10.2054    3.9513  -18.2435 Cl  0  0  0  0  0  0  0  0  0  0  0  0
   -7.5938    4.5218  -18.1485 C   0  0  0  0  0  0  0  0  0  0  0  0
   -7.2511    4.2332  -19.4148 N   0  0  0  0  0  0  0  0  0  0  0  0
   -6.0203    4.7488  -19.5742 N   0  0  0  0  0  0  0  0  0  0  0  0
   -5.4469    5.2082  -18.4138 C   0  0  0  0  0  0  0  0  0  0  0  0
   -4.0492    5.7312  -18.3651 C   0  0  0  0  0  0  0  0  0  0  0  0
   -3.7875    7.1037  -19.0734 C   0  0  1  0  0  0  0  0  0  0  0  0
   -2.3032    7.4594  -18.7650 C   0  0  0  0  0  0  0  0  0  0  0  0
   -1.7221    8.7324  -19.3771 C   0  0  0  0  0  0  0  0  0  0  0  0
   -1.2559    8.5582  -20.7476 N   0  0  0  0  0  0  0  0  0  0  0  0
   -2.3342    8.3374  -21.7083 C   0  0  0  0  0  0  0  0  0  0  0  0
   -3.1053    7.0194  -21.5047 C   0  0  0  0  0  0  0  0  0  0  0  0
   -4.1584    6.9899  -20.4978 N   0  0  0  0  0  0  0  0  0  0  0  0
   -5.2548    7.9092  -20.7468 C   0  0  0  0  0  0  0  0  0  0  0  0
   -5.1528    8.9573  -19.7396 N   0  0  0  0  0  0  0  0  0  0  0  0
   -4.7396    8.2047  -18.5437 C   0  0  0  0  0  0  0  0  0  0  0  0
   -6.4367    5.0647  -17.4743 C   0  0  0  0  0  0  0  0  0  0  0  0
   -6.3541    5.4349  -16.1338 C   0  0  0  0  0  0  0  0  0  0  0  0
  1  2  2  0
  2  3  1  0
  3  4  1  0
  4  5  2  0
  5  6  1  0
  6  7  2  0
  7  8  1  0
  8  9  2  0
  8 10  1  0
 10 11  1  0
 11 12  1  0
  2 13  1  0
 13 14  1  0
 14 15  2  0
 15 16  1  0
 15 17  1  0
 17 18  2  0
 18 19  1  0
 19 20  1  0
 20 21  1  0
 22 21  1  1
 22 23  1  0
 23 24  1  0
 24 25  1  0
 25 26  1  0
 26 27  1  0
 27 28  1  0
 28 29  1  0
 29 30  1  0
 30 31  1  0
 20 32  2  0
 32 33  1  0
  9  4  1  0
 33 13  2  0
 12  7  1  0
 32 17  1  0
 28 22  1  0
 31 22  1  0
M  END
>  <smiles>  (2617) 
C38465-P284

>  <fragmenstein_outcome>  (2617) 
acceptable

>  <inchikey>  (2617) 
BNGXTSIWUMVCAB-UHFFFAOYSA-N

>  <fragmenstein_mode>  (2617) 
expansion

>  <HIPPO Pose ID>  (2617) 
28738

>  <Energy>  (2617) 
107.804707

>  <fragmenstein_error>  (2617) 


>  <tags>  (2617) 
{'openbind_xx01zvns2b_c1_fragmenstein', 'fragmenstein_placed'}

>  <ref_pdb>  (2617) 
175

>  <scratch_subdir>  (2617) 
/opt/xchem-fragalysis-2/maxwin/BulkDock/SCRATCH/511028/C38465-P284

>  <alias>  (2617) 
O=C(Nc1ccc2c(c1)CNC2)c1cc(Cl)c2n[nH]c(C[C@@]34CCNCCN3CNC4)c2c1

>  <HIPPO Compound ID>  (2617) 
30804

>  <fragmenstein_runtime>  (2617) 
2.763339

$$$$
CN[C@@H]1CNCC[C@H]1Cc1[nH]nc2c(Cl)cc(C(=O)Nc3ccc4c(c3)CNC4)c(OCCCO)c12
     RDKit          3D

 36 40  0  0  0  0  0  0  0  0999 V2000
   -5.5586   10.4186  -19.9445 C   0  0  0  0  0  0  0  0  0  0  0  0
   -6.1281    9.6504  -18.8489 N   0  0  0  0  0  0  0  0  0  0  0  0
   -5.2662    8.5533  -18.3058 C   0  0  2  0  0  0  0  0  0  0  0  0
   -4.2579    9.0741  -17.2400 C   0  0  0  0  0  0  0  0  0  0  0  0
   -3.0549    9.6805  -17.8208 N   0  0  0  0  0  0  0  0  0  0  0  0
   -2.3377    8.7159  -18.6493 C   0  0  0  0  0  0  0  0  0  0  0  0
   -3.2053    8.2119  -19.8018 C   0  0  0  0  0  0  0  0  0  0  0  0
   -4.5520    7.6171  -19.3310 C   0  0  1  0  0  0  0  0  0  0  0  0
   -4.2902    6.1951  -18.7455 C   0  0  0  0  0  0  0  0  0  0  0  0
   -5.5392    5.3921  -18.6180 C   0  0  0  0  0  0  0  0  0  0  0  0
   -6.1336    4.8302  -19.7221 N   0  0  0  0  0  0  0  0  0  0  0  0
   -7.2868    4.1957  -19.4674 N   0  0  0  0  0  0  0  0  0  0  0  0
   -7.5711    4.4958  -18.1909 C   0  0  0  0  0  0  0  0  0  0  0  0
   -8.7317    4.3146  -17.4169 C   0  0  0  0  0  0  0  0  0  0  0  0
  -10.1680    3.8844  -18.1941 Cl  0  0  0  0  0  0  0  0  0  0  0  0
   -8.6585    4.6678  -16.0642 C   0  0  0  0  0  0  0  0  0  0  0  0
   -7.4731    5.2107  -15.4916 C   0  0  0  0  0  0  0  0  0  0  0  0
   -7.5642    5.6962  -14.0875 C   0  0  0  0  0  0  0  0  0  0  0  0
   -7.2813    6.8076  -13.8644 O   0  0  0  0  0  0  0  0  0  0  0  0
   -8.0501    4.5735  -13.1367 N   0  0  0  0  0  0  0  0  0  0  0  0
   -8.1921    4.5601  -11.7496 C   0  0  0  0  0  0  0  0  0  0  0  0
   -8.0867    5.7474  -11.0056 C   0  0  0  0  0  0  0  0  0  0  0  0
   -8.2223    5.7373   -9.6136 C   0  0  0  0  0  0  0  0  0  0  0  0
   -8.4674    4.5283   -8.9909 C   0  0  0  0  0  0  0  0  0  0  0  0
   -8.5743    3.3499   -9.7238 C   0  0  0  0  0  0  0  0  0  0  0  0
   -8.4401    3.3450  -11.1038 C   0  0  0  0  0  0  0  0  0  0  0  0
   -8.8262    2.2145   -8.7842 C   0  0  0  0  0  0  0  0  0  0  0  0
   -9.2234    2.8572   -7.4995 N   0  0  0  0  0  0  0  0  0  0  0  0
   -8.6427    4.2173   -7.5427 C   0  0  0  0  0  0  0  0  0  0  0  0
   -6.2833    5.4439  -16.2305 C   0  0  0  0  0  0  0  0  0  0  0  0
   -5.1626    6.0195  -15.7070 O   0  0  0  0  0  0  0  0  0  0  0  0
   -4.4139    5.0691  -14.9431 C   0  0  0  0  0  0  0  0  0  0  0  0
   -3.2216    5.7791  -14.3164 C   0  0  0  0  0  0  0  0  0  0  0  0
   -3.6446    6.9255  -13.4066 C   0  0  0  0  0  0  0  0  0  0  0  0
   -2.4834    7.4903  -12.8036 O   0  0  0  0  0  0  0  0  0  0  0  0
   -6.4024    5.0969  -17.5855 C   0  0  0  0  0  0  0  0  0  0  0  0
  1  2  1  0
  3  2  1  6
  3  4  1  0
  4  5  1  0
  5  6  1  0
  6  7  1  0
  7  8  1  0
  8  9  1  1
  9 10  1  0
 10 11  1  0
 11 12  1  0
 12 13  2  0
 13 14  1  0
 14 15  1  0
 14 16  2  0
 16 17  1  0
 17 18  1  0
 18 19  2  0
 18 20  1  0
 20 21  1  0
 21 22  2  0
 22 23  1  0
 23 24  2  0
 24 25  1  0
 25 26  2  0
 25 27  1  0
 27 28  1  0
 28 29  1  0
 17 30  2  0
 30 31  1  0
 31 32  1  0
 32 33  1  0
 33 34  1  0
 34 35  1  0
 30 36  1  0
  8  3  1  0
 36 10  2  0
 36 13  1  0
 26 21  1  0
 29 24  1  0
M  END
>  <smiles>  (2618) 
C38467-P284

>  <fragmenstein_outcome>  (2618) 
acceptable

>  <inchikey>  (2618) 
PFIJFDQRCOSGSG-UHFFFAOYSA-N

>  <fragmenstein_mode>  (2618) 
expansion

>  <HIPPO Pose ID>  (2618) 
28741

>  <Energy>  (2618) 
122.319829

>  <fragmenstein_error>  (2618) 


>  <tags>  (2618) 
{'openbind_xx01zvns2b_c1_fragmenstein', 'fragmenstein_placed'}

>  <ref_pdb>  (2618) 
175

>  <scratch_subdir>  (2618) 
/opt/xchem-fragalysis-2/maxwin/BulkDock/SCRATCH/511028/C38467-P284

>  <alias>  (2618) 
CN[C@@H]1CNCC[C@H]1Cc1[nH]nc2c(Cl)cc(C(=O)Nc3ccc4c(c3)CNC4)c(OCCCO)c12

>  <HIPPO Compound ID>  (2618) 
38467

>  <fragmenstein_runtime>  (2618) 
5.340237

$$$$
C[C@@H](C=O)C[C@@H](C(=O)Nc1ccc2c(c1)CNC2)[C@@H]1N[C@@H](C2CCCCC2)O1
     RDKit          3D

 28 31  0  0  0  0  0  0  0  0999 V2000
  -10.2814    4.6102  -17.7167 C   0  0  0  0  0  0  0  0  0  0  0  0
   -8.9903    3.8776  -17.4164 C   0  0  1  0  0  0  0  0  0  0  0  0
   -8.1561    3.8028  -18.6734 C   0  0  0  0  0  0  0  0  0  0  0  0
   -8.6165    3.6551  -19.8009 O   0  0  0  0  0  0  0  0  0  0  0  0
   -8.2802    4.1354  -16.0418 C   0  0  0  0  0  0  0  0  0  0  0  0
   -7.8556    5.5084  -15.5151 C   0  0  1  0  0  0  0  0  0  0  0  0
   -7.9092    5.8565  -13.9840 C   0  0  0  0  0  0  0  0  0  0  0  0
   -7.8658    6.9967  -13.7138 O   0  0  0  0  0  0  0  0  0  0  0  0
   -8.0043    4.6066  -13.0647 N   0  0  0  0  0  0  0  0  0  0  0  0
   -8.1567    4.5085  -11.6738 C   0  0  0  0  0  0  0  0  0  0  0  0
   -8.1062    5.6777  -10.8896 C   0  0  0  0  0  0  0  0  0  0  0  0
   -8.2552    5.6364   -9.4983 C   0  0  0  0  0  0  0  0  0  0  0  0
   -8.4908    4.4144   -8.9036 C   0  0  0  0  0  0  0  0  0  0  0  0
   -8.5657    3.2541   -9.6689 C   0  0  0  0  0  0  0  0  0  0  0  0
   -8.3751    3.2760  -11.0507 C   0  0  0  0  0  0  0  0  0  0  0  0
   -8.8709    2.1054   -8.7582 C   0  0  0  0  0  0  0  0  0  0  0  0
   -9.2739    2.7179   -7.4615 N   0  0  0  0  0  0  0  0  0  0  0  0
   -8.6922    4.0741   -7.4649 C   0  0  0  0  0  0  0  0  0  0  0  0
   -6.5323    6.0850  -16.0588 C   0  0  2  0  0  0  0  0  0  0  0  0
   -6.3757    6.1287  -17.4998 N   0  0  0  0  0  0  0  0  0  0  0  0
   -5.2714    5.1932  -17.4208 C   0  0  1  0  0  0  0  0  0  0  0  0
   -3.9545    5.6645  -18.0316 C   0  0  0  0  0  0  0  0  0  0  0  0
   -3.7399    4.8553  -19.3340 C   0  0  0  0  0  0  0  0  0  0  0  0
   -2.8645    5.5753  -20.3416 C   0  0  0  0  0  0  0  0  0  0  0  0
   -3.5145    6.8775  -20.7964 C   0  0  0  0  0  0  0  0  0  0  0  0
   -4.3501    7.5469  -19.7019 C   0  0  0  0  0  0  0  0  0  0  0  0
   -3.8617    7.1801  -18.2963 C   0  0  0  0  0  0  0  0  0  0  0  0
   -5.3716    5.2495  -15.9920 O   0  0  0  0  0  0  0  0  0  0  0  0
  2  1  1  6
  2  3  1  0
  3  4  2  0
  2  5  1  0
  6  5  1  1
  6  7  1  0
  7  8  2  0
  7  9  1  0
  9 10  1  0
 10 11  2  0
 11 12  1  0
 12 13  2  0
 13 14  1  0
 14 15  2  0
 14 16  1  0
 16 17  1  0
 17 18  1  0
  6 19  1  0
 19 20  1  6
 20 21  1  0
 21 22  1  1
 22 23  1  0
 23 24  1  0
 24 25  1  0
 25 26  1  0
 26 27  1  0
 21 28  1  0
 15 10  1  0
 28 19  1  0
 18 13  1  0
 27 22  1  0
M  END
>  <smiles>  (2619) 
C38632-P285

>  <fragmenstein_outcome>  (2619) 
acceptable

>  <inchikey>  (2619) 
NBANKVZJDMCTAI-UHFFFAOYSA-N

>  <fragmenstein_mode>  (2619) 
expansion

>  <HIPPO Pose ID>  (2619) 
28817

>  <Energy>  (2619) 
71.120512

>  <fragmenstein_error>  (2619) 


>  <tags>  (2619) 
{'openbind_xx01zvns2b_c1_fragmenstein', 'fragmenstein_placed'}

>  <ref_pdb>  (2619) 
175

>  <scratch_subdir>  (2619) 
/opt/xchem-fragalysis-2/maxwin/BulkDock/SCRATCH/511028/C38632-P285

>  <alias>  (2619) 
C[C@@H](C=O)C[C@@H](C(=O)Nc1ccc2c(c1)CNC2)[C@@H]1N[C@@H](C2CCCCC2)O1

>  <HIPPO Compound ID>  (2619) 
38632

>  <fragmenstein_runtime>  (2619) 
8.860507

$$$$
Cn1c(-c2ccccc2)nc2c(C(=O)C(=O)c3ccc4c(c3)CNC4)cc(C=O)cc21
     RDKit          3D

 31 35  0  0  0  0  0  0  0  0999 V2000
   -4.9911    5.6272  -19.6410 C   0  0  0  0  0  0  0  0  0  0  0  0
   -5.2591    5.3548  -18.2486 N   0  0  0  0  0  0  0  0  0  0  0  0
   -4.4012    5.4966  -17.1801 C   0  0  0  0  0  0  0  0  0  0  0  0
   -2.9609    5.7908  -17.2334 C   0  0  0  0  0  0  0  0  0  0  0  0
   -2.3539    6.3833  -16.1156 C   0  0  0  0  0  0  0  0  0  0  0  0
   -0.9896    6.6850  -16.1105 C   0  0  0  0  0  0  0  0  0  0  0  0
   -0.2088    6.4024  -17.2281 C   0  0  0  0  0  0  0  0  0  0  0  0
   -0.7864    5.7959  -18.3394 C   0  0  0  0  0  0  0  0  0  0  0  0
   -2.1468    5.4721  -18.3309 C   0  0  0  0  0  0  0  0  0  0  0  0
   -5.0866    5.3680  -16.0549 N   0  0  0  0  0  0  0  0  0  0  0  0
   -6.3737    5.0050  -16.3799 C   0  0  0  0  0  0  0  0  0  0  0  0
   -7.4990    4.6948  -15.5724 C   0  0  0  0  0  0  0  0  0  0  0  0
   -7.3731    4.7937  -14.0802 C   0  0  0  0  0  0  0  0  0  0  0  0
   -6.3044    5.0235  -13.5240 O   0  0  0  0  0  0  0  0  0  0  0  0
   -8.5885    4.7214  -13.1773 C   0  0  0  0  0  0  0  0  0  0  0  0
   -9.6990    4.9862  -13.6247 O   0  0  0  0  0  0  0  0  0  0  0  0
   -8.4123    4.5426  -11.7178 C   0  0  0  0  0  0  0  0  0  0  0  0
   -8.1146    5.6889  -10.9553 C   0  0  0  0  0  0  0  0  0  0  0  0
   -8.0835    5.6259   -9.5603 C   0  0  0  0  0  0  0  0  0  0  0  0
   -8.3629    4.4141   -8.9534 C   0  0  0  0  0  0  0  0  0  0  0  0
   -8.6463    3.2773   -9.7040 C   0  0  0  0  0  0  0  0  0  0  0  0
   -8.6740    3.3171  -11.0943 C   0  0  0  0  0  0  0  0  0  0  0  0
   -8.9008    2.1344   -8.7773 C   0  0  0  0  0  0  0  0  0  0  0  0
   -8.9174    2.7007   -7.4012 N   0  0  0  0  0  0  0  0  0  0  0  0
   -8.4321    4.0904   -7.5004 C   0  0  0  0  0  0  0  0  0  0  0  0
   -8.6986    4.3471  -16.2446 C   0  0  0  0  0  0  0  0  0  0  0  0
   -8.7800    4.3554  -17.6442 C   0  0  0  0  0  0  0  0  0  0  0  0
  -10.0480    4.1500  -18.3779 C   0  0  0  0  0  0  0  0  0  0  0  0
  -11.0470    3.6755  -17.8658 O   0  0  0  0  0  0  0  0  0  0  0  0
   -7.6687    4.6400  -18.4273 C   0  0  0  0  0  0  0  0  0  0  0  0
   -6.4909    4.9740  -17.7664 C   0  0  0  0  0  0  0  0  0  0  0  0
  1  2  1  0
  2  3  1  0
  3  4  1  0
  4  5  2  0
  5  6  1  0
  6  7  2  0
  7  8  1  0
  8  9  2  0
  3 10  2  0
 10 11  1  0
 11 12  2  0
 12 13  1  0
 13 14  2  0
 13 15  1  0
 15 16  2  0
 15 17  1  0
 17 18  2  0
 18 19  1  0
 19 20  2  0
 20 21  1  0
 21 22  2  0
 21 23  1  0
 23 24  1  0
 24 25  1  0
 12 26  1  0
 26 27  2  0
 27 28  1  0
 28 29  2  0
 27 30  1  0
 30 31  2  0
 31  2  1  0
  9  4  1  0
 31 11  1  0
 22 17  1  0
 25 20  1  0
M  END
>  <smiles>  (2620) 
C38668-P285

>  <fragmenstein_outcome>  (2620) 
acceptable

>  <inchikey>  (2620) 
NRIFVLWDBCDPOG-UHFFFAOYSA-N

>  <fragmenstein_mode>  (2620) 
expansion

>  <HIPPO Pose ID>  (2620) 
28831

>  <Energy>  (2620) 
147.711135

>  <fragmenstein_error>  (2620) 


>  <tags>  (2620) 
{'openbind_xx01zvns2b_c1_fragmenstein', 'fragmenstein_placed'}

>  <ref_pdb>  (2620) 
175

>  <scratch_subdir>  (2620) 
/opt/xchem-fragalysis-2/maxwin/BulkDock/SCRATCH/511028/C38668-P285

>  <alias>  (2620) 
Cn1c(-c2ccccc2)nc2c(C(=O)C(=O)c3ccc4c(c3)CNC4)cc(C=O)cc21

>  <HIPPO Compound ID>  (2620) 
38668

>  <fragmenstein_runtime>  (2620) 
16.694806

$$$$
CCC[C@@H]1CC[C@@H](n2cnc3c(C(=O)Nc4ccc5c(c4)CNC5)cc(C=O)cc32)O1
     RDKit          3D

 31 35  0  0  0  0  0  0  0  0999 V2000
   -2.9539    7.9016  -24.0068 C   0  0  0  0  0  0  0  0  0  0  0  0
   -2.5704    7.6065  -22.5645 C   0  0  0  0  0  0  0  0  0  0  0  0
   -3.7768    7.1433  -21.7502 C   0  0  0  0  0  0  0  0  0  0  0  0
   -3.5152    7.1221  -20.2401 C   0  0  2  0  0  0  0  0  0  0  0  0
   -2.4936    6.1099  -19.7527 C   0  0  0  0  0  0  0  0  0  0  0  0
   -3.3129    4.8605  -19.5651 C   0  0  0  0  0  0  0  0  0  0  0  0
   -4.6951    5.3868  -19.2056 C   0  0  1  0  0  0  0  0  0  0  0  0
   -5.0554    5.2914  -17.8008 N   0  0  0  0  0  0  0  0  0  0  0  0
   -4.2774    5.6183  -16.7282 C   0  0  0  0  0  0  0  0  0  0  0  0
   -4.9353    5.5086  -15.5959 N   0  0  0  0  0  0  0  0  0  0  0  0
   -6.2132    5.1166  -15.9337 C   0  0  0  0  0  0  0  0  0  0  0  0
   -7.3735    4.9064  -15.1517 C   0  0  0  0  0  0  0  0  0  0  0  0
   -7.3954    5.3335  -13.7306 C   0  0  0  0  0  0  0  0  0  0  0  0
   -7.0285    6.4136  -13.4767 O   0  0  0  0  0  0  0  0  0  0  0  0
   -7.9881    4.2329  -12.8146 N   0  0  0  0  0  0  0  0  0  0  0  0
   -8.1579    4.2008  -11.4281 C   0  0  0  0  0  0  0  0  0  0  0  0
   -7.9566    5.3528  -10.6508 C   0  0  0  0  0  0  0  0  0  0  0  0
   -8.1155    5.3213   -9.2605 C   0  0  0  0  0  0  0  0  0  0  0  0
   -8.4711    4.1245   -8.6666 C   0  0  0  0  0  0  0  0  0  0  0  0
   -8.6733    2.9823   -9.4294 C   0  0  0  0  0  0  0  0  0  0  0  0
   -8.5299    3.0025  -10.8108 C   0  0  0  0  0  0  0  0  0  0  0  0
   -9.0114    1.8419   -8.5296 C   0  0  0  0  0  0  0  0  0  0  0  0
   -9.1809    2.4184   -7.1706 N   0  0  0  0  0  0  0  0  0  0  0  0
   -8.6878    3.8101   -7.2265 C   0  0  0  0  0  0  0  0  0  0  0  0
   -8.5632    4.4935  -15.7778 C   0  0  0  0  0  0  0  0  0  0  0  0
   -8.5907    4.3472  -17.1663 C   0  0  0  0  0  0  0  0  0  0  0  0
   -9.8585    4.2026  -17.8927 C   0  0  0  0  0  0  0  0  0  0  0  0
  -10.8732    3.7920  -17.3599 O   0  0  0  0  0  0  0  0  0  0  0  0
   -7.4593    4.5332  -17.9583 C   0  0  0  0  0  0  0  0  0  0  0  0
   -6.2919    4.9328  -17.3148 C   0  0  0  0  0  0  0  0  0  0  0  0
   -4.7458    6.7769  -19.5836 O   0  0  0  0  0  0  0  0  0  0  0  0
  1  2  1  0
  2  3  1  0
  4  3  1  6
  4  5  1  0
  5  6  1  0
  6  7  1  0
  7  8  1  1
  8  9  1  0
  9 10  2  0
 10 11  1  0
 11 12  2  0
 12 13  1  0
 13 14  2  0
 13 15  1  0
 15 16  1  0
 16 17  2  0
 17 18  1  0
 18 19  2  0
 19 20  1  0
 20 21  2  0
 20 22  1  0
 22 23  1  0
 23 24  1  0
 12 25  1  0
 25 26  2  0
 26 27  1  0
 27 28  2  0
 26 29  1  0
 29 30  2  0
  7 31  1  0
 31  4  1  0
 30  8  1  0
 30 11  1  0
 21 16  1  0
 24 19  1  0
M  END
>  <smiles>  (2621) 
C38692-P327

>  <fragmenstein_outcome>  (2621) 
acceptable

>  <inchikey>  (2621) 
QZCGDTBVNGFSRW-UHFFFAOYSA-N

>  <fragmenstein_mode>  (2621) 
expansion

>  <HIPPO Pose ID>  (2621) 
28848

>  <Energy>  (2621) 
88.808073

>  <fragmenstein_error>  (2621) 


>  <tags>  (2621) 
{'openbind_xx01zvns2b_c1_fragmenstein', 'fragmenstein_placed'}

>  <ref_pdb>  (2621) 
175

>  <scratch_subdir>  (2621) 
/opt/xchem-fragalysis-2/maxwin/BulkDock/SCRATCH/511028/C38692-P327

>  <alias>  (2621) 
CCC[C@@H]1CC[C@@H](n2cnc3c(C(=O)Nc4ccc5c(c4)CNC5)cc(C=O)cc32)O1

>  <HIPPO Compound ID>  (2621) 
27153

>  <fragmenstein_runtime>  (2621) 
7.055202

$$$$
C[C@@H]1c2ccccc2-c2nc3c(C(=O)Nc4ccc5c(c4)CNC5)cc(C=O)cc3n21
     RDKit          3D

 31 36  0  0  0  0  0  0  0  0999 V2000
   -4.2101    4.7881  -20.1517 C   0  0  0  0  0  0  0  0  0  0  0  0
   -4.7661    6.0299  -19.5127 C   0  0  2  0  0  0  0  0  0  0  0  0
   -3.6262    6.9419  -19.1127 C   0  0  0  0  0  0  0  0  0  0  0  0
   -2.6980    7.5727  -19.9215 C   0  0  0  0  0  0  0  0  0  0  0  0
   -1.7042    8.3278  -19.2923 C   0  0  0  0  0  0  0  0  0  0  0  0
   -1.6523    8.4360  -17.8880 C   0  0  0  0  0  0  0  0  0  0  0  0
   -2.5941    7.7915  -17.0802 C   0  0  0  0  0  0  0  0  0  0  0  0
   -3.5676    7.0492  -17.7045 C   0  0  0  0  0  0  0  0  0  0  0  0
   -4.6717    6.3011  -17.1762 C   0  0  0  0  0  0  0  0  0  0  0  0
   -5.2677    6.0785  -16.0351 N   0  0  0  0  0  0  0  0  0  0  0  0
   -6.4571    5.4290  -16.3821 C   0  0  0  0  0  0  0  0  0  0  0  0
   -7.5812    5.0565  -15.6068 C   0  0  0  0  0  0  0  0  0  0  0  0
   -7.6609    5.5163  -14.1961 C   0  0  0  0  0  0  0  0  0  0  0  0
   -7.4618    6.6505  -13.9945 O   0  0  0  0  0  0  0  0  0  0  0  0
   -7.9558    4.3574  -13.2097 N   0  0  0  0  0  0  0  0  0  0  0  0
   -8.1541    4.3713  -11.8237 C   0  0  0  0  0  0  0  0  0  0  0  0
   -8.0560    5.5737  -11.1026 C   0  0  0  0  0  0  0  0  0  0  0  0
   -8.1831    5.5963   -9.7080 C   0  0  0  0  0  0  0  0  0  0  0  0
   -8.4196    4.4045   -9.0483 C   0  0  0  0  0  0  0  0  0  0  0  0
   -8.5510    3.2168   -9.7537 C   0  0  0  0  0  0  0  0  0  0  0  0
   -8.4129    3.1787  -11.1397 C   0  0  0  0  0  0  0  0  0  0  0  0
   -8.8376    2.1073   -8.7949 C   0  0  0  0  0  0  0  0  0  0  0  0
   -8.8829    2.7122   -7.4358 N   0  0  0  0  0  0  0  0  0  0  0  0
   -8.5639    4.1453   -7.5873 C   0  0  0  0  0  0  0  0  0  0  0  0
   -8.7043    4.4979  -16.2526 C   0  0  0  0  0  0  0  0  0  0  0  0
   -8.7088    4.3421  -17.6476 C   0  0  0  0  0  0  0  0  0  0  0  0
   -9.9363    4.0132  -18.3996 C   0  0  0  0  0  0  0  0  0  0  0  0
  -10.9745    3.6795  -17.8568 O   0  0  0  0  0  0  0  0  0  0  0  0
   -7.5891    4.6374  -18.4255 C   0  0  0  0  0  0  0  0  0  0  0  0
   -6.5053    5.2012  -17.7658 C   0  0  0  0  0  0  0  0  0  0  0  0
   -5.3507    5.7330  -18.2138 N   0  0  0  0  0  0  0  0  0  0  0  0
  2  1  1  1
  2  3  1  0
  3  4  2  0
  4  5  1  0
  5  6  2  0
  6  7  1  0
  7  8  2  0
  8  9  1  0
  9 10  2  0
 10 11  1  0
 11 12  2  0
 12 13  1  0
 13 14  2  0
 13 15  1  0
 15 16  1  0
 16 17  2  0
 17 18  1  0
 18 19  2  0
 19 20  1  0
 20 21  2  0
 20 22  1  0
 22 23  1  0
 23 24  1  0
 12 25  1  0
 25 26  2  0
 26 27  1  0
 27 28  2  0
 26 29  1  0
 29 30  2  0
 30 31  1  0
 31  2  1  0
  8  3  1  0
 31  9  1  0
 30 11  1  0
 21 16  1  0
 24 19  1  0
M  END
>  <smiles>  (2622) 
C38696-P285

>  <fragmenstein_outcome>  (2622) 
acceptable

>  <inchikey>  (2622) 
GPLJMDMYZCMRCG-UHFFFAOYSA-N

>  <fragmenstein_mode>  (2622) 
expansion

>  <HIPPO Pose ID>  (2622) 
28850

>  <Energy>  (2622) 
113.950463

>  <fragmenstein_error>  (2622) 


>  <tags>  (2622) 
{'openbind_xx01zvns2b_c1_fragmenstein', 'fragmenstein_placed'}

>  <ref_pdb>  (2622) 
175

>  <scratch_subdir>  (2622) 
/opt/xchem-fragalysis-2/maxwin/BulkDock/SCRATCH/511028/C38696-P285

>  <alias>  (2622) 
C[C@@H]1c2ccccc2-c2nc3c(C(=O)Nc4ccc5c(c4)CNC5)cc(C=O)cc3n21

>  <HIPPO Compound ID>  (2622) 
20158

>  <fragmenstein_runtime>  (2622) 
6.84895

$$$$
O=Cc1cc([C@](O)(Nc2ccc3c(c2)CNC3)C(=O)NC2CCOCC2)c2[nH]c(-c3ccccc3)nc2c1
     RDKit          3D

 38 43  0  0  0  0  0  0  0  0999 V2000
  -11.4128    3.5712  -17.7316 O   0  0  0  0  0  0  0  0  0  0  0  0
  -10.5385    4.2232  -18.2738 C   0  0  0  0  0  0  0  0  0  0  0  0
   -9.1855    4.3186  -17.7234 C   0  0  0  0  0  0  0  0  0  0  0  0
   -8.9006    4.2884  -16.3545 C   0  0  0  0  0  0  0  0  0  0  0  0
   -7.5933    4.5271  -15.8203 C   0  0  0  0  0  0  0  0  0  0  0  0
   -7.3239    4.2756  -14.3080 C   0  0  2  0  0  0  0  0  0  0  0  0
   -7.1066    2.8697  -14.1363 O   0  0  0  0  0  0  0  0  0  0  0  0
   -8.5373    4.5713  -13.5156 N   0  0  0  0  0  0  0  0  0  0  0  0
   -8.4176    4.6107  -12.1079 C   0  0  0  0  0  0  0  0  0  0  0  0
   -8.1501    5.8277  -11.4570 C   0  0  0  0  0  0  0  0  0  0  0  0
   -8.0668    5.8988  -10.0597 C   0  0  0  0  0  0  0  0  0  0  0  0
   -8.2422    4.7376   -9.3269 C   0  0  0  0  0  0  0  0  0  0  0  0
   -8.4889    3.5286   -9.9586 C   0  0  0  0  0  0  0  0  0  0  0  0
   -8.5620    3.4443  -11.3402 C   0  0  0  0  0  0  0  0  0  0  0  0
   -8.6498    2.4528   -8.9391 C   0  0  0  0  0  0  0  0  0  0  0  0
   -8.6031    3.1291   -7.6169 N   0  0  0  0  0  0  0  0  0  0  0  0
   -8.2010    4.5281   -7.8520 C   0  0  0  0  0  0  0  0  0  0  0  0
   -6.0130    5.0504  -13.7782 C   0  0  0  0  0  0  0  0  0  0  0  0
   -5.6629    6.1042  -14.1553 O   0  0  0  0  0  0  0  0  0  0  0  0
   -5.3392    4.0593  -12.7739 N   0  0  0  0  0  0  0  0  0  0  0  0
   -4.1534    4.2078  -11.9643 C   0  0  0  0  0  0  0  0  0  0  0  0
   -3.5577    2.8428  -11.6045 C   0  0  0  0  0  0  0  0  0  0  0  0
   -2.8521    2.8680  -10.2543 C   0  0  0  0  0  0  0  0  0  0  0  0
   -2.2334    4.1347  -10.0538 O   0  0  0  0  0  0  0  0  0  0  0  0
   -3.1865    5.1841   -9.8661 C   0  0  0  0  0  0  0  0  0  0  0  0
   -4.4477    5.0179  -10.7083 C   0  0  0  0  0  0  0  0  0  0  0  0
   -6.6427    4.8664  -16.8289 C   0  0  0  0  0  0  0  0  0  0  0  0
   -5.3236    5.2984  -16.8318 N   0  0  0  0  0  0  0  0  0  0  0  0
   -4.9209    5.5295  -18.1387 C   0  0  0  0  0  0  0  0  0  0  0  0
   -3.6766    6.1460  -18.5988 C   0  0  0  0  0  0  0  0  0  0  0  0
   -3.5248    6.4177  -19.9746 C   0  0  0  0  0  0  0  0  0  0  0  0
   -2.3542    7.0041  -20.4585 C   0  0  0  0  0  0  0  0  0  0  0  0
   -1.3247    7.3297  -19.5782 C   0  0  0  0  0  0  0  0  0  0  0  0
   -1.4632    7.0683  -18.2153 C   0  0  0  0  0  0  0  0  0  0  0  0
   -2.6333    6.4794  -17.7256 C   0  0  0  0  0  0  0  0  0  0  0  0
   -5.8666    5.1554  -18.9621 N   0  0  0  0  0  0  0  0  0  0  0  0
   -6.9290    4.8277  -18.1916 C   0  0  0  0  0  0  0  0  0  0  0  0
   -8.1918    4.5077  -18.6544 C   0  0  0  0  0  0  0  0  0  0  0  0
  1  2  2  0
  2  3  1  0
  3  4  2  0
  4  5  1  0
  5  6  1  0
  6  7  1  6
  6  8  1  0
  8  9  1  0
  9 10  2  0
 10 11  1  0
 11 12  2  0
 12 13  1  0
 13 14  2  0
 13 15  1  0
 15 16  1  0
 16 17  1  0
  6 18  1  0
 18 19  2  0
 18 20  1  0
 20 21  1  0
 21 22  1  0
 22 23  1  0
 23 24  1  0
 24 25  1  0
 25 26  1  0
  5 27  2  0
 27 28  1  0
 28 29  1  0
 29 30  1  0
 30 31  2  0
 31 32  1  0
 32 33  2  0
 33 34  1  0
 34 35  2  0
 29 36  2  0
 36 37  1  0
 37 38  2  0
 38  3  1  0
 14  9  1  0
 26 21  1  0
 37 27  1  0
 17 12  1  0
 35 30  1  0
M  END
>  <smiles>  (2623) 
C38710-P286

>  <fragmenstein_outcome>  (2623) 
acceptable

>  <inchikey>  (2623) 
VIOIOQYUARLVRI-UHFFFAOYSA-N

>  <fragmenstein_mode>  (2623) 
expansion

>  <HIPPO Pose ID>  (2623) 
28859

>  <Energy>  (2623) 
126.321015

>  <fragmenstein_error>  (2623) 


>  <tags>  (2623) 
{'openbind_xx01zvns2b_c1_fragmenstein', 'fragmenstein_placed'}

>  <ref_pdb>  (2623) 
175

>  <scratch_subdir>  (2623) 
/opt/xchem-fragalysis-2/maxwin/BulkDock/SCRATCH/511028/C38710-P286

>  <alias>  (2623) 
O=Cc1cc([C@](O)(Nc2ccc3c(c2)CNC3)C(=O)NC2CCOCC2)c2[nH]c(-c3ccccc3)nc2c1

>  <HIPPO Compound ID>  (2623) 
38710

>  <fragmenstein_runtime>  (2623) 
10.020961

$$$$
O=Cc1cc(C(=O)Nc2ccc3c(c2)CNC3)c2c(c1)[N@@H+]1Oc3ccccc3C1=N2
     RDKit          3D

 30 35  0  0  0  0  0  0  0  0999 V2000
  -10.7687    4.3592  -19.1249 O   0  0  0  0  0  0  0  0  0  0  0  0
  -10.5112    4.1539  -17.9498 C   0  0  0  0  0  0  0  0  0  0  0  0
   -9.1232    4.2831  -17.4896 C   0  0  0  0  0  0  0  0  0  0  0  0
   -8.8587    4.4215  -16.1140 C   0  0  0  0  0  0  0  0  0  0  0  0
   -7.5927    4.8440  -15.6803 C   0  0  0  0  0  0  0  0  0  0  0  0
   -7.4418    5.3437  -14.2962 C   0  0  0  0  0  0  0  0  0  0  0  0
   -7.0565    6.4383  -14.1638 O   0  0  0  0  0  0  0  0  0  0  0  0
   -7.9039    4.3092  -13.2432 N   0  0  0  0  0  0  0  0  0  0  0  0
   -8.0723    4.4337  -11.8644 C   0  0  0  0  0  0  0  0  0  0  0  0
   -7.9487    5.6786  -11.2249 C   0  0  0  0  0  0  0  0  0  0  0  0
   -8.0996    5.7918   -9.8381 C   0  0  0  0  0  0  0  0  0  0  0  0
   -8.3687    4.6457   -9.1144 C   0  0  0  0  0  0  0  0  0  0  0  0
   -8.5016    3.4133   -9.7446 C   0  0  0  0  0  0  0  0  0  0  0  0
   -8.3622    3.2888  -11.1178 C   0  0  0  0  0  0  0  0  0  0  0  0
   -8.7547    2.3600   -8.7150 C   0  0  0  0  0  0  0  0  0  0  0  0
   -9.0781    3.1048   -7.4666 N   0  0  0  0  0  0  0  0  0  0  0  0
   -8.5154    4.4593   -7.6428 C   0  0  0  0  0  0  0  0  0  0  0  0
   -6.6132    5.0858  -16.6337 C   0  0  0  0  0  0  0  0  0  0  0  0
   -6.9146    4.8950  -17.9945 C   0  0  0  0  0  0  0  0  0  0  0  0
   -8.1377    4.4953  -18.4556 C   0  0  0  0  0  0  0  0  0  0  0  0
   -5.9022    5.5809  -18.7427 N   0  0  2  0  0  0  0  0  0  0  0  0
   -5.2178    4.9642  -19.8421 O   0  0  0  0  0  0  0  0  0  0  0  0
   -3.9028    5.3771  -19.6449 C   0  0  0  0  0  0  0  0  0  0  0  0
   -2.8982    5.2921  -20.5765 C   0  0  0  0  0  0  0  0  0  0  0  0
   -1.6078    5.6231  -20.1581 C   0  0  0  0  0  0  0  0  0  0  0  0
   -1.3407    6.0482  -18.8382 C   0  0  0  0  0  0  0  0  0  0  0  0
   -2.3657    6.1567  -17.9006 C   0  0  0  0  0  0  0  0  0  0  0  0
   -3.6247    5.8312  -18.3466 C   0  0  0  0  0  0  0  0  0  0  0  0
   -4.8878    5.7315  -17.7033 C   0  0  0  0  0  0  0  0  0  0  0  0
   -5.2888    5.5771  -16.4864 N   0  0  0  0  0  0  0  0  0  0  0  0
  1  2  2  0
  2  3  1  0
  3  4  2  0
  4  5  1  0
  5  6  1  0
  6  7  2  0
  6  8  1  0
  8  9  1  0
  9 10  2  0
 10 11  1  0
 11 12  2  0
 12 13  1  0
 13 14  2  0
 13 15  1  0
 15 16  1  0
 16 17  1  0
  5 18  2  0
 18 19  1  0
 19 20  2  0
 19 21  1  0
 21 22  1  6
 22 23  1  0
 23 24  2  0
 24 25  1  0
 25 26  2  0
 26 27  1  0
 27 28  2  0
 28 29  1  0
 29 30  2  0
 20  3  1  0
 29 21  1  0
 14  9  1  0
 30 18  1  0
 17 12  1  0
 28 23  1  0
M  CHG  1  21   1
M  END
>  <smiles>  (2624) 
C38748-P286

>  <fragmenstein_outcome>  (2624) 
acceptable

>  <inchikey>  (2624) 
UDQAUMJRPMNFPO-UHFFFAOYSA-O

>  <fragmenstein_mode>  (2624) 
expansion

>  <HIPPO Pose ID>  (2624) 
28877

>  <Energy>  (2624) 
112.456745

>  <fragmenstein_error>  (2624) 


>  <tags>  (2624) 
{'openbind_xx01zvns2b_c1_fragmenstein', 'fragmenstein_placed'}

>  <ref_pdb>  (2624) 
175

>  <scratch_subdir>  (2624) 
/opt/xchem-fragalysis-2/maxwin/BulkDock/SCRATCH/511028/C38748-P286

>  <alias>  (2624) 
O=Cc1cc(C(=O)Nc2ccc3c(c2)CNC3)c2c(c1)[N@@H+]1Oc3ccccc3C1=N2

>  <HIPPO Compound ID>  (2624) 
38748

>  <fragmenstein_runtime>  (2624) 
7.452159

$$$$
O=Cc1cc([C@@](O)(Nc2ccc3c(c2)CNC3)C(=O)NCCCF)c2nc(-c3ccccc3)[nH]c2c1
     RDKit          3D

 36 40  0  0  0  0  0  0  0  0999 V2000
  -10.7459    4.3487  -19.0389 O   0  0  0  0  0  0  0  0  0  0  0  0
  -10.4327    4.1818  -17.8696 C   0  0  0  0  0  0  0  0  0  0  0  0
   -9.0556    4.3891  -17.4066 C   0  0  0  0  0  0  0  0  0  0  0  0
   -8.7746    4.5050  -16.0429 C   0  0  0  0  0  0  0  0  0  0  0  0
   -7.4831    4.8627  -15.5594 C   0  0  0  0  0  0  0  0  0  0  0  0
   -7.2189    5.0606  -14.0673 C   0  0  1  0  0  0  0  0  0  0  0  0
   -7.2018    6.4667  -13.8949 O   0  0  0  0  0  0  0  0  0  0  0  0
   -8.3582    4.5662  -13.2510 N   0  0  0  0  0  0  0  0  0  0  0  0
   -8.2585    4.5783  -11.8388 C   0  0  0  0  0  0  0  0  0  0  0  0
   -7.9768    5.7430  -11.0966 C   0  0  0  0  0  0  0  0  0  0  0  0
   -7.9684    5.7422   -9.6952 C   0  0  0  0  0  0  0  0  0  0  0  0
   -8.2494    4.5635   -9.0358 C   0  0  0  0  0  0  0  0  0  0  0  0
   -8.5446    3.4105   -9.7423 C   0  0  0  0  0  0  0  0  0  0  0  0
   -8.5659    3.4036  -11.1299 C   0  0  0  0  0  0  0  0  0  0  0  0
   -8.7899    2.2910   -8.7885 C   0  0  0  0  0  0  0  0  0  0  0  0
   -8.7624    2.8913   -7.4277 N   0  0  0  0  0  0  0  0  0  0  0  0
   -8.2885    4.2807   -7.5747 C   0  0  0  0  0  0  0  0  0  0  0  0
   -5.8796    4.2786  -13.6426 C   0  0  0  0  0  0  0  0  0  0  0  0
   -5.7407    3.1197  -13.7417 O   0  0  0  0  0  0  0  0  0  0  0  0
   -4.9162    5.3664  -13.0769 N   0  0  0  0  0  0  0  0  0  0  0  0
   -3.5625    5.2609  -12.6111 C   0  0  0  0  0  0  0  0  0  0  0  0
   -3.3310    4.1551  -11.5910 C   0  0  0  0  0  0  0  0  0  0  0  0
   -4.1717    4.3114  -10.3380 C   0  0  0  0  0  0  0  0  0  0  0  0
   -3.6584    3.4962   -9.3730 F   0  0  0  0  0  0  0  0  0  0  0  0
   -6.5043    5.1226  -16.5547 C   0  0  0  0  0  0  0  0  0  0  0  0
   -5.1964    5.5598  -16.4576 N   0  0  0  0  0  0  0  0  0  0  0  0
   -4.7480    5.6998  -17.7017 C   0  0  0  0  0  0  0  0  0  0  0  0
   -3.4329    6.1853  -18.1332 C   0  0  0  0  0  0  0  0  0  0  0  0
   -2.4796    6.5053  -17.1539 C   0  0  0  0  0  0  0  0  0  0  0  0
   -1.2039    6.9505  -17.5081 C   0  0  0  0  0  0  0  0  0  0  0  0
   -0.8623    7.0820  -18.8510 C   0  0  0  0  0  0  0  0  0  0  0  0
   -1.7956    6.7729  -19.8380 C   0  0  0  0  0  0  0  0  0  0  0  0
   -3.0746    6.3298  -19.4849 C   0  0  0  0  0  0  0  0  0  0  0  0
   -5.7154    5.3190  -18.5889 N   0  0  0  0  0  0  0  0  0  0  0  0
   -6.8361    4.9795  -17.8941 C   0  0  0  0  0  0  0  0  0  0  0  0
   -8.0775    4.5948  -18.3657 C   0  0  0  0  0  0  0  0  0  0  0  0
  1  2  2  0
  2  3  1  0
  3  4  2  0
  4  5  1  0
  5  6  1  0
  6  7  1  6
  6  8  1  0
  8  9  1  0
  9 10  2  0
 10 11  1  0
 11 12  2  0
 12 13  1  0
 13 14  2  0
 13 15  1  0
 15 16  1  0
 16 17  1  0
  6 18  1  0
 18 19  2  0
 18 20  1  0
 20 21  1  0
 21 22  1  0
 22 23  1  0
 23 24  1  0
  5 25  2  0
 25 26  1  0
 26 27  2  0
 27 28  1  0
 28 29  2  0
 29 30  1  0
 30 31  2  0
 31 32  1  0
 32 33  2  0
 27 34  1  0
 34 35  1  0
 35 36  2  0
 36  3  1  0
 14  9  1  0
 35 25  1  0
 17 12  1  0
 33 28  1  0
M  END
>  <smiles>  (2625) 
C38762-P286

>  <fragmenstein_outcome>  (2625) 
acceptable

>  <inchikey>  (2625) 
HXMOXFGOLFLQKZ-UHFFFAOYSA-N

>  <fragmenstein_mode>  (2625) 
expansion

>  <HIPPO Pose ID>  (2625) 
28883

>  <Energy>  (2625) 
103.360974

>  <fragmenstein_error>  (2625) 


>  <tags>  (2625) 
{'openbind_xx01zvns2b_c1_fragmenstein', 'fragmenstein_placed'}

>  <ref_pdb>  (2625) 
175

>  <scratch_subdir>  (2625) 
/opt/xchem-fragalysis-2/maxwin/BulkDock/SCRATCH/511028/C38762-P286

>  <alias>  (2625) 
O=Cc1cc([C@@](O)(Nc2ccc3c(c2)CNC3)C(=O)NCCCF)c2nc(-c3ccccc3)[nH]c2c1

>  <HIPPO Compound ID>  (2625) 
42637

>  <fragmenstein_runtime>  (2625) 
10.62989

$$$$
CN1CCn2c(nc3c(C(=O)Nc4ccc5c(c4)CNC5)cc(C=O)cc32)-c2ccccc2C1
     RDKit          3D

 34 39  0  0  0  0  0  0  0  0999 V2000
   -2.5293    6.1865  -20.8985 C   0  0  0  0  0  0  0  0  0  0  0  0
   -3.6780    6.9470  -20.4238 N   0  0  0  0  0  0  0  0  0  0  0  0
   -4.9147    6.1727  -20.4148 C   0  0  0  0  0  0  0  0  0  0  0  0
   -4.9110    4.9613  -19.4939 C   0  0  0  0  0  0  0  0  0  0  0  0
   -5.3781    5.2642  -18.1598 N   0  0  0  0  0  0  0  0  0  0  0  0
   -4.6448    5.7505  -17.1012 C   0  0  0  0  0  0  0  0  0  0  0  0
   -5.3740    5.6899  -15.9996 N   0  0  0  0  0  0  0  0  0  0  0  0
   -6.6179    5.2338  -16.3552 C   0  0  0  0  0  0  0  0  0  0  0  0
   -7.7833    5.0137  -15.5943 C   0  0  0  0  0  0  0  0  0  0  0  0
   -7.8330    5.5086  -14.2006 C   0  0  0  0  0  0  0  0  0  0  0  0
   -7.5765    6.6348  -14.0250 O   0  0  0  0  0  0  0  0  0  0  0  0
   -8.2391    4.4040  -13.1958 N   0  0  0  0  0  0  0  0  0  0  0  0
   -8.3190    4.4308  -11.8010 C   0  0  0  0  0  0  0  0  0  0  0  0
   -8.1429    5.6380  -11.1018 C   0  0  0  0  0  0  0  0  0  0  0  0
   -8.2047    5.6798   -9.7053 C   0  0  0  0  0  0  0  0  0  0  0  0
   -8.4524    4.5016   -9.0283 C   0  0  0  0  0  0  0  0  0  0  0  0
   -8.6304    3.3027   -9.7112 C   0  0  0  0  0  0  0  0  0  0  0  0
   -8.5620    3.2482  -11.0970 C   0  0  0  0  0  0  0  0  0  0  0  0
   -8.8537    2.2081   -8.7153 C   0  0  0  0  0  0  0  0  0  0  0  0
   -9.1380    2.9010   -7.4279 N   0  0  0  0  0  0  0  0  0  0  0  0
   -8.5480    4.2494   -7.5626 C   0  0  0  0  0  0  0  0  0  0  0  0
   -8.9399    4.5414  -16.2345 C   0  0  0  0  0  0  0  0  0  0  0  0
   -8.9472    4.3769  -17.6230 C   0  0  0  0  0  0  0  0  0  0  0  0
  -10.1963    4.1304  -18.3633 C   0  0  0  0  0  0  0  0  0  0  0  0
  -11.1797    3.6345  -17.8393 O   0  0  0  0  0  0  0  0  0  0  0  0
   -7.8014    4.5741  -18.3932 C   0  0  0  0  0  0  0  0  0  0  0  0
   -6.6521    4.9899  -17.7215 C   0  0  0  0  0  0  0  0  0  0  0  0
   -3.2435    6.1895  -17.1162 C   0  0  0  0  0  0  0  0  0  0  0  0
   -2.4448    5.7716  -16.0328 C   0  0  0  0  0  0  0  0  0  0  0  0
   -1.1011    6.1325  -15.9268 C   0  0  0  0  0  0  0  0  0  0  0  0
   -0.5229    6.9187  -16.9107 C   0  0  0  0  0  0  0  0  0  0  0  0
   -1.3021    7.3731  -17.9725 C   0  0  0  0  0  0  0  0  0  0  0  0
   -2.6730    7.0416  -18.0813 C   0  0  0  0  0  0  0  0  0  0  0  0
   -3.4561    7.7084  -19.1921 C   0  0  0  0  0  0  0  0  0  0  0  0
  1  2  1  0
  2  3  1  0
  3  4  1  0
  4  5  1  0
  5  6  1  0
  6  7  2  0
  7  8  1  0
  8  9  2  0
  9 10  1  0
 10 11  2  0
 10 12  1  0
 12 13  1  0
 13 14  2  0
 14 15  1  0
 15 16  2  0
 16 17  1  0
 17 18  2  0
 17 19  1  0
 19 20  1  0
 20 21  1  0
  9 22  1  0
 22 23  2  0
 23 24  1  0
 24 25  2  0
 23 26  1  0
 26 27  2  0
  6 28  1  0
 28 29  2  0
 29 30  1  0
 30 31  2  0
 31 32  1  0
 32 33  2  0
 33 34  1  0
 34  2  1  0
 27  5  1  0
 33 28  1  0
 27  8  1  0
 18 13  1  0
 21 16  1  0
M  END
>  <smiles>  (2626) 
C38773-P286

>  <fragmenstein_outcome>  (2626) 
acceptable

>  <inchikey>  (2626) 
ASDUETXDKYOBOV-UHFFFAOYSA-N

>  <fragmenstein_mode>  (2626) 
expansion

>  <HIPPO Pose ID>  (2626) 
28890

>  <Energy>  (2626) 
119.29795

>  <fragmenstein_error>  (2626) 


>  <tags>  (2626) 
{'openbind_xx01zvns2b_c1_fragmenstein', 'fragmenstein_placed'}

>  <ref_pdb>  (2626) 
175

>  <scratch_subdir>  (2626) 
/opt/xchem-fragalysis-2/maxwin/BulkDock/SCRATCH/511028/C38773-P286

>  <alias>  (2626) 
CN1CCn2c(nc3c(C(=O)Nc4ccc5c(c4)CNC5)cc(C=O)cc32)-c2ccccc2C1

>  <HIPPO Compound ID>  (2626) 
35086

>  <fragmenstein_runtime>  (2626) 
9.327349

$$$$
O=Cc1cc(C(=O)Nc2ccc3c(c2)CNC3)c2nc(-c3ccccc3)n(NC3CCC3)c2c1
     RDKit          3D

 34 39  0  0  0  0  0  0  0  0999 V2000
  -10.9695    3.6580  -17.9890 O   0  0  0  0  0  0  0  0  0  0  0  0
   -9.9110    4.0732  -18.4356 C   0  0  0  0  0  0  0  0  0  0  0  0
   -8.7543    4.3610  -17.5644 C   0  0  0  0  0  0  0  0  0  0  0  0
   -8.9238    4.4804  -16.1785 C   0  0  0  0  0  0  0  0  0  0  0  0
   -7.8570    4.9073  -15.3813 C   0  0  0  0  0  0  0  0  0  0  0  0
   -8.0595    5.3826  -13.9960 C   0  0  0  0  0  0  0  0  0  0  0  0
   -7.9843    6.5353  -13.8193 O   0  0  0  0  0  0  0  0  0  0  0  0
   -8.2878    4.2281  -12.9938 N   0  0  0  0  0  0  0  0  0  0  0  0
   -8.3736    4.2405  -11.5982 C   0  0  0  0  0  0  0  0  0  0  0  0
   -8.1687    5.4290  -10.8767 C   0  0  0  0  0  0  0  0  0  0  0  0
   -8.2328    5.4483   -9.4781 C   0  0  0  0  0  0  0  0  0  0  0  0
   -8.5200    4.2686   -8.8198 C   0  0  0  0  0  0  0  0  0  0  0  0
   -8.7181    3.0866   -9.5246 C   0  0  0  0  0  0  0  0  0  0  0  0
   -8.6385    3.0543  -10.9108 C   0  0  0  0  0  0  0  0  0  0  0  0
   -8.9775    1.9841   -8.5477 C   0  0  0  0  0  0  0  0  0  0  0  0
   -9.3000    2.6688   -7.2654 N   0  0  0  0  0  0  0  0  0  0  0  0
   -8.6559    3.9954   -7.3599 C   0  0  0  0  0  0  0  0  0  0  0  0
   -6.6013    5.1304  -15.9759 C   0  0  0  0  0  0  0  0  0  0  0  0
   -5.4130    5.5112  -15.4104 N   0  0  0  0  0  0  0  0  0  0  0  0
   -4.5522    5.6547  -16.3995 C   0  0  0  0  0  0  0  0  0  0  0  0
   -3.1771    6.0996  -16.1868 C   0  0  0  0  0  0  0  0  0  0  0  0
   -2.6848    7.2783  -16.7572 C   0  0  0  0  0  0  0  0  0  0  0  0
   -1.3870    7.7183  -16.4808 C   0  0  0  0  0  0  0  0  0  0  0  0
   -0.5810    7.0029  -15.5987 C   0  0  0  0  0  0  0  0  0  0  0  0
   -1.0788    5.8603  -14.9781 C   0  0  0  0  0  0  0  0  0  0  0  0
   -2.3733    5.4184  -15.2641 C   0  0  0  0  0  0  0  0  0  0  0  0
   -5.1491    5.3192  -17.6041 N   0  0  0  0  0  0  0  0  0  0  0  0
   -4.5292    5.1998  -18.8921 N   0  0  0  0  0  0  0  0  0  0  0  0
   -4.4504    6.4940  -19.5843 C   0  0  0  0  0  0  0  0  0  0  0  0
   -4.7558    6.2544  -21.0734 C   0  0  0  0  0  0  0  0  0  0  0  0
   -3.2581    5.9436  -21.2882 C   0  0  0  0  0  0  0  0  0  0  0  0
   -2.9813    6.7555  -20.0128 C   0  0  0  0  0  0  0  0  0  0  0  0
   -6.4620    4.9884  -17.3533 C   0  0  0  0  0  0  0  0  0  0  0  0
   -7.5230    4.6134  -18.1860 C   0  0  0  0  0  0  0  0  0  0  0  0
  1  2  2  0
  2  3  1  0
  3  4  2  0
  4  5  1  0
  5  6  1  0
  6  7  2  0
  6  8  1  0
  8  9  1  0
  9 10  2  0
 10 11  1  0
 11 12  2  0
 12 13  1  0
 13 14  2  0
 13 15  1  0
 15 16  1  0
 16 17  1  0
  5 18  2  0
 18 19  1  0
 19 20  2  0
 20 21  1  0
 21 22  2  0
 22 23  1  0
 23 24  2  0
 24 25  1  0
 25 26  2  0
 20 27  1  0
 27 28  1  0
 28 29  1  0
 29 30  1  0
 30 31  1  0
 31 32  1  0
 27 33  1  0
 33 34  2  0
 34  3  1  0
 14  9  1  0
 33 18  1  0
 17 12  1  0
 26 21  1  0
 32 29  1  0
M  END
>  <smiles>  (2627) 
C38791-P286

>  <fragmenstein_outcome>  (2627) 
acceptable

>  <inchikey>  (2627) 
PHCDQWZFJDGHNH-UHFFFAOYSA-N

>  <fragmenstein_mode>  (2627) 
expansion

>  <HIPPO Pose ID>  (2627) 
28900

>  <Energy>  (2627) 
117.678506

>  <fragmenstein_error>  (2627) 


>  <tags>  (2627) 
{'openbind_xx01zvns2b_c1_fragmenstein', 'fragmenstein_placed'}

>  <ref_pdb>  (2627) 
175

>  <scratch_subdir>  (2627) 
/opt/xchem-fragalysis-2/maxwin/BulkDock/SCRATCH/511028/C38791-P286

>  <alias>  (2627) 
O=Cc1cc(C(=O)Nc2ccc3c(c2)CNC3)c2nc(-c3ccccc3)n(NC3CCC3)c2c1

>  <HIPPO Compound ID>  (2627) 
38791

>  <fragmenstein_runtime>  (2627) 
10.47367

$$$$
O=Cc1cc(C(=O)Nc2ccc3c(c2)CNC3)c2nc(-c3ccccc3)n(NC3CNC3)c2c1
     RDKit          3D

 34 39  0  0  0  0  0  0  0  0999 V2000
  -11.1832    3.6796  -17.8076 O   0  0  0  0  0  0  0  0  0  0  0  0
  -10.2011    4.1493  -18.3576 C   0  0  0  0  0  0  0  0  0  0  0  0
   -8.9219    4.3404  -17.6532 C   0  0  0  0  0  0  0  0  0  0  0  0
   -8.8606    4.4665  -16.2610 C   0  0  0  0  0  0  0  0  0  0  0  0
   -7.6532    4.8455  -15.6482 C   0  0  0  0  0  0  0  0  0  0  0  0
   -7.6455    5.3405  -14.2525 C   0  0  0  0  0  0  0  0  0  0  0  0
   -7.3547    6.4627  -14.0973 O   0  0  0  0  0  0  0  0  0  0  0  0
   -8.0902    4.2670  -13.2269 N   0  0  0  0  0  0  0  0  0  0  0  0
   -8.1750    4.3236  -11.8319 C   0  0  0  0  0  0  0  0  0  0  0  0
   -7.8856    5.5145  -11.1458 C   0  0  0  0  0  0  0  0  0  0  0  0
   -7.9392    5.5767   -9.7486 C   0  0  0  0  0  0  0  0  0  0  0  0
   -8.2733    4.4311   -9.0516 C   0  0  0  0  0  0  0  0  0  0  0  0
   -8.5635    3.2508   -9.7194 C   0  0  0  0  0  0  0  0  0  0  0  0
   -8.5263    3.1810  -11.1080 C   0  0  0  0  0  0  0  0  0  0  0  0
   -8.8585    2.1810   -8.7225 C   0  0  0  0  0  0  0  0  0  0  0  0
   -8.7995    2.8200   -7.3791 N   0  0  0  0  0  0  0  0  0  0  0  0
   -8.3728    4.2193   -7.5816 C   0  0  0  0  0  0  0  0  0  0  0  0
   -6.4960    5.0188  -16.4413 C   0  0  0  0  0  0  0  0  0  0  0  0
   -5.2000    5.3480  -16.1106 N   0  0  0  0  0  0  0  0  0  0  0  0
   -4.5149    5.4122  -17.2447 C   0  0  0  0  0  0  0  0  0  0  0  0
   -3.0900    5.7564  -17.3334 C   0  0  0  0  0  0  0  0  0  0  0  0
   -2.2399    5.2551  -18.3302 C   0  0  0  0  0  0  0  0  0  0  0  0
   -0.9108    5.6850  -18.4188 C   0  0  0  0  0  0  0  0  0  0  0  0
   -0.4036    6.5887  -17.4884 C   0  0  0  0  0  0  0  0  0  0  0  0
   -1.2215    7.0612  -16.4655 C   0  0  0  0  0  0  0  0  0  0  0  0
   -2.5535    6.6464  -16.3888 C   0  0  0  0  0  0  0  0  0  0  0  0
   -5.3722    5.2192  -18.3150 N   0  0  0  0  0  0  0  0  0  0  0  0
   -5.1288    5.3972  -19.7089 N   0  0  0  0  0  0  0  0  0  0  0  0
   -5.3591    6.7915  -20.1376 C   0  0  0  0  0  0  0  0  0  0  0  0
   -5.0649    6.8585  -21.6615 C   0  0  0  0  0  0  0  0  0  0  0  0
   -3.6167    6.9771  -21.3118 N   0  0  0  0  0  0  0  0  0  0  0  0
   -4.0677    7.6535  -20.0623 C   0  0  0  0  0  0  0  0  0  0  0  0
   -6.6073    4.8767  -17.8186 C   0  0  0  0  0  0  0  0  0  0  0  0
   -7.7995    4.5347  -18.4583 C   0  0  0  0  0  0  0  0  0  0  0  0
  1  2  2  0
  2  3  1  0
  3  4  2  0
  4  5  1  0
  5  6  1  0
  6  7  2  0
  6  8  1  0
  8  9  1  0
  9 10  2  0
 10 11  1  0
 11 12  2  0
 12 13  1  0
 13 14  2  0
 13 15  1  0
 15 16  1  0
 16 17  1  0
  5 18  2  0
 18 19  1  0
 19 20  2  0
 20 21  1  0
 21 22  2  0
 22 23  1  0
 23 24  2  0
 24 25  1  0
 25 26  2  0
 20 27  1  0
 27 28  1  0
 28 29  1  0
 29 30  1  0
 30 31  1  0
 31 32  1  0
 27 33  1  0
 33 34  2  0
 34  3  1  0
 14  9  1  0
 33 18  1  0
 17 12  1  0
 26 21  1  0
 32 29  1  0
M  END
>  <smiles>  (2628) 
C38804-P286

>  <fragmenstein_outcome>  (2628) 
acceptable

>  <inchikey>  (2628) 
VGFBVWWBBRKUCE-UHFFFAOYSA-N

>  <fragmenstein_mode>  (2628) 
expansion

>  <HIPPO Pose ID>  (2628) 
28906

>  <Energy>  (2628) 
138.657515

>  <fragmenstein_error>  (2628) 


>  <tags>  (2628) 
{'openbind_xx01zvns2b_c1_fragmenstein', 'fragmenstein_placed'}

>  <ref_pdb>  (2628) 
175

>  <scratch_subdir>  (2628) 
/opt/xchem-fragalysis-2/maxwin/BulkDock/SCRATCH/511028/C38804-P286

>  <alias>  (2628) 
O=Cc1cc(C(=O)Nc2ccc3c(c2)CNC3)c2nc(-c3ccccc3)n(NC3CNC3)c2c1

>  <HIPPO Compound ID>  (2628) 
38804

>  <fragmenstein_runtime>  (2628) 
14.382504

$$$$
NC[C@@H]1CC[C@H](C(=O)Nc2ccc3c(c2)CNC3)C[C@@H]1Cl
     RDKit          3D

 21 23  0  0  0  0  0  0  0  0999 V2000
   -7.0699    3.9336  -20.1317 N   0  0  0  0  0  0  0  0  0  0  0  0
   -6.2883    4.5397  -19.0818 C   0  0  0  0  0  0  0  0  0  0  0  0
   -7.0548    5.3265  -18.0174 C   0  0  2  0  0  0  0  0  0  0  0  0
   -5.9531    6.0321  -17.1831 C   0  0  0  0  0  0  0  0  0  0  0  0
   -5.7755    5.5420  -15.7564 C   0  0  0  0  0  0  0  0  0  0  0  0
   -7.1282    5.4236  -15.0593 C   0  0  2  0  0  0  0  0  0  0  0  0
   -6.9859    5.6486  -13.5490 C   0  0  0  0  0  0  0  0  0  0  0  0
   -6.4416    6.6207  -13.1882 O   0  0  0  0  0  0  0  0  0  0  0  0
   -7.7088    4.5425  -12.7385 N   0  0  0  0  0  0  0  0  0  0  0  0
   -7.9845    4.4537  -11.3789 C   0  0  0  0  0  0  0  0  0  0  0  0
   -7.8028    5.5893  -10.5692 C   0  0  0  0  0  0  0  0  0  0  0  0
   -8.0299    5.5371   -9.1956 C   0  0  0  0  0  0  0  0  0  0  0  0
   -8.4160    4.3297   -8.6505 C   0  0  0  0  0  0  0  0  0  0  0  0
   -8.6095    3.2069   -9.4466 C   0  0  0  0  0  0  0  0  0  0  0  0
   -8.4216    3.2533  -10.8219 C   0  0  0  0  0  0  0  0  0  0  0  0
   -8.9610    2.0470   -8.5760 C   0  0  0  0  0  0  0  0  0  0  0  0
   -9.1180    2.5841   -7.1969 N   0  0  0  0  0  0  0  0  0  0  0  0
   -8.6479    3.9834   -7.2223 C   0  0  0  0  0  0  0  0  0  0  0  0
   -7.8725    4.2605  -15.7071 C   0  0  0  0  0  0  0  0  0  0  0  0
   -8.1821    4.6649  -17.1566 C   0  0  2  0  0  0  0  0  0  0  0  0
   -9.3798    3.6580  -17.9949 Cl  0  0  0  0  0  0  0  0  0  0  0  0
  1  2  1  0
  3  2  1  1
  3  4  1  0
  4  5  1  0
  5  6  1  0
  6  7  1  1
  7  8  2  0
  7  9  1  0
  9 10  1  0
 10 11  2  0
 11 12  1  0
 12 13  2  0
 13 14  1  0
 14 15  2  0
 14 16  1  0
 16 17  1  0
 17 18  1  0
  6 19  1  0
 19 20  1  0
 20 21  1  6
 20  3  1  0
 15 10  1  0
 18 13  1  0
M  END
>  <smiles>  (2629) 
C33079-P286

>  <fragmenstein_outcome>  (2629) 
acceptable

>  <inchikey>  (2629) 
WGBURAOVQKEWFI-UHFFFAOYSA-N

>  <fragmenstein_mode>  (2629) 
expansion

>  <HIPPO Pose ID>  (2629) 
28911

>  <Energy>  (2629) 
61.662163

>  <fragmenstein_error>  (2629) 


>  <tags>  (2629) 
{'openbind_xx01zvns2b_c1_fragmenstein', 'fragmenstein_placed'}

>  <ref_pdb>  (2629) 
175

>  <scratch_subdir>  (2629) 
/opt/xchem-fragalysis-2/maxwin/BulkDock/SCRATCH/511028/C33079-P286

>  <alias>  (2629) 
NC[C@@H]1CC[C@H](C(=O)Nc2ccc3c(c2)CNC3)C[C@@H]1Cl

>  <HIPPO Compound ID>  (2629) 
33079

>  <fragmenstein_runtime>  (2629) 
5.158201

$$$$
CS(=O)(=O)n1nc2c(Cl)cc(C(=O)Nc3ccc4c(c3)CNC4)cc2c1C1CCNCC1
     RDKit          3D

 32 36  0  0  0  0  0  0  0  0999 V2000
   -4.8818    6.2888  -21.4786 C   0  0  0  0  0  0  0  0  0  0  0  0
   -4.0276    5.8492  -20.0053 S   0  0  0  0  0  0  0  0  0  0  0  0
   -3.2447    4.6408  -20.1850 O   0  0  0  0  0  0  0  0  0  0  0  0
   -3.4145    7.0768  -19.5196 O   0  0  0  0  0  0  0  0  0  0  0  0
   -5.2295    5.4277  -18.8191 N   0  0  0  0  0  0  0  0  0  0  0  0
   -6.4428    4.8958  -19.1393 N   0  0  0  0  0  0  0  0  0  0  0  0
   -7.1309    4.8167  -17.9819 C   0  0  0  0  0  0  0  0  0  0  0  0
   -8.4552    4.4345  -17.6287 C   0  0  0  0  0  0  0  0  0  0  0  0
   -9.5538    3.9732  -18.8302 Cl  0  0  0  0  0  0  0  0  0  0  0  0
   -8.8351    4.5694  -16.2748 C   0  0  0  0  0  0  0  0  0  0  0  0
   -7.9346    5.0747  -15.3112 C   0  0  0  0  0  0  0  0  0  0  0  0
   -8.3556    5.4995  -13.9618 C   0  0  0  0  0  0  0  0  0  0  0  0
   -8.5913    6.6297  -13.8065 O   0  0  0  0  0  0  0  0  0  0  0  0
   -8.3085    4.3440  -12.9513 N   0  0  0  0  0  0  0  0  0  0  0  0
   -8.4434    4.3481  -11.5671 C   0  0  0  0  0  0  0  0  0  0  0  0
   -8.3702    5.5621  -10.8609 C   0  0  0  0  0  0  0  0  0  0  0  0
   -8.3991    5.5824   -9.4654 C   0  0  0  0  0  0  0  0  0  0  0  0
   -8.5365    4.3787   -8.8006 C   0  0  0  0  0  0  0  0  0  0  0  0
   -8.6439    3.1817   -9.4961 C   0  0  0  0  0  0  0  0  0  0  0  0
   -8.5715    3.1437  -10.8805 C   0  0  0  0  0  0  0  0  0  0  0  0
   -8.8424    2.0612   -8.5318 C   0  0  0  0  0  0  0  0  0  0  0  0
   -8.8530    2.6703   -7.1741 N   0  0  0  0  0  0  0  0  0  0  0  0
   -8.6066    4.1170   -7.3377 C   0  0  0  0  0  0  0  0  0  0  0  0
   -6.5981    5.4224  -15.5879 C   0  0  0  0  0  0  0  0  0  0  0  0
   -6.2589    5.2661  -16.9252 C   0  0  0  0  0  0  0  0  0  0  0  0
   -5.0263    5.5655  -17.4540 C   0  0  0  0  0  0  0  0  0  0  0  0
   -3.7380    6.0075  -16.8108 C   0  0  0  0  0  0  0  0  0  0  0  0
   -3.3230    5.1139  -15.6335 C   0  0  0  0  0  0  0  0  0  0  0  0
   -2.0270    5.6299  -15.0030 C   0  0  0  0  0  0  0  0  0  0  0  0
   -2.1557    7.0198  -14.5643 N   0  0  0  0  0  0  0  0  0  0  0  0
   -2.4977    7.8959  -15.6863 C   0  0  0  0  0  0  0  0  0  0  0  0
   -3.8050    7.4745  -16.3548 C   0  0  0  0  0  0  0  0  0  0  0  0
  1  2  1  0
  2  3  2  0
  2  4  2  0
  2  5  1  0
  5  6  1  0
  6  7  2  0
  7  8  1  0
  8  9  1  0
  8 10  2  0
 10 11  1  0
 11 12  1  0
 12 13  2  0
 12 14  1  0
 14 15  1  0
 15 16  2  0
 16 17  1  0
 17 18  2  0
 18 19  1  0
 19 20  2  0
 19 21  1  0
 21 22  1  0
 22 23  1  0
 11 24  2  0
 24 25  1  0
 25 26  2  0
 26 27  1  0
 27 28  1  0
 28 29  1  0
 29 30  1  0
 30 31  1  0
 31 32  1  0
 26  5  1  0
 32 27  1  0
 25  7  1  0
 20 15  1  0
 23 18  1  0
M  END
>  <smiles>  (2630) 
C38829-P286

>  <fragmenstein_outcome>  (2630) 
acceptable

>  <inchikey>  (2630) 
MGVRTAOJRGQUCX-UHFFFAOYSA-N

>  <fragmenstein_mode>  (2630) 
expansion

>  <HIPPO Pose ID>  (2630) 
28922

>  <Energy>  (2630) 
160.333678

>  <fragmenstein_error>  (2630) 


>  <tags>  (2630) 
{'openbind_xx01zvns2b_c1_fragmenstein', 'fragmenstein_placed'}

>  <ref_pdb>  (2630) 
175

>  <scratch_subdir>  (2630) 
/opt/xchem-fragalysis-2/maxwin/BulkDock/SCRATCH/511028/C38829-P286

>  <alias>  (2630) 
CS(=O)(=O)n1nc2c(Cl)cc(C(=O)Nc3ccc4c(c3)CNC4)cc2c1C1CCNCC1

>  <HIPPO Compound ID>  (2630) 
38829

>  <fragmenstein_runtime>  (2630) 
11.397926

$$$$
C[C@@]1(C2CCNCC2)c2cc(C(=O)C(=O)c3ccc4c(c3)CNC4)cc(Cl)c2NN1O
     RDKit          3D

 31 35  0  0  0  0  0  0  0  0999 V2000
   -4.7695    7.8373  -17.6548 C   0  0  0  0  0  0  0  0  0  0  0  0
   -5.2422    6.4654  -18.1598 C   0  0  1  0  0  0  0  0  0  0  0  0
   -4.0845    5.5810  -18.7817 C   0  0  0  0  0  0  0  0  0  0  0  0
   -3.7556    5.8897  -20.2609 C   0  0  0  0  0  0  0  0  0  0  0  0
   -2.5292    5.1760  -20.8056 C   0  0  0  0  0  0  0  0  0  0  0  0
   -1.3645    5.4360  -19.9770 N   0  0  0  0  0  0  0  0  0  0  0  0
   -1.6186    4.9585  -18.6269 C   0  0  0  0  0  0  0  0  0  0  0  0
   -2.7799    5.6879  -17.9629 C   0  0  0  0  0  0  0  0  0  0  0  0
   -6.0152    5.6707  -17.0950 C   0  0  0  0  0  0  0  0  0  0  0  0
   -5.8896    5.5647  -15.7267 C   0  0  0  0  0  0  0  0  0  0  0  0
   -6.9284    4.9288  -15.0154 C   0  0  0  0  0  0  0  0  0  0  0  0
   -6.8552    4.9569  -13.5405 C   0  0  0  0  0  0  0  0  0  0  0  0
   -6.2363    5.8572  -12.9844 O   0  0  0  0  0  0  0  0  0  0  0  0
   -7.4872    3.8564  -12.7234 C   0  0  0  0  0  0  0  0  0  0  0  0
   -7.4765    2.7258  -13.2003 O   0  0  0  0  0  0  0  0  0  0  0  0
   -7.9686    4.1172  -11.3447 C   0  0  0  0  0  0  0  0  0  0  0  0
   -8.2377    2.9836  -10.5600 C   0  0  0  0  0  0  0  0  0  0  0  0
   -8.5084    3.0886   -9.1988 C   0  0  0  0  0  0  0  0  0  0  0  0
   -8.4928    4.3483   -8.6376 C   0  0  0  0  0  0  0  0  0  0  0  0
   -8.2813    5.4854   -9.4108 C   0  0  0  0  0  0  0  0  0  0  0  0
   -8.0430    5.3947  -10.7735 C   0  0  0  0  0  0  0  0  0  0  0  0
   -8.3307    6.6902   -8.5329 C   0  0  0  0  0  0  0  0  0  0  0  0
   -8.2976    6.1738   -7.1344 N   0  0  0  0  0  0  0  0  0  0  0  0
   -8.6638    4.7335   -7.2122 C   0  0  0  0  0  0  0  0  0  0  0  0
   -8.0456    4.3745  -15.6735 C   0  0  0  0  0  0  0  0  0  0  0  0
   -8.1526    4.4725  -17.0558 C   0  0  0  0  0  0  0  0  0  0  0  0
   -9.5650    3.9316  -17.8763 Cl  0  0  0  0  0  0  0  0  0  0  0  0
   -7.1583    5.1520  -17.7337 C   0  0  0  0  0  0  0  0  0  0  0  0
   -7.1334    5.5341  -19.0829 N   0  0  0  0  0  0  0  0  0  0  0  0
   -6.4014    6.7273  -19.0761 N   0  0  0  0  0  0  0  0  0  0  0  0
   -6.0468    7.1908  -20.3801 O   0  0  0  0  0  0  0  0  0  0  0  0
  2  1  1  1
  2  3  1  0
  3  4  1  0
  4  5  1  0
  5  6  1  0
  6  7  1  0
  7  8  1  0
  2  9  1  0
  9 10  2  0
 10 11  1  0
 11 12  1  0
 12 13  2  0
 12 14  1  0
 14 15  2  0
 14 16  1  0
 16 17  2  0
 17 18  1  0
 18 19  2  0
 19 20  1  0
 20 21  2  0
 20 22  1  0
 22 23  1  0
 23 24  1  0
 11 25  2  0
 25 26  1  0
 26 27  1  0
 26 28  2  0
 28 29  1  0
 29 30  1  0
 30 31  1  0
 30  2  1  0
  8  3  1  0
 28  9  1  0
 21 16  1  0
 24 19  1  0
M  END
>  <smiles>  (2631) 
C38873-P286

>  <fragmenstein_outcome>  (2631) 
acceptable

>  <inchikey>  (2631) 
ZIYLEPHOANJEKZ-UHFFFAOYSA-N

>  <fragmenstein_mode>  (2631) 
expansion

>  <HIPPO Pose ID>  (2631) 
28934

>  <Energy>  (2631) 
158.719472

>  <fragmenstein_error>  (2631) 


>  <tags>  (2631) 
{'openbind_xx01zvns2b_c1_fragmenstein', 'fragmenstein_placed'}

>  <ref_pdb>  (2631) 
175

>  <scratch_subdir>  (2631) 
/opt/xchem-fragalysis-2/maxwin/BulkDock/SCRATCH/511028/C38873-P286

>  <alias>  (2631) 
C[C@@]1(C2CCNCC2)c2cc(C(=O)C(=O)c3ccc4c(c3)CNC4)cc(Cl)c2NN1O

>  <HIPPO Compound ID>  (2631) 
38873

>  <fragmenstein_runtime>  (2631) 
8.568287

$$$$
CCN(c1nc2ccc(C(=O)Nc3ccc4c(c3)CNC4)cc2[nH]1)C1CCC1
     RDKit          3D

 28 32  0  0  0  0  0  0  0  0999 V2000
   -3.9675    7.1829  -21.8088 C   0  0  0  0  0  0  0  0  0  0  0  0
   -4.9277    6.5684  -20.8003 C   0  0  0  0  0  0  0  0  0  0  0  0
   -4.3253    5.7414  -19.7296 N   0  0  0  0  0  0  0  0  0  0  0  0
   -5.2659    5.3170  -18.8309 C   0  0  0  0  0  0  0  0  0  0  0  0
   -6.4859    4.8666  -19.0485 N   0  0  0  0  0  0  0  0  0  0  0  0
   -7.1118    4.8005  -17.8240 C   0  0  0  0  0  0  0  0  0  0  0  0
   -8.4304    4.4591  -17.4619 C   0  0  0  0  0  0  0  0  0  0  0  0
   -8.8315    4.6156  -16.1181 C   0  0  0  0  0  0  0  0  0  0  0  0
   -7.9191    5.0874  -15.1734 C   0  0  0  0  0  0  0  0  0  0  0  0
   -8.2948    5.5530  -13.8253 C   0  0  0  0  0  0  0  0  0  0  0  0
   -8.4084    6.7029  -13.6702 O   0  0  0  0  0  0  0  0  0  0  0  0
   -8.3741    4.3982  -12.8139 N   0  0  0  0  0  0  0  0  0  0  0  0
   -8.5109    4.4169  -11.4293 C   0  0  0  0  0  0  0  0  0  0  0  0
   -8.3838    5.6330  -10.7311 C   0  0  0  0  0  0  0  0  0  0  0  0
   -8.4229    5.6713   -9.3366 C   0  0  0  0  0  0  0  0  0  0  0  0
   -8.6078    4.4806   -8.6637 C   0  0  0  0  0  0  0  0  0  0  0  0
   -8.7672    3.2805   -9.3509 C   0  0  0  0  0  0  0  0  0  0  0  0
   -8.7053    3.2252  -10.7346 C   0  0  0  0  0  0  0  0  0  0  0  0
   -9.0351    2.1900   -8.3699 C   0  0  0  0  0  0  0  0  0  0  0  0
   -8.7028    2.7635   -7.0345 N   0  0  0  0  0  0  0  0  0  0  0  0
   -8.7164    4.2325   -7.2002 C   0  0  0  0  0  0  0  0  0  0  0  0
   -6.5846    5.3557  -15.4996 C   0  0  0  0  0  0  0  0  0  0  0  0
   -6.2383    5.2112  -16.8328 C   0  0  0  0  0  0  0  0  0  0  0  0
   -5.0757    5.4820  -17.4881 N   0  0  0  0  0  0  0  0  0  0  0  0
   -2.8999    5.7828  -19.5531 C   0  0  0  0  0  0  0  0  0  0  0  0
   -2.2797    4.8037  -18.5506 C   0  0  0  0  0  0  0  0  0  0  0  0
   -1.3277    5.9486  -18.1312 C   0  0  0  0  0  0  0  0  0  0  0  0
   -2.3622    6.9444  -18.6936 C   0  0  0  0  0  0  0  0  0  0  0  0
  1  2  1  0
  2  3  1  0
  3  4  1  0
  4  5  2  0
  5  6  1  0
  6  7  2  0
  7  8  1  0
  8  9  2  0
  9 10  1  0
 10 11  2  0
 10 12  1  0
 12 13  1  0
 13 14  2  0
 14 15  1  0
 15 16  2  0
 16 17  1  0
 17 18  2  0
 17 19  1  0
 19 20  1  0
 20 21  1  0
  9 22  1  0
 22 23  2  0
 23 24  1  0
  3 25  1  0
 25 26  1  0
 26 27  1  0
 27 28  1  0
 24  4  1  0
 28 25  1  0
 23  6  1  0
 18 13  1  0
 21 16  1  0
M  END
>  <smiles>  (2632) 
C39033-P288

>  <fragmenstein_outcome>  (2632) 
acceptable

>  <inchikey>  (2632) 
UPDSNJKTZOWHBT-UHFFFAOYSA-N

>  <fragmenstein_mode>  (2632) 
expansion

>  <HIPPO Pose ID>  (2632) 
28983

>  <Energy>  (2632) 
54.091454

>  <fragmenstein_error>  (2632) 


>  <tags>  (2632) 
{'openbind_xx01zvns2b_c1_fragmenstein', 'fragmenstein_placed'}

>  <ref_pdb>  (2632) 
175

>  <scratch_subdir>  (2632) 
/opt/xchem-fragalysis-2/maxwin/BulkDock/SCRATCH/511028/C39033-P288

>  <alias>  (2632) 
CCN(c1nc2ccc(C(=O)Nc3ccc4c(c3)CNC4)cc2[nH]1)C1CCC1

>  <HIPPO Compound ID>  (2632) 
21057

>  <fragmenstein_runtime>  (2632) 
6.803806

$$$$
Clc1cc([C@@H](N=CNC[C@@H]2CCCO2)Nc2ccc3c(c2)CNC3)cc2[nH]c(NC3CCC3)nc12
     RDKit          3D

 35 40  0  0  0  0  0  0  0  0999 V2000
   -9.5513    3.8158  -17.9343 Cl  0  0  0  0  0  0  0  0  0  0  0  0
   -8.3049    4.3056  -16.8802 C   0  0  0  0  0  0  0  0  0  0  0  0
   -8.4968    4.4602  -15.5073 C   0  0  0  0  0  0  0  0  0  0  0  0
   -7.4640    4.9481  -14.6887 C   0  0  0  0  0  0  0  0  0  0  0  0
   -7.7352    5.2897  -13.2211 C   0  0  1  0  0  0  0  0  0  0  0  0
   -8.6604    6.4292  -13.1778 N   0  0  0  0  0  0  0  0  0  0  0  0
   -8.2129    7.5014  -12.8689 C   0  0  0  0  0  0  0  0  0  0  0  0
   -8.9312    8.8721  -12.6282 N   0  0  0  0  0  0  0  0  0  0  0  0
  -10.3060    9.2497  -12.8011 C   0  0  0  0  0  0  0  0  0  0  0  0
  -10.8127    9.9324  -11.5292 C   0  0  2  0  0  0  0  0  0  0  0  0
  -12.3014   10.2232  -11.5527 C   0  0  0  0  0  0  0  0  0  0  0  0
  -12.4033   11.3003  -10.5019 C   0  0  0  0  0  0  0  0  0  0  0  0
  -11.1310   12.0945  -10.7244 C   0  0  0  0  0  0  0  0  0  0  0  0
  -10.1814   11.2233  -11.3623 O   0  0  0  0  0  0  0  0  0  0  0  0
   -8.2560    4.1311  -12.5199 N   0  0  0  0  0  0  0  0  0  0  0  0
   -8.2747    4.0642  -11.1222 C   0  0  0  0  0  0  0  0  0  0  0  0
   -8.1136    5.1849  -10.2802 C   0  0  0  0  0  0  0  0  0  0  0  0
   -8.2387    5.1072   -8.8867 C   0  0  0  0  0  0  0  0  0  0  0  0
   -8.5595    3.8896   -8.3299 C   0  0  0  0  0  0  0  0  0  0  0  0
   -8.7366    2.7737   -9.1323 C   0  0  0  0  0  0  0  0  0  0  0  0
   -8.6069    2.8449  -10.5141 C   0  0  0  0  0  0  0  0  0  0  0  0
   -9.0449    1.5967   -8.2722 C   0  0  0  0  0  0  0  0  0  0  0  0
   -9.3029    2.1408   -6.9124 N   0  0  0  0  0  0  0  0  0  0  0  0
   -8.7830    3.5227   -6.9042 C   0  0  0  0  0  0  0  0  0  0  0  0
   -6.2033    5.2411  -15.2511 C   0  0  0  0  0  0  0  0  0  0  0  0
   -6.0559    5.0812  -16.6332 C   0  0  0  0  0  0  0  0  0  0  0  0
   -5.0012    5.3016  -17.4804 N   0  0  0  0  0  0  0  0  0  0  0  0
   -5.4112    5.0419  -18.7582 C   0  0  0  0  0  0  0  0  0  0  0  0
   -4.5975    5.1884  -19.8227 N   0  0  0  0  0  0  0  0  0  0  0  0
   -3.5192    6.1271  -19.9300 C   0  0  0  0  0  0  0  0  0  0  0  0
   -2.6464    5.8901  -21.1817 C   0  0  0  0  0  0  0  0  0  0  0  0
   -3.5422    6.8894  -21.9409 C   0  0  0  0  0  0  0  0  0  0  0  0
   -3.9608    7.4632  -20.5710 C   0  0  0  0  0  0  0  0  0  0  0  0
   -6.6434    4.6074  -18.7753 N   0  0  0  0  0  0  0  0  0  0  0  0
   -7.0748    4.6303  -17.4682 C   0  0  0  0  0  0  0  0  0  0  0  0
  1  2  1  0
  2  3  2  0
  3  4  1  0
  4  5  1  0
  5  6  1  0
  6  7  2  3
  7  8  1  0
  8  9  1  0
 10  9  1  6
 10 11  1  0
 11 12  1  0
 12 13  1  0
 13 14  1  0
  5 15  1  1
 15 16  1  0
 16 17  2  0
 17 18  1  0
 18 19  2  0
 19 20  1  0
 20 21  2  0
 20 22  1  0
 22 23  1  0
 23 24  1  0
  4 25  2  0
 25 26  1  0
 26 27  1  0
 27 28  1  0
 28 29  1  0
 29 30  1  0
 30 31  1  0
 31 32  1  0
 32 33  1  0
 28 34  2  0
 34 35  1  0
 35  2  1  0
 14 10  1  0
 21 16  1  0
 35 26  2  0
 24 19  1  0
 33 30  1  0
M  END
>  <smiles>  (2633) 
C39071-P289

>  <fragmenstein_outcome>  (2633) 
acceptable

>  <inchikey>  (2633) 
SASSEHMZLXPAHV-UHFFFAOYSA-N

>  <fragmenstein_mode>  (2633) 
expansion

>  <HIPPO Pose ID>  (2633) 
28991

>  <Energy>  (2633) 
22.734778

>  <fragmenstein_error>  (2633) 


>  <tags>  (2633) 
{'openbind_xx01zvns2b_c1_fragmenstein', 'fragmenstein_placed'}

>  <ref_pdb>  (2633) 
175

>  <scratch_subdir>  (2633) 
/opt/xchem-fragalysis-2/maxwin/BulkDock/SCRATCH/511028/C39071-P289

>  <alias>  (2633) 
Clc1cc([C@@H](N=CNC[C@@H]2CCCO2)Nc2ccc3c(c2)CNC3)cc2[nH]c(NC3CCC3)nc12

>  <HIPPO Compound ID>  (2633) 
42149

>  <fragmenstein_runtime>  (2633) 
10.801634

$$$$
O=C(O)CN[C@@](Nc1ccc2c(c1)CNC2)(C(=O)NCC(F)F)c1cc(Cl)c2nc(NC3CCC3)[nH]c2c1
     RDKit          3D

 38 42  0  0  0  0  0  0  0  0999 V2000
   -3.5193    2.1733  -10.3241 O   0  0  0  0  0  0  0  0  0  0  0  0
   -3.9574    2.8642  -11.2327 C   0  0  0  0  0  0  0  0  0  0  0  0
   -3.1092    3.3274  -12.1843 O   0  0  0  0  0  0  0  0  0  0  0  0
   -5.3932    3.3573  -11.3872 C   0  0  0  0  0  0  0  0  0  0  0  0
   -5.6363    3.8076  -12.7627 N   0  0  0  0  0  0  0  0  0  0  0  0
   -6.7914    4.6972  -12.9784 C   0  0  1  0  0  0  0  0  0  0  0  0
   -8.1280    4.3837  -12.3932 N   0  0  0  0  0  0  0  0  0  0  0  0
   -8.2723    4.2376  -11.0033 C   0  0  0  0  0  0  0  0  0  0  0  0
   -8.1571    5.3269  -10.1179 C   0  0  0  0  0  0  0  0  0  0  0  0
   -8.3125    5.1719   -8.7374 C   0  0  0  0  0  0  0  0  0  0  0  0
   -8.6148    3.9169   -8.2523 C   0  0  0  0  0  0  0  0  0  0  0  0
   -8.7533    2.8359   -9.1116 C   0  0  0  0  0  0  0  0  0  0  0  0
   -8.5953    2.9783  -10.4824 C   0  0  0  0  0  0  0  0  0  0  0  0
   -9.0397    1.6100   -8.3137 C   0  0  0  0  0  0  0  0  0  0  0  0
   -9.3305    2.0813   -6.9336 N   0  0  0  0  0  0  0  0  0  0  0  0
   -8.8456    3.4733   -6.8492 C   0  0  0  0  0  0  0  0  0  0  0  0
   -6.3246    6.2317  -12.5226 C   0  0  0  0  0  0  0  0  0  0  0  0
   -5.3265    6.4263  -11.9387 O   0  0  0  0  0  0  0  0  0  0  0  0
   -7.4442    7.2251  -12.9717 N   0  0  0  0  0  0  0  0  0  0  0  0
   -7.6061    8.6425  -12.7088 C   0  0  0  0  0  0  0  0  0  0  0  0
   -8.9914    8.9828  -12.1671 C   0  0  0  0  0  0  0  0  0  0  0  0
   -9.1912    8.3591  -10.9816 F   0  0  0  0  0  0  0  0  0  0  0  0
   -9.9310    8.4995  -13.0227 F   0  0  0  0  0  0  0  0  0  0  0  0
   -6.9653    4.7423  -14.5537 C   0  0  0  0  0  0  0  0  0  0  0  0
   -8.1455    4.3157  -15.2071 C   0  0  0  0  0  0  0  0  0  0  0  0
   -8.2373    4.3266  -16.6036 C   0  0  0  0  0  0  0  0  0  0  0  0
   -9.6364    3.8907  -17.4776 Cl  0  0  0  0  0  0  0  0  0  0  0  0
   -7.1544    4.7373  -17.3852 C   0  0  0  0  0  0  0  0  0  0  0  0
   -7.0063    4.8446  -18.7424 N   0  0  0  0  0  0  0  0  0  0  0  0
   -5.8022    5.3058  -18.9428 C   0  0  0  0  0  0  0  0  0  0  0  0
   -5.2708    5.6238  -20.1367 N   0  0  0  0  0  0  0  0  0  0  0  0
   -4.1904    6.5383  -20.3617 C   0  0  0  0  0  0  0  0  0  0  0  0
   -3.1151    5.9674  -21.3083 C   0  0  0  0  0  0  0  0  0  0  0  0
   -3.8518    6.6465  -22.4808 C   0  0  0  0  0  0  0  0  0  0  0  0
   -4.4998    7.5884  -21.4517 C   0  0  0  0  0  0  0  0  0  0  0  0
   -5.1287    5.4379  -17.7599 N   0  0  0  0  0  0  0  0  0  0  0  0
   -5.9961    5.1444  -16.7385 C   0  0  0  0  0  0  0  0  0  0  0  0
   -5.8669    5.1757  -15.3471 C   0  0  0  0  0  0  0  0  0  0  0  0
  1  2  2  0
  2  3  1  0
  2  4  1  0
  4  5  1  0
  6  5  1  6
  6  7  1  0
  7  8  1  0
  8  9  2  0
  9 10  1  0
 10 11  2  0
 11 12  1  0
 12 13  2  0
 12 14  1  0
 14 15  1  0
 15 16  1  0
  6 17  1  0
 17 18  2  0
 17 19  1  0
 19 20  1  0
 20 21  1  0
 21 22  1  0
 21 23  1  0
  6 24  1  0
 24 25  2  0
 25 26  1  0
 26 27  1  0
 26 28  2  0
 28 29  1  0
 29 30  2  0
 30 31  1  0
 31 32  1  0
 32 33  1  0
 33 34  1  0
 34 35  1  0
 30 36  1  0
 36 37  1  0
 37 38  2  0
 13  8  1  0
 38 24  1  0
 16 11  1  0
 37 28  1  0
 35 32  1  0
M  END
>  <smiles>  (2634) 
C39099-P289

>  <fragmenstein_outcome>  (2634) 
acceptable

>  <inchikey>  (2634) 
LWKWWYUMOQWSDQ-UHFFFAOYSA-N

>  <fragmenstein_mode>  (2634) 
expansion

>  <HIPPO Pose ID>  (2634) 
29010

>  <Energy>  (2634) 
142.671142

>  <fragmenstein_error>  (2634) 


>  <tags>  (2634) 
{'openbind_xx01zvns2b_c1_fragmenstein', 'fragmenstein_placed'}

>  <ref_pdb>  (2634) 
175

>  <scratch_subdir>  (2634) 
/opt/xchem-fragalysis-2/maxwin/BulkDock/SCRATCH/511028/C39099-P289

>  <alias>  (2634) 
O=C(O)CN[C@@](Nc1ccc2c(c1)CNC2)(C(=O)NCC(F)F)c1cc(Cl)c2nc(NC3CCC3)[nH]c2c1

>  <HIPPO Compound ID>  (2634) 
31613

>  <fragmenstein_runtime>  (2634) 
7.056894

$$$$
O=C(O)c1cc(Cl)c2n[nH]c(CC3CNC3)c2c1
     RDKit          3D

 18 20  0  0  0  0  0  0  0  0999 V2000
   -7.0543    5.3179  -12.6488 O   0  0  0  0  0  0  0  0  0  0  0  0
   -7.7135    4.5753  -13.3595 C   0  0  0  0  0  0  0  0  0  0  0  0
   -8.6370    3.7286  -12.8628 O   0  0  0  0  0  0  0  0  0  0  0  0
   -7.5446    4.5534  -14.8350 C   0  0  0  0  0  0  0  0  0  0  0  0
   -8.6614    4.2638  -15.6754 C   0  0  0  0  0  0  0  0  0  0  0  0
   -8.5691    4.2486  -17.0731 C   0  0  0  0  0  0  0  0  0  0  0  0
   -9.8792    3.9577  -18.1039 Cl  0  0  0  0  0  0  0  0  0  0  0  0
   -7.3074    4.5477  -17.6129 C   0  0  0  0  0  0  0  0  0  0  0  0
   -6.8662    4.6113  -18.8732 N   0  0  0  0  0  0  0  0  0  0  0  0
   -5.5701    4.9141  -18.7953 N   0  0  0  0  0  0  0  0  0  0  0  0
   -5.1044    5.0830  -17.5165 C   0  0  0  0  0  0  0  0  0  0  0  0
   -3.6722    5.3737  -17.2433 C   0  0  0  0  0  0  0  0  0  0  0  0
   -3.3165    6.8135  -17.5976 C   0  0  0  0  0  0  0  0  0  0  0  0
   -1.9082    7.2598  -17.1587 C   0  0  0  0  0  0  0  0  0  0  0  0
   -2.5049    7.9085  -15.9736 N   0  0  0  0  0  0  0  0  0  0  0  0
   -3.8187    7.9187  -16.6472 C   0  0  0  0  0  0  0  0  0  0  0  0
   -6.2079    4.8603  -16.7275 C   0  0  0  0  0  0  0  0  0  0  0  0
   -6.2559    4.8876  -15.3330 C   0  0  0  0  0  0  0  0  0  0  0  0
  1  2  2  0
  2  3  1  0
  2  4  1  0
  4  5  1  0
  5  6  2  0
  6  7  1  0
  6  8  1  0
  8  9  2  0
  9 10  1  0
 10 11  1  0
 11 12  1  0
 12 13  1  0
 13 14  1  0
 14 15  1  0
 15 16  1  0
 11 17  2  0
 17 18  1  0
 18  4  2  0
 17  8  1  0
 16 13  1  0
M  END
>  <smiles>  (2635) 
C39189-P289

>  <fragmenstein_outcome>  (2635) 
acceptable

>  <inchikey>  (2635) 
DXJRPEPFEVWRMS-UHFFFAOYSA-N

>  <fragmenstein_mode>  (2635) 
expansion

>  <HIPPO Pose ID>  (2635) 
29030

>  <Energy>  (2635) 
53.409321

>  <fragmenstein_error>  (2635) 


>  <tags>  (2635) 
{'openbind_xx01zvns2b_c1_fragmenstein', 'fragmenstein_placed'}

>  <ref_pdb>  (2635) 
175

>  <scratch_subdir>  (2635) 
/opt/xchem-fragalysis-2/maxwin/BulkDock/SCRATCH/511028/C39189-P289

>  <alias>  (2635) 
O=C(O)c1cc(Cl)c2n[nH]c(CC3CNC3)c2c1

>  <HIPPO Compound ID>  (2635) 
34354

>  <fragmenstein_runtime>  (2635) 
9.134273

$$$$
Cn1c(CC2CNC2)c2cc(C(=O)Nc3ccc4c(c3)CNC4)cc(Cl)c2[n+]1[O-]
     RDKit          3D

 29 33  0  0  0  0  0  0  0  0999 V2000
   -4.9031    5.3875  -20.2428 C   0  0  0  0  0  0  0  0  0  0  0  0
   -5.4671    4.9846  -18.9790 N   0  0  0  0  0  0  0  0  0  0  0  0
   -4.9808    5.3007  -17.7168 C   0  0  0  0  0  0  0  0  0  0  0  0
   -3.5836    5.7433  -17.4434 C   0  0  0  0  0  0  0  0  0  0  0  0
   -3.3942    7.2177  -17.7361 C   0  0  0  0  0  0  0  0  0  0  0  0
   -2.0797    7.8453  -17.2278 C   0  0  0  0  0  0  0  0  0  0  0  0
   -2.8507    9.0766  -16.9086 N   0  0  0  0  0  0  0  0  0  0  0  0
   -4.0650    8.2341  -16.7879 C   0  0  0  0  0  0  0  0  0  0  0  0
   -6.0812    5.0635  -16.8884 C   0  0  0  0  0  0  0  0  0  0  0  0
   -6.0984    5.3208  -15.5172 C   0  0  0  0  0  0  0  0  0  0  0  0
   -7.3506    5.0019  -14.9306 C   0  0  0  0  0  0  0  0  0  0  0  0
   -7.5360    5.4127  -13.5154 C   0  0  0  0  0  0  0  0  0  0  0  0
   -7.3802    6.5394  -13.2510 O   0  0  0  0  0  0  0  0  0  0  0  0
   -7.9491    4.2217  -12.6212 N   0  0  0  0  0  0  0  0  0  0  0  0
   -8.1574    4.1524  -11.2434 C   0  0  0  0  0  0  0  0  0  0  0  0
   -8.0210    5.2910  -10.4316 C   0  0  0  0  0  0  0  0  0  0  0  0
   -8.2252    5.2192   -9.0491 C   0  0  0  0  0  0  0  0  0  0  0  0
   -8.5757    3.9993   -8.5037 C   0  0  0  0  0  0  0  0  0  0  0  0
   -8.7038    2.8666   -9.3021 C   0  0  0  0  0  0  0  0  0  0  0  0
   -8.4960    2.9220  -10.6716 C   0  0  0  0  0  0  0  0  0  0  0  0
   -9.0433    1.7005   -8.4329 C   0  0  0  0  0  0  0  0  0  0  0  0
   -9.4979    2.2968   -7.1492 N   0  0  0  0  0  0  0  0  0  0  0  0
   -8.8560    3.6287   -7.0857 C   0  0  0  0  0  0  0  0  0  0  0  0
   -8.4722    4.4595  -15.6392 C   0  0  0  0  0  0  0  0  0  0  0  0
   -8.4376    4.1954  -17.0171 C   0  0  0  0  0  0  0  0  0  0  0  0
   -9.7681    3.7455  -17.9468 Cl  0  0  0  0  0  0  0  0  0  0  0  0
   -7.2333    4.5012  -17.6268 C   0  0  0  0  0  0  0  0  0  0  0  0
   -6.7994    4.3383  -18.8940 N   0  0  0  0  0  0  0  0  0  0  0  0
   -7.1820    3.5746  -19.8209 O   0  0  0  0  0  0  0  0  0  0  0  0
  1  2  1  0
  2  3  1  0
  3  4  1  0
  4  5  1  0
  5  6  1  0
  6  7  1  0
  7  8  1  0
  3  9  2  0
  9 10  1  0
 10 11  2  0
 11 12  1  0
 12 13  2  0
 12 14  1  0
 14 15  1  0
 15 16  2  0
 16 17  1  0
 17 18  2  0
 18 19  1  0
 19 20  2  0
 19 21  1  0
 21 22  1  0
 22 23  1  0
 11 24  1  0
 24 25  2  0
 25 26  1  0
 25 27  1  0
 27 28  2  0
 28 29  1  0
 28  2  1  0
  8  5  1  0
 27  9  1  0
 20 15  1  0
 23 18  1  0
M  CHG  2  28   1  29  -1
M  END
>  <smiles>  (2636) 
C35544-P289

>  <fragmenstein_outcome>  (2636) 
acceptable

>  <inchikey>  (2636) 
LJFZINHVZMOIMY-UHFFFAOYSA-N

>  <fragmenstein_mode>  (2636) 
expansion

>  <HIPPO Pose ID>  (2636) 
29031

>  <Energy>  (2636) 
76.344786

>  <fragmenstein_error>  (2636) 


>  <tags>  (2636) 
{'openbind_xx01zvns2b_c1_fragmenstein', 'fragmenstein_placed'}

>  <ref_pdb>  (2636) 
175

>  <scratch_subdir>  (2636) 
/opt/xchem-fragalysis-2/maxwin/BulkDock/SCRATCH/511028/C35544-P289

>  <alias>  (2636) 
Cn1c(CC2CNC2)c2cc(C(=O)Nc3ccc4c(c3)CNC4)cc(Cl)c2[n+]1[O-]

>  <HIPPO Compound ID>  (2636) 
35544

>  <fragmenstein_runtime>  (2636) 
9.778816

$$$$
O=C(NCC1CCOCC1)[C@@](O)(Nc1ccc2c(c1)CNC2)c1cc(Cl)c2n[nH]c(CC3CNC3)c2c1
     RDKit          3D

 37 42  0  0  0  0  0  0  0  0999 V2000
   -8.8466    6.8440  -13.1373 O   0  0  0  0  0  0  0  0  0  0  0  0
   -7.6662    6.7465  -12.9431 C   0  0  0  0  0  0  0  0  0  0  0  0
   -6.6919    7.7358  -12.5270 N   0  0  0  0  0  0  0  0  0  0  0  0
   -6.8535    9.1108  -12.1281 C   0  0  0  0  0  0  0  0  0  0  0  0
   -7.1604   10.0401  -13.3141 C   0  0  0  0  0  0  0  0  0  0  0  0
   -6.0614   10.0057  -14.3814 C   0  0  0  0  0  0  0  0  0  0  0  0
   -4.7449   10.5891  -13.8696 C   0  0  0  0  0  0  0  0  0  0  0  0
   -4.9262   11.5198  -12.8000 O   0  0  0  0  0  0  0  0  0  0  0  0
   -6.0831   12.3305  -12.9710 C   0  0  0  0  0  0  0  0  0  0  0  0
   -7.3516   11.4895  -12.8322 C   0  0  0  0  0  0  0  0  0  0  0  0
   -6.8852    5.3430  -13.1389 C   0  0  1  0  0  0  0  0  0  0  0  0
   -5.5519    5.3985  -12.6506 O   0  0  0  0  0  0  0  0  0  0  0  0
   -7.5208    4.2435  -12.4253 N   0  0  0  0  0  0  0  0  0  0  0  0
   -7.8047    4.1683  -11.0656 C   0  0  0  0  0  0  0  0  0  0  0  0
   -7.7430    5.2604  -10.1747 C   0  0  0  0  0  0  0  0  0  0  0  0
   -8.0826    5.1460   -8.8184 C   0  0  0  0  0  0  0  0  0  0  0  0
   -8.5154    3.9237   -8.3570 C   0  0  0  0  0  0  0  0  0  0  0  0
   -8.6031    2.8372   -9.2155 C   0  0  0  0  0  0  0  0  0  0  0  0
   -8.2650    2.9433  -10.5565 C   0  0  0  0  0  0  0  0  0  0  0  0
   -9.0625    1.6478   -8.4404 C   0  0  0  0  0  0  0  0  0  0  0  0
   -9.6295    2.2050   -7.1826 N   0  0  0  0  0  0  0  0  0  0  0  0
   -8.9392    3.5000   -6.9910 C   0  0  0  0  0  0  0  0  0  0  0  0
   -6.8486    5.0474  -14.6535 C   0  0  0  0  0  0  0  0  0  0  0  0
   -8.0489    4.5501  -15.2816 C   0  0  0  0  0  0  0  0  0  0  0  0
   -8.1481    4.3148  -16.6596 C   0  0  0  0  0  0  0  0  0  0  0  0
   -9.5287    3.7714  -17.4645 Cl  0  0  0  0  0  0  0  0  0  0  0  0
   -7.0111    4.6061  -17.4250 C   0  0  0  0  0  0  0  0  0  0  0  0
   -6.7774    4.5130  -18.7399 N   0  0  0  0  0  0  0  0  0  0  0  0
   -5.5362    4.9630  -18.9225 N   0  0  0  0  0  0  0  0  0  0  0  0
   -4.8836    5.3026  -17.7617 C   0  0  0  0  0  0  0  0  0  0  0  0
   -3.4646    5.7451  -17.7539 C   0  0  0  0  0  0  0  0  0  0  0  0
   -3.3284    7.2149  -18.1410 C   0  0  0  0  0  0  0  0  0  0  0  0
   -1.9154    7.8073  -17.9581 C   0  0  0  0  0  0  0  0  0  0  0  0
   -2.3447    8.3764  -16.6634 N   0  0  0  0  0  0  0  0  0  0  0  0
   -3.7519    8.2703  -17.0990 C   0  0  0  0  0  0  0  0  0  0  0  0
   -5.8248    5.1045  -16.7780 C   0  0  0  0  0  0  0  0  0  0  0  0
   -5.6705    5.3388  -15.4086 C   0  0  0  0  0  0  0  0  0  0  0  0
  1  2  2  0
  2  3  1  0
  3  4  1  0
  4  5  1  0
  5  6  1  0
  6  7  1  0
  7  8  1  0
  8  9  1  0
  9 10  1  0
  2 11  1  0
 11 12  1  1
 11 13  1  0
 13 14  1  0
 14 15  2  0
 15 16  1  0
 16 17  2  0
 17 18  1  0
 18 19  2  0
 18 20  1  0
 20 21  1  0
 21 22  1  0
 11 23  1  0
 23 24  1  0
 24 25  2  0
 25 26  1  0
 25 27  1  0
 27 28  2  0
 28 29  1  0
 29 30  1  0
 30 31  1  0
 31 32  1  0
 32 33  1  0
 33 34  1  0
 34 35  1  0
 30 36  2  0
 36 37  1  0
 10  5  1  0
 19 14  1  0
 37 23  2  0
 22 17  1  0
 36 27  1  0
 35 32  1  0
M  END
>  <smiles>  (2637) 
C35557-P290

>  <fragmenstein_outcome>  (2637) 
acceptable

>  <inchikey>  (2637) 
YSDRLJQCPXRTLF-UHFFFAOYSA-N

>  <fragmenstein_mode>  (2637) 
expansion

>  <HIPPO Pose ID>  (2637) 
29038

>  <Energy>  (2637) 
134.597951

>  <fragmenstein_error>  (2637) 


>  <tags>  (2637) 
{'openbind_xx01zvns2b_c1_fragmenstein', 'fragmenstein_placed'}

>  <ref_pdb>  (2637) 
175

>  <scratch_subdir>  (2637) 
/opt/xchem-fragalysis-2/maxwin/BulkDock/SCRATCH/511028/C35557-P290

>  <alias>  (2637) 
O=C(NCC1CCOCC1)[C@@](O)(Nc1ccc2c(c1)CNC2)c1cc(Cl)c2n[nH]c(CC3CNC3)c2c1

>  <HIPPO Compound ID>  (2637) 
21643

>  <fragmenstein_runtime>  (2637) 
11.347902

$$$$
O=C(Nc1ccc2c(c1)CNC2)c1cc(Cl)c2c(c1)c(CC1CNC1)[nH][n+]2[O-]
     RDKit          3D

 28 32  0  0  0  0  0  0  0  0999 V2000
   -6.6789    6.4100  -13.1960 O   0  0  0  0  0  0  0  0  0  0  0  0
   -7.0711    5.3526  -13.4992 C   0  0  0  0  0  0  0  0  0  0  0  0
   -7.6380    4.2059  -12.6290 N   0  0  0  0  0  0  0  0  0  0  0  0
   -7.9188    4.1587  -11.2642 C   0  0  0  0  0  0  0  0  0  0  0  0
   -7.7828    5.2962  -10.4521 C   0  0  0  0  0  0  0  0  0  0  0  0
   -8.0573    5.2371   -9.0809 C   0  0  0  0  0  0  0  0  0  0  0  0
   -8.4667    4.0296   -8.5476 C   0  0  0  0  0  0  0  0  0  0  0  0
   -8.6006    2.8999   -9.3489 C   0  0  0  0  0  0  0  0  0  0  0  0
   -8.3382    2.9455  -10.7086 C   0  0  0  0  0  0  0  0  0  0  0  0
   -8.9982    1.7430   -8.4923 C   0  0  0  0  0  0  0  0  0  0  0  0
   -9.4666    2.3487   -7.2182 N   0  0  0  0  0  0  0  0  0  0  0  0
   -8.7975    3.6663   -7.1385 C   0  0  0  0  0  0  0  0  0  0  0  0
   -7.0645    4.9868  -14.9425 C   0  0  0  0  0  0  0  0  0  0  0  0
   -8.2854    4.5174  -15.5258 C   0  0  0  0  0  0  0  0  0  0  0  0
   -8.4012    4.2424  -16.8928 C   0  0  0  0  0  0  0  0  0  0  0  0
   -9.8254    3.8606  -17.6827 Cl  0  0  0  0  0  0  0  0  0  0  0  0
   -7.2600    4.4750  -17.6332 C   0  0  0  0  0  0  0  0  0  0  0  0
   -6.0147    4.9880  -17.0369 C   0  0  0  0  0  0  0  0  0  0  0  0
   -5.8692    5.2398  -15.6693 C   0  0  0  0  0  0  0  0  0  0  0  0
   -4.9986    5.1010  -17.9890 C   0  0  0  0  0  0  0  0  0  0  0  0
   -3.5435    5.3583  -17.9004 C   0  0  0  0  0  0  0  0  0  0  0  0
   -3.1705    6.8291  -17.9939 C   0  0  0  0  0  0  0  0  0  0  0  0
   -1.7083    7.0707  -17.5570 C   0  0  0  0  0  0  0  0  0  0  0  0
   -2.2117    7.4050  -16.2040 N   0  0  0  0  0  0  0  0  0  0  0  0
   -3.5038    7.7812  -16.8220 C   0  0  0  0  0  0  0  0  0  0  0  0
   -5.6225    4.7298  -19.1647 N   0  0  0  0  0  0  0  0  0  0  0  0
   -6.9674    4.2367  -18.9269 N   0  0  0  0  0  0  0  0  0  0  0  0
   -7.4421    3.4367  -19.7666 O   0  0  0  0  0  0  0  0  0  0  0  0
  1  2  2  0
  2  3  1  0
  3  4  1  0
  4  5  2  0
  5  6  1  0
  6  7  2  0
  7  8  1  0
  8  9  2  0
  8 10  1  0
 10 11  1  0
 11 12  1  0
  2 13  1  0
 13 14  1  0
 14 15  2  0
 15 16  1  0
 15 17  1  0
 17 18  1  0
 18 19  1  0
 18 20  2  0
 20 21  1  0
 21 22  1  0
 22 23  1  0
 23 24  1  0
 24 25  1  0
 20 26  1  0
 26 27  1  0
 27 28  1  0
  9  4  1  0
 19 13  2  0
 25 22  1  0
 12  7  1  0
 27 17  2  0
M  CHG  2  27   1  28  -1
M  END
>  <smiles>  (2638) 
C35598-P290

>  <fragmenstein_outcome>  (2638) 
acceptable

>  <inchikey>  (2638) 
NILPMFQISOIIAX-UHFFFAOYSA-N

>  <fragmenstein_mode>  (2638) 
expansion

>  <HIPPO Pose ID>  (2638) 
29039

>  <Energy>  (2638) 
71.687935

>  <fragmenstein_error>  (2638) 


>  <tags>  (2638) 
{'openbind_xx01zvns2b_c1_fragmenstein', 'fragmenstein_placed'}

>  <ref_pdb>  (2638) 
175

>  <scratch_subdir>  (2638) 
/opt/xchem-fragalysis-2/maxwin/BulkDock/SCRATCH/511028/C35598-P290

>  <alias>  (2638) 
O=C(Nc1ccc2c(c1)CNC2)c1cc(Cl)c2c(c1)c(CC1CNC1)[nH][n+]2[O-]

>  <HIPPO Compound ID>  (2638) 
35598

>  <fragmenstein_runtime>  (2638) 
7.797944

$$$$
O=C(Nc1ccc2c(c1)CNC2=O)c1cc(Cl)c2n[nH]c(CC3CNC3)c2c1
     RDKit          3D

 28 32  0  0  0  0  0  0  0  0999 V2000
   -6.6680    6.3506  -13.0545 O   0  0  0  0  0  0  0  0  0  0  0  0
   -7.1181    5.3134  -13.3492 C   0  0  0  0  0  0  0  0  0  0  0  0
   -7.8130    4.2364  -12.4786 N   0  0  0  0  0  0  0  0  0  0  0  0
   -8.0062    4.1734  -11.0988 C   0  0  0  0  0  0  0  0  0  0  0  0
   -7.7730    5.3052  -10.2950 C   0  0  0  0  0  0  0  0  0  0  0  0
   -7.9512    5.2512   -8.9103 C   0  0  0  0  0  0  0  0  0  0  0  0
   -8.3521    4.0474   -8.3685 C   0  0  0  0  0  0  0  0  0  0  0  0
   -8.5921    2.9163   -9.1455 C   0  0  0  0  0  0  0  0  0  0  0  0
   -8.4367    2.9684  -10.5234 C   0  0  0  0  0  0  0  0  0  0  0  0
   -8.9587    1.7722   -8.2583 C   0  0  0  0  0  0  0  0  0  0  0  0
   -9.0089    2.3862   -6.9477 N   0  0  0  0  0  0  0  0  0  0  0  0
   -8.5753    3.6935   -6.9617 C   0  0  0  0  0  0  0  0  0  0  0  0
   -8.3870    4.4274   -6.0100 O   0  0  0  0  0  0  0  0  0  0  0  0
   -7.1165    4.9420  -14.7926 C   0  0  0  0  0  0  0  0  0  0  0  0
   -8.3403    4.4977  -15.3764 C   0  0  0  0  0  0  0  0  0  0  0  0
   -8.4528    4.2640  -16.7506 C   0  0  0  0  0  0  0  0  0  0  0  0
   -9.8852    3.8911  -17.5500 Cl  0  0  0  0  0  0  0  0  0  0  0  0
   -7.3081    4.4818  -17.5297 C   0  0  0  0  0  0  0  0  0  0  0  0
   -7.0884    4.3573  -18.8447 N   0  0  0  0  0  0  0  0  0  0  0  0
   -5.8329    4.7693  -19.0401 N   0  0  0  0  0  0  0  0  0  0  0  0
   -5.1578    5.0727  -17.8825 C   0  0  0  0  0  0  0  0  0  0  0  0
   -3.7188    5.4308  -17.8634 C   0  0  0  0  0  0  0  0  0  0  0  0
   -3.5154    6.9036  -18.1529 C   0  0  0  0  0  0  0  0  0  0  0  0
   -2.0420    7.3595  -18.1704 C   0  0  0  0  0  0  0  0  0  0  0  0
   -2.3865    8.2386  -19.3124 N   0  0  0  0  0  0  0  0  0  0  0  0
   -3.5120    7.3360  -19.6392 C   0  0  0  0  0  0  0  0  0  0  0  0
   -6.0994    4.9332  -16.8930 C   0  0  0  0  0  0  0  0  0  0  0  0
   -5.9278    5.1863  -15.5308 C   0  0  0  0  0  0  0  0  0  0  0  0
  1  2  2  0
  2  3  1  0
  3  4  1  0
  4  5  2  0
  5  6  1  0
  6  7  2  0
  7  8  1  0
  8  9  2  0
  8 10  1  0
 10 11  1  0
 11 12  1  0
 12 13  2  0
  2 14  1  0
 14 15  1  0
 15 16  2  0
 16 17  1  0
 16 18  1  0
 18 19  2  0
 19 20  1  0
 20 21  1  0
 21 22  1  0
 22 23  1  0
 23 24  1  0
 24 25  1  0
 25 26  1  0
 21 27  2  0
 27 28  1  0
  9  4  1  0
 28 14  2  0
 12  7  1  0
 27 18  1  0
 26 23  1  0
M  END
>  <smiles>  (2639) 
C35589-P290

>  <fragmenstein_outcome>  (2639) 
acceptable

>  <inchikey>  (2639) 
CTKGYDJKCJXAHH-UHFFFAOYSA-N

>  <fragmenstein_mode>  (2639) 
expansion

>  <HIPPO Pose ID>  (2639) 
29047

>  <Energy>  (2639) 
68.413895

>  <fragmenstein_error>  (2639) 


>  <tags>  (2639) 
{'openbind_xx01zvns2b_c1_fragmenstein', 'fragmenstein_placed'}

>  <ref_pdb>  (2639) 
175

>  <scratch_subdir>  (2639) 
/opt/xchem-fragalysis-2/maxwin/BulkDock/SCRATCH/511028/C35589-P290

>  <alias>  (2639) 
O=C(Nc1ccc2c(c1)CNC2=O)c1cc(Cl)c2n[nH]c(CC3CNC3)c2c1

>  <HIPPO Compound ID>  (2639) 
35589

>  <fragmenstein_runtime>  (2639) 
7.512033

$$$$
O=C(O)N=C(Nc1ccc2c(c1)CNC2)c1cc(Cl)c2n[nH]c(CC3CNC3)c2c1
     RDKit          3D

 30 34  0  0  0  0  0  0  0  0999 V2000
   -4.8620    4.7623  -11.1420 O   0  0  0  0  0  0  0  0  0  0  0  0
   -5.3143    5.7040  -11.7668 C   0  0  0  0  0  0  0  0  0  0  0  0
   -5.3098    6.9736  -11.3298 O   0  0  0  0  0  0  0  0  0  0  0  0
   -5.8144    5.7084  -13.0235 N   0  0  0  0  0  0  0  0  0  0  0  0
   -6.6732    4.9133  -13.3839 C   0  0  0  0  0  0  0  0  0  0  0  0
   -7.7219    4.0599  -12.5306 N   0  0  0  0  0  0  0  0  0  0  0  0
   -7.9963    4.0644  -11.1652 C   0  0  0  0  0  0  0  0  0  0  0  0
   -7.9667    5.2310  -10.3807 C   0  0  0  0  0  0  0  0  0  0  0  0
   -8.2234    5.2006   -9.0044 C   0  0  0  0  0  0  0  0  0  0  0  0
   -8.5554    3.9900   -8.4314 C   0  0  0  0  0  0  0  0  0  0  0  0
   -8.6232    2.8336   -9.1978 C   0  0  0  0  0  0  0  0  0  0  0  0
   -8.3345    2.8507  -10.5510 C   0  0  0  0  0  0  0  0  0  0  0  0
   -8.9982    1.6862   -8.3213 C   0  0  0  0  0  0  0  0  0  0  0  0
   -9.5073    2.3106   -7.0707 N   0  0  0  0  0  0  0  0  0  0  0  0
   -8.8732    3.6471   -7.0154 C   0  0  0  0  0  0  0  0  0  0  0  0
   -6.8449    4.7850  -14.8857 C   0  0  0  0  0  0  0  0  0  0  0  0
   -8.1268    4.4730  -15.4334 C   0  0  0  0  0  0  0  0  0  0  0  0
   -8.3185    4.3236  -16.8126 C   0  0  0  0  0  0  0  0  0  0  0  0
   -9.7766    3.9409  -17.5601 Cl  0  0  0  0  0  0  0  0  0  0  0  0
   -7.2129    4.5529  -17.6408 C   0  0  0  0  0  0  0  0  0  0  0  0
   -7.0741    4.5003  -18.9692 N   0  0  0  0  0  0  0  0  0  0  0  0
   -5.8049    4.8283  -19.2165 N   0  0  0  0  0  0  0  0  0  0  0  0
   -5.0486    5.0191  -18.0845 C   0  0  0  0  0  0  0  0  0  0  0  0
   -3.5753    5.1789  -18.1426 C   0  0  0  0  0  0  0  0  0  0  0  0
   -3.1018    6.6246  -18.1290 C   0  0  0  0  0  0  0  0  0  0  0  0
   -3.0570    7.3728  -16.7797 C   0  0  0  0  0  0  0  0  0  0  0  0
   -1.6823    6.8666  -16.5824 N   0  0  0  0  0  0  0  0  0  0  0  0
   -1.5596    6.7372  -18.0544 C   0  0  0  0  0  0  0  0  0  0  0  0
   -5.9496    4.8975  -17.0534 C   0  0  0  0  0  0  0  0  0  0  0  0
   -5.6883    5.0035  -15.6873 C   0  0  0  0  0  0  0  0  0  0  0  0
  1  2  2  0
  2  3  1  0
  2  4  1  0
  4  5  2  3
  5  6  1  0
  6  7  1  0
  7  8  2  0
  8  9  1  0
  9 10  2  0
 10 11  1  0
 11 12  2  0
 11 13  1  0
 13 14  1  0
 14 15  1  0
  5 16  1  0
 16 17  1  0
 17 18  2  0
 18 19  1  0
 18 20  1  0
 20 21  2  0
 21 22  1  0
 22 23  1  0
 23 24  1  0
 24 25  1  0
 25 26  1  0
 26 27  1  0
 27 28  1  0
 23 29  2  0
 29 30  1  0
 12  7  1  0
 30 16  2  0
 15 10  1  0
 29 20  1  0
 28 25  1  0
M  END
>  <smiles>  (2640) 
C35599-P290

>  <fragmenstein_outcome>  (2640) 
acceptable

>  <inchikey>  (2640) 
MPRLNEHJIGLLSE-UHFFFAOYSA-N

>  <fragmenstein_mode>  (2640) 
expansion

>  <HIPPO Pose ID>  (2640) 
29050

>  <Energy>  (2640) 
36.027826

>  <fragmenstein_error>  (2640) 


>  <tags>  (2640) 
{'openbind_xx01zvns2b_c1_fragmenstein', 'fragmenstein_placed'}

>  <ref_pdb>  (2640) 
175

>  <scratch_subdir>  (2640) 
/opt/xchem-fragalysis-2/maxwin/BulkDock/SCRATCH/511028/C35599-P290

>  <alias>  (2640) 
O=C(O)N=C(Nc1ccc2c(c1)CNC2)c1cc(Cl)c2n[nH]c(CC3CNC3)c2c1

>  <HIPPO Compound ID>  (2640) 
35599

>  <fragmenstein_runtime>  (2640) 
7.888127

$$$$
CNCn1nc2c(Cl)cc(C(=O)Nc3cc(Br)c4c(c3)CNC4)cc2c1CC1CNC1
     RDKit          3D

 31 35  0  0  0  0  0  0  0  0999 V2000
   -3.8450    6.6058  -21.7396 C   0  0  0  0  0  0  0  0  0  0  0  0
   -4.2600    5.6543  -20.7145 N   0  0  0  0  0  0  0  0  0  0  0  0
   -5.3625    6.2357  -19.9410 C   0  0  0  0  0  0  0  0  0  0  0  0
   -5.6811    5.3667  -18.8044 N   0  0  0  0  0  0  0  0  0  0  0  0
   -6.9216    4.8469  -18.6993 N   0  0  0  0  0  0  0  0  0  0  0  0
   -7.1295    4.6852  -17.3832 C   0  0  0  0  0  0  0  0  0  0  0  0
   -8.2611    4.3145  -16.6355 C   0  0  0  0  0  0  0  0  0  0  0  0
   -9.6645    3.8827  -17.4546 Cl  0  0  0  0  0  0  0  0  0  0  0  0
   -8.1645    4.4211  -15.2418 C   0  0  0  0  0  0  0  0  0  0  0  0
   -6.9495    4.8187  -14.6108 C   0  0  0  0  0  0  0  0  0  0  0  0
   -6.9577    5.1514  -13.1607 C   0  0  0  0  0  0  0  0  0  0  0  0
   -6.4617    6.1563  -12.8339 O   0  0  0  0  0  0  0  0  0  0  0  0
   -7.6598    4.0629  -12.3215 N   0  0  0  0  0  0  0  0  0  0  0  0
   -7.9716    4.0275  -10.9663 C   0  0  0  0  0  0  0  0  0  0  0  0
   -7.7844    5.1577  -10.1548 C   0  0  0  0  0  0  0  0  0  0  0  0
   -8.0519    5.0969   -8.7850 C   0  0  0  0  0  0  0  0  0  0  0  0
   -7.7690    6.6200   -7.7041 Br  0  0  0  0  0  0  0  0  0  0  0  0
   -8.4948    3.9055   -8.2436 C   0  0  0  0  0  0  0  0  0  0  0  0
   -8.6815    2.7900   -9.0536 C   0  0  0  0  0  0  0  0  0  0  0  0
   -8.4446    2.8352  -10.4182 C   0  0  0  0  0  0  0  0  0  0  0  0
   -9.0590    1.6221   -8.2078 C   0  0  0  0  0  0  0  0  0  0  0  0
   -9.3690    2.1773   -6.8692 N   0  0  0  0  0  0  0  0  0  0  0  0
   -8.7949    3.5385   -6.8303 C   0  0  0  0  0  0  0  0  0  0  0  0
   -5.7425    5.0747  -15.3062 C   0  0  0  0  0  0  0  0  0  0  0  0
   -5.9169    5.0197  -16.6858 C   0  0  0  0  0  0  0  0  0  0  0  0
   -4.9589    5.2761  -17.6343 C   0  0  0  0  0  0  0  0  0  0  0  0
   -3.4852    5.4213  -17.5622 C   0  0  0  0  0  0  0  0  0  0  0  0
   -2.9856    6.8553  -17.4867 C   0  0  0  0  0  0  0  0  0  0  0  0
   -1.4993    6.9227  -17.0794 C   0  0  0  0  0  0  0  0  0  0  0  0
   -1.9338    7.1176  -15.6765 N   0  0  0  0  0  0  0  0  0  0  0  0
   -3.2134    7.6598  -16.1876 C   0  0  0  0  0  0  0  0  0  0  0  0
  1  2  1  0
  2  3  1  0
  3  4  1  0
  4  5  1  0
  5  6  2  0
  6  7  1  0
  7  8  1  0
  7  9  2  0
  9 10  1  0
 10 11  1  0
 11 12  2  0
 11 13  1  0
 13 14  1  0
 14 15  2  0
 15 16  1  0
 16 17  1  0
 16 18  2  0
 18 19  1  0
 19 20  2  0
 19 21  1  0
 21 22  1  0
 22 23  1  0
 10 24  2  0
 24 25  1  0
 25 26  2  0
 26 27  1  0
 27 28  1  0
 28 29  1  0
 29 30  1  0
 30 31  1  0
 26  4  1  0
 31 28  1  0
 25  6  1  0
 20 14  1  0
 23 18  1  0
M  END
>  <smiles>  (2641) 
C35600-P290

>  <fragmenstein_outcome>  (2641) 
acceptable

>  <inchikey>  (2641) 
AJCPPKZMCJGIJA-UHFFFAOYSA-N

>  <fragmenstein_mode>  (2641) 
expansion

>  <HIPPO Pose ID>  (2641) 
29051

>  <Energy>  (2641) 
116.837426

>  <fragmenstein_error>  (2641) 


>  <tags>  (2641) 
{'openbind_xx01zvns2b_c1_fragmenstein', 'fragmenstein_placed'}

>  <ref_pdb>  (2641) 
175

>  <scratch_subdir>  (2641) 
/opt/xchem-fragalysis-2/maxwin/BulkDock/SCRATCH/511028/C35600-P290

>  <alias>  (2641) 
CNCn1nc2c(Cl)cc(C(=O)Nc3cc(Br)c4c(c3)CNC4)cc2c1CC1CNC1

>  <HIPPO Compound ID>  (2641) 
25016

>  <fragmenstein_runtime>  (2641) 
12.61281

$$$$
CNCn1nc2c(Cl)cc(C(=O)Nc3cc4c(c5c3COC(C)(C)C5)CNC4)cc2c1CC1CNC1
     RDKit          3D

 36 41  0  0  0  0  0  0  0  0999 V2000
   -5.0348    7.9562  -20.3487 C   0  0  0  0  0  0  0  0  0  0  0  0
   -4.1459    6.8143  -20.2004 N   0  0  0  0  0  0  0  0  0  0  0  0
   -4.9060    5.5528  -20.1627 C   0  0  0  0  0  0  0  0  0  0  0  0
   -5.4801    5.2942  -18.8394 N   0  0  0  0  0  0  0  0  0  0  0  0
   -6.7203    4.7616  -18.7918 N   0  0  0  0  0  0  0  0  0  0  0  0
   -7.0444    4.6944  -17.4949 C   0  0  0  0  0  0  0  0  0  0  0  0
   -8.2250    4.3129  -16.8293 C   0  0  0  0  0  0  0  0  0  0  0  0
   -9.5530    3.8277  -17.7486 Cl  0  0  0  0  0  0  0  0  0  0  0  0
   -8.2469    4.4780  -15.4395 C   0  0  0  0  0  0  0  0  0  0  0  0
   -7.1099    4.9787  -14.7446 C   0  0  0  0  0  0  0  0  0  0  0  0
   -7.2910    5.4305  -13.3515 C   0  0  0  0  0  0  0  0  0  0  0  0
   -7.1977    6.5749  -13.1441 O   0  0  0  0  0  0  0  0  0  0  0  0
   -7.6185    4.2641  -12.3961 N   0  0  0  0  0  0  0  0  0  0  0  0
   -7.8023    4.2489  -11.0010 C   0  0  0  0  0  0  0  0  0  0  0  0
   -8.3396    3.0457  -10.5085 C   0  0  0  0  0  0  0  0  0  0  0  0
   -8.6000    2.9169   -9.1564 C   0  0  0  0  0  0  0  0  0  0  0  0
   -8.3769    3.9651   -8.2807 C   0  0  0  0  0  0  0  0  0  0  0  0
   -7.8101    5.1572   -8.7181 C   0  0  0  0  0  0  0  0  0  0  0  0
   -7.4701    5.2885  -10.0901 C   0  0  0  0  0  0  0  0  0  0  0  0
   -6.6856    6.5163  -10.4905 C   0  0  0  0  0  0  0  0  0  0  0  0
   -6.0010    7.1586   -9.4034 O   0  0  0  0  0  0  0  0  0  0  0  0
   -6.8630    7.5030   -8.3158 C   0  0  0  0  0  0  0  0  0  0  0  0
   -7.9549    8.4919   -8.7452 C   0  0  0  0  0  0  0  0  0  0  0  0
   -5.9682    8.2025   -7.2811 C   0  0  0  0  0  0  0  0  0  0  0  0
   -7.4375    6.2137   -7.7051 C   0  0  0  0  0  0  0  0  0  0  0  0
   -8.7390    3.5306   -6.8970 C   0  0  0  0  0  0  0  0  0  0  0  0
   -9.3638    2.1989   -7.0288 N   0  0  0  0  0  0  0  0  0  0  0  0
   -9.0433    1.7158   -8.3931 C   0  0  0  0  0  0  0  0  0  0  0  0
   -5.8628    5.2827  -15.3413 C   0  0  0  0  0  0  0  0  0  0  0  0
   -5.9132    5.1385  -16.7243 C   0  0  0  0  0  0  0  0  0  0  0  0
   -4.8863    5.4044  -17.6007 C   0  0  0  0  0  0  0  0  0  0  0  0
   -3.4421    5.7001  -17.3705 C   0  0  0  0  0  0  0  0  0  0  0  0
   -3.1839    7.0868  -16.8017 C   0  0  0  0  0  0  0  0  0  0  0  0
   -2.7139    8.2336  -17.7258 C   0  0  0  0  0  0  0  0  0  0  0  0
   -1.7762    8.6566  -16.6549 N   0  0  0  0  0  0  0  0  0  0  0  0
   -1.7834    7.2577  -16.1648 C   0  0  0  0  0  0  0  0  0  0  0  0
  1  2  1  0
  2  3  1  0
  3  4  1  0
  4  5  1  0
  5  6  2  0
  6  7  1  0
  7  8  1  0
  7  9  2  0
  9 10  1  0
 10 11  1  0
 11 12  2  0
 11 13  1  0
 13 14  1  0
 14 15  2  0
 15 16  1  0
 16 17  2  0
 17 18  1  0
 18 19  2  0
 19 20  1  0
 20 21  1  0
 21 22  1  0
 22 23  1  0
 22 24  1  0
 22 25  1  0
 17 26  1  0
 26 27  1  0
 27 28  1  0
 10 29  2  0
 29 30  1  0
 30 31  2  0
 31 32  1  0
 32 33  1  0
 33 34  1  0
 34 35  1  0
 35 36  1  0
 31  4  1  0
 36 33  1  0
 30  6  1  0
 19 14  1  0
 28 16  1  0
 25 18  1  0
M  END
>  <smiles>  (2642) 
C35613-P290

>  <fragmenstein_outcome>  (2642) 
acceptable

>  <inchikey>  (2642) 
IPJBAOHCWMRYAS-UHFFFAOYSA-N

>  <fragmenstein_mode>  (2642) 
expansion

>  <HIPPO Pose ID>  (2642) 
29053

>  <Energy>  (2642) 
161.089773

>  <fragmenstein_error>  (2642) 


>  <tags>  (2642) 
{'openbind_xx01zvns2b_c1_fragmenstein', 'fragmenstein_placed'}

>  <ref_pdb>  (2642) 
175

>  <scratch_subdir>  (2642) 
/opt/xchem-fragalysis-2/maxwin/BulkDock/SCRATCH/511028/C35613-P290

>  <alias>  (2642) 
CNCn1nc2c(Cl)cc(C(=O)Nc3cc4c(c5c3COC(C)(C)C5)CNC4)cc2c1CC1CNC1

>  <HIPPO Compound ID>  (2642) 
41411

>  <fragmenstein_runtime>  (2642) 
10.41296

$$$$
CCNn1nc2c(Cl)cc(C(=O)Nc3ccc4c(c3)CNC4)cc2c1CC1CNC1
     RDKit          3D

 30 34  0  0  0  0  0  0  0  0999 V2000
   -3.2679    5.3940  -20.5023 C   0  0  0  0  0  0  0  0  0  0  0  0
   -4.3386    6.3989  -20.9023 C   0  0  0  0  0  0  0  0  0  0  0  0
   -5.6277    6.3765  -20.2204 N   0  0  0  0  0  0  0  0  0  0  0  0
   -5.7149    5.6591  -19.0078 N   0  0  0  0  0  0  0  0  0  0  0  0
   -6.6195    4.6834  -18.8949 N   0  0  0  0  0  0  0  0  0  0  0  0
   -6.9789    4.6821  -17.6044 C   0  0  0  0  0  0  0  0  0  0  0  0
   -8.0768    4.1325  -16.9224 C   0  0  0  0  0  0  0  0  0  0  0  0
   -9.2801    3.3933  -17.8331 Cl  0  0  0  0  0  0  0  0  0  0  0  0
   -8.1707    4.3790  -15.5453 C   0  0  0  0  0  0  0  0  0  0  0  0
   -7.1770    5.1331  -14.8604 C   0  0  0  0  0  0  0  0  0  0  0  0
   -7.3876    5.5229  -13.4383 C   0  0  0  0  0  0  0  0  0  0  0  0
   -7.1685    6.6312  -13.1435 O   0  0  0  0  0  0  0  0  0  0  0  0
   -7.8784    4.3368  -12.5794 N   0  0  0  0  0  0  0  0  0  0  0  0
   -8.1036    4.2450  -11.2086 C   0  0  0  0  0  0  0  0  0  0  0  0
   -7.9893    5.3776  -10.3859 C   0  0  0  0  0  0  0  0  0  0  0  0
   -8.1798    5.2814   -9.0053 C   0  0  0  0  0  0  0  0  0  0  0  0
   -8.4946    4.0446   -8.4745 C   0  0  0  0  0  0  0  0  0  0  0  0
   -8.6222    2.9250   -9.2882 C   0  0  0  0  0  0  0  0  0  0  0  0
   -8.4302    3.0035  -10.6584 C   0  0  0  0  0  0  0  0  0  0  0  0
   -8.9368    1.7349   -8.4464 C   0  0  0  0  0  0  0  0  0  0  0  0
   -9.2023    2.2581   -7.0824 N   0  0  0  0  0  0  0  0  0  0  0  0
   -8.7267    3.6556   -7.0552 C   0  0  0  0  0  0  0  0  0  0  0  0
   -6.0434    5.6993  -15.4953 C   0  0  0  0  0  0  0  0  0  0  0  0
   -6.0206    5.4503  -16.8668 C   0  0  0  0  0  0  0  0  0  0  0  0
   -5.2161    6.0750  -17.7904 C   0  0  0  0  0  0  0  0  0  0  0  0
   -4.1691    7.1129  -17.6513 C   0  0  0  0  0  0  0  0  0  0  0  0
   -3.1263    6.7881  -16.6023 C   0  0  0  0  0  0  0  0  0  0  0  0
   -1.6808    7.2206  -16.9248 C   0  0  0  0  0  0  0  0  0  0  0  0
   -1.2236    6.0031  -16.2267 N   0  0  0  0  0  0  0  0  0  0  0  0
   -2.5194    5.3674  -16.5320 C   0  0  0  0  0  0  0  0  0  0  0  0
  1  2  1  0
  2  3  1  0
  3  4  1  0
  4  5  1  0
  5  6  2  0
  6  7  1  0
  7  8  1  0
  7  9  2  0
  9 10  1  0
 10 11  1  0
 11 12  2  0
 11 13  1  0
 13 14  1  0
 14 15  2  0
 15 16  1  0
 16 17  2  0
 17 18  1  0
 18 19  2  0
 18 20  1  0
 20 21  1  0
 21 22  1  0
 10 23  2  0
 23 24  1  0
 24 25  2  0
 25 26  1  0
 26 27  1  0
 27 28  1  0
 28 29  1  0
 29 30  1  0
 25  4  1  0
 30 27  1  0
 24  6  1  0
 19 14  1  0
 22 17  1  0
M  END
>  <smiles>  (2643) 
C39207-P290

>  <fragmenstein_outcome>  (2643) 
acceptable

>  <inchikey>  (2643) 
CTYJETRFKCIEQY-UHFFFAOYSA-N

>  <fragmenstein_mode>  (2643) 
expansion

>  <HIPPO Pose ID>  (2643) 
29057

>  <Energy>  (2643) 
32.5677

>  <fragmenstein_error>  (2643) 


>  <tags>  (2643) 
{'openbind_xx01zvns2b_c1_fragmenstein', 'fragmenstein_placed'}

>  <ref_pdb>  (2643) 
175

>  <scratch_subdir>  (2643) 
/opt/xchem-fragalysis-2/maxwin/BulkDock/SCRATCH/511028/C39207-P290

>  <alias>  (2643) 
CCNn1nc2c(Cl)cc(C(=O)Nc3ccc4c(c3)CNC4)cc2c1CC1CNC1

>  <HIPPO Compound ID>  (2643) 
39207

>  <fragmenstein_runtime>  (2643) 
7.767667

$$$$
NC1=NN=C2N=c3c(F)cc(C(=O)Nc4ccc5c(c4)CNC5)cc3=C12
     RDKit          3D

 26 30  0  0  0  0  0  0  0  0999 V2000
   -3.1324    6.6364  -16.9994 N   0  0  0  0  0  0  0  0  0  0  0  0
   -3.8774    5.9327  -17.8922 C   0  0  0  0  0  0  0  0  0  0  0  0
   -3.4844    5.6722  -19.1197 N   0  0  0  0  0  0  0  0  0  0  0  0
   -4.5726    4.9616  -19.8259 N   0  0  0  0  0  0  0  0  0  0  0  0
   -5.5358    4.8224  -18.9673 C   0  0  0  0  0  0  0  0  0  0  0  0
   -6.7720    4.2578  -18.9563 N   0  0  0  0  0  0  0  0  0  0  0  0
   -7.1718    4.4298  -17.7345 C   0  0  0  0  0  0  0  0  0  0  0  0
   -8.4386    4.0594  -17.0606 C   0  0  0  0  0  0  0  0  0  0  0  0
   -9.4101    3.5149  -17.8143 F   0  0  0  0  0  0  0  0  0  0  0  0
   -8.6116    4.3049  -15.7509 C   0  0  0  0  0  0  0  0  0  0  0  0
   -7.6021    4.9783  -14.9478 C   0  0  0  0  0  0  0  0  0  0  0  0
   -7.8436    5.4565  -13.5519 C   0  0  0  0  0  0  0  0  0  0  0  0
   -7.7646    6.5917  -13.2907 O   0  0  0  0  0  0  0  0  0  0  0  0
   -8.1159    4.2357  -12.6432 N   0  0  0  0  0  0  0  0  0  0  0  0
   -8.2488    4.1497  -11.2586 C   0  0  0  0  0  0  0  0  0  0  0  0
   -8.0881    5.2873  -10.4473 C   0  0  0  0  0  0  0  0  0  0  0  0
   -8.2276    5.2069   -9.0582 C   0  0  0  0  0  0  0  0  0  0  0  0
   -8.5459    3.9812   -8.5076 C   0  0  0  0  0  0  0  0  0  0  0  0
   -8.6917    2.8501   -9.3064 C   0  0  0  0  0  0  0  0  0  0  0  0
   -8.5373    2.9111  -10.6817 C   0  0  0  0  0  0  0  0  0  0  0  0
   -9.0023    1.6797   -8.4325 C   0  0  0  0  0  0  0  0  0  0  0  0
   -9.4247    2.2713   -7.1364 N   0  0  0  0  0  0  0  0  0  0  0  0
   -8.7868    3.6046   -7.0839 C   0  0  0  0  0  0  0  0  0  0  0  0
   -6.4307    5.3732  -15.4796 C   0  0  0  0  0  0  0  0  0  0  0  0
   -6.1886    5.1130  -16.8582 C   0  0  0  0  0  0  0  0  0  0  0  0
   -5.1914    5.3685  -17.6808 C   0  0  0  0  0  0  0  0  0  0  0  0
  1  2  1  0
  2  3  2  0
  3  4  1  0
  4  5  2  0
  5  6  1  0
  6  7  2  0
  7  8  1  0
  8  9  1  0
  8 10  2  0
 10 11  1  0
 11 12  1  0
 12 13  2  0
 12 14  1  0
 14 15  1  0
 15 16  2  0
 16 17  1  0
 17 18  2  0
 18 19  1  0
 19 20  2  0
 19 21  1  0
 21 22  1  0
 22 23  1  0
 11 24  2  0
 24 25  1  0
 25 26  2  0
 26  2  1  0
 26  5  1  0
 25  7  1  0
 20 15  1  0
 23 18  1  0
M  END
>  <smiles>  (2644) 
C39233-P290

>  <fragmenstein_outcome>  (2644) 
acceptable

>  <inchikey>  (2644) 
GXRWXGSIETYXPR-UHFFFAOYSA-N

>  <fragmenstein_mode>  (2644) 
expansion

>  <HIPPO Pose ID>  (2644) 
29070

>  <Energy>  (2644) 
58.816406

>  <fragmenstein_error>  (2644) 


>  <tags>  (2644) 
{'openbind_xx01zvns2b_c1_fragmenstein', 'fragmenstein_placed'}

>  <ref_pdb>  (2644) 
175

>  <scratch_subdir>  (2644) 
/opt/xchem-fragalysis-2/maxwin/BulkDock/SCRATCH/511028/C39233-P290

>  <alias>  (2644) 
NC1=NN=C2N=c3c(F)cc(C(=O)Nc4ccc5c(c4)CNC5)cc3=C12

>  <HIPPO Compound ID>  (2644) 
39233

>  <fragmenstein_runtime>  (2644) 
7.413517

$$$$
CN(C)COn1cc(-c2cc(F)cc(C(=O)Nc3ccc4c(c3)CNC4)c2)cn1
     RDKit          3D

 29 32  0  0  0  0  0  0  0  0999 V2000
   -0.4076    8.1048  -15.4622 C   0  0  0  0  0  0  0  0  0  0  0  0
   -0.5248    7.3425  -16.7036 N   0  0  0  0  0  0  0  0  0  0  0  0
    0.5380    6.3408  -16.7891 C   0  0  0  0  0  0  0  0  0  0  0  0
   -1.8518    6.7163  -16.7968 C   0  0  0  0  0  0  0  0  0  0  0  0
   -2.0002    6.0081  -18.0197 O   0  0  0  0  0  0  0  0  0  0  0  0
   -3.3427    5.7466  -18.2322 N   0  0  0  0  0  0  0  0  0  0  0  0
   -4.1822    5.1577  -17.3541 C   0  0  0  0  0  0  0  0  0  0  0  0
   -5.4264    5.2099  -17.9362 C   0  0  0  0  0  0  0  0  0  0  0  0
   -6.6208    4.8503  -17.2172 C   0  0  0  0  0  0  0  0  0  0  0  0
   -7.7269    4.3056  -17.8597 C   0  0  0  0  0  0  0  0  0  0  0  0
   -8.8453    3.9743  -17.1038 C   0  0  0  0  0  0  0  0  0  0  0  0
   -9.9286    3.4961  -17.7263 F   0  0  0  0  0  0  0  0  0  0  0  0
   -8.8855    4.1730  -15.7250 C   0  0  0  0  0  0  0  0  0  0  0  0
   -7.8076    4.7698  -15.0931 C   0  0  0  0  0  0  0  0  0  0  0  0
   -7.8319    5.2093  -13.6768 C   0  0  0  0  0  0  0  0  0  0  0  0
   -7.5312    6.3165  -13.4585 O   0  0  0  0  0  0  0  0  0  0  0  0
   -8.1675    4.0541  -12.7092 N   0  0  0  0  0  0  0  0  0  0  0  0
   -8.2919    4.0429  -11.3194 C   0  0  0  0  0  0  0  0  0  0  0  0
   -8.0417    5.2008  -10.5624 C   0  0  0  0  0  0  0  0  0  0  0  0
   -8.1351    5.1836   -9.1665 C   0  0  0  0  0  0  0  0  0  0  0  0
   -8.4739    3.9945   -8.5492 C   0  0  0  0  0  0  0  0  0  0  0  0
   -8.7105    2.8447   -9.2934 C   0  0  0  0  0  0  0  0  0  0  0  0
   -8.6290    2.8498  -10.6779 C   0  0  0  0  0  0  0  0  0  0  0  0
   -8.9913    1.7093   -8.3678 C   0  0  0  0  0  0  0  0  0  0  0  0
   -9.1862    2.3200   -7.0281 N   0  0  0  0  0  0  0  0  0  0  0  0
   -8.6294    3.6864   -7.0990 C   0  0  0  0  0  0  0  0  0  0  0  0
   -6.6780    5.1011  -15.8365 C   0  0  0  0  0  0  0  0  0  0  0  0
   -5.1766    5.6610  -19.2507 C   0  0  0  0  0  0  0  0  0  0  0  0
   -3.8910    6.0063  -19.4254 N   0  0  0  0  0  0  0  0  0  0  0  0
  1  2  1  0
  2  3  1  0
  2  4  1  0
  4  5  1  0
  5  6  1  0
  6  7  1  0
  7  8  2  0
  8  9  1  0
  9 10  2  0
 10 11  1  0
 11 12  1  0
 11 13  2  0
 13 14  1  0
 14 15  1  0
 15 16  2  0
 15 17  1  0
 17 18  1  0
 18 19  2  0
 19 20  1  0
 20 21  2  0
 21 22  1  0
 22 23  2  0
 22 24  1  0
 24 25  1  0
 25 26  1  0
 14 27  2  0
  8 28  1  0
 28 29  2  0
 29  6  1  0
 27  9  1  0
 23 18  1  0
 26 21  1  0
M  END
>  <smiles>  (2645) 
C39247-P290

>  <fragmenstein_outcome>  (2645) 
acceptable

>  <inchikey>  (2645) 
LHHYDNCNVLAXTB-UHFFFAOYSA-N

>  <fragmenstein_mode>  (2645) 
expansion

>  <HIPPO Pose ID>  (2645) 
29076

>  <Energy>  (2645) 
9.793868

>  <fragmenstein_error>  (2645) 


>  <tags>  (2645) 
{'openbind_xx01zvns2b_c1_fragmenstein', 'fragmenstein_placed'}

>  <ref_pdb>  (2645) 
175

>  <scratch_subdir>  (2645) 
/opt/xchem-fragalysis-2/maxwin/BulkDock/SCRATCH/511028/C39247-P290

>  <alias>  (2645) 
CN(C)COn1cc(-c2cc(F)cc(C(=O)Nc3ccc4c(c3)CNC4)c2)cn1

>  <HIPPO Compound ID>  (2645) 
39247

>  <fragmenstein_runtime>  (2645) 
5.46275

$$$$
Cc1nc2c(C(=O)C(=O)c3ccc4c(c3)CNC4)cc(F)cc2c2c[nH]nc12
     RDKit          3D

 28 32  0  0  0  0  0  0  0  0999 V2000
   -2.7783    6.4660  -16.0173 C   0  0  0  0  0  0  0  0  0  0  0  0
   -4.0436    5.9460  -16.6050 C   0  0  0  0  0  0  0  0  0  0  0  0
   -5.0993    5.5673  -15.7825 N   0  0  0  0  0  0  0  0  0  0  0  0
   -6.3186    5.0566  -16.2217 C   0  0  0  0  0  0  0  0  0  0  0  0
   -7.3709    4.6910  -15.3599 C   0  0  0  0  0  0  0  0  0  0  0  0
   -7.2330    4.9336  -13.8863 C   0  0  0  0  0  0  0  0  0  0  0  0
   -6.1924    5.2518  -13.3273 O   0  0  0  0  0  0  0  0  0  0  0  0
   -8.4571    4.9138  -13.0134 C   0  0  0  0  0  0  0  0  0  0  0  0
   -9.5041    5.3558  -13.4774 O   0  0  0  0  0  0  0  0  0  0  0  0
   -8.3486    4.5617  -11.5816 C   0  0  0  0  0  0  0  0  0  0  0  0
   -8.1614    5.6290  -10.6824 C   0  0  0  0  0  0  0  0  0  0  0  0
   -8.2209    5.4151   -9.3044 C   0  0  0  0  0  0  0  0  0  0  0  0
   -8.4923    4.1362   -8.8539 C   0  0  0  0  0  0  0  0  0  0  0  0
   -8.6473    3.0703   -9.7388 C   0  0  0  0  0  0  0  0  0  0  0  0
   -8.5710    3.2587  -11.1146 C   0  0  0  0  0  0  0  0  0  0  0  0
   -8.9152    1.8345   -8.9376 C   0  0  0  0  0  0  0  0  0  0  0  0
   -9.3295    2.3220   -7.5960 N   0  0  0  0  0  0  0  0  0  0  0  0
   -8.6932    3.6486   -7.4559 C   0  0  0  0  0  0  0  0  0  0  0  0
   -8.5845    4.1553  -15.8622 C   0  0  0  0  0  0  0  0  0  0  0  0
   -8.8072    4.0202  -17.2230 C   0  0  0  0  0  0  0  0  0  0  0  0
   -9.9889    3.5877  -17.6754 F   0  0  0  0  0  0  0  0  0  0  0  0
   -7.8302    4.3744  -18.1143 C   0  0  0  0  0  0  0  0  0  0  0  0
   -6.6184    4.8832  -17.6029 C   0  0  0  0  0  0  0  0  0  0  0  0
   -5.5630    5.3209  -18.4075 C   0  0  0  0  0  0  0  0  0  0  0  0
   -5.5483    5.3313  -19.7674 C   0  0  0  0  0  0  0  0  0  0  0  0
   -4.3641    5.8834  -20.1056 N   0  0  0  0  0  0  0  0  0  0  0  0
   -3.5686    6.1845  -19.0575 N   0  0  0  0  0  0  0  0  0  0  0  0
   -4.3070    5.8495  -17.9787 C   0  0  0  0  0  0  0  0  0  0  0  0
  1  2  1  0
  2  3  2  0
  3  4  1  0
  4  5  2  0
  5  6  1  0
  6  7  2  0
  6  8  1  0
  8  9  2  0
  8 10  1  0
 10 11  2  0
 11 12  1  0
 12 13  2  0
 13 14  1  0
 14 15  2  0
 14 16  1  0
 16 17  1  0
 17 18  1  0
  5 19  1  0
 19 20  2  0
 20 21  1  0
 20 22  1  0
 22 23  2  0
 23 24  1  0
 24 25  2  0
 25 26  1  0
 26 27  1  0
 27 28  2  0
 28  2  1  0
 23  4  1  0
 28 24  1  0
 15 10  1  0
 18 13  1  0
M  END
>  <smiles>  (2646) 
C39278-P290

>  <fragmenstein_outcome>  (2646) 
acceptable

>  <inchikey>  (2646) 
DQFCGSWSTPWDQK-UHFFFAOYSA-N

>  <fragmenstein_mode>  (2646) 
expansion

>  <HIPPO Pose ID>  (2646) 
29089

>  <Energy>  (2646) 
147.473412

>  <fragmenstein_error>  (2646) 


>  <tags>  (2646) 
{'openbind_xx01zvns2b_c1_fragmenstein', 'fragmenstein_placed'}

>  <ref_pdb>  (2646) 
175

>  <scratch_subdir>  (2646) 
/opt/xchem-fragalysis-2/maxwin/BulkDock/SCRATCH/511028/C39278-P290

>  <alias>  (2646) 
Cc1nc2c(C(=O)C(=O)c3ccc4c(c3)CNC4)cc(F)cc2c2c[nH]nc12

>  <HIPPO Compound ID>  (2646) 
41909

>  <fragmenstein_runtime>  (2646) 
5.402696

$$$$
O=C(Nc1ccc2c(c1)CNC2)c1cc(F)c2c(c1)=C1C=NN=C1N=2
     RDKit          3D

 25 29  0  0  0  0  0  0  0  0999 V2000
   -7.4013    6.5295  -13.0483 O   0  0  0  0  0  0  0  0  0  0  0  0
   -7.5913    5.4135  -13.3339 C   0  0  0  0  0  0  0  0  0  0  0  0
   -7.9244    4.1949  -12.4447 N   0  0  0  0  0  0  0  0  0  0  0  0
   -8.1776    4.1150  -11.0778 C   0  0  0  0  0  0  0  0  0  0  0  0
   -8.0747    5.2549  -10.2620 C   0  0  0  0  0  0  0  0  0  0  0  0
   -8.2581    5.1673   -8.8792 C   0  0  0  0  0  0  0  0  0  0  0  0
   -8.5632    3.9329   -8.3387 C   0  0  0  0  0  0  0  0  0  0  0  0
   -8.6817    2.8071   -9.1455 C   0  0  0  0  0  0  0  0  0  0  0  0
   -8.4859    2.8751  -10.5163 C   0  0  0  0  0  0  0  0  0  0  0  0
   -8.9821    1.6207   -8.2931 C   0  0  0  0  0  0  0  0  0  0  0  0
   -9.2882    2.1595   -6.9438 N   0  0  0  0  0  0  0  0  0  0  0  0
   -8.7906    3.5490   -6.9164 C   0  0  0  0  0  0  0  0  0  0  0  0
   -7.4196    4.9518  -14.7452 C   0  0  0  0  0  0  0  0  0  0  0  0
   -8.4780    4.3347  -15.5319 C   0  0  0  0  0  0  0  0  0  0  0  0
   -8.3626    4.1400  -16.8572 C   0  0  0  0  0  0  0  0  0  0  0  0
   -9.3671    3.6205  -17.5877 F   0  0  0  0  0  0  0  0  0  0  0  0
   -7.1293    4.5556  -17.5712 C   0  0  0  0  0  0  0  0  0  0  0  0
   -6.0690    5.1108  -16.6951 C   0  0  0  0  0  0  0  0  0  0  0  0
   -6.2435    5.3021  -15.2972 C   0  0  0  0  0  0  0  0  0  0  0  0
   -5.1154    5.4305  -17.5456 C   0  0  0  0  0  0  0  0  0  0  0  0
   -3.8287    6.0150  -17.7941 C   0  0  0  0  0  0  0  0  0  0  0  0
   -3.5852    6.0794  -19.0729 N   0  0  0  0  0  0  0  0  0  0  0  0
   -4.7485    5.4876  -19.7853 N   0  0  0  0  0  0  0  0  0  0  0  0
   -5.5885    5.1163  -18.8679 C   0  0  0  0  0  0  0  0  0  0  0  0
   -6.8210    4.5419  -18.8301 N   0  0  0  0  0  0  0  0  0  0  0  0
  1  2  2  0
  2  3  1  0
  3  4  1  0
  4  5  2  0
  5  6  1  0
  6  7  2  0
  7  8  1  0
  8  9  2  0
  8 10  1  0
 10 11  1  0
 11 12  1  0
  2 13  1  0
 13 14  1  0
 14 15  2  0
 15 16  1  0
 15 17  1  0
 17 18  1  0
 18 19  1  0
 18 20  2  0
 20 21  1  0
 21 22  2  0
 22 23  1  0
 23 24  2  0
 24 25  1  0
  9  4  1  0
 19 13  2  0
 24 20  1  0
 12  7  1  0
 25 17  2  0
M  END
>  <smiles>  (2647) 
C39308-P290

>  <fragmenstein_outcome>  (2647) 
acceptable

>  <inchikey>  (2647) 
QCXVNFLSEYSGSI-UHFFFAOYSA-N

>  <fragmenstein_mode>  (2647) 
expansion

>  <HIPPO Pose ID>  (2647) 
29099

>  <Energy>  (2647) 
85.110389

>  <fragmenstein_error>  (2647) 


>  <tags>  (2647) 
{'openbind_xx01zvns2b_c1_fragmenstein', 'fragmenstein_placed'}

>  <ref_pdb>  (2647) 
175

>  <scratch_subdir>  (2647) 
/opt/xchem-fragalysis-2/maxwin/BulkDock/SCRATCH/511028/C39308-P290

>  <alias>  (2647) 
O=C(Nc1ccc2c(c1)CNC2)c1cc(F)c2c(c1)=C1C=NN=C1N=2

>  <HIPPO Compound ID>  (2647) 
26588

>  <fragmenstein_runtime>  (2647) 
5.892757

$$$$
O=C(N[C@@H]1CC2=C(CNC2)[C@@H](F)[C@@]12CCCC2=O)c1cc(F)cc2c1=CC1=NN=CC=21
     RDKit          3D

 31 36  0  0  0  0  0  0  0  0999 V2000
   -5.8333    5.7234  -13.3677 O   0  0  0  0  0  0  0  0  0  0  0  0
   -6.6627    4.9361  -13.5942 C   0  0  0  0  0  0  0  0  0  0  0  0
   -7.4464    4.0116  -12.6453 N   0  0  0  0  0  0  0  0  0  0  0  0
   -7.4433    3.9253  -11.1832 C   0  0  2  0  0  0  0  0  0  0  0  0
   -8.5092    2.9103  -10.7263 C   0  0  0  0  0  0  0  0  0  0  0  0
   -8.6751    2.9201   -9.2573 C   0  0  0  0  0  0  0  0  0  0  0  0
   -8.5254    4.0152   -8.5215 C   0  0  0  0  0  0  0  0  0  0  0  0
   -8.7660    3.7309   -7.0915 C   0  0  0  0  0  0  0  0  0  0  0  0
   -9.2184    2.3276   -7.0474 N   0  0  0  0  0  0  0  0  0  0  0  0
   -9.0226    1.7612   -8.4048 C   0  0  0  0  0  0  0  0  0  0  0  0
   -8.2198    5.3410   -9.0883 C   0  0  1  0  0  0  0  0  0  0  0  0
   -7.5662    6.0927   -8.1554 F   0  0  0  0  0  0  0  0  0  0  0  0
   -7.4094    5.2955  -10.4105 C   0  0  1  0  0  0  0  0  0  0  0  0
   -5.9361    5.7301  -10.1730 C   0  0  0  0  0  0  0  0  0  0  0  0
   -5.9352    7.2543  -10.1370 C   0  0  0  0  0  0  0  0  0  0  0  0
   -6.9935    7.6799  -11.1386 C   0  0  0  0  0  0  0  0  0  0  0  0
   -7.9047    6.4790  -11.2207 C   0  0  0  0  0  0  0  0  0  0  0  0
   -8.9380    6.4907  -11.8839 O   0  0  0  0  0  0  0  0  0  0  0  0
   -7.0590    4.6760  -15.0305 C   0  0  0  0  0  0  0  0  0  0  0  0
   -8.3361    4.4643  -15.4345 C   0  0  0  0  0  0  0  0  0  0  0  0
   -8.7037    4.3766  -16.8521 C   0  0  0  0  0  0  0  0  0  0  0  0
   -9.9859    4.0908  -17.1560 F   0  0  0  0  0  0  0  0  0  0  0  0
   -7.8330    4.6179  -17.8486 C   0  0  0  0  0  0  0  0  0  0  0  0
   -6.4704    4.8982  -17.4821 C   0  0  0  0  0  0  0  0  0  0  0  0
   -6.0538    4.8573  -16.0777 C   0  0  0  0  0  0  0  0  0  0  0  0
   -4.7291    5.0441  -15.9576 C   0  0  0  0  0  0  0  0  0  0  0  0
   -4.3001    5.2664  -17.3278 C   0  0  0  0  0  0  0  0  0  0  0  0
   -3.1880    5.5144  -17.9363 N   0  0  0  0  0  0  0  0  0  0  0  0
   -3.5235    5.6494  -19.3689 N   0  0  0  0  0  0  0  0  0  0  0  0
   -4.8127    5.4644  -19.5045 C   0  0  0  0  0  0  0  0  0  0  0  0
   -5.4247    5.1931  -18.2363 C   0  0  0  0  0  0  0  0  0  0  0  0
  1  2  2  0
  2  3  1  0
  4  3  1  6
  4  5  1  0
  5  6  1  0
  6  7  2  0
  7  8  1  0
  8  9  1  0
  9 10  1  0
  7 11  1  0
 11 12  1  1
 11 13  1  0
 13 14  1  1
 14 15  1  0
 15 16  1  0
 16 17  1  0
 17 18  2  0
  2 19  1  0
 19 20  2  0
 20 21  1  0
 21 22  1  0
 21 23  2  0
 23 24  1  0
 24 25  1  0
 25 26  2  0
 26 27  1  0
 27 28  2  0
 28 29  1  0
 29 30  2  0
 30 31  1  0
 13  4  1  0
 25 19  1  0
 31 27  1  0
 10  6  1  0
 17 13  1  0
 31 24  2  0
M  END
>  <smiles>  (2648) 
C39397-P291

>  <fragmenstein_outcome>  (2648) 
acceptable

>  <inchikey>  (2648) 
UGALISOQMWYAGM-UHFFFAOYSA-N

>  <fragmenstein_mode>  (2648) 
expansion

>  <HIPPO Pose ID>  (2648) 
29137

>  <Energy>  (2648) 
59.82048

>  <fragmenstein_error>  (2648) 


>  <tags>  (2648) 
{'openbind_xx01zvns2b_c1_fragmenstein', 'fragmenstein_placed'}

>  <ref_pdb>  (2648) 
175

>  <scratch_subdir>  (2648) 
/opt/xchem-fragalysis-2/maxwin/BulkDock/SCRATCH/511028/C39397-P291

>  <alias>  (2648) 
O=C(N[C@@H]1CC2=C(CNC2)[C@@H](F)[C@@]12CCCC2=O)c1cc(F)cc2c1=CC1=NN=CC=21

>  <HIPPO Compound ID>  (2648) 
39397

>  <fragmenstein_runtime>  (2648) 
11.061146

$$$$
CCCNC(=O)[C@@](O)(Nc1ccc2c(c1)CNC2)[C@@H]1C[C@H](F)C[C@H](c2cn[nH]c2)C12CNNC2
     RDKit          3D

 34 38  0  0  0  0  0  0  0  0999 V2000
  -11.5450   10.0999  -12.3810 C   0  0  0  0  0  0  0  0  0  0  0  0
  -10.7542    8.9755  -13.0320 C   0  0  0  0  0  0  0  0  0  0  0  0
   -9.5358    8.6098  -12.1951 C   0  0  0  0  0  0  0  0  0  0  0  0
   -8.8908    7.3872  -12.6032 N   0  0  0  0  0  0  0  0  0  0  0  0
   -7.3801    7.0130  -12.6650 C   0  0  0  0  0  0  0  0  0  0  0  0
   -6.4290    7.6659  -12.4678 O   0  0  0  0  0  0  0  0  0  0  0  0
   -7.3010    5.4446  -13.1026 C   0  0  1  0  0  0  0  0  0  0  0  0
   -6.1469    4.7656  -12.6927 O   0  0  0  0  0  0  0  0  0  0  0  0
   -8.4232    4.6884  -12.4687 N   0  0  0  0  0  0  0  0  0  0  0  0
   -8.3734    4.4558  -11.0603 C   0  0  0  0  0  0  0  0  0  0  0  0
   -8.1317    5.4692  -10.1097 C   0  0  0  0  0  0  0  0  0  0  0  0
   -8.2406    5.2463   -8.7313 C   0  0  0  0  0  0  0  0  0  0  0  0
   -8.6119    3.9936   -8.3017 C   0  0  0  0  0  0  0  0  0  0  0  0
   -8.8293    2.9683   -9.2118 C   0  0  0  0  0  0  0  0  0  0  0  0
   -8.7317    3.1811  -10.5799 C   0  0  0  0  0  0  0  0  0  0  0  0
   -9.1511    1.7250   -8.4537 C   0  0  0  0  0  0  0  0  0  0  0  0
   -9.5618    2.1960   -7.1039 N   0  0  0  0  0  0  0  0  0  0  0  0
   -8.8650    3.4891   -6.9216 C   0  0  0  0  0  0  0  0  0  0  0  0
   -7.4676    5.4160  -14.7151 C   0  0  2  0  0  0  0  0  0  0  0  0
   -8.3284    4.2341  -15.2188 C   0  0  0  0  0  0  0  0  0  0  0  0
   -8.6832    4.3441  -16.6870 C   0  0  2  0  0  0  0  0  0  0  0  0
   -9.3593    3.2301  -17.0791 F   0  0  0  0  0  0  0  0  0  0  0  0
   -7.4734    4.5151  -17.5730 C   0  0  0  0  0  0  0  0  0  0  0  0
   -6.4983    5.6197  -17.1435 C   0  0  2  0  0  0  0  0  0  0  0  0
   -5.3168    5.6597  -18.1179 C   0  0  0  0  0  0  0  0  0  0  0  0
   -3.9146    5.8175  -17.9379 C   0  0  0  0  0  0  0  0  0  0  0  0
   -3.2082    5.7527  -19.0690 N   0  0  0  0  0  0  0  0  0  0  0  0
   -4.1485    5.5081  -19.9976 N   0  0  0  0  0  0  0  0  0  0  0  0
   -5.4091    5.5110  -19.4849 C   0  0  0  0  0  0  0  0  0  0  0  0
   -6.1399    5.5438  -15.6139 C   0  0  0  0  0  0  0  0  0  0  0  0
   -5.1397    4.4125  -15.3036 C   0  0  0  0  0  0  0  0  0  0  0  0
   -4.0543    5.0139  -14.5103 N   0  0  0  0  0  0  0  0  0  0  0  0
   -4.4597    6.3419  -14.1803 N   0  0  0  0  0  0  0  0  0  0  0  0
   -5.3614    6.8087  -15.2172 C   0  0  0  0  0  0  0  0  0  0  0  0
  1  2  1  0
  2  3  1  0
  3  4  1  0
  4  5  1  0
  5  6  2  0
  5  7  1  0
  7  8  1  6
  7  9  1  0
  9 10  1  0
 10 11  2  0
 11 12  1  0
 12 13  2  0
 13 14  1  0
 14 15  2  0
 14 16  1  0
 16 17  1  0
 17 18  1  0
  7 19  1  0
 19 20  1  1
 20 21  1  0
 21 22  1  6
 21 23  1  0
 23 24  1  0
 24 25  1  6
 25 26  1  0
 26 27  2  0
 27 28  1  0
 28 29  1  0
 24 30  1  0
 30 31  1  0
 31 32  1  0
 32 33  1  0
 33 34  1  0
 15 10  1  0
 30 19  1  0
 18 13  1  0
 29 25  2  0
 34 30  1  0
M  END
>  <smiles>  (2649) 
C39319-P291

>  <fragmenstein_outcome>  (2649) 
acceptable

>  <inchikey>  (2649) 
KIXQUTJFHHSYGM-UHFFFAOYSA-N

>  <fragmenstein_mode>  (2649) 
expansion

>  <HIPPO Pose ID>  (2649) 
29158

>  <Energy>  (2649) 
125.743237

>  <fragmenstein_error>  (2649) 


>  <tags>  (2649) 
{'openbind_xx01zvns2b_c1_fragmenstein', 'fragmenstein_placed'}

>  <ref_pdb>  (2649) 
175

>  <scratch_subdir>  (2649) 
/opt/xchem-fragalysis-2/maxwin/BulkDock/SCRATCH/511028/C39319-P291

>  <alias>  (2649) 
CCCNC(=O)[C@@](O)(Nc1ccc2c(c1)CNC2)[C@@H]1C[C@H](F)C[C@H](c2cn[nH]c2)C12CNNC2

>  <HIPPO Compound ID>  (2649) 
39319

>  <fragmenstein_runtime>  (2649) 
7.723114

$$$$
CCc1c(-c2cn[nH]c2)cc(F)cc1[C@](O)(Nc1ccc2c(c1)CNC2)C(=O)NCC(F)F
     RDKit          3D

 33 36  0  0  0  0  0  0  0  0999 V2000
   -4.8911    7.5523  -15.4940 C   0  0  0  0  0  0  0  0  0  0  0  0
   -4.9184    6.0613  -15.1841 C   0  0  0  0  0  0  0  0  0  0  0  0
   -6.1607    5.3503  -15.6913 C   0  0  0  0  0  0  0  0  0  0  0  0
   -6.3097    5.1263  -17.0900 C   0  0  0  0  0  0  0  0  0  0  0  0
   -5.3069    5.4801  -18.0845 C   0  0  0  0  0  0  0  0  0  0  0  0
   -3.9007    5.3581  -18.1588 C   0  0  0  0  0  0  0  0  0  0  0  0
   -3.4048    5.7638  -19.3348 N   0  0  0  0  0  0  0  0  0  0  0  0
   -4.5162    5.9984  -20.0589 N   0  0  0  0  0  0  0  0  0  0  0  0
   -5.6469    5.9928  -19.3148 C   0  0  0  0  0  0  0  0  0  0  0  0
   -7.4868    4.5422  -17.5870 C   0  0  0  0  0  0  0  0  0  0  0  0
   -8.5161    4.2100  -16.7385 C   0  0  0  0  0  0  0  0  0  0  0  0
   -9.6361    3.6818  -17.2499 F   0  0  0  0  0  0  0  0  0  0  0  0
   -8.3930    4.4139  -15.3740 C   0  0  0  0  0  0  0  0  0  0  0  0
   -7.2107    4.9415  -14.8009 C   0  0  0  0  0  0  0  0  0  0  0  0
   -7.1122    5.0638  -13.2561 C   0  0  2  0  0  0  0  0  0  0  0  0
   -5.9158    4.4113  -12.8560 O   0  0  0  0  0  0  0  0  0  0  0  0
   -8.1931    4.3121  -12.5798 N   0  0  0  0  0  0  0  0  0  0  0  0
   -8.3187    4.2264  -11.1849 C   0  0  0  0  0  0  0  0  0  0  0  0
   -8.2895    5.3449  -10.3310 C   0  0  0  0  0  0  0  0  0  0  0  0
   -8.4016    5.2287   -8.9393 C   0  0  0  0  0  0  0  0  0  0  0  0
   -8.6083    3.9767   -8.4030 C   0  0  0  0  0  0  0  0  0  0  0  0
   -8.6914    2.8648   -9.2238 C   0  0  0  0  0  0  0  0  0  0  0  0
   -8.5431    2.9686  -10.6010 C   0  0  0  0  0  0  0  0  0  0  0  0
   -8.9536    1.6552   -8.3933 C   0  0  0  0  0  0  0  0  0  0  0  0
   -9.1934    2.1452   -7.0097 N   0  0  0  0  0  0  0  0  0  0  0  0
   -8.8184    3.5728   -6.9855 C   0  0  0  0  0  0  0  0  0  0  0  0
   -7.1556    6.6304  -12.8603 C   0  0  0  0  0  0  0  0  0  0  0  0
   -7.9890    7.3736  -13.2144 O   0  0  0  0  0  0  0  0  0  0  0  0
   -5.9234    6.8618  -11.9266 N   0  0  0  0  0  0  0  0  0  0  0  0
   -5.5263    8.0274  -11.1685 C   0  0  0  0  0  0  0  0  0  0  0  0
   -4.4641    8.8856  -11.8478 C   0  0  0  0  0  0  0  0  0  0  0  0
   -3.3719    8.1340  -12.1407 F   0  0  0  0  0  0  0  0  0  0  0  0
   -4.9221    9.3937  -13.0166 F   0  0  0  0  0  0  0  0  0  0  0  0
  1  2  1  0
  2  3  1  0
  3  4  2  0
  4  5  1  0
  5  6  1  0
  6  7  2  0
  7  8  1  0
  8  9  1  0
  4 10  1  0
 10 11  2  0
 11 12  1  0
 11 13  1  0
 13 14  2  0
 14 15  1  0
 15 16  1  1
 15 17  1  0
 17 18  1  0
 18 19  2  0
 19 20  1  0
 20 21  2  0
 21 22  1  0
 22 23  2  0
 22 24  1  0
 24 25  1  0
 25 26  1  0
 15 27  1  0
 27 28  2  0
 27 29  1  0
 29 30  1  0
 30 31  1  0
 31 32  1  0
 31 33  1  0
 14  3  1  0
 23 18  1  0
  9  5  2  0
 26 21  1  0
M  END
>  <smiles>  (2650) 
C39347-P292

>  <fragmenstein_outcome>  (2650) 
acceptable

>  <inchikey>  (2650) 
RZFVUCZGONRKIB-UHFFFAOYSA-N

>  <fragmenstein_mode>  (2650) 
expansion

>  <HIPPO Pose ID>  (2650) 
29166

>  <Energy>  (2650) 
142.371387

>  <fragmenstein_error>  (2650) 


>  <tags>  (2650) 
{'openbind_xx01zvns2b_c1_fragmenstein', 'fragmenstein_placed'}

>  <ref_pdb>  (2650) 
175

>  <scratch_subdir>  (2650) 
/opt/xchem-fragalysis-2/maxwin/BulkDock/SCRATCH/511028/C39347-P292

>  <alias>  (2650) 
CCc1c(-c2cn[nH]c2)cc(F)cc1[C@](O)(Nc1ccc2c(c1)CNC2)C(=O)NCC(F)F

>  <HIPPO Compound ID>  (2650) 
39347

>  <fragmenstein_runtime>  (2650) 
6.290743

$$$$
O=C(Nc1ccc2c(c1)CNC2)c1cc(Cl)c2ncn3cnc1c23
     RDKit          3D

 24 28  0  0  0  0  0  0  0  0999 V2000
   -7.1531    6.7627  -12.9582 O   0  0  0  0  0  0  0  0  0  0  0  0
   -7.3435    5.6578  -13.2832 C   0  0  0  0  0  0  0  0  0  0  0  0
   -7.7384    4.4202  -12.4444 N   0  0  0  0  0  0  0  0  0  0  0  0
   -8.0622    4.3082  -11.0942 C   0  0  0  0  0  0  0  0  0  0  0  0
   -8.0143    5.4290  -10.2490 C   0  0  0  0  0  0  0  0  0  0  0  0
   -8.2684    5.3069   -8.8800 C   0  0  0  0  0  0  0  0  0  0  0  0
   -8.5821    4.0563   -8.3827 C   0  0  0  0  0  0  0  0  0  0  0  0
   -8.6503    2.9487   -9.2200 C   0  0  0  0  0  0  0  0  0  0  0  0
   -8.3921    3.0519  -10.5785 C   0  0  0  0  0  0  0  0  0  0  0  0
   -8.9629    1.7375   -8.4079 C   0  0  0  0  0  0  0  0  0  0  0  0
   -9.3177    2.2353   -7.0545 N   0  0  0  0  0  0  0  0  0  0  0  0
   -8.8568    3.6358   -6.9794 C   0  0  0  0  0  0  0  0  0  0  0  0
   -7.1444    5.3011  -14.6965 C   0  0  0  0  0  0  0  0  0  0  0  0
   -8.1647    4.6344  -15.4676 C   0  0  0  0  0  0  0  0  0  0  0  0
   -8.0336    4.3996  -16.8736 C   0  0  0  0  0  0  0  0  0  0  0  0
   -9.2520    3.7321  -17.8291 Cl  0  0  0  0  0  0  0  0  0  0  0  0
   -6.8717    4.8098  -17.5214 C   0  0  0  0  0  0  0  0  0  0  0  0
   -6.2389    4.8766  -18.7667 N   0  0  0  0  0  0  0  0  0  0  0  0
   -5.0629    5.5112  -18.5768 C   0  0  0  0  0  0  0  0  0  0  0  0
   -4.9554    5.8006  -17.2881 N   0  0  0  0  0  0  0  0  0  0  0  0
   -4.1744    6.4251  -16.4154 C   0  0  0  0  0  0  0  0  0  0  0  0
   -4.7756    6.4012  -15.2038 N   0  0  0  0  0  0  0  0  0  0  0  0
   -5.9910    5.7156  -15.3740 C   0  0  0  0  0  0  0  0  0  0  0  0
   -6.0162    5.3968  -16.6752 C   0  0  0  0  0  0  0  0  0  0  0  0
  1  2  2  0
  2  3  1  0
  3  4  1  0
  4  5  2  0
  5  6  1  0
  6  7  2  0
  7  8  1  0
  8  9  2  0
  8 10  1  0
 10 11  1  0
 11 12  1  0
  2 13  1  0
 13 14  2  0
 14 15  1  0
 15 16  1  0
 15 17  2  0
 17 18  1  0
 18 19  2  0
 19 20  1  0
 20 21  1  0
 21 22  2  0
 22 23  1  0
 23 24  2  0
  9  4  1  0
 23 13  1  0
 12  7  1  0
 24 17  1  0
 24 20  1  0
M  END
>  <smiles>  (2651) 
C26471-P293

>  <fragmenstein_outcome>  (2651) 
acceptable

>  <inchikey>  (2651) 
HUIVOGIVFBRRGU-UHFFFAOYSA-N

>  <fragmenstein_mode>  (2651) 
expansion

>  <HIPPO Pose ID>  (2651) 
29217

>  <Energy>  (2651) 
103.426416

>  <fragmenstein_error>  (2651) 


>  <tags>  (2651) 
{'openbind_xx01zvns2b_c1_fragmenstein', 'fragmenstein_placed'}

>  <ref_pdb>  (2651) 
175

>  <scratch_subdir>  (2651) 
/opt/xchem-fragalysis-2/maxwin/BulkDock/SCRATCH/511028/C26471-P293

>  <alias>  (2651) 
O=C(Nc1ccc2c(c1)CNC2)c1cc(Cl)c2ncn3cnc1c23

>  <HIPPO Compound ID>  (2651) 
26471

>  <fragmenstein_runtime>  (2651) 
3.701081

$$$$
O=C(Nc1ccc2c(c1)CNC2)c1cc(Cl)c2[nH]c(=O)n3c2c1NC3
     RDKit          3D

 25 29  0  0  0  0  0  0  0  0999 V2000
   -6.9322    6.5918  -13.1597 O   0  0  0  0  0  0  0  0  0  0  0  0
   -7.1387    5.4796  -13.4529 C   0  0  0  0  0  0  0  0  0  0  0  0
   -7.5801    4.2792  -12.5840 N   0  0  0  0  0  0  0  0  0  0  0  0
   -7.9392    4.2189  -11.2373 C   0  0  0  0  0  0  0  0  0  0  0  0
   -7.8644    5.3579  -10.4170 C   0  0  0  0  0  0  0  0  0  0  0  0
   -8.1701    5.2851   -9.0538 C   0  0  0  0  0  0  0  0  0  0  0  0
   -8.5522    4.0628   -8.5365 C   0  0  0  0  0  0  0  0  0  0  0  0
   -8.6344    2.9342   -9.3474 C   0  0  0  0  0  0  0  0  0  0  0  0
   -8.3368    2.9915  -10.6996 C   0  0  0  0  0  0  0  0  0  0  0  0
   -9.0037    1.7601   -8.5024 C   0  0  0  0  0  0  0  0  0  0  0  0
   -9.5147    2.3414   -7.2333 N   0  0  0  0  0  0  0  0  0  0  0  0
   -8.8892    3.6790   -7.1342 C   0  0  0  0  0  0  0  0  0  0  0  0
   -6.9742    5.0983  -14.8706 C   0  0  0  0  0  0  0  0  0  0  0  0
   -8.0785    4.5698  -15.6195 C   0  0  0  0  0  0  0  0  0  0  0  0
   -8.0195    4.4343  -17.0385 C   0  0  0  0  0  0  0  0  0  0  0  0
   -9.3680    3.9163  -17.9260 Cl  0  0  0  0  0  0  0  0  0  0  0  0
   -6.8744    4.8082  -17.6760 C   0  0  0  0  0  0  0  0  0  0  0  0
   -6.4129    5.0433  -18.9803 N   0  0  0  0  0  0  0  0  0  0  0  0
   -5.1135    5.6759  -18.8947 C   0  0  0  0  0  0  0  0  0  0  0  0
   -4.4690    6.1577  -19.8091 O   0  0  0  0  0  0  0  0  0  0  0  0
   -4.7963    5.6866  -17.5412 N   0  0  0  0  0  0  0  0  0  0  0  0
   -5.8679    5.2128  -16.8706 C   0  0  0  0  0  0  0  0  0  0  0  0
   -5.8217    5.4412  -15.5395 C   0  0  0  0  0  0  0  0  0  0  0  0
   -4.5739    6.0295  -15.2107 N   0  0  0  0  0  0  0  0  0  0  0  0
   -3.9397    6.3378  -16.5654 C   0  0  0  0  0  0  0  0  0  0  0  0
  1  2  2  0
  2  3  1  0
  3  4  1  0
  4  5  2  0
  5  6  1  0
  6  7  2  0
  7  8  1  0
  8  9  2  0
  8 10  1  0
 10 11  1  0
 11 12  1  0
  2 13  1  0
 13 14  2  0
 14 15  1  0
 15 16  1  0
 15 17  2  0
 17 18  1  0
 18 19  1  0
 19 20  2  0
 19 21  1  0
 21 22  1  0
 22 23  2  0
 23 24  1  0
 24 25  1  0
  9  4  1  0
 23 13  1  0
 12  7  1  0
 22 17  1  0
 25 21  1  0
M  END
>  <smiles>  (2652) 
C39537-P293

>  <fragmenstein_outcome>  (2652) 
acceptable

>  <inchikey>  (2652) 
RBVWITRJPMOMKR-UHFFFAOYSA-N

>  <fragmenstein_mode>  (2652) 
expansion

>  <HIPPO Pose ID>  (2652) 
29221

>  <Energy>  (2652) 
45.163544

>  <fragmenstein_error>  (2652) 


>  <tags>  (2652) 
{'openbind_xx01zvns2b_c1_fragmenstein', 'fragmenstein_placed'}

>  <ref_pdb>  (2652) 
175

>  <scratch_subdir>  (2652) 
/opt/xchem-fragalysis-2/maxwin/BulkDock/SCRATCH/511028/C39537-P293

>  <alias>  (2652) 
O=C(Nc1ccc2c(c1)CNC2)c1cc(Cl)c2[nH]c(=O)n3c2c1NC3

>  <HIPPO Compound ID>  (2652) 
39537

>  <fragmenstein_runtime>  (2652) 
2.934764

$$$$
O=C(Nc1ccc2c(c1)CNC2)c1cc(Cl)c2[nH]c(=O)n3cnc1c23
     RDKit          3D

 25 29  0  0  0  0  0  0  0  0999 V2000
   -6.9527    6.5708  -13.0625 O   0  0  0  0  0  0  0  0  0  0  0  0
   -7.2038    5.4734  -13.3702 C   0  0  0  0  0  0  0  0  0  0  0  0
   -7.7698    4.3037  -12.5349 N   0  0  0  0  0  0  0  0  0  0  0  0
   -8.0463    4.2156  -11.1721 C   0  0  0  0  0  0  0  0  0  0  0  0
   -7.9540    5.3483  -10.3445 C   0  0  0  0  0  0  0  0  0  0  0  0
   -8.2158    5.2611   -8.9737 C   0  0  0  0  0  0  0  0  0  0  0  0
   -8.5783    4.0324   -8.4587 C   0  0  0  0  0  0  0  0  0  0  0  0
   -8.6713    2.9095   -9.2769 C   0  0  0  0  0  0  0  0  0  0  0  0
   -8.4107    2.9790  -10.6352 C   0  0  0  0  0  0  0  0  0  0  0  0
   -9.0202    1.7284   -8.4346 C   0  0  0  0  0  0  0  0  0  0  0  0
   -9.5211    2.3000   -7.1576 N   0  0  0  0  0  0  0  0  0  0  0  0
   -8.8952    3.6375   -7.0550 C   0  0  0  0  0  0  0  0  0  0  0  0
   -7.0457    5.0981  -14.7844 C   0  0  0  0  0  0  0  0  0  0  0  0
   -8.1627    4.6081  -15.5490 C   0  0  0  0  0  0  0  0  0  0  0  0
   -8.1019    4.4766  -16.9600 C   0  0  0  0  0  0  0  0  0  0  0  0
   -9.4383    3.9506  -17.8544 Cl  0  0  0  0  0  0  0  0  0  0  0  0
   -6.9533    4.8373  -17.6049 C   0  0  0  0  0  0  0  0  0  0  0  0
   -6.4091    5.0095  -18.8912 N   0  0  0  0  0  0  0  0  0  0  0  0
   -5.0680    5.4962  -18.8099 C   0  0  0  0  0  0  0  0  0  0  0  0
   -4.2422    5.8109  -19.6414 O   0  0  0  0  0  0  0  0  0  0  0  0
   -4.8453    5.6031  -17.4315 N   0  0  0  0  0  0  0  0  0  0  0  0
   -3.9815    5.9684  -16.4474 C   0  0  0  0  0  0  0  0  0  0  0  0
   -4.5657    5.8580  -15.2417 N   0  0  0  0  0  0  0  0  0  0  0  0
   -5.8566    5.3932  -15.4686 C   0  0  0  0  0  0  0  0  0  0  0  0
   -5.9539    5.2232  -16.7981 C   0  0  0  0  0  0  0  0  0  0  0  0
  1  2  2  0
  2  3  1  0
  3  4  1  0
  4  5  2  0
  5  6  1  0
  6  7  2  0
  7  8  1  0
  8  9  2  0
  8 10  1  0
 10 11  1  0
 11 12  1  0
  2 13  1  0
 13 14  2  0
 14 15  1  0
 15 16  1  0
 15 17  2  0
 17 18  1  0
 18 19  1  0
 19 20  2  0
 19 21  1  0
 21 22  1  0
 22 23  2  0
 23 24  1  0
 24 25  2  0
  9  4  1  0
 24 13  1  0
 12  7  1  0
 25 17  1  0
 25 21  1  0
M  END
>  <smiles>  (2653) 
C39561-P293

>  <fragmenstein_outcome>  (2653) 
acceptable

>  <inchikey>  (2653) 
XNSFTLKLYNFGOI-UHFFFAOYSA-N

>  <fragmenstein_mode>  (2653) 
expansion

>  <HIPPO Pose ID>  (2653) 
29234

>  <Energy>  (2653) 
98.771789

>  <fragmenstein_error>  (2653) 


>  <tags>  (2653) 
{'openbind_xx01zvns2b_c1_fragmenstein', 'fragmenstein_placed'}

>  <ref_pdb>  (2653) 
175

>  <scratch_subdir>  (2653) 
/opt/xchem-fragalysis-2/maxwin/BulkDock/SCRATCH/511028/C39561-P293

>  <alias>  (2653) 
O=C(Nc1ccc2c(c1)CNC2)c1cc(Cl)c2[nH]c(=O)n3cnc1c23

>  <HIPPO Compound ID>  (2653) 
21916

>  <fragmenstein_runtime>  (2653) 
4.697058

$$$$
NCc1nc2cc(Cl)cc(C(=O)Nc3ccc4c(c3)CNC4)c2[nH]1
     RDKit          3D

 24 27  0  0  0  0  0  0  0  0999 V2000
   -3.1943    5.8683  -19.7865 N   0  0  0  0  0  0  0  0  0  0  0  0
   -3.4496    6.3133  -18.4104 C   0  0  0  0  0  0  0  0  0  0  0  0
   -4.6652    5.6487  -17.8661 C   0  0  0  0  0  0  0  0  0  0  0  0
   -5.5518    5.0377  -18.6145 N   0  0  0  0  0  0  0  0  0  0  0  0
   -6.5902    4.7606  -17.7863 C   0  0  0  0  0  0  0  0  0  0  0  0
   -7.8421    4.2819  -18.1463 C   0  0  0  0  0  0  0  0  0  0  0  0
   -8.8176    4.2543  -17.1689 C   0  0  0  0  0  0  0  0  0  0  0  0
  -10.4408    4.1529  -17.6828 Cl  0  0  0  0  0  0  0  0  0  0  0  0
   -8.5251    4.4891  -15.8303 C   0  0  0  0  0  0  0  0  0  0  0  0
   -7.2348    4.8751  -15.4333 C   0  0  0  0  0  0  0  0  0  0  0  0
   -6.9855    5.2200  -14.0093 C   0  0  0  0  0  0  0  0  0  0  0  0
   -6.4167    6.2122  -13.7613 O   0  0  0  0  0  0  0  0  0  0  0  0
   -7.6547    4.1788  -13.0663 N   0  0  0  0  0  0  0  0  0  0  0  0
   -7.8367    4.1945  -11.6809 C   0  0  0  0  0  0  0  0  0  0  0  0
   -7.6292    5.3488  -10.9141 C   0  0  0  0  0  0  0  0  0  0  0  0
   -7.8863    5.3475   -9.5346 C   0  0  0  0  0  0  0  0  0  0  0  0
   -8.3302    4.1772   -8.9431 C   0  0  0  0  0  0  0  0  0  0  0  0
   -8.5117    3.0228   -9.6943 C   0  0  0  0  0  0  0  0  0  0  0  0
   -8.2871    3.0182  -11.0626 C   0  0  0  0  0  0  0  0  0  0  0  0
   -8.9019    1.9047   -8.7827 C   0  0  0  0  0  0  0  0  0  0  0  0
   -9.3139    2.5616   -7.5152 N   0  0  0  0  0  0  0  0  0  0  0  0
   -8.6428    3.8812   -7.5134 C   0  0  0  0  0  0  0  0  0  0  0  0
   -6.3044    5.0853  -16.4633 C   0  0  0  0  0  0  0  0  0  0  0  0
   -5.0381    5.6256  -16.5361 N   0  0  0  0  0  0  0  0  0  0  0  0
  1  2  1  0
  2  3  1  0
  3  4  2  0
  4  5  1  0
  5  6  2  0
  6  7  1  0
  7  8  1  0
  7  9  2  0
  9 10  1  0
 10 11  1  0
 11 12  2  0
 11 13  1  0
 13 14  1  0
 14 15  2  0
 15 16  1  0
 16 17  2  0
 17 18  1  0
 18 19  2  0
 18 20  1  0
 20 21  1  0
 21 22  1  0
 10 23  2  0
 23 24  1  0
 24  3  1  0
 23  5  1  0
 19 14  1  0
 22 17  1  0
M  END
>  <smiles>  (2654) 
C39629-P293

>  <fragmenstein_outcome>  (2654) 
acceptable

>  <inchikey>  (2654) 
OWCWUODGFHPQBV-UHFFFAOYSA-N

>  <fragmenstein_mode>  (2654) 
expansion

>  <HIPPO Pose ID>  (2654) 
29238

>  <Energy>  (2654) 
26.8158

>  <fragmenstein_error>  (2654) 


>  <tags>  (2654) 
{'openbind_xx01zvns2b_c1_fragmenstein', 'fragmenstein_placed'}

>  <ref_pdb>  (2654) 
175

>  <scratch_subdir>  (2654) 
/opt/xchem-fragalysis-2/maxwin/BulkDock/SCRATCH/511028/C39629-P293

>  <alias>  (2654) 
NCc1nc2cc(Cl)cc(C(=O)Nc3ccc4c(c3)CNC4)c2[nH]1

>  <HIPPO Compound ID>  (2654) 
23093

>  <fragmenstein_runtime>  (2654) 
4.038137

$$$$
CNc1cc(C(=O)Nc2ccc3c(c2)CNC3)cc2c(C)c[nH]c12
     RDKit          3D

 24 27  0  0  0  0  0  0  0  0999 V2000
   -9.6222    4.1029  -18.6283 C   0  0  0  0  0  0  0  0  0  0  0  0
   -9.3756    3.9671  -17.2148 N   0  0  0  0  0  0  0  0  0  0  0  0
   -8.1472    4.4223  -16.6998 C   0  0  0  0  0  0  0  0  0  0  0  0
   -8.0733    4.5364  -15.2977 C   0  0  0  0  0  0  0  0  0  0  0  0
   -6.9351    5.0136  -14.6533 C   0  0  0  0  0  0  0  0  0  0  0  0
   -6.9620    5.3312  -13.2024 C   0  0  0  0  0  0  0  0  0  0  0  0
   -6.5287    6.3610  -12.8610 O   0  0  0  0  0  0  0  0  0  0  0  0
   -7.6049    4.1914  -12.3783 N   0  0  0  0  0  0  0  0  0  0  0  0
   -7.9236    4.1228  -11.0245 C   0  0  0  0  0  0  0  0  0  0  0  0
   -7.7667    5.2441  -10.1935 C   0  0  0  0  0  0  0  0  0  0  0  0
   -8.0476    5.1701   -8.8262 C   0  0  0  0  0  0  0  0  0  0  0  0
   -8.4774    3.9615   -8.3124 C   0  0  0  0  0  0  0  0  0  0  0  0
   -8.6428    2.8529   -9.1342 C   0  0  0  0  0  0  0  0  0  0  0  0
   -8.3842    2.9152  -10.4954 C   0  0  0  0  0  0  0  0  0  0  0  0
   -9.0405    1.6810   -8.3032 C   0  0  0  0  0  0  0  0  0  0  0  0
   -9.3450    2.2198   -6.9528 N   0  0  0  0  0  0  0  0  0  0  0  0
   -8.7897    3.5879   -6.9037 C   0  0  0  0  0  0  0  0  0  0  0  0
   -5.7886    5.3338  -15.3806 C   0  0  0  0  0  0  0  0  0  0  0  0
   -5.7957    5.1856  -16.7791 C   0  0  0  0  0  0  0  0  0  0  0  0
   -4.7952    5.4027  -17.7791 C   0  0  0  0  0  0  0  0  0  0  0  0
   -3.3869    5.8097  -17.5491 C   0  0  0  0  0  0  0  0  0  0  0  0
   -5.3928    5.1634  -18.9941 C   0  0  0  0  0  0  0  0  0  0  0  0
   -6.6876    4.7832  -18.7659 N   0  0  0  0  0  0  0  0  0  0  0  0
   -6.9694    4.7559  -17.4128 C   0  0  0  0  0  0  0  0  0  0  0  0
  1  2  1  0
  2  3  1  0
  3  4  2  0
  4  5  1  0
  5  6  1  0
  6  7  2  0
  6  8  1  0
  8  9  1  0
  9 10  2  0
 10 11  1  0
 11 12  2  0
 12 13  1  0
 13 14  2  0
 13 15  1  0
 15 16  1  0
 16 17  1  0
  5 18  2  0
 18 19  1  0
 19 20  1  0
 20 21  1  0
 20 22  2  0
 22 23  1  0
 23 24  1  0
 24  3  1  0
 14  9  1  0
 24 19  2  0
 17 12  1  0
M  END
>  <smiles>  (2655) 
C39858-P294

>  <fragmenstein_outcome>  (2655) 
acceptable

>  <inchikey>  (2655) 
XRTFLAZUFDZULK-UHFFFAOYSA-N

>  <fragmenstein_mode>  (2655) 
expansion

>  <HIPPO Pose ID>  (2655) 
29348

>  <Energy>  (2655) 
41.5879

>  <fragmenstein_error>  (2655) 


>  <tags>  (2655) 
{'openbind_xx01zvns2b_c1_fragmenstein', 'fragmenstein_placed'}

>  <ref_pdb>  (2655) 
175

>  <scratch_subdir>  (2655) 
/opt/xchem-fragalysis-2/maxwin/BulkDock/SCRATCH/511028/C39858-P294

>  <alias>  (2655) 
CNc1cc(C(=O)Nc2ccc3c(c2)CNC3)cc2c(C)c[nH]c12

>  <HIPPO Compound ID>  (2655) 
28894

>  <fragmenstein_runtime>  (2655) 
4.237113

$$$$
CC1=Cc2csc3cc(C(O)(O)Nc4ccc5c(c4)CNC5)cc1c23
     RDKit          3D

 25 29  0  0  0  0  0  0  0  0999 V2000
   -3.7322    5.7247  -17.7684 C   0  0  0  0  0  0  0  0  0  0  0  0
   -5.1320    5.2549  -17.8832 C   0  0  0  0  0  0  0  0  0  0  0  0
   -5.8256    4.8612  -19.0002 C   0  0  0  0  0  0  0  0  0  0  0  0
   -7.1306    4.4121  -18.6375 C   0  0  0  0  0  0  0  0  0  0  0  0
   -8.2745    3.8527  -19.1059 C   0  0  0  0  0  0  0  0  0  0  0  0
   -9.4282    3.6960  -17.8141 S   0  0  0  0  0  0  0  0  0  0  0  0
   -8.3177    4.2528  -16.6245 C   0  0  0  0  0  0  0  0  0  0  0  0
   -8.3551    4.4313  -15.2459 C   0  0  0  0  0  0  0  0  0  0  0  0
   -7.1816    4.9409  -14.5998 C   0  0  0  0  0  0  0  0  0  0  0  0
   -7.2408    5.2086  -13.1007 C   0  0  0  0  0  0  0  0  0  0  0  0
   -5.9405    5.3502  -12.5990 O   0  0  0  0  0  0  0  0  0  0  0  0
   -7.9346    6.4210  -12.9131 O   0  0  0  0  0  0  0  0  0  0  0  0
   -7.8910    4.1316  -12.4123 N   0  0  0  0  0  0  0  0  0  0  0  0
   -8.1119    4.0818  -11.0362 C   0  0  0  0  0  0  0  0  0  0  0  0
   -8.0664    5.2136  -10.1929 C   0  0  0  0  0  0  0  0  0  0  0  0
   -8.2983    5.1281   -8.8151 C   0  0  0  0  0  0  0  0  0  0  0  0
   -8.6339    3.9000   -8.2904 C   0  0  0  0  0  0  0  0  0  0  0  0
   -8.7308    2.7816   -9.1081 C   0  0  0  0  0  0  0  0  0  0  0  0
   -8.4818    2.8545  -10.4685 C   0  0  0  0  0  0  0  0  0  0  0  0
   -9.0942    1.6024   -8.2716 C   0  0  0  0  0  0  0  0  0  0  0  0
   -9.6004    2.1790   -6.9984 N   0  0  0  0  0  0  0  0  0  0  0  0
   -8.9528    3.5048   -6.8882 C   0  0  0  0  0  0  0  0  0  0  0  0
   -6.0125    5.2742  -15.3427 C   0  0  0  0  0  0  0  0  0  0  0  0
   -6.0145    5.0952  -16.7055 C   0  0  0  0  0  0  0  0  0  0  0  0
   -7.1677    4.5943  -17.2716 C   0  0  0  0  0  0  0  0  0  0  0  0
  1  2  1  0
  2  3  2  0
  3  4  1  0
  4  5  2  0
  5  6  1  0
  6  7  1  0
  7  8  2  0
  8  9  1  0
  9 10  1  0
 10 11  1  0
 10 12  1  0
 10 13  1  0
 13 14  1  0
 14 15  2  0
 15 16  1  0
 16 17  2  0
 17 18  1  0
 18 19  2  0
 18 20  1  0
 20 21  1  0
 21 22  1  0
  9 23  2  0
 23 24  1  0
 24 25  2  0
 24  2  1  0
 25  4  1  0
 25  7  1  0
 19 14  1  0
 22 17  1  0
M  END
>  <smiles>  (2656) 
C39865-P294

>  <fragmenstein_outcome>  (2656) 
acceptable

>  <inchikey>  (2656) 
QJAIZHXCSLKTJX-UHFFFAOYSA-N

>  <fragmenstein_mode>  (2656) 
expansion

>  <HIPPO Pose ID>  (2656) 
29349

>  <Energy>  (2656) 
-32.26794

>  <fragmenstein_error>  (2656) 


>  <tags>  (2656) 
{'openbind_xx01zvns2b_c1_fragmenstein', 'fragmenstein_placed'}

>  <ref_pdb>  (2656) 
175

>  <scratch_subdir>  (2656) 
/opt/xchem-fragalysis-2/maxwin/BulkDock/SCRATCH/511028/C39865-P294

>  <alias>  (2656) 
CC1=Cc2csc3cc(C(O)(O)Nc4ccc5c(c4)CNC5)cc1c23

>  <HIPPO Compound ID>  (2656) 
39865

>  <fragmenstein_runtime>  (2656) 
3.132229

$$$$
CC1(C)c2cc(C(=O)C(=O)c3ccc4c(c3)CNC4)cc(Cl)c2N[C@H]1O
     RDKit          3D

 26 29  0  0  0  0  0  0  0  0999 V2000
   -3.6554    5.1755  -17.7626 C   0  0  0  0  0  0  0  0  0  0  0  0
   -5.0872    5.6422  -18.0379 C   0  0  0  0  0  0  0  0  0  0  0  0
   -5.1187    7.1744  -18.1430 C   0  0  0  0  0  0  0  0  0  0  0  0
   -6.0662    5.1704  -16.9973 C   0  0  0  0  0  0  0  0  0  0  0  0
   -6.0006    5.2413  -15.6147 C   0  0  0  0  0  0  0  0  0  0  0  0
   -7.0928    4.7756  -14.8635 C   0  0  0  0  0  0  0  0  0  0  0  0
   -6.9844    4.8348  -13.3907 C   0  0  0  0  0  0  0  0  0  0  0  0
   -6.3777    5.7633  -12.8708 O   0  0  0  0  0  0  0  0  0  0  0  0
   -7.5133    3.6904  -12.5533 C   0  0  0  0  0  0  0  0  0  0  0  0
   -7.4034    2.5635  -13.0316 O   0  0  0  0  0  0  0  0  0  0  0  0
   -8.0185    3.8903  -11.1675 C   0  0  0  0  0  0  0  0  0  0  0  0
   -7.9901    5.1273  -10.4925 C   0  0  0  0  0  0  0  0  0  0  0  0
   -8.3245    5.2127   -9.1333 C   0  0  0  0  0  0  0  0  0  0  0  0
   -8.7087    4.0583   -8.4773 C   0  0  0  0  0  0  0  0  0  0  0  0
   -8.7868    2.8470   -9.1513 C   0  0  0  0  0  0  0  0  0  0  0  0
   -8.4490    2.7457  -10.4868 C   0  0  0  0  0  0  0  0  0  0  0  0
   -9.1889    1.7739   -8.1983 C   0  0  0  0  0  0  0  0  0  0  0  0
   -9.6852    2.4921   -6.9958 N   0  0  0  0  0  0  0  0  0  0  0  0
   -9.0517    3.8290   -7.0427 C   0  0  0  0  0  0  0  0  0  0  0  0
   -8.2543    4.3104  -15.4956 C   0  0  0  0  0  0  0  0  0  0  0  0
   -8.3093    4.2829  -16.8889 C   0  0  0  0  0  0  0  0  0  0  0  0
   -9.7588    3.8533  -17.6896 Cl  0  0  0  0  0  0  0  0  0  0  0  0
   -7.1977    4.6615  -17.6299 C   0  0  0  0  0  0  0  0  0  0  0  0
   -7.0849    4.6233  -19.0409 N   0  0  0  0  0  0  0  0  0  0  0  0
   -5.6923    4.9429  -19.2973 C   0  0  1  0  0  0  0  0  0  0  0  0
   -5.6438    5.7230  -20.4624 O   0  0  0  0  0  0  0  0  0  0  0  0
  1  2  1  0
  2  3  1  0
  2  4  1  0
  4  5  2  0
  5  6  1  0
  6  7  1  0
  7  8  2  0
  7  9  1  0
  9 10  2  0
  9 11  1  0
 11 12  2  0
 12 13  1  0
 13 14  2  0
 14 15  1  0
 15 16  2  0
 15 17  1  0
 17 18  1  0
 18 19  1  0
  6 20  2  0
 20 21  1  0
 21 22  1  0
 21 23  2  0
 23 24  1  0
 24 25  1  0
 25 26  1  6
 25  2  1  0
 23  4  1  0
 16 11  1  0
 19 14  1  0
M  END
>  <smiles>  (2657) 
C39910-P246

>  <fragmenstein_outcome>  (2657) 
acceptable

>  <inchikey>  (2657) 
IERDCPAHYOKKFJ-UHFFFAOYSA-N

>  <fragmenstein_mode>  (2657) 
expansion

>  <HIPPO Pose ID>  (2657) 
29354

>  <Energy>  (2657) 
107.174635

>  <fragmenstein_error>  (2657) 


>  <tags>  (2657) 
{'openbind_xx01zvns2b_c1_fragmenstein', 'fragmenstein_placed'}

>  <ref_pdb>  (2657) 
175

>  <scratch_subdir>  (2657) 
/opt/xchem-fragalysis-2/maxwin/BulkDock/SCRATCH/511028/C39910-P246

>  <alias>  (2657) 
CC1(C)c2cc(C(=O)C(=O)c3ccc4c(c3)CNC4)cc(Cl)c2N[C@H]1O

>  <HIPPO Compound ID>  (2657) 
39910

>  <fragmenstein_runtime>  (2657) 
2.892847

$$$$
CC1(C)c2cc(C(=O)C(=O)c3ccc4c(c3N)CNC4)cc(Cl)c2N[C@H]1O
     RDKit          3D

 27 30  0  0  0  0  0  0  0  0999 V2000
   -3.5862    4.9739  -17.9758 C   0  0  0  0  0  0  0  0  0  0  0  0
   -4.8914    5.7631  -18.0687 C   0  0  0  0  0  0  0  0  0  0  0  0
   -4.5903    7.2360  -17.7822 C   0  0  0  0  0  0  0  0  0  0  0  0
   -5.9470    5.2308  -17.1342 C   0  0  0  0  0  0  0  0  0  0  0  0
   -5.9780    5.2583  -15.7491 C   0  0  0  0  0  0  0  0  0  0  0  0
   -7.1091    4.7661  -15.0816 C   0  0  0  0  0  0  0  0  0  0  0  0
   -7.1059    4.8721  -13.5993 C   0  0  0  0  0  0  0  0  0  0  0  0
   -6.0659    5.0956  -12.9870 O   0  0  0  0  0  0  0  0  0  0  0  0
   -8.4002    4.8890  -12.8302 C   0  0  0  0  0  0  0  0  0  0  0  0
   -9.4292    5.2363  -13.3995 O   0  0  0  0  0  0  0  0  0  0  0  0
   -8.3587    4.6552  -11.3763 C   0  0  0  0  0  0  0  0  0  0  0  0
   -8.1801    5.7811  -10.5473 C   0  0  0  0  0  0  0  0  0  0  0  0
   -8.1796    5.6393   -9.1610 C   0  0  0  0  0  0  0  0  0  0  0  0
   -8.3805    4.3738   -8.6369 C   0  0  0  0  0  0  0  0  0  0  0  0
   -8.5507    3.2604   -9.4601 C   0  0  0  0  0  0  0  0  0  0  0  0
   -8.5332    3.3683  -10.8474 C   0  0  0  0  0  0  0  0  0  0  0  0
   -8.6281    2.2369  -11.6648 N   0  0  0  0  0  0  0  0  0  0  0  0
   -8.7761    2.0561   -8.6037 C   0  0  0  0  0  0  0  0  0  0  0  0
   -8.8294    2.5348   -7.1980 N   0  0  0  0  0  0  0  0  0  0  0  0
   -8.4623    3.9627   -7.2071 C   0  0  0  0  0  0  0  0  0  0  0  0
   -8.1938    4.2571  -15.8173 C   0  0  0  0  0  0  0  0  0  0  0  0
   -8.1404    4.2249  -17.2130 C   0  0  0  0  0  0  0  0  0  0  0  0
   -9.5050    3.6786  -18.1023 Cl  0  0  0  0  0  0  0  0  0  0  0  0
   -7.0072    4.7004  -17.8637 C   0  0  0  0  0  0  0  0  0  0  0  0
   -6.7133    4.6122  -19.2419 N   0  0  0  0  0  0  0  0  0  0  0  0
   -5.5908    5.5159  -19.4469 C   0  0  1  0  0  0  0  0  0  0  0  0
   -6.1133    6.6999  -20.0183 O   0  0  0  0  0  0  0  0  0  0  0  0
  1  2  1  0
  2  3  1  0
  2  4  1  0
  4  5  2  0
  5  6  1  0
  6  7  1  0
  7  8  2  0
  7  9  1  0
  9 10  2  0
  9 11  1  0
 11 12  2  0
 12 13  1  0
 13 14  2  0
 14 15  1  0
 15 16  2  0
 16 17  1  0
 15 18  1  0
 18 19  1  0
 19 20  1  0
  6 21  2  0
 21 22  1  0
 22 23  1  0
 22 24  2  0
 24 25  1  0
 25 26  1  0
 26 27  1  1
 26  2  1  0
 24  4  1  0
 16 11  1  0
 20 14  1  0
M  END
>  <smiles>  (2658) 
C39913-P294

>  <fragmenstein_outcome>  (2658) 
acceptable

>  <inchikey>  (2658) 
LSHUJNWVIYBKTD-UHFFFAOYSA-N

>  <fragmenstein_mode>  (2658) 
expansion

>  <HIPPO Pose ID>  (2658) 
29355

>  <Energy>  (2658) 
122.197517

>  <fragmenstein_error>  (2658) 


>  <tags>  (2658) 
{'openbind_xx01zvns2b_c1_fragmenstein', 'fragmenstein_placed'}

>  <ref_pdb>  (2658) 
175

>  <scratch_subdir>  (2658) 
/opt/xchem-fragalysis-2/maxwin/BulkDock/SCRATCH/511028/C39913-P294

>  <alias>  (2658) 
CC1(C)c2cc(C(=O)C(=O)c3ccc4c(c3N)CNC4)cc(Cl)c2N[C@H]1O

>  <HIPPO Compound ID>  (2658) 
39913

>  <fragmenstein_runtime>  (2658) 
4.694913

$$$$
Cc1c(N)[nH]c2c(Cl)cc(C(=O)N[C@@H]3CC4=C(CNC4)C4(C3)NNNN4)cc12
     RDKit          3D

 28 32  0  0  0  0  0  0  0  0999 V2000
   -3.6282    5.8996  -17.0469 C   0  0  0  0  0  0  0  0  0  0  0  0
   -4.9714    5.5216  -17.5543 C   0  0  0  0  0  0  0  0  0  0  0  0
   -5.3795    5.5335  -18.8731 C   0  0  0  0  0  0  0  0  0  0  0  0
   -4.7476    5.9207  -19.9984 N   0  0  0  0  0  0  0  0  0  0  0  0
   -6.6588    5.0627  -18.9367 N   0  0  0  0  0  0  0  0  0  0  0  0
   -7.1116    4.7658  -17.6729 C   0  0  0  0  0  0  0  0  0  0  0  0
   -8.3436    4.2629  -17.2615 C   0  0  0  0  0  0  0  0  0  0  0  0
   -9.5546    3.8307  -18.3811 Cl  0  0  0  0  0  0  0  0  0  0  0  0
   -8.6076    4.1968  -15.9045 C   0  0  0  0  0  0  0  0  0  0  0  0
   -7.6573    4.6099  -14.9771 C   0  0  0  0  0  0  0  0  0  0  0  0
   -8.1299    4.7180  -13.5749 C   0  0  0  0  0  0  0  0  0  0  0  0
   -9.1261    5.2946  -13.3912 O   0  0  0  0  0  0  0  0  0  0  0  0
   -7.2082    3.9829  -12.5898 N   0  0  0  0  0  0  0  0  0  0  0  0
   -7.2654    3.8784  -11.1353 C   0  0  2  0  0  0  0  0  0  0  0  0
   -8.2113    2.7302  -10.7177 C   0  0  0  0  0  0  0  0  0  0  0  0
   -8.5751    2.8032   -9.2769 C   0  0  0  0  0  0  0  0  0  0  0  0
   -8.3547    3.8539   -8.4817 C   0  0  0  0  0  0  0  0  0  0  0  0
   -8.8111    3.5486   -7.1012 C   0  0  0  0  0  0  0  0  0  0  0  0
   -9.5309    2.2638   -7.2038 N   0  0  0  0  0  0  0  0  0  0  0  0
   -9.1286    1.6721   -8.4966 C   0  0  0  0  0  0  0  0  0  0  0  0
   -7.6606    5.1060   -8.9131 C   0  0  0  0  0  0  0  0  0  0  0  0
   -7.6668    5.2082  -10.4631 C   0  0  0  0  0  0  0  0  0  0  0  0
   -8.2679    6.2991   -8.3064 N   0  0  0  0  0  0  0  0  0  0  0  0
   -7.3797    6.6973   -7.2522 N   0  0  0  0  0  0  0  0  0  0  0  0
   -6.0899    6.2658   -7.6309 N   0  0  0  0  0  0  0  0  0  0  0  0
   -6.2598    5.0972   -8.4457 N   0  0  0  0  0  0  0  0  0  0  0  0
   -6.3817    5.0339  -15.3837 C   0  0  0  0  0  0  0  0  0  0  0  0
   -6.1045    5.1162  -16.7716 C   0  0  0  0  0  0  0  0  0  0  0  0
  1  2  1  0
  2  3  2  0
  3  4  1  0
  3  5  1  0
  5  6  1  0
  6  7  2  0
  7  8  1  0
  7  9  1  0
  9 10  2  0
 10 11  1  0
 11 12  2  0
 11 13  1  0
 14 13  1  6
 14 15  1  0
 15 16  1  0
 16 17  2  0
 17 18  1  0
 18 19  1  0
 19 20  1  0
 17 21  1  0
 21 22  1  0
 21 23  1  0
 23 24  1  0
 24 25  1  0
 25 26  1  0
 10 27  1  0
 27 28  2  0
 28  2  1  0
 28  6  1  0
 22 14  1  0
 20 16  1  0
 26 21  1  0
M  END
>  <smiles>  (2659) 
C39926-P294

>  <fragmenstein_outcome>  (2659) 
acceptable

>  <inchikey>  (2659) 
PBERZXAUQMLAAI-UHFFFAOYSA-N

>  <fragmenstein_mode>  (2659) 
expansion

>  <HIPPO Pose ID>  (2659) 
29357

>  <Energy>  (2659) 
9.553725

>  <fragmenstein_error>  (2659) 


>  <tags>  (2659) 
{'openbind_xx01zvns2b_c1_fragmenstein', 'fragmenstein_placed'}

>  <ref_pdb>  (2659) 
175

>  <scratch_subdir>  (2659) 
/opt/xchem-fragalysis-2/maxwin/BulkDock/SCRATCH/511028/C39926-P294

>  <alias>  (2659) 
Cc1c(N)[nH]c2c(Cl)cc(C(=O)N[C@@H]3CC4=C(CNC4)C4(C3)NNNN4)cc12

>  <HIPPO Compound ID>  (2659) 
39926

>  <fragmenstein_runtime>  (2659) 
9.107949

$$$$
Cc1c[nH]c2c1C1(CNNC1)[C@@H]([C@](O)(Nc1ccc3c(c1)CNC3)C(=O)NCC(C)C)C[C@H]2Cl
     RDKit          3D

 34 38  0  0  0  0  0  0  0  0999 V2000
   -3.5812    5.7172  -18.1066 C   0  0  0  0  0  0  0  0  0  0  0  0
   -5.0170    5.3386  -18.0876 C   0  0  0  0  0  0  0  0  0  0  0  0
   -5.7704    5.0857  -19.2160 C   0  0  0  0  0  0  0  0  0  0  0  0
   -7.0284    4.7166  -18.8314 N   0  0  0  0  0  0  0  0  0  0  0  0
   -7.0841    4.6833  -17.4656 C   0  0  0  0  0  0  0  0  0  0  0  0
   -5.8879    5.1609  -16.9575 C   0  0  0  0  0  0  0  0  0  0  0  0
   -5.6465    5.4275  -15.4551 C   0  0  0  0  0  0  0  0  0  0  0  0
   -4.2964    4.8317  -14.9821 C   0  0  0  0  0  0  0  0  0  0  0  0
   -3.4149    5.9309  -14.5585 N   0  0  0  0  0  0  0  0  0  0  0  0
   -4.2531    7.0812  -14.3494 N   0  0  0  0  0  0  0  0  0  0  0  0
   -5.3833    6.9329  -15.2668 C   0  0  0  0  0  0  0  0  0  0  0  0
   -6.8830    4.8430  -14.5885 C   0  0  1  0  0  0  0  0  0  0  0  0
   -6.9630    5.1945  -13.0434 C   0  0  2  0  0  0  0  0  0  0  0  0
   -5.7720    4.7206  -12.4503 O   0  0  0  0  0  0  0  0  0  0  0  0
   -8.0741    4.3966  -12.4591 N   0  0  0  0  0  0  0  0  0  0  0  0
   -8.2018    4.2588  -11.0582 C   0  0  0  0  0  0  0  0  0  0  0  0
   -8.0791    5.3334  -10.1508 C   0  0  0  0  0  0  0  0  0  0  0  0
   -8.2600    5.1714   -8.7724 C   0  0  0  0  0  0  0  0  0  0  0  0
   -8.6052    3.9241   -8.3058 C   0  0  0  0  0  0  0  0  0  0  0  0
   -8.7510    2.8543   -9.1790 C   0  0  0  0  0  0  0  0  0  0  0  0
   -8.5688    3.0037  -10.5444 C   0  0  0  0  0  0  0  0  0  0  0  0
   -9.0869    1.6345   -8.3890 C   0  0  0  0  0  0  0  0  0  0  0  0
   -9.5567    2.1508   -7.0763 N   0  0  0  0  0  0  0  0  0  0  0  0
   -8.8915    3.4631   -6.9167 C   0  0  0  0  0  0  0  0  0  0  0  0
   -7.1676    6.7534  -12.7364 C   0  0  0  0  0  0  0  0  0  0  0  0
   -6.2748    7.4454  -12.4311 O   0  0  0  0  0  0  0  0  0  0  0  0
   -8.6759    7.0775  -12.9158 N   0  0  0  0  0  0  0  0  0  0  0  0
   -9.4118    8.2990  -12.6636 C   0  0  0  0  0  0  0  0  0  0  0  0
   -8.6339    9.5975  -12.9292 C   0  0  0  0  0  0  0  0  0  0  0  0
   -9.5719   10.6698  -13.4918 C   0  0  0  0  0  0  0  0  0  0  0  0
   -7.9832   10.1241  -11.6466 C   0  0  0  0  0  0  0  0  0  0  0  0
   -8.2684    4.9401  -15.3301 C   0  0  0  0  0  0  0  0  0  0  0  0
   -8.2313    4.1864  -16.6712 C   0  0  1  0  0  0  0  0  0  0  0  0
   -9.7532    4.2086  -17.5793 Cl  0  0  0  0  0  0  0  0  0  0  0  0
  1  2  1  0
  2  3  2  0
  3  4  1  0
  4  5  1  0
  5  6  2  0
  6  7  1  0
  7  8  1  0
  8  9  1  0
  9 10  1  0
 10 11  1  0
  7 12  1  0
 12 13  1  0
 13 14  1  1
 13 15  1  0
 15 16  1  0
 16 17  2  0
 17 18  1  0
 18 19  2  0
 19 20  1  0
 20 21  2  0
 20 22  1  0
 22 23  1  0
 23 24  1  0
 13 25  1  0
 25 26  2  0
 25 27  1  0
 27 28  1  0
 28 29  1  0
 29 30  1  0
 29 31  1  0
 12 32  1  6
 32 33  1  0
 33 34  1  6
  6  2  1  0
 11  7  1  0
 21 16  1  0
 33  5  1  0
 24 19  1  0
M  END
>  <smiles>  (2660) 
C39941-P294

>  <fragmenstein_outcome>  (2660) 
acceptable

>  <inchikey>  (2660) 
WYSUEYDZZODQEN-UHFFFAOYSA-N

>  <fragmenstein_mode>  (2660) 
expansion

>  <HIPPO Pose ID>  (2660) 
29360

>  <Energy>  (2660) 
145.871739

>  <fragmenstein_error>  (2660) 


>  <tags>  (2660) 
{'openbind_xx01zvns2b_c1_fragmenstein', 'fragmenstein_placed'}

>  <ref_pdb>  (2660) 
175

>  <scratch_subdir>  (2660) 
/opt/xchem-fragalysis-2/maxwin/BulkDock/SCRATCH/511028/C39941-P294

>  <alias>  (2660) 
Cc1c[nH]c2c1C1(CNNC1)[C@@H]([C@](O)(Nc1ccc3c(c1)CNC3)C(=O)NCC(C)C)C[C@H]2Cl

>  <HIPPO Compound ID>  (2660) 
19526

>  <fragmenstein_runtime>  (2660) 
13.471065

$$$$
CCCNC(=O)[C@](O)(Nc1ccc2c(c1)CNC2)[C@H]1C[C@H](Cl)c2[nH]cc(C)c2C12CNNC2
     RDKit          3D

 33 37  0  0  0  0  0  0  0  0999 V2000
   -3.1252    2.1515   -9.4343 C   0  0  0  0  0  0  0  0  0  0  0  0
   -4.3583    2.7669  -10.0731 C   0  0  0  0  0  0  0  0  0  0  0  0
   -4.2822    2.6988  -11.5922 C   0  0  0  0  0  0  0  0  0  0  0  0
   -5.4054    3.3516  -12.2055 N   0  0  0  0  0  0  0  0  0  0  0  0
   -5.7545    4.8641  -12.3235 C   0  0  0  0  0  0  0  0  0  0  0  0
   -5.2196    5.8049  -11.8718 O   0  0  0  0  0  0  0  0  0  0  0  0
   -7.0856    5.0307  -13.1969 C   0  0  2  0  0  0  0  0  0  0  0  0
   -7.5412    6.3783  -13.1471 O   0  0  0  0  0  0  0  0  0  0  0  0
   -8.1573    4.1987  -12.6021 N   0  0  0  0  0  0  0  0  0  0  0  0
   -8.3114    4.1190  -11.2071 C   0  0  0  0  0  0  0  0  0  0  0  0
   -8.1748    5.2360  -10.3538 C   0  0  0  0  0  0  0  0  0  0  0  0
   -8.2994    5.1371   -8.9631 C   0  0  0  0  0  0  0  0  0  0  0  0
   -8.6096    3.9074   -8.4285 C   0  0  0  0  0  0  0  0  0  0  0  0
   -8.7715    2.7971   -9.2480 C   0  0  0  0  0  0  0  0  0  0  0  0
   -8.6323    2.8837  -10.6254 C   0  0  0  0  0  0  0  0  0  0  0  0
   -9.0696    1.6126   -8.3915 C   0  0  0  0  0  0  0  0  0  0  0  0
   -9.4957    2.1818   -7.0861 N   0  0  0  0  0  0  0  0  0  0  0  0
   -8.8436    3.5083   -7.0108 C   0  0  0  0  0  0  0  0  0  0  0  0
   -6.8926    4.6672  -14.7271 C   0  0  1  0  0  0  0  0  0  0  0  0
   -8.2864    4.7917  -15.4560 C   0  0  0  0  0  0  0  0  0  0  0  0
   -8.3441    4.5306  -16.9653 C   0  0  2  0  0  0  0  0  0  0  0  0
   -8.9637    2.9777  -17.4864 Cl  0  0  0  0  0  0  0  0  0  0  0  0
   -7.0703    4.8825  -17.6212 C   0  0  0  0  0  0  0  0  0  0  0  0
   -6.9294    4.9265  -18.9811 N   0  0  0  0  0  0  0  0  0  0  0  0
   -5.6459    5.2744  -19.2891 C   0  0  0  0  0  0  0  0  0  0  0  0
   -4.9513    5.4971  -18.1181 C   0  0  0  0  0  0  0  0  0  0  0  0
   -3.5246    5.9163  -18.0725 C   0  0  0  0  0  0  0  0  0  0  0  0
   -5.8745    5.2582  -17.0344 C   0  0  0  0  0  0  0  0  0  0  0  0
   -5.6828    5.4075  -15.5142 C   0  0  0  0  0  0  0  0  0  0  0  0
   -5.4732    6.8993  -15.1717 C   0  0  0  0  0  0  0  0  0  0  0  0
   -4.3088    7.0035  -14.2858 N   0  0  0  0  0  0  0  0  0  0  0  0
   -3.4369    5.9186  -14.6563 N   0  0  0  0  0  0  0  0  0  0  0  0
   -4.3075    4.8224  -15.0984 C   0  0  0  0  0  0  0  0  0  0  0  0
  1  2  1  0
  2  3  1  0
  3  4  1  0
  4  5  1  0
  5  6  2  0
  5  7  1  0
  7  8  1  6
  7  9  1  0
  9 10  1  0
 10 11  2  0
 11 12  1  0
 12 13  2  0
 13 14  1  0
 14 15  2  0
 14 16  1  0
 16 17  1  0
 17 18  1  0
  7 19  1  0
 19 20  1  6
 20 21  1  0
 21 22  1  1
 21 23  1  0
 23 24  1  0
 24 25  1  0
 25 26  2  0
 26 27  1  0
 26 28  1  0
 28 29  1  0
 29 30  1  0
 30 31  1  0
 31 32  1  0
 32 33  1  0
 15 10  1  0
 29 19  1  0
 18 13  1  0
 28 23  2  0
 33 29  1  0
M  END
>  <smiles>  (2661) 
C39942-P294

>  <fragmenstein_outcome>  (2661) 
acceptable

>  <inchikey>  (2661) 
DBYCZKGKATWRLX-UHFFFAOYSA-N

>  <fragmenstein_mode>  (2661) 
expansion

>  <HIPPO Pose ID>  (2661) 
29361

>  <Energy>  (2661) 
147.123575

>  <fragmenstein_error>  (2661) 


>  <tags>  (2661) 
{'openbind_xx01zvns2b_c1_fragmenstein', 'fragmenstein_placed'}

>  <ref_pdb>  (2661) 
175

>  <scratch_subdir>  (2661) 
/opt/xchem-fragalysis-2/maxwin/BulkDock/SCRATCH/511028/C39942-P294

>  <alias>  (2661) 
CCCNC(=O)[C@](O)(Nc1ccc2c(c1)CNC2)[C@H]1C[C@H](Cl)c2[nH]cc(C)c2C12CNNC2

>  <HIPPO Compound ID>  (2661) 
25820

>  <fragmenstein_runtime>  (2661) 
7.877485

$$$$
Cc1c[nH]c2c1[C@@]1(CNCN1)[C@@H]([C@@](O)(Nc1ccc3c(c1)CNC3)C(=O)NCC(F)F)C[C@H]2Cl
     RDKit          3D

 34 38  0  0  0  0  0  0  0  0999 V2000
   -3.4100    5.8828  -17.8341 C   0  0  0  0  0  0  0  0  0  0  0  0
   -4.8380    5.4853  -17.9313 C   0  0  0  0  0  0  0  0  0  0  0  0
   -5.5278    5.2759  -19.1110 C   0  0  0  0  0  0  0  0  0  0  0  0
   -6.8002    4.8691  -18.8134 N   0  0  0  0  0  0  0  0  0  0  0  0
   -6.9216    4.7685  -17.4549 C   0  0  0  0  0  0  0  0  0  0  0  0
   -5.7620    5.2403  -16.8582 C   0  0  0  0  0  0  0  0  0  0  0  0
   -5.6245    5.4391  -15.3428 C   0  0  2  0  0  0  0  0  0  0  0  0
   -5.5060    6.9463  -15.0420 C   0  0  0  0  0  0  0  0  0  0  0  0
   -4.5909    6.9913  -13.9100 N   0  0  0  0  0  0  0  0  0  0  0  0
   -3.5871    6.0059  -14.2541 C   0  0  0  0  0  0  0  0  0  0  0  0
   -4.2909    4.9349  -14.9396 N   0  0  0  0  0  0  0  0  0  0  0  0
   -6.8034    4.6846  -14.5687 C   0  0  1  0  0  0  0  0  0  0  0  0
   -6.9616    4.9854  -13.0389 C   0  0  1  0  0  0  0  0  0  0  0  0
   -7.3131    6.3515  -12.9086 O   0  0  0  0  0  0  0  0  0  0  0  0
   -8.1114    4.1997  -12.5087 N   0  0  0  0  0  0  0  0  0  0  0  0
   -8.2880    4.1158  -11.1132 C   0  0  0  0  0  0  0  0  0  0  0  0
   -8.1468    5.2313  -10.2593 C   0  0  0  0  0  0  0  0  0  0  0  0
   -8.2956    5.1314   -8.8717 C   0  0  0  0  0  0  0  0  0  0  0  0
   -8.6285    3.9036   -8.3447 C   0  0  0  0  0  0  0  0  0  0  0  0
   -8.7920    2.7960   -9.1686 C   0  0  0  0  0  0  0  0  0  0  0  0
   -8.6365    2.8834  -10.5429 C   0  0  0  0  0  0  0  0  0  0  0  0
   -9.1035    1.6110   -8.3188 C   0  0  0  0  0  0  0  0  0  0  0  0
   -9.5474    2.1809   -7.0197 N   0  0  0  0  0  0  0  0  0  0  0  0
   -8.8805    3.5004   -6.9312 C   0  0  0  0  0  0  0  0  0  0  0  0
   -5.6514    4.5950  -12.1351 C   0  0  0  0  0  0  0  0  0  0  0  0
   -5.1060    5.4059  -11.4884 O   0  0  0  0  0  0  0  0  0  0  0  0
   -5.4101    3.0581  -12.2415 N   0  0  0  0  0  0  0  0  0  0  0  0
   -4.5104    2.1919  -11.5010 C   0  0  0  0  0  0  0  0  0  0  0  0
   -3.0538    2.1952  -11.9541 C   0  0  0  0  0  0  0  0  0  0  0  0
   -2.9335    1.6828  -13.2061 F   0  0  0  0  0  0  0  0  0  0  0  0
   -2.5575    3.4561  -12.0093 F   0  0  0  0  0  0  0  0  0  0  0  0
   -8.1783    4.8342  -15.3410 C   0  0  0  0  0  0  0  0  0  0  0  0
   -8.0839    4.1954  -16.7364 C   0  0  1  0  0  0  0  0  0  0  0  0
   -9.5858    4.2086  -17.6732 Cl  0  0  0  0  0  0  0  0  0  0  0  0
  1  2  1  0
  2  3  2  0
  3  4  1  0
  4  5  1  0
  5  6  2  0
  6  7  1  0
  7  8  1  6
  8  9  1  0
  9 10  1  0
 10 11  1  0
  7 12  1  0
 12 13  1  0
 13 14  1  6
 13 15  1  0
 15 16  1  0
 16 17  2  0
 17 18  1  0
 18 19  2  0
 19 20  1  0
 20 21  2  0
 20 22  1  0
 22 23  1  0
 23 24  1  0
 13 25  1  0
 25 26  2  0
 25 27  1  0
 27 28  1  0
 28 29  1  0
 29 30  1  0
 29 31  1  0
 12 32  1  6
 32 33  1  0
 33 34  1  6
  6  2  1  0
 11  7  1  0
 21 16  1  0
 33  5  1  0
 24 19  1  0
M  END
>  <smiles>  (2662) 
C39962-P294

>  <fragmenstein_outcome>  (2662) 
acceptable

>  <inchikey>  (2662) 
QMWOOYQNMGHVSU-UHFFFAOYSA-N

>  <fragmenstein_mode>  (2662) 
expansion

>  <HIPPO Pose ID>  (2662) 
29365

>  <Energy>  (2662) 
97.872805

>  <fragmenstein_error>  (2662) 


>  <tags>  (2662) 
{'openbind_xx01zvns2b_c1_fragmenstein', 'fragmenstein_placed'}

>  <ref_pdb>  (2662) 
175

>  <scratch_subdir>  (2662) 
/opt/xchem-fragalysis-2/maxwin/BulkDock/SCRATCH/511028/C39962-P294

>  <alias>  (2662) 
Cc1c[nH]c2c1[C@@]1(CNCN1)[C@@H]([C@@](O)(Nc1ccc3c(c1)CNC3)C(=O)NCC(F)F)C[C@H]2Cl

>  <HIPPO Compound ID>  (2662) 
39962

>  <fragmenstein_runtime>  (2662) 
4.97597

$$$$
CC(C)c1c[nH]c2c(Cl)cc(C(=O)Nc3ccc4c(c3)CNC4)cc12
     RDKit          3D

 25 28  0  0  0  0  0  0  0  0999 V2000
   -2.7132    6.3020  -18.4481 C   0  0  0  0  0  0  0  0  0  0  0  0
   -3.7212    6.1742  -17.3035 C   0  0  0  0  0  0  0  0  0  0  0  0
   -3.1150    5.3404  -16.1707 C   0  0  0  0  0  0  0  0  0  0  0  0
   -5.0534    5.6183  -17.7364 C   0  0  0  0  0  0  0  0  0  0  0  0
   -5.4862    5.3149  -19.0138 C   0  0  0  0  0  0  0  0  0  0  0  0
   -6.7648    4.8273  -18.9393 N   0  0  0  0  0  0  0  0  0  0  0  0
   -7.1582    4.7441  -17.6243 C   0  0  0  0  0  0  0  0  0  0  0  0
   -8.3401    4.2670  -17.0502 C   0  0  0  0  0  0  0  0  0  0  0  0
   -9.5819    3.6359  -18.0423 Cl  0  0  0  0  0  0  0  0  0  0  0  0
   -8.5220    4.3936  -15.6699 C   0  0  0  0  0  0  0  0  0  0  0  0
   -7.5556    5.0359  -14.9055 C   0  0  0  0  0  0  0  0  0  0  0  0
   -7.7789    5.4238  -13.4928 C   0  0  0  0  0  0  0  0  0  0  0  0
   -7.6144    6.5451  -13.2129 O   0  0  0  0  0  0  0  0  0  0  0  0
   -8.1353    4.2136  -12.6055 N   0  0  0  0  0  0  0  0  0  0  0  0
   -8.2668    4.1130  -11.2205 C   0  0  0  0  0  0  0  0  0  0  0  0
   -8.1020    5.2468  -10.4031 C   0  0  0  0  0  0  0  0  0  0  0  0
   -8.2417    5.1640   -9.0145 C   0  0  0  0  0  0  0  0  0  0  0  0
   -8.5691    3.9393   -8.4692 C   0  0  0  0  0  0  0  0  0  0  0  0
   -8.7196    2.8116   -9.2730 C   0  0  0  0  0  0  0  0  0  0  0  0
   -8.5611    2.8743  -10.6485 C   0  0  0  0  0  0  0  0  0  0  0  0
   -9.0369    1.6421   -8.4011 C   0  0  0  0  0  0  0  0  0  0  0  0
   -9.4737    2.2348   -7.1095 N   0  0  0  0  0  0  0  0  0  0  0  0
   -8.8192    3.5605   -7.0478 C   0  0  0  0  0  0  0  0  0  0  0  0
   -6.3652    5.4859  -15.4848 C   0  0  0  0  0  0  0  0  0  0  0  0
   -6.1434    5.3113  -16.8617 C   0  0  0  0  0  0  0  0  0  0  0  0
  1  2  1  0
  2  3  1  0
  2  4  1  0
  4  5  2  0
  5  6  1  0
  6  7  1  0
  7  8  2  0
  8  9  1  0
  8 10  1  0
 10 11  2  0
 11 12  1  0
 12 13  2  0
 12 14  1  0
 14 15  1  0
 15 16  2  0
 16 17  1  0
 17 18  2  0
 18 19  1  0
 19 20  2  0
 19 21  1  0
 21 22  1  0
 22 23  1  0
 11 24  1  0
 24 25  2  0
 25  4  1  0
 25  7  1  0
 20 15  1  0
 23 18  1  0
M  END
>  <smiles>  (2663) 
C39925-P294

>  <fragmenstein_outcome>  (2663) 
acceptable

>  <inchikey>  (2663) 
XCVSOVQYEUPFLM-UHFFFAOYSA-N

>  <fragmenstein_mode>  (2663) 
expansion

>  <HIPPO Pose ID>  (2663) 
29366

>  <Energy>  (2663) 
45.394193

>  <fragmenstein_error>  (2663) 


>  <tags>  (2663) 
{'openbind_xx01zvns2b_c1_fragmenstein', 'fragmenstein_placed'}

>  <ref_pdb>  (2663) 
175

>  <scratch_subdir>  (2663) 
/opt/xchem-fragalysis-2/maxwin/BulkDock/SCRATCH/511028/C39925-P294

>  <alias>  (2663) 
CC(C)c1c[nH]c2c(Cl)cc(C(=O)Nc3ccc4c(c3)CNC4)cc12

>  <HIPPO Compound ID>  (2663) 
21249

>  <fragmenstein_runtime>  (2663) 
4.731291

$$$$
Cc1c[nH]c2c(Cl)cc(C(=O)Nc3ccc4c(c3)CNC4)cc12
     RDKit          3D

 23 26  0  0  0  0  0  0  0  0999 V2000
  -10.6836    4.3160  -17.8954 C   0  0  0  0  0  0  0  0  0  0  0  0
   -9.2221    4.1229  -17.8898 C   0  0  0  0  0  0  0  0  0  0  0  0
   -8.4763    3.8023  -18.9942 C   0  0  0  0  0  0  0  0  0  0  0  0
   -7.1757    4.1287  -18.7522 N   0  0  0  0  0  0  0  0  0  0  0  0
   -7.0386    4.5024  -17.4424 C   0  0  0  0  0  0  0  0  0  0  0  0
   -5.9111    4.9576  -16.7657 C   0  0  0  0  0  0  0  0  0  0  0  0
   -4.4307    5.1901  -17.5979 Cl  0  0  0  0  0  0  0  0  0  0  0  0
   -6.0342    5.2605  -15.4170 C   0  0  0  0  0  0  0  0  0  0  0  0
   -7.2642    5.0998  -14.7797 C   0  0  0  0  0  0  0  0  0  0  0  0
   -7.3646    5.4916  -13.3588 C   0  0  0  0  0  0  0  0  0  0  0  0
   -7.0300    6.5648  -13.0454 O   0  0  0  0  0  0  0  0  0  0  0  0
   -7.8600    4.3075  -12.5013 N   0  0  0  0  0  0  0  0  0  0  0  0
   -8.1281    4.2285  -11.1388 C   0  0  0  0  0  0  0  0  0  0  0  0
   -7.9979    5.3529  -10.3073 C   0  0  0  0  0  0  0  0  0  0  0  0
   -8.2380    5.2591   -8.9334 C   0  0  0  0  0  0  0  0  0  0  0  0
   -8.6163    4.0333   -8.4210 C   0  0  0  0  0  0  0  0  0  0  0  0
   -8.7449    2.9183   -9.2446 C   0  0  0  0  0  0  0  0  0  0  0  0
   -8.5063    2.9941  -10.6055 C   0  0  0  0  0  0  0  0  0  0  0  0
   -9.1155    1.7397   -8.4080 C   0  0  0  0  0  0  0  0  0  0  0  0
   -9.5922    2.3164   -7.1242 N   0  0  0  0  0  0  0  0  0  0  0  0
   -8.9311    3.6361   -7.0172 C   0  0  0  0  0  0  0  0  0  0  0  0
   -8.4083    4.6728  -15.4692 C   0  0  0  0  0  0  0  0  0  0  0  0
   -8.2926    4.3825  -16.8405 C   0  0  0  0  0  0  0  0  0  0  0  0
  1  2  1  0
  2  3  2  0
  3  4  1  0
  4  5  1  0
  5  6  2  0
  6  7  1  0
  6  8  1  0
  8  9  2  0
  9 10  1  0
 10 11  2  0
 10 12  1  0
 12 13  1  0
 13 14  2  0
 14 15  1  0
 15 16  2  0
 16 17  1  0
 17 18  2  0
 17 19  1  0
 19 20  1  0
 20 21  1  0
  9 22  1  0
 22 23  2  0
 23  2  1  0
 23  5  1  0
 18 13  1  0
 21 16  1  0
M  END
>  <smiles>  (2664) 
C268-P295

>  <fragmenstein_outcome>  (2664) 
acceptable

>  <inchikey>  (2664) 
DOFQCNZNSJIRIS-UHFFFAOYSA-N

>  <fragmenstein_mode>  (2664) 
expansion

>  <HIPPO Pose ID>  (2664) 
29367

>  <Energy>  (2664) 
42.742635

>  <fragmenstein_error>  (2664) 


>  <tags>  (2664) 
{'openbind_xx01zvns2b_c1_fragmenstein', 'fragmenstein_placed'}

>  <ref_pdb>  (2664) 
175

>  <scratch_subdir>  (2664) 
/opt/xchem-fragalysis-2/maxwin/BulkDock/SCRATCH/511028/C268-P295

>  <alias>  (2664) 
Cc1c[nH]c2c(Cl)cc(C(=O)Nc3ccc4c(c3)CNC4)cc12

>  <HIPPO Compound ID>  (2664) 
268

>  <fragmenstein_runtime>  (2664) 
2.829873

$$$$
Cc1c[nH]c2c(Cl)cc(C(=O)Nc3ccc4c(c3)CN[C@@H]4CC(=O)O)cc12
     RDKit          3D

 27 30  0  0  0  0  0  0  0  0999 V2000
  -10.7294    4.3118  -17.9176 C   0  0  0  0  0  0  0  0  0  0  0  0
   -9.2699    4.1128  -17.8982 C   0  0  0  0  0  0  0  0  0  0  0  0
   -8.5124    3.7958  -18.9945 C   0  0  0  0  0  0  0  0  0  0  0  0
   -7.2146    4.1174  -18.7335 N   0  0  0  0  0  0  0  0  0  0  0  0
   -7.0914    4.4905  -17.4229 C   0  0  0  0  0  0  0  0  0  0  0  0
   -5.9739    4.9498  -16.7312 C   0  0  0  0  0  0  0  0  0  0  0  0
   -4.4838    5.1879  -17.5445 Cl  0  0  0  0  0  0  0  0  0  0  0  0
   -6.1186    5.2609  -15.3857 C   0  0  0  0  0  0  0  0  0  0  0  0
   -7.3588    5.1012  -14.7692 C   0  0  0  0  0  0  0  0  0  0  0  0
   -7.5031    5.5211  -13.3621 C   0  0  0  0  0  0  0  0  0  0  0  0
   -7.2383    6.6200  -13.0725 O   0  0  0  0  0  0  0  0  0  0  0  0
   -8.0292    4.3567  -12.4955 N   0  0  0  0  0  0  0  0  0  0  0  0
   -8.2417    4.2762  -11.1246 C   0  0  0  0  0  0  0  0  0  0  0  0
   -8.0246    5.3857  -10.2926 C   0  0  0  0  0  0  0  0  0  0  0  0
   -8.1784    5.2843   -8.9072 C   0  0  0  0  0  0  0  0  0  0  0  0
   -8.5627    4.0661   -8.3787 C   0  0  0  0  0  0  0  0  0  0  0  0
   -8.7897    2.9678   -9.2108 C   0  0  0  0  0  0  0  0  0  0  0  0
   -8.6377    3.0522  -10.5836 C   0  0  0  0  0  0  0  0  0  0  0  0
   -9.1165    1.7773   -8.3715 C   0  0  0  0  0  0  0  0  0  0  0  0
   -9.4701    2.3436   -7.0456 N   0  0  0  0  0  0  0  0  0  0  0  0
   -8.6912    3.6122   -6.9523 C   0  0  2  0  0  0  0  0  0  0  0  0
   -9.3030    4.6012   -5.9677 C   0  0  0  0  0  0  0  0  0  0  0  0
   -8.7077    4.3613   -4.6081 C   0  0  0  0  0  0  0  0  0  0  0  0
   -7.5177    4.3203   -4.3276 O   0  0  0  0  0  0  0  0  0  0  0  0
   -9.6397    4.2454   -3.6426 O   0  0  0  0  0  0  0  0  0  0  0  0
   -8.4885    4.6649  -15.4734 C   0  0  0  0  0  0  0  0  0  0  0  0
   -8.3527    4.3694  -16.8391 C   0  0  0  0  0  0  0  0  0  0  0  0
  1  2  1  0
  2  3  2  0
  3  4  1  0
  4  5  1  0
  5  6  2  0
  6  7  1  0
  6  8  1  0
  8  9  2  0
  9 10  1  0
 10 11  2  0
 10 12  1  0
 12 13  1  0
 13 14  2  0
 14 15  1  0
 15 16  2  0
 16 17  1  0
 17 18  2  0
 17 19  1  0
 19 20  1  0
 20 21  1  0
 21 22  1  1
 22 23  1  0
 23 24  2  0
 23 25  1  0
  9 26  1  0
 26 27  2  0
 27  2  1  0
 27  5  1  0
 18 13  1  0
 21 16  1  0
M  END
>  <smiles>  (2665) 
C39973-P295

>  <fragmenstein_outcome>  (2665) 
acceptable

>  <inchikey>  (2665) 
LDSAXDWZGXQIFZ-UHFFFAOYSA-N

>  <fragmenstein_mode>  (2665) 
expansion

>  <HIPPO Pose ID>  (2665) 
29369

>  <Energy>  (2665) 
21.911381

>  <fragmenstein_error>  (2665) 


>  <tags>  (2665) 
{'openbind_xx01zvns2b_c1_fragmenstein', 'fragmenstein_placed'}

>  <ref_pdb>  (2665) 
175

>  <scratch_subdir>  (2665) 
/opt/xchem-fragalysis-2/maxwin/BulkDock/SCRATCH/511028/C39973-P295

>  <alias>  (2665) 
Cc1c[nH]c2c(Cl)cc(C(=O)Nc3ccc4c(c3)CN[C@@H]4CC(=O)O)cc12

>  <HIPPO Compound ID>  (2665) 
42208

>  <fragmenstein_runtime>  (2665) 
4.739285

$$$$
Cc1c(N)[nH]c2c(Cl)cc(C(=O)Nc3ccc4c(c3)CNC4)cc12
     RDKit          3D

 24 27  0  0  0  0  0  0  0  0999 V2000
   -3.5859    5.9779  -17.3858 C   0  0  0  0  0  0  0  0  0  0  0  0
   -4.9240    5.4659  -17.7161 C   0  0  0  0  0  0  0  0  0  0  0  0
   -5.3325    5.1406  -18.9820 C   0  0  0  0  0  0  0  0  0  0  0  0
   -4.6352    5.1760  -20.1311 N   0  0  0  0  0  0  0  0  0  0  0  0
   -6.6444    4.7544  -18.9291 N   0  0  0  0  0  0  0  0  0  0  0  0
   -7.0708    4.7192  -17.6155 C   0  0  0  0  0  0  0  0  0  0  0  0
   -8.2886    4.3350  -17.0341 C   0  0  0  0  0  0  0  0  0  0  0  0
   -9.5956    3.7875  -17.9849 Cl  0  0  0  0  0  0  0  0  0  0  0  0
   -8.4685    4.4899  -15.6557 C   0  0  0  0  0  0  0  0  0  0  0  0
   -7.4503    5.0442  -14.8909 C   0  0  0  0  0  0  0  0  0  0  0  0
   -7.6707    5.4516  -13.4856 C   0  0  0  0  0  0  0  0  0  0  0  0
   -7.5054    6.5757  -13.2167 O   0  0  0  0  0  0  0  0  0  0  0  0
   -8.0749    4.2588  -12.5942 N   0  0  0  0  0  0  0  0  0  0  0  0
   -8.2620    4.1816  -11.2161 C   0  0  0  0  0  0  0  0  0  0  0  0
   -8.0945    5.3171  -10.4049 C   0  0  0  0  0  0  0  0  0  0  0  0
   -8.2479    5.2393   -9.0177 C   0  0  0  0  0  0  0  0  0  0  0  0
   -8.5740    4.0157   -8.4652 C   0  0  0  0  0  0  0  0  0  0  0  0
   -8.7409    2.8916   -9.2648 C   0  0  0  0  0  0  0  0  0  0  0  0
   -8.5897    2.9525  -10.6420 C   0  0  0  0  0  0  0  0  0  0  0  0
   -9.0435    1.7143   -8.4023 C   0  0  0  0  0  0  0  0  0  0  0  0
   -9.2756    2.2527   -7.0370 N   0  0  0  0  0  0  0  0  0  0  0  0
   -8.7910    3.6481   -7.0374 C   0  0  0  0  0  0  0  0  0  0  0  0
   -6.2214    5.3893  -15.4643 C   0  0  0  0  0  0  0  0  0  0  0  0
   -6.0199    5.2152  -16.8440 C   0  0  0  0  0  0  0  0  0  0  0  0
  1  2  1  0
  2  3  2  0
  3  4  1  0
  3  5  1  0
  5  6  1  0
  6  7  2  0
  7  8  1  0
  7  9  1  0
  9 10  2  0
 10 11  1  0
 11 12  2  0
 11 13  1  0
 13 14  1  0
 14 15  2  0
 15 16  1  0
 16 17  2  0
 17 18  1  0
 18 19  2  0
 18 20  1  0
 20 21  1  0
 21 22  1  0
 10 23  1  0
 23 24  2  0
 24  2  1  0
 24  6  1  0
 19 14  1  0
 22 17  1  0
M  END
>  <smiles>  (2666) 
C39851-P295

>  <fragmenstein_outcome>  (2666) 
acceptable

>  <inchikey>  (2666) 
HSWKKQXLOLWORQ-UHFFFAOYSA-N

>  <fragmenstein_mode>  (2666) 
expansion

>  <HIPPO Pose ID>  (2666) 
29373

>  <Energy>  (2666) 
32.78657

>  <fragmenstein_error>  (2666) 


>  <tags>  (2666) 
{'openbind_xx01zvns2b_c1_fragmenstein', 'fragmenstein_placed'}

>  <ref_pdb>  (2666) 
175

>  <scratch_subdir>  (2666) 
/opt/xchem-fragalysis-2/maxwin/BulkDock/SCRATCH/511028/C39851-P295

>  <alias>  (2666) 
Cc1c(N)[nH]c2c(Cl)cc(C(=O)Nc3ccc4c(c3)CNC4)cc12

>  <HIPPO Compound ID>  (2666) 
39851

>  <fragmenstein_runtime>  (2666) 
4.48476

$$$$
Cc1c[nH]c2c(Cl)cc(C(=O)Nc3ccc4c(c3)CNC4=O)cc12
     RDKit          3D

 24 27  0  0  0  0  0  0  0  0999 V2000
  -10.7697    4.3007  -17.9359 C   0  0  0  0  0  0  0  0  0  0  0  0
   -9.3088    4.0885  -17.9017 C   0  0  0  0  0  0  0  0  0  0  0  0
   -8.5491    3.7612  -18.9948 C   0  0  0  0  0  0  0  0  0  0  0  0
   -7.2496    4.0626  -18.7299 N   0  0  0  0  0  0  0  0  0  0  0  0
   -7.1280    4.4484  -17.4225 C   0  0  0  0  0  0  0  0  0  0  0  0
   -6.0093    4.9081  -16.7338 C   0  0  0  0  0  0  0  0  0  0  0  0
   -4.5218    5.1557  -17.5507 Cl  0  0  0  0  0  0  0  0  0  0  0  0
   -6.1493    5.2095  -15.3857 C   0  0  0  0  0  0  0  0  0  0  0  0
   -7.3856    5.0442  -14.7595 C   0  0  0  0  0  0  0  0  0  0  0  0
   -7.5073    5.4651  -13.3472 C   0  0  0  0  0  0  0  0  0  0  0  0
   -7.1496    6.5387  -13.0593 O   0  0  0  0  0  0  0  0  0  0  0  0
   -8.0873    4.3328  -12.4689 N   0  0  0  0  0  0  0  0  0  0  0  0
   -8.2540    4.2540  -11.0876 C   0  0  0  0  0  0  0  0  0  0  0  0
   -8.0321    5.3869  -10.2811 C   0  0  0  0  0  0  0  0  0  0  0  0
   -8.1483    5.3122   -8.8922 C   0  0  0  0  0  0  0  0  0  0  0  0
   -8.4905    4.0907   -8.3510 C   0  0  0  0  0  0  0  0  0  0  0  0
   -8.7256    2.9607   -9.1310 C   0  0  0  0  0  0  0  0  0  0  0  0
   -8.6151    3.0277  -10.5119 C   0  0  0  0  0  0  0  0  0  0  0  0
   -9.0357    1.8010   -8.2436 C   0  0  0  0  0  0  0  0  0  0  0  0
   -9.0665    2.4041   -6.9262 N   0  0  0  0  0  0  0  0  0  0  0  0
   -8.6510    3.7173   -6.9415 C   0  0  0  0  0  0  0  0  0  0  0  0
   -8.4252    4.4421   -5.9906 O   0  0  0  0  0  0  0  0  0  0  0  0
   -8.5192    4.6187  -15.4657 C   0  0  0  0  0  0  0  0  0  0  0  0
   -8.3904    4.3328  -16.8370 C   0  0  0  0  0  0  0  0  0  0  0  0
  1  2  1  0
  2  3  2  0
  3  4  1  0
  4  5  1  0
  5  6  2  0
  6  7  1  0
  6  8  1  0
  8  9  2  0
  9 10  1  0
 10 11  2  0
 10 12  1  0
 12 13  1  0
 13 14  2  0
 14 15  1  0
 15 16  2  0
 16 17  1  0
 17 18  2  0
 17 19  1  0
 19 20  1  0
 20 21  1  0
 21 22  2  0
  9 23  1  0
 23 24  2  0
 24  2  1  0
 24  5  1  0
 18 13  1  0
 21 16  1  0
M  END
>  <smiles>  (2667) 
C39979-P295

>  <fragmenstein_outcome>  (2667) 
acceptable

>  <inchikey>  (2667) 
YLQHTSFPYPSXSW-UHFFFAOYSA-N

>  <fragmenstein_mode>  (2667) 
expansion

>  <HIPPO Pose ID>  (2667) 
29376

>  <Energy>  (2667) 
28.932771

>  <fragmenstein_error>  (2667) 


>  <tags>  (2667) 
{'openbind_xx01zvns2b_c1_fragmenstein', 'fragmenstein_placed'}

>  <ref_pdb>  (2667) 
175

>  <scratch_subdir>  (2667) 
/opt/xchem-fragalysis-2/maxwin/BulkDock/SCRATCH/511028/C39979-P295

>  <alias>  (2667) 
Cc1c[nH]c2c(Cl)cc(C(=O)Nc3ccc4c(c3)CNC4=O)cc12

>  <HIPPO Compound ID>  (2667) 
39979

>  <fragmenstein_runtime>  (2667) 
2.738194

$$$$
CNCc1[nH]c2c(Cl)cc(C(=O)Nc3ccc4c(c3)CNC4)cc2c1C
     RDKit          3D

 26 29  0  0  0  0  0  0  0  0999 V2000
   -2.5522    4.4335  -19.5469 C   0  0  0  0  0  0  0  0  0  0  0  0
   -3.1518    5.7483  -19.7202 N   0  0  0  0  0  0  0  0  0  0  0  0
   -4.5918    5.6719  -19.9371 C   0  0  0  0  0  0  0  0  0  0  0  0
   -5.3443    5.3893  -18.6836 C   0  0  0  0  0  0  0  0  0  0  0  0
   -6.6298    4.8874  -18.7179 N   0  0  0  0  0  0  0  0  0  0  0  0
   -7.1220    4.7514  -17.4344 C   0  0  0  0  0  0  0  0  0  0  0  0
   -8.3594    4.3104  -16.9447 C   0  0  0  0  0  0  0  0  0  0  0  0
   -9.5951    3.7896  -17.9987 Cl  0  0  0  0  0  0  0  0  0  0  0  0
   -8.6245    4.4135  -15.5756 C   0  0  0  0  0  0  0  0  0  0  0  0
   -7.6658    4.9582  -14.7341 C   0  0  0  0  0  0  0  0  0  0  0  0
   -7.9764    5.3751  -13.3549 C   0  0  0  0  0  0  0  0  0  0  0  0
   -7.9145    6.5128  -13.1060 O   0  0  0  0  0  0  0  0  0  0  0  0
   -8.2455    4.1676  -12.4413 N   0  0  0  0  0  0  0  0  0  0  0  0
   -8.3962    4.0950  -11.0615 C   0  0  0  0  0  0  0  0  0  0  0  0
   -8.2267    5.2414  -10.2649 C   0  0  0  0  0  0  0  0  0  0  0  0
   -8.3423    5.1731   -8.8749 C   0  0  0  0  0  0  0  0  0  0  0  0
   -8.6457    3.9505   -8.3088 C   0  0  0  0  0  0  0  0  0  0  0  0
   -8.8139    2.8174   -9.0967 C   0  0  0  0  0  0  0  0  0  0  0  0
   -8.6839    2.8651  -10.4746 C   0  0  0  0  0  0  0  0  0  0  0  0
   -9.0920    1.6461   -8.2199 C   0  0  0  0  0  0  0  0  0  0  0  0
   -9.3451    2.2027   -6.8669 N   0  0  0  0  0  0  0  0  0  0  0  0
   -8.8401    3.5906   -6.8759 C   0  0  0  0  0  0  0  0  0  0  0  0
   -6.4033    5.3166  -15.2059 C   0  0  0  0  0  0  0  0  0  0  0  0
   -6.1311    5.2191  -16.5770 C   0  0  0  0  0  0  0  0  0  0  0  0
   -5.0001    5.5728  -17.3547 C   0  0  0  0  0  0  0  0  0  0  0  0
   -3.7112    6.0804  -16.8156 C   0  0  0  0  0  0  0  0  0  0  0  0
  1  2  1  0
  2  3  1  0
  3  4  1  0
  4  5  1  0
  5  6  1  0
  6  7  2  0
  7  8  1  0
  7  9  1  0
  9 10  2  0
 10 11  1  0
 11 12  2  0
 11 13  1  0
 13 14  1  0
 14 15  2  0
 15 16  1  0
 16 17  2  0
 17 18  1  0
 18 19  2  0
 18 20  1  0
 20 21  1  0
 21 22  1  0
 10 23  1  0
 23 24  2  0
 24 25  1  0
 25 26  1  0
 25  4  2  0
 24  6  1  0
 19 14  1  0
 22 17  1  0
M  END
>  <smiles>  (2668) 
C39981-P295

>  <fragmenstein_outcome>  (2668) 
acceptable

>  <inchikey>  (2668) 
UGLBHUSBYUSHES-UHFFFAOYSA-N

>  <fragmenstein_mode>  (2668) 
expansion

>  <HIPPO Pose ID>  (2668) 
29377

>  <Energy>  (2668) 
33.849222

>  <fragmenstein_error>  (2668) 


>  <tags>  (2668) 
{'openbind_xx01zvns2b_c1_fragmenstein', 'fragmenstein_placed'}

>  <ref_pdb>  (2668) 
175

>  <scratch_subdir>  (2668) 
/opt/xchem-fragalysis-2/maxwin/BulkDock/SCRATCH/511028/C39981-P295

>  <alias>  (2668) 
CNCc1[nH]c2c(Cl)cc(C(=O)Nc3ccc4c(c3)CNC4)cc2c1C

>  <HIPPO Compound ID>  (2668) 
39981

>  <fragmenstein_runtime>  (2668) 
3.955473

$$$$
Cc1c[nH]c2c(Cl)cc(C(=NC(=O)O)Nc3ccc4c(c3)CNC4)cc12
     RDKit          3D

 26 29  0  0  0  0  0  0  0  0999 V2000
  -10.6282    4.2948  -17.9450 C   0  0  0  0  0  0  0  0  0  0  0  0
   -9.1654    4.1023  -17.9092 C   0  0  0  0  0  0  0  0  0  0  0  0
   -8.3937    3.7462  -18.9846 C   0  0  0  0  0  0  0  0  0  0  0  0
   -7.1059    4.1103  -18.7288 N   0  0  0  0  0  0  0  0  0  0  0  0
   -7.0034    4.5604  -17.4387 C   0  0  0  0  0  0  0  0  0  0  0  0
   -5.9178    5.1133  -16.7610 C   0  0  0  0  0  0  0  0  0  0  0  0
   -4.4475    5.4148  -17.5874 Cl  0  0  0  0  0  0  0  0  0  0  0  0
   -6.0797    5.4708  -15.4264 C   0  0  0  0  0  0  0  0  0  0  0  0
   -7.3099    5.2593  -14.8137 C   0  0  0  0  0  0  0  0  0  0  0  0
   -7.5525    5.6821  -13.4180 C   0  0  0  0  0  0  0  0  0  0  0  0
   -7.4348    6.8722  -13.1581 N   0  0  0  0  0  0  0  0  0  0  0  0
   -8.0643    7.4880  -12.1432 C   0  0  0  0  0  0  0  0  0  0  0  0
   -9.2377    7.4104  -11.8258 O   0  0  0  0  0  0  0  0  0  0  0  0
   -7.2453    8.3432  -11.5044 O   0  0  0  0  0  0  0  0  0  0  0  0
   -7.8611    4.4362  -12.4655 N   0  0  0  0  0  0  0  0  0  0  0  0
   -7.9863    4.3630  -11.0764 C   0  0  0  0  0  0  0  0  0  0  0  0
   -7.5657    5.3264  -10.1547 C   0  0  0  0  0  0  0  0  0  0  0  0
   -7.8189    5.2066   -8.7798 C   0  0  0  0  0  0  0  0  0  0  0  0
   -8.4300    4.0588   -8.3232 C   0  0  0  0  0  0  0  0  0  0  0  0
   -8.7471    3.0360   -9.2021 C   0  0  0  0  0  0  0  0  0  0  0  0
   -8.5686    3.1841  -10.5666 C   0  0  0  0  0  0  0  0  0  0  0  0
   -9.2059    1.8532   -8.4200 C   0  0  0  0  0  0  0  0  0  0  0  0
   -9.5892    2.3993   -7.0941 N   0  0  0  0  0  0  0  0  0  0  0  0
   -8.7988    3.6427   -6.9385 C   0  0  0  0  0  0  0  0  0  0  0  0
   -8.4130    4.7390  -15.5019 C   0  0  0  0  0  0  0  0  0  0  0  0
   -8.2605    4.4092  -16.8550 C   0  0  0  0  0  0  0  0  0  0  0  0
  1  2  1  0
  2  3  2  0
  3  4  1  0
  4  5  1  0
  5  6  2  0
  6  7  1  0
  6  8  1  0
  8  9  2  0
  9 10  1  0
 10 11  2  3
 11 12  1  0
 12 13  2  0
 12 14  1  0
 10 15  1  0
 15 16  1  0
 16 17  2  0
 17 18  1  0
 18 19  2  0
 19 20  1  0
 20 21  2  0
 20 22  1  0
 22 23  1  0
 23 24  1  0
  9 25  1  0
 25 26  2  0
 26  2  1  0
 26  5  1  0
 21 16  1  0
 24 19  1  0
M  END
>  <smiles>  (2669) 
C39991-P295

>  <fragmenstein_outcome>  (2669) 
acceptable

>  <inchikey>  (2669) 
YKOSRQSWAICXPZ-UHFFFAOYSA-N

>  <fragmenstein_mode>  (2669) 
expansion

>  <HIPPO Pose ID>  (2669) 
29385

>  <Energy>  (2669) 
1.626135

>  <fragmenstein_error>  (2669) 


>  <tags>  (2669) 
{'openbind_xx01zvns2b_c1_fragmenstein', 'fragmenstein_placed'}

>  <ref_pdb>  (2669) 
175

>  <scratch_subdir>  (2669) 
/opt/xchem-fragalysis-2/maxwin/BulkDock/SCRATCH/511028/C39991-P295

>  <alias>  (2669) 
Cc1c[nH]c2c(Cl)cc(C(=NC(=O)O)Nc3ccc4c(c3)CNC4)cc12

>  <HIPPO Compound ID>  (2669) 
31624

>  <fragmenstein_runtime>  (2669) 
3.995866

$$$$
CNCc1[nH]c2c(Cl)cc(C(=O)Nc3cc(F)c4c(c3)CNC4=O)cc2c1C
     RDKit          3D

 28 31  0  0  0  0  0  0  0  0999 V2000
   -4.1954    7.7323  -19.8324 C   0  0  0  0  0  0  0  0  0  0  0  0
   -3.5705    6.4279  -19.9555 N   0  0  0  0  0  0  0  0  0  0  0  0
   -4.5351    5.3333  -20.0158 C   0  0  0  0  0  0  0  0  0  0  0  0
   -5.2955    5.1291  -18.7473 C   0  0  0  0  0  0  0  0  0  0  0  0
   -6.6362    4.7894  -18.7511 N   0  0  0  0  0  0  0  0  0  0  0  0
   -7.1055    4.6680  -17.4599 C   0  0  0  0  0  0  0  0  0  0  0  0
   -8.3649    4.3263  -16.9480 C   0  0  0  0  0  0  0  0  0  0  0  0
   -9.6597    3.8969  -17.9757 Cl  0  0  0  0  0  0  0  0  0  0  0  0
   -8.5874    4.4358  -15.5725 C   0  0  0  0  0  0  0  0  0  0  0  0
   -7.5652    4.8839  -14.7476 C   0  0  0  0  0  0  0  0  0  0  0  0
   -7.8284    5.3224  -13.3644 C   0  0  0  0  0  0  0  0  0  0  0  0
   -7.6918    6.4565  -13.1273 O   0  0  0  0  0  0  0  0  0  0  0  0
   -8.1854    4.1441  -12.4382 N   0  0  0  0  0  0  0  0  0  0  0  0
   -8.3509    4.0977  -11.0565 C   0  0  0  0  0  0  0  0  0  0  0  0
   -8.1471    5.2559  -10.2829 C   0  0  0  0  0  0  0  0  0  0  0  0
   -8.2445    5.2059   -8.8953 C   0  0  0  0  0  0  0  0  0  0  0  0
   -8.0332    6.3140   -8.1740 F   0  0  0  0  0  0  0  0  0  0  0  0
   -8.5542    4.0049   -8.3063 C   0  0  0  0  0  0  0  0  0  0  0  0
   -8.7740    2.8525   -9.0597 C   0  0  0  0  0  0  0  0  0  0  0  0
   -8.6728    2.8818  -10.4436 C   0  0  0  0  0  0  0  0  0  0  0  0
   -9.0518    1.7072   -8.1458 C   0  0  0  0  0  0  0  0  0  0  0  0
   -9.0846    2.3389   -6.8438 N   0  0  0  0  0  0  0  0  0  0  0  0
   -8.6928    3.6604   -6.8901 C   0  0  0  0  0  0  0  0  0  0  0  0
   -8.4733    4.3940   -5.9455 O   0  0  0  0  0  0  0  0  0  0  0  0
   -6.2814    5.1245  -15.2437 C   0  0  0  0  0  0  0  0  0  0  0  0
   -6.0476    5.0067  -16.6221 C   0  0  0  0  0  0  0  0  0  0  0  0
   -4.8874    5.1746  -17.4251 C   0  0  0  0  0  0  0  0  0  0  0  0
   -3.5126    5.3929  -16.9140 C   0  0  0  0  0  0  0  0  0  0  0  0
  1  2  1  0
  2  3  1  0
  3  4  1  0
  4  5  1  0
  5  6  1  0
  6  7  2  0
  7  8  1  0
  7  9  1  0
  9 10  2  0
 10 11  1  0
 11 12  2  0
 11 13  1  0
 13 14  1  0
 14 15  2  0
 15 16  1  0
 16 17  1  0
 16 18  2  0
 18 19  1  0
 19 20  2  0
 19 21  1  0
 21 22  1  0
 22 23  1  0
 23 24  2  0
 10 25  1  0
 25 26  2  0
 26 27  1  0
 27 28  1  0
 27  4  2  0
 26  6  1  0
 20 14  1  0
 23 18  1  0
M  END
>  <smiles>  (2670) 
C40004-P295

>  <fragmenstein_outcome>  (2670) 
acceptable

>  <inchikey>  (2670) 
SPMVGKHNBCXKKU-UHFFFAOYSA-N

>  <fragmenstein_mode>  (2670) 
expansion

>  <HIPPO Pose ID>  (2670) 
29392

>  <Energy>  (2670) 
9.30342

>  <fragmenstein_error>  (2670) 


>  <tags>  (2670) 
{'openbind_xx01zvns2b_c1_fragmenstein', 'fragmenstein_placed'}

>  <ref_pdb>  (2670) 
175

>  <scratch_subdir>  (2670) 
/opt/xchem-fragalysis-2/maxwin/BulkDock/SCRATCH/511028/C40004-P295

>  <alias>  (2670) 
CNCc1[nH]c2c(Cl)cc(C(=O)Nc3cc(F)c4c(c3)CNC4=O)cc2c1C

>  <HIPPO Compound ID>  (2670) 
40004

>  <fragmenstein_runtime>  (2670) 
4.965835

$$$$
C[C@H]1c2cc(C(=O)Nc3ccc4c(c3)CNC4)cc(Cl)c2N[C@@]12CCNC2
     RDKit          3D

 27 31  0  0  0  0  0  0  0  0999 V2000
   -3.4251    6.2004  -16.7928 C   0  0  0  0  0  0  0  0  0  0  0  0
   -4.3502    5.1548  -17.3706 C   0  0  1  0  0  0  0  0  0  0  0  0
   -5.6875    5.0516  -16.7142 C   0  0  0  0  0  0  0  0  0  0  0  0
   -6.0145    5.2628  -15.3890 C   0  0  0  0  0  0  0  0  0  0  0  0
   -7.3306    5.0342  -14.9891 C   0  0  0  0  0  0  0  0  0  0  0  0
   -7.6805    5.4615  -13.6211 C   0  0  0  0  0  0  0  0  0  0  0  0
   -7.5611    6.5920  -13.3579 O   0  0  0  0  0  0  0  0  0  0  0  0
   -8.0624    4.2637  -12.7311 N   0  0  0  0  0  0  0  0  0  0  0  0
   -8.2783    4.1898  -11.3571 C   0  0  0  0  0  0  0  0  0  0  0  0
   -8.1764    5.3381  -10.5538 C   0  0  0  0  0  0  0  0  0  0  0  0
   -8.3240    5.2587   -9.1667 C   0  0  0  0  0  0  0  0  0  0  0  0
   -8.5946    4.0237   -8.6090 C   0  0  0  0  0  0  0  0  0  0  0  0
   -8.7126    2.8897   -9.4025 C   0  0  0  0  0  0  0  0  0  0  0  0
   -8.5490    2.9493  -10.7779 C   0  0  0  0  0  0  0  0  0  0  0  0
   -8.9851    1.7072   -8.5375 C   0  0  0  0  0  0  0  0  0  0  0  0
   -9.2100    2.2379   -7.1676 N   0  0  0  0  0  0  0  0  0  0  0  0
   -8.7930    3.6548   -7.1795 C   0  0  0  0  0  0  0  0  0  0  0  0
   -8.2851    4.5367  -15.8818 C   0  0  0  0  0  0  0  0  0  0  0  0
   -7.9308    4.3405  -17.2253 C   0  0  0  0  0  0  0  0  0  0  0  0
   -9.1359    3.7826  -18.3071 Cl  0  0  0  0  0  0  0  0  0  0  0  0
   -6.6403    4.6510  -17.6537 C   0  0  0  0  0  0  0  0  0  0  0  0
   -6.0728    4.5276  -18.9562 N   0  0  0  0  0  0  0  0  0  0  0  0
   -4.7856    5.2844  -18.8569 C   0  0  1  0  0  0  0  0  0  0  0  0
   -4.9563    6.7061  -19.3848 C   0  0  0  0  0  0  0  0  0  0  0  0
   -3.5682    7.1212  -19.8423 C   0  0  0  0  0  0  0  0  0  0  0  0
   -2.9123    5.9124  -20.3182 N   0  0  0  0  0  0  0  0  0  0  0  0
   -3.6700    4.7705  -19.7799 C   0  0  0  0  0  0  0  0  0  0  0  0
  2  1  1  1
  2  3  1  0
  3  4  2  0
  4  5  1  0
  5  6  1  0
  6  7  2  0
  6  8  1  0
  8  9  1  0
  9 10  2  0
 10 11  1  0
 11 12  2  0
 12 13  1  0
 13 14  2  0
 13 15  1  0
 15 16  1  0
 16 17  1  0
  5 18  2  0
 18 19  1  0
 19 20  1  0
 19 21  2  0
 21 22  1  0
 22 23  1  0
 23 24  1  6
 24 25  1  0
 25 26  1  0
 26 27  1  0
 23  2  1  0
 21  3  1  0
 27 23  1  0
 14  9  1  0
 17 12  1  0
M  END
>  <smiles>  (2671) 
C40029-P295

>  <fragmenstein_outcome>  (2671) 
acceptable

>  <inchikey>  (2671) 
UWYXTEMHGDHJIW-UHFFFAOYSA-N

>  <fragmenstein_mode>  (2671) 
expansion

>  <HIPPO Pose ID>  (2671) 
29406

>  <Energy>  (2671) 
116.336912

>  <fragmenstein_error>  (2671) 


>  <tags>  (2671) 
{'openbind_xx01zvns2b_c1_fragmenstein', 'fragmenstein_placed'}

>  <ref_pdb>  (2671) 
175

>  <scratch_subdir>  (2671) 
/opt/xchem-fragalysis-2/maxwin/BulkDock/SCRATCH/511028/C40029-P295

>  <alias>  (2671) 
C[C@H]1c2cc(C(=O)Nc3ccc4c(c3)CNC4)cc(Cl)c2N[C@@]12CCNC2

>  <HIPPO Compound ID>  (2671) 
40029

>  <fragmenstein_runtime>  (2671) 
12.4274

$$$$
COc1ccc(-c2nc3c(C(=O)Nc4ccc5c(c4)CNC5)cc(F)cc3n2C2CNC2)nn1
     RDKit          3D

 34 39  0  0  0  0  0  0  0  0999 V2000
    1.3488    8.5346  -16.9404 C   0  0  0  0  0  0  0  0  0  0  0  0
    0.9652    7.5711  -15.9644 O   0  0  0  0  0  0  0  0  0  0  0  0
   -0.3515    7.1783  -16.0879 C   0  0  0  0  0  0  0  0  0  0  0  0
   -0.8079    6.2268  -15.1990 C   0  0  0  0  0  0  0  0  0  0  0  0
   -2.1292    5.8057  -15.3087 C   0  0  0  0  0  0  0  0  0  0  0  0
   -2.9234    6.3411  -16.3131 C   0  0  0  0  0  0  0  0  0  0  0  0
   -4.3363    5.9955  -16.4116 C   0  0  0  0  0  0  0  0  0  0  0  0
   -5.1382    5.9776  -15.3587 N   0  0  0  0  0  0  0  0  0  0  0  0
   -6.3240    5.4303  -15.7675 C   0  0  0  0  0  0  0  0  0  0  0  0
   -7.4801    5.1039  -15.0280 C   0  0  0  0  0  0  0  0  0  0  0  0
   -7.5895    5.5367  -13.6168 C   0  0  0  0  0  0  0  0  0  0  0  0
   -7.4226    6.6668  -13.3725 O   0  0  0  0  0  0  0  0  0  0  0  0
   -7.9758    4.3570  -12.6922 N   0  0  0  0  0  0  0  0  0  0  0  0
   -8.1385    4.3067  -11.3069 C   0  0  0  0  0  0  0  0  0  0  0  0
   -7.9854    5.4556  -10.5098 C   0  0  0  0  0  0  0  0  0  0  0  0
   -8.1584    5.3981   -9.1213 C   0  0  0  0  0  0  0  0  0  0  0  0
   -8.5103    4.1859   -8.5583 C   0  0  0  0  0  0  0  0  0  0  0  0
   -8.6626    3.0472   -9.3448 C   0  0  0  0  0  0  0  0  0  0  0  0
   -8.4677    3.0836  -10.7164 C   0  0  0  0  0  0  0  0  0  0  0  0
   -9.0341    1.8961   -8.4692 C   0  0  0  0  0  0  0  0  0  0  0  0
   -9.4614    2.5132   -7.1833 N   0  0  0  0  0  0  0  0  0  0  0  0
   -8.7851    3.8297   -7.1355 C   0  0  0  0  0  0  0  0  0  0  0  0
   -8.5522    4.4672  -15.6641 C   0  0  0  0  0  0  0  0  0  0  0  0
   -8.4804    4.2029  -17.0243 C   0  0  0  0  0  0  0  0  0  0  0  0
   -9.5324    3.6418  -17.6374 F   0  0  0  0  0  0  0  0  0  0  0  0
   -7.3606    4.5393  -17.7882 C   0  0  0  0  0  0  0  0  0  0  0  0
   -6.2798    5.1513  -17.1354 C   0  0  0  0  0  0  0  0  0  0  0  0
   -5.0196    5.5690  -17.5378 N   0  0  0  0  0  0  0  0  0  0  0  0
   -4.4165    5.3002  -18.8690 C   0  0  0  0  0  0  0  0  0  0  0  0
   -3.6282    6.4684  -19.5110 C   0  0  0  0  0  0  0  0  0  0  0  0
   -4.2224    6.1009  -20.8102 N   0  0  0  0  0  0  0  0  0  0  0  0
   -5.3651    5.5370  -20.0602 C   0  0  0  0  0  0  0  0  0  0  0  0
   -2.4558    7.3040  -17.1312 N   0  0  0  0  0  0  0  0  0  0  0  0
   -1.1504    7.7152  -17.0345 N   0  0  0  0  0  0  0  0  0  0  0  0
  1  2  1  0
  2  3  1  0
  3  4  2  0
  4  5  1  0
  5  6  2  0
  6  7  1  0
  7  8  2  0
  8  9  1  0
  9 10  2  0
 10 11  1  0
 11 12  2  0
 11 13  1  0
 13 14  1  0
 14 15  2  0
 15 16  1  0
 16 17  2  0
 17 18  1  0
 18 19  2  0
 18 20  1  0
 20 21  1  0
 21 22  1  0
 10 23  1  0
 23 24  2  0
 24 25  1  0
 24 26  1  0
 26 27  2  0
 27 28  1  0
 28 29  1  0
 29 30  1  0
 30 31  1  0
 31 32  1  0
  6 33  1  0
 33 34  2  0
 34  3  1  0
 28  7  1  0
 32 29  1  0
 27  9  1  0
 19 14  1  0
 22 17  1  0
M  END
>  <smiles>  (2672) 
C269-P295

>  <fragmenstein_outcome>  (2672) 
acceptable

>  <inchikey>  (2672) 
JSNYOAMUXGUIQH-UHFFFAOYSA-N

>  <fragmenstein_mode>  (2672) 
expansion

>  <HIPPO Pose ID>  (2672) 
29412

>  <Energy>  (2672) 
100.428766

>  <fragmenstein_error>  (2672) 


>  <tags>  (2672) 
{'openbind_xx01zvns2b_c1_fragmenstein', 'fragmenstein_placed'}

>  <ref_pdb>  (2672) 
175

>  <scratch_subdir>  (2672) 
/opt/xchem-fragalysis-2/maxwin/BulkDock/SCRATCH/511028/C269-P295

>  <alias>  (2672) 
COc1ccc(-c2nc3c(C(=O)Nc4ccc5c(c4)CNC5)cc(F)cc3n2C2CNC2)nn1

>  <HIPPO Compound ID>  (2672) 
269

>  <fragmenstein_runtime>  (2672) 
8.371594

$$$$
COC1=CC=C2c3nc4c(C(=O)Nc5ccc6c(c5)CNC6)cc(F)cc4n3C3(CNC3)CN2N1
     RDKit          3D

 35 41  0  0  0  0  0  0  0  0999 V2000
   -0.2859   10.8816  -15.8168 C   0  0  0  0  0  0  0  0  0  0  0  0
   -1.0358   10.3755  -16.9135 O   0  0  0  0  0  0  0  0  0  0  0  0
   -1.9214    9.3584  -16.6559 C   0  0  0  0  0  0  0  0  0  0  0  0
   -2.1925    8.8105  -15.4470 C   0  0  0  0  0  0  0  0  0  0  0  0
   -3.2178    7.7762  -15.3260 C   0  0  0  0  0  0  0  0  0  0  0  0
   -3.9205    7.4025  -16.4162 C   0  0  0  0  0  0  0  0  0  0  0  0
   -4.9305    6.4146  -16.2960 C   0  0  0  0  0  0  0  0  0  0  0  0
   -5.6408    6.0365  -15.2631 N   0  0  0  0  0  0  0  0  0  0  0  0
   -6.6958    5.3377  -15.7883 C   0  0  0  0  0  0  0  0  0  0  0  0
   -7.8582    4.8872  -15.1361 C   0  0  0  0  0  0  0  0  0  0  0  0
   -8.0927    5.3469  -13.7513 C   0  0  0  0  0  0  0  0  0  0  0  0
   -8.1102    6.4971  -13.5562 O   0  0  0  0  0  0  0  0  0  0  0  0
   -8.2474    4.1653  -12.7740 N   0  0  0  0  0  0  0  0  0  0  0  0
   -8.3575    4.1479  -11.3866 C   0  0  0  0  0  0  0  0  0  0  0  0
   -8.1771    5.3266  -10.6403 C   0  0  0  0  0  0  0  0  0  0  0  0
   -8.2548    5.3131   -9.2448 C   0  0  0  0  0  0  0  0  0  0  0  0
   -8.5349    4.1125   -8.6208 C   0  0  0  0  0  0  0  0  0  0  0  0
   -8.7233    2.9498   -9.3575 C   0  0  0  0  0  0  0  0  0  0  0  0
   -8.6248    2.9430  -10.7399 C   0  0  0  0  0  0  0  0  0  0  0  0
   -9.0049    1.8154   -8.4345 C   0  0  0  0  0  0  0  0  0  0  0  0
   -9.1304    2.4056   -7.0761 N   0  0  0  0  0  0  0  0  0  0  0  0
   -8.6864    3.8124   -7.1703 C   0  0  0  0  0  0  0  0  0  0  0  0
   -8.8410    4.2182  -15.8618 C   0  0  0  0  0  0  0  0  0  0  0  0
   -8.6809    4.0506  -17.2311 C   0  0  0  0  0  0  0  0  0  0  0  0
   -9.6794    3.4897  -17.9277 F   0  0  0  0  0  0  0  0  0  0  0  0
   -7.5476    4.5063  -17.9182 C   0  0  0  0  0  0  0  0  0  0  0  0
   -6.5536    5.1572  -17.1737 C   0  0  0  0  0  0  0  0  0  0  0  0
   -5.3633    5.7930  -17.4526 N   0  0  0  0  0  0  0  0  0  0  0  0
   -4.6321    6.0339  -18.7250 C   0  0  0  0  0  0  0  0  0  0  0  0
   -3.3630    5.1447  -18.8107 C   0  0  0  0  0  0  0  0  0  0  0  0
   -3.6022    5.0215  -20.2626 N   0  0  0  0  0  0  0  0  0  0  0  0
   -5.0443    5.2978  -20.0043 C   0  0  0  0  0  0  0  0  0  0  0  0
   -4.3325    7.5291  -18.8661 C   0  0  0  0  0  0  0  0  0  0  0  0
   -3.6646    8.0205  -17.6553 N   0  0  0  0  0  0  0  0  0  0  0  0
   -2.6035    8.8995  -17.7803 N   0  0  0  0  0  0  0  0  0  0  0  0
  1  2  1  0
  2  3  1  0
  3  4  2  0
  4  5  1  0
  5  6  2  0
  6  7  1  0
  7  8  2  0
  8  9  1  0
  9 10  2  0
 10 11  1  0
 11 12  2  0
 11 13  1  0
 13 14  1  0
 14 15  2  0
 15 16  1  0
 16 17  2  0
 17 18  1  0
 18 19  2  0
 18 20  1  0
 20 21  1  0
 21 22  1  0
 10 23  1  0
 23 24  2  0
 24 25  1  0
 24 26  1  0
 26 27  2  0
 27 28  1  0
 28 29  1  0
 29 30  1  0
 30 31  1  0
 31 32  1  0
 29 33  1  0
 33 34  1  0
 34 35  1  0
 35  3  1  0
 34  6  1  0
 28  7  1  0
 32 29  1  0
 27  9  1  0
 19 14  1  0
 22 17  1  0
M  END
>  <smiles>  (2673) 
C40047-P295

>  <fragmenstein_outcome>  (2673) 
acceptable

>  <inchikey>  (2673) 
RAPHKVFDFYJSLL-UHFFFAOYSA-N

>  <fragmenstein_mode>  (2673) 
expansion

>  <HIPPO Pose ID>  (2673) 
29415

>  <Energy>  (2673) 
95.85094

>  <fragmenstein_error>  (2673) 


>  <tags>  (2673) 
{'openbind_xx01zvns2b_c1_fragmenstein', 'fragmenstein_placed'}

>  <ref_pdb>  (2673) 
175

>  <scratch_subdir>  (2673) 
/opt/xchem-fragalysis-2/maxwin/BulkDock/SCRATCH/511028/C40047-P295

>  <alias>  (2673) 
COC1=CC=C2c3nc4c(C(=O)Nc5ccc6c(c5)CNC6)cc(F)cc4n3C3(CNC3)CN2N1

>  <HIPPO Compound ID>  (2673) 
24201

>  <fragmenstein_runtime>  (2673) 
13.516994

$$$$
COc1ccc(-c2c(C)c3c(C(=O)Nc4ccc5c(c4)CNC5)cc(F)cc3n2C2CNC2)nn1
     RDKit          3D

 35 40  0  0  0  0  0  0  0  0999 V2000
    1.4033    6.4100  -19.1200 C   0  0  0  0  0  0  0  0  0  0  0  0
    0.8452    7.1715  -18.0528 O   0  0  0  0  0  0  0  0  0  0  0  0
   -0.4394    6.7813  -17.7383 C   0  0  0  0  0  0  0  0  0  0  0  0
   -1.0742    7.4661  -16.7233 C   0  0  0  0  0  0  0  0  0  0  0  0
   -2.3790    7.1060  -16.4037 C   0  0  0  0  0  0  0  0  0  0  0  0
   -2.9802    6.0734  -17.1109 C   0  0  0  0  0  0  0  0  0  0  0  0
   -4.3563    5.6551  -16.8699 C   0  0  0  0  0  0  0  0  0  0  0  0
   -4.9898    5.4054  -15.6495 C   0  0  0  0  0  0  0  0  0  0  0  0
   -4.3661    5.4679  -14.2925 C   0  0  0  0  0  0  0  0  0  0  0  0
   -6.3496    5.0382  -15.9207 C   0  0  0  0  0  0  0  0  0  0  0  0
   -7.4978    4.7613  -15.1339 C   0  0  0  0  0  0  0  0  0  0  0  0
   -7.5487    5.2094  -13.7216 C   0  0  0  0  0  0  0  0  0  0  0  0
   -7.2874    6.3263  -13.5004 O   0  0  0  0  0  0  0  0  0  0  0  0
   -8.0265    4.0861  -12.7744 N   0  0  0  0  0  0  0  0  0  0  0  0
   -8.1863    4.0763  -11.3903 C   0  0  0  0  0  0  0  0  0  0  0  0
   -7.9839    5.2398  -10.6276 C   0  0  0  0  0  0  0  0  0  0  0  0
   -8.1618    5.2308   -9.2398 C   0  0  0  0  0  0  0  0  0  0  0  0
   -8.5429    4.0463   -8.6402 C   0  0  0  0  0  0  0  0  0  0  0  0
   -8.7278    2.8891   -9.3910 C   0  0  0  0  0  0  0  0  0  0  0  0
   -8.5579    2.8845  -10.7654 C   0  0  0  0  0  0  0  0  0  0  0  0
   -9.0806    1.7673   -8.4715 C   0  0  0  0  0  0  0  0  0  0  0  0
   -9.4878    2.4246   -7.2019 N   0  0  0  0  0  0  0  0  0  0  0  0
   -8.8107    3.7404   -7.2044 C   0  0  0  0  0  0  0  0  0  0  0  0
   -8.6577    4.2566  -15.7326 C   0  0  0  0  0  0  0  0  0  0  0  0
   -8.6937    4.0688  -17.1032 C   0  0  0  0  0  0  0  0  0  0  0  0
   -9.8186    3.6110  -17.6667 F   0  0  0  0  0  0  0  0  0  0  0  0
   -7.6220    4.4212  -17.9187 C   0  0  0  0  0  0  0  0  0  0  0  0
   -6.4642    4.9329  -17.3076 C   0  0  0  0  0  0  0  0  0  0  0  0
   -5.3264    5.5097  -17.8468 N   0  0  0  0  0  0  0  0  0  0  0  0
   -5.4009    6.1679  -19.1854 C   0  0  0  0  0  0  0  0  0  0  0  0
   -4.5034    5.6113  -20.2763 C   0  0  0  0  0  0  0  0  0  0  0  0
   -3.6756    6.8326  -20.2407 N   0  0  0  0  0  0  0  0  0  0  0  0
   -4.6593    7.4940  -19.3699 C   0  0  0  0  0  0  0  0  0  0  0  0
   -2.3227    5.4136  -18.0818 N   0  0  0  0  0  0  0  0  0  0  0  0
   -1.0448    5.7821  -18.4112 N   0  0  0  0  0  0  0  0  0  0  0  0
  1  2  1  0
  2  3  1  0
  3  4  2  0
  4  5  1  0
  5  6  2  0
  6  7  1  0
  7  8  2  0
  8  9  1  0
  8 10  1  0
 10 11  2  0
 11 12  1  0
 12 13  2  0
 12 14  1  0
 14 15  1  0
 15 16  2  0
 16 17  1  0
 17 18  2  0
 18 19  1  0
 19 20  2  0
 19 21  1  0
 21 22  1  0
 22 23  1  0
 11 24  1  0
 24 25  2  0
 25 26  1  0
 25 27  1  0
 27 28  2  0
 28 29  1  0
 29 30  1  0
 30 31  1  0
 31 32  1  0
 32 33  1  0
  6 34  1  0
 34 35  2  0
 35  3  1  0
 29  7  1  0
 33 30  1  0
 28 10  1  0
 20 15  1  0
 23 18  1  0
M  END
>  <smiles>  (2674) 
C40056-P295

>  <fragmenstein_outcome>  (2674) 
acceptable

>  <inchikey>  (2674) 
UPMHNSZIPFIGRP-UHFFFAOYSA-N

>  <fragmenstein_mode>  (2674) 
expansion

>  <HIPPO Pose ID>  (2674) 
29419

>  <Energy>  (2674) 
98.138162

>  <fragmenstein_error>  (2674) 


>  <tags>  (2674) 
{'openbind_xx01zvns2b_c1_fragmenstein', 'fragmenstein_placed'}

>  <ref_pdb>  (2674) 
175

>  <scratch_subdir>  (2674) 
/opt/xchem-fragalysis-2/maxwin/BulkDock/SCRATCH/511028/C40056-P295

>  <alias>  (2674) 
COc1ccc(-c2c(C)c3c(C(=O)Nc4ccc5c(c4)CNC5)cc(F)cc3n2C2CNC2)nn1

>  <HIPPO Compound ID>  (2674) 
40056

>  <fragmenstein_runtime>  (2674) 
16.460687

$$$$
COc1cc(C)c(-c2nc3c(C(=O)Nc4ccc5c(c4)CNC5)cc(F)cc3n2C2CNC2)nn1
     RDKit          3D

 35 40  0  0  0  0  0  0  0  0999 V2000
    1.4561    6.6634  -17.2416 C   0  0  0  0  0  0  0  0  0  0  0  0
    0.5904    7.5638  -16.5562 O   0  0  0  0  0  0  0  0  0  0  0  0
   -0.7248    7.1479  -16.5630 C   0  0  0  0  0  0  0  0  0  0  0  0
   -1.6374    7.9317  -15.8857 C   0  0  0  0  0  0  0  0  0  0  0  0
   -2.9838    7.5524  -15.8823 C   0  0  0  0  0  0  0  0  0  0  0  0
   -3.9883    8.3680  -15.1220 C   0  0  0  0  0  0  0  0  0  0  0  0
   -3.3283    6.3825  -16.5648 C   0  0  0  0  0  0  0  0  0  0  0  0
   -4.6851    5.8530  -16.5965 C   0  0  0  0  0  0  0  0  0  0  0  0
   -5.3944    5.6620  -15.4985 N   0  0  0  0  0  0  0  0  0  0  0  0
   -6.5943    5.1375  -15.8825 C   0  0  0  0  0  0  0  0  0  0  0  0
   -7.7218    4.8062  -15.1139 C   0  0  0  0  0  0  0  0  0  0  0  0
   -7.7878    5.2601  -13.7102 C   0  0  0  0  0  0  0  0  0  0  0  0
   -7.6021    6.3915  -13.4889 O   0  0  0  0  0  0  0  0  0  0  0  0
   -8.1584    4.1019  -12.7589 N   0  0  0  0  0  0  0  0  0  0  0  0
   -8.2810    4.0745  -11.3719 C   0  0  0  0  0  0  0  0  0  0  0  0
   -8.1232    5.2428  -10.6076 C   0  0  0  0  0  0  0  0  0  0  0  0
   -8.2700    5.2163   -9.2173 C   0  0  0  0  0  0  0  0  0  0  0  0
   -8.5970    4.0142   -8.6207 C   0  0  0  0  0  0  0  0  0  0  0  0
   -8.7439    2.8539   -9.3752 C   0  0  0  0  0  0  0  0  0  0  0  0
   -8.5776    2.8608  -10.7491 C   0  0  0  0  0  0  0  0  0  0  0  0
   -9.0689    1.7205   -8.4601 C   0  0  0  0  0  0  0  0  0  0  0  0
   -9.5086    2.3670   -7.1943 N   0  0  0  0  0  0  0  0  0  0  0  0
   -8.8478    3.6916   -7.1856 C   0  0  0  0  0  0  0  0  0  0  0  0
   -8.8293    4.2234  -15.7346 C   0  0  0  0  0  0  0  0  0  0  0  0
   -8.8288    4.0395  -17.1101 C   0  0  0  0  0  0  0  0  0  0  0  0
   -9.9201    3.5370  -17.6986 F   0  0  0  0  0  0  0  0  0  0  0  0
   -7.7530    4.4251  -17.9097 C   0  0  0  0  0  0  0  0  0  0  0  0
   -6.6351    4.9729  -17.2636 C   0  0  0  0  0  0  0  0  0  0  0  0
   -5.4498    5.5405  -17.7070 N   0  0  0  0  0  0  0  0  0  0  0  0
   -5.3564    6.1225  -19.0778 C   0  0  0  0  0  0  0  0  0  0  0  0
   -3.9815    6.5107  -19.6636 C   0  0  0  0  0  0  0  0  0  0  0  0
   -3.8126    5.0914  -20.0350 N   0  0  0  0  0  0  0  0  0  0  0  0
   -5.2911    5.0320  -20.1616 C   0  0  0  0  0  0  0  0  0  0  0  0
   -2.4009    5.6250  -17.1914 N   0  0  0  0  0  0  0  0  0  0  0  0
   -1.0898    6.0262  -17.2115 N   0  0  0  0  0  0  0  0  0  0  0  0
  1  2  1  0
  2  3  1  0
  3  4  2  0
  4  5  1  0
  5  6  1  0
  5  7  2  0
  7  8  1  0
  8  9  2  0
  9 10  1  0
 10 11  2  0
 11 12  1  0
 12 13  2  0
 12 14  1  0
 14 15  1  0
 15 16  2  0
 16 17  1  0
 17 18  2  0
 18 19  1  0
 19 20  2  0
 19 21  1  0
 21 22  1  0
 22 23  1  0
 11 24  1  0
 24 25  2  0
 25 26  1  0
 25 27  1  0
 27 28  2  0
 28 29  1  0
 29 30  1  0
 30 31  1  0
 31 32  1  0
 32 33  1  0
  7 34  1  0
 34 35  2  0
 35  3  1  0
 29  8  1  0
 33 30  1  0
 28 10  1  0
 20 15  1  0
 23 18  1  0
M  END
>  <smiles>  (2675) 
C40080-P295

>  <fragmenstein_outcome>  (2675) 
acceptable

>  <inchikey>  (2675) 
FEQYMPWGJHEQBZ-UHFFFAOYSA-N

>  <fragmenstein_mode>  (2675) 
expansion

>  <HIPPO Pose ID>  (2675) 
29424

>  <Energy>  (2675) 
112.156142

>  <fragmenstein_error>  (2675) 


>  <tags>  (2675) 
{'openbind_xx01zvns2b_c1_fragmenstein', 'fragmenstein_placed'}

>  <ref_pdb>  (2675) 
175

>  <scratch_subdir>  (2675) 
/opt/xchem-fragalysis-2/maxwin/BulkDock/SCRATCH/511028/C40080-P295

>  <alias>  (2675) 
COc1cc(C)c(-c2nc3c(C(=O)Nc4ccc5c(c4)CNC5)cc(F)cc3n2C2CNC2)nn1

>  <HIPPO Compound ID>  (2675) 
40080

>  <fragmenstein_runtime>  (2675) 
11.708925

$$$$
COc1cc(C(=NOc2cc(C)nc3ncnn23)Nc2ccc3c(c2)CNC3)c2nc(-c3ccc(OC)nn3)n(C3CNC3)c2c1
     RDKit          3D

 46 53  0  0  0  0  0  0  0  0999 V2000
  -10.2748    4.3069  -17.9023 C   0  0  0  0  0  0  0  0  0  0  0  0
   -9.2252    3.4405  -17.4850 O   0  0  0  0  0  0  0  0  0  0  0  0
   -8.1850    4.1524  -16.9448 C   0  0  0  0  0  0  0  0  0  0  0  0
   -8.1947    4.4081  -15.5759 C   0  0  0  0  0  0  0  0  0  0  0  0
   -7.0662    4.9682  -14.9603 C   0  0  0  0  0  0  0  0  0  0  0  0
   -7.0143    5.2169  -13.4685 C   0  0  0  0  0  0  0  0  0  0  0  0
   -6.3577    6.2530  -13.1497 N   0  0  0  0  0  0  0  0  0  0  0  0
   -6.0170    6.3577  -11.8057 O   0  0  0  0  0  0  0  0  0  0  0  0
   -5.1140    7.3995  -11.6231 C   0  0  0  0  0  0  0  0  0  0  0  0
   -4.4388    8.0077  -12.6182 C   0  0  0  0  0  0  0  0  0  0  0  0
   -3.4885    9.0870  -12.2284 C   0  0  0  0  0  0  0  0  0  0  0  0
   -2.7223    9.7605  -13.3403 C   0  0  0  0  0  0  0  0  0  0  0  0
   -3.2627    9.4815  -11.0115 N   0  0  0  0  0  0  0  0  0  0  0  0
   -3.9658    8.8481  -10.0277 C   0  0  0  0  0  0  0  0  0  0  0  0
   -3.9297    9.0565   -8.7290 N   0  0  0  0  0  0  0  0  0  0  0  0
   -4.8222    8.1575   -8.2404 C   0  0  0  0  0  0  0  0  0  0  0  0
   -5.4314    7.3905   -9.1398 N   0  0  0  0  0  0  0  0  0  0  0  0
   -4.8808    7.8194  -10.3079 N   0  0  0  0  0  0  0  0  0  0  0  0
   -7.7779    4.2627  -12.6478 N   0  0  0  0  0  0  0  0  0  0  0  0
   -8.0872    4.2596  -11.2840 C   0  0  0  0  0  0  0  0  0  0  0  0
   -8.1771    5.4051  -10.4765 C   0  0  0  0  0  0  0  0  0  0  0  0
   -8.4107    5.3288   -9.0965 C   0  0  0  0  0  0  0  0  0  0  0  0
   -8.6519    4.0895   -8.5433 C   0  0  0  0  0  0  0  0  0  0  0  0
   -8.6481    2.9489   -9.3332 C   0  0  0  0  0  0  0  0  0  0  0  0
   -8.3375    3.0119  -10.6822 C   0  0  0  0  0  0  0  0  0  0  0  0
   -9.0101    1.7712   -8.4899 C   0  0  0  0  0  0  0  0  0  0  0  0
   -9.5609    2.3514   -7.2342 N   0  0  0  0  0  0  0  0  0  0  0  0
   -8.9637    3.7024   -7.1374 C   0  0  0  0  0  0  0  0  0  0  0  0
   -5.9333    5.2680  -15.7595 C   0  0  0  0  0  0  0  0  0  0  0  0
   -4.6922    5.7272  -15.3905 N   0  0  0  0  0  0  0  0  0  0  0  0
   -3.9376    5.7519  -16.4752 C   0  0  0  0  0  0  0  0  0  0  0  0
   -2.4952    6.0101  -16.4275 C   0  0  0  0  0  0  0  0  0  0  0  0
   -1.8447    6.2598  -15.2243 C   0  0  0  0  0  0  0  0  0  0  0  0
   -0.4684    6.4718  -15.2258 C   0  0  0  0  0  0  0  0  0  0  0  0
    0.1980    6.4197  -16.4320 C   0  0  0  0  0  0  0  0  0  0  0  0
    1.5606    6.6256  -16.4113 O   0  0  0  0  0  0  0  0  0  0  0  0
    2.1647    6.4522  -17.6905 C   0  0  0  0  0  0  0  0  0  0  0  0
   -0.4487    6.1795  -17.5897 N   0  0  0  0  0  0  0  0  0  0  0  0
   -1.8043    5.9581  -17.5794 N   0  0  0  0  0  0  0  0  0  0  0  0
   -4.7284    5.4870  -17.5835 N   0  0  0  0  0  0  0  0  0  0  0  0
   -4.2747    5.5667  -18.9946 C   0  0  0  0  0  0  0  0  0  0  0  0
   -3.7868    6.9867  -19.4200 C   0  0  0  0  0  0  0  0  0  0  0  0
   -4.4441    6.7586  -20.7243 N   0  0  0  0  0  0  0  0  0  0  0  0
   -5.3799    5.8469  -20.0332 C   0  0  0  0  0  0  0  0  0  0  0  0
   -5.9691    5.0513  -17.1389 C   0  0  0  0  0  0  0  0  0  0  0  0
   -7.0909    4.4736  -17.7578 C   0  0  0  0  0  0  0  0  0  0  0  0
  1  2  1  0
  2  3  1  0
  3  4  2  0
  4  5  1  0
  5  6  1  0
  6  7  2  3
  7  8  1  0
  8  9  1  0
  9 10  2  0
 10 11  1  0
 11 12  1  0
 11 13  2  0
 13 14  1  0
 14 15  2  0
 15 16  1  0
 16 17  2  0
 17 18  1  0
  6 19  1  0
 19 20  1  0
 20 21  2  0
 21 22  1  0
 22 23  2  0
 23 24  1  0
 24 25  2  0
 24 26  1  0
 26 27  1  0
 27 28  1  0
  5 29  2  0
 29 30  1  0
 30 31  2  0
 31 32  1  0
 32 33  2  0
 33 34  1  0
 34 35  2  0
 35 36  1  0
 36 37  1  0
 35 38  1  0
 38 39  2  0
 31 40  1  0
 40 41  1  0
 41 42  1  0
 42 43  1  0
 43 44  1  0
 40 45  1  0
 45 46  2  0
 46  3  1  0
 18  9  1  0
 25 20  1  0
 45 29  1  0
 18 14  1  0
 28 23  1  0
 39 32  1  0
 44 41  1  0
M  END
>  <smiles>  (2676) 
C40092-P295

>  <fragmenstein_outcome>  (2676) 
acceptable

>  <inchikey>  (2676) 
YGWGRXPQQZKLRT-UHFFFAOYSA-N

>  <fragmenstein_mode>  (2676) 
expansion

>  <HIPPO Pose ID>  (2676) 
29426

>  <Energy>  (2676) 
162.1

>  <fragmenstein_error>  (2676) 


>  <tags>  (2676) 
{'openbind_xx01zvns2b_c1_fragmenstein', 'fragmenstein_placed'}

>  <ref_pdb>  (2676) 
175

>  <scratch_subdir>  (2676) 
/opt/xchem-fragalysis-2/maxwin/BulkDock/SCRATCH/511028/C40092-P295

>  <alias>  (2676) 
COc1cc(C(=NOc2cc(C)nc3ncnn23)Nc2ccc3c(c2)CNC3)c2nc(-c3ccc(OC)nn3)n(C3CNC3)c2c1

>  <HIPPO Compound ID>  (2676) 
40092

>  <fragmenstein_runtime>  (2676) 
31.660305

$$$$
COc1ccc(-c2nc3c([C@H](Nc4ccc5c(c4)CN[C@@H]5C)C(=O)CNC(C)=O)cc(F)c(Cl)c3n2C2CNC2)nn1
     RDKit          3D

 42 47  0  0  0  0  0  0  0  0999 V2000
   -0.1800   10.0766  -17.9590 C   0  0  0  0  0  0  0  0  0  0  0  0
   -0.0712    9.0632  -16.9648 O   0  0  0  0  0  0  0  0  0  0  0  0
   -1.1831    8.2504  -16.8981 C   0  0  0  0  0  0  0  0  0  0  0  0
   -1.1533    7.2206  -15.9797 C   0  0  0  0  0  0  0  0  0  0  0  0
   -2.2599    6.3830  -15.8924 C   0  0  0  0  0  0  0  0  0  0  0  0
   -3.3345    6.6142  -16.7358 C   0  0  0  0  0  0  0  0  0  0  0  0
   -4.5579    5.8256  -16.6546 C   0  0  0  0  0  0  0  0  0  0  0  0
   -5.1460    5.5757  -15.4969 N   0  0  0  0  0  0  0  0  0  0  0  0
   -6.3710    5.0543  -15.7837 C   0  0  0  0  0  0  0  0  0  0  0  0
   -7.4083    4.7619  -14.8650 C   0  0  0  0  0  0  0  0  0  0  0  0
   -7.1997    4.9168  -13.3595 C   0  0  2  0  0  0  0  0  0  0  0  0
   -8.4544    4.6098  -12.6222 N   0  0  0  0  0  0  0  0  0  0  0  0
   -8.3836    4.5356  -11.2147 C   0  0  0  0  0  0  0  0  0  0  0  0
   -8.1536    5.6742  -10.4192 C   0  0  0  0  0  0  0  0  0  0  0  0
   -8.1570    5.6049   -9.0190 C   0  0  0  0  0  0  0  0  0  0  0  0
   -8.4417    4.3915   -8.4208 C   0  0  0  0  0  0  0  0  0  0  0  0
   -8.6910    3.2633   -9.1984 C   0  0  0  0  0  0  0  0  0  0  0  0
   -8.6439    3.3102  -10.5817 C   0  0  0  0  0  0  0  0  0  0  0  0
   -9.0258    2.1099   -8.3095 C   0  0  0  0  0  0  0  0  0  0  0  0
   -9.3062    2.7243   -6.9849 N   0  0  0  0  0  0  0  0  0  0  0  0
   -8.5536    4.0037   -6.9758 C   0  0  2  0  0  0  0  0  0  0  0  0
   -9.2227    5.0287   -6.0677 C   0  0  0  0  0  0  0  0  0  0  0  0
   -6.6418    6.3201  -13.0624 C   0  0  0  0  0  0  0  0  0  0  0  0
   -7.2616    7.3674  -13.2930 O   0  0  0  0  0  0  0  0  0  0  0  0
   -5.2516    6.3539  -12.4359 C   0  0  0  0  0  0  0  0  0  0  0  0
   -4.6073    7.6080  -12.7475 N   0  0  0  0  0  0  0  0  0  0  0  0
   -3.2263    7.9720  -12.7696 C   0  0  0  0  0  0  0  0  0  0  0  0
   -3.1057    9.4480  -13.0895 C   0  0  0  0  0  0  0  0  0  0  0  0
   -2.2416    7.3122  -12.6122 O   0  0  0  0  0  0  0  0  0  0  0  0
   -8.6186    4.3118  -15.4180 C   0  0  0  0  0  0  0  0  0  0  0  0
   -8.7380    4.0511  -16.7681 C   0  0  0  0  0  0  0  0  0  0  0  0
   -9.9054    3.5775  -17.2233 F   0  0  0  0  0  0  0  0  0  0  0  0
   -7.6770    4.2383  -17.6480 C   0  0  0  0  0  0  0  0  0  0  0  0
   -7.8888    3.6279  -19.2157 Cl  0  0  0  0  0  0  0  0  0  0  0  0
   -6.5036    4.8256  -17.1540 C   0  0  0  0  0  0  0  0  0  0  0  0
   -5.2954    5.2627  -17.6898 N   0  0  0  0  0  0  0  0  0  0  0  0
   -4.9284    5.1110  -19.1281 C   0  0  0  0  0  0  0  0  0  0  0  0
   -5.0366    6.3919  -19.9539 C   0  0  0  0  0  0  0  0  0  0  0  0
   -3.5750    6.4146  -20.1314 N   0  0  0  0  0  0  0  0  0  0  0  0
   -3.4483    5.0838  -19.5169 C   0  0  0  0  0  0  0  0  0  0  0  0
   -3.3478    7.6572  -17.5951 N   0  0  0  0  0  0  0  0  0  0  0  0
   -2.2529    8.4722  -17.6946 N   0  0  0  0  0  0  0  0  0  0  0  0
  1  2  1  0
  2  3  1  0
  3  4  2  0
  4  5  1  0
  5  6  2  0
  6  7  1  0
  7  8  2  0
  8  9  1  0
  9 10  2  0
 10 11  1  0
 11 12  1  1
 12 13  1  0
 13 14  2  0
 14 15  1  0
 15 16  2  0
 16 17  1  0
 17 18  2  0
 17 19  1  0
 19 20  1  0
 20 21  1  0
 21 22  1  1
 11 23  1  0
 23 24  2  0
 23 25  1  0
 25 26  1  0
 26 27  1  0
 27 28  1  0
 27 29  2  0
 10 30  1  0
 30 31  2  0
 31 32  1  0
 31 33  1  0
 33 34  1  0
 33 35  2  0
 35 36  1  0
 36 37  1  0
 37 38  1  0
 38 39  1  0
 39 40  1  0
  6 41  1  0
 41 42  2  0
 42  3  1  0
 36  7  1  0
 40 37  1  0
 35  9  1  0
 18 13  1  0
 21 16  1  0
M  END
>  <smiles>  (2677) 
C40102-P295

>  <fragmenstein_outcome>  (2677) 
acceptable

>  <inchikey>  (2677) 
KALJJZTWBLLYTK-UHFFFAOYSA-N

>  <fragmenstein_mode>  (2677) 
expansion

>  <HIPPO Pose ID>  (2677) 
29429

>  <Energy>  (2677) 
124.275145

>  <fragmenstein_error>  (2677) 


>  <tags>  (2677) 
{'openbind_xx01zvns2b_c1_fragmenstein', 'fragmenstein_placed'}

>  <ref_pdb>  (2677) 
175

>  <scratch_subdir>  (2677) 
/opt/xchem-fragalysis-2/maxwin/BulkDock/SCRATCH/511028/C40102-P295

>  <alias>  (2677) 
COc1ccc(-c2nc3c([C@H](Nc4ccc5c(c4)CN[C@@H]5C)C(=O)CNC(C)=O)cc(F)c(Cl)c3n2C2CNC2)nn1

>  <HIPPO Compound ID>  (2677) 
21314

>  <fragmenstein_runtime>  (2677) 
230.283039

$$$$
COc1ccc(-c2nc3c([C@](O)(Nc4ccc5c(c4)CNC5)C(=O)NC4CCOCC4)cc(F)cc3n2C2CNC2)nn1
     RDKit          3D

 43 49  0  0  0  0  0  0  0  0999 V2000
    0.0538    9.7445  -18.4447 C   0  0  0  0  0  0  0  0  0  0  0  0
    0.0590    8.7663  -17.4096 O   0  0  0  0  0  0  0  0  0  0  0  0
   -1.1251    8.0648  -17.3235 C   0  0  0  0  0  0  0  0  0  0  0  0
   -1.2001    7.0795  -16.3586 C   0  0  0  0  0  0  0  0  0  0  0  0
   -2.3784    6.3487  -16.2532 C   0  0  0  0  0  0  0  0  0  0  0  0
   -3.4142    6.6339  -17.1295 C   0  0  0  0  0  0  0  0  0  0  0  0
   -4.6874    5.9281  -17.0633 C   0  0  0  0  0  0  0  0  0  0  0  0
   -5.3477    5.7700  -15.9254 N   0  0  0  0  0  0  0  0  0  0  0  0
   -6.5486    5.1834  -16.2326 C   0  0  0  0  0  0  0  0  0  0  0  0
   -7.6255    4.9004  -15.3529 C   0  0  0  0  0  0  0  0  0  0  0  0
   -7.6403    5.3095  -13.8594 C   0  0  2  0  0  0  0  0  0  0  0  0
   -6.4187    5.9691  -13.5183 O   0  0  0  0  0  0  0  0  0  0  0  0
   -7.7919    4.1204  -13.0035 N   0  0  0  0  0  0  0  0  0  0  0  0
   -7.9277    4.2454  -11.6031 C   0  0  0  0  0  0  0  0  0  0  0  0
   -7.3824    5.3071  -10.8518 C   0  0  0  0  0  0  0  0  0  0  0  0
   -7.5221    5.4088   -9.4638 C   0  0  0  0  0  0  0  0  0  0  0  0
   -8.1462    4.3815   -8.8013 C   0  0  0  0  0  0  0  0  0  0  0  0
   -8.6199    3.2793   -9.4951 C   0  0  0  0  0  0  0  0  0  0  0  0
   -8.5194    3.1940  -10.8818 C   0  0  0  0  0  0  0  0  0  0  0  0
   -9.2143    2.3242   -8.5154 C   0  0  0  0  0  0  0  0  0  0  0  0
   -8.8398    2.8190   -7.1648 N   0  0  0  0  0  0  0  0  0  0  0  0
   -8.4100    4.2200   -7.3459 C   0  0  0  0  0  0  0  0  0  0  0  0
   -8.8846    6.3091  -13.5818 C   0  0  0  0  0  0  0  0  0  0  0  0
   -9.9921    6.0358  -13.8484 O   0  0  0  0  0  0  0  0  0  0  0  0
   -8.2934    7.5852  -12.9065 N   0  0  0  0  0  0  0  0  0  0  0  0
   -8.9549    8.7378  -12.3381 C   0  0  0  0  0  0  0  0  0  0  0  0
   -8.9606    8.6529  -10.8126 C   0  0  0  0  0  0  0  0  0  0  0  0
   -9.5745    9.9084  -10.2156 C   0  0  0  0  0  0  0  0  0  0  0  0
   -8.8804   11.0712  -10.6733 O   0  0  0  0  0  0  0  0  0  0  0  0
   -8.9643   11.2223  -12.0893 C   0  0  0  0  0  0  0  0  0  0  0  0
   -8.3079   10.0432  -12.7930 C   0  0  0  0  0  0  0  0  0  0  0  0
   -8.7445    4.2808  -15.9619 C   0  0  0  0  0  0  0  0  0  0  0  0
   -8.7958    4.0183  -17.3302 C   0  0  0  0  0  0  0  0  0  0  0  0
   -9.9166    3.5079  -17.8588 F   0  0  0  0  0  0  0  0  0  0  0  0
   -7.7294    4.3066  -18.1738 C   0  0  0  0  0  0  0  0  0  0  0  0
   -6.6072    4.9033  -17.5943 C   0  0  0  0  0  0  0  0  0  0  0  0
   -5.3957    5.3462  -18.1030 N   0  0  0  0  0  0  0  0  0  0  0  0
   -5.0139    5.1373  -19.5293 C   0  0  0  0  0  0  0  0  0  0  0  0
   -4.9906    6.4089  -20.3767 C   0  0  0  0  0  0  0  0  0  0  0  0
   -3.5386    6.2749  -20.5689 N   0  0  0  0  0  0  0  0  0  0  0  0
   -3.5241    4.9876  -19.8591 C   0  0  0  0  0  0  0  0  0  0  0  0
   -3.3218    7.6310  -18.0362 N   0  0  0  0  0  0  0  0  0  0  0  0
   -2.1588    8.3430  -18.1491 N   0  0  0  0  0  0  0  0  0  0  0  0
  1  2  1  0
  2  3  1  0
  3  4  2  0
  4  5  1  0
  5  6  2  0
  6  7  1  0
  7  8  2  0
  8  9  1  0
  9 10  2  0
 10 11  1  0
 11 12  1  1
 11 13  1  0
 13 14  1  0
 14 15  2  0
 15 16  1  0
 16 17  2  0
 17 18  1  0
 18 19  2  0
 18 20  1  0
 20 21  1  0
 21 22  1  0
 11 23  1  0
 23 24  2  0
 23 25  1  0
 25 26  1  0
 26 27  1  0
 27 28  1  0
 28 29  1  0
 29 30  1  0
 30 31  1  0
 10 32  1  0
 32 33  2  0
 33 34  1  0
 33 35  1  0
 35 36  2  0
 36 37  1  0
 37 38  1  0
 38 39  1  0
 39 40  1  0
 40 41  1  0
  6 42  1  0
 42 43  2  0
 43  3  1  0
 37  7  1  0
 41 38  1  0
 36  9  1  0
 19 14  1  0
 31 26  1  0
 22 17  1  0
M  END
>  <smiles>  (2678) 
C40136-P295

>  <fragmenstein_outcome>  (2678) 
acceptable

>  <inchikey>  (2678) 
IAIGGBVFJHYVCM-UHFFFAOYSA-N

>  <fragmenstein_mode>  (2678) 
expansion

>  <HIPPO Pose ID>  (2678) 
29437

>  <Energy>  (2678) 
131.836586

>  <fragmenstein_error>  (2678) 


>  <tags>  (2678) 
{'openbind_xx01zvns2b_c1_fragmenstein', 'fragmenstein_placed'}

>  <ref_pdb>  (2678) 
175

>  <scratch_subdir>  (2678) 
/opt/xchem-fragalysis-2/maxwin/BulkDock/SCRATCH/511028/C40136-P295

>  <alias>  (2678) 
COc1ccc(-c2nc3c([C@](O)(Nc4ccc5c(c4)CNC5)C(=O)NC4CCOCC4)cc(F)cc3n2C2CNC2)nn1

>  <HIPPO Compound ID>  (2678) 
40136

>  <fragmenstein_runtime>  (2678) 
14.764178

$$$$
CO[C@@H](C)NNc1cc[nH]c1N(c1cc(F)cc(C(=O)Nc2ccc3c(c2)CNC3)c1)C1CNC1
     RDKit          3D

 35 39  0  0  0  0  0  0  0  0999 V2000
   -4.5158    3.0560  -12.6528 C   0  0  0  0  0  0  0  0  0  0  0  0
   -3.3968    3.5256  -13.3985 O   0  0  0  0  0  0  0  0  0  0  0  0
   -3.2382    4.9410  -13.3234 C   0  0  1  0  0  0  0  0  0  0  0  0
   -2.5143    5.3218  -12.0334 C   0  0  0  0  0  0  0  0  0  0  0  0
   -2.4014    5.3801  -14.4466 N   0  0  0  0  0  0  0  0  0  0  0  0
   -3.1237    5.2961  -15.6599 N   0  0  0  0  0  0  0  0  0  0  0  0
   -3.4438    6.4340  -16.3205 C   0  0  0  0  0  0  0  0  0  0  0  0
   -2.8933    7.7243  -16.1072 C   0  0  0  0  0  0  0  0  0  0  0  0
   -3.5320    8.5945  -16.9611 C   0  0  0  0  0  0  0  0  0  0  0  0
   -4.4482    7.8698  -17.6729 N   0  0  0  0  0  0  0  0  0  0  0  0
   -4.3892    6.5398  -17.3271 C   0  0  0  0  0  0  0  0  0  0  0  0
   -5.2296    5.6397  -17.9454 N   0  0  0  0  0  0  0  0  0  0  0  0
   -6.3951    5.1662  -17.2258 C   0  0  0  0  0  0  0  0  0  0  0  0
   -7.4416    4.4773  -17.8590 C   0  0  0  0  0  0  0  0  0  0  0  0
   -8.5657    4.0512  -17.1416 C   0  0  0  0  0  0  0  0  0  0  0  0
   -9.5669    3.4402  -17.7889 F   0  0  0  0  0  0  0  0  0  0  0  0
   -8.6946    4.2796  -15.7801 C   0  0  0  0  0  0  0  0  0  0  0  0
   -7.6877    4.9779  -15.1334 C   0  0  0  0  0  0  0  0  0  0  0  0
   -7.8151    5.4107  -13.7182 C   0  0  0  0  0  0  0  0  0  0  0  0
   -7.6209    6.5375  -13.4806 O   0  0  0  0  0  0  0  0  0  0  0  0
   -8.1856    4.2386  -12.7814 N   0  0  0  0  0  0  0  0  0  0  0  0
   -8.2977    4.1901  -11.3928 C   0  0  0  0  0  0  0  0  0  0  0  0
   -8.0899    5.3389  -10.6111 C   0  0  0  0  0  0  0  0  0  0  0  0
   -8.1951    5.2886   -9.2174 C   0  0  0  0  0  0  0  0  0  0  0  0
   -8.5104    4.0787   -8.6284 C   0  0  0  0  0  0  0  0  0  0  0  0
   -8.7088    2.9392   -9.3974 C   0  0  0  0  0  0  0  0  0  0  0  0
   -8.6054    2.9734  -10.7801 C   0  0  0  0  0  0  0  0  0  0  0  0
   -8.9981    1.7822   -8.5025 C   0  0  0  0  0  0  0  0  0  0  0  0
   -9.1685    2.3480   -7.1384 N   0  0  0  0  0  0  0  0  0  0  0  0
   -8.6895    3.7448   -7.1874 C   0  0  0  0  0  0  0  0  0  0  0  0
   -6.5621    5.4171  -15.8486 C   0  0  0  0  0  0  0  0  0  0  0  0
   -4.9304    5.1784  -19.3234 C   0  0  0  0  0  0  0  0  0  0  0  0
   -3.4375    5.0804  -19.7137 C   0  0  0  0  0  0  0  0  0  0  0  0
   -3.5447    6.3408  -20.4809 N   0  0  0  0  0  0  0  0  0  0  0  0
   -5.0186    6.2499  -20.4235 C   0  0  0  0  0  0  0  0  0  0  0  0
  1  2  1  0
  2  3  1  0
  3  4  1  1
  3  5  1  0
  5  6  1  0
  6  7  1  0
  7  8  1  0
  8  9  2  0
  9 10  1  0
 10 11  1  0
 11 12  1  0
 12 13  1  0
 13 14  2  0
 14 15  1  0
 15 16  1  0
 15 17  2  0
 17 18  1  0
 18 19  1  0
 19 20  2  0
 19 21  1  0
 21 22  1  0
 22 23  2  0
 23 24  1  0
 24 25  2  0
 25 26  1  0
 26 27  2  0
 26 28  1  0
 28 29  1  0
 29 30  1  0
 18 31  2  0
 12 32  1  0
 32 33  1  0
 33 34  1  0
 34 35  1  0
 11  7  2  0
 31 13  1  0
 35 32  1  0
 27 22  1  0
 30 25  1  0
M  END
>  <smiles>  (2679) 
C40137-P295

>  <fragmenstein_outcome>  (2679) 
acceptable

>  <inchikey>  (2679) 
FPCITNBIKPVDQN-UHFFFAOYSA-N

>  <fragmenstein_mode>  (2679) 
expansion

>  <HIPPO Pose ID>  (2679) 
29438

>  <Energy>  (2679) 
99.942286

>  <fragmenstein_error>  (2679) 


>  <tags>  (2679) 
{'openbind_xx01zvns2b_c1_fragmenstein', 'fragmenstein_placed'}

>  <ref_pdb>  (2679) 
175

>  <scratch_subdir>  (2679) 
/opt/xchem-fragalysis-2/maxwin/BulkDock/SCRATCH/511028/C40137-P295

>  <alias>  (2679) 
CO[C@@H](C)NNc1cc[nH]c1N(c1cc(F)cc(C(=O)Nc2ccc3c(c2)CNC3)c1)C1CNC1

>  <HIPPO Compound ID>  (2679) 
32777

>  <fragmenstein_runtime>  (2679) 
10.073449

$$$$
COc1ccc(-c2nc3c(C(=O)Nc4cc5c(cc4C#N)CNC5)cc(F)cc3n2C2CNC2)nn1
     RDKit          3D

 36 41  0  0  0  0  0  0  0  0999 V2000
    0.1601    9.6332  -18.7826 C   0  0  0  0  0  0  0  0  0  0  0  0
    0.1549    8.6962  -17.7104 O   0  0  0  0  0  0  0  0  0  0  0  0
   -1.0454    8.0283  -17.5842 C   0  0  0  0  0  0  0  0  0  0  0  0
   -1.1287    7.0735  -16.5903 C   0  0  0  0  0  0  0  0  0  0  0  0
   -2.3232    6.3765  -16.4460 C   0  0  0  0  0  0  0  0  0  0  0  0
   -3.3673    6.6601  -17.3135 C   0  0  0  0  0  0  0  0  0  0  0  0
   -4.6538    5.9848  -17.2007 C   0  0  0  0  0  0  0  0  0  0  0  0
   -5.2610    5.8137  -16.0384 N   0  0  0  0  0  0  0  0  0  0  0  0
   -6.4715    5.2219  -16.2873 C   0  0  0  0  0  0  0  0  0  0  0  0
   -7.5280    4.8870  -15.4041 C   0  0  0  0  0  0  0  0  0  0  0  0
   -7.4633    5.3308  -13.9813 C   0  0  0  0  0  0  0  0  0  0  0  0
   -7.0421    6.4002  -13.7764 O   0  0  0  0  0  0  0  0  0  0  0  0
   -7.9933    4.2539  -12.9980 N   0  0  0  0  0  0  0  0  0  0  0  0
   -8.1969    4.3078  -11.6015 C   0  0  0  0  0  0  0  0  0  0  0  0
   -8.4586    3.0641  -10.9865 C   0  0  0  0  0  0  0  0  0  0  0  0
   -8.6450    2.9965   -9.6114 C   0  0  0  0  0  0  0  0  0  0  0  0
   -8.5502    4.1291   -8.8198 C   0  0  0  0  0  0  0  0  0  0  0  0
   -8.3018    5.3625   -9.3861 C   0  0  0  0  0  0  0  0  0  0  0  0
   -8.1576    5.4681  -10.7890 C   0  0  0  0  0  0  0  0  0  0  0  0
   -8.1125    6.8173  -11.2776 C   0  0  0  0  0  0  0  0  0  0  0  0
   -8.1644    7.9508  -11.5320 N   0  0  0  0  0  0  0  0  0  0  0  0
   -8.7810    3.7582   -7.3932 C   0  0  0  0  0  0  0  0  0  0  0  0
   -9.3815    2.4102   -7.4383 N   0  0  0  0  0  0  0  0  0  0  0  0
   -8.9467    1.8222   -8.7340 C   0  0  0  0  0  0  0  0  0  0  0  0
   -8.6782    4.2812  -15.9293 C   0  0  0  0  0  0  0  0  0  0  0  0
   -8.7620    4.0160  -17.2920 C   0  0  0  0  0  0  0  0  0  0  0  0
   -9.8836    3.4710  -17.7808 F   0  0  0  0  0  0  0  0  0  0  0  0
   -7.7271    4.3221  -18.1762 C   0  0  0  0  0  0  0  0  0  0  0  0
   -6.5881    4.9453  -17.6500 C   0  0  0  0  0  0  0  0  0  0  0  0
   -5.4075    5.4110  -18.2113 N   0  0  0  0  0  0  0  0  0  0  0  0
   -5.0678    5.1978  -19.6476 C   0  0  0  0  0  0  0  0  0  0  0  0
   -3.5859    5.0294  -20.0075 C   0  0  0  0  0  0  0  0  0  0  0  0
   -3.6033    6.3036  -20.7409 N   0  0  0  0  0  0  0  0  0  0  0  0
   -5.0440    6.4696  -20.4960 C   0  0  0  0  0  0  0  0  0  0  0  0
   -3.2653    7.6327  -18.2458 N   0  0  0  0  0  0  0  0  0  0  0  0
   -2.0858    8.3107  -18.3997 N   0  0  0  0  0  0  0  0  0  0  0  0
  1  2  1  0
  2  3  1  0
  3  4  2  0
  4  5  1  0
  5  6  2  0
  6  7  1  0
  7  8  2  0
  8  9  1  0
  9 10  2  0
 10 11  1  0
 11 12  2  0
 11 13  1  0
 13 14  1  0
 14 15  2  0
 15 16  1  0
 16 17  2  0
 17 18  1  0
 18 19  2  0
 19 20  1  0
 20 21  3  0
 17 22  1  0
 22 23  1  0
 23 24  1  0
 10 25  1  0
 25 26  2  0
 26 27  1  0
 26 28  1  0
 28 29  2  0
 29 30  1  0
 30 31  1  0
 31 32  1  0
 32 33  1  0
 33 34  1  0
  6 35  1  0
 35 36  2  0
 36  3  1  0
 30  7  1  0
 34 31  1  0
 29  9  1  0
 19 14  1  0
 24 16  1  0
M  END
>  <smiles>  (2680) 
C40152-P295

>  <fragmenstein_outcome>  (2680) 
acceptable

>  <inchikey>  (2680) 
UHCOIXSLDCEZFH-UHFFFAOYSA-N

>  <fragmenstein_mode>  (2680) 
expansion

>  <HIPPO Pose ID>  (2680) 
29441

>  <Energy>  (2680) 
130.537928

>  <fragmenstein_error>  (2680) 


>  <tags>  (2680) 
{'openbind_xx01zvns2b_c1_fragmenstein', 'fragmenstein_placed'}

>  <ref_pdb>  (2680) 
175

>  <scratch_subdir>  (2680) 
/opt/xchem-fragalysis-2/maxwin/BulkDock/SCRATCH/511028/C40152-P295

>  <alias>  (2680) 
COc1ccc(-c2nc3c(C(=O)Nc4cc5c(cc4C#N)CNC5)cc(F)cc3n2C2CNC2)nn1

>  <HIPPO Compound ID>  (2680) 
40152

>  <fragmenstein_runtime>  (2680) 
18.505476

$$$$
COc1ccc(-c2nc3c(C(=O)Nc4ccc5c(c4)CNC5)cc(F)c4c3n2C2(CNC2)C(=O)N4)nn1
     RDKit          3D

 37 43  0  0  0  0  0  0  0  0999 V2000
   -0.9322   10.7386  -18.6379 C   0  0  0  0  0  0  0  0  0  0  0  0
   -0.5066    9.3937  -18.4432 O   0  0  0  0  0  0  0  0  0  0  0  0
   -1.5369    8.5547  -18.0678 C   0  0  0  0  0  0  0  0  0  0  0  0
   -1.2054    7.2384  -17.8079 C   0  0  0  0  0  0  0  0  0  0  0  0
   -2.2196    6.3655  -17.4304 C   0  0  0  0  0  0  0  0  0  0  0  0
   -3.5077    6.8574  -17.3404 C   0  0  0  0  0  0  0  0  0  0  0  0
   -4.6482    6.0393  -16.9649 C   0  0  0  0  0  0  0  0  0  0  0  0
   -5.1560    5.9546  -15.7345 N   0  0  0  0  0  0  0  0  0  0  0  0
   -6.3789    5.3279  -15.8405 C   0  0  0  0  0  0  0  0  0  0  0  0
   -7.4225    5.0298  -14.9393 C   0  0  0  0  0  0  0  0  0  0  0  0
   -7.3645    5.4422  -13.5212 C   0  0  0  0  0  0  0  0  0  0  0  0
   -7.0928    6.5459  -13.2547 O   0  0  0  0  0  0  0  0  0  0  0  0
   -7.7751    4.2603  -12.6069 N   0  0  0  0  0  0  0  0  0  0  0  0
   -8.0189    4.2194  -11.2372 C   0  0  0  0  0  0  0  0  0  0  0  0
   -7.9110    5.3662  -10.4359 C   0  0  0  0  0  0  0  0  0  0  0  0
   -8.1694    5.3045   -9.0619 C   0  0  0  0  0  0  0  0  0  0  0  0
   -8.5485    4.0901   -8.5206 C   0  0  0  0  0  0  0  0  0  0  0  0
   -8.6601    2.9535   -9.3152 C   0  0  0  0  0  0  0  0  0  0  0  0
   -8.3947    2.9961  -10.6727 C   0  0  0  0  0  0  0  0  0  0  0  0
   -9.0572    1.7967   -8.4596 C   0  0  0  0  0  0  0  0  0  0  0  0
   -9.5340    2.4026   -7.1887 N   0  0  0  0  0  0  0  0  0  0  0  0
   -8.8783    3.7273   -7.1111 C   0  0  0  0  0  0  0  0  0  0  0  0
   -8.6009    4.4142  -15.4245 C   0  0  0  0  0  0  0  0  0  0  0  0
   -8.7129    4.0659  -16.7629 C   0  0  0  0  0  0  0  0  0  0  0  0
   -9.8421    3.5217  -17.2281 F   0  0  0  0  0  0  0  0  0  0  0  0
   -7.6638    4.2923  -17.6333 C   0  0  0  0  0  0  0  0  0  0  0  0
   -6.5536    4.9428  -17.1516 C   0  0  0  0  0  0  0  0  0  0  0  0
   -5.4480    5.3374  -17.8372 N   0  0  0  0  0  0  0  0  0  0  0  0
   -5.3791    5.0418  -19.3030 C   0  0  0  0  0  0  0  0  0  0  0  0
   -3.9322    4.7789  -19.7929 C   0  0  0  0  0  0  0  0  0  0  0  0
   -3.8148    6.1806  -20.2140 N   0  0  0  0  0  0  0  0  0  0  0  0
   -5.2769    6.3243  -20.1678 C   0  0  0  0  0  0  0  0  0  0  0  0
   -6.5447    4.0102  -19.7695 C   0  0  0  0  0  0  0  0  0  0  0  0
   -6.5923    3.3331  -20.8021 O   0  0  0  0  0  0  0  0  0  0  0  0
   -7.6426    3.8578  -18.9397 N   0  0  0  0  0  0  0  0  0  0  0  0
   -3.8015    8.1578  -17.5918 N   0  0  0  0  0  0  0  0  0  0  0  0
   -2.8032    9.0158  -17.9649 N   0  0  0  0  0  0  0  0  0  0  0  0
  1  2  1  0
  2  3  1  0
  3  4  2  0
  4  5  1  0
  5  6  2  0
  6  7  1  0
  7  8  2  0
  8  9  1  0
  9 10  2  0
 10 11  1  0
 11 12  2  0
 11 13  1  0
 13 14  1  0
 14 15  2  0
 15 16  1  0
 16 17  2  0
 17 18  1  0
 18 19  2  0
 18 20  1  0
 20 21  1  0
 21 22  1  0
 10 23  1  0
 23 24  2  0
 24 25  1  0
 24 26  1  0
 26 27  2  0
 27 28  1  0
 28 29  1  0
 29 30  1  0
 30 31  1  0
 31 32  1  0
 29 33  1  0
 33 34  2  0
 33 35  1  0
  6 36  1  0
 36 37  2  0
 37  3  1  0
 28  7  1  0
 32 29  1  0
 27  9  1  0
 19 14  1  0
 35 26  1  0
 22 17  1  0
M  END
>  <smiles>  (2681) 
C40155-P295

>  <fragmenstein_outcome>  (2681) 
acceptable

>  <inchikey>  (2681) 
UJWTYEFBCPZPJX-UHFFFAOYSA-N

>  <fragmenstein_mode>  (2681) 
expansion

>  <HIPPO Pose ID>  (2681) 
29444

>  <Energy>  (2681) 
79.170019

>  <fragmenstein_error>  (2681) 


>  <tags>  (2681) 
{'openbind_xx01zvns2b_c1_fragmenstein', 'fragmenstein_placed'}

>  <ref_pdb>  (2681) 
175

>  <scratch_subdir>  (2681) 
/opt/xchem-fragalysis-2/maxwin/BulkDock/SCRATCH/511028/C40155-P295

>  <alias>  (2681) 
COc1ccc(-c2nc3c(C(=O)Nc4ccc5c(c4)CNC5)cc(F)c4c3n2C2(CNC2)C(=O)N4)nn1

>  <HIPPO Compound ID>  (2681) 
33392

>  <fragmenstein_runtime>  (2681) 
28.668434

$$$$
COc1ccc(-c2nc3c(C(=O)Nc4cc5c6c(csc6c4)NC5)cc(F)cc3n2C2CNC2)nn1
     RDKit          3D

 36 42  0  0  0  0  0  0  0  0999 V2000
    1.1431    6.2784  -18.8512 C   0  0  0  0  0  0  0  0  0  0  0  0
    0.6491    6.7659  -17.6070 O   0  0  0  0  0  0  0  0  0  0  0  0
   -0.5978    6.2963  -17.2948 C   0  0  0  0  0  0  0  0  0  0  0  0
   -1.1409    6.6770  -16.0833 C   0  0  0  0  0  0  0  0  0  0  0  0
   -2.4517    6.3105  -15.8159 C   0  0  0  0  0  0  0  0  0  0  0  0
   -3.1228    5.5737  -16.7743 C   0  0  0  0  0  0  0  0  0  0  0  0
   -4.5367    5.2835  -16.6907 C   0  0  0  0  0  0  0  0  0  0  0  0
   -5.2372    5.2855  -15.5678 N   0  0  0  0  0  0  0  0  0  0  0  0
   -6.5158    4.9117  -15.8979 C   0  0  0  0  0  0  0  0  0  0  0  0
   -7.6659    4.7517  -15.1063 C   0  0  0  0  0  0  0  0  0  0  0  0
   -7.6583    5.2341  -13.7105 C   0  0  0  0  0  0  0  0  0  0  0  0
   -7.3022    6.3278  -13.5087 O   0  0  0  0  0  0  0  0  0  0  0  0
   -8.1846    4.1558  -12.7360 N   0  0  0  0  0  0  0  0  0  0  0  0
   -8.2898    4.1654  -11.3440 C   0  0  0  0  0  0  0  0  0  0  0  0
   -8.6700    2.9640  -10.7076 C   0  0  0  0  0  0  0  0  0  0  0  0
   -8.7676    2.9514   -9.3319 C   0  0  0  0  0  0  0  0  0  0  0  0
   -8.4971    4.1245   -8.6637 C   0  0  0  0  0  0  0  0  0  0  0  0
   -8.6085    4.0616   -7.2885 C   0  0  0  0  0  0  0  0  0  0  0  0
   -8.2613    5.2317   -6.6879 C   0  0  0  0  0  0  0  0  0  0  0  0
   -7.8497    6.4180   -7.9197 S   0  0  0  0  0  0  0  0  0  0  0  0
   -8.1084    5.3055   -9.2226 C   0  0  0  0  0  0  0  0  0  0  0  0
   -8.0032    5.3573  -10.6180 C   0  0  0  0  0  0  0  0  0  0  0  0
   -9.0125    2.8011   -6.9565 N   0  0  0  0  0  0  0  0  0  0  0  0
   -9.0749    1.9527   -8.2532 C   0  0  0  0  0  0  0  0  0  0  0  0
   -8.8446    4.2762  -15.6962 C   0  0  0  0  0  0  0  0  0  0  0  0
   -8.8985    4.0450  -17.0648 C   0  0  0  0  0  0  0  0  0  0  0  0
  -10.0528    3.6600  -17.6259 F   0  0  0  0  0  0  0  0  0  0  0  0
   -7.7961    4.2571  -17.8846 C   0  0  0  0  0  0  0  0  0  0  0  0
   -6.6105    4.6766  -17.2640 C   0  0  0  0  0  0  0  0  0  0  0  0
   -5.3665    5.0205  -17.7565 N   0  0  0  0  0  0  0  0  0  0  0  0
   -5.2035    5.2667  -19.2018 C   0  0  0  0  0  0  0  0  0  0  0  0
   -4.0161    5.9696  -19.8961 C   0  0  0  0  0  0  0  0  0  0  0  0
   -5.0347    6.7116  -20.7187 N   0  0  0  0  0  0  0  0  0  0  0  0
   -5.8712    6.6222  -19.4936 C   0  0  0  0  0  0  0  0  0  0  0  0
   -2.5149    5.1230  -17.8854 N   0  0  0  0  0  0  0  0  0  0  0  0
   -1.2625    5.5325  -18.1801 N   0  0  0  0  0  0  0  0  0  0  0  0
  1  2  1  0
  2  3  1  0
  3  4  2  0
  4  5  1  0
  5  6  2  0
  6  7  1  0
  7  8  2  0
  8  9  1  0
  9 10  2  0
 10 11  1  0
 11 12  2  0
 11 13  1  0
 13 14  1  0
 14 15  2  0
 15 16  1  0
 16 17  2  0
 17 18  1  0
 18 19  2  0
 19 20  1  0
 20 21  1  0
 21 22  2  0
 18 23  1  0
 23 24  1  0
 10 25  1  0
 25 26  2  0
 26 27  1  0
 26 28  1  0
 28 29  2  0
 29 30  1  0
 30 31  1  0
 31 32  1  0
 32 33  1  0
 33 34  1  0
  6 35  1  0
 35 36  2  0
 36  3  1  0
 30  7  1  0
 34 31  1  0
 29  9  1  0
 22 14  1  0
 24 16  1  0
 21 17  1  0
M  END
>  <smiles>  (2682) 
C40159-P295

>  <fragmenstein_outcome>  (2682) 
acceptable

>  <inchikey>  (2682) 
PTGYPOHQAADDDF-UHFFFAOYSA-N

>  <fragmenstein_mode>  (2682) 
expansion

>  <HIPPO Pose ID>  (2682) 
29447

>  <Energy>  (2682) 
144.117606

>  <fragmenstein_error>  (2682) 


>  <tags>  (2682) 
{'openbind_xx01zvns2b_c1_fragmenstein', 'fragmenstein_placed'}

>  <ref_pdb>  (2682) 
175

>  <scratch_subdir>  (2682) 
/opt/xchem-fragalysis-2/maxwin/BulkDock/SCRATCH/511028/C40159-P295

>  <alias>  (2682) 
COc1ccc(-c2nc3c(C(=O)Nc4cc5c6c(csc6c4)NC5)cc(F)cc3n2C2CNC2)nn1

>  <HIPPO Compound ID>  (2682) 
40159

>  <fragmenstein_runtime>  (2682) 
14.719916

$$$$
COc1ccc([C@H]2Nc3c(C(=O)Nc4ccc5c(c4)CNC5)cc(F)cc3[N@@+]2([O-])C2CNC2)nn1
     RDKit          3D

 35 40  0  0  0  0  0  0  0  0999 V2000
    1.4823    6.6387  -18.8910 C   0  0  0  0  0  0  0  0  0  0  0  0
    0.8026    7.2812  -17.8151 O   0  0  0  0  0  0  0  0  0  0  0  0
   -0.4730    6.7897  -17.6296 C   0  0  0  0  0  0  0  0  0  0  0  0
   -1.2280    7.3502  -16.6225 C   0  0  0  0  0  0  0  0  0  0  0  0
   -2.5181    6.8680  -16.4191 C   0  0  0  0  0  0  0  0  0  0  0  0
   -3.0077    5.8521  -17.2408 C   0  0  0  0  0  0  0  0  0  0  0  0
   -4.3739    5.2366  -17.0535 C   0  0  1  0  0  0  0  0  0  0  0  0
   -5.0997    5.6618  -15.8016 N   0  0  0  0  0  0  0  0  0  0  0  0
   -6.4157    5.1654  -16.0515 C   0  0  0  0  0  0  0  0  0  0  0  0
   -7.4482    4.9294  -15.1431 C   0  0  0  0  0  0  0  0  0  0  0  0
   -7.3348    5.3103  -13.7089 C   0  0  0  0  0  0  0  0  0  0  0  0
   -6.8945    6.3617  -13.4524 O   0  0  0  0  0  0  0  0  0  0  0  0
   -7.8762    4.1944  -12.7797 N   0  0  0  0  0  0  0  0  0  0  0  0
   -8.0686    4.1801  -11.3989 C   0  0  0  0  0  0  0  0  0  0  0  0
   -7.8647    5.3318  -10.6229 C   0  0  0  0  0  0  0  0  0  0  0  0
   -8.0548    5.3053   -9.2365 C   0  0  0  0  0  0  0  0  0  0  0  0
   -8.4401    4.1143   -8.6486 C   0  0  0  0  0  0  0  0  0  0  0  0
   -8.6442    2.9739   -9.4133 C   0  0  0  0  0  0  0  0  0  0  0  0
   -8.4731    2.9884  -10.7898 C   0  0  0  0  0  0  0  0  0  0  0  0
   -9.0086    1.8358   -8.5214 C   0  0  0  0  0  0  0  0  0  0  0  0
   -9.1820    2.4117   -7.1621 N   0  0  0  0  0  0  0  0  0  0  0  0
   -8.6834    3.8017   -7.2120 C   0  0  0  0  0  0  0  0  0  0  0  0
   -8.6580    4.4006  -15.6216 C   0  0  0  0  0  0  0  0  0  0  0  0
   -8.8273    4.1458  -16.9845 C   0  0  0  0  0  0  0  0  0  0  0  0
   -9.9936    3.6652  -17.4276 F   0  0  0  0  0  0  0  0  0  0  0  0
   -7.8275    4.4280  -17.8966 C   0  0  0  0  0  0  0  0  0  0  0  0
   -6.6378    4.9604  -17.4149 C   0  0  0  0  0  0  0  0  0  0  0  0
   -5.4059    5.2420  -18.2084 N   0  0  2  0  0  0  0  0  0  0  0  0
   -5.3167    4.2387  -19.1012 O   0  0  0  0  0  0  0  0  0  0  0  0
   -5.5898    6.4983  -18.9807 C   0  0  0  0  0  0  0  0  0  0  0  0
   -4.4793    6.7981  -20.0026 C   0  0  0  0  0  0  0  0  0  0  0  0
   -4.0295    7.9226  -19.1633 N   0  0  0  0  0  0  0  0  0  0  0  0
   -5.2472    7.8566  -18.3565 C   0  0  0  0  0  0  0  0  0  0  0  0
   -2.2151    5.3149  -18.1947 N   0  0  0  0  0  0  0  0  0  0  0  0
   -0.9456    5.7925  -18.3978 N   0  0  0  0  0  0  0  0  0  0  0  0
  1  2  1  0
  2  3  1  0
  3  4  2  0
  4  5  1  0
  5  6  2  0
  7  6  1  6
  7  8  1  0
  8  9  1  0
  9 10  2  0
 10 11  1  0
 11 12  2  0
 11 13  1  0
 13 14  1  0
 14 15  2  0
 15 16  1  0
 16 17  2  0
 17 18  1  0
 18 19  2  0
 18 20  1  0
 20 21  1  0
 21 22  1  0
 10 23  1  0
 23 24  2  0
 24 25  1  0
 24 26  1  0
 26 27  2  0
 27 28  1  0
 28 29  1  6
 28 30  1  0
 30 31  1  0
 31 32  1  0
 32 33  1  0
  6 34  1  0
 34 35  2  0
 35  3  1  0
 28  7  1  0
 33 30  1  0
 27  9  1  0
 19 14  1  0
 22 17  1  0
M  CHG  2  28   1  29  -1
M  END
>  <smiles>  (2683) 
C40129-P296

>  <fragmenstein_outcome>  (2683) 
acceptable

>  <inchikey>  (2683) 
IHKWOSOGDRIGGK-UHFFFAOYSA-N

>  <fragmenstein_mode>  (2683) 
expansion

>  <HIPPO Pose ID>  (2683) 
29458

>  <Energy>  (2683) 
163.07466

>  <fragmenstein_error>  (2683) 


>  <tags>  (2683) 
{'openbind_xx01zvns2b_c1_fragmenstein', 'fragmenstein_placed'}

>  <ref_pdb>  (2683) 
175

>  <scratch_subdir>  (2683) 
/opt/xchem-fragalysis-2/maxwin/BulkDock/SCRATCH/511028/C40129-P296

>  <alias>  (2683) 
COc1ccc([C@H]2Nc3c(C(=O)Nc4ccc5c(c4)CNC5)cc(F)cc3[N@@+]2([O-])C2CNC2)nn1

>  <HIPPO Compound ID>  (2683) 
40129

>  <fragmenstein_runtime>  (2683) 
11.111482

$$$$
COc1ccc(-c2nc3c(C(=O)Nc4cc(Br)c5c(c4)CNC5)cc(F)cc3n2C2CNC2)nn1
     RDKit          3D

 35 40  0  0  0  0  0  0  0  0999 V2000
    0.2508    9.5940  -18.1232 C   0  0  0  0  0  0  0  0  0  0  0  0
    0.2504    8.5569  -17.1468 O   0  0  0  0  0  0  0  0  0  0  0  0
   -0.9480    7.8769  -17.0845 C   0  0  0  0  0  0  0  0  0  0  0  0
   -1.0315    6.8378  -16.1791 C   0  0  0  0  0  0  0  0  0  0  0  0
   -2.2235    6.1255  -16.1027 C   0  0  0  0  0  0  0  0  0  0  0  0
   -3.2626    6.4762  -16.9501 C   0  0  0  0  0  0  0  0  0  0  0  0
   -4.5561    5.8117  -16.8858 C   0  0  0  0  0  0  0  0  0  0  0  0
   -5.1993    5.6356  -15.7413 N   0  0  0  0  0  0  0  0  0  0  0  0
   -6.4319    5.1191  -16.0439 C   0  0  0  0  0  0  0  0  0  0  0  0
   -7.5412    4.8353  -15.2183 C   0  0  0  0  0  0  0  0  0  0  0  0
   -7.5507    5.2860  -13.8050 C   0  0  0  0  0  0  0  0  0  0  0  0
   -7.2438    6.3903  -13.5789 O   0  0  0  0  0  0  0  0  0  0  0  0
   -8.0568    4.1704  -12.8564 N   0  0  0  0  0  0  0  0  0  0  0  0
   -8.1947    4.1550  -11.4668 C   0  0  0  0  0  0  0  0  0  0  0  0
   -7.9991    5.3177  -10.7051 C   0  0  0  0  0  0  0  0  0  0  0  0
   -8.1384    5.2876   -9.3129 C   0  0  0  0  0  0  0  0  0  0  0  0
   -7.8579    6.8661   -8.3121 Br  0  0  0  0  0  0  0  0  0  0  0  0
   -8.4758    4.0964   -8.6973 C   0  0  0  0  0  0  0  0  0  0  0  0
   -8.6687    2.9460   -9.4530 C   0  0  0  0  0  0  0  0  0  0  0  0
   -8.5352    2.9556  -10.8349 C   0  0  0  0  0  0  0  0  0  0  0  0
   -8.9858    1.8018   -8.5504 C   0  0  0  0  0  0  0  0  0  0  0  0
   -9.1589    2.3808   -7.1953 N   0  0  0  0  0  0  0  0  0  0  0  0
   -8.6802    3.7782   -7.2558 C   0  0  0  0  0  0  0  0  0  0  0  0
   -8.6905    4.2713  -15.7866 C   0  0  0  0  0  0  0  0  0  0  0  0
   -8.7373    4.0273  -17.1522 C   0  0  0  0  0  0  0  0  0  0  0  0
   -9.8603    3.5304  -17.6842 F   0  0  0  0  0  0  0  0  0  0  0  0
   -7.6686    4.3229  -17.9967 C   0  0  0  0  0  0  0  0  0  0  0  0
   -6.5202    4.8747  -17.4134 C   0  0  0  0  0  0  0  0  0  0  0  0
   -5.3112    5.3075  -17.9305 N   0  0  0  0  0  0  0  0  0  0  0  0
   -5.0007    5.1901  -19.3809 C   0  0  0  0  0  0  0  0  0  0  0  0
   -3.5334    5.1298  -19.8083 C   0  0  0  0  0  0  0  0  0  0  0  0
   -3.6163    6.5096  -20.3160 N   0  0  0  0  0  0  0  0  0  0  0  0
   -5.0751    6.5162  -20.1392 C   0  0  0  0  0  0  0  0  0  0  0  0
   -3.1636    7.5328  -17.7856 N   0  0  0  0  0  0  0  0  0  0  0  0
   -1.9868    8.2265  -17.8744 N   0  0  0  0  0  0  0  0  0  0  0  0
  1  2  1  0
  2  3  1  0
  3  4  2  0
  4  5  1  0
  5  6  2  0
  6  7  1  0
  7  8  2  0
  8  9  1  0
  9 10  2  0
 10 11  1  0
 11 12  2  0
 11 13  1  0
 13 14  1  0
 14 15  2  0
 15 16  1  0
 16 17  1  0
 16 18  2  0
 18 19  1  0
 19 20  2  0
 19 21  1  0
 21 22  1  0
 22 23  1  0
 10 24  1  0
 24 25  2  0
 25 26  1  0
 25 27  1  0
 27 28  2  0
 28 29  1  0
 29 30  1  0
 30 31  1  0
 31 32  1  0
 32 33  1  0
  6 34  1  0
 34 35  2  0
 35  3  1  0
 29  7  1  0
 33 30  1  0
 28  9  1  0
 20 14  1  0
 23 18  1  0
M  END
>  <smiles>  (2684) 
C40188-P296

>  <fragmenstein_outcome>  (2684) 
acceptable

>  <inchikey>  (2684) 
CSILHJZVWKJVQC-UHFFFAOYSA-N

>  <fragmenstein_mode>  (2684) 
expansion

>  <HIPPO Pose ID>  (2684) 
29463

>  <Energy>  (2684) 
97.696644

>  <fragmenstein_error>  (2684) 


>  <tags>  (2684) 
{'openbind_xx01zvns2b_c1_fragmenstein', 'fragmenstein_placed'}

>  <ref_pdb>  (2684) 
175

>  <scratch_subdir>  (2684) 
/opt/xchem-fragalysis-2/maxwin/BulkDock/SCRATCH/511028/C40188-P296

>  <alias>  (2684) 
COc1ccc(-c2nc3c(C(=O)Nc4cc(Br)c5c(c4)CNC5)cc(F)cc3n2C2CNC2)nn1

>  <HIPPO Compound ID>  (2684) 
22470

>  <fragmenstein_runtime>  (2684) 
8.235056

$$$$
CCOc1ccc(-c2nc3c(C(=O)Nc4ccc5c(c4)CNC5)cc(F)cc3n2C2CNC2)nn1
     RDKit          3D

 35 40  0  0  0  0  0  0  0  0999 V2000
    1.9917    7.8740  -17.9777 C   0  0  0  0  0  0  0  0  0  0  0  0
    1.9644    6.5623  -17.2116 C   0  0  0  0  0  0  0  0  0  0  0  0
    1.2597    6.7084  -15.9761 O   0  0  0  0  0  0  0  0  0  0  0  0
   -0.0957    6.4714  -16.0576 C   0  0  0  0  0  0  0  0  0  0  0  0
   -0.8030    6.4493  -14.8735 C   0  0  0  0  0  0  0  0  0  0  0  0
   -2.1722    6.2019  -14.9271 C   0  0  0  0  0  0  0  0  0  0  0  0
   -2.7746    5.9901  -16.1613 C   0  0  0  0  0  0  0  0  0  0  0  0
   -4.2078    5.6934  -16.2590 C   0  0  0  0  0  0  0  0  0  0  0  0
   -5.0107    5.5667  -15.2144 N   0  0  0  0  0  0  0  0  0  0  0  0
   -6.2340    5.1769  -15.7017 C   0  0  0  0  0  0  0  0  0  0  0  0
   -7.4358    4.9036  -15.0187 C   0  0  0  0  0  0  0  0  0  0  0  0
   -7.5775    5.3419  -13.6172 C   0  0  0  0  0  0  0  0  0  0  0  0
   -7.4383    6.4782  -13.3854 O   0  0  0  0  0  0  0  0  0  0  0  0
   -7.9699    4.1707  -12.6883 N   0  0  0  0  0  0  0  0  0  0  0  0
   -8.1732    4.1376  -11.3103 C   0  0  0  0  0  0  0  0  0  0  0  0
   -8.0203    5.2955  -10.5294 C   0  0  0  0  0  0  0  0  0  0  0  0
   -8.1950    5.2555   -9.1423 C   0  0  0  0  0  0  0  0  0  0  0  0
   -8.5285    4.0473   -8.5598 C   0  0  0  0  0  0  0  0  0  0  0  0
   -8.6888    2.9030   -9.3305 C   0  0  0  0  0  0  0  0  0  0  0  0
   -8.5145    2.9264  -10.7060 C   0  0  0  0  0  0  0  0  0  0  0  0
   -9.0152    1.7501   -8.4442 C   0  0  0  0  0  0  0  0  0  0  0  0
   -9.2309    2.3182   -7.0874 N   0  0  0  0  0  0  0  0  0  0  0  0
   -8.7563    3.7170   -7.1249 C   0  0  0  0  0  0  0  0  0  0  0  0
   -8.5310    4.3777  -15.7095 C   0  0  0  0  0  0  0  0  0  0  0  0
   -8.4381    4.1806  -17.0793 C   0  0  0  0  0  0  0  0  0  0  0  0
   -9.5070    3.6946  -17.7270 F   0  0  0  0  0  0  0  0  0  0  0  0
   -7.2926    4.5329  -17.8047 C   0  0  0  0  0  0  0  0  0  0  0  0
   -6.1932    5.0509  -17.0925 C   0  0  0  0  0  0  0  0  0  0  0  0
   -4.9464    5.5605  -17.4213 N   0  0  0  0  0  0  0  0  0  0  0  0
   -4.4640    6.1523  -18.6994 C   0  0  0  0  0  0  0  0  0  0  0  0
   -3.7723    5.1158  -19.6081 C   0  0  0  0  0  0  0  0  0  0  0  0
   -5.0890    4.9267  -20.2346 N   0  0  0  0  0  0  0  0  0  0  0  0
   -5.4598    6.2918  -19.8444 C   0  0  0  0  0  0  0  0  0  0  0  0
   -2.0458    6.0285  -17.2952 N   0  0  0  0  0  0  0  0  0  0  0  0
   -0.6973    6.2807  -17.2481 N   0  0  0  0  0  0  0  0  0  0  0  0
  1  2  1  0
  2  3  1  0
  3  4  1  0
  4  5  2  0
  5  6  1  0
  6  7  2  0
  7  8  1  0
  8  9  2  0
  9 10  1  0
 10 11  2  0
 11 12  1  0
 12 13  2  0
 12 14  1  0
 14 15  1  0
 15 16  2  0
 16 17  1  0
 17 18  2  0
 18 19  1  0
 19 20  2  0
 19 21  1  0
 21 22  1  0
 22 23  1  0
 11 24  1  0
 24 25  2  0
 25 26  1  0
 25 27  1  0
 27 28  2  0
 28 29  1  0
 29 30  1  0
 30 31  1  0
 31 32  1  0
 32 33  1  0
  7 34  1  0
 34 35  2  0
 35  4  1  0
 29  8  1  0
 33 30  1  0
 28 10  1  0
 20 15  1  0
 23 18  1  0
M  END
>  <smiles>  (2685) 
C40190-P296

>  <fragmenstein_outcome>  (2685) 
acceptable

>  <inchikey>  (2685) 
OPFHEBTUUXZQQC-UHFFFAOYSA-N

>  <fragmenstein_mode>  (2685) 
expansion

>  <HIPPO Pose ID>  (2685) 
29464

>  <Energy>  (2685) 
100.957467

>  <fragmenstein_error>  (2685) 


>  <tags>  (2685) 
{'openbind_xx01zvns2b_c1_fragmenstein', 'fragmenstein_placed'}

>  <ref_pdb>  (2685) 
175

>  <scratch_subdir>  (2685) 
/opt/xchem-fragalysis-2/maxwin/BulkDock/SCRATCH/511028/C40190-P296

>  <alias>  (2685) 
CCOc1ccc(-c2nc3c(C(=O)Nc4ccc5c(c4)CNC5)cc(F)cc3n2C2CNC2)nn1

>  <HIPPO Compound ID>  (2685) 
40190

>  <fragmenstein_runtime>  (2685) 
10.032564

$$$$
COc1ccc(-c2nc3c(C(=O)Nc4cc(F)c5c(c4)CNC5=O)cc(F)cc3n2C2CNC2)nn1
     RDKit          3D

 36 41  0  0  0  0  0  0  0  0999 V2000
    0.3043    9.5019  -18.4365 C   0  0  0  0  0  0  0  0  0  0  0  0
    0.2889    8.5328  -17.3929 O   0  0  0  0  0  0  0  0  0  0  0  0
   -0.9065    7.8498  -17.3096 C   0  0  0  0  0  0  0  0  0  0  0  0
   -1.0080    6.8825  -16.3299 C   0  0  0  0  0  0  0  0  0  0  0  0
   -2.1975    6.1687  -16.2304 C   0  0  0  0  0  0  0  0  0  0  0  0
   -3.2177    6.4450  -17.1277 C   0  0  0  0  0  0  0  0  0  0  0  0
   -4.5060    5.7676  -17.0477 C   0  0  0  0  0  0  0  0  0  0  0  0
   -5.1281    5.5704  -15.8946 N   0  0  0  0  0  0  0  0  0  0  0  0
   -6.3677    5.0640  -16.1836 C   0  0  0  0  0  0  0  0  0  0  0  0
   -7.4653    4.7733  -15.3464 C   0  0  0  0  0  0  0  0  0  0  0  0
   -7.4578    5.2070  -13.9356 C   0  0  0  0  0  0  0  0  0  0  0  0
   -7.2244    6.3293  -13.7100 O   0  0  0  0  0  0  0  0  0  0  0  0
   -7.8318    4.0468  -12.9785 N   0  0  0  0  0  0  0  0  0  0  0  0
   -8.0799    4.0492  -11.6063 C   0  0  0  0  0  0  0  0  0  0  0  0
   -8.0382    5.2552  -10.8944 C   0  0  0  0  0  0  0  0  0  0  0  0
   -8.2683    5.2731   -9.5241 C   0  0  0  0  0  0  0  0  0  0  0  0
   -8.2444    6.4460   -8.8902 F   0  0  0  0  0  0  0  0  0  0  0  0
   -8.5302    4.0902   -8.8760 C   0  0  0  0  0  0  0  0  0  0  0  0
   -8.5910    2.8827   -9.5672 C   0  0  0  0  0  0  0  0  0  0  0  0
   -8.3684    2.8483  -10.9402 C   0  0  0  0  0  0  0  0  0  0  0  0
   -8.8885    1.7746   -8.6098 C   0  0  0  0  0  0  0  0  0  0  0  0
   -9.0593    2.4770   -7.3568 N   0  0  0  0  0  0  0  0  0  0  0  0
   -8.7773    3.8222   -7.4572 C   0  0  0  0  0  0  0  0  0  0  0  0
   -8.7219    4.6299   -6.5506 O   0  0  0  0  0  0  0  0  0  0  0  0
   -8.6340    4.2316  -15.8932 C   0  0  0  0  0  0  0  0  0  0  0  0
   -8.7051    4.0020  -17.2582 C   0  0  0  0  0  0  0  0  0  0  0  0
   -9.8419    3.5179  -17.7725 F   0  0  0  0  0  0  0  0  0  0  0  0
   -7.6438    4.2920  -18.1169 C   0  0  0  0  0  0  0  0  0  0  0  0
   -6.4802    4.8355  -17.5534 C   0  0  0  0  0  0  0  0  0  0  0  0
   -5.2740    5.2636  -18.0844 N   0  0  0  0  0  0  0  0  0  0  0  0
   -4.9569    5.1164  -19.5313 C   0  0  0  0  0  0  0  0  0  0  0  0
   -3.4850    4.9720  -19.9294 C   0  0  0  0  0  0  0  0  0  0  0  0
   -3.5175    6.2888  -20.5830 N   0  0  0  0  0  0  0  0  0  0  0  0
   -4.9590    6.4240  -20.3216 C   0  0  0  0  0  0  0  0  0  0  0  0
   -3.1001    7.4328  -18.0412 N   0  0  0  0  0  0  0  0  0  0  0  0
   -1.9255    8.1282  -18.1520 N   0  0  0  0  0  0  0  0  0  0  0  0
  1  2  1  0
  2  3  1  0
  3  4  2  0
  4  5  1  0
  5  6  2  0
  6  7  1  0
  7  8  2  0
  8  9  1  0
  9 10  2  0
 10 11  1  0
 11 12  2  0
 11 13  1  0
 13 14  1  0
 14 15  2  0
 15 16  1  0
 16 17  1  0
 16 18  2  0
 18 19  1  0
 19 20  2  0
 19 21  1  0
 21 22  1  0
 22 23  1  0
 23 24  2  0
 10 25  1  0
 25 26  2  0
 26 27  1  0
 26 28  1  0
 28 29  2  0
 29 30  1  0
 30 31  1  0
 31 32  1  0
 32 33  1  0
 33 34  1  0
  6 35  1  0
 35 36  2  0
 36  3  1  0
 30  7  1  0
 34 31  1  0
 29  9  1  0
 20 14  1  0
 23 18  1  0
M  END
>  <smiles>  (2686) 
C40195-P296

>  <fragmenstein_outcome>  (2686) 
acceptable

>  <inchikey>  (2686) 
GJDMFLGXWOIWSW-UHFFFAOYSA-N

>  <fragmenstein_mode>  (2686) 
expansion

>  <HIPPO Pose ID>  (2686) 
29466

>  <Energy>  (2686) 
80.206167

>  <fragmenstein_error>  (2686) 


>  <tags>  (2686) 
{'openbind_xx01zvns2b_c1_fragmenstein', 'fragmenstein_placed'}

>  <ref_pdb>  (2686) 
175

>  <scratch_subdir>  (2686) 
/opt/xchem-fragalysis-2/maxwin/BulkDock/SCRATCH/511028/C40195-P296

>  <alias>  (2686) 
COc1ccc(-c2nc3c(C(=O)Nc4cc(F)c5c(c4)CNC5=O)cc(F)cc3n2C2CNC2)nn1

>  <HIPPO Compound ID>  (2686) 
21527

>  <fragmenstein_runtime>  (2686) 
9.152125

$$$$
COc1ccc(-c2nc3c(C(=O)Nc4cc5c(c6c4OC(C)(C)C6)CNC5)cc(F)cc3n2C2CNC2)nn1
     RDKit          3D

 39 45  0  0  0  0  0  0  0  0999 V2000
   -1.8202   12.3833  -17.9946 C   0  0  0  0  0  0  0  0  0  0  0  0
   -1.6313   11.6637  -16.7804 O   0  0  0  0  0  0  0  0  0  0  0  0
   -2.3964   10.5180  -16.7084 C   0  0  0  0  0  0  0  0  0  0  0  0
   -2.2734    9.7547  -15.5640 C   0  0  0  0  0  0  0  0  0  0  0  0
   -3.0284    8.5914  -15.4640 C   0  0  0  0  0  0  0  0  0  0  0  0
   -3.8568    8.2462  -16.5204 C   0  0  0  0  0  0  0  0  0  0  0  0
   -4.7181    7.0700  -16.4692 C   0  0  0  0  0  0  0  0  0  0  0  0
   -5.2714    6.6155  -15.3587 N   0  0  0  0  0  0  0  0  0  0  0  0
   -6.2679    5.7510  -15.7415 C   0  0  0  0  0  0  0  0  0  0  0  0
   -7.3079    5.1622  -14.9867 C   0  0  0  0  0  0  0  0  0  0  0  0
   -7.5033    5.5579  -13.5677 C   0  0  0  0  0  0  0  0  0  0  0  0
   -7.4444    6.7320  -13.3387 O   0  0  0  0  0  0  0  0  0  0  0  0
   -7.7982    4.4429  -12.7041 N   0  0  0  0  0  0  0  0  0  0  0  0
   -8.0151    4.3828  -11.3174 C   0  0  0  0  0  0  0  0  0  0  0  0
   -8.3665    3.1276  -10.7893 C   0  0  0  0  0  0  0  0  0  0  0  0
   -8.6422    3.0093   -9.4281 C   0  0  0  0  0  0  0  0  0  0  0  0
   -8.5513    4.0960   -8.5653 C   0  0  0  0  0  0  0  0  0  0  0  0
   -8.1757    5.3170   -9.0630 C   0  0  0  0  0  0  0  0  0  0  0  0
   -7.9217    5.4579  -10.4255 C   0  0  0  0  0  0  0  0  0  0  0  0
   -7.5354    6.7340  -10.7409 O   0  0  0  0  0  0  0  0  0  0  0  0
   -7.7149    7.5324   -9.5452 C   0  0  0  0  0  0  0  0  0  0  0  0
   -6.4455    8.3661   -9.3582 C   0  0  0  0  0  0  0  0  0  0  0  0
   -8.9137    8.4599   -9.7706 C   0  0  0  0  0  0  0  0  0  0  0  0
   -7.9422    6.5890   -8.3492 C   0  0  0  0  0  0  0  0  0  0  0  0
   -8.8959    3.6589   -7.1845 C   0  0  0  0  0  0  0  0  0  0  0  0
   -9.5568    2.3452   -7.3490 N   0  0  0  0  0  0  0  0  0  0  0  0
   -9.0439    1.8060   -8.6374 C   0  0  0  0  0  0  0  0  0  0  0  0
   -8.2543    4.3592  -15.6383 C   0  0  0  0  0  0  0  0  0  0  0  0
   -8.1543    4.1487  -17.0077 C   0  0  0  0  0  0  0  0  0  0  0  0
   -9.0927    3.4054  -17.6099 F   0  0  0  0  0  0  0  0  0  0  0  0
   -7.1363    4.7146  -17.7817 C   0  0  0  0  0  0  0  0  0  0  0  0
   -6.2053    5.5283  -17.1200 C   0  0  0  0  0  0  0  0  0  0  0  0
   -5.1373    6.3014  -17.5381 N   0  0  0  0  0  0  0  0  0  0  0  0
   -4.6549    6.4081  -18.9343 C   0  0  0  0  0  0  0  0  0  0  0  0
   -4.4208    5.0406  -19.6069 C   0  0  0  0  0  0  0  0  0  0  0  0
   -3.1934    5.5942  -20.2220 N   0  0  0  0  0  0  0  0  0  0  0  0
   -3.1145    6.5418  -19.0896 C   0  0  0  0  0  0  0  0  0  0  0  0
   -3.9732    9.0308  -17.6172 N   0  0  0  0  0  0  0  0  0  0  0  0
   -3.2261   10.1734  -17.7183 N   0  0  0  0  0  0  0  0  0  0  0  0
  1  2  1  0
  2  3  1  0
  3  4  2  0
  4  5  1  0
  5  6  2  0
  6  7  1  0
  7  8  2  0
  8  9  1  0
  9 10  2  0
 10 11  1  0
 11 12  2  0
 11 13  1  0
 13 14  1  0
 14 15  2  0
 15 16  1  0
 16 17  2  0
 17 18  1  0
 18 19  2  0
 19 20  1  0
 20 21  1  0
 21 22  1  0
 21 23  1  0
 21 24  1  0
 17 25  1  0
 25 26  1  0
 26 27  1  0
 10 28  1  0
 28 29  2  0
 29 30  1  0
 29 31  1  0
 31 32  2  0
 32 33  1  0
 33 34  1  0
 34 35  1  0
 35 36  1  0
 36 37  1  0
  6 38  1  0
 38 39  2  0
 39  3  1  0
 33  7  1  0
 37 34  1  0
 32  9  1  0
 19 14  1  0
 27 16  1  0
 24 18  1  0
M  END
>  <smiles>  (2687) 
C40199-P296

>  <fragmenstein_outcome>  (2687) 
acceptable

>  <inchikey>  (2687) 
DHXBKYNTTOIRNA-UHFFFAOYSA-N

>  <fragmenstein_mode>  (2687) 
expansion

>  <HIPPO Pose ID>  (2687) 
29470

>  <Energy>  (2687) 
123.172389

>  <fragmenstein_error>  (2687) 


>  <tags>  (2687) 
{'openbind_xx01zvns2b_c1_fragmenstein', 'fragmenstein_placed'}

>  <ref_pdb>  (2687) 
175

>  <scratch_subdir>  (2687) 
/opt/xchem-fragalysis-2/maxwin/BulkDock/SCRATCH/511028/C40199-P296

>  <alias>  (2687) 
COc1ccc(-c2nc3c(C(=O)Nc4cc5c(c6c4OC(C)(C)C6)CNC5)cc(F)cc3n2C2CNC2)nn1

>  <HIPPO Compound ID>  (2687) 
40199

>  <fragmenstein_runtime>  (2687) 
16.462578

$$$$
COc1ccc(-c2nc3c(C(=O)Nc4cc(C#N)c5c(c4)CNC5)cc(F)cc3n2C2CNC2)nn1
     RDKit          3D

 36 41  0  0  0  0  0  0  0  0999 V2000
    1.3131    6.3463  -18.8364 C   0  0  0  0  0  0  0  0  0  0  0  0
    0.8052    6.9070  -17.6291 O   0  0  0  0  0  0  0  0  0  0  0  0
   -0.5153    6.5768  -17.4056 C   0  0  0  0  0  0  0  0  0  0  0  0
   -1.1152    7.1097  -16.2827 C   0  0  0  0  0  0  0  0  0  0  0  0
   -2.4547    6.8159  -16.0521 C   0  0  0  0  0  0  0  0  0  0  0  0
   -3.1255    6.0080  -16.9594 C   0  0  0  0  0  0  0  0  0  0  0  0
   -4.5324    5.6792  -16.7888 C   0  0  0  0  0  0  0  0  0  0  0  0
   -5.1374    5.5664  -15.6119 N   0  0  0  0  0  0  0  0  0  0  0  0
   -6.4083    5.0940  -15.8555 C   0  0  0  0  0  0  0  0  0  0  0  0
   -7.4915    4.8078  -15.0007 C   0  0  0  0  0  0  0  0  0  0  0  0
   -7.4606    5.2366  -13.5836 C   0  0  0  0  0  0  0  0  0  0  0  0
   -7.1095    6.3243  -13.3432 O   0  0  0  0  0  0  0  0  0  0  0  0
   -8.0207    4.1344  -12.6522 N   0  0  0  0  0  0  0  0  0  0  0  0
   -8.1708    4.1102  -11.2672 C   0  0  0  0  0  0  0  0  0  0  0  0
   -7.9578    5.2624  -10.4934 C   0  0  0  0  0  0  0  0  0  0  0  0
   -8.1192    5.2277   -9.1010 C   0  0  0  0  0  0  0  0  0  0  0  0
   -7.8861    6.3967   -8.3091 C   0  0  0  0  0  0  0  0  0  0  0  0
   -7.6927    7.3266   -7.6408 N   0  0  0  0  0  0  0  0  0  0  0  0
   -8.4983    4.0325   -8.5109 C   0  0  0  0  0  0  0  0  0  0  0  0
   -8.7055    2.8932   -9.2799 C   0  0  0  0  0  0  0  0  0  0  0  0
   -8.5505    2.9130  -10.6568 C   0  0  0  0  0  0  0  0  0  0  0  0
   -9.0469    1.7472   -8.3890 C   0  0  0  0  0  0  0  0  0  0  0  0
   -9.2810    2.3359   -7.0480 N   0  0  0  0  0  0  0  0  0  0  0  0
   -8.7290    3.7046   -7.0727 C   0  0  0  0  0  0  0  0  0  0  0  0
   -8.6737    4.2766  -15.5457 C   0  0  0  0  0  0  0  0  0  0  0  0
   -8.7804    4.0626  -16.9131 C   0  0  0  0  0  0  0  0  0  0  0  0
   -9.9307    3.6088  -17.4234 F   0  0  0  0  0  0  0  0  0  0  0  0
   -7.7505    4.3822  -17.7865 C   0  0  0  0  0  0  0  0  0  0  0  0
   -6.5839    4.9103  -17.2216 C   0  0  0  0  0  0  0  0  0  0  0  0
   -5.4591    5.4727  -17.7836 N   0  0  0  0  0  0  0  0  0  0  0  0
   -5.5596    6.0354  -19.1342 C   0  0  0  0  0  0  0  0  0  0  0  0
   -4.5789    7.0642  -19.6902 C   0  0  0  0  0  0  0  0  0  0  0  0
   -4.6474    6.3353  -20.9892 N   0  0  0  0  0  0  0  0  0  0  0  0
   -5.0156    5.1167  -20.2079 C   0  0  0  0  0  0  0  0  0  0  0  0
   -2.4958    5.4641  -18.0193 N   0  0  0  0  0  0  0  0  0  0  0  0
   -1.1818    5.7701  -18.2574 N   0  0  0  0  0  0  0  0  0  0  0  0
  1  2  1  0
  2  3  1  0
  3  4  2  0
  4  5  1  0
  5  6  2  0
  6  7  1  0
  7  8  2  0
  8  9  1  0
  9 10  2  0
 10 11  1  0
 11 12  2  0
 11 13  1  0
 13 14  1  0
 14 15  2  0
 15 16  1  0
 16 17  1  0
 17 18  3  0
 16 19  2  0
 19 20  1  0
 20 21  2  0
 20 22  1  0
 22 23  1  0
 23 24  1  0
 10 25  1  0
 25 26  2  0
 26 27  1  0
 26 28  1  0
 28 29  2  0
 29 30  1  0
 30 31  1  0
 31 32  1  0
 32 33  1  0
 33 34  1  0
  6 35  1  0
 35 36  2  0
 36  3  1  0
 30  7  1  0
 34 31  1  0
 29  9  1  0
 21 14  1  0
 24 19  1  0
M  END
>  <smiles>  (2688) 
C40203-P296

>  <fragmenstein_outcome>  (2688) 
acceptable

>  <inchikey>  (2688) 
IONRYGLGSXFSPJ-UHFFFAOYSA-N

>  <fragmenstein_mode>  (2688) 
expansion

>  <HIPPO Pose ID>  (2688) 
29473

>  <Energy>  (2688) 
110.124507

>  <fragmenstein_error>  (2688) 


>  <tags>  (2688) 
{'openbind_xx01zvns2b_c1_fragmenstein', 'fragmenstein_placed'}

>  <ref_pdb>  (2688) 
175

>  <scratch_subdir>  (2688) 
/opt/xchem-fragalysis-2/maxwin/BulkDock/SCRATCH/511028/C40203-P296

>  <alias>  (2688) 
COc1ccc(-c2nc3c(C(=O)Nc4cc(C#N)c5c(c4)CNC5)cc(F)cc3n2C2CNC2)nn1

>  <HIPPO Compound ID>  (2688) 
40203

>  <fragmenstein_runtime>  (2688) 
16.539745

$$$$
CNC[C@H]1NC[C@@H]1n1c(-c2ccc(OC)nn2)nc2c(C(=O)Nc3ccc4c(c3)CNC4)cc(F)cc21
     RDKit          3D

 37 42  0  0  0  0  0  0  0  0999 V2000
   -2.2139    3.7429  -19.2533 C   0  0  0  0  0  0  0  0  0  0  0  0
   -1.6452    5.0635  -19.0547 N   0  0  0  0  0  0  0  0  0  0  0  0
   -2.2816    6.0639  -19.9172 C   0  0  0  0  0  0  0  0  0  0  0  0
   -3.7727    6.3231  -19.6398 C   0  0  1  0  0  0  0  0  0  0  0  0
   -4.5455    6.2543  -20.9178 N   0  0  0  0  0  0  0  0  0  0  0  0
   -5.6856    5.7595  -20.1427 C   0  0  0  0  0  0  0  0  0  0  0  0
   -4.7639    5.2749  -19.0468 C   0  0  2  0  0  0  0  0  0  0  0  0
   -5.3079    5.4718  -17.6866 N   0  0  0  0  0  0  0  0  0  0  0  0
   -4.6202    5.8662  -16.5539 C   0  0  0  0  0  0  0  0  0  0  0  0
   -3.2515    6.3480  -16.4485 C   0  0  0  0  0  0  0  0  0  0  0  0
   -2.3525    5.7732  -15.5637 C   0  0  0  0  0  0  0  0  0  0  0  0
   -1.0937    6.3472  -15.4216 C   0  0  0  0  0  0  0  0  0  0  0  0
   -0.8107    7.4856  -16.1489 C   0  0  0  0  0  0  0  0  0  0  0  0
    0.4475    8.0312  -15.9925 O   0  0  0  0  0  0  0  0  0  0  0  0
    0.6471    9.1950  -16.7879 C   0  0  0  0  0  0  0  0  0  0  0  0
   -1.7190    8.0611  -16.9659 N   0  0  0  0  0  0  0  0  0  0  0  0
   -2.9591    7.4920  -17.1006 N   0  0  0  0  0  0  0  0  0  0  0  0
   -5.3908    5.7304  -15.4896 N   0  0  0  0  0  0  0  0  0  0  0  0
   -6.5778    5.2098  -15.9143 C   0  0  0  0  0  0  0  0  0  0  0  0
   -7.7324    4.8856  -15.1811 C   0  0  0  0  0  0  0  0  0  0  0  0
   -7.8452    5.3338  -13.7802 C   0  0  0  0  0  0  0  0  0  0  0  0
   -7.7797    6.4789  -13.5632 O   0  0  0  0  0  0  0  0  0  0  0  0
   -8.1054    4.1473  -12.8262 N   0  0  0  0  0  0  0  0  0  0  0  0
   -8.2402    4.1135  -11.4409 C   0  0  0  0  0  0  0  0  0  0  0  0
   -8.0861    5.2792  -10.6714 C   0  0  0  0  0  0  0  0  0  0  0  0
   -8.2386    5.2479   -9.2819 C   0  0  0  0  0  0  0  0  0  0  0  0
   -8.5637    4.0427   -8.6904 C   0  0  0  0  0  0  0  0  0  0  0  0
   -8.7062    2.8846   -9.4492 C   0  0  0  0  0  0  0  0  0  0  0  0
   -8.5360    2.8969  -10.8231 C   0  0  0  0  0  0  0  0  0  0  0  0
   -9.0302    1.7469   -8.5387 C   0  0  0  0  0  0  0  0  0  0  0  0
   -9.4588    2.3847   -7.2652 N   0  0  0  0  0  0  0  0  0  0  0  0
   -8.8109    3.7152   -7.2562 C   0  0  0  0  0  0  0  0  0  0  0  0
   -8.8067    4.2679  -15.8225 C   0  0  0  0  0  0  0  0  0  0  0  0
   -8.7387    4.0220  -17.1853 C   0  0  0  0  0  0  0  0  0  0  0  0
   -9.7944    3.4674  -17.7925 F   0  0  0  0  0  0  0  0  0  0  0  0
   -7.6204    4.3647  -17.9502 C   0  0  0  0  0  0  0  0  0  0  0  0
   -6.5435    4.9767  -17.2875 C   0  0  0  0  0  0  0  0  0  0  0  0
  1  2  1  0
  2  3  1  0
  4  3  1  6
  4  5  1  0
  5  6  1  0
  6  7  1  0
  7  8  1  1
  8  9  1  0
  9 10  1  0
 10 11  2  0
 11 12  1  0
 12 13  2  0
 13 14  1  0
 14 15  1  0
 13 16  1  0
 16 17  2  0
  9 18  2  0
 18 19  1  0
 19 20  2  0
 20 21  1  0
 21 22  2  0
 21 23  1  0
 23 24  1  0
 24 25  2  0
 25 26  1  0
 26 27  2  0
 27 28  1  0
 28 29  2  0
 28 30  1  0
 30 31  1  0
 31 32  1  0
 20 33  1  0
 33 34  2  0
 34 35  1  0
 34 36  1  0
 36 37  2  0
  7  4  1  0
 37  8  1  0
 17 10  1  0
 37 19  1  0
 29 24  1  0
 32 27  1  0
M  END
>  <smiles>  (2689) 
C40216-P296

>  <fragmenstein_outcome>  (2689) 
acceptable

>  <inchikey>  (2689) 
HPOADKZDWPBEET-UHFFFAOYSA-N

>  <fragmenstein_mode>  (2689) 
expansion

>  <HIPPO Pose ID>  (2689) 
29485

>  <Energy>  (2689) 
137.138844

>  <fragmenstein_error>  (2689) 


>  <tags>  (2689) 
{'openbind_xx01zvns2b_c1_fragmenstein', 'fragmenstein_placed'}

>  <ref_pdb>  (2689) 
175

>  <scratch_subdir>  (2689) 
/opt/xchem-fragalysis-2/maxwin/BulkDock/SCRATCH/511028/C40216-P296

>  <alias>  (2689) 
CNC[C@H]1NC[C@@H]1n1c(-c2ccc(OC)nn2)nc2c(C(=O)Nc3ccc4c(c3)CNC4)cc(F)cc21

>  <HIPPO Compound ID>  (2689) 
41518

>  <fragmenstein_runtime>  (2689) 
6.056319

$$$$
O=C(C(=O)c1cc(F)cc2c1cnn2C1CNC1)c1ccc2cccnc2n1
     RDKit          3D

 28 32  0  0  0  0  0  0  0  0999 V2000
   -9.6427    5.5540  -13.4357 O   0  0  0  0  0  0  0  0  0  0  0  0
   -8.6218    5.0826  -12.9425 C   0  0  0  0  0  0  0  0  0  0  0  0
   -7.3968    5.0218  -13.7994 C   0  0  0  0  0  0  0  0  0  0  0  0
   -6.3412    5.3792  -13.2868 O   0  0  0  0  0  0  0  0  0  0  0  0
   -7.5069    4.7272  -15.2494 C   0  0  0  0  0  0  0  0  0  0  0  0
   -8.6762    4.2109  -15.8352 C   0  0  0  0  0  0  0  0  0  0  0  0
   -8.7675    4.0471  -17.2112 C   0  0  0  0  0  0  0  0  0  0  0  0
   -9.9130    3.6045  -17.7490 F   0  0  0  0  0  0  0  0  0  0  0  0
   -7.7046    4.3502  -18.0541 C   0  0  0  0  0  0  0  0  0  0  0  0
   -6.5329    4.8458  -17.4666 C   0  0  0  0  0  0  0  0  0  0  0  0
   -6.4163    5.0404  -16.0906 C   0  0  0  0  0  0  0  0  0  0  0  0
   -5.1114    5.5599  -15.9245 C   0  0  0  0  0  0  0  0  0  0  0  0
   -4.4516    5.6909  -17.0751 N   0  0  0  0  0  0  0  0  0  0  0  0
   -5.3139    5.2144  -17.9925 N   0  0  0  0  0  0  0  0  0  0  0  0
   -4.9736    5.0578  -19.4102 C   0  0  0  0  0  0  0  0  0  0  0  0
   -3.4669    5.0910  -19.7458 C   0  0  0  0  0  0  0  0  0  0  0  0
   -3.8395    5.8485  -20.9860 N   0  0  0  0  0  0  0  0  0  0  0  0
   -5.0053    6.3650  -20.2073 C   0  0  0  0  0  0  0  0  0  0  0  0
   -8.4741    4.8313  -11.4964 C   0  0  0  0  0  0  0  0  0  0  0  0
   -8.1658    5.9140  -10.6881 C   0  0  0  0  0  0  0  0  0  0  0  0
   -8.1664    5.7112   -9.3196 C   0  0  0  0  0  0  0  0  0  0  0  0
   -8.5036    4.4495   -8.8175 C   0  0  0  0  0  0  0  0  0  0  0  0
   -8.5772    4.2210   -7.4353 C   0  0  0  0  0  0  0  0  0  0  0  0
   -8.9424    2.9680   -6.9763 C   0  0  0  0  0  0  0  0  0  0  0  0
   -9.2048    1.9989   -7.9228 C   0  0  0  0  0  0  0  0  0  0  0  0
   -9.1530    2.2047   -9.2593 N   0  0  0  0  0  0  0  0  0  0  0  0
   -8.8027    3.4013   -9.7200 C   0  0  0  0  0  0  0  0  0  0  0  0
   -8.7674    3.5942  -11.0451 N   0  0  0  0  0  0  0  0  0  0  0  0
  1  2  2  0
  2  3  1  0
  3  4  2  0
  3  5  1  0
  5  6  2  0
  6  7  1  0
  7  8  1  0
  7  9  2  0
  9 10  1  0
 10 11  2  0
 11 12  1  0
 12 13  2  0
 13 14  1  0
 14 15  1  0
 15 16  1  0
 16 17  1  0
 17 18  1  0
  2 19  1  0
 19 20  2  0
 20 21  1  0
 21 22  2  0
 22 23  1  0
 23 24  2  0
 24 25  1  0
 25 26  2  0
 26 27  1  0
 27 28  2  0
 11  5  1  0
 18 15  1  0
 28 19  1  0
 14 10  1  0
 27 22  1  0
M  END
>  <smiles>  (2690) 
C40303-P296

>  <fragmenstein_outcome>  (2690) 
acceptable

>  <inchikey>  (2690) 
RAMMNONVWLYRAI-UHFFFAOYSA-N

>  <fragmenstein_mode>  (2690) 
expansion

>  <HIPPO Pose ID>  (2690) 
29523

>  <Energy>  (2690) 
122.079715

>  <fragmenstein_error>  (2690) 


>  <tags>  (2690) 
{'openbind_xx01zvns2b_c1_fragmenstein', 'fragmenstein_placed'}

>  <ref_pdb>  (2690) 
175

>  <scratch_subdir>  (2690) 
/opt/xchem-fragalysis-2/maxwin/BulkDock/SCRATCH/511028/C40303-P296

>  <alias>  (2690) 
O=C(C(=O)c1cc(F)cc2c1cnn2C1CNC1)c1ccc2cccnc2n1

>  <HIPPO Compound ID>  (2690) 
41648

>  <fragmenstein_runtime>  (2690) 
3.505295

$$$$
CNc1cc(C(=O)Nc2ccc3c(c2)CNC3)cc2c(CN)c[nH]c12
     RDKit          3D

 25 28  0  0  0  0  0  0  0  0999 V2000
  -10.6310    4.4324  -18.2628 C   0  0  0  0  0  0  0  0  0  0  0  0
   -9.3978    3.6704  -18.1074 N   0  0  0  0  0  0  0  0  0  0  0  0
   -8.4797    4.2473  -17.2238 C   0  0  0  0  0  0  0  0  0  0  0  0
   -8.7445    4.4132  -15.8544 C   0  0  0  0  0  0  0  0  0  0  0  0
   -7.8202    5.0344  -15.0189 C   0  0  0  0  0  0  0  0  0  0  0  0
   -8.1418    5.4233  -13.6334 C   0  0  0  0  0  0  0  0  0  0  0  0
   -8.2092    6.5607  -13.3828 O   0  0  0  0  0  0  0  0  0  0  0  0
   -8.2388    4.1908  -12.7149 N   0  0  0  0  0  0  0  0  0  0  0  0
   -8.3407    4.1014  -11.3302 C   0  0  0  0  0  0  0  0  0  0  0  0
   -8.2130    5.2512  -10.5334 C   0  0  0  0  0  0  0  0  0  0  0  0
   -8.3209    5.1749   -9.1427 C   0  0  0  0  0  0  0  0  0  0  0  0
   -8.5793    3.9431   -8.5722 C   0  0  0  0  0  0  0  0  0  0  0  0
   -8.6971    2.8060   -9.3582 C   0  0  0  0  0  0  0  0  0  0  0  0
   -8.5625    2.8593  -10.7376 C   0  0  0  0  0  0  0  0  0  0  0  0
   -8.9565    1.6299   -8.4797 C   0  0  0  0  0  0  0  0  0  0  0  0
   -9.2020    2.1750   -7.1185 N   0  0  0  0  0  0  0  0  0  0  0  0
   -8.7734    3.5878   -7.1397 C   0  0  0  0  0  0  0  0  0  0  0  0
   -6.5643    5.4174  -15.4823 C   0  0  0  0  0  0  0  0  0  0  0  0
   -6.2511    5.2148  -16.8327 C   0  0  0  0  0  0  0  0  0  0  0  0
   -5.0590    5.4074  -17.5961 C   0  0  0  0  0  0  0  0  0  0  0  0
   -3.7312    5.8062  -17.0619 C   0  0  0  0  0  0  0  0  0  0  0  0
   -3.4918    5.1283  -15.7926 N   0  0  0  0  0  0  0  0  0  0  0  0
   -5.3939    5.1453  -18.9100 C   0  0  0  0  0  0  0  0  0  0  0  0
   -6.7041    4.7362  -18.9446 N   0  0  0  0  0  0  0  0  0  0  0  0
   -7.2270    4.6910  -17.6731 C   0  0  0  0  0  0  0  0  0  0  0  0
  1  2  1  0
  2  3  1  0
  3  4  2  0
  4  5  1  0
  5  6  1  0
  6  7  2  0
  6  8  1  0
  8  9  1  0
  9 10  2  0
 10 11  1  0
 11 12  2  0
 12 13  1  0
 13 14  2  0
 13 15  1  0
 15 16  1  0
 16 17  1  0
  5 18  2  0
 18 19  1  0
 19 20  1  0
 20 21  1  0
 21 22  1  0
 20 23  2  0
 23 24  1  0
 24 25  1  0
 25  3  1  0
 14  9  1  0
 25 19  2  0
 17 12  1  0
M  END
>  <smiles>  (2691) 
C40426-P297

>  <fragmenstein_outcome>  (2691) 
acceptable

>  <inchikey>  (2691) 
WUMDQAKJIBJBNS-UHFFFAOYSA-N

>  <fragmenstein_mode>  (2691) 
expansion

>  <HIPPO Pose ID>  (2691) 
29607

>  <Energy>  (2691) 
38.463255

>  <fragmenstein_error>  (2691) 


>  <tags>  (2691) 
{'openbind_xx01zvns2b_c1_fragmenstein', 'fragmenstein_placed'}

>  <ref_pdb>  (2691) 
175

>  <scratch_subdir>  (2691) 
/opt/xchem-fragalysis-2/maxwin/BulkDock/SCRATCH/511028/C40426-P297

>  <alias>  (2691) 
CNc1cc(C(=O)Nc2ccc3c(c2)CNC3)cc2c(CN)c[nH]c12

>  <HIPPO Compound ID>  (2691) 
40426

>  <fragmenstein_runtime>  (2691) 
6.831757

$$$$
NCc1c[nH]c2c(Cl)cc([C@](O)(F)Nc3ccc4c(c3)CNC4)cc12
     RDKit          3D

 25 28  0  0  0  0  0  0  0  0999 V2000
   -3.2872    5.0978  -16.2137 N   0  0  0  0  0  0  0  0  0  0  0  0
   -3.7202    5.6460  -17.4894 C   0  0  0  0  0  0  0  0  0  0  0  0
   -5.1250    5.2825  -17.8265 C   0  0  0  0  0  0  0  0  0  0  0  0
   -5.6405    5.1953  -19.1025 C   0  0  0  0  0  0  0  0  0  0  0  0
   -6.9582    4.8256  -19.0214 N   0  0  0  0  0  0  0  0  0  0  0  0
   -7.3387    4.6769  -17.7158 C   0  0  0  0  0  0  0  0  0  0  0  0
   -8.5622    4.3159  -17.1384 C   0  0  0  0  0  0  0  0  0  0  0  0
   -9.9413    3.9820  -18.1065 Cl  0  0  0  0  0  0  0  0  0  0  0  0
   -8.6389    4.2427  -15.7391 C   0  0  0  0  0  0  0  0  0  0  0  0
   -7.5266    4.5190  -14.9373 C   0  0  0  0  0  0  0  0  0  0  0  0
   -7.4338    4.3704  -13.4367 C   0  0  2  0  0  0  0  0  0  0  0  0
   -6.7565    5.5082  -12.9367 O   0  0  0  0  0  0  0  0  0  0  0  0
   -6.6425    3.3267  -13.0860 F   0  0  0  0  0  0  0  0  0  0  0  0
   -8.7088    4.2102  -12.7836 N   0  0  0  0  0  0  0  0  0  0  0  0
   -8.6167    4.1240  -11.3683 C   0  0  0  0  0  0  0  0  0  0  0  0
   -8.3946    5.2860  -10.5939 C   0  0  0  0  0  0  0  0  0  0  0  0
   -8.3634    5.2418   -9.1976 C   0  0  0  0  0  0  0  0  0  0  0  0
   -8.5920    4.0255   -8.5870 C   0  0  0  0  0  0  0  0  0  0  0  0
   -8.7780    2.8679   -9.3370 C   0  0  0  0  0  0  0  0  0  0  0  0
   -8.7688    2.8921  -10.7211 C   0  0  0  0  0  0  0  0  0  0  0  0
   -8.9967    1.7193   -8.4102 C   0  0  0  0  0  0  0  0  0  0  0  0
   -9.3423    2.3446   -7.1059 N   0  0  0  0  0  0  0  0  0  0  0  0
   -8.7299    3.6920   -7.1396 C   0  0  0  0  0  0  0  0  0  0  0  0
   -6.3342    4.8992  -15.5672 C   0  0  0  0  0  0  0  0  0  0  0  0
   -6.2140    4.9752  -16.9556 C   0  0  0  0  0  0  0  0  0  0  0  0
  1  2  1  0
  2  3  1  0
  3  4  2  0
  4  5  1  0
  5  6  1  0
  6  7  2  0
  7  8  1  0
  7  9  1  0
  9 10  2  0
 10 11  1  0
 11 12  1  1
 11 13  1  0
 11 14  1  0
 14 15  1  0
 15 16  2  0
 16 17  1  0
 17 18  2  0
 18 19  1  0
 19 20  2  0
 19 21  1  0
 21 22  1  0
 22 23  1  0
 10 24  1  0
 24 25  2  0
 25  3  1  0
 25  6  1  0
 20 15  1  0
 23 18  1  0
M  END
>  <smiles>  (2692) 
C40444-P297

>  <fragmenstein_outcome>  (2692) 
acceptable

>  <inchikey>  (2692) 
LWEUMGLYZPVJJH-UHFFFAOYSA-N

>  <fragmenstein_mode>  (2692) 
expansion

>  <HIPPO Pose ID>  (2692) 
29611

>  <Energy>  (2692) 
-27.27

>  <fragmenstein_error>  (2692) 


>  <tags>  (2692) 
{'openbind_xx01zvns2b_c1_fragmenstein', 'fragmenstein_placed'}

>  <ref_pdb>  (2692) 
175

>  <scratch_subdir>  (2692) 
/opt/xchem-fragalysis-2/maxwin/BulkDock/SCRATCH/511028/C40444-P297

>  <alias>  (2692) 
NCc1c[nH]c2c(Cl)cc([C@](O)(F)Nc3ccc4c(c3)CNC4)cc12

>  <HIPPO Compound ID>  (2692) 
40444

>  <fragmenstein_runtime>  (2692) 
2.586946

$$$$
CCc1cc(C(=O)Nc2ccc3c(c2)CNC3)cc2c(CN)c[nH]c12
     RDKit          3D

 25 28  0  0  0  0  0  0  0  0999 V2000
   -9.6297    2.9176  -18.2812 C   0  0  0  0  0  0  0  0  0  0  0  0
   -9.6697    4.3564  -17.8663 C   0  0  0  0  0  0  0  0  0  0  0  0
   -8.4798    4.6174  -16.9897 C   0  0  0  0  0  0  0  0  0  0  0  0
   -8.6464    4.7071  -15.5962 C   0  0  0  0  0  0  0  0  0  0  0  0
   -7.5714    4.9856  -14.7679 C   0  0  0  0  0  0  0  0  0  0  0  0
   -7.7731    5.3928  -13.3682 C   0  0  0  0  0  0  0  0  0  0  0  0
   -7.6043    6.5139  -13.0943 O   0  0  0  0  0  0  0  0  0  0  0  0
   -8.1510    4.1946  -12.4801 N   0  0  0  0  0  0  0  0  0  0  0  0
   -8.3035    4.1050  -11.1011 C   0  0  0  0  0  0  0  0  0  0  0  0
   -8.1169    5.2370  -10.2884 C   0  0  0  0  0  0  0  0  0  0  0  0
   -8.2632    5.1576   -8.9022 C   0  0  0  0  0  0  0  0  0  0  0  0
   -8.6003    3.9355   -8.3545 C   0  0  0  0  0  0  0  0  0  0  0  0
   -8.7738    2.8129   -9.1562 C   0  0  0  0  0  0  0  0  0  0  0  0
   -8.6285    2.8748  -10.5323 C   0  0  0  0  0  0  0  0  0  0  0  0
   -9.0681    1.6352   -8.2930 C   0  0  0  0  0  0  0  0  0  0  0  0
   -9.3297    2.1792   -6.9370 N   0  0  0  0  0  0  0  0  0  0  0  0
   -8.8215    3.5663   -6.9282 C   0  0  0  0  0  0  0  0  0  0  0  0
   -6.2789    5.0734  -15.2688 C   0  0  0  0  0  0  0  0  0  0  0  0
   -6.0846    5.0015  -16.6571 C   0  0  0  0  0  0  0  0  0  0  0  0
   -4.9259    5.1096  -17.4784 C   0  0  0  0  0  0  0  0  0  0  0  0
   -3.5385    5.2249  -16.9749 C   0  0  0  0  0  0  0  0  0  0  0  0
   -3.3919    6.4890  -16.2737 N   0  0  0  0  0  0  0  0  0  0  0  0
   -5.3593    5.0724  -18.7881 C   0  0  0  0  0  0  0  0  0  0  0  0
   -6.7188    4.8746  -18.7858 N   0  0  0  0  0  0  0  0  0  0  0  0
   -7.1820    4.8111  -17.4890 C   0  0  0  0  0  0  0  0  0  0  0  0
  1  2  1  0
  2  3  1  0
  3  4  2  0
  4  5  1  0
  5  6  1  0
  6  7  2  0
  6  8  1  0
  8  9  1  0
  9 10  2  0
 10 11  1  0
 11 12  2  0
 12 13  1  0
 13 14  2  0
 13 15  1  0
 15 16  1  0
 16 17  1  0
  5 18  2  0
 18 19  1  0
 19 20  1  0
 20 21  1  0
 21 22  1  0
 20 23  2  0
 23 24  1  0
 24 25  1  0
 25  3  1  0
 14  9  1  0
 25 19  2  0
 17 12  1  0
M  END
>  <smiles>  (2693) 
C40445-P297

>  <fragmenstein_outcome>  (2693) 
acceptable

>  <inchikey>  (2693) 
QKNYSDDKZKWPRW-UHFFFAOYSA-N

>  <fragmenstein_mode>  (2693) 
expansion

>  <HIPPO Pose ID>  (2693) 
29612

>  <Energy>  (2693) 
47.218124

>  <fragmenstein_error>  (2693) 


>  <tags>  (2693) 
{'openbind_xx01zvns2b_c1_fragmenstein', 'fragmenstein_placed'}

>  <ref_pdb>  (2693) 
175

>  <scratch_subdir>  (2693) 
/opt/xchem-fragalysis-2/maxwin/BulkDock/SCRATCH/511028/C40445-P297

>  <alias>  (2693) 
CCc1cc(C(=O)Nc2ccc3c(c2)CNC3)cc2c(CN)c[nH]c12

>  <HIPPO Compound ID>  (2693) 
40445

>  <fragmenstein_runtime>  (2693) 
4.144176

$$$$
NC[C@H]1c2cc(C(=O)Nc3ccc4c(c3)CN(N)C4)cc(Cl)c2N[C@@]1(O)OCc1ccccc1
     RDKit          3D

 34 38  0  0  0  0  0  0  0  0999 V2000
   -3.2706    5.5405  -15.3402 N   0  0  0  0  0  0  0  0  0  0  0  0
   -3.7418    6.0658  -16.6296 C   0  0  0  0  0  0  0  0  0  0  0  0
   -4.7042    5.1383  -17.3569 C   0  0  1  0  0  0  0  0  0  0  0  0
   -6.0541    4.9560  -16.7210 C   0  0  0  0  0  0  0  0  0  0  0  0
   -6.4045    4.9124  -15.3838 C   0  0  0  0  0  0  0  0  0  0  0  0
   -7.7469    4.7437  -15.0553 C   0  0  0  0  0  0  0  0  0  0  0  0
   -8.1315    5.1696  -13.6986 C   0  0  0  0  0  0  0  0  0  0  0  0
   -8.3163    6.3076  -13.5259 O   0  0  0  0  0  0  0  0  0  0  0  0
   -8.1220    3.9995  -12.7033 N   0  0  0  0  0  0  0  0  0  0  0  0
   -8.2398    3.9910  -11.3172 C   0  0  0  0  0  0  0  0  0  0  0  0
   -8.1115    5.1887  -10.5875 C   0  0  0  0  0  0  0  0  0  0  0  0
   -8.2573    5.2077   -9.1980 C   0  0  0  0  0  0  0  0  0  0  0  0
   -8.5850    4.0227   -8.5721 C   0  0  0  0  0  0  0  0  0  0  0  0
   -8.7170    2.8323   -9.2972 C   0  0  0  0  0  0  0  0  0  0  0  0
   -8.5053    2.7893  -10.6639 C   0  0  0  0  0  0  0  0  0  0  0  0
   -9.1709    1.7482   -8.3636 C   0  0  0  0  0  0  0  0  0  0  0  0
   -9.7463    2.5226   -7.2320 N   0  0  0  0  0  0  0  0  0  0  0  0
   -9.8500    1.7791   -6.0213 N   0  0  0  0  0  0  0  0  0  0  0  0
   -8.9294    3.7529   -7.1390 C   0  0  0  0  0  0  0  0  0  0  0  0
   -8.6995    4.4609  -16.0319 C   0  0  0  0  0  0  0  0  0  0  0  0
   -8.3257    4.4942  -17.3803 C   0  0  0  0  0  0  0  0  0  0  0  0
   -9.5363    4.1882  -18.5598 Cl  0  0  0  0  0  0  0  0  0  0  0  0
   -7.0170    4.8397  -17.7221 C   0  0  0  0  0  0  0  0  0  0  0  0
   -6.5211    5.3230  -18.9404 N   0  0  0  0  0  0  0  0  0  0  0  0
   -5.0953    5.5316  -18.8197 C   0  0  2  0  0  0  0  0  0  0  0  0
   -4.4592    4.6658  -19.7252 O   0  0  0  0  0  0  0  0  0  0  0  0
   -4.6431    6.8195  -19.1954 O   0  0  0  0  0  0  0  0  0  0  0  0
   -5.4837    7.8946  -18.8449 C   0  0  0  0  0  0  0  0  0  0  0  0
   -4.7535    9.2078  -19.0241 C   0  0  0  0  0  0  0  0  0  0  0  0
   -5.4086   10.3246  -19.5649 C   0  0  0  0  0  0  0  0  0  0  0  0
   -4.7484   11.5496  -19.6899 C   0  0  0  0  0  0  0  0  0  0  0  0
   -3.4270   11.6771  -19.2699 C   0  0  0  0  0  0  0  0  0  0  0  0
   -2.7644   10.5802  -18.7263 C   0  0  0  0  0  0  0  0  0  0  0  0
   -3.4239    9.3558  -18.6017 C   0  0  0  0  0  0  0  0  0  0  0  0
  1  2  1  0
  3  2  1  1
  3  4  1  0
  4  5  2  0
  5  6  1  0
  6  7  1  0
  7  8  2  0
  7  9  1  0
  9 10  1  0
 10 11  2  0
 11 12  1  0
 12 13  2  0
 13 14  1  0
 14 15  2  0
 14 16  1  0
 16 17  1  0
 17 18  1  0
 17 19  1  0
  6 20  2  0
 20 21  1  0
 21 22  1  0
 21 23  2  0
 23 24  1  0
 24 25  1  0
 25 26  1  6
 25 27  1  0
 27 28  1  0
 28 29  1  0
 29 30  2  0
 30 31  1  0
 31 32  2  0
 32 33  1  0
 33 34  2  0
 25  3  1  0
 34 29  1  0
 23  4  1  0
 15 10  1  0
 19 13  1  0
M  END
>  <smiles>  (2694) 
C40484-P297

>  <fragmenstein_outcome>  (2694) 
acceptable

>  <inchikey>  (2694) 
CTWFDIHOJVRQBL-UHFFFAOYSA-N

>  <fragmenstein_mode>  (2694) 
expansion

>  <HIPPO Pose ID>  (2694) 
29628

>  <Energy>  (2694) 
120.129373

>  <fragmenstein_error>  (2694) 


>  <tags>  (2694) 
{'openbind_xx01zvns2b_c1_fragmenstein', 'fragmenstein_placed'}

>  <ref_pdb>  (2694) 
175

>  <scratch_subdir>  (2694) 
/opt/xchem-fragalysis-2/maxwin/BulkDock/SCRATCH/511028/C40484-P297

>  <alias>  (2694) 
NC[C@H]1c2cc(C(=O)Nc3ccc4c(c3)CN(N)C4)cc(Cl)c2N[C@@]1(O)OCc1ccccc1

>  <HIPPO Compound ID>  (2694) 
40484

>  <fragmenstein_runtime>  (2694) 
6.812497

$$$$
C[C@@H](N)c1c[nH]c2c(Cl)cc(C(=O)Nc3ccc4c(c3)CNC4)cc12
     RDKit          3D

 25 28  0  0  0  0  0  0  0  0999 V2000
   -3.4586    5.3508  -15.9630 C   0  0  0  0  0  0  0  0  0  0  0  0
   -3.8565    5.5413  -17.4236 C   0  0  1  0  0  0  0  0  0  0  0  0
   -2.9330    4.7540  -18.2496 N   0  0  0  0  0  0  0  0  0  0  0  0
   -5.2686    5.1562  -17.7811 C   0  0  0  0  0  0  0  0  0  0  0  0
   -5.7753    4.9692  -19.0565 C   0  0  0  0  0  0  0  0  0  0  0  0
   -7.0880    4.5959  -18.9679 N   0  0  0  0  0  0  0  0  0  0  0  0
   -7.4831    4.5687  -17.6570 C   0  0  0  0  0  0  0  0  0  0  0  0
   -8.7225    4.2611  -17.0874 C   0  0  0  0  0  0  0  0  0  0  0  0
  -10.0553    3.8460  -18.0778 Cl  0  0  0  0  0  0  0  0  0  0  0  0
   -8.8742    4.3979  -15.7083 C   0  0  0  0  0  0  0  0  0  0  0  0
   -7.8283    4.9036  -14.9552 C   0  0  0  0  0  0  0  0  0  0  0  0
   -7.9766    5.3351  -13.5541 C   0  0  0  0  0  0  0  0  0  0  0  0
   -7.8734    6.4731  -13.3207 O   0  0  0  0  0  0  0  0  0  0  0  0
   -8.1514    4.1351  -12.6086 N   0  0  0  0  0  0  0  0  0  0  0  0
   -8.3253    4.0892  -11.2305 C   0  0  0  0  0  0  0  0  0  0  0  0
   -8.2180    5.2589  -10.4583 C   0  0  0  0  0  0  0  0  0  0  0  0
   -8.3457    5.2144   -9.0687 C   0  0  0  0  0  0  0  0  0  0  0  0
   -8.6069    3.9925   -8.4796 C   0  0  0  0  0  0  0  0  0  0  0  0
   -8.7214    2.8369   -9.2434 C   0  0  0  0  0  0  0  0  0  0  0  0
   -8.5660    2.8605  -10.6192 C   0  0  0  0  0  0  0  0  0  0  0  0
   -8.9853    1.6761   -8.3480 C   0  0  0  0  0  0  0  0  0  0  0  0
   -9.2519    2.2505   -7.0032 N   0  0  0  0  0  0  0  0  0  0  0  0
   -8.7963    3.6554   -7.0414 C   0  0  0  0  0  0  0  0  0  0  0  0
   -6.5857    5.1726  -15.5264 C   0  0  0  0  0  0  0  0  0  0  0  0
   -6.3874    4.9822  -16.9011 C   0  0  0  0  0  0  0  0  0  0  0  0
  2  1  1  1
  2  3  1  0
  2  4  1  0
  4  5  2  0
  5  6  1  0
  6  7  1  0
  7  8  2  0
  8  9  1  0
  8 10  1  0
 10 11  2  0
 11 12  1  0
 12 13  2  0
 12 14  1  0
 14 15  1  0
 15 16  2  0
 16 17  1  0
 17 18  2  0
 18 19  1  0
 19 20  2  0
 19 21  1  0
 21 22  1  0
 22 23  1  0
 11 24  1  0
 24 25  2  0
 25  4  1  0
 25  7  1  0
 20 15  1  0
 23 18  1  0
M  END
>  <smiles>  (2695) 
C40490-P297

>  <fragmenstein_outcome>  (2695) 
acceptable

>  <inchikey>  (2695) 
UBKVXHPYFGUNBU-UHFFFAOYSA-N

>  <fragmenstein_mode>  (2695) 
expansion

>  <HIPPO Pose ID>  (2695) 
29630

>  <Energy>  (2695) 
38.146655

>  <fragmenstein_error>  (2695) 


>  <tags>  (2695) 
{'openbind_xx01zvns2b_c1_fragmenstein', 'fragmenstein_placed'}

>  <ref_pdb>  (2695) 
175

>  <scratch_subdir>  (2695) 
/opt/xchem-fragalysis-2/maxwin/BulkDock/SCRATCH/511028/C40490-P297

>  <alias>  (2695) 
C[C@@H](N)c1c[nH]c2c(Cl)cc(C(=O)Nc3ccc4c(c3)CNC4)cc12

>  <HIPPO Compound ID>  (2695) 
34261

>  <fragmenstein_runtime>  (2695) 
6.400919

$$$$
NCc1c[nH]c2c(Cl)cc(C(=O)Nc3ccc4c(c3)CNC4)c(NN)c12
     RDKit          3D

 26 29  0  0  0  0  0  0  0  0999 V2000
   -3.7139    6.7655  -17.2403 N   0  0  0  0  0  0  0  0  0  0  0  0
   -3.8431    5.3796  -17.6633 C   0  0  0  0  0  0  0  0  0  0  0  0
   -5.2791    5.0681  -17.8877 C   0  0  0  0  0  0  0  0  0  0  0  0
   -5.8760    4.9205  -19.1215 C   0  0  0  0  0  0  0  0  0  0  0  0
   -7.1854    4.6057  -18.9433 N   0  0  0  0  0  0  0  0  0  0  0  0
   -7.4820    4.5716  -17.6073 C   0  0  0  0  0  0  0  0  0  0  0  0
   -8.7030    4.3174  -16.9938 C   0  0  0  0  0  0  0  0  0  0  0  0
  -10.0970    3.9706  -17.9290 Cl  0  0  0  0  0  0  0  0  0  0  0  0
   -8.7731    4.4689  -15.6204 C   0  0  0  0  0  0  0  0  0  0  0  0
   -7.6421    4.8485  -14.8976 C   0  0  0  0  0  0  0  0  0  0  0  0
   -7.8773    5.3140  -13.5124 C   0  0  0  0  0  0  0  0  0  0  0  0
   -7.9214    6.4617  -13.3009 O   0  0  0  0  0  0  0  0  0  0  0  0
   -8.0661    4.1135  -12.5614 N   0  0  0  0  0  0  0  0  0  0  0  0
   -8.2477    4.0726  -11.1853 C   0  0  0  0  0  0  0  0  0  0  0  0
   -8.1439    5.2393  -10.4095 C   0  0  0  0  0  0  0  0  0  0  0  0
   -8.3194    5.1955   -9.0240 C   0  0  0  0  0  0  0  0  0  0  0  0
   -8.6276    3.9785   -8.4481 C   0  0  0  0  0  0  0  0  0  0  0  0
   -8.7272    2.8224   -9.2176 C   0  0  0  0  0  0  0  0  0  0  0  0
   -8.5209    2.8445  -10.5845 C   0  0  0  0  0  0  0  0  0  0  0  0
   -9.0537    1.6729   -8.3265 C   0  0  0  0  0  0  0  0  0  0  0  0
   -9.5284    2.2922   -7.0612 N   0  0  0  0  0  0  0  0  0  0  0  0
   -8.9009    3.6332   -7.0230 C   0  0  0  0  0  0  0  0  0  0  0  0
   -6.3591    4.9765  -15.4826 C   0  0  0  0  0  0  0  0  0  0  0  0
   -5.1924    5.2399  -14.7215 N   0  0  0  0  0  0  0  0  0  0  0  0
   -5.0763    4.6115  -13.4780 N   0  0  0  0  0  0  0  0  0  0  0  0
   -6.3149    4.8838  -16.9030 C   0  0  0  0  0  0  0  0  0  0  0  0
  1  2  1  0
  2  3  1  0
  3  4  2  0
  4  5  1  0
  5  6  1  0
  6  7  2  0
  7  8  1  0
  7  9  1  0
  9 10  2  0
 10 11  1  0
 11 12  2  0
 11 13  1  0
 13 14  1  0
 14 15  2  0
 15 16  1  0
 16 17  2  0
 17 18  1  0
 18 19  2  0
 18 20  1  0
 20 21  1  0
 21 22  1  0
 10 23  1  0
 23 24  1  0
 24 25  1  0
 23 26  2  0
 26  3  1  0
 26  6  1  0
 19 14  1  0
 22 17  1  0
M  END
>  <smiles>  (2696) 
C40502-P297

>  <fragmenstein_outcome>  (2696) 
acceptable

>  <inchikey>  (2696) 
DHZMJYKXQGTLBN-UHFFFAOYSA-N

>  <fragmenstein_mode>  (2696) 
expansion

>  <HIPPO Pose ID>  (2696) 
29631

>  <Energy>  (2696) 
90.650096

>  <fragmenstein_error>  (2696) 


>  <tags>  (2696) 
{'openbind_xx01zvns2b_c1_fragmenstein', 'fragmenstein_placed'}

>  <ref_pdb>  (2696) 
175

>  <scratch_subdir>  (2696) 
/opt/xchem-fragalysis-2/maxwin/BulkDock/SCRATCH/511028/C40502-P297

>  <alias>  (2696) 
NCc1c[nH]c2c(Cl)cc(C(=O)Nc3ccc4c(c3)CNC4)c(NN)c12

>  <HIPPO Compound ID>  (2696) 
25166

>  <fragmenstein_runtime>  (2696) 
4.434076

$$$$
NC(F)(F)c1c[nH]c2c(Cl)cc(C(=O)Nc3ccc4c(c3)CNC4)cc12
     RDKit          3D

 26 29  0  0  0  0  0  0  0  0999 V2000
   -3.6364    6.5731  -16.2514 N   0  0  0  0  0  0  0  0  0  0  0  0
   -3.6935    5.3156  -16.9435 C   0  0  0  0  0  0  0  0  0  0  0  0
   -2.7211    5.3163  -17.8891 F   0  0  0  0  0  0  0  0  0  0  0  0
   -3.3475    4.3698  -16.0388 F   0  0  0  0  0  0  0  0  0  0  0  0
   -5.0447    5.0977  -17.5087 C   0  0  0  0  0  0  0  0  0  0  0  0
   -5.4324    5.0482  -18.8354 C   0  0  0  0  0  0  0  0  0  0  0  0
   -6.7771    4.7801  -18.8870 N   0  0  0  0  0  0  0  0  0  0  0  0
   -7.2794    4.6335  -17.6139 C   0  0  0  0  0  0  0  0  0  0  0  0
   -8.5642    4.3243  -17.1484 C   0  0  0  0  0  0  0  0  0  0  0  0
   -9.8412    3.9541  -18.2284 Cl  0  0  0  0  0  0  0  0  0  0  0  0
   -8.8107    4.4029  -15.7743 C   0  0  0  0  0  0  0  0  0  0  0  0
   -7.7927    4.7763  -14.9104 C   0  0  0  0  0  0  0  0  0  0  0  0
   -8.0399    5.2279  -13.5301 C   0  0  0  0  0  0  0  0  0  0  0  0
   -7.9367    6.3693  -13.3149 O   0  0  0  0  0  0  0  0  0  0  0  0
   -8.3025    4.0533  -12.5746 N   0  0  0  0  0  0  0  0  0  0  0  0
   -8.3969    4.0206  -11.1858 C   0  0  0  0  0  0  0  0  0  0  0  0
   -8.2354    5.1950  -10.4295 C   0  0  0  0  0  0  0  0  0  0  0  0
   -8.3248    5.1699   -9.0354 C   0  0  0  0  0  0  0  0  0  0  0  0
   -8.6013    3.9627   -8.4237 C   0  0  0  0  0  0  0  0  0  0  0  0
   -8.7578    2.8003   -9.1702 C   0  0  0  0  0  0  0  0  0  0  0  0
   -8.6416    2.8047  -10.5507 C   0  0  0  0  0  0  0  0  0  0  0  0
   -9.0243    1.6583   -8.2508 C   0  0  0  0  0  0  0  0  0  0  0  0
   -9.2897    2.2643   -6.9217 N   0  0  0  0  0  0  0  0  0  0  0  0
   -8.7794    3.6494   -6.9774 C   0  0  0  0  0  0  0  0  0  0  0  0
   -6.4880    4.9541  -15.3628 C   0  0  0  0  0  0  0  0  0  0  0  0
   -6.2297    4.9012  -16.7395 C   0  0  0  0  0  0  0  0  0  0  0  0
  1  2  1  0
  2  3  1  0
  2  4  1  0
  2  5  1  0
  5  6  2  0
  6  7  1  0
  7  8  1  0
  8  9  2  0
  9 10  1  0
  9 11  1  0
 11 12  2  0
 12 13  1  0
 13 14  2  0
 13 15  1  0
 15 16  1  0
 16 17  2  0
 17 18  1  0
 18 19  2  0
 19 20  1  0
 20 21  2  0
 20 22  1  0
 22 23  1  0
 23 24  1  0
 12 25  1  0
 25 26  2  0
 26  5  1  0
 26  8  1  0
 21 16  1  0
 24 19  1  0
M  END
>  <smiles>  (2697) 
C40505-P297

>  <fragmenstein_outcome>  (2697) 
acceptable

>  <inchikey>  (2697) 
HGIOIWICGKOGGA-UHFFFAOYSA-N

>  <fragmenstein_mode>  (2697) 
expansion

>  <HIPPO Pose ID>  (2697) 
29632

>  <Energy>  (2697) 
11.204839

>  <fragmenstein_error>  (2697) 


>  <tags>  (2697) 
{'openbind_xx01zvns2b_c1_fragmenstein', 'fragmenstein_placed'}

>  <ref_pdb>  (2697) 
175

>  <scratch_subdir>  (2697) 
/opt/xchem-fragalysis-2/maxwin/BulkDock/SCRATCH/511028/C40505-P297

>  <alias>  (2697) 
NC(F)(F)c1c[nH]c2c(Cl)cc(C(=O)Nc3ccc4c(c3)CNC4)cc12

>  <HIPPO Compound ID>  (2697) 
40505

>  <fragmenstein_runtime>  (2697) 
3.556523

$$$$
NCc1c[nH]c2c1C[C@]1(C[C@@H]2Cl)N=C1Nc1ccc2c(c1)CNC2
     RDKit          3D

 24 28  0  0  0  0  0  0  0  0999 V2000
   -3.6009    5.5181  -15.6010 N   0  0  0  0  0  0  0  0  0  0  0  0
   -3.6513    5.4208  -17.0516 C   0  0  0  0  0  0  0  0  0  0  0  0
   -5.0455    5.2546  -17.5528 C   0  0  0  0  0  0  0  0  0  0  0  0
   -5.4226    5.3028  -18.8846 C   0  0  0  0  0  0  0  0  0  0  0  0
   -6.7658    5.0408  -18.9751 N   0  0  0  0  0  0  0  0  0  0  0  0
   -7.2631    4.7678  -17.7287 C   0  0  0  0  0  0  0  0  0  0  0  0
   -6.2431    4.9870  -16.8243 C   0  0  0  0  0  0  0  0  0  0  0  0
   -6.4520    4.8956  -15.3549 C   0  0  0  0  0  0  0  0  0  0  0  0
   -7.8976    4.7243  -14.9620 C   0  0  2  0  0  0  0  0  0  0  0  0
   -8.8016    3.9745  -15.9161 C   0  0  0  0  0  0  0  0  0  0  0  0
   -8.6641    4.3715  -17.3934 C   0  0  2  0  0  0  0  0  0  0  0  0
   -9.2670    3.0832  -18.4409 Cl  0  0  0  0  0  0  0  0  0  0  0  0
   -8.5059    5.8295  -14.0227 N   0  0  0  0  0  0  0  0  0  0  0  0
   -8.2030    4.7087  -13.5763 C   0  0  0  0  0  0  0  0  0  0  0  0
   -8.0640    3.7605  -12.6638 N   0  0  0  0  0  0  0  0  0  0  0  0
   -8.1943    3.9214  -11.2810 C   0  0  0  0  0  0  0  0  0  0  0  0
   -8.1046    5.1769  -10.6488 C   0  0  0  0  0  0  0  0  0  0  0  0
   -8.2418    5.3027   -9.2612 C   0  0  0  0  0  0  0  0  0  0  0  0
   -8.5150    4.1651   -8.5252 C   0  0  0  0  0  0  0  0  0  0  0  0
   -8.6681    2.9358   -9.1471 C   0  0  0  0  0  0  0  0  0  0  0  0
   -8.5037    2.7953  -10.5111 C   0  0  0  0  0  0  0  0  0  0  0  0
   -9.0529    1.9063   -8.1458 C   0  0  0  0  0  0  0  0  0  0  0  0
   -8.8866    2.5510   -6.8172 N   0  0  0  0  0  0  0  0  0  0  0  0
   -8.7386    4.0041   -7.0621 C   0  0  0  0  0  0  0  0  0  0  0  0
  1  2  1  0
  2  3  1  0
  3  4  2  0
  4  5  1  0
  5  6  1  0
  6  7  2  0
  7  8  1  0
  9  8  1  1
  9 10  1  0
 10 11  1  0
 11 12  1  6
  9 13  1  0
 13 14  2  0
 14 15  1  0
 15 16  1  0
 16 17  2  0
 17 18  1  0
 18 19  2  0
 19 20  1  0
 20 21  2  0
 20 22  1  0
 22 23  1  0
 23 24  1  0
  7  3  1  0
 14  9  1  0
 21 16  1  0
 11  6  1  0
 24 19  1  0
M  END
>  <smiles>  (2698) 
C40535-P297

>  <fragmenstein_outcome>  (2698) 
acceptable

>  <inchikey>  (2698) 
FHZCXWYCIYNDLI-UHFFFAOYSA-N

>  <fragmenstein_mode>  (2698) 
expansion

>  <HIPPO Pose ID>  (2698) 
29641

>  <Energy>  (2698) 
44.787242

>  <fragmenstein_error>  (2698) 


>  <tags>  (2698) 
{'openbind_xx01zvns2b_c1_fragmenstein', 'fragmenstein_placed'}

>  <ref_pdb>  (2698) 
175

>  <scratch_subdir>  (2698) 
/opt/xchem-fragalysis-2/maxwin/BulkDock/SCRATCH/511028/C40535-P297

>  <alias>  (2698) 
NCc1c[nH]c2c1C[C@]1(C[C@@H]2Cl)N=C1Nc1ccc2c(c1)CNC2

>  <HIPPO Compound ID>  (2698) 
23473

>  <fragmenstein_runtime>  (2698) 
4.313642

$$$$
NCc1c[nH]c2c(Cl)cc(C(=O)Nc3ccc4c(c3)CN[C@H]4CC(=O)O)cc12
     RDKit          3D

 28 31  0  0  0  0  0  0  0  0999 V2000
   -3.8079    6.9319  -16.6025 N   0  0  0  0  0  0  0  0  0  0  0  0
   -3.7022    5.6167  -17.2113 C   0  0  0  0  0  0  0  0  0  0  0  0
   -5.0288    5.2557  -17.7589 C   0  0  0  0  0  0  0  0  0  0  0  0
   -5.3938    5.1725  -19.0840 C   0  0  0  0  0  0  0  0  0  0  0  0
   -6.7169    4.8277  -19.1327 N   0  0  0  0  0  0  0  0  0  0  0  0
   -7.2304    4.6672  -17.8645 C   0  0  0  0  0  0  0  0  0  0  0  0
   -8.5127    4.3299  -17.4074 C   0  0  0  0  0  0  0  0  0  0  0  0
   -9.7846    3.9406  -18.4813 Cl  0  0  0  0  0  0  0  0  0  0  0  0
   -8.7737    4.4117  -16.0379 C   0  0  0  0  0  0  0  0  0  0  0  0
   -7.7659    4.8000  -15.1675 C   0  0  0  0  0  0  0  0  0  0  0  0
   -8.0724    5.2627  -13.8048 C   0  0  0  0  0  0  0  0  0  0  0  0
   -8.2770    6.4001  -13.6543 O   0  0  0  0  0  0  0  0  0  0  0  0
   -7.9651    4.1253  -12.7780 N   0  0  0  0  0  0  0  0  0  0  0  0
   -8.1728    4.1269  -11.4032 C   0  0  0  0  0  0  0  0  0  0  0  0
   -8.2097    5.3432  -10.6990 C   0  0  0  0  0  0  0  0  0  0  0  0
   -8.4201    5.3673   -9.3185 C   0  0  0  0  0  0  0  0  0  0  0  0
   -8.6248    4.1640   -8.6679 C   0  0  0  0  0  0  0  0  0  0  0  0
   -8.5945    2.9611   -9.3700 C   0  0  0  0  0  0  0  0  0  0  0  0
   -8.3394    2.9183  -10.7322 C   0  0  0  0  0  0  0  0  0  0  0  0
   -8.8724    1.8310   -8.4391 C   0  0  0  0  0  0  0  0  0  0  0  0
   -9.3223    2.4569   -7.1679 N   0  0  0  0  0  0  0  0  0  0  0  0
   -8.9335    3.8973   -7.2222 C   0  0  1  0  0  0  0  0  0  0  0  0
   -7.7556    4.1879   -6.2958 C   0  0  0  0  0  0  0  0  0  0  0  0
   -7.7530    5.6103   -5.8179 C   0  0  0  0  0  0  0  0  0  0  0  0
   -8.6024    6.4695   -5.9809 O   0  0  0  0  0  0  0  0  0  0  0  0
   -6.6404    5.8909   -5.1006 O   0  0  0  0  0  0  0  0  0  0  0  0
   -6.4620    5.0220  -15.6094 C   0  0  0  0  0  0  0  0  0  0  0  0
   -6.1962    4.9768  -16.9871 C   0  0  0  0  0  0  0  0  0  0  0  0
  1  2  1  0
  2  3  1  0
  3  4  2  0
  4  5  1  0
  5  6  1  0
  6  7  2  0
  7  8  1  0
  7  9  1  0
  9 10  2  0
 10 11  1  0
 11 12  2  0
 11 13  1  0
 13 14  1  0
 14 15  2  0
 15 16  1  0
 16 17  2  0
 17 18  1  0
 18 19  2  0
 18 20  1  0
 20 21  1  0
 21 22  1  0
 22 23  1  1
 23 24  1  0
 24 25  2  0
 24 26  1  0
 10 27  1  0
 27 28  2  0
 28  3  1  0
 28  6  1  0
 19 14  1  0
 22 17  1  0
M  END
>  <smiles>  (2699) 
C40542-P297

>  <fragmenstein_outcome>  (2699) 
acceptable

>  <inchikey>  (2699) 
JZQMVQPBAYISIR-UHFFFAOYSA-N

>  <fragmenstein_mode>  (2699) 
expansion

>  <HIPPO Pose ID>  (2699) 
29643

>  <Energy>  (2699) 
8.992339

>  <fragmenstein_error>  (2699) 


>  <tags>  (2699) 
{'openbind_xx01zvns2b_c1_fragmenstein', 'fragmenstein_placed'}

>  <ref_pdb>  (2699) 
175

>  <scratch_subdir>  (2699) 
/opt/xchem-fragalysis-2/maxwin/BulkDock/SCRATCH/511028/C40542-P297

>  <alias>  (2699) 
NCc1c[nH]c2c(Cl)cc(C(=O)Nc3ccc4c(c3)CN[C@H]4CC(=O)O)cc12

>  <HIPPO Compound ID>  (2699) 
40542

>  <fragmenstein_runtime>  (2699) 
5.417577

$$$$
NCc1c[nH]c2c(Cl)cc(C(=O)Nc3cc4c(c(-c5ccncc5)c3)CNC4)cc12
     RDKit          3D

 30 34  0  0  0  0  0  0  0  0999 V2000
   -3.7241    6.8615  -16.6046 N   0  0  0  0  0  0  0  0  0  0  0  0
   -3.6775    5.5391  -17.2005 C   0  0  0  0  0  0  0  0  0  0  0  0
   -5.0188    5.2295  -17.7437 C   0  0  0  0  0  0  0  0  0  0  0  0
   -5.3984    5.1482  -19.0648 C   0  0  0  0  0  0  0  0  0  0  0  0
   -6.7309    4.8356  -19.1013 N   0  0  0  0  0  0  0  0  0  0  0  0
   -7.2334    4.6796  -17.8275 C   0  0  0  0  0  0  0  0  0  0  0  0
   -8.5120    4.3506  -17.3527 C   0  0  0  0  0  0  0  0  0  0  0  0
   -9.7983    3.9627  -18.4130 Cl  0  0  0  0  0  0  0  0  0  0  0  0
   -8.7565    4.4351  -15.9774 C   0  0  0  0  0  0  0  0  0  0  0  0
   -7.7400    4.8325  -15.1209 C   0  0  0  0  0  0  0  0  0  0  0  0
   -8.0054    5.2863  -13.7433 C   0  0  0  0  0  0  0  0  0  0  0  0
   -7.9443    6.4323  -13.5365 O   0  0  0  0  0  0  0  0  0  0  0  0
   -8.2262    4.1090  -12.7784 N   0  0  0  0  0  0  0  0  0  0  0  0
   -8.3211    4.0833  -11.3892 C   0  0  0  0  0  0  0  0  0  0  0  0
   -8.5953    2.8811  -10.7457 C   0  0  0  0  0  0  0  0  0  0  0  0
   -8.7001    2.8874   -9.3640 C   0  0  0  0  0  0  0  0  0  0  0  0
   -8.5126    4.0526   -8.6199 C   0  0  0  0  0  0  0  0  0  0  0  0
   -8.2026    5.2653   -9.2322 C   0  0  0  0  0  0  0  0  0  0  0  0
   -7.9729    6.5060   -8.4780 C   0  0  0  0  0  0  0  0  0  0  0  0
   -8.7219    7.6599   -8.7337 C   0  0  0  0  0  0  0  0  0  0  0  0
   -8.4682    8.8065   -7.9980 C   0  0  0  0  0  0  0  0  0  0  0  0
   -7.5238    8.8908   -7.0377 N   0  0  0  0  0  0  0  0  0  0  0  0
   -6.7979    7.7769   -6.8130 C   0  0  0  0  0  0  0  0  0  0  0  0
   -6.9802    6.5836   -7.4950 C   0  0  0  0  0  0  0  0  0  0  0  0
   -8.1211    5.2571  -10.6389 C   0  0  0  0  0  0  0  0  0  0  0  0
   -8.7178    3.7335   -7.1726 C   0  0  0  0  0  0  0  0  0  0  0  0
   -9.2553    2.3583   -7.1229 N   0  0  0  0  0  0  0  0  0  0  0  0
   -8.9942    1.7486   -8.4458 C   0  0  0  0  0  0  0  0  0  0  0  0
   -6.4416    5.0457  -15.5842 C   0  0  0  0  0  0  0  0  0  0  0  0
   -6.1875    4.9839  -16.9628 C   0  0  0  0  0  0  0  0  0  0  0  0
  1  2  1  0
  2  3  1  0
  3  4  2  0
  4  5  1  0
  5  6  1  0
  6  7  2  0
  7  8  1  0
  7  9  1  0
  9 10  2  0
 10 11  1  0
 11 12  2  0
 11 13  1  0
 13 14  1  0
 14 15  2  0
 15 16  1  0
 16 17  2  0
 17 18  1  0
 18 19  1  0
 19 20  2  0
 20 21  1  0
 21 22  2  0
 22 23  1  0
 23 24  2  0
 18 25  2  0
 17 26  1  0
 26 27  1  0
 27 28  1  0
 10 29  1  0
 29 30  2  0
 30  3  1  0
 30  6  1  0
 25 14  1  0
 28 16  1  0
 24 19  1  0
M  END
>  <smiles>  (2700) 
C40551-P297

>  <fragmenstein_outcome>  (2700) 
acceptable

>  <inchikey>  (2700) 
SLMSHDBKBLQGMS-UHFFFAOYSA-N

>  <fragmenstein_mode>  (2700) 
expansion

>  <HIPPO Pose ID>  (2700) 
29646

>  <Energy>  (2700) 
49.349849

>  <fragmenstein_error>  (2700) 


>  <tags>  (2700) 
{'openbind_xx01zvns2b_c1_fragmenstein', 'fragmenstein_placed'}

>  <ref_pdb>  (2700) 
175

>  <scratch_subdir>  (2700) 
/opt/xchem-fragalysis-2/maxwin/BulkDock/SCRATCH/511028/C40551-P297

>  <alias>  (2700) 
NCc1c[nH]c2c(Cl)cc(C(=O)Nc3cc4c(c(-c5ccncc5)c3)CNC4)cc12

>  <HIPPO Compound ID>  (2700) 
40551

>  <fragmenstein_runtime>  (2700) 
8.893461

$$$$
CNCc1[nH]c2c(Cl)cc(C(=O)Nc3cc(F)c4c(c3)CNC4)cc2c1CN
     RDKit          3D

 28 31  0  0  0  0  0  0  0  0999 V2000
   -3.6624    7.8872  -19.7402 C   0  0  0  0  0  0  0  0  0  0  0  0
   -4.2319    6.7437  -20.4365 N   0  0  0  0  0  0  0  0  0  0  0  0
   -4.0859    5.5042  -19.6841 C   0  0  0  0  0  0  0  0  0  0  0  0
   -5.0942    5.3915  -18.5966 C   0  0  0  0  0  0  0  0  0  0  0  0
   -6.4155    5.0612  -18.8374 N   0  0  0  0  0  0  0  0  0  0  0  0
   -7.0871    4.8713  -17.6392 C   0  0  0  0  0  0  0  0  0  0  0  0
   -8.3793    4.4154  -17.3186 C   0  0  0  0  0  0  0  0  0  0  0  0
   -9.4773    3.8709  -18.5132 Cl  0  0  0  0  0  0  0  0  0  0  0  0
   -8.8039    4.4623  -15.9802 C   0  0  0  0  0  0  0  0  0  0  0  0
   -7.9633    4.9817  -15.0089 C   0  0  0  0  0  0  0  0  0  0  0  0
   -8.3875    5.3243  -13.6409 C   0  0  0  0  0  0  0  0  0  0  0  0
   -8.6867    6.4304  -13.4264 O   0  0  0  0  0  0  0  0  0  0  0  0
   -8.2567    4.1235  -12.6880 N   0  0  0  0  0  0  0  0  0  0  0  0
   -8.3699    4.0519  -11.3019 C   0  0  0  0  0  0  0  0  0  0  0  0
   -8.3394    5.2263  -10.5314 C   0  0  0  0  0  0  0  0  0  0  0  0
   -8.4343    5.1561   -9.1451 C   0  0  0  0  0  0  0  0  0  0  0  0
   -8.3864    6.2742   -8.4089 F   0  0  0  0  0  0  0  0  0  0  0  0
   -8.6128    3.9321   -8.5441 C   0  0  0  0  0  0  0  0  0  0  0  0
   -8.6563    2.7723   -9.3063 C   0  0  0  0  0  0  0  0  0  0  0  0
   -8.4943    2.8070  -10.6840 C   0  0  0  0  0  0  0  0  0  0  0  0
   -8.8934    1.6076   -8.4070 C   0  0  0  0  0  0  0  0  0  0  0  0
   -9.1917    2.1794   -7.0683 N   0  0  0  0  0  0  0  0  0  0  0  0
   -8.7937    3.6026   -7.1080 C   0  0  0  0  0  0  0  0  0  0  0  0
   -6.6650    5.3745  -15.3179 C   0  0  0  0  0  0  0  0  0  0  0  0
   -6.2131    5.2925  -16.6418 C   0  0  0  0  0  0  0  0  0  0  0  0
   -4.9484    5.5602  -17.2309 C   0  0  0  0  0  0  0  0  0  0  0  0
   -3.7269    5.9401  -16.4733 C   0  0  0  0  0  0  0  0  0  0  0  0
   -3.3875    4.8560  -15.5618 N   0  0  0  0  0  0  0  0  0  0  0  0
  1  2  1  0
  2  3  1  0
  3  4  1  0
  4  5  1  0
  5  6  1  0
  6  7  2  0
  7  8  1  0
  7  9  1  0
  9 10  2  0
 10 11  1  0
 11 12  2  0
 11 13  1  0
 13 14  1  0
 14 15  2  0
 15 16  1  0
 16 17  1  0
 16 18  2  0
 18 19  1  0
 19 20  2  0
 19 21  1  0
 21 22  1  0
 22 23  1  0
 10 24  1  0
 24 25  2  0
 25 26  1  0
 26 27  1  0
 27 28  1  0
 26  4  2  0
 25  6  1  0
 20 14  1  0
 23 18  1  0
M  END
>  <smiles>  (2701) 
C40553-P297

>  <fragmenstein_outcome>  (2701) 
acceptable

>  <inchikey>  (2701) 
PWPOHZUWVIRJJM-UHFFFAOYSA-N

>  <fragmenstein_mode>  (2701) 
expansion

>  <HIPPO Pose ID>  (2701) 
29647

>  <Energy>  (2701) 
15.606773

>  <fragmenstein_error>  (2701) 


>  <tags>  (2701) 
{'openbind_xx01zvns2b_c1_fragmenstein', 'fragmenstein_placed'}

>  <ref_pdb>  (2701) 
175

>  <scratch_subdir>  (2701) 
/opt/xchem-fragalysis-2/maxwin/BulkDock/SCRATCH/511028/C40553-P297

>  <alias>  (2701) 
CNCc1[nH]c2c(Cl)cc(C(=O)Nc3cc(F)c4c(c3)CNC4)cc2c1CN

>  <HIPPO Compound ID>  (2701) 
40553

>  <fragmenstein_runtime>  (2701) 
7.548138

$$$$
CNCc1[nH]c2c(Cl)cc(C(=O)Nc3cc(Br)c4c(c3)CNC4)cc2c1CN
     RDKit          3D

 28 31  0  0  0  0  0  0  0  0999 V2000
   -4.7938    7.2080  -20.9774 C   0  0  0  0  0  0  0  0  0  0  0  0
   -3.7131    6.6932  -20.1495 N   0  0  0  0  0  0  0  0  0  0  0  0
   -3.9773    5.3421  -19.6626 C   0  0  0  0  0  0  0  0  0  0  0  0
   -5.0249    5.2970  -18.6073 C   0  0  0  0  0  0  0  0  0  0  0  0
   -6.3448    4.9574  -18.8466 N   0  0  0  0  0  0  0  0  0  0  0  0
   -7.0347    4.8333  -17.6486 C   0  0  0  0  0  0  0  0  0  0  0  0
   -8.3359    4.4066  -17.3189 C   0  0  0  0  0  0  0  0  0  0  0  0
   -9.4420    3.8530  -18.5032 Cl  0  0  0  0  0  0  0  0  0  0  0  0
   -8.7625    4.4875  -15.9808 C   0  0  0  0  0  0  0  0  0  0  0  0
   -7.9157    5.0152  -15.0192 C   0  0  0  0  0  0  0  0  0  0  0  0
   -8.3161    5.3705  -13.6467 C   0  0  0  0  0  0  0  0  0  0  0  0
   -8.5492    6.4912  -13.4244 O   0  0  0  0  0  0  0  0  0  0  0  0
   -8.2542    4.1575  -12.7013 N   0  0  0  0  0  0  0  0  0  0  0  0
   -8.3686    4.0839  -11.3146 C   0  0  0  0  0  0  0  0  0  0  0  0
   -8.2789    5.2535  -10.5392 C   0  0  0  0  0  0  0  0  0  0  0  0
   -8.3495    5.1913   -9.1457 C   0  0  0  0  0  0  0  0  0  0  0  0
   -8.1335    6.7672   -8.1247 Br  0  0  0  0  0  0  0  0  0  0  0  0
   -8.5766    3.9680   -8.5470 C   0  0  0  0  0  0  0  0  0  0  0  0
   -8.6714    2.8130   -9.3185 C   0  0  0  0  0  0  0  0  0  0  0  0
   -8.5308    2.8446  -10.6989 C   0  0  0  0  0  0  0  0  0  0  0  0
   -8.9184    1.6421   -8.4290 C   0  0  0  0  0  0  0  0  0  0  0  0
   -9.1914    2.2040   -7.0836 N   0  0  0  0  0  0  0  0  0  0  0  0
   -8.7549    3.6150   -7.1105 C   0  0  0  0  0  0  0  0  0  0  0  0
   -6.6154    5.3921  -15.3394 C   0  0  0  0  0  0  0  0  0  0  0  0
   -6.1625    5.2757  -16.6599 C   0  0  0  0  0  0  0  0  0  0  0  0
   -4.8927    5.5147  -17.2477 C   0  0  0  0  0  0  0  0  0  0  0  0
   -3.6750    5.9091  -16.4945 C   0  0  0  0  0  0  0  0  0  0  0  0
   -3.3226    4.8308  -15.5800 N   0  0  0  0  0  0  0  0  0  0  0  0
  1  2  1  0
  2  3  1  0
  3  4  1  0
  4  5  1  0
  5  6  1  0
  6  7  2  0
  7  8  1  0
  7  9  1  0
  9 10  2  0
 10 11  1  0
 11 12  2  0
 11 13  1  0
 13 14  1  0
 14 15  2  0
 15 16  1  0
 16 17  1  0
 16 18  2  0
 18 19  1  0
 19 20  2  0
 19 21  1  0
 21 22  1  0
 22 23  1  0
 10 24  1  0
 24 25  2  0
 25 26  1  0
 26 27  1  0
 27 28  1  0
 26  4  2  0
 25  6  1  0
 20 14  1  0
 23 18  1  0
M  END
>  <smiles>  (2702) 
C40559-P297

>  <fragmenstein_outcome>  (2702) 
acceptable

>  <inchikey>  (2702) 
IAJALLKOBJHSMX-UHFFFAOYSA-N

>  <fragmenstein_mode>  (2702) 
expansion

>  <HIPPO Pose ID>  (2702) 
29649

>  <Energy>  (2702) 
21.091555

>  <fragmenstein_error>  (2702) 


>  <tags>  (2702) 
{'openbind_xx01zvns2b_c1_fragmenstein', 'fragmenstein_placed'}

>  <ref_pdb>  (2702) 
175

>  <scratch_subdir>  (2702) 
/opt/xchem-fragalysis-2/maxwin/BulkDock/SCRATCH/511028/C40559-P297

>  <alias>  (2702) 
CNCc1[nH]c2c(Cl)cc(C(=O)Nc3cc(Br)c4c(c3)CNC4)cc2c1CN

>  <HIPPO Compound ID>  (2702) 
43306

>  <fragmenstein_runtime>  (2702) 
5.556031

$$$$
CNCc1[nH]c2c(Cl)cc(C(=O)Nc3ccc4c(c3)CNC4)cc2c1CN
     RDKit          3D

 27 30  0  0  0  0  0  0  0  0999 V2000
   -3.6859    6.9663  -20.9636 C   0  0  0  0  0  0  0  0  0  0  0  0
   -3.6778    5.5324  -20.7287 N   0  0  0  0  0  0  0  0  0  0  0  0
   -3.5589    5.2062  -19.3183 C   0  0  0  0  0  0  0  0  0  0  0  0
   -4.8019    5.3411  -18.4811 C   0  0  0  0  0  0  0  0  0  0  0  0
   -6.0929    4.9844  -18.8505 N   0  0  0  0  0  0  0  0  0  0  0  0
   -6.9115    4.8912  -17.7256 C   0  0  0  0  0  0  0  0  0  0  0  0
   -8.2256    4.4212  -17.5067 C   0  0  0  0  0  0  0  0  0  0  0  0
   -9.2082    3.8029  -18.7625 Cl  0  0  0  0  0  0  0  0  0  0  0  0
   -8.7736    4.4812  -16.2120 C   0  0  0  0  0  0  0  0  0  0  0  0
   -8.0326    5.0220  -15.1754 C   0  0  0  0  0  0  0  0  0  0  0  0
   -8.5712    5.2871  -13.8295 C   0  0  0  0  0  0  0  0  0  0  0  0
   -9.1313    6.2934  -13.6478 O   0  0  0  0  0  0  0  0  0  0  0  0
   -8.1862    4.1660  -12.8446 N   0  0  0  0  0  0  0  0  0  0  0  0
   -8.3202    4.0925  -11.4618 C   0  0  0  0  0  0  0  0  0  0  0  0
   -8.3474    5.2792  -10.7063 C   0  0  0  0  0  0  0  0  0  0  0  0
   -8.4508    5.2425   -9.3137 C   0  0  0  0  0  0  0  0  0  0  0  0
   -8.6046    4.0106   -8.7096 C   0  0  0  0  0  0  0  0  0  0  0  0
   -8.6038    2.8362   -9.4583 C   0  0  0  0  0  0  0  0  0  0  0  0
   -8.4058    2.8524  -10.8310 C   0  0  0  0  0  0  0  0  0  0  0  0
   -8.8569    1.6830   -8.5425 C   0  0  0  0  0  0  0  0  0  0  0  0
   -9.3245    2.2891   -7.2641 N   0  0  0  0  0  0  0  0  0  0  0  0
   -8.8052    3.6734   -7.2708 C   0  0  0  0  0  0  0  0  0  0  0  0
   -6.7403    5.4937  -15.3903 C   0  0  0  0  0  0  0  0  0  0  0  0
   -6.1696    5.4100  -16.6711 C   0  0  0  0  0  0  0  0  0  0  0  0
   -4.8685    5.7228  -17.1484 C   0  0  0  0  0  0  0  0  0  0  0  0
   -3.7713    6.2264  -16.2808 C   0  0  0  0  0  0  0  0  0  0  0  0
   -3.3770    5.1442  -15.3922 N   0  0  0  0  0  0  0  0  0  0  0  0
  1  2  1  0
  2  3  1  0
  3  4  1  0
  4  5  1  0
  5  6  1  0
  6  7  2  0
  7  8  1  0
  7  9  1  0
  9 10  2  0
 10 11  1  0
 11 12  2  0
 11 13  1  0
 13 14  1  0
 14 15  2  0
 15 16  1  0
 16 17  2  0
 17 18  1  0
 18 19  2  0
 18 20  1  0
 20 21  1  0
 21 22  1  0
 10 23  1  0
 23 24  2  0
 24 25  1  0
 25 26  1  0
 26 27  1  0
 25  4  2  0
 24  6  1  0
 19 14  1  0
 22 17  1  0
M  END
>  <smiles>  (2703) 
C40550-P297

>  <fragmenstein_outcome>  (2703) 
acceptable

>  <inchikey>  (2703) 
OBWRJVUCTCMFQV-UHFFFAOYSA-N

>  <fragmenstein_mode>  (2703) 
expansion

>  <HIPPO Pose ID>  (2703) 
29650

>  <Energy>  (2703) 
29.043214

>  <fragmenstein_error>  (2703) 


>  <tags>  (2703) 
{'openbind_xx01zvns2b_c1_fragmenstein', 'fragmenstein_placed'}

>  <ref_pdb>  (2703) 
175

>  <scratch_subdir>  (2703) 
/opt/xchem-fragalysis-2/maxwin/BulkDock/SCRATCH/511028/C40550-P297

>  <alias>  (2703) 
CNCc1[nH]c2c(Cl)cc(C(=O)Nc3ccc4c(c3)CNC4)cc2c1CN

>  <HIPPO Compound ID>  (2703) 
18401

>  <fragmenstein_runtime>  (2703) 
6.157336

$$$$
CCNc1nc2cc(C(=O)Nc3ccc4c(c3)CNC4)c3nccn1c23
     RDKit          3D

 26 30  0  0  0  0  0  0  0  0999 V2000
   -5.1065    7.5305  -20.6423 C   0  0  0  0  0  0  0  0  0  0  0  0
   -4.1573    6.4295  -20.2060 C   0  0  0  0  0  0  0  0  0  0  0  0
   -4.8578    5.1749  -19.9858 N   0  0  0  0  0  0  0  0  0  0  0  0
   -5.6260    5.0052  -18.8826 C   0  0  0  0  0  0  0  0  0  0  0  0
   -6.9394    4.6806  -18.8394 N   0  0  0  0  0  0  0  0  0  0  0  0
   -7.2543    4.6752  -17.5280 C   0  0  0  0  0  0  0  0  0  0  0  0
   -8.2723    4.6057  -16.5383 C   0  0  0  0  0  0  0  0  0  0  0  0
   -7.7331    4.8074  -15.2838 C   0  0  0  0  0  0  0  0  0  0  0  0
   -8.4241    5.1408  -14.0287 C   0  0  0  0  0  0  0  0  0  0  0  0
   -9.1075    6.0850  -13.9553 O   0  0  0  0  0  0  0  0  0  0  0  0
   -7.9892    4.1308  -12.9407 N   0  0  0  0  0  0  0  0  0  0  0  0
   -8.2185    4.1263  -11.5697 C   0  0  0  0  0  0  0  0  0  0  0  0
   -8.3148    5.3480  -10.8802 C   0  0  0  0  0  0  0  0  0  0  0  0
   -8.4632    5.3751   -9.4904 C   0  0  0  0  0  0  0  0  0  0  0  0
   -8.6102    4.1700   -8.8306 C   0  0  0  0  0  0  0  0  0  0  0  0
   -8.5748    2.9622   -9.5225 C   0  0  0  0  0  0  0  0  0  0  0  0
   -8.3119    2.9174  -10.8828 C   0  0  0  0  0  0  0  0  0  0  0  0
   -8.8756    1.8490   -8.5711 C   0  0  0  0  0  0  0  0  0  0  0  0
   -9.3729    2.5151   -7.3339 N   0  0  0  0  0  0  0  0  0  0  0  0
   -8.8307    3.8885   -7.3828 C   0  0  0  0  0  0  0  0  0  0  0  0
   -6.2511    5.0193  -15.4717 C   0  0  0  0  0  0  0  0  0  0  0  0
   -5.1809    5.2621  -14.7933 N   0  0  0  0  0  0  0  0  0  0  0  0
   -3.9889    5.4043  -15.5540 C   0  0  0  0  0  0  0  0  0  0  0  0
   -3.9161    5.3505  -16.9120 C   0  0  0  0  0  0  0  0  0  0  0  0
   -5.0935    5.1213  -17.6008 N   0  0  0  0  0  0  0  0  0  0  0  0
   -6.1539    4.9370  -16.8450 C   0  0  0  0  0  0  0  0  0  0  0  0
  1  2  1  0
  2  3  1  0
  3  4  1  0
  4  5  2  0
  5  6  1  0
  6  7  1  0
  7  8  2  0
  8  9  1  0
  9 10  2  0
  9 11  1  0
 11 12  1  0
 12 13  2  0
 13 14  1  0
 14 15  2  0
 15 16  1  0
 16 17  2  0
 16 18  1  0
 18 19  1  0
 19 20  1  0
  8 21  1  0
 21 22  2  0
 22 23  1  0
 23 24  2  0
 24 25  1  0
 25 26  1  0
 25  4  1  0
 26  6  2  0
 17 12  1  0
 26 21  1  0
 20 15  1  0
M  END
>  <smiles>  (2704) 
C40608-P298

>  <fragmenstein_outcome>  (2704) 
acceptable

>  <inchikey>  (2704) 
QPYWLRZWLBFCIK-UHFFFAOYSA-N

>  <fragmenstein_mode>  (2704) 
expansion

>  <HIPPO Pose ID>  (2704) 
29673

>  <Energy>  (2704) 
59.433205

>  <fragmenstein_error>  (2704) 


>  <tags>  (2704) 
{'openbind_xx01zvns2b_c1_fragmenstein', 'fragmenstein_placed'}

>  <ref_pdb>  (2704) 
175

>  <scratch_subdir>  (2704) 
/opt/xchem-fragalysis-2/maxwin/BulkDock/SCRATCH/511028/C40608-P298

>  <alias>  (2704) 
CCNc1nc2cc(C(=O)Nc3ccc4c(c3)CNC4)c3nccn1c23

>  <HIPPO Compound ID>  (2704) 
21293

>  <fragmenstein_runtime>  (2704) 
4.104012

$$$$
CCNc1[nH]c2cc(C(=O)Nc3ccc4c(c3)CNC4)ccc2[n+]1[O-]
     RDKit          3D

 25 28  0  0  0  0  0  0  0  0999 V2000
   -2.3952    4.6233  -18.6446 C   0  0  0  0  0  0  0  0  0  0  0  0
   -3.3335    5.5277  -19.4160 C   0  0  0  0  0  0  0  0  0  0  0  0
   -4.7007    4.9966  -19.4959 N   0  0  0  0  0  0  0  0  0  0  0  0
   -5.5734    4.9841  -18.4069 C   0  0  0  0  0  0  0  0  0  0  0  0
   -5.2395    5.5149  -17.1969 N   0  0  0  0  0  0  0  0  0  0  0  0
   -6.3011    5.2494  -16.3549 C   0  0  0  0  0  0  0  0  0  0  0  0
   -6.4249    5.5630  -15.0081 C   0  0  0  0  0  0  0  0  0  0  0  0
   -7.6109    5.1776  -14.3803 C   0  0  0  0  0  0  0  0  0  0  0  0
   -7.7592    5.5502  -12.9603 C   0  0  0  0  0  0  0  0  0  0  0  0
   -7.5565    6.6514  -12.6348 O   0  0  0  0  0  0  0  0  0  0  0  0
   -8.1599    4.3205  -12.1260 N   0  0  0  0  0  0  0  0  0  0  0  0
   -8.2985    4.1688  -10.7564 C   0  0  0  0  0  0  0  0  0  0  0  0
   -8.1514    5.2645   -9.8903 C   0  0  0  0  0  0  0  0  0  0  0  0
   -8.3339    5.1124   -8.5159 C   0  0  0  0  0  0  0  0  0  0  0  0
   -8.6838    3.8621   -8.0467 C   0  0  0  0  0  0  0  0  0  0  0  0
   -8.8098    2.7742   -8.9082 C   0  0  0  0  0  0  0  0  0  0  0  0
   -8.6095    2.9017  -10.2665 C   0  0  0  0  0  0  0  0  0  0  0  0
   -9.1555    1.5641   -8.1124 C   0  0  0  0  0  0  0  0  0  0  0  0
   -9.6574    2.0977   -6.8216 N   0  0  0  0  0  0  0  0  0  0  0  0
   -8.9896    3.4097   -6.6586 C   0  0  0  0  0  0  0  0  0  0  0  0
   -8.6340    4.4993  -15.0564 C   0  0  0  0  0  0  0  0  0  0  0  0
   -8.5230    4.1889  -16.4102 C   0  0  0  0  0  0  0  0  0  0  0  0
   -7.3404    4.5781  -17.0318 C   0  0  0  0  0  0  0  0  0  0  0  0
   -6.9294    4.3951  -18.3053 N   0  0  0  0  0  0  0  0  0  0  0  0
   -7.4744    3.7800  -19.2516 O   0  0  0  0  0  0  0  0  0  0  0  0
  1  2  1  0
  2  3  1  0
  3  4  1  0
  4  5  1  0
  5  6  1  0
  6  7  2  0
  7  8  1  0
  8  9  1  0
  9 10  2  0
  9 11  1  0
 11 12  1  0
 12 13  2  0
 13 14  1  0
 14 15  2  0
 15 16  1  0
 16 17  2  0
 16 18  1  0
 18 19  1  0
 19 20  1  0
  8 21  2  0
 21 22  1  0
 22 23  2  0
 23 24  1  0
 24 25  1  0
 24  4  2  0
 23  6  1  0
 17 12  1  0
 20 15  1  0
M  CHG  2  24   1  25  -1
M  END
>  <smiles>  (2705) 
C40697-P299

>  <fragmenstein_outcome>  (2705) 
acceptable

>  <inchikey>  (2705) 
BMZVEJWCOUCTPY-UHFFFAOYSA-N

>  <fragmenstein_mode>  (2705) 
expansion

>  <HIPPO Pose ID>  (2705) 
29698

>  <Energy>  (2705) 
135.941517

>  <fragmenstein_error>  (2705) 


>  <tags>  (2705) 
{'openbind_xx01zvns2b_c1_fragmenstein', 'fragmenstein_placed'}

>  <ref_pdb>  (2705) 
175

>  <scratch_subdir>  (2705) 
/opt/xchem-fragalysis-2/maxwin/BulkDock/SCRATCH/511028/C40697-P299

>  <alias>  (2705) 
CCNc1[nH]c2cc(C(=O)Nc3ccc4c(c3)CNC4)ccc2[n+]1[O-]

>  <HIPPO Compound ID>  (2705) 
40697

>  <fragmenstein_runtime>  (2705) 
3.217683

$$$$
CN[C@H](C)c1nc2c(F)cc(C(=O)Nc3ccc4c(c3)CNC4)cc2[nH]1
     RDKit          3D

 26 29  0  0  0  0  0  0  0  0999 V2000
   -2.5325    6.5465  -17.5988 C   0  0  0  0  0  0  0  0  0  0  0  0
   -2.8390    5.3283  -18.3354 N   0  0  0  0  0  0  0  0  0  0  0  0
   -4.1149    5.3347  -19.1077 C   0  0  2  0  0  0  0  0  0  0  0  0
   -4.3701    6.6225  -19.8918 C   0  0  0  0  0  0  0  0  0  0  0  0
   -5.2618    5.0011  -18.2249 C   0  0  0  0  0  0  0  0  0  0  0  0
   -6.5018    4.6813  -18.5307 N   0  0  0  0  0  0  0  0  0  0  0  0
   -7.1519    4.5429  -17.3252 C   0  0  0  0  0  0  0  0  0  0  0  0
   -8.4693    4.1963  -16.9949 C   0  0  0  0  0  0  0  0  0  0  0  0
   -9.3648    3.8253  -17.9210 F   0  0  0  0  0  0  0  0  0  0  0  0
   -8.8770    4.3063  -15.6646 C   0  0  0  0  0  0  0  0  0  0  0  0
   -7.9911    4.7600  -14.6926 C   0  0  0  0  0  0  0  0  0  0  0  0
   -8.4199    5.1614  -13.3495 C   0  0  0  0  0  0  0  0  0  0  0  0
   -8.7224    6.2704  -13.1628 O   0  0  0  0  0  0  0  0  0  0  0  0
   -8.2866    3.9884  -12.3707 N   0  0  0  0  0  0  0  0  0  0  0  0
   -8.4004    3.9501  -10.9905 C   0  0  0  0  0  0  0  0  0  0  0  0
   -8.3180    5.1321  -10.2334 C   0  0  0  0  0  0  0  0  0  0  0  0
   -8.4346    5.0970   -8.8428 C   0  0  0  0  0  0  0  0  0  0  0  0
   -8.6915    3.8767   -8.2499 C   0  0  0  0  0  0  0  0  0  0  0  0
   -8.7740    2.7093   -9.0056 C   0  0  0  0  0  0  0  0  0  0  0  0
   -8.5901    2.7185  -10.3734 C   0  0  0  0  0  0  0  0  0  0  0  0
   -9.0849    1.5653   -8.1033 C   0  0  0  0  0  0  0  0  0  0  0  0
   -9.5641    2.1950   -6.8459 N   0  0  0  0  0  0  0  0  0  0  0  0
   -8.9464    3.5397   -6.8198 C   0  0  0  0  0  0  0  0  0  0  0  0
   -6.6451    4.9818  -14.9574 C   0  0  0  0  0  0  0  0  0  0  0  0
   -6.2843    4.8510  -16.2830 C   0  0  0  0  0  0  0  0  0  0  0  0
   -5.0773    4.9601  -16.8758 N   0  0  0  0  0  0  0  0  0  0  0  0
  1  2  1  0
  2  3  1  0
  3  4  1  1
  3  5  1  0
  5  6  2  0
  6  7  1  0
  7  8  2  0
  8  9  1  0
  8 10  1  0
 10 11  2  0
 11 12  1  0
 12 13  2  0
 12 14  1  0
 14 15  1  0
 15 16  2  0
 16 17  1  0
 17 18  2  0
 18 19  1  0
 19 20  2  0
 19 21  1  0
 21 22  1  0
 22 23  1  0
 11 24  1  0
 24 25  2  0
 25 26  1  0
 26  5  1  0
 25  7  1  0
 20 15  1  0
 23 18  1  0
M  END
>  <smiles>  (2706) 
C40800-P299

>  <fragmenstein_outcome>  (2706) 
acceptable

>  <inchikey>  (2706) 
IPMOEXMARLOJMQ-UHFFFAOYSA-N

>  <fragmenstein_mode>  (2706) 
expansion

>  <HIPPO Pose ID>  (2706) 
29708

>  <Energy>  (2706) 
72.604221

>  <fragmenstein_error>  (2706) 


>  <tags>  (2706) 
{'openbind_xx01zvns2b_c1_fragmenstein', 'fragmenstein_placed'}

>  <ref_pdb>  (2706) 
175

>  <scratch_subdir>  (2706) 
/opt/xchem-fragalysis-2/maxwin/BulkDock/SCRATCH/511028/C40800-P299

>  <alias>  (2706) 
CN[C@H](C)c1nc2c(F)cc(C(=O)Nc3ccc4c(c3)CNC4)cc2[nH]1

>  <HIPPO Compound ID>  (2706) 
40804

>  <fragmenstein_runtime>  (2706) 
4.124569

$$$$
CCNc1nc2c(Cl)cc(C(=O)Nc3ccc4c(c3)CNC4)cc2n1CN
     RDKit          3D

 27 30  0  0  0  0  0  0  0  0999 V2000
   -3.8043    6.6911  -21.7801 C   0  0  0  0  0  0  0  0  0  0  0  0
   -4.6811    6.5471  -20.5493 C   0  0  0  0  0  0  0  0  0  0  0  0
   -4.7252    5.1477  -20.1235 N   0  0  0  0  0  0  0  0  0  0  0  0
   -5.4724    4.9225  -19.0145 C   0  0  0  0  0  0  0  0  0  0  0  0
   -6.6848    4.4324  -18.9871 N   0  0  0  0  0  0  0  0  0  0  0  0
   -7.0876    4.4945  -17.6726 C   0  0  0  0  0  0  0  0  0  0  0  0
   -8.3084    4.1863  -17.0476 C   0  0  0  0  0  0  0  0  0  0  0  0
   -9.5635    3.6490  -18.0665 Cl  0  0  0  0  0  0  0  0  0  0  0  0
   -8.4958    4.3893  -15.6795 C   0  0  0  0  0  0  0  0  0  0  0  0
   -7.4454    4.9094  -14.9265 C   0  0  0  0  0  0  0  0  0  0  0  0
   -7.6535    5.3371  -13.5244 C   0  0  0  0  0  0  0  0  0  0  0  0
   -7.5062    6.4664  -13.2694 O   0  0  0  0  0  0  0  0  0  0  0  0
   -8.0317    4.1480  -12.6174 N   0  0  0  0  0  0  0  0  0  0  0  0
   -8.2095    4.0833  -11.2370 C   0  0  0  0  0  0  0  0  0  0  0  0
   -8.0479    5.2255  -10.4328 C   0  0  0  0  0  0  0  0  0  0  0  0
   -8.2291    5.1622   -9.0474 C   0  0  0  0  0  0  0  0  0  0  0  0
   -8.5816    3.9474   -8.4932 C   0  0  0  0  0  0  0  0  0  0  0  0
   -8.7267    2.8114   -9.2850 C   0  0  0  0  0  0  0  0  0  0  0  0
   -8.5409    2.8573  -10.6567 C   0  0  0  0  0  0  0  0  0  0  0  0
   -9.0651    1.6525   -8.4073 C   0  0  0  0  0  0  0  0  0  0  0  0
   -9.5147    2.2606   -7.1277 N   0  0  0  0  0  0  0  0  0  0  0  0
   -8.8583    3.5863   -7.0719 C   0  0  0  0  0  0  0  0  0  0  0  0
   -6.1937    5.1842  -15.4949 C   0  0  0  0  0  0  0  0  0  0  0  0
   -6.0529    4.9714  -16.8718 C   0  0  0  0  0  0  0  0  0  0  0  0
   -5.0028    5.1517  -17.7451 N   0  0  0  0  0  0  0  0  0  0  0  0
   -3.6218    5.3851  -17.3768 C   0  0  0  0  0  0  0  0  0  0  0  0
   -3.5653    6.6345  -16.6286 N   0  0  0  0  0  0  0  0  0  0  0  0
  1  2  1  0
  2  3  1  0
  3  4  1  0
  4  5  2  0
  5  6  1  0
  6  7  2  0
  7  8  1  0
  7  9  1  0
  9 10  2  0
 10 11  1  0
 11 12  2  0
 11 13  1  0
 13 14  1  0
 14 15  2  0
 15 16  1  0
 16 17  2  0
 17 18  1  0
 18 19  2  0
 18 20  1  0
 20 21  1  0
 21 22  1  0
 10 23  1  0
 23 24  2  0
 24 25  1  0
 25 26  1  0
 26 27  1  0
 25  4  1  0
 24  6  1  0
 19 14  1  0
 22 17  1  0
M  END
>  <smiles>  (2707) 
C40801-P299

>  <fragmenstein_outcome>  (2707) 
acceptable

>  <inchikey>  (2707) 
SNKYWFRLXCVXKT-UHFFFAOYSA-N

>  <fragmenstein_mode>  (2707) 
expansion

>  <HIPPO Pose ID>  (2707) 
29709

>  <Energy>  (2707) 
43.008674

>  <fragmenstein_error>  (2707) 


>  <tags>  (2707) 
{'openbind_xx01zvns2b_c1_fragmenstein', 'fragmenstein_placed'}

>  <ref_pdb>  (2707) 
175

>  <scratch_subdir>  (2707) 
/opt/xchem-fragalysis-2/maxwin/BulkDock/SCRATCH/511028/C40801-P299

>  <alias>  (2707) 
CCNc1nc2c(Cl)cc(C(=O)Nc3ccc4c(c3)CNC4)cc2n1CN

>  <HIPPO Compound ID>  (2707) 
40801

>  <fragmenstein_runtime>  (2707) 
3.794587

$$$$
C[C@H]1CO[C@H]2CC[C@@]3(Nc4ccc(C(=O)Nc5ccc6c(c5)CNC6)cc4C3=O)N21
     RDKit          3D

 30 35  0  0  0  0  0  0  0  0999 V2000
   -4.9557    6.2889  -21.8672 C   0  0  0  0  0  0  0  0  0  0  0  0
   -3.7570    5.8338  -21.0335 C   0  0  1  0  0  0  0  0  0  0  0  0
   -2.5433    6.6701  -21.4291 C   0  0  0  0  0  0  0  0  0  0  0  0
   -2.7044    7.8395  -20.6297 O   0  0  0  0  0  0  0  0  0  0  0  0
   -3.1186    7.3103  -19.3688 C   0  0  1  0  0  0  0  0  0  0  0  0
   -4.1045    8.2721  -18.7410 C   0  0  0  0  0  0  0  0  0  0  0  0
   -5.4233    7.5335  -18.8348 C   0  0  0  0  0  0  0  0  0  0  0  0
   -5.0451    6.0373  -18.8487 C   0  0  2  0  0  0  0  0  0  0  0  0
   -6.2537    5.2455  -19.1646 N   0  0  0  0  0  0  0  0  0  0  0  0
   -6.7974    4.8520  -17.9144 C   0  0  0  0  0  0  0  0  0  0  0  0
   -8.0668    4.3420  -17.6964 C   0  0  0  0  0  0  0  0  0  0  0  0
   -8.5375    4.2675  -16.3698 C   0  0  0  0  0  0  0  0  0  0  0  0
   -7.7025    4.6296  -15.2921 C   0  0  0  0  0  0  0  0  0  0  0  0
   -8.2846    4.9658  -13.9700 C   0  0  0  0  0  0  0  0  0  0  0  0
   -8.8411    5.9866  -13.8750 O   0  0  0  0  0  0  0  0  0  0  0  0
   -7.9494    3.9087  -12.9025 N   0  0  0  0  0  0  0  0  0  0  0  0
   -8.1371    3.9252  -11.5214 C   0  0  0  0  0  0  0  0  0  0  0  0
   -8.2039    5.1498  -10.8328 C   0  0  0  0  0  0  0  0  0  0  0  0
   -8.3754    5.1868   -9.4443 C   0  0  0  0  0  0  0  0  0  0  0  0
   -8.5620    3.9895   -8.7805 C   0  0  0  0  0  0  0  0  0  0  0  0
   -8.5423    2.7791   -9.4672 C   0  0  0  0  0  0  0  0  0  0  0  0
   -8.2728    2.7236  -10.8268 C   0  0  0  0  0  0  0  0  0  0  0  0
   -8.8669    1.6740   -8.5147 C   0  0  0  0  0  0  0  0  0  0  0  0
   -9.3625    2.3497   -7.2834 N   0  0  0  0  0  0  0  0  0  0  0  0
   -8.8133    3.7216   -7.3350 C   0  0  0  0  0  0  0  0  0  0  0  0
   -6.3745    4.9959  -15.5081 C   0  0  0  0  0  0  0  0  0  0  0  0
   -5.9737    5.0976  -16.8255 C   0  0  0  0  0  0  0  0  0  0  0  0
   -4.7575    5.6659  -17.3637 C   0  0  0  0  0  0  0  0  0  0  0  0
   -3.7604    5.8736  -16.6941 O   0  0  0  0  0  0  0  0  0  0  0  0
   -3.7842    6.0144  -19.5847 N   0  0  0  0  0  0  0  0  0  0  0  0
  2  1  1  6
  2  3  1  0
  3  4  1  0
  4  5  1  0
  5  6  1  6
  6  7  1  0
  8  7  1  1
  8  9  1  0
  9 10  1  0
 10 11  2  0
 11 12  1  0
 12 13  2  0
 13 14  1  0
 14 15  2  0
 14 16  1  0
 16 17  1  0
 17 18  2  0
 18 19  1  0
 19 20  2  0
 20 21  1  0
 21 22  2  0
 21 23  1  0
 23 24  1  0
 24 25  1  0
 13 26  1  0
 26 27  2  0
 27 28  1  0
 28 29  2  0
  8 30  1  0
 30  2  1  0
 30  5  1  0
 28  8  1  0
 27 10  1  0
 22 17  1  0
 25 20  1  0
M  END
>  <smiles>  (2708) 
C40825-P299

>  <fragmenstein_outcome>  (2708) 
acceptable

>  <inchikey>  (2708) 
OJIPDPGNVXTDTE-UHFFFAOYSA-N

>  <fragmenstein_mode>  (2708) 
expansion

>  <HIPPO Pose ID>  (2708) 
29718

>  <Energy>  (2708) 
100.018679

>  <fragmenstein_error>  (2708) 


>  <tags>  (2708) 
{'openbind_xx01zvns2b_c1_fragmenstein', 'fragmenstein_placed'}

>  <ref_pdb>  (2708) 
175

>  <scratch_subdir>  (2708) 
/opt/xchem-fragalysis-2/maxwin/BulkDock/SCRATCH/511028/C40825-P299

>  <alias>  (2708) 
C[C@H]1CO[C@H]2CC[C@@]3(Nc4ccc(C(=O)Nc5ccc6c(c5)CNC6)cc4C3=O)N21

>  <HIPPO Compound ID>  (2708) 
40825

>  <fragmenstein_runtime>  (2708) 
6.27516

$$$$
Cc1cc(C(=O)Nc2ccc3c(c2)CNC3)cc2c1nc(NC(C)C)n2CN
     RDKit          3D

 28 31  0  0  0  0  0  0  0  0999 V2000
   -9.3418    3.7423  -18.0059 C   0  0  0  0  0  0  0  0  0  0  0  0
   -8.2288    4.2569  -17.1364 C   0  0  0  0  0  0  0  0  0  0  0  0
   -8.4485    4.4511  -15.7514 C   0  0  0  0  0  0  0  0  0  0  0  0
   -7.4604    5.0214  -14.9455 C   0  0  0  0  0  0  0  0  0  0  0  0
   -7.7164    5.4316  -13.5426 C   0  0  0  0  0  0  0  0  0  0  0  0
   -7.5145    6.5469  -13.2610 O   0  0  0  0  0  0  0  0  0  0  0  0
   -8.1260    4.2345  -12.6583 N   0  0  0  0  0  0  0  0  0  0  0  0
   -8.2760    4.1394  -11.2737 C   0  0  0  0  0  0  0  0  0  0  0  0
   -8.1257    5.2749  -10.4581 C   0  0  0  0  0  0  0  0  0  0  0  0
   -8.2562    5.1876   -9.0686 C   0  0  0  0  0  0  0  0  0  0  0  0
   -8.5492    3.9552   -8.5168 C   0  0  0  0  0  0  0  0  0  0  0  0
   -8.6956    2.8288   -9.3177 C   0  0  0  0  0  0  0  0  0  0  0  0
   -8.5574    2.8986  -10.6972 C   0  0  0  0  0  0  0  0  0  0  0  0
   -8.9760    1.6455   -8.4538 C   0  0  0  0  0  0  0  0  0  0  0  0
   -9.2265    2.1827   -7.0916 N   0  0  0  0  0  0  0  0  0  0  0  0
   -8.7540    3.5820   -7.0886 C   0  0  0  0  0  0  0  0  0  0  0  0
   -6.2029    5.3560  -15.4580 C   0  0  0  0  0  0  0  0  0  0  0  0
   -5.9751    5.1037  -16.8116 C   0  0  0  0  0  0  0  0  0  0  0  0
   -6.9584    4.5991  -17.6576 C   0  0  0  0  0  0  0  0  0  0  0  0
   -6.5011    4.5668  -18.9537 N   0  0  0  0  0  0  0  0  0  0  0  0
   -5.2912    5.0690  -18.9212 C   0  0  0  0  0  0  0  0  0  0  0  0
   -4.5084    5.3559  -19.9985 N   0  0  0  0  0  0  0  0  0  0  0  0
   -4.6847    6.7023  -20.5731 C   0  0  0  0  0  0  0  0  0  0  0  0
   -4.1718    7.8039  -19.6458 C   0  0  0  0  0  0  0  0  0  0  0  0
   -3.9424    6.7743  -21.9074 C   0  0  0  0  0  0  0  0  0  0  0  0
   -4.8722    5.2642  -17.6250 N   0  0  0  0  0  0  0  0  0  0  0  0
   -3.5512    5.7075  -17.2159 C   0  0  0  0  0  0  0  0  0  0  0  0
   -3.0302    4.8386  -16.1672 N   0  0  0  0  0  0  0  0  0  0  0  0
  1  2  1  0
  2  3  2  0
  3  4  1  0
  4  5  1  0
  5  6  2  0
  5  7  1  0
  7  8  1  0
  8  9  2  0
  9 10  1  0
 10 11  2  0
 11 12  1  0
 12 13  2  0
 12 14  1  0
 14 15  1  0
 15 16  1  0
  4 17  2  0
 17 18  1  0
 18 19  2  0
 19 20  1  0
 20 21  2  0
 21 22  1  0
 22 23  1  0
 23 24  1  0
 23 25  1  0
 21 26  1  0
 26 27  1  0
 27 28  1  0
 19  2  1  0
 13  8  1  0
 26 18  1  0
 16 11  1  0
M  END
>  <smiles>  (2709) 
C40828-P299

>  <fragmenstein_outcome>  (2709) 
acceptable

>  <inchikey>  (2709) 
WCUGPRSFJXJLAR-UHFFFAOYSA-N

>  <fragmenstein_mode>  (2709) 
expansion

>  <HIPPO Pose ID>  (2709) 
29720

>  <Energy>  (2709) 
44.0431

>  <fragmenstein_error>  (2709) 


>  <tags>  (2709) 
{'openbind_xx01zvns2b_c1_fragmenstein', 'fragmenstein_placed'}

>  <ref_pdb>  (2709) 
175

>  <scratch_subdir>  (2709) 
/opt/xchem-fragalysis-2/maxwin/BulkDock/SCRATCH/511028/C40828-P299

>  <alias>  (2709) 
Cc1cc(C(=O)Nc2ccc3c(c2)CNC3)cc2c1nc(NC(C)C)n2CN

>  <HIPPO Compound ID>  (2709) 
42582

>  <fragmenstein_runtime>  (2709) 
5.786665

$$$$
C[C@@H]1C[C@H](CN)n2c(nc3ccc(C(=O)Nc4ccc5c(c4)CNC5)cc32)N1
     RDKit          3D

 28 32  0  0  0  0  0  0  0  0999 V2000
   -4.1319    6.7871  -21.6676 C   0  0  0  0  0  0  0  0  0  0  0  0
   -4.6668    6.5644  -20.2591 C   0  0  2  0  0  0  0  0  0  0  0  0
   -3.5264    6.3815  -19.2554 C   0  0  0  0  0  0  0  0  0  0  0  0
   -4.0704    6.1004  -17.8327 C   0  0  2  0  0  0  0  0  0  0  0  0
   -3.0034    5.3863  -16.9816 C   0  0  0  0  0  0  0  0  0  0  0  0
   -1.7655    6.1662  -16.8473 N   0  0  0  0  0  0  0  0  0  0  0  0
   -5.3238    5.3529  -17.8657 N   0  0  0  0  0  0  0  0  0  0  0  0
   -5.9563    4.9902  -19.0261 C   0  0  0  0  0  0  0  0  0  0  0  0
   -7.0780    4.3686  -18.7981 N   0  0  0  0  0  0  0  0  0  0  0  0
   -7.2753    4.4758  -17.4554 C   0  0  0  0  0  0  0  0  0  0  0  0
   -8.3987    4.0997  -16.7086 C   0  0  0  0  0  0  0  0  0  0  0  0
   -8.4171    4.3841  -15.3426 C   0  0  0  0  0  0  0  0  0  0  0  0
   -7.3266    5.0162  -14.7332 C   0  0  0  0  0  0  0  0  0  0  0  0
   -7.3924    5.4044  -13.2992 C   0  0  0  0  0  0  0  0  0  0  0  0
   -7.0658    6.4841  -12.9969 O   0  0  0  0  0  0  0  0  0  0  0  0
   -7.9533    4.2495  -12.4386 N   0  0  0  0  0  0  0  0  0  0  0  0
   -8.1338    4.1532  -11.0628 C   0  0  0  0  0  0  0  0  0  0  0  0
   -7.9720    5.2719  -10.2294 C   0  0  0  0  0  0  0  0  0  0  0  0
   -8.1911    5.1749   -8.8520 C   0  0  0  0  0  0  0  0  0  0  0  0
   -8.5772    3.9515   -8.3388 C   0  0  0  0  0  0  0  0  0  0  0  0
   -8.7212    2.8386   -9.1628 C   0  0  0  0  0  0  0  0  0  0  0  0
   -8.5048    2.9179  -10.5266 C   0  0  0  0  0  0  0  0  0  0  0  0
   -9.0949    1.6616   -8.3260 C   0  0  0  0  0  0  0  0  0  0  0  0
   -9.5688    2.2423   -7.0432 N   0  0  0  0  0  0  0  0  0  0  0  0
   -8.8949    3.5565   -6.9352 C   0  0  0  0  0  0  0  0  0  0  0  0
   -6.1888    5.3930  -15.4646 C   0  0  0  0  0  0  0  0  0  0  0  0
   -6.1968    5.1055  -16.8326 C   0  0  0  0  0  0  0  0  0  0  0  0
   -5.4760    5.3611  -20.2267 N   0  0  0  0  0  0  0  0  0  0  0  0
  2  1  1  6
  2  3  1  0
  3  4  1  0
  4  5  1  1
  5  6  1  0
  4  7  1  0
  7  8  1  0
  8  9  2  0
  9 10  1  0
 10 11  2  0
 11 12  1  0
 12 13  2  0
 13 14  1  0
 14 15  2  0
 14 16  1  0
 16 17  1  0
 17 18  2  0
 18 19  1  0
 19 20  2  0
 20 21  1  0
 21 22  2  0
 21 23  1  0
 23 24  1  0
 24 25  1  0
 13 26  1  0
 26 27  2  0
  8 28  1  0
 28  2  1  0
 27  7  1  0
 27 10  1  0
 22 17  1  0
 25 20  1  0
M  END
>  <smiles>  (2710) 
C40832-P299

>  <fragmenstein_outcome>  (2710) 
acceptable

>  <inchikey>  (2710) 
UDWOFCRCYFHKHP-UHFFFAOYSA-N

>  <fragmenstein_mode>  (2710) 
expansion

>  <HIPPO Pose ID>  (2710) 
29722

>  <Energy>  (2710) 
24.399967

>  <fragmenstein_error>  (2710) 


>  <tags>  (2710) 
{'openbind_xx01zvns2b_c1_fragmenstein', 'fragmenstein_placed'}

>  <ref_pdb>  (2710) 
175

>  <scratch_subdir>  (2710) 
/opt/xchem-fragalysis-2/maxwin/BulkDock/SCRATCH/511028/C40832-P299

>  <alias>  (2710) 
C[C@@H]1C[C@H](CN)n2c(nc3ccc(C(=O)Nc4ccc5c(c4)CNC5)cc32)N1

>  <HIPPO Compound ID>  (2710) 
40832

>  <fragmenstein_runtime>  (2710) 
5.673529

$$$$
C[C@H](CNN[C@H](C)c1cn(-c2ccccc2)nn1)Nc1nc2ccc(C(=O)Nc3ccc4c(c3)CNC4)cc2[nH]1
     RDKit          3D

 40 45  0  0  0  0  0  0  0  0999 V2000
   -5.2315    7.9676  -20.2958 C   0  0  0  0  0  0  0  0  0  0  0  0
   -4.1672    6.8741  -20.1635 C   0  0  2  0  0  0  0  0  0  0  0  0
   -3.1487    6.9241  -21.3314 C   0  0  0  0  0  0  0  0  0  0  0  0
   -3.7747    6.9200  -22.6607 N   0  0  0  0  0  0  0  0  0  0  0  0
   -2.7362    7.0075  -23.6780 N   0  0  0  0  0  0  0  0  0  0  0  0
   -3.2614    6.6909  -25.0285 C   0  0  2  0  0  0  0  0  0  0  0  0
   -2.0942    6.7211  -26.0174 C   0  0  0  0  0  0  0  0  0  0  0  0
   -4.3441    7.6355  -25.4429 C   0  0  0  0  0  0  0  0  0  0  0  0
   -5.6125    7.3491  -25.9019 C   0  0  0  0  0  0  0  0  0  0  0  0
   -6.1788    8.5725  -26.1680 N   0  0  0  0  0  0  0  0  0  0  0  0
   -7.4592    8.8610  -26.7053 C   0  0  0  0  0  0  0  0  0  0  0  0
   -8.3160    7.8333  -27.1234 C   0  0  0  0  0  0  0  0  0  0  0  0
   -9.5626    8.1476  -27.6717 C   0  0  0  0  0  0  0  0  0  0  0  0
   -9.9671    9.4760  -27.7902 C   0  0  0  0  0  0  0  0  0  0  0  0
   -9.1213   10.5004  -27.3719 C   0  0  0  0  0  0  0  0  0  0  0  0
   -7.8679   10.1977  -26.8363 C   0  0  0  0  0  0  0  0  0  0  0  0
   -5.2961    9.5543  -25.8531 N   0  0  0  0  0  0  0  0  0  0  0  0
   -4.1713    8.9931  -25.4311 N   0  0  0  0  0  0  0  0  0  0  0  0
   -4.7927    5.5412  -20.0614 N   0  0  0  0  0  0  0  0  0  0  0  0
   -5.4945    5.2352  -18.9421 C   0  0  0  0  0  0  0  0  0  0  0  0
   -6.6650    4.6522  -18.8836 N   0  0  0  0  0  0  0  0  0  0  0  0
   -7.0471    4.7146  -17.5653 C   0  0  0  0  0  0  0  0  0  0  0  0
   -8.2471    4.3297  -16.9440 C   0  0  0  0  0  0  0  0  0  0  0  0
   -8.4037    4.5495  -15.5637 C   0  0  0  0  0  0  0  0  0  0  0  0
   -7.3749    5.1393  -14.8193 C   0  0  0  0  0  0  0  0  0  0  0  0
   -7.5451    5.5091  -13.3851 C   0  0  0  0  0  0  0  0  0  0  0  0
   -7.1830    6.6166  -13.0998 O   0  0  0  0  0  0  0  0  0  0  0  0
   -8.0677    4.4525  -12.5665 N   0  0  0  0  0  0  0  0  0  0  0  0
   -8.2275    4.3594  -11.1810 C   0  0  0  0  0  0  0  0  0  0  0  0
   -7.9882    5.4651  -10.3447 C   0  0  0  0  0  0  0  0  0  0  0  0
   -8.1134    5.3608   -8.9550 C   0  0  0  0  0  0  0  0  0  0  0  0
   -8.4873    4.1419   -8.4226 C   0  0  0  0  0  0  0  0  0  0  0  0
   -8.7293    3.0468   -9.2442 C   0  0  0  0  0  0  0  0  0  0  0  0
   -8.6050    3.1344  -10.6239 C   0  0  0  0  0  0  0  0  0  0  0  0
   -9.0704    1.8654   -8.3984 C   0  0  0  0  0  0  0  0  0  0  0  0
   -9.2911    2.4015   -7.0281 N   0  0  0  0  0  0  0  0  0  0  0  0
   -8.6779    3.7441   -6.9986 C   0  0  0  0  0  0  0  0  0  0  0  0
   -6.1587    5.5070  -15.4225 C   0  0  0  0  0  0  0  0  0  0  0  0
   -6.0411    5.2799  -16.7923 C   0  0  0  0  0  0  0  0  0  0  0  0
   -5.0381    5.5388  -17.6869 N   0  0  0  0  0  0  0  0  0  0  0  0
  2  1  1  6
  2  3  1  0
  3  4  1  0
  4  5  1  0
  5  6  1  0
  6  7  1  6
  6  8  1  0
  8  9  2  0
  9 10  1  0
 10 11  1  0
 11 12  2  0
 12 13  1  0
 13 14  2  0
 14 15  1  0
 15 16  2  0
 10 17  1  0
 17 18  2  0
  2 19  1  0
 19 20  1  0
 20 21  2  0
 21 22  1  0
 22 23  2  0
 23 24  1  0
 24 25  2  0
 25 26  1  0
 26 27  2  0
 26 28  1  0
 28 29  1  0
 29 30  2  0
 30 31  1  0
 31 32  2  0
 32 33  1  0
 33 34  2  0
 33 35  1  0
 35 36  1  0
 36 37  1  0
 25 38  1  0
 38 39  2  0
 39 40  1  0
 18  8  1  0
 40 20  1  0
 16 11  1  0
 39 22  1  0
 34 29  1  0
 37 32  1  0
M  END
>  <smiles>  (2711) 
C40848-P108

>  <fragmenstein_outcome>  (2711) 
acceptable

>  <inchikey>  (2711) 
LPMFBBPYLRYRDV-UHFFFAOYSA-N

>  <fragmenstein_mode>  (2711) 
expansion

>  <HIPPO Pose ID>  (2711) 
29728

>  <Energy>  (2711) 
126.345621

>  <fragmenstein_error>  (2711) 


>  <tags>  (2711) 
{'openbind_xx01zvns2b_c1_fragmenstein', 'fragmenstein_placed'}

>  <ref_pdb>  (2711) 
175

>  <scratch_subdir>  (2711) 
/opt/xchem-fragalysis-2/maxwin/BulkDock/SCRATCH/511028/C40848-P108

>  <alias>  (2711) 
C[C@H](CNN[C@H](C)c1cn(-c2ccccc2)nn1)Nc1nc2ccc(C(=O)Nc3ccc4c(c3)CNC4)cc2[nH]1

>  <HIPPO Compound ID>  (2711) 
23249

>  <fragmenstein_runtime>  (2711) 
29.768512

$$$$
CC(C)Nc1nc2cc(C(=O)Nc3ccc4c(c3)CNC4)ccc2[nH]1
     RDKit          3D

 25 28  0  0  0  0  0  0  0  0999 V2000
   -3.0920    7.1655  -18.9265 C   0  0  0  0  0  0  0  0  0  0  0  0
   -3.2357    5.7036  -19.3488 C   0  0  0  0  0  0  0  0  0  0  0  0
   -2.4502    4.7583  -18.4482 C   0  0  0  0  0  0  0  0  0  0  0  0
   -4.6357    5.3168  -19.5184 N   0  0  0  0  0  0  0  0  0  0  0  0
   -5.4325    5.2293  -18.4458 C   0  0  0  0  0  0  0  0  0  0  0  0
   -5.1376    5.5996  -17.2294 N   0  0  0  0  0  0  0  0  0  0  0  0
   -6.2074    5.2451  -16.4797 C   0  0  0  0  0  0  0  0  0  0  0  0
   -6.3882    5.4415  -15.1175 C   0  0  0  0  0  0  0  0  0  0  0  0
   -7.6039    5.0473  -14.5646 C   0  0  0  0  0  0  0  0  0  0  0  0
   -7.7996    5.4224  -13.1511 C   0  0  0  0  0  0  0  0  0  0  0  0
   -7.6682    6.5437  -12.8577 O   0  0  0  0  0  0  0  0  0  0  0  0
   -8.0583    4.1848  -12.2733 N   0  0  0  0  0  0  0  0  0  0  0  0
   -8.2957    4.0799  -10.9083 C   0  0  0  0  0  0  0  0  0  0  0  0
   -8.1977    5.2126  -10.0815 C   0  0  0  0  0  0  0  0  0  0  0  0
   -8.3723    5.1089   -8.7006 C   0  0  0  0  0  0  0  0  0  0  0  0
   -8.6690    3.8664   -8.1759 C   0  0  0  0  0  0  0  0  0  0  0  0
   -8.7755    2.7469   -8.9943 C   0  0  0  0  0  0  0  0  0  0  0  0
   -8.5803    2.8291  -10.3628 C   0  0  0  0  0  0  0  0  0  0  0  0
   -9.0640    1.5506   -8.1541 C   0  0  0  0  0  0  0  0  0  0  0  0
   -9.3940    2.0752   -6.8052 N   0  0  0  0  0  0  0  0  0  0  0  0
   -8.9051    3.4679   -6.7596 C   0  0  0  0  0  0  0  0  0  0  0  0
   -8.5910    4.4218  -15.3330 C   0  0  0  0  0  0  0  0  0  0  0  0
   -8.4152    4.2179  -16.7110 C   0  0  0  0  0  0  0  0  0  0  0  0
   -7.2080    4.6664  -17.2510 C   0  0  0  0  0  0  0  0  0  0  0  0
   -6.7001    4.7123  -18.5273 N   0  0  0  0  0  0  0  0  0  0  0  0
  1  2  1  0
  2  3  1  0
  2  4  1  0
  4  5  1  0
  5  6  2  0
  6  7  1  0
  7  8  2  0
  8  9  1  0
  9 10  1  0
 10 11  2  0
 10 12  1  0
 12 13  1  0
 13 14  2  0
 14 15  1  0
 15 16  2  0
 16 17  1  0
 17 18  2  0
 17 19  1  0
 19 20  1  0
 20 21  1  0
  9 22  2  0
 22 23  1  0
 23 24  2  0
 24 25  1  0
 25  5  1  0
 24  7  1  0
 18 13  1  0
 21 16  1  0
M  END
>  <smiles>  (2712) 
C273-P299

>  <fragmenstein_outcome>  (2712) 
acceptable

>  <inchikey>  (2712) 
IYXLKPDATFEZAX-UHFFFAOYSA-N

>  <fragmenstein_mode>  (2712) 
expansion

>  <HIPPO Pose ID>  (2712) 
29738

>  <Energy>  (2712) 
12.268316

>  <fragmenstein_error>  (2712) 


>  <tags>  (2712) 
{'openbind_xx01zvns2b_c1_fragmenstein', 'fragmenstein_placed'}

>  <ref_pdb>  (2712) 
175

>  <scratch_subdir>  (2712) 
/opt/xchem-fragalysis-2/maxwin/BulkDock/SCRATCH/511028/C273-P299

>  <alias>  (2712) 
CC(C)Nc1nc2cc(C(=O)Nc3ccc4c(c3)CNC4)ccc2[nH]1

>  <HIPPO Compound ID>  (2712) 
38060

>  <fragmenstein_runtime>  (2712) 
4.202543

$$$$
CC(C)Nc1nc2c(N)c(C(=O)Nc3ccc4c(c3)CNC4)ccc2n1Cl
     RDKit          3D

 27 30  0  0  0  0  0  0  0  0999 V2000
   -2.6037    6.0188  -20.6294 C   0  0  0  0  0  0  0  0  0  0  0  0
   -3.2377    5.6337  -19.2932 C   0  0  0  0  0  0  0  0  0  0  0  0
   -2.4178    4.5435  -18.6158 C   0  0  0  0  0  0  0  0  0  0  0  0
   -4.6080    5.1922  -19.5444 N   0  0  0  0  0  0  0  0  0  0  0  0
   -5.4447    5.1141  -18.4922 C   0  0  0  0  0  0  0  0  0  0  0  0
   -5.1895    5.5998  -17.3028 N   0  0  0  0  0  0  0  0  0  0  0  0
   -6.2451    5.2116  -16.5295 C   0  0  0  0  0  0  0  0  0  0  0  0
   -6.3930    5.4506  -15.1590 C   0  0  0  0  0  0  0  0  0  0  0  0
   -5.3367    6.0260  -14.4384 N   0  0  0  0  0  0  0  0  0  0  0  0
   -7.6045    5.0397  -14.5871 C   0  0  0  0  0  0  0  0  0  0  0  0
   -7.8757    5.4346  -13.1893 C   0  0  0  0  0  0  0  0  0  0  0  0
   -7.8551    6.5707  -12.9197 O   0  0  0  0  0  0  0  0  0  0  0  0
   -8.1241    4.1999  -12.2989 N   0  0  0  0  0  0  0  0  0  0  0  0
   -8.2989    4.0988  -10.9242 C   0  0  0  0  0  0  0  0  0  0  0  0
   -8.1671    5.2298  -10.1012 C   0  0  0  0  0  0  0  0  0  0  0  0
   -8.3247    5.1297   -8.7174 C   0  0  0  0  0  0  0  0  0  0  0  0
   -8.6329    3.8922   -8.1861 C   0  0  0  0  0  0  0  0  0  0  0  0
   -8.7630    2.7724   -9.0003 C   0  0  0  0  0  0  0  0  0  0  0  0
   -8.5882    2.8514  -10.3715 C   0  0  0  0  0  0  0  0  0  0  0  0
   -9.0596    1.5814   -8.1552 C   0  0  0  0  0  0  0  0  0  0  0  0
   -9.3715    2.1136   -6.8049 N   0  0  0  0  0  0  0  0  0  0  0  0
   -8.8633    3.5000   -6.7670 C   0  0  0  0  0  0  0  0  0  0  0  0
   -8.5963    4.3873  -15.3355 C   0  0  0  0  0  0  0  0  0  0  0  0
   -8.4232    4.1151  -16.6970 C   0  0  0  0  0  0  0  0  0  0  0  0
   -7.2240    4.5546  -17.2611 C   0  0  0  0  0  0  0  0  0  0  0  0
   -6.6627    4.4716  -18.5040 N   0  0  0  0  0  0  0  0  0  0  0  0
   -7.2901    3.5104  -19.7783 Cl  0  0  0  0  0  0  0  0  0  0  0  0
  1  2  1  0
  2  3  1  0
  2  4  1  0
  4  5  1  0
  5  6  2  0
  6  7  1  0
  7  8  2  0
  8  9  1  0
  8 10  1  0
 10 11  1  0
 11 12  2  0
 11 13  1  0
 13 14  1  0
 14 15  2  0
 15 16  1  0
 16 17  2  0
 17 18  1  0
 18 19  2  0
 18 20  1  0
 20 21  1  0
 21 22  1  0
 10 23  2  0
 23 24  1  0
 24 25  2  0
 25 26  1  0
 26 27  1  0
 26  5  1  0
 25  7  1  0
 19 14  1  0
 22 17  1  0
M  END
>  <smiles>  (2713) 
C40884-P299

>  <fragmenstein_outcome>  (2713) 
acceptable

>  <inchikey>  (2713) 
QPXRIAKEPAJDGT-UHFFFAOYSA-N

>  <fragmenstein_mode>  (2713) 
expansion

>  <HIPPO Pose ID>  (2713) 
29743

>  <Energy>  (2713) 
89.316093

>  <fragmenstein_error>  (2713) 


>  <tags>  (2713) 
{'openbind_xx01zvns2b_c1_fragmenstein', 'fragmenstein_placed'}

>  <ref_pdb>  (2713) 
175

>  <scratch_subdir>  (2713) 
/opt/xchem-fragalysis-2/maxwin/BulkDock/SCRATCH/511028/C40884-P299

>  <alias>  (2713) 
CC(C)Nc1nc2c(N)c(C(=O)Nc3ccc4c(c3)CNC4)ccc2n1Cl

>  <HIPPO Compound ID>  (2713) 
21533

>  <fragmenstein_runtime>  (2713) 
5.752043

$$$$
C[C@H](Cc1ccccc1)N(CO)c1nc2c(Cl)cc(C(=O)Nc3ccc4c(c3)CN(N)C4)cc2[nH]1
     RDKit          3D

 35 39  0  0  0  0  0  0  0  0999 V2000
   -5.1034    6.4340  -21.8467 C   0  0  0  0  0  0  0  0  0  0  0  0
   -4.8587    6.9139  -20.4198 C   0  0  2  0  0  0  0  0  0  0  0  0
   -3.9853    8.1903  -20.3828 C   0  0  0  0  0  0  0  0  0  0  0  0
   -4.7925    9.4660  -20.4708 C   0  0  0  0  0  0  0  0  0  0  0  0
   -4.9780   10.1192  -21.6947 C   0  0  0  0  0  0  0  0  0  0  0  0
   -5.7116   11.3051  -21.7549 C   0  0  0  0  0  0  0  0  0  0  0  0
   -6.2692   11.8438  -20.5956 C   0  0  0  0  0  0  0  0  0  0  0  0
   -6.1017   11.1941  -19.3745 C   0  0  0  0  0  0  0  0  0  0  0  0
   -5.3677   10.0097  -19.3119 C   0  0  0  0  0  0  0  0  0  0  0  0
   -4.2380    5.8847  -19.5676 N   0  0  0  0  0  0  0  0  0  0  0  0
   -3.0463    5.1935  -20.0111 C   0  0  0  0  0  0  0  0  0  0  0  0
   -2.1514    5.0164  -18.9225 O   0  0  0  0  0  0  0  0  0  0  0  0
   -5.0592    5.2652  -18.6871 C   0  0  0  0  0  0  0  0  0  0  0  0
   -6.2974    4.8457  -18.8104 N   0  0  0  0  0  0  0  0  0  0  0  0
   -6.7708    4.6713  -17.5226 C   0  0  0  0  0  0  0  0  0  0  0  0
   -8.0273    4.3006  -16.9980 C   0  0  0  0  0  0  0  0  0  0  0  0
   -9.2268    3.8053  -18.1094 Cl  0  0  0  0  0  0  0  0  0  0  0  0
   -8.2993    4.4183  -15.6291 C   0  0  0  0  0  0  0  0  0  0  0  0
   -7.2944    4.8868  -14.7827 C   0  0  0  0  0  0  0  0  0  0  0  0
   -7.5858    5.3304  -13.4022 C   0  0  0  0  0  0  0  0  0  0  0  0
   -7.3626    6.4488  -13.1511 O   0  0  0  0  0  0  0  0  0  0  0  0
   -8.0590    4.1765  -12.4941 N   0  0  0  0  0  0  0  0  0  0  0  0
   -8.2594    4.1331  -11.1140 C   0  0  0  0  0  0  0  0  0  0  0  0
   -8.0932    5.3017  -10.3491 C   0  0  0  0  0  0  0  0  0  0  0  0
   -8.2323    5.2807   -8.9617 C   0  0  0  0  0  0  0  0  0  0  0  0
   -8.5529    4.0802   -8.3596 C   0  0  0  0  0  0  0  0  0  0  0  0
   -8.7359    2.9212   -9.1077 C   0  0  0  0  0  0  0  0  0  0  0  0
   -8.5870    2.9260  -10.4896 C   0  0  0  0  0  0  0  0  0  0  0  0
   -9.0526    1.7830   -8.1857 C   0  0  0  0  0  0  0  0  0  0  0  0
   -9.1636    2.3724   -6.8137 N   0  0  0  0  0  0  0  0  0  0  0  0
  -10.5078    2.2865   -6.2675 N   0  0  0  0  0  0  0  0  0  0  0  0
   -8.7407    3.7903   -6.9075 C   0  0  0  0  0  0  0  0  0  0  0  0
   -5.9937    5.1474  -15.2429 C   0  0  0  0  0  0  0  0  0  0  0  0
   -5.7764    5.0247  -16.6118 C   0  0  0  0  0  0  0  0  0  0  0  0
   -4.6664    5.2449  -17.3786 N   0  0  0  0  0  0  0  0  0  0  0  0
  2  1  1  6
  2  3  1  0
  3  4  1  0
  4  5  2  0
  5  6  1  0
  6  7  2  0
  7  8  1  0
  8  9  2  0
  2 10  1  0
 10 11  1  0
 11 12  1  0
 10 13  1  0
 13 14  2  0
 14 15  1  0
 15 16  2  0
 16 17  1  0
 16 18  1  0
 18 19  2  0
 19 20  1  0
 20 21  2  0
 20 22  1  0
 22 23  1  0
 23 24  2  0
 24 25  1  0
 25 26  2  0
 26 27  1  0
 27 28  2  0
 27 29  1  0
 29 30  1  0
 30 31  1  0
 30 32  1  0
 19 33  1  0
 33 34  2  0
 34 35  1  0
  9  4  1  0
 35 13  1  0
 34 15  1  0
 28 23  1  0
 32 26  1  0
M  END
>  <smiles>  (2714) 
C40905-P299

>  <fragmenstein_outcome>  (2714) 
acceptable

>  <inchikey>  (2714) 
VUMOOYTWFDNZDH-UHFFFAOYSA-N

>  <fragmenstein_mode>  (2714) 
expansion

>  <HIPPO Pose ID>  (2714) 
29749

>  <Energy>  (2714) 
108.384786

>  <fragmenstein_error>  (2714) 


>  <tags>  (2714) 
{'openbind_xx01zvns2b_c1_fragmenstein', 'fragmenstein_placed'}

>  <ref_pdb>  (2714) 
175

>  <scratch_subdir>  (2714) 
/opt/xchem-fragalysis-2/maxwin/BulkDock/SCRATCH/511028/C40905-P299

>  <alias>  (2714) 
C[C@H](Cc1ccccc1)N(CO)c1nc2c(Cl)cc(C(=O)Nc3ccc4c(c3)CN(N)C4)cc2[nH]1

>  <HIPPO Compound ID>  (2714) 
24329

>  <fragmenstein_runtime>  (2714) 
10.635208

$$$$
CC(C)Nc1nc2c(F)cc(C(=O)Nc3ccc4c(c3)CNC4)cc2[nH]1
     RDKit          3D

 26 29  0  0  0  0  0  0  0  0999 V2000
   -2.5740    5.8760  -20.7269 C   0  0  0  0  0  0  0  0  0  0  0  0
   -3.1002    5.2963  -19.4041 C   0  0  0  0  0  0  0  0  0  0  0  0
   -2.2851    5.8989  -18.2637 C   0  0  0  0  0  0  0  0  0  0  0  0
   -4.5345    5.6043  -19.3661 N   0  0  0  0  0  0  0  0  0  0  0  0
   -5.3402    5.2098  -18.3699 C   0  0  0  0  0  0  0  0  0  0  0  0
   -6.5119    4.6372  -18.4819 N   0  0  0  0  0  0  0  0  0  0  0  0
   -7.0430    4.6220  -17.2152 C   0  0  0  0  0  0  0  0  0  0  0  0
   -8.2861    4.1881  -16.7193 C   0  0  0  0  0  0  0  0  0  0  0  0
   -9.2148    3.6449  -17.5226 F   0  0  0  0  0  0  0  0  0  0  0  0
   -8.5893    4.3863  -15.3667 C   0  0  0  0  0  0  0  0  0  0  0  0
   -7.6667    5.0181  -14.5321 C   0  0  0  0  0  0  0  0  0  0  0  0
   -7.9718    5.4079  -13.1442 C   0  0  0  0  0  0  0  0  0  0  0  0
   -7.8956    6.5373  -12.8639 O   0  0  0  0  0  0  0  0  0  0  0  0
   -8.2528    4.1787  -12.2640 N   0  0  0  0  0  0  0  0  0  0  0  0
   -8.4006    4.0694  -10.8866 C   0  0  0  0  0  0  0  0  0  0  0  0
   -8.2633    5.2022  -10.0650 C   0  0  0  0  0  0  0  0  0  0  0  0
   -8.3822    5.1000   -8.6783 C   0  0  0  0  0  0  0  0  0  0  0  0
   -8.6663    3.8594   -8.1429 C   0  0  0  0  0  0  0  0  0  0  0  0
   -8.8018    2.7384   -8.9557 C   0  0  0  0  0  0  0  0  0  0  0  0
   -8.6564    2.8179  -10.3300 C   0  0  0  0  0  0  0  0  0  0  0  0
   -9.0740    1.5462   -8.1047 C   0  0  0  0  0  0  0  0  0  0  0  0
   -9.3816    2.0802   -6.7547 N   0  0  0  0  0  0  0  0  0  0  0  0
   -8.8721    3.4655   -6.7206 C   0  0  0  0  0  0  0  0  0  0  0  0
   -6.4070    5.4171  -14.9827 C   0  0  0  0  0  0  0  0  0  0  0  0
   -6.1471    5.2038  -16.3242 C   0  0  0  0  0  0  0  0  0  0  0  0
   -5.0718    5.5470  -17.0825 N   0  0  0  0  0  0  0  0  0  0  0  0
  1  2  1  0
  2  3  1  0
  2  4  1  0
  4  5  1  0
  5  6  2  0
  6  7  1  0
  7  8  2  0
  8  9  1  0
  8 10  1  0
 10 11  2  0
 11 12  1  0
 12 13  2  0
 12 14  1  0
 14 15  1  0
 15 16  2  0
 16 17  1  0
 17 18  2  0
 18 19  1  0
 19 20  2  0
 19 21  1  0
 21 22  1  0
 22 23  1  0
 11 24  1  0
 24 25  2  0
 25 26  1  0
 26  5  1  0
 25  7  1  0
 20 15  1  0
 23 18  1  0
M  END
>  <smiles>  (2715) 
C40915-P299

>  <fragmenstein_outcome>  (2715) 
acceptable

>  <inchikey>  (2715) 
FCJFBVSWKPIIBY-UHFFFAOYSA-N

>  <fragmenstein_mode>  (2715) 
expansion

>  <HIPPO Pose ID>  (2715) 
29750

>  <Energy>  (2715) 
32.048993

>  <fragmenstein_error>  (2715) 


>  <tags>  (2715) 
{'openbind_xx01zvns2b_c1_fragmenstein', 'fragmenstein_placed'}

>  <ref_pdb>  (2715) 
175

>  <scratch_subdir>  (2715) 
/opt/xchem-fragalysis-2/maxwin/BulkDock/SCRATCH/511028/C40915-P299

>  <alias>  (2715) 
CC(C)Nc1nc2c(F)cc(C(=O)Nc3ccc4c(c3)CNC4)cc2[nH]1

>  <HIPPO Compound ID>  (2715) 
40915

>  <fragmenstein_runtime>  (2715) 
4.137038

$$$$
C[C@@H]1C[C@](C)(S(C)(=O)=O)n2c(nc3c(F)cc(C(=O)Nc4ccc5c(c4)CNC5)cc32)N1
     RDKit          3D

 32 36  0  0  0  0  0  0  0  0999 V2000
   -4.5411    7.1779  -21.4868 C   0  0  0  0  0  0  0  0  0  0  0  0
   -5.0156    6.7871  -20.0916 C   0  0  2  0  0  0  0  0  0  0  0  0
   -3.8465    6.6302  -19.1276 C   0  0  0  0  0  0  0  0  0  0  0  0
   -4.2874    6.0868  -17.7182 C   0  0  2  0  0  0  0  0  0  0  0  0
   -4.5322    7.2912  -16.7924 C   0  0  0  0  0  0  0  0  0  0  0  0
   -2.8821    5.1254  -17.0745 S   0  0  0  0  0  0  0  0  0  0  0  0
   -1.4916    6.2410  -17.1070 C   0  0  0  0  0  0  0  0  0  0  0  0
   -3.1087    4.8185  -15.6735 O   0  0  0  0  0  0  0  0  0  0  0  0
   -2.5767    4.0759  -18.0251 O   0  0  0  0  0  0  0  0  0  0  0  0
   -5.5060    5.2687  -17.8084 N   0  0  0  0  0  0  0  0  0  0  0  0
   -6.1327    5.0042  -18.9956 C   0  0  0  0  0  0  0  0  0  0  0  0
   -7.2556    4.3672  -18.8380 N   0  0  0  0  0  0  0  0  0  0  0  0
   -7.4914    4.3864  -17.5002 C   0  0  0  0  0  0  0  0  0  0  0  0
   -8.6533    4.0428  -16.7932 C   0  0  0  0  0  0  0  0  0  0  0  0
   -9.7566    3.6295  -17.4364 F   0  0  0  0  0  0  0  0  0  0  0  0
   -8.6984    4.2495  -15.4177 C   0  0  0  0  0  0  0  0  0  0  0  0
   -7.5843    4.7562  -14.7540 C   0  0  0  0  0  0  0  0  0  0  0  0
   -7.6723    5.1974  -13.3440 C   0  0  0  0  0  0  0  0  0  0  0  0
   -7.3531    6.2918  -13.0931 O   0  0  0  0  0  0  0  0  0  0  0  0
   -8.1913    4.0733  -12.4276 N   0  0  0  0  0  0  0  0  0  0  0  0
   -8.3330    4.0279  -11.0453 C   0  0  0  0  0  0  0  0  0  0  0  0
   -8.1408    5.1805  -10.2653 C   0  0  0  0  0  0  0  0  0  0  0  0
   -8.2783    5.1348   -8.8760 C   0  0  0  0  0  0  0  0  0  0  0  0
   -8.6132    3.9265   -8.2945 C   0  0  0  0  0  0  0  0  0  0  0  0
   -8.7985    2.7850   -9.0663 C   0  0  0  0  0  0  0  0  0  0  0  0
   -8.6634    2.8142  -10.4435 C   0  0  0  0  0  0  0  0  0  0  0  0
   -9.0879    1.6279   -8.1736 C   0  0  0  0  0  0  0  0  0  0  0  0
   -9.3562    2.2118   -6.8339 N   0  0  0  0  0  0  0  0  0  0  0  0
   -8.8127    3.5861   -6.8574 C   0  0  0  0  0  0  0  0  0  0  0  0
   -6.3901    5.0403  -15.4254 C   0  0  0  0  0  0  0  0  0  0  0  0
   -6.3889    4.9043  -16.8139 C   0  0  0  0  0  0  0  0  0  0  0  0
   -5.6823    5.5146  -20.1496 N   0  0  0  0  0  0  0  0  0  0  0  0
  2  1  1  6
  2  3  1  0
  3  4  1  0
  4  5  1  1
  4  6  1  0
  6  7  1  0
  6  8  2  0
  6  9  2  0
  4 10  1  0
 10 11  1  0
 11 12  2  0
 12 13  1  0
 13 14  2  0
 14 15  1  0
 14 16  1  0
 16 17  2  0
 17 18  1  0
 18 19  2  0
 18 20  1  0
 20 21  1  0
 21 22  2  0
 22 23  1  0
 23 24  2  0
 24 25  1  0
 25 26  2  0
 25 27  1  0
 27 28  1  0
 28 29  1  0
 17 30  1  0
 30 31  2  0
 11 32  1  0
 32  2  1  0
 31 10  1  0
 31 13  1  0
 26 21  1  0
 29 24  1  0
M  END
>  <smiles>  (2716) 
C40943-P299

>  <fragmenstein_outcome>  (2716) 
acceptable

>  <inchikey>  (2716) 
TYQZZYWNDFBIAK-UHFFFAOYSA-N

>  <fragmenstein_mode>  (2716) 
expansion

>  <HIPPO Pose ID>  (2716) 
29752

>  <Energy>  (2716) 
24.209433

>  <fragmenstein_error>  (2716) 


>  <tags>  (2716) 
{'openbind_xx01zvns2b_c1_fragmenstein', 'fragmenstein_placed'}

>  <ref_pdb>  (2716) 
175

>  <scratch_subdir>  (2716) 
/opt/xchem-fragalysis-2/maxwin/BulkDock/SCRATCH/511028/C40943-P299

>  <alias>  (2716) 
C[C@@H]1C[C@](C)(S(C)(=O)=O)n2c(nc3c(F)cc(C(=O)Nc4ccc5c(c4)CNC5)cc32)N1

>  <HIPPO Compound ID>  (2716) 
40943

>  <fragmenstein_runtime>  (2716) 
4.457358

$$$$
CC(C)[C@@H]1SN2c3cc(C(=O)Nc4ccc5c(c4)CNC5)cc(F)c3N[C@H]2N[C@H](C)[C@H]2CNCN21
     RDKit          3D

 35 40  0  0  0  0  0  0  0  0999 V2000
   -2.5962    9.5226  -15.9330 C   0  0  0  0  0  0  0  0  0  0  0  0
   -4.0115    8.9268  -15.9546 C   0  0  0  0  0  0  0  0  0  0  0  0
   -5.0252   10.0069  -15.5578 C   0  0  0  0  0  0  0  0  0  0  0  0
   -4.3609    8.1798  -17.2924 C   0  0  2  0  0  0  0  0  0  0  0  0
   -3.5178    6.5361  -17.1612 S   0  0  0  0  0  0  0  0  0  0  0  0
   -4.8108    5.6271  -17.5964 N   0  0  0  0  0  0  0  0  0  0  0  0
   -5.9151    5.2590  -16.8225 C   0  0  0  0  0  0  0  0  0  0  0  0
   -6.1244    5.4416  -15.4707 C   0  0  0  0  0  0  0  0  0  0  0  0
   -7.3546    5.0543  -14.9271 C   0  0  0  0  0  0  0  0  0  0  0  0
   -7.6065    5.4480  -13.5220 C   0  0  0  0  0  0  0  0  0  0  0  0
   -7.4192    6.5642  -13.2350 O   0  0  0  0  0  0  0  0  0  0  0  0
   -8.0295    4.2479  -12.6490 N   0  0  0  0  0  0  0  0  0  0  0  0
   -8.2129    4.1509  -11.2691 C   0  0  0  0  0  0  0  0  0  0  0  0
   -8.0820    5.2841  -10.4462 C   0  0  0  0  0  0  0  0  0  0  0  0
   -8.2586    5.1950   -9.0618 C   0  0  0  0  0  0  0  0  0  0  0  0
   -8.5851    3.9647   -8.5268 C   0  0  0  0  0  0  0  0  0  0  0  0
   -8.7081    2.8383   -9.3364 C   0  0  0  0  0  0  0  0  0  0  0  0
   -8.5174    2.9084  -10.7076 C   0  0  0  0  0  0  0  0  0  0  0  0
   -9.0365    1.6625   -8.4761 C   0  0  0  0  0  0  0  0  0  0  0  0
   -9.4936    2.2455   -7.1870 N   0  0  0  0  0  0  0  0  0  0  0  0
   -8.8559    3.5785   -7.1110 C   0  0  0  0  0  0  0  0  0  0  0  0
   -8.3463    4.4634  -15.7234 C   0  0  0  0  0  0  0  0  0  0  0  0
   -8.1111    4.2908  -17.0898 C   0  0  0  0  0  0  0  0  0  0  0  0
   -9.0801    3.7726  -17.8569 F   0  0  0  0  0  0  0  0  0  0  0  0
   -6.9021    4.6992  -17.6380 C   0  0  0  0  0  0  0  0  0  0  0  0
   -6.4726    4.6317  -18.9878 N   0  0  0  0  0  0  0  0  0  0  0  0
   -5.0903    5.1429  -18.9505 C   0  0  1  0  0  0  0  0  0  0  0  0
   -4.5287    5.8369  -20.0970 N   0  0  0  0  0  0  0  0  0  0  0  0
   -4.9597    7.2255  -20.2888 C   0  0  2  0  0  0  0  0  0  0  0  0
   -5.1962    7.2667  -21.8096 C   0  0  0  0  0  0  0  0  0  0  0  0
   -3.8626    8.2651  -19.8194 C   0  0  1  0  0  0  0  0  0  0  0  0
   -3.7913    9.5397  -20.6723 C   0  0  0  0  0  0  0  0  0  0  0  0
   -4.9191   10.3192  -20.1669 N   0  0  0  0  0  0  0  0  0  0  0  0
   -4.8708   10.0938  -18.7277 C   0  0  0  0  0  0  0  0  0  0  0  0
   -4.0289    8.9257  -18.5069 N   0  0  0  0  0  0  0  0  0  0  0  0
  1  2  1  0
  2  3  1  0
  4  2  1  1
  4  5  1  0
  5  6  1  0
  6  7  1  0
  7  8  2  0
  8  9  1  0
  9 10  1  0
 10 11  2  0
 10 12  1  0
 12 13  1  0
 13 14  2  0
 14 15  1  0
 15 16  2  0
 16 17  1  0
 17 18  2  0
 17 19  1  0
 19 20  1  0
 20 21  1  0
  9 22  2  0
 22 23  1  0
 23 24  1  0
 23 25  2  0
 25 26  1  0
 27 26  1  6
 27 28  1  0
 28 29  1  0
 29 30  1  6
 29 31  1  0
 31 32  1  6
 32 33  1  0
 33 34  1  0
 34 35  1  0
 35  4  1  0
 27  6  1  0
 35 31  1  0
 25  7  1  0
 18 13  1  0
 21 16  1  0
M  END
>  <smiles>  (2717) 
C40949-P299

>  <fragmenstein_outcome>  (2717) 
acceptable

>  <inchikey>  (2717) 
AZIZABXIWWQACX-UHFFFAOYSA-N

>  <fragmenstein_mode>  (2717) 
expansion

>  <HIPPO Pose ID>  (2717) 
29754

>  <Energy>  (2717) 
17.685793

>  <fragmenstein_error>  (2717) 


>  <tags>  (2717) 
{'openbind_xx01zvns2b_c1_fragmenstein', 'fragmenstein_placed'}

>  <ref_pdb>  (2717) 
175

>  <scratch_subdir>  (2717) 
/opt/xchem-fragalysis-2/maxwin/BulkDock/SCRATCH/511028/C40949-P299

>  <alias>  (2717) 
CC(C)[C@@H]1SN2c3cc(C(=O)Nc4ccc5c(c4)CNC5)cc(F)c3N[C@H]2N[C@H](C)[C@H]2CNCN21

>  <HIPPO Compound ID>  (2717) 
28586

>  <fragmenstein_runtime>  (2717) 
6.720814

$$$$
CC(C)Nc1nc2c(Cl)cc([C@](NCC(=O)O)(Nc3ccc4c(c3)CNC4)C(=O)NCC(F)F)cc2[nH]1
     RDKit          3D

 37 40  0  0  0  0  0  0  0  0999 V2000
   -4.6429    7.6617  -20.4883 C   0  0  0  0  0  0  0  0  0  0  0  0
   -3.7942    6.4392  -20.1464 C   0  0  0  0  0  0  0  0  0  0  0  0
   -2.8121    6.1580  -21.2788 C   0  0  0  0  0  0  0  0  0  0  0  0
   -4.6435    5.2695  -19.9570 N   0  0  0  0  0  0  0  0  0  0  0  0
   -5.3663    5.1019  -18.8302 C   0  0  0  0  0  0  0  0  0  0  0  0
   -6.5946    4.6576  -18.7460 N   0  0  0  0  0  0  0  0  0  0  0  0
   -6.9025    4.6474  -17.4018 C   0  0  0  0  0  0  0  0  0  0  0  0
   -8.0655    4.3033  -16.6974 C   0  0  0  0  0  0  0  0  0  0  0  0
   -9.3925    3.7866  -17.6450 Cl  0  0  0  0  0  0  0  0  0  0  0  0
   -8.1175    4.4062  -15.2958 C   0  0  0  0  0  0  0  0  0  0  0  0
   -6.9874    4.8210  -14.5540 C   0  0  0  0  0  0  0  0  0  0  0  0
   -6.9854    5.0181  -12.9916 C   0  0  2  0  0  0  0  0  0  0  0  0
   -5.6549    4.6429  -12.4589 N   0  0  0  0  0  0  0  0  0  0  0  0
   -5.5031    3.2615  -11.9686 C   0  0  0  0  0  0  0  0  0  0  0  0
   -5.3584    3.2411  -10.4438 C   0  0  0  0  0  0  0  0  0  0  0  0
   -5.0173    4.1878   -9.7468 O   0  0  0  0  0  0  0  0  0  0  0  0
   -5.6586    2.0412   -9.9094 O   0  0  0  0  0  0  0  0  0  0  0  0
   -8.2325    4.4259  -12.4230 N   0  0  0  0  0  0  0  0  0  0  0  0
   -8.3402    4.2798  -11.0193 C   0  0  0  0  0  0  0  0  0  0  0  0
   -8.1052    5.3370  -10.1170 C   0  0  0  0  0  0  0  0  0  0  0  0
   -8.2338    5.1732   -8.7330 C   0  0  0  0  0  0  0  0  0  0  0  0
   -8.6011    3.9355   -8.2513 C   0  0  0  0  0  0  0  0  0  0  0  0
   -8.8359    2.8782   -9.1171 C   0  0  0  0  0  0  0  0  0  0  0  0
   -8.7405    3.0374  -10.4928 C   0  0  0  0  0  0  0  0  0  0  0  0
   -9.1168    1.6491   -8.3200 C   0  0  0  0  0  0  0  0  0  0  0  0
   -9.3534    2.1196   -6.9327 N   0  0  0  0  0  0  0  0  0  0  0  0
   -8.8044    3.4871   -6.8451 C   0  0  0  0  0  0  0  0  0  0  0  0
   -7.0619    6.6897  -12.8310 C   0  0  0  0  0  0  0  0  0  0  0  0
   -6.1078    7.3658  -12.7649 O   0  0  0  0  0  0  0  0  0  0  0  0
   -8.5707    7.0693  -12.7942 N   0  0  0  0  0  0  0  0  0  0  0  0
   -9.2144    8.3503  -12.5722 C   0  0  0  0  0  0  0  0  0  0  0  0
   -8.3173    9.5812  -12.7005 C   0  0  0  0  0  0  0  0  0  0  0  0
   -9.0083   10.6803  -12.2914 F   0  0  0  0  0  0  0  0  0  0  0  0
   -7.9985    9.8050  -14.0010 F   0  0  0  0  0  0  0  0  0  0  0  0
   -5.8103    5.1662  -15.2651 C   0  0  0  0  0  0  0  0  0  0  0  0
   -5.8100    5.0750  -16.6584 C   0  0  0  0  0  0  0  0  0  0  0  0
   -4.8398    5.3320  -17.5889 N   0  0  0  0  0  0  0  0  0  0  0  0
  1  2  1  0
  2  3  1  0
  2  4  1  0
  4  5  1  0
  5  6  2  0
  6  7  1  0
  7  8  2  0
  8  9  1  0
  8 10  1  0
 10 11  2  0
 11 12  1  0
 12 13  1  1
 13 14  1  0
 14 15  1  0
 15 16  2  0
 15 17  1  0
 12 18  1  0
 18 19  1  0
 19 20  2  0
 20 21  1  0
 21 22  2  0
 22 23  1  0
 23 24  2  0
 23 25  1  0
 25 26  1  0
 26 27  1  0
 12 28  1  0
 28 29  2  0
 28 30  1  0
 30 31  1  0
 31 32  1  0
 32 33  1  0
 32 34  1  0
 11 35  1  0
 35 36  2  0
 36 37  1  0
 37  5  1  0
 36  7  1  0
 24 19  1  0
 27 22  1  0
M  END
>  <smiles>  (2718) 
C40967-P299

>  <fragmenstein_outcome>  (2718) 
acceptable

>  <inchikey>  (2718) 
XPGLIFFUOCNFNF-UHFFFAOYSA-N

>  <fragmenstein_mode>  (2718) 
expansion

>  <HIPPO Pose ID>  (2718) 
29758

>  <Energy>  (2718) 
119.744322

>  <fragmenstein_error>  (2718) 


>  <tags>  (2718) 
{'openbind_xx01zvns2b_c1_fragmenstein', 'fragmenstein_placed'}

>  <ref_pdb>  (2718) 
175

>  <scratch_subdir>  (2718) 
/opt/xchem-fragalysis-2/maxwin/BulkDock/SCRATCH/511028/C40967-P299

>  <alias>  (2718) 
CC(C)Nc1nc2c(Cl)cc([C@](NCC(=O)O)(Nc3ccc4c(c3)CNC4)C(=O)NCC(F)F)cc2[nH]1

>  <HIPPO Compound ID>  (2718) 
25514

>  <fragmenstein_runtime>  (2718) 
5.413917

$$$$
C[C@H]1C[C@@H]2C[C@]3(CCN2C)c2cc(C(=O)Nc4ccc5c(c4)CNC5)ccc2N[C@@H]3N1
     RDKit          3D

 31 36  0  0  0  0  0  0  0  0999 V2000
   -2.9014    6.2525  -21.6412 C   0  0  0  0  0  0  0  0  0  0  0  0
   -3.3112    5.7851  -20.2357 C   0  0  1  0  0  0  0  0  0  0  0  0
   -2.2550    6.3422  -19.2662 C   0  0  0  0  0  0  0  0  0  0  0  0
   -2.1996    5.7121  -17.8645 C   0  0  2  0  0  0  0  0  0  0  0  0
   -3.4919    5.0379  -17.4273 C   0  0  0  0  0  0  0  0  0  0  0  0
   -4.6440    6.0427  -17.4299 C   0  0  2  0  0  0  0  0  0  0  0  0
   -4.1792    7.4579  -17.0182 C   0  0  0  0  0  0  0  0  0  0  0  0
   -2.8729    7.4429  -16.2139 C   0  0  0  0  0  0  0  0  0  0  0  0
   -1.7928    6.6392  -16.7963 N   0  0  0  0  0  0  0  0  0  0  0  0
   -0.5757    7.3903  -17.0587 C   0  0  0  0  0  0  0  0  0  0  0  0
   -5.7798    5.5042  -16.5960 C   0  0  0  0  0  0  0  0  0  0  0  0
   -6.0055    5.6144  -15.2385 C   0  0  0  0  0  0  0  0  0  0  0  0
   -7.2094    5.1177  -14.7261 C   0  0  0  0  0  0  0  0  0  0  0  0
   -7.5250    5.4825  -13.3249 C   0  0  0  0  0  0  0  0  0  0  0  0
   -7.4273    6.6064  -13.0245 O   0  0  0  0  0  0  0  0  0  0  0  0
   -7.9151    4.2523  -12.4807 N   0  0  0  0  0  0  0  0  0  0  0  0
   -8.1662    4.1344  -11.1164 C   0  0  0  0  0  0  0  0  0  0  0  0
   -8.0672    5.2568  -10.2742 C   0  0  0  0  0  0  0  0  0  0  0  0
   -8.2948    5.1494   -8.9001 C   0  0  0  0  0  0  0  0  0  0  0  0
   -8.6371    3.9111   -8.3961 C   0  0  0  0  0  0  0  0  0  0  0  0
   -8.7343    2.7972   -9.2270 C   0  0  0  0  0  0  0  0  0  0  0  0
   -8.4969    2.8856  -10.5889 C   0  0  0  0  0  0  0  0  0  0  0  0
   -9.0854    1.6089   -8.3954 C   0  0  0  0  0  0  0  0  0  0  0  0
   -9.5876    2.1719   -7.1145 N   0  0  0  0  0  0  0  0  0  0  0  0
   -8.9476    3.5012   -6.9954 C   0  0  0  0  0  0  0  0  0  0  0  0
   -8.1329    4.4512  -15.5514 C   0  0  0  0  0  0  0  0  0  0  0  0
   -7.8691    4.3146  -16.9201 C   0  0  0  0  0  0  0  0  0  0  0  0
   -6.7193    4.8949  -17.4291 C   0  0  0  0  0  0  0  0  0  0  0  0
   -6.3454    4.9336  -18.8005 N   0  0  0  0  0  0  0  0  0  0  0  0
   -5.3894    6.0573  -18.8130 C   0  0  2  0  0  0  0  0  0  0  0  0
   -4.6510    6.3270  -20.0338 N   0  0  0  0  0  0  0  0  0  0  0  0
  2  1  1  6
  2  3  1  0
  4  3  1  6
  4  5  1  0
  5  6  1  0
  6  7  1  1
  7  8  1  0
  8  9  1  0
  9 10  1  0
  6 11  1  0
 11 12  2  0
 12 13  1  0
 13 14  1  0
 14 15  2  0
 14 16  1  0
 16 17  1  0
 17 18  2  0
 18 19  1  0
 19 20  2  0
 20 21  1  0
 21 22  2  0
 21 23  1  0
 23 24  1  0
 24 25  1  0
 13 26  2  0
 26 27  1  0
 27 28  2  0
 28 29  1  0
 30 29  1  6
 30 31  1  0
 31  2  1  0
  9  4  1  0
 28 11  1  0
 30  6  1  0
 22 17  1  0
 25 20  1  0
M  END
>  <smiles>  (2719) 
C40981-P299

>  <fragmenstein_outcome>  (2719) 
acceptable

>  <inchikey>  (2719) 
LFSWVNGMWSAAFF-UHFFFAOYSA-N

>  <fragmenstein_mode>  (2719) 
expansion

>  <HIPPO Pose ID>  (2719) 
29763

>  <Energy>  (2719) 
52.118638

>  <fragmenstein_error>  (2719) 


>  <tags>  (2719) 
{'openbind_xx01zvns2b_c1_fragmenstein', 'fragmenstein_placed'}

>  <ref_pdb>  (2719) 
175

>  <scratch_subdir>  (2719) 
/opt/xchem-fragalysis-2/maxwin/BulkDock/SCRATCH/511028/C40981-P299

>  <alias>  (2719) 
C[C@H]1C[C@@H]2C[C@]3(CCN2C)c2cc(C(=O)Nc4ccc5c(c4)CNC5)ccc2N[C@@H]3N1

>  <HIPPO Compound ID>  (2719) 
40981

>  <fragmenstein_runtime>  (2719) 
8.344884

$$$$
CC(C)N[C@H]1Nc2c(Cl)cc(C(=O)Nc3ccc4c(c3)CNC4)cc2C12CCNCC2
     RDKit          3D

 31 35  0  0  0  0  0  0  0  0999 V2000
   -4.9038    8.4884  -21.0072 C   0  0  0  0  0  0  0  0  0  0  0  0
   -5.1094    7.0282  -21.4248 C   0  0  0  0  0  0  0  0  0  0  0  0
   -4.3680    6.8080  -22.7429 C   0  0  0  0  0  0  0  0  0  0  0  0
   -4.6492    6.0681  -20.4142 N   0  0  0  0  0  0  0  0  0  0  0  0
   -5.5150    5.9748  -19.2358 C   0  0  1  0  0  0  0  0  0  0  0  0
   -6.4903    4.8730  -19.1702 N   0  0  0  0  0  0  0  0  0  0  0  0
   -6.8484    4.8433  -17.7908 C   0  0  0  0  0  0  0  0  0  0  0  0
   -7.9955    4.3072  -17.1999 C   0  0  0  0  0  0  0  0  0  0  0  0
   -9.2698    3.6559  -18.1559 Cl  0  0  0  0  0  0  0  0  0  0  0  0
   -8.1752    4.4087  -15.8095 C   0  0  0  0  0  0  0  0  0  0  0  0
   -7.1792    5.0121  -15.0282 C   0  0  0  0  0  0  0  0  0  0  0  0
   -7.3976    5.3859  -13.6058 C   0  0  0  0  0  0  0  0  0  0  0  0
   -7.1799    6.4964  -13.3158 O   0  0  0  0  0  0  0  0  0  0  0  0
   -7.7893    4.1796  -12.7250 N   0  0  0  0  0  0  0  0  0  0  0  0
   -8.0786    4.1085  -11.3603 C   0  0  0  0  0  0  0  0  0  0  0  0
   -7.9901    5.2577  -10.5526 C   0  0  0  0  0  0  0  0  0  0  0  0
   -8.2244    5.1958   -9.1751 C   0  0  0  0  0  0  0  0  0  0  0  0
   -8.5653    3.9750   -8.6286 C   0  0  0  0  0  0  0  0  0  0  0  0
   -8.6631    2.8351   -9.4224 C   0  0  0  0  0  0  0  0  0  0  0  0
   -8.4174    2.8796  -10.7879 C   0  0  0  0  0  0  0  0  0  0  0  0
   -9.0153    1.6738   -8.5503 C   0  0  0  0  0  0  0  0  0  0  0  0
   -9.4932    2.2756   -7.2768 N   0  0  0  0  0  0  0  0  0  0  0  0
   -8.8600    3.6108   -7.2117 C   0  0  0  0  0  0  0  0  0  0  0  0
   -5.9923    5.4721  -15.6127 C   0  0  0  0  0  0  0  0  0  0  0  0
   -5.8463    5.3963  -16.9897 C   0  0  0  0  0  0  0  0  0  0  0  0
   -4.7198    5.9284  -17.8578 C   0  0  0  0  0  0  0  0  0  0  0  0
   -3.5503    4.9284  -17.8364 C   0  0  0  0  0  0  0  0  0  0  0  0
   -2.2552    5.4762  -18.4204 C   0  0  0  0  0  0  0  0  0  0  0  0
   -1.8795    6.7340  -17.7746 N   0  0  0  0  0  0  0  0  0  0  0  0
   -2.9044    7.7432  -18.0133 C   0  0  0  0  0  0  0  0  0  0  0  0
   -4.2387    7.3256  -17.4022 C   0  0  0  0  0  0  0  0  0  0  0  0
  1  2  1  0
  2  3  1  0
  2  4  1  0
  5  4  1  6
  5  6  1  0
  6  7  1  0
  7  8  2  0
  8  9  1  0
  8 10  1  0
 10 11  2  0
 11 12  1  0
 12 13  2  0
 12 14  1  0
 14 15  1  0
 15 16  2  0
 16 17  1  0
 17 18  2  0
 18 19  1  0
 19 20  2  0
 19 21  1  0
 21 22  1  0
 22 23  1  0
 11 24  1  0
 24 25  2  0
 25 26  1  0
 26 27  1  0
 27 28  1  0
 28 29  1  0
 29 30  1  0
 30 31  1  0
 26  5  1  0
 25  7  1  0
 31 26  1  0
 20 15  1  0
 23 18  1  0
M  END
>  <smiles>  (2720) 
C40994-P299

>  <fragmenstein_outcome>  (2720) 
acceptable

>  <inchikey>  (2720) 
WIQCTRNFBPXVEQ-UHFFFAOYSA-N

>  <fragmenstein_mode>  (2720) 
expansion

>  <HIPPO Pose ID>  (2720) 
29764

>  <Energy>  (2720) 
32.601771

>  <fragmenstein_error>  (2720) 


>  <tags>  (2720) 
{'openbind_xx01zvns2b_c1_fragmenstein', 'fragmenstein_placed'}

>  <ref_pdb>  (2720) 
175

>  <scratch_subdir>  (2720) 
/opt/xchem-fragalysis-2/maxwin/BulkDock/SCRATCH/511028/C40994-P299

>  <alias>  (2720) 
CC(C)N[C@H]1Nc2c(Cl)cc(C(=O)Nc3ccc4c(c3)CNC4)cc2C12CCNCC2

>  <HIPPO Compound ID>  (2720) 
25982

>  <fragmenstein_runtime>  (2720) 
9.274599

$$$$
CC(C)Nc1nc2c(Cl)cc([C@@](O)(Nc3ccc4c(c3)CNC4)C(=O)NCC(F)F)cc2[nH]1
     RDKit          3D

 33 36  0  0  0  0  0  0  0  0999 V2000
   -2.4097    5.9452  -20.7719 C   0  0  0  0  0  0  0  0  0  0  0  0
   -3.0961    5.6586  -19.4376 C   0  0  0  0  0  0  0  0  0  0  0  0
   -2.4041    4.5081  -18.7189 C   0  0  0  0  0  0  0  0  0  0  0  0
   -4.5033    5.3724  -19.6958 N   0  0  0  0  0  0  0  0  0  0  0  0
   -5.4133    5.2882  -18.7170 C   0  0  0  0  0  0  0  0  0  0  0  0
   -6.5807    4.6979  -18.7292 N   0  0  0  0  0  0  0  0  0  0  0  0
   -7.0240    4.7306  -17.4227 C   0  0  0  0  0  0  0  0  0  0  0  0
   -8.1756    4.2569  -16.7820 C   0  0  0  0  0  0  0  0  0  0  0  0
   -9.3891    3.6130  -17.7928 Cl  0  0  0  0  0  0  0  0  0  0  0  0
   -8.3105    4.3718  -15.3881 C   0  0  0  0  0  0  0  0  0  0  0  0
   -7.2915    4.9565  -14.6042 C   0  0  0  0  0  0  0  0  0  0  0  0
   -7.3864    5.1430  -13.0897 C   0  0  1  0  0  0  0  0  0  0  0  0
   -7.9559    6.4339  -12.9507 O   0  0  0  0  0  0  0  0  0  0  0  0
   -8.3273    4.2142  -12.4701 N   0  0  0  0  0  0  0  0  0  0  0  0
   -8.3612    4.1085  -11.0575 C   0  0  0  0  0  0  0  0  0  0  0  0
   -8.2237    5.2142  -10.1856 C   0  0  0  0  0  0  0  0  0  0  0  0
   -8.3433    5.0897   -8.7970 C   0  0  0  0  0  0  0  0  0  0  0  0
   -8.6590    3.8522   -8.2853 C   0  0  0  0  0  0  0  0  0  0  0  0
   -8.8170    2.7548   -9.1225 C   0  0  0  0  0  0  0  0  0  0  0  0
   -8.6820    2.8641  -10.4964 C   0  0  0  0  0  0  0  0  0  0  0  0
   -9.1183    1.5556   -8.2891 C   0  0  0  0  0  0  0  0  0  0  0  0
   -9.5668    2.1081   -6.9839 N   0  0  0  0  0  0  0  0  0  0  0  0
   -8.9098    3.4300   -6.8770 C   0  0  0  0  0  0  0  0  0  0  0  0
   -5.9215    4.9881  -12.4031 C   0  0  0  0  0  0  0  0  0  0  0  0
   -5.3234    3.9845  -12.3525 O   0  0  0  0  0  0  0  0  0  0  0  0
   -5.5831    6.3946  -11.8242 N   0  0  0  0  0  0  0  0  0  0  0  0
   -4.3988    6.8698  -11.1502 C   0  0  0  0  0  0  0  0  0  0  0  0
   -4.3224    6.4214   -9.6934 C   0  0  0  0  0  0  0  0  0  0  0  0
   -3.1107    6.7663   -9.1823 F   0  0  0  0  0  0  0  0  0  0  0  0
   -5.2477    7.1027   -8.9639 F   0  0  0  0  0  0  0  0  0  0  0  0
   -6.1730    5.5085  -15.2518 C   0  0  0  0  0  0  0  0  0  0  0  0
   -6.0907    5.3798  -16.6296 C   0  0  0  0  0  0  0  0  0  0  0  0
   -5.1598    5.8398  -17.5046 N   0  0  0  0  0  0  0  0  0  0  0  0
  1  2  1  0
  2  3  1  0
  2  4  1  0
  4  5  1  0
  5  6  2  0
  6  7  1  0
  7  8  2  0
  8  9  1  0
  8 10  1  0
 10 11  2  0
 11 12  1  0
 12 13  1  6
 12 14  1  0
 14 15  1  0
 15 16  2  0
 16 17  1  0
 17 18  2  0
 18 19  1  0
 19 20  2  0
 19 21  1  0
 21 22  1  0
 22 23  1  0
 12 24  1  0
 24 25  2  0
 24 26  1  0
 26 27  1  0
 27 28  1  0
 28 29  1  0
 28 30  1  0
 11 31  1  0
 31 32  2  0
 32 33  1  0
 33  5  1  0
 32  7  1  0
 20 15  1  0
 23 18  1  0
M  END
>  <smiles>  (2721) 
C40914-P299

>  <fragmenstein_outcome>  (2721) 
acceptable

>  <inchikey>  (2721) 
JIGOPHUWBOEGJF-UHFFFAOYSA-N

>  <fragmenstein_mode>  (2721) 
expansion

>  <HIPPO Pose ID>  (2721) 
29765

>  <Energy>  (2721) 
104.392136

>  <fragmenstein_error>  (2721) 


>  <tags>  (2721) 
{'openbind_xx01zvns2b_c1_fragmenstein', 'fragmenstein_placed'}

>  <ref_pdb>  (2721) 
175

>  <scratch_subdir>  (2721) 
/opt/xchem-fragalysis-2/maxwin/BulkDock/SCRATCH/511028/C40914-P299

>  <alias>  (2721) 
CC(C)Nc1nc2c(Cl)cc([C@@](O)(Nc3ccc4c(c3)CNC4)C(=O)NCC(F)F)cc2[nH]1

>  <HIPPO Compound ID>  (2721) 
40914

>  <fragmenstein_runtime>  (2721) 
9.113068

$$$$
CC(C)NC(=O)[C@@](O)(Nc1ccc2c(c1)CNC2)c1cc(Cl)c2c(c1)C(F)(F)[C@H](NC(C)C)N2
     RDKit          3D

 34 37  0  0  0  0  0  0  0  0999 V2000
   -7.3742   10.0350  -12.9155 C   0  0  0  0  0  0  0  0  0  0  0  0
   -8.4258    9.0060  -12.5243 C   0  0  0  0  0  0  0  0  0  0  0  0
   -8.8176    9.1447  -11.0578 C   0  0  0  0  0  0  0  0  0  0  0  0
   -7.9482    7.6700  -12.7891 N   0  0  0  0  0  0  0  0  0  0  0  0
   -8.7129    6.3978  -13.2718 C   0  0  0  0  0  0  0  0  0  0  0  0
   -9.8293    6.2629  -13.6009 O   0  0  0  0  0  0  0  0  0  0  0  0
   -7.6281    5.2138  -13.2898 C   0  0  1  0  0  0  0  0  0  0  0  0
   -6.4000    5.6136  -12.6848 O   0  0  0  0  0  0  0  0  0  0  0  0
   -8.0662    4.0435  -12.5421 N   0  0  0  0  0  0  0  0  0  0  0  0
   -8.3143    4.0366  -11.1624 C   0  0  0  0  0  0  0  0  0  0  0  0
   -8.1185    5.1461  -10.3108 C   0  0  0  0  0  0  0  0  0  0  0  0
   -8.2803    5.0680   -8.9217 C   0  0  0  0  0  0  0  0  0  0  0  0
   -8.6218    3.8518   -8.3747 C   0  0  0  0  0  0  0  0  0  0  0  0
   -8.7878    2.7376   -9.1822 C   0  0  0  0  0  0  0  0  0  0  0  0
   -8.6372    2.8116  -10.5611 C   0  0  0  0  0  0  0  0  0  0  0  0
   -9.0612    1.5498   -8.3242 C   0  0  0  0  0  0  0  0  0  0  0  0
   -9.3395    2.0866   -6.9661 N   0  0  0  0  0  0  0  0  0  0  0  0
   -8.8381    3.4752   -6.9499 C   0  0  0  0  0  0  0  0  0  0  0  0
   -7.3441    4.8828  -14.7592 C   0  0  0  0  0  0  0  0  0  0  0  0
   -8.3460    4.3956  -15.6352 C   0  0  0  0  0  0  0  0  0  0  0  0
   -8.1211    4.2769  -17.0196 C   0  0  0  0  0  0  0  0  0  0  0  0
   -9.3961    3.7214  -18.0339 Cl  0  0  0  0  0  0  0  0  0  0  0  0
   -6.8933    4.6557  -17.5459 C   0  0  0  0  0  0  0  0  0  0  0  0
   -5.8996    5.0781  -16.6723 C   0  0  0  0  0  0  0  0  0  0  0  0
   -6.0943    5.1937  -15.3075 C   0  0  0  0  0  0  0  0  0  0  0  0
   -4.6826    5.4855  -17.4079 C   0  0  0  0  0  0  0  0  0  0  0  0
   -3.5556    4.8169  -17.0389 F   0  0  0  0  0  0  0  0  0  0  0  0
   -4.4108    6.8119  -17.2438 F   0  0  0  0  0  0  0  0  0  0  0  0
   -5.0864    5.1373  -18.9028 C   0  0  2  0  0  0  0  0  0  0  0  0
   -4.7602    6.1756  -19.8922 N   0  0  0  0  0  0  0  0  0  0  0  0
   -3.3193    6.4703  -19.9147 C   0  0  0  0  0  0  0  0  0  0  0  0
   -3.1677    7.9759  -20.1413 C   0  0  0  0  0  0  0  0  0  0  0  0
   -2.6249    5.7089  -21.0391 C   0  0  0  0  0  0  0  0  0  0  0  0
   -6.4670    4.6073  -18.8904 N   0  0  0  0  0  0  0  0  0  0  0  0
  1  2  1  0
  2  3  1  0
  2  4  1  0
  4  5  1  0
  5  6  2  0
  5  7  1  0
  7  8  1  1
  7  9  1  0
  9 10  1  0
 10 11  2  0
 11 12  1  0
 12 13  2  0
 13 14  1  0
 14 15  2  0
 14 16  1  0
 16 17  1  0
 17 18  1  0
  7 19  1  0
 19 20  2  0
 20 21  1  0
 21 22  1  0
 21 23  2  0
 23 24  1  0
 24 25  2  0
 24 26  1  0
 26 27  1  0
 26 28  1  0
 26 29  1  0
 29 30  1  6
 30 31  1  0
 31 32  1  0
 31 33  1  0
 29 34  1  0
 15 10  1  0
 25 19  1  0
 18 13  1  0
 34 23  1  0
M  END
>  <smiles>  (2722) 
C40996-P299

>  <fragmenstein_outcome>  (2722) 
acceptable

>  <inchikey>  (2722) 
VYGGJWCZBCMUDU-UHFFFAOYSA-N

>  <fragmenstein_mode>  (2722) 
expansion

>  <HIPPO Pose ID>  (2722) 
29766

>  <Energy>  (2722) 
171.820938

>  <fragmenstein_error>  (2722) 


>  <tags>  (2722) 
{'openbind_xx01zvns2b_c1_fragmenstein', 'fragmenstein_placed'}

>  <ref_pdb>  (2722) 
175

>  <scratch_subdir>  (2722) 
/opt/xchem-fragalysis-2/maxwin/BulkDock/SCRATCH/511028/C40996-P299

>  <alias>  (2722) 
CC(C)NC(=O)[C@@](O)(Nc1ccc2c(c1)CNC2)c1cc(Cl)c2c(c1)C(F)(F)[C@H](NC(C)C)N2

>  <HIPPO Compound ID>  (2722) 
40996

>  <fragmenstein_runtime>  (2722) 
6.512958

$$$$
CC(C)Nc1nc2ccc(C(=O)Nc3ccc4c(c3)CNC4)cc2n1CN(C)C
     RDKit          3D

 29 32  0  0  0  0  0  0  0  0999 V2000
   -2.3346    5.9127  -20.9168 C   0  0  0  0  0  0  0  0  0  0  0  0
   -3.1252    4.9017  -20.0817 C   0  0  0  0  0  0  0  0  0  0  0  0
   -2.3332    4.4012  -18.8800 C   0  0  0  0  0  0  0  0  0  0  0  0
   -4.4154    5.5359  -19.7872 N   0  0  0  0  0  0  0  0  0  0  0  0
   -5.1331    5.2176  -18.6852 C   0  0  0  0  0  0  0  0  0  0  0  0
   -6.2593    4.5480  -18.6917 N   0  0  0  0  0  0  0  0  0  0  0  0
   -6.7550    4.6438  -17.4170 C   0  0  0  0  0  0  0  0  0  0  0  0
   -7.9691    4.1732  -16.8801 C   0  0  0  0  0  0  0  0  0  0  0  0
   -8.2704    4.4242  -15.5306 C   0  0  0  0  0  0  0  0  0  0  0  0
   -7.3725    5.1450  -14.7433 C   0  0  0  0  0  0  0  0  0  0  0  0
   -7.6507    5.5168  -13.3363 C   0  0  0  0  0  0  0  0  0  0  0  0
   -7.5933    6.6447  -13.0416 O   0  0  0  0  0  0  0  0  0  0  0  0
   -7.8806    4.2658  -12.4641 N   0  0  0  0  0  0  0  0  0  0  0  0
   -8.1722    4.1502  -11.1083 C   0  0  0  0  0  0  0  0  0  0  0  0
   -8.1395    5.2807  -10.2725 C   0  0  0  0  0  0  0  0  0  0  0  0
   -8.3634    5.1660   -8.8982 C   0  0  0  0  0  0  0  0  0  0  0  0
   -8.6564    3.9157   -8.3918 C   0  0  0  0  0  0  0  0  0  0  0  0
   -8.7063    2.7972   -9.2201 C   0  0  0  0  0  0  0  0  0  0  0  0
   -8.4469    2.8891  -10.5774 C   0  0  0  0  0  0  0  0  0  0  0  0
   -9.0414    1.6007   -8.3940 C   0  0  0  0  0  0  0  0  0  0  0  0
   -9.5534    2.1489   -7.1107 N   0  0  0  0  0  0  0  0  0  0  0  0
   -8.9548    3.4967   -6.9916 C   0  0  0  0  0  0  0  0  0  0  0  0
   -6.1660    5.6259  -15.2622 C   0  0  0  0  0  0  0  0  0  0  0  0
   -5.8864    5.3634  -16.6038 C   0  0  0  0  0  0  0  0  0  0  0  0
   -4.8635    5.7527  -17.4413 N   0  0  0  0  0  0  0  0  0  0  0  0
   -3.8915    6.8167  -17.2009 C   0  0  0  0  0  0  0  0  0  0  0  0
   -3.3642    6.8010  -15.8251 N   0  0  0  0  0  0  0  0  0  0  0  0
   -2.4748    5.6729  -15.5718 C   0  0  0  0  0  0  0  0  0  0  0  0
   -2.6747    8.0587  -15.5388 C   0  0  0  0  0  0  0  0  0  0  0  0
  1  2  1  0
  2  3  1  0
  2  4  1  0
  4  5  1  0
  5  6  2  0
  6  7  1  0
  7  8  2  0
  8  9  1  0
  9 10  2  0
 10 11  1  0
 11 12  2  0
 11 13  1  0
 13 14  1  0
 14 15  2  0
 15 16  1  0
 16 17  2  0
 17 18  1  0
 18 19  2  0
 18 20  1  0
 20 21  1  0
 21 22  1  0
 10 23  1  0
 23 24  2  0
 24 25  1  0
 25 26  1  0
 26 27  1  0
 27 28  1  0
 27 29  1  0
 25  5  1  0
 24  7  1  0
 19 14  1  0
 22 17  1  0
M  END
>  <smiles>  (2723) 
C40998-P299

>  <fragmenstein_outcome>  (2723) 
acceptable

>  <inchikey>  (2723) 
WXDDIVGPHPLQGG-UHFFFAOYSA-N

>  <fragmenstein_mode>  (2723) 
expansion

>  <HIPPO Pose ID>  (2723) 
29767

>  <Energy>  (2723) 
54.746394

>  <fragmenstein_error>  (2723) 


>  <tags>  (2723) 
{'openbind_xx01zvns2b_c1_fragmenstein', 'fragmenstein_placed'}

>  <ref_pdb>  (2723) 
175

>  <scratch_subdir>  (2723) 
/opt/xchem-fragalysis-2/maxwin/BulkDock/SCRATCH/511028/C40998-P299

>  <alias>  (2723) 
CC(C)Nc1nc2ccc(C(=O)Nc3ccc4c(c3)CNC4)cc2n1CN(C)C

>  <HIPPO Compound ID>  (2723) 
40998

>  <fragmenstein_runtime>  (2723) 
4.619943

$$$$
O=C(Nc1ccc2c(c1)CNC2)c1cc2c3c(csc3c1)C=C2C1CNC1
     RDKit          3D

 27 32  0  0  0  0  0  0  0  0999 V2000
   -6.8803    6.5270  -12.9065 O   0  0  0  0  0  0  0  0  0  0  0  0
   -7.3209    5.4933  -13.2245 C   0  0  0  0  0  0  0  0  0  0  0  0
   -7.8846    4.3376  -12.3667 N   0  0  0  0  0  0  0  0  0  0  0  0
   -8.1034    4.2538  -10.9962 C   0  0  0  0  0  0  0  0  0  0  0  0
   -7.9255    5.3687  -10.1629 C   0  0  0  0  0  0  0  0  0  0  0  0
   -8.1667    5.2791   -8.7889 C   0  0  0  0  0  0  0  0  0  0  0  0
   -8.5838    4.0649   -8.2774 C   0  0  0  0  0  0  0  0  0  0  0  0
   -8.7464    2.9550   -9.1005 C   0  0  0  0  0  0  0  0  0  0  0  0
   -8.5169    3.0313  -10.4630 C   0  0  0  0  0  0  0  0  0  0  0  0
   -9.1414    1.7842   -8.2650 C   0  0  0  0  0  0  0  0  0  0  0  0
   -9.5778    2.3636   -6.9670 N   0  0  0  0  0  0  0  0  0  0  0  0
   -8.9028    3.6777   -6.8729 C   0  0  0  0  0  0  0  0  0  0  0  0
   -7.3981    5.1704  -14.6713 C   0  0  0  0  0  0  0  0  0  0  0  0
   -6.2627    5.4464  -15.4688 C   0  0  0  0  0  0  0  0  0  0  0  0
   -6.3597    5.2400  -16.8251 C   0  0  0  0  0  0  0  0  0  0  0  0
   -7.5761    4.7747  -17.2982 C   0  0  0  0  0  0  0  0  0  0  0  0
   -7.6507    4.5964  -18.6615 C   0  0  0  0  0  0  0  0  0  0  0  0
   -8.8767    4.1815  -19.0623 C   0  0  0  0  0  0  0  0  0  0  0  0
   -9.9423    4.0930  -17.6959 S   0  0  0  0  0  0  0  0  0  0  0  0
   -8.7077    4.5213  -16.5777 C   0  0  0  0  0  0  0  0  0  0  0  0
   -8.6375    4.7045  -15.1988 C   0  0  0  0  0  0  0  0  0  0  0  0
   -6.3598    4.9739  -19.1257 C   0  0  0  0  0  0  0  0  0  0  0  0
   -5.5765    5.3724  -18.0732 C   0  0  0  0  0  0  0  0  0  0  0  0
   -4.1960    5.8258  -18.2635 C   0  0  0  0  0  0  0  0  0  0  0  0
   -3.6998    7.0610  -17.4846 C   0  0  0  0  0  0  0  0  0  0  0  0
   -2.3926    6.3668  -17.3252 N   0  0  0  0  0  0  0  0  0  0  0  0
   -3.1058    5.0762  -17.4760 C   0  0  0  0  0  0  0  0  0  0  0  0
  1  2  2  0
  2  3  1  0
  3  4  1  0
  4  5  2  0
  5  6  1  0
  6  7  2  0
  7  8  1  0
  8  9  2  0
  8 10  1  0
 10 11  1  0
 11 12  1  0
  2 13  1  0
 13 14  2  0
 14 15  1  0
 15 16  2  0
 16 17  1  0
 17 18  2  0
 18 19  1  0
 19 20  1  0
 20 21  2  0
 17 22  1  0
 22 23  2  0
 23 24  1  0
 24 25  1  0
 25 26  1  0
 26 27  1  0
  9  4  1  0
 21 13  1  0
 27 24  1  0
 12  7  1  0
 23 15  1  0
 20 16  1  0
M  END
>  <smiles>  (2724) 
C41125-P301

>  <fragmenstein_outcome>  (2724) 
acceptable

>  <inchikey>  (2724) 
QFAKIMAPEIWQSG-UHFFFAOYSA-N

>  <fragmenstein_mode>  (2724) 
expansion

>  <HIPPO Pose ID>  (2724) 
29836

>  <Energy>  (2724) 
116.026611

>  <fragmenstein_error>  (2724) 


>  <tags>  (2724) 
{'openbind_xx01zvns2b_c1_fragmenstein', 'fragmenstein_placed'}

>  <ref_pdb>  (2724) 
175

>  <scratch_subdir>  (2724) 
/opt/xchem-fragalysis-2/maxwin/BulkDock/SCRATCH/511028/C41125-P301

>  <alias>  (2724) 
O=C(Nc1ccc2c(c1)CNC2)c1cc2c3c(csc3c1)C=C2C1CNC1

>  <HIPPO Compound ID>  (2724) 
41125

>  <fragmenstein_runtime>  (2724) 
8.204739

$$$$
CNCc1[nH]c2c(Cl)cc(C(=O)Nc3ccc4c(c3)CNC4)cc2c1C1CN(OC)C1
     RDKit          3D

 31 35  0  0  0  0  0  0  0  0999 V2000
   -4.1137    8.0834  -21.5446 C   0  0  0  0  0  0  0  0  0  0  0  0
   -4.5044    7.5984  -20.2295 N   0  0  0  0  0  0  0  0  0  0  0  0
   -5.0447    6.2434  -20.3208 C   0  0  0  0  0  0  0  0  0  0  0  0
   -5.5715    5.8004  -19.0036 C   0  0  0  0  0  0  0  0  0  0  0  0
   -6.7761    5.1355  -18.9111 N   0  0  0  0  0  0  0  0  0  0  0  0
   -7.1218    4.9540  -17.5900 C   0  0  0  0  0  0  0  0  0  0  0  0
   -8.2731    4.4050  -17.0169 C   0  0  0  0  0  0  0  0  0  0  0  0
   -9.5003    3.7309  -17.9982 Cl  0  0  0  0  0  0  0  0  0  0  0  0
   -8.4453    4.5032  -15.6354 C   0  0  0  0  0  0  0  0  0  0  0  0
   -7.4741    5.1336  -14.8659 C   0  0  0  0  0  0  0  0  0  0  0  0
   -7.7082    5.5076  -13.4548 C   0  0  0  0  0  0  0  0  0  0  0  0
   -7.5381    6.6234  -13.1581 O   0  0  0  0  0  0  0  0  0  0  0  0
   -8.0999    4.2934  -12.5920 N   0  0  0  0  0  0  0  0  0  0  0  0
   -8.2669    4.1789  -11.2157 C   0  0  0  0  0  0  0  0  0  0  0  0
   -8.1457    5.3098  -10.3888 C   0  0  0  0  0  0  0  0  0  0  0  0
   -8.3139    5.2109   -9.0064 C   0  0  0  0  0  0  0  0  0  0  0  0
   -8.6078    3.9707   -8.4760 C   0  0  0  0  0  0  0  0  0  0  0  0
   -8.7227    2.8524   -9.2919 C   0  0  0  0  0  0  0  0  0  0  0  0
   -8.5505    2.9314  -10.6643 C   0  0  0  0  0  0  0  0  0  0  0  0
   -9.0426    1.6621   -8.4597 C   0  0  0  0  0  0  0  0  0  0  0  0
   -9.0235    2.1168   -7.0432 N   0  0  0  0  0  0  0  0  0  0  0  0
   -8.8730    3.5881   -7.0628 C   0  0  0  0  0  0  0  0  0  0  0  0
   -6.2847    5.5996  -15.4347 C   0  0  0  0  0  0  0  0  0  0  0  0
   -6.1024    5.5067  -16.8214 C   0  0  0  0  0  0  0  0  0  0  0  0
   -5.0879    5.9130  -17.7163 C   0  0  0  0  0  0  0  0  0  0  0  0
   -3.7183    6.5229  -17.3100 C   0  0  0  0  0  0  0  0  0  0  0  0
   -2.4803    5.8320  -17.9219 C   0  0  0  0  0  0  0  0  0  0  0  0
   -1.7973    5.9186  -16.6076 N   0  0  0  0  0  0  0  0  0  0  0  0
   -1.1985    7.2521  -16.5676 O   0  0  0  0  0  0  0  0  0  0  0  0
    0.1584    7.1048  -16.1636 C   0  0  0  0  0  0  0  0  0  0  0  0
   -3.1165    6.0569  -15.9618 C   0  0  0  0  0  0  0  0  0  0  0  0
  1  2  1  0
  2  3  1  0
  3  4  1  0
  4  5  1  0
  5  6  1  0
  6  7  2  0
  7  8  1  0
  7  9  1  0
  9 10  2  0
 10 11  1  0
 11 12  2  0
 11 13  1  0
 13 14  1  0
 14 15  2  0
 15 16  1  0
 16 17  2  0
 17 18  1  0
 18 19  2  0
 18 20  1  0
 20 21  1  0
 21 22  1  0
 10 23  1  0
 23 24  2  0
 24 25  1  0
 25 26  1  0
 26 27  1  0
 27 28  1  0
 28 29  1  0
 29 30  1  0
 28 31  1  0
 25  4  2  0
 31 26  1  0
 24  6  1  0
 19 14  1  0
 22 17  1  0
M  END
>  <smiles>  (2725) 
C41374-P302

>  <fragmenstein_outcome>  (2725) 
acceptable

>  <inchikey>  (2725) 
DWSKHAFHCNAPKN-UHFFFAOYSA-N

>  <fragmenstein_mode>  (2725) 
expansion

>  <HIPPO Pose ID>  (2725) 
29852

>  <Energy>  (2725) 
61.407518

>  <fragmenstein_error>  (2725) 


>  <tags>  (2725) 
{'openbind_xx01zvns2b_c1_fragmenstein', 'fragmenstein_placed'}

>  <ref_pdb>  (2725) 
175

>  <scratch_subdir>  (2725) 
/opt/xchem-fragalysis-2/maxwin/BulkDock/SCRATCH/511028/C41374-P302

>  <alias>  (2725) 
CNCc1[nH]c2c(Cl)cc(C(=O)Nc3ccc4c(c3)CNC4)cc2c1C1CN(OC)C1

>  <HIPPO Compound ID>  (2725) 
41374

>  <fragmenstein_runtime>  (2725) 
8.285118

$$$$
CNCc1[nH]c2c(Cl)cc(C(=O)Nc3ccc4c(c3)CNC4)cc2c1C1CNC1
     RDKit          3D

 29 33  0  0  0  0  0  0  0  0999 V2000
   -2.4569    6.4057  -21.2229 C   0  0  0  0  0  0  0  0  0  0  0  0
   -3.3818    5.4784  -20.5624 N   0  0  0  0  0  0  0  0  0  0  0  0
   -4.6629    6.1620  -20.2908 C   0  0  0  0  0  0  0  0  0  0  0  0
   -5.2748    5.6976  -19.0177 C   0  0  0  0  0  0  0  0  0  0  0  0
   -6.5011    5.0680  -18.9623 N   0  0  0  0  0  0  0  0  0  0  0  0
   -6.8955    4.9133  -17.6455 C   0  0  0  0  0  0  0  0  0  0  0  0
   -8.0816    4.4010  -17.0964 C   0  0  0  0  0  0  0  0  0  0  0  0
   -9.3233    3.7673  -18.0924 Cl  0  0  0  0  0  0  0  0  0  0  0  0
   -8.2810    4.4906  -15.7158 C   0  0  0  0  0  0  0  0  0  0  0  0
   -7.2913    5.0489  -14.9156 C   0  0  0  0  0  0  0  0  0  0  0  0
   -7.5464    5.4281  -13.5078 C   0  0  0  0  0  0  0  0  0  0  0  0
   -7.3670    6.5435  -13.2142 O   0  0  0  0  0  0  0  0  0  0  0  0
   -7.9848    4.2265  -12.6479 N   0  0  0  0  0  0  0  0  0  0  0  0
   -8.1962    4.1255  -11.2744 C   0  0  0  0  0  0  0  0  0  0  0  0
   -8.0891    5.2634  -10.4531 C   0  0  0  0  0  0  0  0  0  0  0  0
   -8.3026    5.1823   -9.0746 C   0  0  0  0  0  0  0  0  0  0  0  0
   -8.6434    3.9549   -8.5451 C   0  0  0  0  0  0  0  0  0  0  0  0
   -8.7418    2.8254   -9.3546 C   0  0  0  0  0  0  0  0  0  0  0  0
   -8.5097    2.8854  -10.7189 C   0  0  0  0  0  0  0  0  0  0  0  0
   -9.0886    1.6541   -8.4986 C   0  0  0  0  0  0  0  0  0  0  0  0
   -9.5934    2.2413   -7.2281 N   0  0  0  0  0  0  0  0  0  0  0  0
   -8.9489    3.5711   -7.1361 C   0  0  0  0  0  0  0  0  0  0  0  0
   -6.0688    5.4662  -15.4551 C   0  0  0  0  0  0  0  0  0  0  0  0
   -5.8761    5.4333  -16.8454 C   0  0  0  0  0  0  0  0  0  0  0  0
   -4.8604    5.8958  -17.7165 C   0  0  0  0  0  0  0  0  0  0  0  0
   -3.5298    6.6070  -17.3358 C   0  0  0  0  0  0  0  0  0  0  0  0
   -2.5982    5.8409  -16.3899 C   0  0  0  0  0  0  0  0  0  0  0  0
   -2.3130    7.1085  -15.6779 N   0  0  0  0  0  0  0  0  0  0  0  0
   -3.5520    7.6881  -16.2471 C   0  0  0  0  0  0  0  0  0  0  0  0
  1  2  1  0
  2  3  1  0
  3  4  1  0
  4  5  1  0
  5  6  1  0
  6  7  2  0
  7  8  1  0
  7  9  1  0
  9 10  2  0
 10 11  1  0
 11 12  2  0
 11 13  1  0
 13 14  1  0
 14 15  2  0
 15 16  1  0
 16 17  2  0
 17 18  1  0
 18 19  2  0
 18 20  1  0
 20 21  1  0
 21 22  1  0
 10 23  1  0
 23 24  2  0
 24 25  1  0
 25 26  1  0
 26 27  1  0
 27 28  1  0
 28 29  1  0
 25  4  2  0
 29 26  1  0
 24  6  1  0
 19 14  1  0
 22 17  1  0
M  END
>  <smiles>  (2726) 
C41343-P302

>  <fragmenstein_outcome>  (2726) 
acceptable

>  <inchikey>  (2726) 
OZRWBQRSWXUCNE-UHFFFAOYSA-N

>  <fragmenstein_mode>  (2726) 
expansion

>  <HIPPO Pose ID>  (2726) 
29853

>  <Energy>  (2726) 
55.423489

>  <fragmenstein_error>  (2726) 


>  <tags>  (2726) 
{'openbind_xx01zvns2b_c1_fragmenstein', 'fragmenstein_placed'}

>  <ref_pdb>  (2726) 
175

>  <scratch_subdir>  (2726) 
/opt/xchem-fragalysis-2/maxwin/BulkDock/SCRATCH/511028/C41343-P302

>  <alias>  (2726) 
CNCc1[nH]c2c(Cl)cc(C(=O)Nc3ccc4c(c3)CNC4)cc2c1C1CNC1

>  <HIPPO Compound ID>  (2726) 
41343

>  <fragmenstein_runtime>  (2726) 
7.503656

$$$$
CNCc1[nH]c2c(Cl)cc(C(=O)Nc3cc(C)c4c(c3)CNC4)cc2c1C1CNC1
     RDKit          3D

 30 34  0  0  0  0  0  0  0  0999 V2000
   -4.4954    8.4093  -21.6173 C   0  0  0  0  0  0  0  0  0  0  0  0
   -4.7636    7.8130  -20.3165 N   0  0  0  0  0  0  0  0  0  0  0  0
   -5.1201    6.4006  -20.4632 C   0  0  0  0  0  0  0  0  0  0  0  0
   -5.5586    5.8480  -19.1530 C   0  0  0  0  0  0  0  0  0  0  0  0
   -6.7687    5.2083  -19.0149 N   0  0  0  0  0  0  0  0  0  0  0  0
   -7.0432    4.9748  -17.6863 C   0  0  0  0  0  0  0  0  0  0  0  0
   -8.1958    4.4675  -17.0761 C   0  0  0  0  0  0  0  0  0  0  0  0
   -9.5116    3.9188  -18.0246 Cl  0  0  0  0  0  0  0  0  0  0  0  0
   -8.2948    4.5198  -15.6854 C   0  0  0  0  0  0  0  0  0  0  0  0
   -7.2307    5.0269  -14.9447 C   0  0  0  0  0  0  0  0  0  0  0  0
   -7.3896    5.4017  -13.5208 C   0  0  0  0  0  0  0  0  0  0  0  0
   -7.1319    6.5014  -13.2257 O   0  0  0  0  0  0  0  0  0  0  0  0
   -7.8196    4.2071  -12.6468 N   0  0  0  0  0  0  0  0  0  0  0  0
   -8.1052    4.1385  -11.2858 C   0  0  0  0  0  0  0  0  0  0  0  0
   -8.0081    5.2864  -10.4782 C   0  0  0  0  0  0  0  0  0  0  0  0
   -8.2532    5.2359   -9.0971 C   0  0  0  0  0  0  0  0  0  0  0  0
   -8.1040    6.4613   -8.2519 C   0  0  0  0  0  0  0  0  0  0  0  0
   -8.5737    4.0008   -8.5537 C   0  0  0  0  0  0  0  0  0  0  0  0
   -8.6787    2.8681   -9.3549 C   0  0  0  0  0  0  0  0  0  0  0  0
   -8.4525    2.9142  -10.7217 C   0  0  0  0  0  0  0  0  0  0  0  0
   -9.0335    1.6922   -8.5147 C   0  0  0  0  0  0  0  0  0  0  0  0
   -9.0144    2.1578   -7.1035 N   0  0  0  0  0  0  0  0  0  0  0  0
   -8.8622    3.6281   -7.1386 C   0  0  0  0  0  0  0  0  0  0  0  0
   -6.0282    5.4076  -15.5570 C   0  0  0  0  0  0  0  0  0  0  0  0
   -5.9405    5.4119  -16.9580 C   0  0  0  0  0  0  0  0  0  0  0  0
   -4.9756    5.8483  -17.9024 C   0  0  0  0  0  0  0  0  0  0  0  0
   -3.5488    6.3851  -17.6075 C   0  0  0  0  0  0  0  0  0  0  0  0
   -2.6352    5.4716  -16.7894 C   0  0  0  0  0  0  0  0  0  0  0  0
   -2.7074    6.3910  -15.6485 N   0  0  0  0  0  0  0  0  0  0  0  0
   -3.3880    7.3990  -16.4709 C   0  0  0  0  0  0  0  0  0  0  0  0
  1  2  1  0
  2  3  1  0
  3  4  1  0
  4  5  1  0
  5  6  1  0
  6  7  2  0
  7  8  1  0
  7  9  1  0
  9 10  2  0
 10 11  1  0
 11 12  2  0
 11 13  1  0
 13 14  1  0
 14 15  2  0
 15 16  1  0
 16 17  1  0
 16 18  2  0
 18 19  1  0
 19 20  2  0
 19 21  1  0
 21 22  1  0
 22 23  1  0
 10 24  1  0
 24 25  2  0
 25 26  1  0
 26 27  1  0
 27 28  1  0
 28 29  1  0
 29 30  1  0
 26  4  2  0
 30 27  1  0
 25  6  1  0
 20 14  1  0
 23 18  1  0
M  END
>  <smiles>  (2727) 
C41376-P302

>  <fragmenstein_outcome>  (2727) 
acceptable

>  <inchikey>  (2727) 
QSJGIVUXJHAUGF-UHFFFAOYSA-N

>  <fragmenstein_mode>  (2727) 
expansion

>  <HIPPO Pose ID>  (2727) 
29854

>  <Energy>  (2727) 
57.173373

>  <fragmenstein_error>  (2727) 


>  <tags>  (2727) 
{'openbind_xx01zvns2b_c1_fragmenstein', 'fragmenstein_placed'}

>  <ref_pdb>  (2727) 
175

>  <scratch_subdir>  (2727) 
/opt/xchem-fragalysis-2/maxwin/BulkDock/SCRATCH/511028/C41376-P302

>  <alias>  (2727) 
CNCc1[nH]c2c(Cl)cc(C(=O)Nc3cc(C)c4c(c3)CNC4)cc2c1C1CNC1

>  <HIPPO Compound ID>  (2727) 
41376

>  <fragmenstein_runtime>  (2727) 
6.254025

$$$$
Nc1[nH]c2c(Cl)cc(C(=O)Nc3ccc4c(c3)CNC4)cc2c1C1CNC1
     RDKit          3D

 27 31  0  0  0  0  0  0  0  0999 V2000
   -4.7619    5.3855  -20.2430 N   0  0  0  0  0  0  0  0  0  0  0  0
   -5.3751    5.2110  -19.0537 C   0  0  0  0  0  0  0  0  0  0  0  0
   -6.7012    4.8560  -18.9868 N   0  0  0  0  0  0  0  0  0  0  0  0
   -7.1050    4.7592  -17.6694 C   0  0  0  0  0  0  0  0  0  0  0  0
   -8.3327    4.3985  -17.1028 C   0  0  0  0  0  0  0  0  0  0  0  0
   -9.6374    3.8962  -18.0832 Cl  0  0  0  0  0  0  0  0  0  0  0  0
   -8.4975    4.5073  -15.7197 C   0  0  0  0  0  0  0  0  0  0  0  0
   -7.4440    4.9579  -14.9386 C   0  0  0  0  0  0  0  0  0  0  0  0
   -7.6176    5.3503  -13.5262 C   0  0  0  0  0  0  0  0  0  0  0  0
   -7.4074    6.4641  -13.2491 O   0  0  0  0  0  0  0  0  0  0  0  0
   -7.9631    4.1466  -12.6302 N   0  0  0  0  0  0  0  0  0  0  0  0
   -8.2080    4.0788  -11.2615 C   0  0  0  0  0  0  0  0  0  0  0  0
   -8.1056    5.2305  -10.4594 C   0  0  0  0  0  0  0  0  0  0  0  0
   -8.3236    5.1711   -9.0803 C   0  0  0  0  0  0  0  0  0  0  0  0
   -8.6640    3.9516   -8.5320 C   0  0  0  0  0  0  0  0  0  0  0  0
   -8.7617    2.8099   -9.3239 C   0  0  0  0  0  0  0  0  0  0  0  0
   -8.5245    2.8482  -10.6874 C   0  0  0  0  0  0  0  0  0  0  0  0
   -9.1046    1.6502   -8.4509 C   0  0  0  0  0  0  0  0  0  0  0  0
   -9.6068    2.2550   -7.1881 N   0  0  0  0  0  0  0  0  0  0  0  0
   -8.9634    3.5865   -7.1166 C   0  0  0  0  0  0  0  0  0  0  0  0
   -6.1890    5.2141  -15.4936 C   0  0  0  0  0  0  0  0  0  0  0  0
   -6.0164    5.1239  -16.8836 C   0  0  0  0  0  0  0  0  0  0  0  0
   -4.9241    5.3199  -17.7635 C   0  0  0  0  0  0  0  0  0  0  0  0
   -3.4760    5.5208  -17.2728 C   0  0  0  0  0  0  0  0  0  0  0  0
   -2.5800    6.5088  -18.0249 C   0  0  0  0  0  0  0  0  0  0  0  0
   -2.0327    6.9544  -16.7180 N   0  0  0  0  0  0  0  0  0  0  0  0
   -3.2930    6.4984  -16.0934 C   0  0  0  0  0  0  0  0  0  0  0  0
  1  2  1  0
  2  3  1  0
  3  4  1  0
  4  5  2  0
  5  6  1  0
  5  7  1  0
  7  8  2  0
  8  9  1  0
  9 10  2  0
  9 11  1  0
 11 12  1  0
 12 13  2  0
 13 14  1  0
 14 15  2  0
 15 16  1  0
 16 17  2  0
 16 18  1  0
 18 19  1  0
 19 20  1  0
  8 21  1  0
 21 22  2  0
 22 23  1  0
 23 24  1  0
 24 25  1  0
 25 26  1  0
 26 27  1  0
 23  2  2  0
 27 24  1  0
 22  4  1  0
 17 12  1  0
 20 15  1  0
M  END
>  <smiles>  (2728) 
C41217-P302

>  <fragmenstein_outcome>  (2728) 
acceptable

>  <inchikey>  (2728) 
GTBBOLNCIMGJHZ-UHFFFAOYSA-N

>  <fragmenstein_mode>  (2728) 
expansion

>  <HIPPO Pose ID>  (2728) 
29855

>  <Energy>  (2728) 
58.712422

>  <fragmenstein_error>  (2728) 


>  <tags>  (2728) 
{'openbind_xx01zvns2b_c1_fragmenstein', 'fragmenstein_placed'}

>  <ref_pdb>  (2728) 
175

>  <scratch_subdir>  (2728) 
/opt/xchem-fragalysis-2/maxwin/BulkDock/SCRATCH/511028/C41217-P302

>  <alias>  (2728) 
Nc1[nH]c2c(Cl)cc(C(=O)Nc3ccc4c(c3)CNC4)cc2c1C1CNC1

>  <HIPPO Compound ID>  (2728) 
41217

>  <fragmenstein_runtime>  (2728) 
4.824958

$$$$
Cc1cc2c(C(=O)N[C@H]3CCC4=C(CNC4)N3)cc(Cl)cc2n1C1CNC1
     RDKit          3D

 27 31  0  0  0  0  0  0  0  0999 V2000
   -2.6783    5.9178  -17.2632 C   0  0  0  0  0  0  0  0  0  0  0  0
   -4.1045    5.6303  -17.0081 C   0  0  0  0  0  0  0  0  0  0  0  0
   -4.7273    5.5377  -15.7802 C   0  0  0  0  0  0  0  0  0  0  0  0
   -6.0818    5.1635  -15.9694 C   0  0  0  0  0  0  0  0  0  0  0  0
   -7.1733    4.9239  -15.0990 C   0  0  0  0  0  0  0  0  0  0  0  0
   -6.9814    5.2740  -13.6645 C   0  0  0  0  0  0  0  0  0  0  0  0
   -6.4538    6.2901  -13.4505 O   0  0  0  0  0  0  0  0  0  0  0  0
   -7.4330    4.1664  -12.7042 N   0  0  0  0  0  0  0  0  0  0  0  0
   -7.4184    4.1126  -11.2802 C   0  0  1  0  0  0  0  0  0  0  0  0
   -7.9395    5.4195  -10.6607 C   0  0  0  0  0  0  0  0  0  0  0  0
   -8.0639    5.3302   -9.1353 C   0  0  0  0  0  0  0  0  0  0  0  0
   -8.5478    3.9919   -8.7185 C   0  0  0  0  0  0  0  0  0  0  0  0
   -8.6112    2.9443   -9.5414 C   0  0  0  0  0  0  0  0  0  0  0  0
   -9.0431    1.7386   -8.7700 C   0  0  0  0  0  0  0  0  0  0  0  0
   -9.5416    2.2709   -7.4760 N   0  0  0  0  0  0  0  0  0  0  0  0
   -8.9339    3.6073   -7.3396 C   0  0  0  0  0  0  0  0  0  0  0  0
   -8.2297    2.9811  -10.8733 N   0  0  0  0  0  0  0  0  0  0  0  0
   -8.4007    4.5097  -15.6331 C   0  0  0  0  0  0  0  0  0  0  0  0
   -8.5312    4.3653  -17.0145 C   0  0  0  0  0  0  0  0  0  0  0  0
  -10.0462    3.9868  -17.7236 Cl  0  0  0  0  0  0  0  0  0  0  0  0
   -7.4721    4.6164  -17.8884 C   0  0  0  0  0  0  0  0  0  0  0  0
   -6.2544    5.0315  -17.3425 C   0  0  0  0  0  0  0  0  0  0  0  0
   -5.0775    5.4230  -17.9503 N   0  0  0  0  0  0  0  0  0  0  0  0
   -4.9860    5.5721  -19.4122 C   0  0  0  0  0  0  0  0  0  0  0  0
   -5.7624    6.8170  -19.8846 C   0  0  0  0  0  0  0  0  0  0  0  0
   -4.7726    6.9493  -20.9896 N   0  0  0  0  0  0  0  0  0  0  0  0
   -3.7991    6.3377  -20.0401 C   0  0  0  0  0  0  0  0  0  0  0  0
  1  2  1  0
  2  3  2  0
  3  4  1  0
  4  5  2  0
  5  6  1  0
  6  7  2  0
  6  8  1  0
  9  8  1  6
  9 10  1  0
 10 11  1  0
 11 12  1  0
 12 13  2  0
 13 14  1  0
 14 15  1  0
 15 16  1  0
 13 17  1  0
  5 18  1  0
 18 19  2  0
 19 20  1  0
 19 21  1  0
 21 22  2  0
 22 23  1  0
 23 24  1  0
 24 25  1  0
 25 26  1  0
 26 27  1  0
 23  2  1  0
 27 24  1  0
 22  4  1  0
 17  9  1  0
 16 12  1  0
M  END
>  <smiles>  (2729) 
C41491-P302

>  <fragmenstein_outcome>  (2729) 
acceptable

>  <inchikey>  (2729) 
CROLKKLLXKJBCA-UHFFFAOYSA-N

>  <fragmenstein_mode>  (2729) 
expansion

>  <HIPPO Pose ID>  (2729) 
29891

>  <Energy>  (2729) 
-0.724046

>  <fragmenstein_error>  (2729) 


>  <tags>  (2729) 
{'openbind_xx01zvns2b_c1_fragmenstein', 'fragmenstein_placed'}

>  <ref_pdb>  (2729) 
175

>  <scratch_subdir>  (2729) 
/opt/xchem-fragalysis-2/maxwin/BulkDock/SCRATCH/511028/C41491-P302

>  <alias>  (2729) 
Cc1cc2c(C(=O)N[C@H]3CCC4=C(CNC4)N3)cc(Cl)cc2n1C1CNC1

>  <HIPPO Compound ID>  (2729) 
41491

>  <fragmenstein_runtime>  (2729) 
12.69641

$$$$
O=C(N[C@H]1CCC2=C(CNC2)N1)c1cc(Cl)cc2c1CC1(CCNCC1)N2C1CNC1
     RDKit          3D

 31 36  0  0  0  0  0  0  0  0999 V2000
   -7.4007    6.7234  -13.8438 O   0  0  0  0  0  0  0  0  0  0  0  0
   -7.5139    5.5764  -14.0136 C   0  0  0  0  0  0  0  0  0  0  0  0
   -7.6217    4.4257  -13.0017 N   0  0  0  0  0  0  0  0  0  0  0  0
   -7.5187    4.4301  -11.5764 C   0  0  1  0  0  0  0  0  0  0  0  0
   -8.0654    5.7022  -10.9181 C   0  0  0  0  0  0  0  0  0  0  0  0
   -7.9808    5.6266   -9.3852 C   0  0  0  0  0  0  0  0  0  0  0  0
   -8.3195    4.2674   -8.8902 C   0  0  0  0  0  0  0  0  0  0  0  0
   -8.4330    3.2093   -9.6917 C   0  0  0  0  0  0  0  0  0  0  0  0
   -8.8170    2.0120   -8.8828 C   0  0  0  0  0  0  0  0  0  0  0  0
   -9.0211    2.5032   -7.4922 N   0  0  0  0  0  0  0  0  0  0  0  0
   -8.5790    3.9082   -7.4764 C   0  0  0  0  0  0  0  0  0  0  0  0
   -8.1835    3.2471  -11.0573 N   0  0  0  0  0  0  0  0  0  0  0  0
   -7.4696    5.1030  -15.4182 C   0  0  0  0  0  0  0  0  0  0  0  0
   -8.5914    4.5666  -16.0402 C   0  0  0  0  0  0  0  0  0  0  0  0
   -8.5582    4.3482  -17.4242 C   0  0  0  0  0  0  0  0  0  0  0  0
   -9.9943    3.8555  -18.2264 Cl  0  0  0  0  0  0  0  0  0  0  0  0
   -7.4114    4.6097  -18.1848 C   0  0  0  0  0  0  0  0  0  0  0  0
   -6.2882    5.1171  -17.5524 C   0  0  0  0  0  0  0  0  0  0  0  0
   -6.3381    5.3745  -16.1882 C   0  0  0  0  0  0  0  0  0  0  0  0
   -5.0573    5.9804  -15.7363 C   0  0  0  0  0  0  0  0  0  0  0  0
   -4.1672    5.9652  -17.0370 C   0  0  0  0  0  0  0  0  0  0  0  0
   -2.9453    5.0741  -16.7520 C   0  0  0  0  0  0  0  0  0  0  0  0
   -2.0582    5.6511  -15.6328 C   0  0  0  0  0  0  0  0  0  0  0  0
   -2.1684    7.0999  -15.4692 N   0  0  0  0  0  0  0  0  0  0  0  0
   -2.3508    7.7644  -16.7475 C   0  0  0  0  0  0  0  0  0  0  0  0
   -3.7072    7.4078  -17.3556 C   0  0  0  0  0  0  0  0  0  0  0  0
   -5.0392    5.4419  -18.1379 N   0  0  0  0  0  0  0  0  0  0  0  0
   -4.6908    5.1583  -19.5113 C   0  0  0  0  0  0  0  0  0  0  0  0
   -4.9778    6.2988  -20.5141 C   0  0  0  0  0  0  0  0  0  0  0  0
   -3.7558    5.8957  -21.2566 N   0  0  0  0  0  0  0  0  0  0  0  0
   -3.2338    5.3078  -19.9994 C   0  0  0  0  0  0  0  0  0  0  0  0
  1  2  2  0
  2  3  1  0
  4  3  1  6
  4  5  1  0
  5  6  1  0
  6  7  1  0
  7  8  2  0
  8  9  1  0
  9 10  1  0
 10 11  1  0
  8 12  1  0
  2 13  1  0
 13 14  2  0
 14 15  1  0
 15 16  1  0
 15 17  2  0
 17 18  1  0
 18 19  2  0
 19 20  1  0
 20 21  1  0
 21 22  1  0
 22 23  1  0
 23 24  1  0
 24 25  1  0
 25 26  1  0
 21 27  1  0
 27 28  1  0
 28 29  1  0
 29 30  1  0
 30 31  1  0
 12  4  1  0
 19 13  1  0
 26 21  1  0
 31 28  1  0
 11  7  1  0
 27 18  1  0
M  END
>  <smiles>  (2730) 
C41508-P283

>  <fragmenstein_outcome>  (2730) 
acceptable

>  <inchikey>  (2730) 
FYNNFWIMGGOAPC-UHFFFAOYSA-N

>  <fragmenstein_mode>  (2730) 
expansion

>  <HIPPO Pose ID>  (2730) 
29906

>  <Energy>  (2730) 
24.977517

>  <fragmenstein_error>  (2730) 


>  <tags>  (2730) 
{'openbind_xx01zvns2b_c1_fragmenstein', 'fragmenstein_placed'}

>  <ref_pdb>  (2730) 
175

>  <scratch_subdir>  (2730) 
/opt/xchem-fragalysis-2/maxwin/BulkDock/SCRATCH/511028/C41508-P283

>  <alias>  (2730) 
O=C(N[C@H]1CCC2=C(CNC2)N1)c1cc(Cl)cc2c1CC1(CCNCC1)N2C1CNC1

>  <HIPPO Compound ID>  (2730) 
43083

>  <fragmenstein_runtime>  (2730) 
8.198905

$$$$
O=C(N[C@H]1CCC2=C(CNC2)N1)c1cc(Cl)c2[nH]c(=O)n3c2c1CN3
     RDKit          3D

 25 29  0  0  0  0  0  0  0  0999 V2000
   -5.3498    5.6841  -13.2328 O   0  0  0  0  0  0  0  0  0  0  0  0
   -6.2385    4.9883  -13.5213 C   0  0  0  0  0  0  0  0  0  0  0  0
   -7.1846    4.1656  -12.6378 N   0  0  0  0  0  0  0  0  0  0  0  0
   -7.3003    4.0963  -11.2213 C   0  0  1  0  0  0  0  0  0  0  0  0
   -7.8396    5.4168  -10.6498 C   0  0  0  0  0  0  0  0  0  0  0  0
   -8.0334    5.3382   -9.1291 C   0  0  0  0  0  0  0  0  0  0  0  0
   -8.5076    3.9922   -8.7144 C   0  0  0  0  0  0  0  0  0  0  0  0
   -8.5778    2.9498   -9.5427 C   0  0  0  0  0  0  0  0  0  0  0  0
   -8.9804    1.7306   -8.7811 C   0  0  0  0  0  0  0  0  0  0  0  0
   -9.1487    2.1607   -7.3688 N   0  0  0  0  0  0  0  0  0  0  0  0
   -8.8507    3.6036   -7.3272 C   0  0  0  0  0  0  0  0  0  0  0  0
   -8.1780    2.9986  -10.8715 N   0  0  0  0  0  0  0  0  0  0  0  0
   -6.4992    4.8832  -14.9951 C   0  0  0  0  0  0  0  0  0  0  0  0
   -7.7427    4.5191  -15.6225 C   0  0  0  0  0  0  0  0  0  0  0  0
   -7.8974    4.4891  -17.0549 C   0  0  0  0  0  0  0  0  0  0  0  0
   -9.3522    3.9288  -17.7683 Cl  0  0  0  0  0  0  0  0  0  0  0  0
   -6.8377    4.8822  -17.8297 C   0  0  0  0  0  0  0  0  0  0  0  0
   -6.4635    4.9445  -19.1870 N   0  0  0  0  0  0  0  0  0  0  0  0
   -5.0432    5.2710  -19.2674 C   0  0  0  0  0  0  0  0  0  0  0  0
   -4.2960    5.2245  -20.2311 O   0  0  0  0  0  0  0  0  0  0  0  0
   -4.6896    5.5986  -17.9393 N   0  0  0  0  0  0  0  0  0  0  0  0
   -5.7335    5.2663  -17.1450 C   0  0  0  0  0  0  0  0  0  0  0  0
   -5.4520    5.2374  -15.8247 C   0  0  0  0  0  0  0  0  0  0  0  0
   -3.9873    5.5794  -15.7428 C   0  0  0  0  0  0  0  0  0  0  0  0
   -3.5022    5.6682  -17.1984 N   0  0  0  0  0  0  0  0  0  0  0  0
  1  2  2  0
  2  3  1  0
  4  3  1  6
  4  5  1  0
  5  6  1  0
  6  7  1  0
  7  8  2  0
  8  9  1  0
  9 10  1  0
 10 11  1  0
  8 12  1  0
  2 13  1  0
 13 14  2  0
 14 15  1  0
 15 16  1  0
 15 17  2  0
 17 18  1  0
 18 19  1  0
 19 20  2  0
 19 21  1  0
 21 22  1  0
 22 23  2  0
 23 24  1  0
 24 25  1  0
 12  4  1  0
 23 13  1  0
 11  7  1  0
 22 17  1  0
 25 21  1  0
M  END
>  <smiles>  (2731) 
C41560-P302

>  <fragmenstein_outcome>  (2731) 
acceptable

>  <inchikey>  (2731) 
BKBQWUZJTHIAQT-UHFFFAOYSA-N

>  <fragmenstein_mode>  (2731) 
expansion

>  <HIPPO Pose ID>  (2731) 
29909

>  <Energy>  (2731) 
18.877445

>  <fragmenstein_error>  (2731) 


>  <tags>  (2731) 
{'openbind_xx01zvns2b_c1_fragmenstein', 'fragmenstein_placed'}

>  <ref_pdb>  (2731) 
175

>  <scratch_subdir>  (2731) 
/opt/xchem-fragalysis-2/maxwin/BulkDock/SCRATCH/511028/C41560-P302

>  <alias>  (2731) 
O=C(N[C@H]1CCC2=C(CNC2)N1)c1cc(Cl)c2[nH]c(=O)n3c2c1CN3

>  <HIPPO Compound ID>  (2731) 
43505

>  <fragmenstein_runtime>  (2731) 
4.220764

$$$$
CCCNc1c[nH]c([C@@H](F)C[C@@H](C)C(=O)Nc2ccc3c(c2)CNC3)c1
     RDKit          3D

 26 28  0  0  0  0  0  0  0  0999 V2000
   -0.6569    6.2326  -19.5005 C   0  0  0  0  0  0  0  0  0  0  0  0
   -2.1320    6.4159  -19.8159 C   0  0  0  0  0  0  0  0  0  0  0  0
   -2.8969    5.1040  -19.7338 C   0  0  0  0  0  0  0  0  0  0  0  0
   -4.3122    5.3161  -20.0070 N   0  0  0  0  0  0  0  0  0  0  0  0
   -5.1769    5.3803  -18.9748 C   0  0  0  0  0  0  0  0  0  0  0  0
   -5.0040    6.1048  -17.8286 C   0  0  0  0  0  0  0  0  0  0  0  0
   -6.1375    5.9559  -17.0850 N   0  0  0  0  0  0  0  0  0  0  0  0
   -6.9801    5.0337  -17.6657 C   0  0  0  0  0  0  0  0  0  0  0  0
   -8.2780    4.5988  -17.0592 C   0  0  1  0  0  0  0  0  0  0  0  0
   -8.4786    3.2612  -17.1323 F   0  0  0  0  0  0  0  0  0  0  0  0
   -8.4870    5.0630  -15.6206 C   0  0  0  0  0  0  0  0  0  0  0  0
   -7.7738    4.3509  -14.4694 C   0  0  1  0  0  0  0  0  0  0  0  0
   -6.2479    4.4252  -14.4576 C   0  0  0  0  0  0  0  0  0  0  0  0
   -8.1833    5.0220  -13.1533 C   0  0  0  0  0  0  0  0  0  0  0  0
   -8.4306    6.1611  -13.0626 O   0  0  0  0  0  0  0  0  0  0  0  0
   -8.0839    3.9240  -12.0605 N   0  0  0  0  0  0  0  0  0  0  0  0
   -8.3496    3.9801  -10.7044 C   0  0  0  0  0  0  0  0  0  0  0  0
   -8.3305    5.2006  -10.0141 C   0  0  0  0  0  0  0  0  0  0  0  0
   -8.5235    5.2290   -8.6311 C   0  0  0  0  0  0  0  0  0  0  0  0
   -8.7920    4.0350   -7.9850 C   0  0  0  0  0  0  0  0  0  0  0  0
   -8.8514    2.8369   -8.6856 C   0  0  0  0  0  0  0  0  0  0  0  0
   -8.5937    2.7825  -10.0394 C   0  0  0  0  0  0  0  0  0  0  0  0
   -9.1867    1.7268   -7.7542 C   0  0  0  0  0  0  0  0  0  0  0  0
   -9.5383    2.3733   -6.4668 N   0  0  0  0  0  0  0  0  0  0  0  0
   -9.0463    3.7640   -6.5416 C   0  0  0  0  0  0  0  0  0  0  0  0
   -6.4176    4.7194  -18.8896 C   0  0  0  0  0  0  0  0  0  0  0  0
  1  2  1  0
  2  3  1  0
  3  4  1  0
  4  5  1  0
  5  6  2  0
  6  7  1  0
  7  8  1  0
  8  9  1  0
  9 10  1  1
  9 11  1  0
 11 12  1  0
 12 13  1  6
 12 14  1  0
 14 15  2  0
 14 16  1  0
 16 17  1  0
 17 18  2  0
 18 19  1  0
 19 20  2  0
 20 21  1  0
 21 22  2  0
 21 23  1  0
 23 24  1  0
 24 25  1  0
  8 26  2  0
 26  5  1  0
 22 17  1  0
 25 20  1  0
M  END
>  <smiles>  (2732) 
C41602-P303

>  <fragmenstein_outcome>  (2732) 
acceptable

>  <inchikey>  (2732) 
QDIQQSGEVNHYGM-UHFFFAOYSA-N

>  <fragmenstein_mode>  (2732) 
expansion

>  <HIPPO Pose ID>  (2732) 
29934

>  <Energy>  (2732) 
10.954711

>  <fragmenstein_error>  (2732) 


>  <tags>  (2732) 
{'openbind_xx01zvns2b_c1_fragmenstein', 'fragmenstein_placed'}

>  <ref_pdb>  (2732) 
175

>  <scratch_subdir>  (2732) 
/opt/xchem-fragalysis-2/maxwin/BulkDock/SCRATCH/511028/C41602-P303

>  <alias>  (2732) 
CCCNc1c[nH]c([C@@H](F)C[C@@H](C)C(=O)Nc2ccc3c(c2)CNC3)c1

>  <HIPPO Compound ID>  (2732) 
41602

>  <fragmenstein_runtime>  (2732) 
4.486735

$$$$
NCc1c(N)[nH]c2c(F)cc(C(=O)Nc3ccc4c(c3)CNC4)cc12
     RDKit          3D

 25 28  0  0  0  0  0  0  0  0999 V2000
   -4.3068    7.7952  -16.4548 N   0  0  0  0  0  0  0  0  0  0  0  0
   -3.9361    6.4548  -16.9110 C   0  0  0  0  0  0  0  0  0  0  0  0
   -5.1390    5.7731  -17.4603 C   0  0  0  0  0  0  0  0  0  0  0  0
   -5.4548    5.4247  -18.7606 C   0  0  0  0  0  0  0  0  0  0  0  0
   -4.7876    5.5762  -19.9247 N   0  0  0  0  0  0  0  0  0  0  0  0
   -6.7068    4.8569  -18.7632 N   0  0  0  0  0  0  0  0  0  0  0  0
   -7.1924    4.7752  -17.4803 C   0  0  0  0  0  0  0  0  0  0  0  0
   -8.3998    4.2880  -16.9788 C   0  0  0  0  0  0  0  0  0  0  0  0
   -9.3194    3.7490  -17.7881 F   0  0  0  0  0  0  0  0  0  0  0  0
   -8.6645    4.4227  -15.6153 C   0  0  0  0  0  0  0  0  0  0  0  0
   -7.7272    5.0274  -14.7874 C   0  0  0  0  0  0  0  0  0  0  0  0
   -8.0153    5.4286  -13.3971 C   0  0  0  0  0  0  0  0  0  0  0  0
   -7.9412    6.5634  -13.1378 O   0  0  0  0  0  0  0  0  0  0  0  0
   -8.2753    4.2136  -12.4912 N   0  0  0  0  0  0  0  0  0  0  0  0
   -8.4011    4.1275  -11.1077 C   0  0  0  0  0  0  0  0  0  0  0  0
   -8.3008    5.2782  -10.3044 C   0  0  0  0  0  0  0  0  0  0  0  0
   -8.4457    5.2017   -8.9168 C   0  0  0  0  0  0  0  0  0  0  0  0
   -8.7243    3.9684   -8.3637 C   0  0  0  0  0  0  0  0  0  0  0  0
   -8.8129    2.8277   -9.1576 C   0  0  0  0  0  0  0  0  0  0  0  0
   -8.6303    2.8811  -10.5279 C   0  0  0  0  0  0  0  0  0  0  0  0
   -9.1138    1.6557   -8.2869 C   0  0  0  0  0  0  0  0  0  0  0  0
   -9.5879    2.2415   -7.0061 N   0  0  0  0  0  0  0  0  0  0  0  0
   -8.9837    3.5909   -6.9442 C   0  0  0  0  0  0  0  0  0  0  0  0
   -6.4899    5.4426  -15.2781 C   0  0  0  0  0  0  0  0  0  0  0  0
   -6.2302    5.3388  -16.6515 C   0  0  0  0  0  0  0  0  0  0  0  0
  1  2  1  0
  2  3  1  0
  3  4  2  0
  4  5  1  0
  4  6  1  0
  6  7  1  0
  7  8  2  0
  8  9  1  0
  8 10  1  0
 10 11  2  0
 11 12  1  0
 12 13  2  0
 12 14  1  0
 14 15  1  0
 15 16  2  0
 16 17  1  0
 17 18  2  0
 18 19  1  0
 19 20  2  0
 19 21  1  0
 21 22  1  0
 22 23  1  0
 11 24  1  0
 24 25  2  0
 25  3  1  0
 25  7  1  0
 20 15  1  0
 23 18  1  0
M  END
>  <smiles>  (2733) 
C41605-P303

>  <fragmenstein_outcome>  (2733) 
acceptable

>  <inchikey>  (2733) 
FDWRCKCBDLYHED-UHFFFAOYSA-N

>  <fragmenstein_mode>  (2733) 
expansion

>  <HIPPO Pose ID>  (2733) 
29936

>  <Energy>  (2733) 
28.411904

>  <fragmenstein_error>  (2733) 


>  <tags>  (2733) 
{'openbind_xx01zvns2b_c1_fragmenstein', 'fragmenstein_placed'}

>  <ref_pdb>  (2733) 
175

>  <scratch_subdir>  (2733) 
/opt/xchem-fragalysis-2/maxwin/BulkDock/SCRATCH/511028/C41605-P303

>  <alias>  (2733) 
NCc1c(N)[nH]c2c(F)cc(C(=O)Nc3ccc4c(c3)CNC4)cc12

>  <HIPPO Compound ID>  (2733) 
41605

>  <fragmenstein_runtime>  (2733) 
6.081957

$$$$
NCc1cn2cnc3cc(C(=O)Nc4ccc5c(c4)CNC5)cc1c32
     RDKit          3D

 25 29  0  0  0  0  0  0  0  0999 V2000
  -10.8127    4.7648  -18.2682 N   0  0  0  0  0  0  0  0  0  0  0  0
   -9.9356    3.8164  -17.6280 C   0  0  0  0  0  0  0  0  0  0  0  0
   -8.5427    4.2704  -17.6288 C   0  0  0  0  0  0  0  0  0  0  0  0
   -7.6230    4.2155  -18.7073 C   0  0  0  0  0  0  0  0  0  0  0  0
   -6.5224    4.7907  -18.2417 N   0  0  0  0  0  0  0  0  0  0  0  0
   -5.2985    5.1254  -18.6394 C   0  0  0  0  0  0  0  0  0  0  0  0
   -4.6149    5.6089  -17.5747 N   0  0  0  0  0  0  0  0  0  0  0  0
   -5.4936    5.5371  -16.4863 C   0  0  0  0  0  0  0  0  0  0  0  0
   -5.5453    5.8014  -15.1169 C   0  0  0  0  0  0  0  0  0  0  0  0
   -6.7940    5.5029  -14.4594 C   0  0  0  0  0  0  0  0  0  0  0  0
   -6.9294    5.7984  -13.0097 C   0  0  0  0  0  0  0  0  0  0  0  0
   -6.6238    6.8533  -12.6125 O   0  0  0  0  0  0  0  0  0  0  0  0
   -7.5823    4.5999  -12.2767 N   0  0  0  0  0  0  0  0  0  0  0  0
   -7.8955    4.4247  -10.9327 C   0  0  0  0  0  0  0  0  0  0  0  0
   -7.8435    5.4958  -10.0290 C   0  0  0  0  0  0  0  0  0  0  0  0
   -8.2013    5.3169   -8.6894 C   0  0  0  0  0  0  0  0  0  0  0  0
   -8.6140    4.0615   -8.2849 C   0  0  0  0  0  0  0  0  0  0  0  0
   -8.6658    2.9982   -9.1813 C   0  0  0  0  0  0  0  0  0  0  0  0
   -8.3115    3.1578  -10.5092 C   0  0  0  0  0  0  0  0  0  0  0  0
   -9.1062    1.7724   -8.4540 C   0  0  0  0  0  0  0  0  0  0  0  0
   -9.6793    2.2670   -7.1752 N   0  0  0  0  0  0  0  0  0  0  0  0
   -9.0342    3.5781   -6.9368 C   0  0  0  0  0  0  0  0  0  0  0  0
   -7.9708    4.9961  -15.1148 C   0  0  0  0  0  0  0  0  0  0  0  0
   -7.8459    4.7476  -16.4742 C   0  0  0  0  0  0  0  0  0  0  0  0
   -6.6424    5.0484  -16.9801 C   0  0  0  0  0  0  0  0  0  0  0  0
  1  2  1  0
  2  3  1  0
  3  4  2  0
  4  5  1  0
  5  6  1  0
  6  7  2  0
  7  8  1  0
  8  9  1  0
  9 10  2  0
 10 11  1  0
 11 12  2  0
 11 13  1  0
 13 14  1  0
 14 15  2  0
 15 16  1  0
 16 17  2  0
 17 18  1  0
 18 19  2  0
 18 20  1  0
 20 21  1  0
 21 22  1  0
 10 23  1  0
 23 24  2  0
 24 25  1  0
 24  3  1  0
 25  5  1  0
 25  8  2  0
 19 14  1  0
 22 17  1  0
M  END
>  <smiles>  (2734) 
C41611-P303

>  <fragmenstein_outcome>  (2734) 
acceptable

>  <inchikey>  (2734) 
YKMZDYPGMXUQGK-UHFFFAOYSA-N

>  <fragmenstein_mode>  (2734) 
expansion

>  <HIPPO Pose ID>  (2734) 
29937

>  <Energy>  (2734) 
68.700568

>  <fragmenstein_error>  (2734) 


>  <tags>  (2734) 
{'openbind_xx01zvns2b_c1_fragmenstein', 'fragmenstein_placed'}

>  <ref_pdb>  (2734) 
175

>  <scratch_subdir>  (2734) 
/opt/xchem-fragalysis-2/maxwin/BulkDock/SCRATCH/511028/C41611-P303

>  <alias>  (2734) 
NCc1cn2cnc3cc(C(=O)Nc4ccc5c(c4)CNC5)cc1c32

>  <HIPPO Compound ID>  (2734) 
22034

>  <fragmenstein_runtime>  (2734) 
5.448763

$$$$
C[C@@H](C[C@H](F)c1cc(C(=O)c2cscn2)c[nH]1)C(=O)Nc1ccc2c(c1)CNC2
     RDKit          3D

 29 32  0  0  0  0  0  0  0  0999 V2000
   -6.1355    5.4762  -14.3325 C   0  0  0  0  0  0  0  0  0  0  0  0
   -7.6455    5.5859  -14.5816 C   0  0  1  0  0  0  0  0  0  0  0  0
   -8.2951    4.4223  -15.3434 C   0  0  0  0  0  0  0  0  0  0  0  0
   -8.2978    4.4718  -16.8835 C   0  0  2  0  0  0  0  0  0  0  0  0
   -8.6703    3.2275  -17.3126 F   0  0  0  0  0  0  0  0  0  0  0  0
   -7.0043    4.8934  -17.5148 C   0  0  0  0  0  0  0  0  0  0  0  0
   -6.6976    5.7253  -18.5726 C   0  0  0  0  0  0  0  0  0  0  0  0
   -5.2851    5.7357  -18.7937 C   0  0  0  0  0  0  0  0  0  0  0  0
   -4.5455    6.4656  -19.8202 C   0  0  0  0  0  0  0  0  0  0  0  0
   -5.0307    7.4389  -20.3891 O   0  0  0  0  0  0  0  0  0  0  0  0
   -3.1309    6.1059  -20.0005 C   0  0  0  0  0  0  0  0  0  0  0  0
   -2.1559    6.4909  -19.0918 C   0  0  0  0  0  0  0  0  0  0  0  0
   -0.5958    6.1267  -19.6821 S   0  0  0  0  0  0  0  0  0  0  0  0
   -1.3098    5.4973  -21.1050 C   0  0  0  0  0  0  0  0  0  0  0  0
   -2.6271    5.4727  -21.1485 N   0  0  0  0  0  0  0  0  0  0  0  0
   -4.7619    4.9657  -17.7817 C   0  0  0  0  0  0  0  0  0  0  0  0
   -5.8005    4.4526  -17.0621 N   0  0  0  0  0  0  0  0  0  0  0  0
   -8.2642    5.8660  -13.2089 C   0  0  0  0  0  0  0  0  0  0  0  0
   -8.6796    6.9245  -12.9332 O   0  0  0  0  0  0  0  0  0  0  0  0
   -8.1162    4.5826  -12.3398 N   0  0  0  0  0  0  0  0  0  0  0  0
   -8.3509    4.3787  -10.9878 C   0  0  0  0  0  0  0  0  0  0  0  0
   -8.3913    5.4763  -10.1118 C   0  0  0  0  0  0  0  0  0  0  0  0
   -8.5637    5.2875   -8.7399 C   0  0  0  0  0  0  0  0  0  0  0  0
   -8.7650    3.9996   -8.2847 C   0  0  0  0  0  0  0  0  0  0  0  0
   -8.7458    2.9142   -9.1576 C   0  0  0  0  0  0  0  0  0  0  0  0
   -8.4937    3.0764  -10.5084 C   0  0  0  0  0  0  0  0  0  0  0  0
   -9.0394    1.6702   -8.3886 C   0  0  0  0  0  0  0  0  0  0  0  0
   -9.5737    2.1383   -7.0827 N   0  0  0  0  0  0  0  0  0  0  0  0
   -9.0451    3.5077   -6.9049 C   0  0  0  0  0  0  0  0  0  0  0  0
  2  1  1  1
  2  3  1  0
  3  4  1  0
  4  5  1  6
  4  6  1  0
  6  7  2  0
  7  8  1  0
  8  9  1  0
  9 10  2  0
  9 11  1  0
 11 12  2  0
 12 13  1  0
 13 14  1  0
 14 15  2  0
  8 16  2  0
 16 17  1  0
  2 18  1  0
 18 19  2  0
 18 20  1  0
 20 21  1  0
 21 22  2  0
 22 23  1  0
 23 24  2  0
 24 25  1  0
 25 26  2  0
 25 27  1  0
 27 28  1  0
 28 29  1  0
 17  6  1  0
 26 21  1  0
 15 11  1  0
 29 24  1  0
M  END
>  <smiles>  (2735) 
C41614-P303

>  <fragmenstein_outcome>  (2735) 
acceptable

>  <inchikey>  (2735) 
GJPKJEYLEADGRU-UHFFFAOYSA-N

>  <fragmenstein_mode>  (2735) 
expansion

>  <HIPPO Pose ID>  (2735) 
29940

>  <Energy>  (2735) 
120.418999

>  <fragmenstein_error>  (2735) 


>  <tags>  (2735) 
{'openbind_xx01zvns2b_c1_fragmenstein', 'fragmenstein_placed'}

>  <ref_pdb>  (2735) 
175

>  <scratch_subdir>  (2735) 
/opt/xchem-fragalysis-2/maxwin/BulkDock/SCRATCH/511028/C41614-P303

>  <alias>  (2735) 
C[C@@H](C[C@H](F)c1cc(C(=O)c2cscn2)c[nH]1)C(=O)Nc1ccc2c(c1)CNC2

>  <HIPPO Compound ID>  (2735) 
253

>  <fragmenstein_runtime>  (2735) 
4.045949

$$$$
NCc1c[nH]c2c(F)cc(C(O)(O)Nc3ccc4c(c3)CNC4)cc12
     RDKit          3D

 25 28  0  0  0  0  0  0  0  0999 V2000
   -2.7650    5.2931  -19.4344 N   0  0  0  0  0  0  0  0  0  0  0  0
   -3.4361    5.5387  -18.1567 C   0  0  0  0  0  0  0  0  0  0  0  0
   -4.9042    5.2654  -18.2397 C   0  0  0  0  0  0  0  0  0  0  0  0
   -5.6510    5.1496  -19.3922 C   0  0  0  0  0  0  0  0  0  0  0  0
   -6.9239    4.7916  -19.0616 N   0  0  0  0  0  0  0  0  0  0  0  0
   -7.0710    4.7359  -17.7060 C   0  0  0  0  0  0  0  0  0  0  0  0
   -8.1976    4.4153  -16.9535 C   0  0  0  0  0  0  0  0  0  0  0  0
   -9.3391    4.0347  -17.5438 F   0  0  0  0  0  0  0  0  0  0  0  0
   -8.1283    4.5093  -15.5699 C   0  0  0  0  0  0  0  0  0  0  0  0
   -6.9363    4.8845  -14.9278 C   0  0  0  0  0  0  0  0  0  0  0  0
   -6.9122    5.0940  -13.4192 C   0  0  0  0  0  0  0  0  0  0  0  0
   -7.3773    6.3999  -13.2278 O   0  0  0  0  0  0  0  0  0  0  0  0
   -5.6103    4.9575  -12.9192 O   0  0  0  0  0  0  0  0  0  0  0  0
   -7.7803    4.1839  -12.7129 N   0  0  0  0  0  0  0  0  0  0  0  0
   -7.9774    4.1510  -11.3247 C   0  0  0  0  0  0  0  0  0  0  0  0
   -7.8302    5.2739  -10.4790 C   0  0  0  0  0  0  0  0  0  0  0  0
   -8.1146    5.2208   -9.1067 C   0  0  0  0  0  0  0  0  0  0  0  0
   -8.5527    4.0276   -8.5767 C   0  0  0  0  0  0  0  0  0  0  0  0
   -8.7014    2.9086   -9.3835 C   0  0  0  0  0  0  0  0  0  0  0  0
   -8.4441    2.9589  -10.7464 C   0  0  0  0  0  0  0  0  0  0  0  0
   -9.1171    1.7544   -8.5329 C   0  0  0  0  0  0  0  0  0  0  0  0
   -9.5930    2.3610   -7.2621 N   0  0  0  0  0  0  0  0  0  0  0  0
   -8.9112    3.6712   -7.1731 C   0  0  0  0  0  0  0  0  0  0  0  0
   -5.7887    5.1603  -15.7278 C   0  0  0  0  0  0  0  0  0  0  0  0
   -5.8435    5.0835  -17.1439 C   0  0  0  0  0  0  0  0  0  0  0  0
  1  2  1  0
  2  3  1  0
  3  4  2  0
  4  5  1  0
  5  6  1  0
  6  7  2  0
  7  8  1  0
  7  9  1  0
  9 10  2  0
 10 11  1  0
 11 12  1  0
 11 13  1  0
 11 14  1  0
 14 15  1  0
 15 16  2  0
 16 17  1  0
 17 18  2  0
 18 19  1  0
 19 20  2  0
 19 21  1  0
 21 22  1  0
 22 23  1  0
 10 24  1  0
 24 25  2  0
 25  3  1  0
 25  6  1  0
 20 15  1  0
 23 18  1  0
M  END
>  <smiles>  (2736) 
C41619-P303

>  <fragmenstein_outcome>  (2736) 
acceptable

>  <inchikey>  (2736) 
UNDMYIVPFJCBLX-UHFFFAOYSA-N

>  <fragmenstein_mode>  (2736) 
expansion

>  <HIPPO Pose ID>  (2736) 
29941

>  <Energy>  (2736) 
-93.97371

>  <fragmenstein_error>  (2736) 


>  <tags>  (2736) 
{'openbind_xx01zvns2b_c1_fragmenstein', 'fragmenstein_placed'}

>  <ref_pdb>  (2736) 
175

>  <scratch_subdir>  (2736) 
/opt/xchem-fragalysis-2/maxwin/BulkDock/SCRATCH/511028/C41619-P303

>  <alias>  (2736) 
NCc1c[nH]c2c(F)cc(C(O)(O)Nc3ccc4c(c3)CNC4)cc12

>  <HIPPO Compound ID>  (2736) 
34250

>  <fragmenstein_runtime>  (2736) 
4.011089

$$$$
C[N@+]([O-])(O)[C@@H]1NCC[C@]12CNc1c(F)cc(C(=O)Nc3ccc4c(c3)CNC4)cc12
     RDKit          3D

 30 34  0  0  0  0  0  0  0  0999 V2000
   -3.5925    9.6444  -18.8139 C   0  0  0  0  0  0  0  0  0  0  0  0
   -4.2066    8.3215  -19.1833 N   0  0  2  0  0  0  0  0  0  0  0  0
   -3.5751    7.7947  -20.2563 O   0  0  0  0  0  0  0  0  0  0  0  0
   -5.5283    8.5843  -19.6581 O   0  0  0  0  0  0  0  0  0  0  0  0
   -4.2703    7.3993  -17.9300 C   0  0  2  0  0  0  0  0  0  0  0  0
   -2.9700    7.3412  -17.1879 N   0  0  0  0  0  0  0  0  0  0  0  0
   -2.2247    6.2841  -17.8804 C   0  0  0  0  0  0  0  0  0  0  0  0
   -3.2471    5.1976  -18.1588 C   0  0  0  0  0  0  0  0  0  0  0  0
   -4.6095    5.9066  -18.1705 C   0  0  2  0  0  0  0  0  0  0  0  0
   -5.4126    5.5211  -19.4334 C   0  0  0  0  0  0  0  0  0  0  0  0
   -6.8062    5.5395  -19.0432 N   0  0  0  0  0  0  0  0  0  0  0  0
   -6.8047    5.0899  -17.7202 C   0  0  0  0  0  0  0  0  0  0  0  0
   -7.9048    4.6343  -17.0083 C   0  0  0  0  0  0  0  0  0  0  0  0
   -9.0322    4.3041  -17.6532 F   0  0  0  0  0  0  0  0  0  0  0  0
   -7.8541    4.5908  -15.6212 C   0  0  0  0  0  0  0  0  0  0  0  0
   -6.6732    4.9933  -14.9715 C   0  0  0  0  0  0  0  0  0  0  0  0
   -6.6878    5.2774  -13.5053 C   0  0  0  0  0  0  0  0  0  0  0  0
   -6.2121    6.2874  -13.1580 O   0  0  0  0  0  0  0  0  0  0  0  0
   -7.4194    4.1810  -12.6930 N   0  0  0  0  0  0  0  0  0  0  0  0
   -7.7892    4.1443  -11.3465 C   0  0  0  0  0  0  0  0  0  0  0  0
   -7.6848    5.2897  -10.5383 C   0  0  0  0  0  0  0  0  0  0  0  0
   -8.0488    5.2568   -9.1866 C   0  0  0  0  0  0  0  0  0  0  0  0
   -8.5065    4.0638   -8.6625 C   0  0  0  0  0  0  0  0  0  0  0  0
   -8.6122    2.9268   -9.4578 C   0  0  0  0  0  0  0  0  0  0  0  0
   -8.2714    2.9498  -10.8029 C   0  0  0  0  0  0  0  0  0  0  0  0
   -9.0662    1.7860   -8.6073 C   0  0  0  0  0  0  0  0  0  0  0  0
   -9.5836    2.4085   -7.3597 N   0  0  0  0  0  0  0  0  0  0  0  0
   -8.9073    3.7216   -7.2664 C   0  0  0  0  0  0  0  0  0  0  0  0
   -5.5223    5.3606  -15.7086 C   0  0  0  0  0  0  0  0  0  0  0  0
   -5.5945    5.4012  -17.0958 C   0  0  0  0  0  0  0  0  0  0  0  0
  2  1  1  1
  2  3  1  0
  2  4  1  0
  2  5  1  0
  5  6  1  6
  6  7  1  0
  7  8  1  0
  9  8  1  6
  9 10  1  0
 10 11  1  0
 11 12  1  0
 12 13  2  0
 13 14  1  0
 13 15  1  0
 15 16  2  0
 16 17  1  0
 17 18  2  0
 17 19  1  0
 19 20  1  0
 20 21  2  0
 21 22  1  0
 22 23  2  0
 23 24  1  0
 24 25  2  0
 24 26  1  0
 26 27  1  0
 27 28  1  0
 16 29  1  0
 29 30  2  0
  9  5  1  0
 30 12  1  0
 30  9  1  0
 25 20  1  0
 28 23  1  0
M  CHG  2   2   1   3  -1
M  END
>  <smiles>  (2737) 
C41621-P303

>  <fragmenstein_outcome>  (2737) 
acceptable

>  <inchikey>  (2737) 
REUBKMOUYFOYEN-UHFFFAOYSA-N

>  <fragmenstein_mode>  (2737) 
expansion

>  <HIPPO Pose ID>  (2737) 
29942

>  <Energy>  (2737) 
109.482854

>  <fragmenstein_error>  (2737) 


>  <tags>  (2737) 
{'openbind_xx01zvns2b_c1_fragmenstein', 'fragmenstein_placed'}

>  <ref_pdb>  (2737) 
175

>  <scratch_subdir>  (2737) 
/opt/xchem-fragalysis-2/maxwin/BulkDock/SCRATCH/511028/C41621-P303

>  <alias>  (2737) 
C[N@+]([O-])(O)[C@@H]1NCC[C@]12CNc1c(F)cc(C(=O)Nc3ccc4c(c3)CNC4)cc12

>  <HIPPO Compound ID>  (2737) 
41621

>  <fragmenstein_runtime>  (2737) 
4.201548

$$$$
NCc1c[nH]c2c(F)cc(C(=O)Nc3cc4c(cc3NCc3ccc(O)c(CNc5nc6ccccc6[nH]5)c3)CNC4)cc12
     RDKit          3D

 44 50  0  0  0  0  0  0  0  0999 V2000
   -4.1224    8.2095  -18.0753 N   0  0  0  0  0  0  0  0  0  0  0  0
   -3.8653    6.8411  -17.6403 C   0  0  0  0  0  0  0  0  0  0  0  0
   -5.0964    6.0373  -17.8797 C   0  0  0  0  0  0  0  0  0  0  0  0
   -5.5518    5.5705  -19.0992 C   0  0  0  0  0  0  0  0  0  0  0  0
   -6.7449    4.9239  -18.9013 N   0  0  0  0  0  0  0  0  0  0  0  0
   -7.0523    4.9017  -17.5639 C   0  0  0  0  0  0  0  0  0  0  0  0
   -8.1471    4.3487  -16.8962 C   0  0  0  0  0  0  0  0  0  0  0  0
   -9.0812    3.6536  -17.5577 F   0  0  0  0  0  0  0  0  0  0  0  0
   -8.2759    4.5473  -15.5244 C   0  0  0  0  0  0  0  0  0  0  0  0
   -7.3093    5.2831  -14.8429 C   0  0  0  0  0  0  0  0  0  0  0  0
   -7.4802    5.6553  -13.4158 C   0  0  0  0  0  0  0  0  0  0  0  0
   -7.2751    6.8091  -13.1655 O   0  0  0  0  0  0  0  0  0  0  0  0
   -7.8029    4.5534  -12.5589 N   0  0  0  0  0  0  0  0  0  0  0  0
   -8.0693    4.5024  -11.1707 C   0  0  0  0  0  0  0  0  0  0  0  0
   -8.3754    3.2074  -10.6988 C   0  0  0  0  0  0  0  0  0  0  0  0
   -8.6709    3.0169   -9.3603 C   0  0  0  0  0  0  0  0  0  0  0  0
   -8.6519    4.0743   -8.4689 C   0  0  0  0  0  0  0  0  0  0  0  0
   -8.3413    5.3511   -8.8933 C   0  0  0  0  0  0  0  0  0  0  0  0
   -8.0336    5.5966  -10.2513 C   0  0  0  0  0  0  0  0  0  0  0  0
   -7.7882    6.9248  -10.6339 N   0  0  0  0  0  0  0  0  0  0  0  0
   -6.8675    7.7311   -9.8412 C   0  0  0  0  0  0  0  0  0  0  0  0
   -5.6199    8.0530  -10.6357 C   0  0  0  0  0  0  0  0  0  0  0  0
   -5.4131    9.3380  -11.1517 C   0  0  0  0  0  0  0  0  0  0  0  0
   -4.2629    9.6233  -11.8850 C   0  0  0  0  0  0  0  0  0  0  0  0
   -3.3230    8.6235  -12.1200 C   0  0  0  0  0  0  0  0  0  0  0  0
   -2.2242    8.9794  -12.8533 O   0  0  0  0  0  0  0  0  0  0  0  0
   -3.5025    7.3201  -11.6366 C   0  0  0  0  0  0  0  0  0  0  0  0
   -2.4717    6.2268  -11.7887 C   0  0  0  0  0  0  0  0  0  0  0  0
   -1.7567    6.3484  -13.0640 N   0  0  0  0  0  0  0  0  0  0  0  0
   -0.4899    5.8835  -13.1551 C   0  0  0  0  0  0  0  0  0  0  0  0
   -0.0002    5.1318  -14.1089 N   0  0  0  0  0  0  0  0  0  0  0  0
    1.3345    4.9856  -13.8081 C   0  0  0  0  0  0  0  0  0  0  0  0
    2.3381    4.2799  -14.4870 C   0  0  0  0  0  0  0  0  0  0  0  0
    3.6404    4.2943  -13.9710 C   0  0  0  0  0  0  0  0  0  0  0  0
    3.9382    5.0008  -12.8030 C   0  0  0  0  0  0  0  0  0  0  0  0
    2.9522    5.7147  -12.1121 C   0  0  0  0  0  0  0  0  0  0  0  0
    1.6637    5.6787  -12.6488 C   0  0  0  0  0  0  0  0  0  0  0  0
    0.4829    6.2565  -12.2627 N   0  0  0  0  0  0  0  0  0  0  0  0
   -4.6605    7.0546  -10.8838 C   0  0  0  0  0  0  0  0  0  0  0  0
   -9.0279    3.5815   -7.1122 C   0  0  0  0  0  0  0  0  0  0  0  0
   -9.6298    2.2497   -7.3390 N   0  0  0  0  0  0  0  0  0  0  0  0
   -9.0607    1.7756   -8.6280 C   0  0  0  0  0  0  0  0  0  0  0  0
   -6.1900    5.8105  -15.5139 C   0  0  0  0  0  0  0  0  0  0  0  0
   -6.0551    5.6160  -16.9017 C   0  0  0  0  0  0  0  0  0  0  0  0
  1  2  1  0
  2  3  1  0
  3  4  2  0
  4  5  1  0
  5  6  1  0
  6  7  2  0
  7  8  1  0
  7  9  1  0
  9 10  2  0
 10 11  1  0
 11 12  2  0
 11 13  1  0
 13 14  1  0
 14 15  2  0
 15 16  1  0
 16 17  2  0
 17 18  1  0
 18 19  2  0
 19 20  1  0
 20 21  1  0
 21 22  1  0
 22 23  2  0
 23 24  1  0
 24 25  2  0
 25 26  1  0
 25 27  1  0
 27 28  1  0
 28 29  1  0
 29 30  1  0
 30 31  2  0
 31 32  1  0
 32 33  2  0
 33 34  1  0
 34 35  2  0
 35 36  1  0
 36 37  2  0
 37 38  1  0
 27 39  2  0
 17 40  1  0
 40 41  1  0
 41 42  1  0
 10 43  1  0
 43 44  2  0
 44  3  1  0
 44  6  1  0
 19 14  1  0
 39 22  1  0
 42 16  1  0
 38 30  1  0
 37 32  1  0
M  END
>  <smiles>  (2738) 
C41624-P303

>  <fragmenstein_outcome>  (2738) 
acceptable

>  <inchikey>  (2738) 
BVVBMCATDPPMEK-UHFFFAOYSA-N

>  <fragmenstein_mode>  (2738) 
expansion

>  <HIPPO Pose ID>  (2738) 
29945

>  <Energy>  (2738) 
21.106007

>  <fragmenstein_error>  (2738) 


>  <tags>  (2738) 
{'openbind_xx01zvns2b_c1_fragmenstein', 'fragmenstein_placed'}

>  <ref_pdb>  (2738) 
175

>  <scratch_subdir>  (2738) 
/opt/xchem-fragalysis-2/maxwin/BulkDock/SCRATCH/511028/C41624-P303

>  <alias>  (2738) 
NCc1c[nH]c2c(F)cc(C(=O)Nc3cc4c(cc3NCc3ccc(O)c(CNc5nc6ccccc6[nH]5)c3)CNC4)cc12

>  <HIPPO Compound ID>  (2738) 
43464

>  <fragmenstein_runtime>  (2738) 
15.120018

$$$$
CN1Cc2cc(NC(=O)c3cc(F)c4[nH]c(NC(C)(C)CO)c(CN)c4c3)cc(O)c2C1
     RDKit          3D

 32 35  0  0  0  0  0  0  0  0999 V2000
  -10.2659    2.0952   -6.2140 C   0  0  0  0  0  0  0  0  0  0  0  0
   -9.0424    2.4325   -6.9203 N   0  0  0  0  0  0  0  0  0  0  0  0
   -8.9864    1.8424   -8.2820 C   0  0  0  0  0  0  0  0  0  0  0  0
   -8.6900    2.9741   -9.2140 C   0  0  0  0  0  0  0  0  0  0  0  0
   -8.5107    2.9528  -10.5921 C   0  0  0  0  0  0  0  0  0  0  0  0
   -8.3367    4.1703  -11.2526 C   0  0  0  0  0  0  0  0  0  0  0  0
   -8.1560    4.1966  -12.6356 N   0  0  0  0  0  0  0  0  0  0  0  0
   -8.1638    5.3782  -13.6234 C   0  0  0  0  0  0  0  0  0  0  0  0
   -8.3986    6.5078  -13.4498 O   0  0  0  0  0  0  0  0  0  0  0  0
   -7.7019    4.9853  -14.9687 C   0  0  0  0  0  0  0  0  0  0  0  0
   -8.5501    4.4917  -15.9490 C   0  0  0  0  0  0  0  0  0  0  0  0
   -8.0939    4.4170  -17.2682 C   0  0  0  0  0  0  0  0  0  0  0  0
   -8.9061    3.9750  -18.2298 F   0  0  0  0  0  0  0  0  0  0  0  0
   -6.8036    4.8510  -17.5790 C   0  0  0  0  0  0  0  0  0  0  0  0
   -6.1444    4.9675  -18.7795 N   0  0  0  0  0  0  0  0  0  0  0  0
   -4.8346    5.3868  -18.5945 C   0  0  0  0  0  0  0  0  0  0  0  0
   -4.0415    5.4545  -19.7101 N   0  0  0  0  0  0  0  0  0  0  0  0
   -2.5880    5.7293  -19.7201 C   0  0  0  0  0  0  0  0  0  0  0  0
   -2.3175    7.1550  -19.2284 C   0  0  0  0  0  0  0  0  0  0  0  0
   -1.8299    4.6377  -18.9407 C   0  0  0  0  0  0  0  0  0  0  0  0
   -2.0146    5.7564  -21.1723 C   0  0  0  0  0  0  0  0  0  0  0  0
   -1.7501    4.4589  -21.6951 O   0  0  0  0  0  0  0  0  0  0  0  0
   -4.6902    5.6487  -17.2283 C   0  0  0  0  0  0  0  0  0  0  0  0
   -3.5552    6.1605  -16.3963 C   0  0  0  0  0  0  0  0  0  0  0  0
   -3.8212    7.5451  -15.9955 N   0  0  0  0  0  0  0  0  0  0  0  0
   -5.9325    5.2933  -16.6003 C   0  0  0  0  0  0  0  0  0  0  0  0
   -6.3848    5.3493  -15.2679 C   0  0  0  0  0  0  0  0  0  0  0  0
   -8.3140    5.3739  -10.5236 C   0  0  0  0  0  0  0  0  0  0  0  0
   -8.4517    5.3647   -9.1368 C   0  0  0  0  0  0  0  0  0  0  0  0
   -8.4335    6.5188   -8.4130 O   0  0  0  0  0  0  0  0  0  0  0  0
   -8.6393    4.1627   -8.4935 C   0  0  0  0  0  0  0  0  0  0  0  0
   -8.8461    3.8905   -7.0438 C   0  0  0  0  0  0  0  0  0  0  0  0
  1  2  1  0
  2  3  1  0
  3  4  1  0
  4  5  2  0
  5  6  1  0
  6  7  1  0
  7  8  1  0
  8  9  2  0
  8 10  1  0
 10 11  2  0
 11 12  1  0
 12 13  1  0
 12 14  2  0
 14 15  1  0
 15 16  1  0
 16 17  1  0
 17 18  1  0
 18 19  1  0
 18 20  1  0
 18 21  1  0
 21 22  1  0
 16 23  2  0
 23 24  1  0
 24 25  1  0
 23 26  1  0
 26 27  2  0
  6 28  2  0
 28 29  1  0
 29 30  1  0
 29 31  2  0
 31 32  1  0
 32  2  1  0
 31  4  1  0
 27 10  1  0
 26 14  1  0
M  END
>  <smiles>  (2739) 
C41644-P303

>  <fragmenstein_outcome>  (2739) 
acceptable

>  <inchikey>  (2739) 
OFVIPXQAOOXQFT-UHFFFAOYSA-N

>  <fragmenstein_mode>  (2739) 
expansion

>  <HIPPO Pose ID>  (2739) 
29957

>  <Energy>  (2739) 
86.538444

>  <fragmenstein_error>  (2739) 


>  <tags>  (2739) 
{'openbind_xx01zvns2b_c1_fragmenstein', 'fragmenstein_placed'}

>  <ref_pdb>  (2739) 
175

>  <scratch_subdir>  (2739) 
/opt/xchem-fragalysis-2/maxwin/BulkDock/SCRATCH/511028/C41644-P303

>  <alias>  (2739) 
CN1Cc2cc(NC(=O)c3cc(F)c4[nH]c(NC(C)(C)CO)c(CN)c4c3)cc(O)c2C1

>  <HIPPO Compound ID>  (2739) 
41644

>  <fragmenstein_runtime>  (2739) 
9.950715

$$$$
CC[C@H](NC)N(N)c1c[nH]c([C@@H](F)C[C@@H](C)C(=O)Nc2cc(C)c3c(c2)CNC3)c1
     RDKit          3D

 30 32  0  0  0  0  0  0  0  0999 V2000
   -3.1397    8.2395  -14.6447 C   0  0  0  0  0  0  0  0  0  0  0  0
   -3.2593    7.9320  -16.1324 C   0  0  0  0  0  0  0  0  0  0  0  0
   -3.0555    6.4315  -16.4801 C   0  0  2  0  0  0  0  0  0  0  0  0
   -1.7380    5.8950  -16.0549 N   0  0  0  0  0  0  0  0  0  0  0  0
   -0.5875    6.6357  -16.5439 C   0  0  0  0  0  0  0  0  0  0  0  0
   -3.5653    6.2158  -17.8695 N   0  0  0  0  0  0  0  0  0  0  0  0
   -2.6267    6.1422  -18.9354 N   0  0  0  0  0  0  0  0  0  0  0  0
   -4.8309    5.7483  -18.0912 C   0  0  0  0  0  0  0  0  0  0  0  0
   -5.3111    5.1210  -19.2175 C   0  0  0  0  0  0  0  0  0  0  0  0
   -6.6080    4.7334  -18.9814 N   0  0  0  0  0  0  0  0  0  0  0  0
   -6.9554    5.0562  -17.6938 C   0  0  0  0  0  0  0  0  0  0  0  0
   -8.2554    4.6229  -17.0977 C   0  0  1  0  0  0  0  0  0  0  0  0
   -8.4198    3.2737  -17.1326 F   0  0  0  0  0  0  0  0  0  0  0  0
   -8.4683    5.1162  -15.6652 C   0  0  0  0  0  0  0  0  0  0  0  0
   -7.7735    4.3992  -14.5095 C   0  0  1  0  0  0  0  0  0  0  0  0
   -6.2495    4.4892  -14.4783 C   0  0  0  0  0  0  0  0  0  0  0  0
   -8.2012    5.0576  -13.1950 C   0  0  0  0  0  0  0  0  0  0  0  0
   -8.4903    6.1859  -13.0975 O   0  0  0  0  0  0  0  0  0  0  0  0
   -8.0547    3.9592  -12.1080 N   0  0  0  0  0  0  0  0  0  0  0  0
   -8.3144    3.9992  -10.7523 C   0  0  0  0  0  0  0  0  0  0  0  0
   -8.2995    5.2155  -10.0517 C   0  0  0  0  0  0  0  0  0  0  0  0
   -8.5237    5.2481   -8.6685 C   0  0  0  0  0  0  0  0  0  0  0  0
   -8.4178    6.5310   -7.9066 C   0  0  0  0  0  0  0  0  0  0  0  0
   -8.8153    4.0407   -8.0474 C   0  0  0  0  0  0  0  0  0  0  0  0
   -8.8468    2.8424   -8.7612 C   0  0  0  0  0  0  0  0  0  0  0  0
   -8.5560    2.7945  -10.1051 C   0  0  0  0  0  0  0  0  0  0  0  0
   -9.2139    1.7260   -7.8478 C   0  0  0  0  0  0  0  0  0  0  0  0
   -9.7654    2.3923   -6.6432 N   0  0  0  0  0  0  0  0  0  0  0  0
   -9.1433    3.7350   -6.6226 C   0  0  0  0  0  0  0  0  0  0  0  0
   -5.9329    5.8567  -17.2181 C   0  0  0  0  0  0  0  0  0  0  0  0
  1  2  1  0
  3  2  1  6
  3  4  1  0
  4  5  1  0
  3  6  1  0
  6  7  1  0
  6  8  1  0
  8  9  2  0
  9 10  1  0
 10 11  1  0
 11 12  1  0
 12 13  1  1
 12 14  1  0
 14 15  1  0
 15 16  1  6
 15 17  1  0
 17 18  2  0
 17 19  1  0
 19 20  1  0
 20 21  2  0
 21 22  1  0
 22 23  1  0
 22 24  2  0
 24 25  1  0
 25 26  2  0
 25 27  1  0
 27 28  1  0
 28 29  1  0
 11 30  2  0
 30  8  1  0
 26 20  1  0
 29 24  1  0
M  END
>  <smiles>  (2740) 
C41646-P303

>  <fragmenstein_outcome>  (2740) 
acceptable

>  <inchikey>  (2740) 
IVCNKEZJGAIQEE-UHFFFAOYSA-N

>  <fragmenstein_mode>  (2740) 
expansion

>  <HIPPO Pose ID>  (2740) 
29958

>  <Energy>  (2740) 
43.157843

>  <fragmenstein_error>  (2740) 


>  <tags>  (2740) 
{'openbind_xx01zvns2b_c1_fragmenstein', 'fragmenstein_placed'}

>  <ref_pdb>  (2740) 
175

>  <scratch_subdir>  (2740) 
/opt/xchem-fragalysis-2/maxwin/BulkDock/SCRATCH/511028/C41646-P303

>  <alias>  (2740) 
CC[C@H](NC)N(N)c1c[nH]c([C@@H](F)C[C@@H](C)C(=O)Nc2cc(C)c3c(c2)CNC3)c1

>  <HIPPO Compound ID>  (2740) 
41646

>  <fragmenstein_runtime>  (2740) 
11.825496

$$$$
Cc1cc(C(=O)C(=O)c2cc(F)c3[nH]cc([C@H](N)NC[C@@H](C)CO)c3c2)cc2c1CNC2
     RDKit          3D

 32 35  0  0  0  0  0  0  0  0999 V2000
   -7.8533    6.7755   -8.4133 C   0  0  0  0  0  0  0  0  0  0  0  0
   -8.0540    5.5186   -9.2024 C   0  0  0  0  0  0  0  0  0  0  0  0
   -7.8112    5.4908  -10.5889 C   0  0  0  0  0  0  0  0  0  0  0  0
   -7.9754    4.3073  -11.3285 C   0  0  0  0  0  0  0  0  0  0  0  0
   -7.7047    4.1896  -12.7797 C   0  0  0  0  0  0  0  0  0  0  0  0
   -7.9322    3.1109  -13.3155 O   0  0  0  0  0  0  0  0  0  0  0  0
   -7.1443    5.2979  -13.6665 C   0  0  0  0  0  0  0  0  0  0  0  0
   -6.7135    6.3456  -13.2083 O   0  0  0  0  0  0  0  0  0  0  0  0
   -7.1274    5.0846  -15.1375 C   0  0  0  0  0  0  0  0  0  0  0  0
   -8.2815    4.5955  -15.7515 C   0  0  0  0  0  0  0  0  0  0  0  0
   -8.2942    4.3910  -17.1164 C   0  0  0  0  0  0  0  0  0  0  0  0
   -9.3945    3.9224  -17.7261 F   0  0  0  0  0  0  0  0  0  0  0  0
   -7.1431    4.6810  -17.8418 C   0  0  0  0  0  0  0  0  0  0  0  0
   -6.9540    4.5614  -19.1829 N   0  0  0  0  0  0  0  0  0  0  0  0
   -5.6868    4.9031  -19.5073 C   0  0  0  0  0  0  0  0  0  0  0  0
   -4.9942    5.2904  -18.3811 C   0  0  0  0  0  0  0  0  0  0  0  0
   -3.5524    5.6893  -18.4935 C   0  0  2  0  0  0  0  0  0  0  0  0
   -2.8764    5.5463  -17.2443 N   0  0  0  0  0  0  0  0  0  0  0  0
   -3.3951    7.0905  -18.7855 N   0  0  0  0  0  0  0  0  0  0  0  0
   -3.3704    7.4137  -20.2103 C   0  0  0  0  0  0  0  0  0  0  0  0
   -4.6799    7.9913  -20.7861 C   0  0  1  0  0  0  0  0  0  0  0  0
   -5.0138    9.3604  -20.1879 C   0  0  0  0  0  0  0  0  0  0  0  0
   -4.5887    8.0983  -22.3153 C   0  0  0  0  0  0  0  0  0  0  0  0
   -4.2817    6.8427  -22.9071 O   0  0  0  0  0  0  0  0  0  0  0  0
   -5.9520    5.1685  -17.2888 C   0  0  0  0  0  0  0  0  0  0  0  0
   -5.9626    5.3951  -15.8883 C   0  0  0  0  0  0  0  0  0  0  0  0
   -8.4121    3.1384  -10.6790 C   0  0  0  0  0  0  0  0  0  0  0  0
   -8.6364    3.1708   -9.3181 C   0  0  0  0  0  0  0  0  0  0  0  0
   -8.4424    4.3339   -8.5863 C   0  0  0  0  0  0  0  0  0  0  0  0
   -8.7378    4.0478   -7.1511 C   0  0  0  0  0  0  0  0  0  0  0  0
   -8.9176    2.5831   -7.0405 N   0  0  0  0  0  0  0  0  0  0  0  0
   -9.1089    2.0772   -8.4246 C   0  0  0  0  0  0  0  0  0  0  0  0
  1  2  1  0
  2  3  2  0
  3  4  1  0
  4  5  1  0
  5  6  2  0
  5  7  1  0
  7  8  2  0
  7  9  1  0
  9 10  2  0
 10 11  1  0
 11 12  1  0
 11 13  2  0
 13 14  1  0
 14 15  1  0
 15 16  2  0
 16 17  1  0
 17 18  1  1
 17 19  1  0
 19 20  1  0
 20 21  1  0
 21 22  1  1
 21 23  1  0
 23 24  1  0
 16 25  1  0
 25 26  2  0
  4 27  2  0
 27 28  1  0
 28 29  2  0
 29 30  1  0
 30 31  1  0
 31 32  1  0
 29  2  1  0
 26  9  1  0
 32 28  1  0
 25 13  1  0
M  END
>  <smiles>  (2741) 
C41667-P303

>  <fragmenstein_outcome>  (2741) 
acceptable

>  <inchikey>  (2741) 
BUQPQTPGPJOZNX-UHFFFAOYSA-N

>  <fragmenstein_mode>  (2741) 
expansion

>  <HIPPO Pose ID>  (2741) 
29970

>  <Energy>  (2741) 
31.69758

>  <fragmenstein_error>  (2741) 


>  <tags>  (2741) 
{'openbind_xx01zvns2b_c1_fragmenstein', 'fragmenstein_placed'}

>  <ref_pdb>  (2741) 
175

>  <scratch_subdir>  (2741) 
/opt/xchem-fragalysis-2/maxwin/BulkDock/SCRATCH/511028/C41667-P303

>  <alias>  (2741) 
Cc1cc(C(=O)C(=O)c2cc(F)c3[nH]cc([C@H](N)NC[C@@H](C)CO)c3c2)cc2c1CNC2

>  <HIPPO Compound ID>  (2741) 
41667

>  <fragmenstein_runtime>  (2741) 
6.059632

$$$$
CC(C)Nc1[nH]c2c(F)cc(C(=O)Nc3ccc4c(c3)CNC4)cc2c1CN
     RDKit          3D

 28 31  0  0  0  0  0  0  0  0999 V2000
   -2.4298    5.3860  -19.1586 C   0  0  0  0  0  0  0  0  0  0  0  0
   -3.4509    5.5290  -20.2749 C   0  0  0  0  0  0  0  0  0  0  0  0
   -2.8512    6.3802  -21.3987 C   0  0  0  0  0  0  0  0  0  0  0  0
   -4.7631    6.1038  -19.9372 N   0  0  0  0  0  0  0  0  0  0  0  0
   -5.4097    5.7619  -18.7904 C   0  0  0  0  0  0  0  0  0  0  0  0
   -6.6097    5.0835  -18.8546 N   0  0  0  0  0  0  0  0  0  0  0  0
   -7.1423    4.9200  -17.5970 C   0  0  0  0  0  0  0  0  0  0  0  0
   -8.3508    4.3523  -17.1667 C   0  0  0  0  0  0  0  0  0  0  0  0
   -9.2297    3.8105  -18.0255 F   0  0  0  0  0  0  0  0  0  0  0  0
   -8.6804    4.4420  -15.8124 C   0  0  0  0  0  0  0  0  0  0  0  0
   -7.8202    5.0938  -14.9334 C   0  0  0  0  0  0  0  0  0  0  0  0
   -8.2025    5.4638  -13.5572 C   0  0  0  0  0  0  0  0  0  0  0  0
   -8.3379    6.5967  -13.3175 O   0  0  0  0  0  0  0  0  0  0  0  0
   -8.2582    4.2362  -12.6341 N   0  0  0  0  0  0  0  0  0  0  0  0
   -8.3932    4.1498  -11.2529 C   0  0  0  0  0  0  0  0  0  0  0  0
   -8.3070    5.3060  -10.4542 C   0  0  0  0  0  0  0  0  0  0  0  0
   -8.4436    5.2353   -9.0654 C   0  0  0  0  0  0  0  0  0  0  0  0
   -8.7041    4.0013   -8.5060 C   0  0  0  0  0  0  0  0  0  0  0  0
   -8.7846    2.8569   -9.2962 C   0  0  0  0  0  0  0  0  0  0  0  0
   -8.6045    2.9045  -10.6680 C   0  0  0  0  0  0  0  0  0  0  0  0
   -9.0737    1.6861   -8.4171 C   0  0  0  0  0  0  0  0  0  0  0  0
   -9.5449    2.2737   -7.1339 N   0  0  0  0  0  0  0  0  0  0  0  0
   -8.9486    3.6273   -7.0831 C   0  0  0  0  0  0  0  0  0  0  0  0
   -6.5957    5.6127  -15.3592 C   0  0  0  0  0  0  0  0  0  0  0  0
   -6.2586    5.5405  -16.7171 C   0  0  0  0  0  0  0  0  0  0  0  0
   -5.1923    6.1198  -17.4723 C   0  0  0  0  0  0  0  0  0  0  0  0
   -4.1837    7.0745  -16.9209 C   0  0  0  0  0  0  0  0  0  0  0  0
   -3.3415    6.4011  -15.9370 N   0  0  0  0  0  0  0  0  0  0  0  0
  1  2  1  0
  2  3  1  0
  2  4  1  0
  4  5  1  0
  5  6  1  0
  6  7  1  0
  7  8  2  0
  8  9  1  0
  8 10  1  0
 10 11  2  0
 11 12  1  0
 12 13  2  0
 12 14  1  0
 14 15  1  0
 15 16  2  0
 16 17  1  0
 17 18  2  0
 18 19  1  0
 19 20  2  0
 19 21  1  0
 21 22  1  0
 22 23  1  0
 11 24  1  0
 24 25  2  0
 25 26  1  0
 26 27  1  0
 27 28  1  0
 26  5  2  0
 25  7  1  0
 20 15  1  0
 23 18  1  0
M  END
>  <smiles>  (2742) 
C41669-P303

>  <fragmenstein_outcome>  (2742) 
acceptable

>  <inchikey>  (2742) 
PBJXLSPKRJAENJ-UHFFFAOYSA-N

>  <fragmenstein_mode>  (2742) 
expansion

>  <HIPPO Pose ID>  (2742) 
29971

>  <Energy>  (2742) 
42.407171

>  <fragmenstein_error>  (2742) 


>  <tags>  (2742) 
{'openbind_xx01zvns2b_c1_fragmenstein', 'fragmenstein_placed'}

>  <ref_pdb>  (2742) 
175

>  <scratch_subdir>  (2742) 
/opt/xchem-fragalysis-2/maxwin/BulkDock/SCRATCH/511028/C41669-P303

>  <alias>  (2742) 
CC(C)Nc1[nH]c2c(F)cc(C(=O)Nc3ccc4c(c3)CNC4)cc2c1CN

>  <HIPPO Compound ID>  (2742) 
41669

>  <fragmenstein_runtime>  (2742) 
5.207937

$$$$
N[C@H](OCc1ccccc1)c1c[nH]c2c(F)cc(C(=O)Nc3ccc4c(c3)CN(N)C4)cc12
     RDKit          3D

 33 37  0  0  0  0  0  0  0  0999 V2000
   -3.2558    6.3395  -17.9643 N   0  0  0  0  0  0  0  0  0  0  0  0
   -3.7484    5.4083  -18.9462 C   0  0  2  0  0  0  0  0  0  0  0  0
   -3.5632    6.0355  -20.2075 O   0  0  0  0  0  0  0  0  0  0  0  0
   -2.8540    5.2064  -21.1239 C   0  0  0  0  0  0  0  0  0  0  0  0
   -3.0099    5.7225  -22.5342 C   0  0  0  0  0  0  0  0  0  0  0  0
   -1.9472    5.6020  -23.4416 C   0  0  0  0  0  0  0  0  0  0  0  0
   -2.0884    6.0335  -24.7620 C   0  0  0  0  0  0  0  0  0  0  0  0
   -3.2957    6.5806  -25.1927 C   0  0  0  0  0  0  0  0  0  0  0  0
   -4.3650    6.6914  -24.3060 C   0  0  0  0  0  0  0  0  0  0  0  0
   -4.2244    6.2612  -22.9857 C   0  0  0  0  0  0  0  0  0  0  0  0
   -5.2095    5.0862  -18.7068 C   0  0  0  0  0  0  0  0  0  0  0  0
   -6.0387    4.6886  -19.7417 C   0  0  0  0  0  0  0  0  0  0  0  0
   -7.2816    4.4059  -19.2651 N   0  0  0  0  0  0  0  0  0  0  0  0
   -7.2871    4.5227  -17.9041 C   0  0  0  0  0  0  0  0  0  0  0  0
   -8.3250    4.2429  -17.0188 C   0  0  0  0  0  0  0  0  0  0  0  0
   -9.4879    3.7477  -17.4653 F   0  0  0  0  0  0  0  0  0  0  0  0
   -8.1447    4.5005  -15.6707 C   0  0  0  0  0  0  0  0  0  0  0  0
   -6.9238    5.0104  -15.2211 C   0  0  0  0  0  0  0  0  0  0  0  0
   -6.7745    5.3651  -13.7745 C   0  0  0  0  0  0  0  0  0  0  0  0
   -6.2873    6.3917  -13.4995 O   0  0  0  0  0  0  0  0  0  0  0  0
   -7.3993    4.2726  -12.8656 N   0  0  0  0  0  0  0  0  0  0  0  0
   -7.6305    4.2619  -11.4884 C   0  0  0  0  0  0  0  0  0  0  0  0
   -7.3493    5.3722  -10.6766 C   0  0  0  0  0  0  0  0  0  0  0  0
   -7.6192    5.3466   -9.3000 C   0  0  0  0  0  0  0  0  0  0  0  0
   -8.1736    4.2009   -8.7592 C   0  0  0  0  0  0  0  0  0  0  0  0
   -8.4500    3.0966   -9.5627 C   0  0  0  0  0  0  0  0  0  0  0  0
   -8.1882    3.1090  -10.9237 C   0  0  0  0  0  0  0  0  0  0  0  0
   -9.0184    1.9997   -8.7168 C   0  0  0  0  0  0  0  0  0  0  0  0
   -9.4079    2.6768   -7.4533 N   0  0  0  0  0  0  0  0  0  0  0  0
   -9.2763    1.7819   -6.3465 N   0  0  0  0  0  0  0  0  0  0  0  0
   -8.5601    3.8890   -7.3443 C   0  0  0  0  0  0  0  0  0  0  0  0
   -5.8648    5.2741  -16.1241 C   0  0  0  0  0  0  0  0  0  0  0  0
   -6.0343    5.0121  -17.5093 C   0  0  0  0  0  0  0  0  0  0  0  0
  2  1  1  1
  2  3  1  0
  3  4  1  0
  4  5  1  0
  5  6  2  0
  6  7  1  0
  7  8  2  0
  8  9  1  0
  9 10  2  0
  2 11  1  0
 11 12  2  0
 12 13  1  0
 13 14  1  0
 14 15  2  0
 15 16  1  0
 15 17  1  0
 17 18  2  0
 18 19  1  0
 19 20  2  0
 19 21  1  0
 21 22  1  0
 22 23  2  0
 23 24  1  0
 24 25  2  0
 25 26  1  0
 26 27  2  0
 26 28  1  0
 28 29  1  0
 29 30  1  0
 29 31  1  0
 18 32  1  0
 32 33  2  0
 10  5  1  0
 33 11  1  0
 33 14  1  0
 27 22  1  0
 31 25  1  0
M  END
>  <smiles>  (2743) 
C41673-P139

>  <fragmenstein_outcome>  (2743) 
acceptable

>  <inchikey>  (2743) 
FZUKUIIQNJMWDP-UHFFFAOYSA-N

>  <fragmenstein_mode>  (2743) 
expansion

>  <HIPPO Pose ID>  (2743) 
29973

>  <Energy>  (2743) 
89.093006

>  <fragmenstein_error>  (2743) 


>  <tags>  (2743) 
{'openbind_xx01zvns2b_c1_fragmenstein', 'fragmenstein_placed'}

>  <ref_pdb>  (2743) 
175

>  <scratch_subdir>  (2743) 
/opt/xchem-fragalysis-2/maxwin/BulkDock/SCRATCH/511028/C41673-P139

>  <alias>  (2743) 
N[C@H](OCc1ccccc1)c1c[nH]c2c(F)cc(C(=O)Nc3ccc4c(c3)CN(N)C4)cc12

>  <HIPPO Compound ID>  (2743) 
41673

>  <fragmenstein_runtime>  (2743) 
12.187658

$$$$
NC1(c2c[nH]c3c(F)cc(C(=O)Nc4ccc5c(c4)CNC5)cc23)CCCC1
     RDKit          3D

 28 32  0  0  0  0  0  0  0  0999 V2000
   -2.6374    4.9710  -18.7059 N   0  0  0  0  0  0  0  0  0  0  0  0
   -3.5211    6.0213  -18.1768 C   0  0  0  0  0  0  0  0  0  0  0  0
   -4.9349    5.4816  -18.1977 C   0  0  0  0  0  0  0  0  0  0  0  0
   -5.6071    5.1913  -19.3723 C   0  0  0  0  0  0  0  0  0  0  0  0
   -6.8503    4.7160  -19.0814 N   0  0  0  0  0  0  0  0  0  0  0  0
   -7.0544    4.7194  -17.7307 C   0  0  0  0  0  0  0  0  0  0  0  0
   -8.1940    4.3441  -17.0149 C   0  0  0  0  0  0  0  0  0  0  0  0
   -9.2741    3.8559  -17.6447 F   0  0  0  0  0  0  0  0  0  0  0  0
   -8.2102    4.5176  -15.6379 C   0  0  0  0  0  0  0  0  0  0  0  0
   -7.0842    5.0384  -15.0039 C   0  0  0  0  0  0  0  0  0  0  0  0
   -7.1408    5.4067  -13.5633 C   0  0  0  0  0  0  0  0  0  0  0  0
   -6.8006    6.4833  -13.2624 O   0  0  0  0  0  0  0  0  0  0  0  0
   -7.6760    4.2442  -12.6936 N   0  0  0  0  0  0  0  0  0  0  0  0
   -7.9832    4.1970  -11.3330 C   0  0  0  0  0  0  0  0  0  0  0  0
   -7.9018    5.3470  -10.5297 C   0  0  0  0  0  0  0  0  0  0  0  0
   -8.1975    5.2940   -9.1624 C   0  0  0  0  0  0  0  0  0  0  0  0
   -8.5788    4.0806   -8.6232 C   0  0  0  0  0  0  0  0  0  0  0  0
   -8.6643    2.9395   -9.4151 C   0  0  0  0  0  0  0  0  0  0  0  0
   -8.3711    2.9772  -10.7699 C   0  0  0  0  0  0  0  0  0  0  0  0
   -9.0592    1.7838   -8.5557 C   0  0  0  0  0  0  0  0  0  0  0  0
   -9.5636    2.3904   -7.2947 N   0  0  0  0  0  0  0  0  0  0  0  0
   -8.9229    3.7222   -7.2162 C   0  0  0  0  0  0  0  0  0  0  0  0
   -5.9177    5.3646  -15.7288 C   0  0  0  0  0  0  0  0  0  0  0  0
   -5.8885    5.2127  -17.1352 C   0  0  0  0  0  0  0  0  0  0  0  0
   -2.9993    6.5136  -16.8215 C   0  0  0  0  0  0  0  0  0  0  0  0
   -1.7931    7.3925  -17.1483 C   0  0  0  0  0  0  0  0  0  0  0  0
   -2.0718    7.9666  -18.5364 C   0  0  0  0  0  0  0  0  0  0  0  0
   -3.3685    7.3095  -19.0137 C   0  0  0  0  0  0  0  0  0  0  0  0
  1  2  1  0
  2  3  1  0
  3  4  2  0
  4  5  1  0
  5  6  1  0
  6  7  2  0
  7  8  1  0
  7  9  1  0
  9 10  2  0
 10 11  1  0
 11 12  2  0
 11 13  1  0
 13 14  1  0
 14 15  2  0
 15 16  1  0
 16 17  2  0
 17 18  1  0
 18 19  2  0
 18 20  1  0
 20 21  1  0
 21 22  1  0
 10 23  1  0
 23 24  2  0
  2 25  1  0
 25 26  1  0
 26 27  1  0
 27 28  1  0
 28  2  1  0
 24  3  1  0
 24  6  1  0
 19 14  1  0
 22 17  1  0
M  END
>  <smiles>  (2744) 
C41677-P303

>  <fragmenstein_outcome>  (2744) 
acceptable

>  <inchikey>  (2744) 
ZMLAQUSTMWEOMO-UHFFFAOYSA-N

>  <fragmenstein_mode>  (2744) 
expansion

>  <HIPPO Pose ID>  (2744) 
29976

>  <Energy>  (2744) 
42.018428

>  <fragmenstein_error>  (2744) 


>  <tags>  (2744) 
{'openbind_xx01zvns2b_c1_fragmenstein', 'fragmenstein_placed'}

>  <ref_pdb>  (2744) 
175

>  <scratch_subdir>  (2744) 
/opt/xchem-fragalysis-2/maxwin/BulkDock/SCRATCH/511028/C41677-P303

>  <alias>  (2744) 
NC1(c2c[nH]c3c(F)cc(C(=O)Nc4ccc5c(c4)CNC5)cc23)CCCC1

>  <HIPPO Compound ID>  (2744) 
41677

>  <fragmenstein_runtime>  (2744) 
8.468124

$$$$
NCc1c(N)[nH]c2c(F)cc(C(=O)N[C@H]3CC4=C(CNC4)C4(C3)NNNN4)cc12
     RDKit          3D

 29 33  0  0  0  0  0  0  0  0999 V2000
   -2.5329    5.4365  -17.1561 N   0  0  0  0  0  0  0  0  0  0  0  0
   -3.5258    6.4808  -17.3855 C   0  0  0  0  0  0  0  0  0  0  0  0
   -4.8131    5.8352  -17.7691 C   0  0  0  0  0  0  0  0  0  0  0  0
   -5.2164    5.4595  -19.0362 C   0  0  0  0  0  0  0  0  0  0  0  0
   -4.6079    5.5580  -20.2315 N   0  0  0  0  0  0  0  0  0  0  0  0
   -6.4685    4.9154  -18.9517 N   0  0  0  0  0  0  0  0  0  0  0  0
   -6.8783    4.8817  -17.6425 C   0  0  0  0  0  0  0  0  0  0  0  0
   -8.0553    4.3893  -17.0839 C   0  0  0  0  0  0  0  0  0  0  0  0
   -8.9640    3.7859  -17.8544 F   0  0  0  0  0  0  0  0  0  0  0  0
   -8.2853    4.5600  -15.7240 C   0  0  0  0  0  0  0  0  0  0  0  0
   -7.3291    5.2181  -14.9554 C   0  0  0  0  0  0  0  0  0  0  0  0
   -7.6519    5.6349  -13.5764 C   0  0  0  0  0  0  0  0  0  0  0  0
   -7.7414    6.7751  -13.3621 O   0  0  0  0  0  0  0  0  0  0  0  0
   -7.7983    4.4324  -12.6371 N   0  0  0  0  0  0  0  0  0  0  0  0
   -8.1832    4.3692  -11.2392 C   0  0  1  0  0  0  0  0  0  0  0  0
   -8.3842    2.9308  -10.7309 C   0  0  0  0  0  0  0  0  0  0  0  0
   -8.6197    2.9455   -9.2605 C   0  0  0  0  0  0  0  0  0  0  0  0
   -8.3667    3.9841   -8.4535 C   0  0  0  0  0  0  0  0  0  0  0  0
   -8.8036    3.6475   -7.0713 C   0  0  0  0  0  0  0  0  0  0  0  0
   -9.5213    2.3650   -7.1821 N   0  0  0  0  0  0  0  0  0  0  0  0
   -9.1375    1.7927   -8.4876 C   0  0  0  0  0  0  0  0  0  0  0  0
   -7.6999    5.2614   -8.8834 C   0  0  0  0  0  0  0  0  0  0  0  0
   -7.1813    5.1162  -10.3472 C   0  0  0  0  0  0  0  0  0  0  0  0
   -6.5765    5.6431   -8.0137 N   0  0  0  0  0  0  0  0  0  0  0  0
   -6.4775    7.0679   -8.1628 N   0  0  0  0  0  0  0  0  0  0  0  0
   -7.7585    7.5553   -8.5197 N   0  0  0  0  0  0  0  0  0  0  0  0
   -8.6066    6.4094   -8.7649 N   0  0  0  0  0  0  0  0  0  0  0  0
   -6.1153    5.6632  -15.5027 C   0  0  0  0  0  0  0  0  0  0  0  0
   -5.8848    5.4904  -16.8809 C   0  0  0  0  0  0  0  0  0  0  0  0
  1  2  1  0
  2  3  1  0
  3  4  2  0
  4  5  1  0
  4  6  1  0
  6  7  1  0
  7  8  2  0
  8  9  1  0
  8 10  1  0
 10 11  2  0
 11 12  1  0
 12 13  2  0
 12 14  1  0
 15 14  1  6
 15 16  1  0
 16 17  1  0
 17 18  2  0
 18 19  1  0
 19 20  1  0
 20 21  1  0
 18 22  1  0
 22 23  1  0
 22 24  1  0
 24 25  1  0
 25 26  1  0
 26 27  1  0
 11 28  1  0
 28 29  2  0
 29  3  1  0
 29  7  1  0
 23 15  1  0
 21 17  1  0
 27 22  1  0
M  END
>  <smiles>  (2745) 
C41679-P303

>  <fragmenstein_outcome>  (2745) 
acceptable

>  <inchikey>  (2745) 
VDZNPDAWUWUANR-UHFFFAOYSA-N

>  <fragmenstein_mode>  (2745) 
expansion

>  <HIPPO Pose ID>  (2745) 
29977

>  <Energy>  (2745) 
7.934495

>  <fragmenstein_error>  (2745) 


>  <tags>  (2745) 
{'openbind_xx01zvns2b_c1_fragmenstein', 'fragmenstein_placed'}

>  <ref_pdb>  (2745) 
175

>  <scratch_subdir>  (2745) 
/opt/xchem-fragalysis-2/maxwin/BulkDock/SCRATCH/511028/C41679-P303

>  <alias>  (2745) 
NCc1c(N)[nH]c2c(F)cc(C(=O)N[C@H]3CC4=C(CNC4)C4(C3)NNNN4)cc12

>  <HIPPO Compound ID>  (2745) 
18983

>  <fragmenstein_runtime>  (2745) 
6.680113

$$$$
CC(C)NC(=O)[C@](O)(Nc1ccc2c(c1)CNC2)c1cc(F)c2[nH]cc(CN)c2c1
     RDKit          3D

 30 33  0  0  0  0  0  0  0  0999 V2000
   -4.0938    8.8781  -12.3385 C   0  0  0  0  0  0  0  0  0  0  0  0
   -4.1319    7.4055  -11.9533 C   0  0  0  0  0  0  0  0  0  0  0  0
   -4.0673    7.2268  -10.4406 C   0  0  0  0  0  0  0  0  0  0  0  0
   -5.3174    6.7713  -12.4753 N   0  0  0  0  0  0  0  0  0  0  0  0
   -5.5895    5.2789  -12.8430 C   0  0  0  0  0  0  0  0  0  0  0  0
   -4.9182    4.3294  -12.7048 O   0  0  0  0  0  0  0  0  0  0  0  0
   -7.0673    5.2603  -13.4809 C   0  0  2  0  0  0  0  0  0  0  0  0
   -7.7497    6.5043  -13.3913 O   0  0  0  0  0  0  0  0  0  0  0  0
   -7.9101    4.2793  -12.7813 N   0  0  0  0  0  0  0  0  0  0  0  0
   -8.0455    4.2609  -11.3775 C   0  0  0  0  0  0  0  0  0  0  0  0
   -7.9488    5.4052  -10.5577 C   0  0  0  0  0  0  0  0  0  0  0  0
   -8.1646    5.3516   -9.1733 C   0  0  0  0  0  0  0  0  0  0  0  0
   -8.4996    4.1403   -8.6073 C   0  0  0  0  0  0  0  0  0  0  0  0
   -8.6398    3.0098   -9.3943 C   0  0  0  0  0  0  0  0  0  0  0  0
   -8.4388    3.0566  -10.7679 C   0  0  0  0  0  0  0  0  0  0  0  0
   -9.0365    1.8562   -8.5388 C   0  0  0  0  0  0  0  0  0  0  0  0
   -8.9728    2.3374   -7.1312 N   0  0  0  0  0  0  0  0  0  0  0  0
   -8.7931    3.8036   -7.1878 C   0  0  0  0  0  0  0  0  0  0  0  0
   -7.0277    4.9783  -14.9909 C   0  0  0  0  0  0  0  0  0  0  0  0
   -8.1917    4.5391  -15.6522 C   0  0  0  0  0  0  0  0  0  0  0  0
   -8.2307    4.3971  -17.0360 C   0  0  0  0  0  0  0  0  0  0  0  0
   -9.3605    3.9986  -17.6451 F   0  0  0  0  0  0  0  0  0  0  0  0
   -7.0870    4.7145  -17.7660 C   0  0  0  0  0  0  0  0  0  0  0  0
   -6.8955    4.7259  -19.1185 N   0  0  0  0  0  0  0  0  0  0  0  0
   -5.6325    5.1384  -19.4192 C   0  0  0  0  0  0  0  0  0  0  0  0
   -4.9333    5.3397  -18.2497 C   0  0  0  0  0  0  0  0  0  0  0  0
   -3.5062    5.7772  -18.1730 C   0  0  0  0  0  0  0  0  0  0  0  0
   -2.6984    5.1268  -19.2041 N   0  0  0  0  0  0  0  0  0  0  0  0
   -5.8892    5.1258  -17.1822 C   0  0  0  0  0  0  0  0  0  0  0  0
   -5.8729    5.2623  -15.7715 C   0  0  0  0  0  0  0  0  0  0  0  0
  1  2  1  0
  2  3  1  0
  2  4  1  0
  4  5  1  0
  5  6  2  0
  5  7  1  0
  7  8  1  6
  7  9  1  0
  9 10  1  0
 10 11  2  0
 11 12  1  0
 12 13  2  0
 13 14  1  0
 14 15  2  0
 14 16  1  0
 16 17  1  0
 17 18  1  0
  7 19  1  0
 19 20  2  0
 20 21  1  0
 21 22  1  0
 21 23  2  0
 23 24  1  0
 24 25  1  0
 25 26  2  0
 26 27  1  0
 27 28  1  0
 26 29  1  0
 29 30  2  0
 15 10  1  0
 30 19  1  0
 18 13  1  0
 29 23  1  0
M  END
>  <smiles>  (2746) 
C41681-P303

>  <fragmenstein_outcome>  (2746) 
acceptable

>  <inchikey>  (2746) 
DSMIRNLXPKNRQX-UHFFFAOYSA-N

>  <fragmenstein_mode>  (2746) 
expansion

>  <HIPPO Pose ID>  (2746) 
29978

>  <Energy>  (2746) 
77.424247

>  <fragmenstein_error>  (2746) 


>  <tags>  (2746) 
{'openbind_xx01zvns2b_c1_fragmenstein', 'fragmenstein_placed'}

>  <ref_pdb>  (2746) 
175

>  <scratch_subdir>  (2746) 
/opt/xchem-fragalysis-2/maxwin/BulkDock/SCRATCH/511028/C41681-P303

>  <alias>  (2746) 
CC(C)NC(=O)[C@](O)(Nc1ccc2c(c1)CNC2)c1cc(F)c2[nH]cc(CN)c2c1

>  <HIPPO Compound ID>  (2746) 
41681

>  <fragmenstein_runtime>  (2746) 
6.906751

$$$$
C[C@H](N)c1c[nH]c2c(F)cc([C@](O)(Nc3ccc4c(c3)CNC4)C(=O)NCC(F)F)cc12
     RDKit          3D

 32 35  0  0  0  0  0  0  0  0999 V2000
   -3.2690    5.1506  -15.6875 C   0  0  0  0  0  0  0  0  0  0  0  0
   -3.8581    6.1028  -16.7174 C   0  0  2  0  0  0  0  0  0  0  0  0
   -4.0233    7.4350  -16.1317 N   0  0  0  0  0  0  0  0  0  0  0  0
   -5.1760    5.6726  -17.2659 C   0  0  0  0  0  0  0  0  0  0  0  0
   -5.5028    5.5629  -18.6047 C   0  0  0  0  0  0  0  0  0  0  0  0
   -6.7903    5.1101  -18.7134 N   0  0  0  0  0  0  0  0  0  0  0  0
   -7.2969    4.8835  -17.4608 C   0  0  0  0  0  0  0  0  0  0  0  0
   -8.5233    4.3753  -17.0743 C   0  0  0  0  0  0  0  0  0  0  0  0
   -9.4624    4.0117  -17.9582 F   0  0  0  0  0  0  0  0  0  0  0  0
   -8.7632    4.2461  -15.7117 C   0  0  0  0  0  0  0  0  0  0  0  0
   -7.8405    4.6290  -14.7109 C   0  0  0  0  0  0  0  0  0  0  0  0
   -8.1329    4.3411  -13.2288 C   0  0  2  0  0  0  0  0  0  0  0  0
   -9.5293    4.1933  -13.1973 O   0  0  0  0  0  0  0  0  0  0  0  0
   -7.8844    5.4669  -12.3315 N   0  0  0  0  0  0  0  0  0  0  0  0
   -8.0621    5.2064  -10.9358 C   0  0  0  0  0  0  0  0  0  0  0  0
   -7.6215    6.1927  -10.0386 C   0  0  0  0  0  0  0  0  0  0  0  0
   -7.6984    6.0067   -8.6502 C   0  0  0  0  0  0  0  0  0  0  0  0
   -8.2132    4.8183   -8.1636 C   0  0  0  0  0  0  0  0  0  0  0  0
   -8.6850    3.8492   -9.0257 C   0  0  0  0  0  0  0  0  0  0  0  0
   -8.6556    4.0483  -10.3920 C   0  0  0  0  0  0  0  0  0  0  0  0
   -9.2142    2.6862   -8.2566 C   0  0  0  0  0  0  0  0  0  0  0  0
   -8.7806    2.9206   -6.8531 N   0  0  0  0  0  0  0  0  0  0  0  0
   -8.4163    4.3537   -6.7642 C   0  0  0  0  0  0  0  0  0  0  0  0
   -7.2840    3.0673  -12.6950 C   0  0  0  0  0  0  0  0  0  0  0  0
   -7.7889    2.0161  -12.5840 O   0  0  0  0  0  0  0  0  0  0  0  0
   -5.8266    3.5220  -12.3954 N   0  0  0  0  0  0  0  0  0  0  0  0
   -4.6688    2.7562  -11.9890 C   0  0  0  0  0  0  0  0  0  0  0  0
   -4.5920    2.4686  -10.4931 C   0  0  0  0  0  0  0  0  0  0  0  0
   -3.5124    1.6753  -10.2435 F   0  0  0  0  0  0  0  0  0  0  0  0
   -4.3516    3.6309   -9.8238 F   0  0  0  0  0  0  0  0  0  0  0  0
   -6.6384    5.1935  -15.1483 C   0  0  0  0  0  0  0  0  0  0  0  0
   -6.3366    5.2779  -16.5301 C   0  0  0  0  0  0  0  0  0  0  0  0
  2  1  1  1
  2  3  1  0
  2  4  1  0
  4  5  2  0
  5  6  1  0
  6  7  1  0
  7  8  2  0
  8  9  1  0
  8 10  1  0
 10 11  2  0
 11 12  1  0
 12 13  1  6
 12 14  1  0
 14 15  1  0
 15 16  2  0
 16 17  1  0
 17 18  2  0
 18 19  1  0
 19 20  2  0
 19 21  1  0
 21 22  1  0
 22 23  1  0
 12 24  1  0
 24 25  2  0
 24 26  1  0
 26 27  1  0
 27 28  1  0
 28 29  1  0
 28 30  1  0
 11 31  1  0
 31 32  2  0
 32  4  1  0
 32  7  1  0
 20 15  1  0
 23 18  1  0
M  END
>  <smiles>  (2747) 
C41683-P303

>  <fragmenstein_outcome>  (2747) 
acceptable

>  <inchikey>  (2747) 
NBKSQZHAIYSYRY-UHFFFAOYSA-N

>  <fragmenstein_mode>  (2747) 
expansion

>  <HIPPO Pose ID>  (2747) 
29979

>  <Energy>  (2747) 
113.187427

>  <fragmenstein_error>  (2747) 


>  <tags>  (2747) 
{'openbind_xx01zvns2b_c1_fragmenstein', 'fragmenstein_placed'}

>  <ref_pdb>  (2747) 
175

>  <scratch_subdir>  (2747) 
/opt/xchem-fragalysis-2/maxwin/BulkDock/SCRATCH/511028/C41683-P303

>  <alias>  (2747) 
C[C@H](N)c1c[nH]c2c(F)cc([C@](O)(Nc3ccc4c(c3)CNC4)C(=O)NCC(F)F)cc12

>  <HIPPO Compound ID>  (2747) 
26792

>  <fragmenstein_runtime>  (2747) 
7.527641

$$$$
C[C@@H](N)c1c[nH]c2c(F)cc(C(=O)Nc3ccc4c(c3)CNC4)cc12
     RDKit          3D

 25 28  0  0  0  0  0  0  0  0999 V2000
   -2.5934    5.2387  -19.1733 C   0  0  0  0  0  0  0  0  0  0  0  0
   -3.5674    5.8017  -18.1408 C   0  0  1  0  0  0  0  0  0  0  0  0
   -3.5904    7.2627  -18.2391 N   0  0  0  0  0  0  0  0  0  0  0  0
   -4.9837    5.3219  -18.2680 C   0  0  0  0  0  0  0  0  0  0  0  0
   -5.6396    5.0716  -19.4513 C   0  0  0  0  0  0  0  0  0  0  0  0
   -6.9019    4.6352  -19.1793 N   0  0  0  0  0  0  0  0  0  0  0  0
   -7.1383    4.6530  -17.8341 C   0  0  0  0  0  0  0  0  0  0  0  0
   -8.3034    4.3381  -17.1311 C   0  0  0  0  0  0  0  0  0  0  0  0
   -9.4037    3.8980  -17.7611 F   0  0  0  0  0  0  0  0  0  0  0  0
   -8.3228    4.5394  -15.7587 C   0  0  0  0  0  0  0  0  0  0  0  0
   -7.1874    5.0445  -15.1238 C   0  0  0  0  0  0  0  0  0  0  0  0
   -7.2680    5.4657  -13.7045 C   0  0  0  0  0  0  0  0  0  0  0  0
   -7.0001    6.5743  -13.4512 O   0  0  0  0  0  0  0  0  0  0  0  0
   -7.8000    4.3309  -12.7986 N   0  0  0  0  0  0  0  0  0  0  0  0
   -8.0157    4.2972  -11.4229 C   0  0  0  0  0  0  0  0  0  0  0  0
   -7.8370    5.4465  -10.6365 C   0  0  0  0  0  0  0  0  0  0  0  0
   -8.0520    5.4112   -9.2558 C   0  0  0  0  0  0  0  0  0  0  0  0
   -8.4309    4.2120   -8.6837 C   0  0  0  0  0  0  0  0  0  0  0  0
   -8.6122    3.0734   -9.4586 C   0  0  0  0  0  0  0  0  0  0  0  0
   -8.4175    3.0966  -10.8311 C   0  0  0  0  0  0  0  0  0  0  0  0
   -9.0351    1.9431   -8.5843 C   0  0  0  0  0  0  0  0  0  0  0  0
   -8.9070    2.4306   -7.1836 N   0  0  0  0  0  0  0  0  0  0  0  0
   -8.7232    3.8961   -7.2587 C   0  0  0  0  0  0  0  0  0  0  0  0
   -6.0008    5.3201  -15.8333 C   0  0  0  0  0  0  0  0  0  0  0  0
   -5.9682    5.1163  -17.2281 C   0  0  0  0  0  0  0  0  0  0  0  0
  2  1  1  6
  2  3  1  0
  2  4  1  0
  4  5  2  0
  5  6  1  0
  6  7  1  0
  7  8  2  0
  8  9  1  0
  8 10  1  0
 10 11  2  0
 11 12  1  0
 12 13  2  0
 12 14  1  0
 14 15  1  0
 15 16  2  0
 16 17  1  0
 17 18  2  0
 18 19  1  0
 19 20  2  0
 19 21  1  0
 21 22  1  0
 22 23  1  0
 11 24  1  0
 24 25  2  0
 25  4  1  0
 25  7  1  0
 20 15  1  0
 23 18  1  0
M  END
>  <smiles>  (2748) 
C41678-P303

>  <fragmenstein_outcome>  (2748) 
acceptable

>  <inchikey>  (2748) 
DWXBKQAQWUENKE-UHFFFAOYSA-N

>  <fragmenstein_mode>  (2748) 
expansion

>  <HIPPO Pose ID>  (2748) 
29983

>  <Energy>  (2748) 
30.250632

>  <fragmenstein_error>  (2748) 


>  <tags>  (2748) 
{'openbind_xx01zvns2b_c1_fragmenstein', 'fragmenstein_placed'}

>  <ref_pdb>  (2748) 
175

>  <scratch_subdir>  (2748) 
/opt/xchem-fragalysis-2/maxwin/BulkDock/SCRATCH/511028/C41678-P303

>  <alias>  (2748) 
C[C@@H](N)c1c[nH]c2c(F)cc(C(=O)Nc3ccc4c(c3)CNC4)cc12

>  <HIPPO Compound ID>  (2748) 
41678

>  <fragmenstein_runtime>  (2748) 
6.639238

$$$$
NCc1c[nH]c2c(F)cc(C(=O)Nc3ccc4c(c3)CNC4)c(NN)c12
     RDKit          3D

 26 29  0  0  0  0  0  0  0  0999 V2000
   -2.7849    6.4954  -18.7395 N   0  0  0  0  0  0  0  0  0  0  0  0
   -3.2599    5.1316  -18.5512 C   0  0  0  0  0  0  0  0  0  0  0  0
   -4.7484    5.1249  -18.4186 C   0  0  0  0  0  0  0  0  0  0  0  0
   -5.5446    5.1227  -19.5422 C   0  0  0  0  0  0  0  0  0  0  0  0
   -6.8112    4.8214  -19.1763 N   0  0  0  0  0  0  0  0  0  0  0  0
   -6.9169    4.7695  -17.8188 C   0  0  0  0  0  0  0  0  0  0  0  0
   -8.0604    4.4907  -17.0778 C   0  0  0  0  0  0  0  0  0  0  0  0
   -9.2056    4.1508  -17.6858 F   0  0  0  0  0  0  0  0  0  0  0  0
   -8.0170    4.6220  -15.7093 C   0  0  0  0  0  0  0  0  0  0  0  0
   -6.8192    5.0111  -15.1101 C   0  0  0  0  0  0  0  0  0  0  0  0
   -6.8937    5.4039  -13.6725 C   0  0  0  0  0  0  0  0  0  0  0  0
   -6.4969    6.4669  -13.3870 O   0  0  0  0  0  0  0  0  0  0  0  0
   -7.5986    4.3298  -12.8076 N   0  0  0  0  0  0  0  0  0  0  0  0
   -7.8676    4.3019  -11.4396 C   0  0  0  0  0  0  0  0  0  0  0  0
   -7.7083    5.4559  -10.6546 C   0  0  0  0  0  0  0  0  0  0  0  0
   -7.9725    5.4337   -9.2820 C   0  0  0  0  0  0  0  0  0  0  0  0
   -8.3811    4.2421   -8.7151 C   0  0  0  0  0  0  0  0  0  0  0  0
   -8.5543    3.1017   -9.4899 C   0  0  0  0  0  0  0  0  0  0  0  0
   -8.3142    3.1131  -10.8561 C   0  0  0  0  0  0  0  0  0  0  0  0
   -9.0183    1.9824   -8.6211 C   0  0  0  0  0  0  0  0  0  0  0  0
   -8.9000    2.4701   -7.2192 N   0  0  0  0  0  0  0  0  0  0  0  0
   -8.7085    3.9345   -7.2957 C   0  0  0  0  0  0  0  0  0  0  0  0
   -5.5984    5.2333  -15.8477 C   0  0  0  0  0  0  0  0  0  0  0  0
   -4.4442    5.5807  -15.0683 N   0  0  0  0  0  0  0  0  0  0  0  0
   -3.2460    5.8817  -15.6985 N   0  0  0  0  0  0  0  0  0  0  0  0
   -5.6593    5.0748  -17.2733 C   0  0  0  0  0  0  0  0  0  0  0  0
  1  2  1  0
  2  3  1  0
  3  4  2  0
  4  5  1  0
  5  6  1  0
  6  7  2  0
  7  8  1  0
  7  9  1  0
  9 10  2  0
 10 11  1  0
 11 12  2  0
 11 13  1  0
 13 14  1  0
 14 15  2  0
 15 16  1  0
 16 17  2  0
 17 18  1  0
 18 19  2  0
 18 20  1  0
 20 21  1  0
 21 22  1  0
 10 23  1  0
 23 24  1  0
 24 25  1  0
 23 26  2  0
 26  3  1  0
 26  6  1  0
 19 14  1  0
 22 17  1  0
M  END
>  <smiles>  (2749) 
C41689-P303

>  <fragmenstein_outcome>  (2749) 
acceptable

>  <inchikey>  (2749) 
INWPGVBRTKPTIS-UHFFFAOYSA-N

>  <fragmenstein_mode>  (2749) 
expansion

>  <HIPPO Pose ID>  (2749) 
29984

>  <Energy>  (2749) 
91.180001

>  <fragmenstein_error>  (2749) 


>  <tags>  (2749) 
{'openbind_xx01zvns2b_c1_fragmenstein', 'fragmenstein_placed'}

>  <ref_pdb>  (2749) 
175

>  <scratch_subdir>  (2749) 
/opt/xchem-fragalysis-2/maxwin/BulkDock/SCRATCH/511028/C41689-P303

>  <alias>  (2749) 
NCc1c[nH]c2c(F)cc(C(=O)Nc3ccc4c(c3)CNC4)c(NN)c12

>  <HIPPO Compound ID>  (2749) 
39710

>  <fragmenstein_runtime>  (2749) 
3.94211

$$$$
NCc1c[nH]c2c(F)cc([C@@H](N=CNC[C@@H]3CCCO3)Nc3ccc4c(c3)CNC4)cc12
     RDKit          3D

 32 36  0  0  0  0  0  0  0  0999 V2000
   -3.5281    7.3169  -17.7357 N   0  0  0  0  0  0  0  0  0  0  0  0
   -3.6114    5.8663  -17.6020 C   0  0  0  0  0  0  0  0  0  0  0  0
   -5.0101    5.4458  -17.8919 C   0  0  0  0  0  0  0  0  0  0  0  0
   -5.5659    5.2190  -19.1353 C   0  0  0  0  0  0  0  0  0  0  0  0
   -6.8675    4.8212  -18.9646 N   0  0  0  0  0  0  0  0  0  0  0  0
   -7.1797    4.7741  -17.6306 C   0  0  0  0  0  0  0  0  0  0  0  0
   -8.3638    4.4112  -16.9846 C   0  0  0  0  0  0  0  0  0  0  0  0
   -9.4345    3.9747  -17.6648 F   0  0  0  0  0  0  0  0  0  0  0  0
   -8.4278    4.5437  -15.5987 C   0  0  0  0  0  0  0  0  0  0  0  0
   -7.3253    5.0034  -14.8652 C   0  0  0  0  0  0  0  0  0  0  0  0
   -7.3710    5.2662  -13.3659 C   0  0  1  0  0  0  0  0  0  0  0  0
   -7.6157    6.6984  -13.1189 N   0  0  0  0  0  0  0  0  0  0  0  0
   -8.7616    7.0493  -13.0082 C   0  0  0  0  0  0  0  0  0  0  0  0
   -9.3673    8.4404  -12.6036 N   0  0  0  0  0  0  0  0  0  0  0  0
   -8.7257    9.6445  -12.1644 C   0  0  0  0  0  0  0  0  0  0  0  0
   -8.0795    9.4687  -10.7891 C   0  0  2  0  0  0  0  0  0  0  0  0
   -9.0532    9.0812   -9.6855 C   0  0  0  0  0  0  0  0  0  0  0  0
   -8.2957    9.5234   -8.4592 C   0  0  0  0  0  0  0  0  0  0  0  0
   -7.6632   10.8164   -8.9302 C   0  0  0  0  0  0  0  0  0  0  0  0
   -7.4809   10.7081  -10.3507 O   0  0  0  0  0  0  0  0  0  0  0  0
   -8.2504    4.3173  -12.6886 N   0  0  0  0  0  0  0  0  0  0  0  0
   -8.1748    4.2100  -11.2843 C   0  0  0  0  0  0  0  0  0  0  0  0
   -7.7819    5.2739  -10.4423 C   0  0  0  0  0  0  0  0  0  0  0  0
   -7.8932    5.2129   -9.0510 C   0  0  0  0  0  0  0  0  0  0  0  0
   -8.3891    4.0584   -8.4952 C   0  0  0  0  0  0  0  0  0  0  0  0
   -8.7474    2.9828   -9.2933 C   0  0  0  0  0  0  0  0  0  0  0  0
   -8.6699    3.0480  -10.6770 C   0  0  0  0  0  0  0  0  0  0  0  0
   -9.2444    1.8799   -8.4269 C   0  0  0  0  0  0  0  0  0  0  0  0
   -8.9629    2.2925   -7.0252 N   0  0  0  0  0  0  0  0  0  0  0  0
   -8.6778    3.7420   -7.0716 C   0  0  0  0  0  0  0  0  0  0  0  0
   -6.1290    5.3184  -15.5405 C   0  0  0  0  0  0  0  0  0  0  0  0
   -6.0491    5.2035  -16.9385 C   0  0  0  0  0  0  0  0  0  0  0  0
  1  2  1  0
  2  3  1  0
  3  4  2  0
  4  5  1  0
  5  6  1  0
  6  7  2  0
  7  8  1  0
  7  9  1  0
  9 10  2  0
 10 11  1  0
 11 12  1  0
 12 13  2  3
 13 14  1  0
 14 15  1  0
 16 15  1  6
 16 17  1  0
 17 18  1  0
 18 19  1  0
 19 20  1  0
 11 21  1  6
 21 22  1  0
 22 23  2  0
 23 24  1  0
 24 25  2  0
 25 26  1  0
 26 27  2  0
 26 28  1  0
 28 29  1  0
 29 30  1  0
 10 31  1  0
 31 32  2  0
 32  3  1  0
 32  6  1  0
 20 16  1  0
 27 22  1  0
 30 25  1  0
M  END
>  <smiles>  (2750) 
C41701-P303

>  <fragmenstein_outcome>  (2750) 
acceptable

>  <inchikey>  (2750) 
FCDYHGUIOLXPDJ-UHFFFAOYSA-N

>  <fragmenstein_mode>  (2750) 
expansion

>  <HIPPO Pose ID>  (2750) 
29990

>  <Energy>  (2750) 
9.761258

>  <fragmenstein_error>  (2750) 


>  <tags>  (2750) 
{'openbind_xx01zvns2b_c1_fragmenstein', 'fragmenstein_placed'}

>  <ref_pdb>  (2750) 
175

>  <scratch_subdir>  (2750) 
/opt/xchem-fragalysis-2/maxwin/BulkDock/SCRATCH/511028/C41701-P303

>  <alias>  (2750) 
NCc1c[nH]c2c(F)cc([C@@H](N=CNC[C@@H]3CCCO3)Nc3ccc4c(c3)CNC4)cc12

>  <HIPPO Compound ID>  (2750) 
22094

>  <fragmenstein_runtime>  (2750) 
4.427118

$$$$
N#Cc1cc2c(cc1NC(=O)c1cc(F)c3[nH]cc(CN)c3c1)CNC2
     RDKit          3D

 26 29  0  0  0  0  0  0  0  0999 V2000
   -7.9815    7.8977  -11.2620 N   0  0  0  0  0  0  0  0  0  0  0  0
   -7.9625    6.7759  -10.9574 C   0  0  0  0  0  0  0  0  0  0  0  0
   -8.0564    5.4281  -10.4697 C   0  0  0  0  0  0  0  0  0  0  0  0
   -8.2946    5.2989   -9.0860 C   0  0  0  0  0  0  0  0  0  0  0  0
   -8.6075    4.0559   -8.5731 C   0  0  0  0  0  0  0  0  0  0  0  0
   -8.6853    2.9448   -9.4005 C   0  0  0  0  0  0  0  0  0  0  0  0
   -8.4265    3.0383  -10.7590 C   0  0  0  0  0  0  0  0  0  0  0  0
   -8.0806    4.2862  -11.3071 C   0  0  0  0  0  0  0  0  0  0  0  0
   -7.7832    4.2855  -12.6789 N   0  0  0  0  0  0  0  0  0  0  0  0
   -6.9722    5.2915  -13.5329 C   0  0  0  0  0  0  0  0  0  0  0  0
   -6.3617    6.2347  -13.2145 O   0  0  0  0  0  0  0  0  0  0  0  0
   -7.0335    4.9833  -14.9927 C   0  0  0  0  0  0  0  0  0  0  0  0
   -8.2201    4.5557  -15.5925 C   0  0  0  0  0  0  0  0  0  0  0  0
   -8.2747    4.3981  -16.9718 C   0  0  0  0  0  0  0  0  0  0  0  0
   -9.4156    4.0032  -17.5557 F   0  0  0  0  0  0  0  0  0  0  0  0
   -7.1396    4.6947  -17.7288 C   0  0  0  0  0  0  0  0  0  0  0  0
   -6.9693    4.6880  -19.0843 N   0  0  0  0  0  0  0  0  0  0  0  0
   -5.7081    5.0890  -19.4105 C   0  0  0  0  0  0  0  0  0  0  0  0
   -4.9897    5.3100  -18.2573 C   0  0  0  0  0  0  0  0  0  0  0  0
   -3.5670    5.7704  -18.2117 C   0  0  0  0  0  0  0  0  0  0  0  0
   -2.7547    5.0793  -19.2127 N   0  0  0  0  0  0  0  0  0  0  0  0
   -5.9271    5.1089  -17.1726 C   0  0  0  0  0  0  0  0  0  0  0  0
   -5.8849    5.2601  -15.7699 C   0  0  0  0  0  0  0  0  0  0  0  0
   -9.0439    1.7527   -8.5739 C   0  0  0  0  0  0  0  0  0  0  0  0
   -9.5424    2.3108   -7.2897 N   0  0  0  0  0  0  0  0  0  0  0  0
   -8.9257    3.6491   -7.1730 C   0  0  0  0  0  0  0  0  0  0  0  0
  1  2  3  0
  2  3  1  0
  3  4  2  0
  4  5  1  0
  5  6  2  0
  6  7  1  0
  7  8  2  0
  8  9  1  0
  9 10  1  0
 10 11  2  0
 10 12  1  0
 12 13  2  0
 13 14  1  0
 14 15  1  0
 14 16  2  0
 16 17  1  0
 17 18  1  0
 18 19  2  0
 19 20  1  0
 20 21  1  0
 19 22  1  0
 22 23  2  0
  6 24  1  0
 24 25  1  0
 25 26  1  0
  8  3  1  0
 23 12  1  0
 26  5  1  0
 22 16  1  0
M  END
>  <smiles>  (2751) 
C41702-P303

>  <fragmenstein_outcome>  (2751) 
acceptable

>  <inchikey>  (2751) 
CDVIVRZTWPFGPO-UHFFFAOYSA-N

>  <fragmenstein_mode>  (2751) 
expansion

>  <HIPPO Pose ID>  (2751) 
29995

>  <Energy>  (2751) 
57.769037

>  <fragmenstein_error>  (2751) 


>  <tags>  (2751) 
{'openbind_xx01zvns2b_c1_fragmenstein', 'fragmenstein_placed'}

>  <ref_pdb>  (2751) 
175

>  <scratch_subdir>  (2751) 
/opt/xchem-fragalysis-2/maxwin/BulkDock/SCRATCH/511028/C41702-P303

>  <alias>  (2751) 
N#Cc1cc2c(cc1NC(=O)c1cc(F)c3[nH]cc(CN)c3c1)CNC2

>  <HIPPO Compound ID>  (2751) 
41702

>  <fragmenstein_runtime>  (2751) 
4.647232

$$$$
NCc1c[nH]c2c(F)cc(C(=O)Nc3ccc4c(c3)CN[C@@H]4CC(=O)O)cc12
     RDKit          3D

 28 31  0  0  0  0  0  0  0  0999 V2000
   -2.8231    5.3373  -19.3539 N   0  0  0  0  0  0  0  0  0  0  0  0
   -3.5032    5.5118  -18.0695 C   0  0  0  0  0  0  0  0  0  0  0  0
   -4.9694    5.2251  -18.1694 C   0  0  0  0  0  0  0  0  0  0  0  0
   -5.6886    5.0597  -19.3344 C   0  0  0  0  0  0  0  0  0  0  0  0
   -6.9738    4.7289  -19.0251 N   0  0  0  0  0  0  0  0  0  0  0  0
   -7.1518    4.7161  -17.6709 C   0  0  0  0  0  0  0  0  0  0  0  0
   -8.3063    4.4365  -16.9372 C   0  0  0  0  0  0  0  0  0  0  0  0
   -9.4522    4.0826  -17.5432 F   0  0  0  0  0  0  0  0  0  0  0  0
   -8.2706    4.5947  -15.5596 C   0  0  0  0  0  0  0  0  0  0  0  0
   -7.0905    5.0138  -14.9433 C   0  0  0  0  0  0  0  0  0  0  0  0
   -7.1062    5.3991  -13.5052 C   0  0  0  0  0  0  0  0  0  0  0  0
   -6.6173    6.4225  -13.2206 O   0  0  0  0  0  0  0  0  0  0  0  0
   -7.8612    4.3675  -12.6276 N   0  0  0  0  0  0  0  0  0  0  0  0
   -8.0801    4.3378  -11.2494 C   0  0  0  0  0  0  0  0  0  0  0  0
   -7.8087    5.4697  -10.4649 C   0  0  0  0  0  0  0  0  0  0  0  0
   -7.9483    5.4354   -9.0742 C   0  0  0  0  0  0  0  0  0  0  0  0
   -8.3674    4.2574   -8.4845 C   0  0  0  0  0  0  0  0  0  0  0  0
   -8.6788    3.1434   -9.2644 C   0  0  0  0  0  0  0  0  0  0  0  0
   -8.5459    3.1648  -10.6475 C   0  0  0  0  0  0  0  0  0  0  0  0
   -9.0558    2.0078   -8.3690 C   0  0  0  0  0  0  0  0  0  0  0  0
   -9.1938    2.6058   -7.0158 N   0  0  0  0  0  0  0  0  0  0  0  0
   -8.4097    3.8649   -7.0349 C   0  0  2  0  0  0  0  0  0  0  0  0
   -8.9489    4.9031   -6.0619 C   0  0  0  0  0  0  0  0  0  0  0  0
   -8.5471    4.6489   -4.6323 C   0  0  0  0  0  0  0  0  0  0  0  0
   -9.1798    5.0037   -3.6478 O   0  0  0  0  0  0  0  0  0  0  0  0
   -7.3447    4.0660   -4.4360 O   0  0  0  0  0  0  0  0  0  0  0  0
   -5.9099    5.2410  -15.6890 C   0  0  0  0  0  0  0  0  0  0  0  0
   -5.9323    5.0840  -17.0926 C   0  0  0  0  0  0  0  0  0  0  0  0
  1  2  1  0
  2  3  1  0
  3  4  2  0
  4  5  1  0
  5  6  1  0
  6  7  2  0
  7  8  1  0
  7  9  1  0
  9 10  2  0
 10 11  1  0
 11 12  2  0
 11 13  1  0
 13 14  1  0
 14 15  2  0
 15 16  1  0
 16 17  2  0
 17 18  1  0
 18 19  2  0
 18 20  1  0
 20 21  1  0
 21 22  1  0
 22 23  1  1
 23 24  1  0
 24 25  2  0
 24 26  1  0
 10 27  1  0
 27 28  2  0
 28  3  1  0
 28  6  1  0
 19 14  1  0
 22 17  1  0
M  END
>  <smiles>  (2752) 
C41725-P303

>  <fragmenstein_outcome>  (2752) 
acceptable

>  <inchikey>  (2752) 
HIZVJHANPIVSEJ-UHFFFAOYSA-N

>  <fragmenstein_mode>  (2752) 
expansion

>  <HIPPO Pose ID>  (2752) 
30001

>  <Energy>  (2752) 
12.954971

>  <fragmenstein_error>  (2752) 


>  <tags>  (2752) 
{'openbind_xx01zvns2b_c1_fragmenstein', 'fragmenstein_placed'}

>  <ref_pdb>  (2752) 
175

>  <scratch_subdir>  (2752) 
/opt/xchem-fragalysis-2/maxwin/BulkDock/SCRATCH/511028/C41725-P303

>  <alias>  (2752) 
NCc1c[nH]c2c(F)cc(C(=O)Nc3ccc4c(c3)CN[C@@H]4CC(=O)O)cc12

>  <HIPPO Compound ID>  (2752) 
41725

>  <fragmenstein_runtime>  (2752) 
4.422119

$$$$
NCc1c[nH]c2c(F)cc([C@](NCc3ccccn3)(Nc3ccc4c(c3)CNC4)C(=O)NCC(F)F)cc12
     RDKit          3D

 38 42  0  0  0  0  0  0  0  0999 V2000
   -2.6183    5.0755  -18.3848 N   0  0  0  0  0  0  0  0  0  0  0  0
   -3.5366    5.8136  -17.5247 C   0  0  0  0  0  0  0  0  0  0  0  0
   -4.9416    5.4104  -17.8314 C   0  0  0  0  0  0  0  0  0  0  0  0
   -5.5238    5.2640  -19.0775 C   0  0  0  0  0  0  0  0  0  0  0  0
   -6.8255    4.8681  -18.9119 N   0  0  0  0  0  0  0  0  0  0  0  0
   -7.1169    4.7596  -17.5769 C   0  0  0  0  0  0  0  0  0  0  0  0
   -8.2848    4.3717  -16.9274 C   0  0  0  0  0  0  0  0  0  0  0  0
   -9.3541    3.9566  -17.6177 F   0  0  0  0  0  0  0  0  0  0  0  0
   -8.3448    4.4631  -15.5333 C   0  0  0  0  0  0  0  0  0  0  0  0
   -7.2563    4.9191  -14.7657 C   0  0  0  0  0  0  0  0  0  0  0  0
   -7.4243    5.2332  -13.2312 C   0  0  2  0  0  0  0  0  0  0  0  0
   -6.1795    5.8461  -12.6768 N   0  0  0  0  0  0  0  0  0  0  0  0
   -5.1950    4.8141  -12.3052 C   0  0  0  0  0  0  0  0  0  0  0  0
   -3.7755    5.3676  -12.3265 C   0  0  0  0  0  0  0  0  0  0  0  0
   -2.7680    4.6981  -11.6357 C   0  0  0  0  0  0  0  0  0  0  0  0
   -1.4671    5.1872  -11.7058 C   0  0  0  0  0  0  0  0  0  0  0  0
   -1.2046    6.3209  -12.4653 C   0  0  0  0  0  0  0  0  0  0  0  0
   -2.2585    6.9222  -13.1323 C   0  0  0  0  0  0  0  0  0  0  0  0
   -3.5323    6.4732  -13.0903 N   0  0  0  0  0  0  0  0  0  0  0  0
   -7.9540    4.0533  -12.5227 N   0  0  0  0  0  0  0  0  0  0  0  0
   -8.2424    4.0474  -11.1477 C   0  0  0  0  0  0  0  0  0  0  0  0
   -8.0664    5.1456  -10.2792 C   0  0  0  0  0  0  0  0  0  0  0  0
   -8.3031    5.0763   -8.9005 C   0  0  0  0  0  0  0  0  0  0  0  0
   -8.6859    3.8680   -8.3708 C   0  0  0  0  0  0  0  0  0  0  0  0
   -8.8270    2.7588   -9.1884 C   0  0  0  0  0  0  0  0  0  0  0  0
   -8.6156    2.8307  -10.5614 C   0  0  0  0  0  0  0  0  0  0  0  0
   -9.1379    1.5731   -8.3435 C   0  0  0  0  0  0  0  0  0  0  0  0
   -9.4415    2.0984   -6.9862 N   0  0  0  0  0  0  0  0  0  0  0  0
   -8.9610    3.4941   -6.9568 C   0  0  0  0  0  0  0  0  0  0  0  0
   -8.6227    6.4139  -13.1744 C   0  0  0  0  0  0  0  0  0  0  0  0
   -9.7034    6.2433  -13.5977 O   0  0  0  0  0  0  0  0  0  0  0  0
   -7.9926    7.6651  -12.4860 N   0  0  0  0  0  0  0  0  0  0  0  0
   -8.5343    8.9882  -12.2657 C   0  0  0  0  0  0  0  0  0  0  0  0
   -7.9923    9.6822  -11.0221 C   0  0  0  0  0  0  0  0  0  0  0  0
   -8.4934    9.1125   -9.8987 F   0  0  0  0  0  0  0  0  0  0  0  0
   -8.3895   10.9805  -11.0134 F   0  0  0  0  0  0  0  0  0  0  0  0
   -6.0550    5.1923  -15.4692 C   0  0  0  0  0  0  0  0  0  0  0  0
   -5.9790    5.1397  -16.8782 C   0  0  0  0  0  0  0  0  0  0  0  0
  1  2  1  0
  2  3  1  0
  3  4  2  0
  4  5  1  0
  5  6  1  0
  6  7  2  0
  7  8  1  0
  7  9  1  0
  9 10  2  0
 10 11  1  0
 11 12  1  1
 12 13  1  0
 13 14  1  0
 14 15  2  0
 15 16  1  0
 16 17  2  0
 17 18  1  0
 18 19  2  0
 11 20  1  0
 20 21  1  0
 21 22  2  0
 22 23  1  0
 23 24  2  0
 24 25  1  0
 25 26  2  0
 25 27  1  0
 27 28  1  0
 28 29  1  0
 11 30  1  0
 30 31  2  0
 30 32  1  0
 32 33  1  0
 33 34  1  0
 34 35  1  0
 34 36  1  0
 10 37  1  0
 37 38  2  0
 38  3  1  0
 38  6  1  0
 19 14  1  0
 26 21  1  0
 29 24  1  0
M  END
>  <smiles>  (2753) 
C41729-P303

>  <fragmenstein_outcome>  (2753) 
acceptable

>  <inchikey>  (2753) 
XCODQOWVJVIYJC-UHFFFAOYSA-N

>  <fragmenstein_mode>  (2753) 
expansion

>  <HIPPO Pose ID>  (2753) 
30004

>  <Energy>  (2753) 
138.802039

>  <fragmenstein_error>  (2753) 


>  <tags>  (2753) 
{'openbind_xx01zvns2b_c1_fragmenstein', 'fragmenstein_placed'}

>  <ref_pdb>  (2753) 
175

>  <scratch_subdir>  (2753) 
/opt/xchem-fragalysis-2/maxwin/BulkDock/SCRATCH/511028/C41729-P303

>  <alias>  (2753) 
NCc1c[nH]c2c(F)cc([C@](NCc3ccccn3)(Nc3ccc4c(c3)CNC4)C(=O)NCC(F)F)cc12

>  <HIPPO Compound ID>  (2753) 
41137

>  <fragmenstein_runtime>  (2753) 
5.489544

$$$$
NCc1c[nH]c2c(F)cc(C(=O)Nc3ccc4c(c3)CNC4=O)cc12
     RDKit          3D

 25 28  0  0  0  0  0  0  0  0999 V2000
   -2.8093    5.3878  -19.4159 N   0  0  0  0  0  0  0  0  0  0  0  0
   -3.4561    5.5340  -18.1114 C   0  0  0  0  0  0  0  0  0  0  0  0
   -4.9270    5.2625  -18.1831 C   0  0  0  0  0  0  0  0  0  0  0  0
   -5.6710    5.1025  -19.3335 C   0  0  0  0  0  0  0  0  0  0  0  0
   -6.9482    4.7652  -18.9988 N   0  0  0  0  0  0  0  0  0  0  0  0
   -7.0932    4.7375  -17.6401 C   0  0  0  0  0  0  0  0  0  0  0  0
   -8.2213    4.4250  -16.8794 C   0  0  0  0  0  0  0  0  0  0  0  0
   -9.3647    4.0246  -17.4580 F   0  0  0  0  0  0  0  0  0  0  0  0
   -8.1565    4.5727  -15.5020 C   0  0  0  0  0  0  0  0  0  0  0  0
   -6.9688    5.0078  -14.9108 C   0  0  0  0  0  0  0  0  0  0  0  0
   -6.9636    5.3539  -13.4630 C   0  0  0  0  0  0  0  0  0  0  0  0
   -6.5528    6.4045  -13.1566 O   0  0  0  0  0  0  0  0  0  0  0  0
   -7.5854    4.2275  -12.5990 N   0  0  0  0  0  0  0  0  0  0  0  0
   -7.9064    4.1993  -11.2404 C   0  0  0  0  0  0  0  0  0  0  0  0
   -7.8094    5.3624  -10.4531 C   0  0  0  0  0  0  0  0  0  0  0  0
   -8.1155    5.3357   -9.0887 C   0  0  0  0  0  0  0  0  0  0  0  0
   -8.5047    4.1276   -8.5475 C   0  0  0  0  0  0  0  0  0  0  0  0
   -8.6121    2.9659   -9.3081 C   0  0  0  0  0  0  0  0  0  0  0  0
   -8.3268    2.9896  -10.6664 C   0  0  0  0  0  0  0  0  0  0  0  0
   -9.0063    1.8271   -8.4263 C   0  0  0  0  0  0  0  0  0  0  0  0
   -9.1867    2.4660   -7.1397 N   0  0  0  0  0  0  0  0  0  0  0  0
   -8.8385    3.7981   -7.1563 C   0  0  0  0  0  0  0  0  0  0  0  0
   -8.7929    4.5674   -6.2151 O   0  0  0  0  0  0  0  0  0  0  0  0
   -5.8121    5.2660  -15.6812 C   0  0  0  0  0  0  0  0  0  0  0  0
   -5.8659    5.1187  -17.0864 C   0  0  0  0  0  0  0  0  0  0  0  0
  1  2  1  0
  2  3  1  0
  3  4  2  0
  4  5  1  0
  5  6  1  0
  6  7  2  0
  7  8  1  0
  7  9  1  0
  9 10  2  0
 10 11  1  0
 11 12  2  0
 11 13  1  0
 13 14  1  0
 14 15  2  0
 15 16  1  0
 16 17  2  0
 17 18  1  0
 18 19  2  0
 18 20  1  0
 20 21  1  0
 21 22  1  0
 22 23  2  0
 10 24  1  0
 24 25  2  0
 25  3  1  0
 25  6  1  0
 19 14  1  0
 22 17  1  0
M  END
>  <smiles>  (2754) 
C41731-P303

>  <fragmenstein_outcome>  (2754) 
acceptable

>  <inchikey>  (2754) 
GLDOVZDXJYAZRK-UHFFFAOYSA-N

>  <fragmenstein_mode>  (2754) 
expansion

>  <HIPPO Pose ID>  (2754) 
30005

>  <Energy>  (2754) 
17.450733

>  <fragmenstein_error>  (2754) 


>  <tags>  (2754) 
{'openbind_xx01zvns2b_c1_fragmenstein', 'fragmenstein_placed'}

>  <ref_pdb>  (2754) 
175

>  <scratch_subdir>  (2754) 
/opt/xchem-fragalysis-2/maxwin/BulkDock/SCRATCH/511028/C41731-P303

>  <alias>  (2754) 
NCc1c[nH]c2c(F)cc(C(=O)Nc3ccc4c(c3)CNC4=O)cc12

>  <HIPPO Compound ID>  (2754) 
41731

>  <fragmenstein_runtime>  (2754) 
4.982274

$$$$
CNCc1[nH]c2c(F)cc(C(=O)Nc3ccc4c(c3)CNC4)cc2c1CN
     RDKit          3D

 27 30  0  0  0  0  0  0  0  0999 V2000
   -2.4398    5.1359  -19.5197 C   0  0  0  0  0  0  0  0  0  0  0  0
   -3.5054    5.2634  -20.5071 N   0  0  0  0  0  0  0  0  0  0  0  0
   -4.6374    6.0893  -20.0576 C   0  0  0  0  0  0  0  0  0  0  0  0
   -5.3681    5.6296  -18.8387 C   0  0  0  0  0  0  0  0  0  0  0  0
   -6.5818    4.9648  -18.9120 N   0  0  0  0  0  0  0  0  0  0  0  0
   -7.1360    4.8217  -17.6557 C   0  0  0  0  0  0  0  0  0  0  0  0
   -8.3700    4.3070  -17.2270 C   0  0  0  0  0  0  0  0  0  0  0  0
   -9.2704    3.8158  -18.0910 F   0  0  0  0  0  0  0  0  0  0  0  0
   -8.7008    4.3868  -15.8704 C   0  0  0  0  0  0  0  0  0  0  0  0
   -7.8142    4.9783  -14.9791 C   0  0  0  0  0  0  0  0  0  0  0  0
   -8.1896    5.3678  -13.6052 C   0  0  0  0  0  0  0  0  0  0  0  0
   -8.3221    6.5057  -13.3868 O   0  0  0  0  0  0  0  0  0  0  0  0
   -8.2430    4.1575  -12.6578 N   0  0  0  0  0  0  0  0  0  0  0  0
   -8.3718    4.0980  -11.2723 C   0  0  0  0  0  0  0  0  0  0  0  0
   -8.2963    5.2693  -10.4957 C   0  0  0  0  0  0  0  0  0  0  0  0
   -8.4348    5.2231   -9.1053 C   0  0  0  0  0  0  0  0  0  0  0  0
   -8.6884    3.9982   -8.5216 C   0  0  0  0  0  0  0  0  0  0  0  0
   -8.7587    2.8378   -9.2881 C   0  0  0  0  0  0  0  0  0  0  0  0
   -8.5719    2.8619  -10.6600 C   0  0  0  0  0  0  0  0  0  0  0  0
   -9.0549    1.6834   -8.3907 C   0  0  0  0  0  0  0  0  0  0  0  0
   -9.5263    2.2942   -7.1188 N   0  0  0  0  0  0  0  0  0  0  0  0
   -8.9352    3.6505   -7.0925 C   0  0  0  0  0  0  0  0  0  0  0  0
   -6.5650    5.4396  -15.3987 C   0  0  0  0  0  0  0  0  0  0  0  0
   -6.2280    5.3769  -16.7594 C   0  0  0  0  0  0  0  0  0  0  0  0
   -5.1219    5.8940  -17.4984 C   0  0  0  0  0  0  0  0  0  0  0  0
   -4.0078    6.6903  -16.9085 C   0  0  0  0  0  0  0  0  0  0  0  0
   -3.0387    5.7845  -16.3064 N   0  0  0  0  0  0  0  0  0  0  0  0
  1  2  1  0
  2  3  1  0
  3  4  1  0
  4  5  1  0
  5  6  1  0
  6  7  2  0
  7  8  1  0
  7  9  1  0
  9 10  2  0
 10 11  1  0
 11 12  2  0
 11 13  1  0
 13 14  1  0
 14 15  2  0
 15 16  1  0
 16 17  2  0
 17 18  1  0
 18 19  2  0
 18 20  1  0
 20 21  1  0
 21 22  1  0
 10 23  1  0
 23 24  2  0
 24 25  1  0
 25 26  1  0
 26 27  1  0
 25  4  2  0
 24  6  1  0
 19 14  1  0
 22 17  1  0
M  END
>  <smiles>  (2755) 
C41732-P303

>  <fragmenstein_outcome>  (2755) 
acceptable

>  <inchikey>  (2755) 
ISZQGIZUCPVDTG-UHFFFAOYSA-N

>  <fragmenstein_mode>  (2755) 
expansion

>  <HIPPO Pose ID>  (2755) 
30006

>  <Energy>  (2755) 
22.085376

>  <fragmenstein_error>  (2755) 


>  <tags>  (2755) 
{'openbind_xx01zvns2b_c1_fragmenstein', 'fragmenstein_placed'}

>  <ref_pdb>  (2755) 
175

>  <scratch_subdir>  (2755) 
/opt/xchem-fragalysis-2/maxwin/BulkDock/SCRATCH/511028/C41732-P303

>  <alias>  (2755) 
CNCc1[nH]c2c(F)cc(C(=O)Nc3ccc4c(c3)CNC4)cc2c1CN

>  <HIPPO Compound ID>  (2755) 
41732

>  <fragmenstein_runtime>  (2755) 
5.622152

$$$$
NCc1c[nH]c2c(F)cc(C(=NC(=O)O)Nc3ccc4c(c3)CNC4)cc12
     RDKit          3D

 27 30  0  0  0  0  0  0  0  0999 V2000
   -2.7218    5.4196  -19.3598 N   0  0  0  0  0  0  0  0  0  0  0  0
   -3.4435    5.5448  -18.0931 C   0  0  0  0  0  0  0  0  0  0  0  0
   -4.8977    5.2356  -18.2516 C   0  0  0  0  0  0  0  0  0  0  0  0
   -5.5631    5.0602  -19.4448 C   0  0  0  0  0  0  0  0  0  0  0  0
   -6.8421    4.6745  -19.1896 N   0  0  0  0  0  0  0  0  0  0  0  0
   -7.0800    4.6636  -17.8456 C   0  0  0  0  0  0  0  0  0  0  0  0
   -8.2532    4.3375  -17.1655 C   0  0  0  0  0  0  0  0  0  0  0  0
   -9.3444    3.9032  -17.8172 F   0  0  0  0  0  0  0  0  0  0  0  0
   -8.2834    4.5156  -15.7943 C   0  0  0  0  0  0  0  0  0  0  0  0
   -7.1534    5.0141  -15.1441 C   0  0  0  0  0  0  0  0  0  0  0  0
   -7.3638    5.4456  -13.7393 C   0  0  0  0  0  0  0  0  0  0  0  0
   -7.5313    6.6465  -13.5751 N   0  0  0  0  0  0  0  0  0  0  0  0
   -8.1188    7.2224  -12.5172 C   0  0  0  0  0  0  0  0  0  0  0  0
   -9.2590    7.0582  -12.1216 O   0  0  0  0  0  0  0  0  0  0  0  0
   -7.3177    8.1343  -11.9387 O   0  0  0  0  0  0  0  0  0  0  0  0
   -7.3821    4.2409  -12.6891 N   0  0  0  0  0  0  0  0  0  0  0  0
   -7.6849    4.2284  -11.3221 C   0  0  0  0  0  0  0  0  0  0  0  0
   -7.3820    5.2615  -10.4252 C   0  0  0  0  0  0  0  0  0  0  0  0
   -7.7562    5.2155   -9.0723 C   0  0  0  0  0  0  0  0  0  0  0  0
   -8.3794    4.0787   -8.6024 C   0  0  0  0  0  0  0  0  0  0  0  0
   -8.6068    3.0036   -9.4472 C   0  0  0  0  0  0  0  0  0  0  0  0
   -8.2962    3.0719  -10.7983 C   0  0  0  0  0  0  0  0  0  0  0  0
   -9.1248    1.8589   -8.6418 C   0  0  0  0  0  0  0  0  0  0  0  0
   -9.5844    2.4575   -7.3620 N   0  0  0  0  0  0  0  0  0  0  0  0
   -8.8282    3.7236   -7.2244 C   0  0  0  0  0  0  0  0  0  0  0  0
   -5.9461    5.2769  -15.8173 C   0  0  0  0  0  0  0  0  0  0  0  0
   -5.9037    5.0865  -17.2189 C   0  0  0  0  0  0  0  0  0  0  0  0
  1  2  1  0
  2  3  1  0
  3  4  2  0
  4  5  1  0
  5  6  1  0
  6  7  2  0
  7  8  1  0
  7  9  1  0
  9 10  2  0
 10 11  1  0
 11 12  2  3
 12 13  1  0
 13 14  2  0
 13 15  1  0
 11 16  1  0
 16 17  1  0
 17 18  2  0
 18 19  1  0
 19 20  2  0
 20 21  1  0
 21 22  2  0
 21 23  1  0
 23 24  1  0
 24 25  1  0
 10 26  1  0
 26 27  2  0
 27  3  1  0
 27  6  1  0
 22 17  1  0
 25 20  1  0
M  END
>  <smiles>  (2756) 
C41741-P303

>  <fragmenstein_outcome>  (2756) 
acceptable

>  <inchikey>  (2756) 
ASEBXHLHCNZXTK-UHFFFAOYSA-N

>  <fragmenstein_mode>  (2756) 
expansion

>  <HIPPO Pose ID>  (2756) 
30011

>  <Energy>  (2756) 
-9.338887

>  <fragmenstein_error>  (2756) 


>  <tags>  (2756) 
{'openbind_xx01zvns2b_c1_fragmenstein', 'fragmenstein_placed'}

>  <ref_pdb>  (2756) 
175

>  <scratch_subdir>  (2756) 
/opt/xchem-fragalysis-2/maxwin/BulkDock/SCRATCH/511028/C41741-P303

>  <alias>  (2756) 
NCc1c[nH]c2c(F)cc(C(=NC(=O)O)Nc3ccc4c(c3)CNC4)cc12

>  <HIPPO Compound ID>  (2756) 
42142

>  <fragmenstein_runtime>  (2756) 
4.642014

$$$$
CNCc1[nH]c2c(F)cc(C(=O)Nc3cc(Br)c4c(c3)CNC4)cc2c1CN
     RDKit          3D

 28 31  0  0  0  0  0  0  0  0999 V2000
   -2.2058    5.0131  -19.6771 C   0  0  0  0  0  0  0  0  0  0  0  0
   -3.3268    5.2279  -20.5819 N   0  0  0  0  0  0  0  0  0  0  0  0
   -4.3640    6.1151  -20.0372 C   0  0  0  0  0  0  0  0  0  0  0  0
   -5.0570    5.6550  -18.8001 C   0  0  0  0  0  0  0  0  0  0  0  0
   -6.2827    5.0170  -18.8495 N   0  0  0  0  0  0  0  0  0  0  0  0
   -6.8070    4.8935  -17.5817 C   0  0  0  0  0  0  0  0  0  0  0  0
   -8.0282    4.3800  -17.1381 C   0  0  0  0  0  0  0  0  0  0  0  0
   -8.8786    3.8205  -18.0035 F   0  0  0  0  0  0  0  0  0  0  0  0
   -8.3761    4.4939  -15.7894 C   0  0  0  0  0  0  0  0  0  0  0  0
   -7.4902    5.1076  -14.9104 C   0  0  0  0  0  0  0  0  0  0  0  0
   -7.8749    5.4910  -13.5332 C   0  0  0  0  0  0  0  0  0  0  0  0
   -7.9050    6.6304  -13.2824 O   0  0  0  0  0  0  0  0  0  0  0  0
   -8.0879    4.2619  -12.6266 N   0  0  0  0  0  0  0  0  0  0  0  0
   -8.2824    4.1756  -11.2475 C   0  0  0  0  0  0  0  0  0  0  0  0
   -8.1862    5.3224  -10.4403 C   0  0  0  0  0  0  0  0  0  0  0  0
   -8.3444    5.2350   -9.0539 C   0  0  0  0  0  0  0  0  0  0  0  0
   -8.1526    6.7855   -7.9899 Br  0  0  0  0  0  0  0  0  0  0  0  0
   -8.6305    4.0064   -8.4914 C   0  0  0  0  0  0  0  0  0  0  0  0
   -8.7284    2.8729   -9.2923 C   0  0  0  0  0  0  0  0  0  0  0  0
   -8.5404    2.9332  -10.6669 C   0  0  0  0  0  0  0  0  0  0  0  0
   -9.0169    1.6857   -8.4374 C   0  0  0  0  0  0  0  0  0  0  0  0
   -9.3068    2.2166   -7.0829 N   0  0  0  0  0  0  0  0  0  0  0  0
   -8.8608    3.6250   -7.0694 C   0  0  0  0  0  0  0  0  0  0  0  0
   -6.2342    5.5554  -15.3417 C   0  0  0  0  0  0  0  0  0  0  0  0
   -5.8897    5.4522  -16.7015 C   0  0  0  0  0  0  0  0  0  0  0  0
   -4.7615    5.8890  -17.4596 C   0  0  0  0  0  0  0  0  0  0  0  0
   -3.5657    6.5596  -16.8750 C   0  0  0  0  0  0  0  0  0  0  0  0
   -3.7955    8.0003  -16.8790 N   0  0  0  0  0  0  0  0  0  0  0  0
  1  2  1  0
  2  3  1  0
  3  4  1  0
  4  5  1  0
  5  6  1  0
  6  7  2  0
  7  8  1  0
  7  9  1  0
  9 10  2  0
 10 11  1  0
 11 12  2  0
 11 13  1  0
 13 14  1  0
 14 15  2  0
 15 16  1  0
 16 17  1  0
 16 18  2  0
 18 19  1  0
 19 20  2  0
 19 21  1  0
 21 22  1  0
 22 23  1  0
 10 24  1  0
 24 25  2  0
 25 26  1  0
 26 27  1  0
 27 28  1  0
 26  4  2  0
 25  6  1  0
 20 14  1  0
 23 18  1  0
M  END
>  <smiles>  (2757) 
C41742-P303

>  <fragmenstein_outcome>  (2757) 
acceptable

>  <inchikey>  (2757) 
LLYWLTVKBSUYAH-UHFFFAOYSA-N

>  <fragmenstein_mode>  (2757) 
expansion

>  <HIPPO Pose ID>  (2757) 
30012

>  <Energy>  (2757) 
16.617871

>  <fragmenstein_error>  (2757) 


>  <tags>  (2757) 
{'openbind_xx01zvns2b_c1_fragmenstein', 'fragmenstein_placed'}

>  <ref_pdb>  (2757) 
175

>  <scratch_subdir>  (2757) 
/opt/xchem-fragalysis-2/maxwin/BulkDock/SCRATCH/511028/C41742-P303

>  <alias>  (2757) 
CNCc1[nH]c2c(F)cc(C(=O)Nc3cc(Br)c4c(c3)CNC4)cc2c1CN

>  <HIPPO Compound ID>  (2757) 
41742

>  <fragmenstein_runtime>  (2757) 
3.919255

$$$$
CNCc1[nH]c2c(F)cc(C(=O)Nc3cc(F)c4c(c3)CNC4=O)cc2c1CN
     RDKit          3D

 29 32  0  0  0  0  0  0  0  0999 V2000
   -2.4221    5.8334  -20.5630 C   0  0  0  0  0  0  0  0  0  0  0  0
   -3.6350    5.1681  -20.1409 N   0  0  0  0  0  0  0  0  0  0  0  0
   -4.7623    6.0767  -19.9785 C   0  0  0  0  0  0  0  0  0  0  0  0
   -5.4709    5.6842  -18.7376 C   0  0  0  0  0  0  0  0  0  0  0  0
   -6.7185    5.1047  -18.7229 N   0  0  0  0  0  0  0  0  0  0  0  0
   -7.1286    4.9190  -17.4217 C   0  0  0  0  0  0  0  0  0  0  0  0
   -8.3118    4.3946  -16.8974 C   0  0  0  0  0  0  0  0  0  0  0  0
   -9.2568    3.8842  -17.6968 F   0  0  0  0  0  0  0  0  0  0  0  0
   -8.5346    4.4780  -15.5227 C   0  0  0  0  0  0  0  0  0  0  0  0
   -7.5669    5.0482  -14.7020 C   0  0  0  0  0  0  0  0  0  0  0  0
   -7.8521    5.4405  -13.3056 C   0  0  0  0  0  0  0  0  0  0  0  0
   -7.7461    6.5718  -13.0394 O   0  0  0  0  0  0  0  0  0  0  0  0
   -8.1824    4.2301  -12.4107 N   0  0  0  0  0  0  0  0  0  0  0  0
   -8.3531    4.1447  -11.0295 C   0  0  0  0  0  0  0  0  0  0  0  0
   -8.2595    5.3030  -10.2349 C   0  0  0  0  0  0  0  0  0  0  0  0
   -8.4030    5.2274   -8.8521 C   0  0  0  0  0  0  0  0  0  0  0  0
   -8.3037    6.3387   -8.1117 F   0  0  0  0  0  0  0  0  0  0  0  0
   -8.6571    4.0014   -8.2886 C   0  0  0  0  0  0  0  0  0  0  0  0
   -8.7645    2.8465   -9.0623 C   0  0  0  0  0  0  0  0  0  0  0  0
   -8.6005    2.8996  -10.4401 C   0  0  0  0  0  0  0  0  0  0  0  0
   -9.0312    1.6773   -8.1762 C   0  0  0  0  0  0  0  0  0  0  0  0
   -9.1479    2.2875   -6.8692 N   0  0  0  0  0  0  0  0  0  0  0  0
   -8.8535    3.6342   -6.8847 C   0  0  0  0  0  0  0  0  0  0  0  0
   -8.7541    4.3706   -5.9223 O   0  0  0  0  0  0  0  0  0  0  0  0
   -6.3330    5.4616  -15.2136 C   0  0  0  0  0  0  0  0  0  0  0  0
   -6.1187    5.4118  -16.5984 C   0  0  0  0  0  0  0  0  0  0  0  0
   -5.0383    5.8112  -17.4270 C   0  0  0  0  0  0  0  0  0  0  0  0
   -3.7090    6.3107  -16.9831 C   0  0  0  0  0  0  0  0  0  0  0  0
   -2.7924    5.1824  -16.9422 N   0  0  0  0  0  0  0  0  0  0  0  0
  1  2  1  0
  2  3  1  0
  3  4  1  0
  4  5  1  0
  5  6  1  0
  6  7  2  0
  7  8  1  0
  7  9  1  0
  9 10  2  0
 10 11  1  0
 11 12  2  0
 11 13  1  0
 13 14  1  0
 14 15  2  0
 15 16  1  0
 16 17  1  0
 16 18  2  0
 18 19  1  0
 19 20  2  0
 19 21  1  0
 21 22  1  0
 22 23  1  0
 23 24  2  0
 10 25  1  0
 25 26  2  0
 26 27  1  0
 27 28  1  0
 28 29  1  0
 27  4  2  0
 26  6  1  0
 20 14  1  0
 23 18  1  0
M  END
>  <smiles>  (2758) 
C41752-P303

>  <fragmenstein_outcome>  (2758) 
acceptable

>  <inchikey>  (2758) 
FBRIPDMOYVVRTO-UHFFFAOYSA-N

>  <fragmenstein_mode>  (2758) 
expansion

>  <HIPPO Pose ID>  (2758) 
30019

>  <Energy>  (2758) 
-3.599761

>  <fragmenstein_error>  (2758) 


>  <tags>  (2758) 
{'openbind_xx01zvns2b_c1_fragmenstein', 'fragmenstein_placed'}

>  <ref_pdb>  (2758) 
175

>  <scratch_subdir>  (2758) 
/opt/xchem-fragalysis-2/maxwin/BulkDock/SCRATCH/511028/C41752-P303

>  <alias>  (2758) 
CNCc1[nH]c2c(F)cc(C(=O)Nc3cc(F)c4c(c3)CNC4=O)cc2c1CN

>  <HIPPO Compound ID>  (2758) 
41752

>  <fragmenstein_runtime>  (2758) 
6.979189

$$$$
CNCc1[nH]c2c(F)cc(C(=O)Nc3cc4c(c5c3OC(C)(C)C5)CNC4)cc2c1CN
     RDKit          3D

 32 36  0  0  0  0  0  0  0  0999 V2000
   -2.1900    5.0573  -19.8500 C   0  0  0  0  0  0  0  0  0  0  0  0
   -3.3462    5.2241  -20.7144 N   0  0  0  0  0  0  0  0  0  0  0  0
   -4.4502    6.0041  -20.1388 C   0  0  0  0  0  0  0  0  0  0  0  0
   -5.1021    5.4954  -18.8940 C   0  0  0  0  0  0  0  0  0  0  0  0
   -6.3799    4.9576  -18.9357 N   0  0  0  0  0  0  0  0  0  0  0  0
   -6.8906    4.8233  -17.6634 C   0  0  0  0  0  0  0  0  0  0  0  0
   -8.1469    4.3950  -17.2100 C   0  0  0  0  0  0  0  0  0  0  0  0
   -9.0819    3.9442  -18.0586 F   0  0  0  0  0  0  0  0  0  0  0  0
   -8.4516    4.5053  -15.8520 C   0  0  0  0  0  0  0  0  0  0  0  0
   -7.5027    5.0279  -14.9814 C   0  0  0  0  0  0  0  0  0  0  0  0
   -7.8587    5.4653  -13.6165 C   0  0  0  0  0  0  0  0  0  0  0  0
   -7.8544    6.6130  -13.4038 O   0  0  0  0  0  0  0  0  0  0  0  0
   -8.0871    4.2723  -12.6650 N   0  0  0  0  0  0  0  0  0  0  0  0
   -8.2593    4.2366  -11.2734 C   0  0  0  0  0  0  0  0  0  0  0  0
   -8.5305    2.9871  -10.6942 C   0  0  0  0  0  0  0  0  0  0  0  0
   -8.7476    2.9059   -9.3207 C   0  0  0  0  0  0  0  0  0  0  0  0
   -8.6615    4.0235   -8.4974 C   0  0  0  0  0  0  0  0  0  0  0  0
   -8.3457    5.2392   -9.0466 C   0  0  0  0  0  0  0  0  0  0  0  0
   -8.1630    5.3438  -10.4217 C   0  0  0  0  0  0  0  0  0  0  0  0
   -7.8370    6.6190  -10.7996 O   0  0  0  0  0  0  0  0  0  0  0  0
   -7.8781    7.4394   -9.6052 C   0  0  0  0  0  0  0  0  0  0  0  0
   -6.5279    8.1535   -9.4999 C   0  0  0  0  0  0  0  0  0  0  0  0
   -8.9961    8.4707   -9.7823 C   0  0  0  0  0  0  0  0  0  0  0  0
   -8.1294    6.5387   -8.3807 C   0  0  0  0  0  0  0  0  0  0  0  0
   -8.9389    3.6228   -7.0915 C   0  0  0  0  0  0  0  0  0  0  0  0
   -9.5490    2.2783   -7.1854 N   0  0  0  0  0  0  0  0  0  0  0  0
   -9.0727    1.7167   -8.4779 C   0  0  0  0  0  0  0  0  0  0  0  0
   -6.2155    5.3628  -15.4190 C   0  0  0  0  0  0  0  0  0  0  0  0
   -5.9035    5.2645  -16.7875 C   0  0  0  0  0  0  0  0  0  0  0  0
   -4.7372    5.5938  -17.5523 C   0  0  0  0  0  0  0  0  0  0  0  0
   -3.4434    6.0357  -16.9461 C   0  0  0  0  0  0  0  0  0  0  0  0
   -3.1428    7.4044  -17.3343 N   0  0  0  0  0  0  0  0  0  0  0  0
  1  2  1  0
  2  3  1  0
  3  4  1  0
  4  5  1  0
  5  6  1  0
  6  7  2  0
  7  8  1  0
  7  9  1  0
  9 10  2  0
 10 11  1  0
 11 12  2  0
 11 13  1  0
 13 14  1  0
 14 15  2  0
 15 16  1  0
 16 17  2  0
 17 18  1  0
 18 19  2  0
 19 20  1  0
 20 21  1  0
 21 22  1  0
 21 23  1  0
 21 24  1  0
 17 25  1  0
 25 26  1  0
 26 27  1  0
 10 28  1  0
 28 29  2  0
 29 30  1  0
 30 31  1  0
 31 32  1  0
 30  4  2  0
 29  6  1  0
 19 14  1  0
 27 16  1  0
 24 18  1  0
M  END
>  <smiles>  (2759) 
C41756-P303

>  <fragmenstein_outcome>  (2759) 
acceptable

>  <inchikey>  (2759) 
DQBOMJUKLXVUOO-UHFFFAOYSA-N

>  <fragmenstein_mode>  (2759) 
expansion

>  <HIPPO Pose ID>  (2759) 
30021

>  <Energy>  (2759) 
59.154602

>  <fragmenstein_error>  (2759) 


>  <tags>  (2759) 
{'openbind_xx01zvns2b_c1_fragmenstein', 'fragmenstein_placed'}

>  <ref_pdb>  (2759) 
175

>  <scratch_subdir>  (2759) 
/opt/xchem-fragalysis-2/maxwin/BulkDock/SCRATCH/511028/C41756-P303

>  <alias>  (2759) 
CNCc1[nH]c2c(F)cc(C(=O)Nc3cc4c(c5c3OC(C)(C)C5)CNC4)cc2c1CN

>  <HIPPO Compound ID>  (2759) 
34489

>  <fragmenstein_runtime>  (2759) 
7.004528

$$$$
CNCc1[nH]c2c(F)cc(C(=O)Nc3cc4c(cc3F)CNC4)cc2c1CN
     RDKit          3D

 28 31  0  0  0  0  0  0  0  0999 V2000
   -2.3657    4.9676  -19.7525 C   0  0  0  0  0  0  0  0  0  0  0  0
   -3.5394    5.1744  -20.5867 N   0  0  0  0  0  0  0  0  0  0  0  0
   -4.4872    6.1502  -20.0538 C   0  0  0  0  0  0  0  0  0  0  0  0
   -5.2123    5.6740  -18.8354 C   0  0  0  0  0  0  0  0  0  0  0  0
   -6.4652    5.0889  -18.8970 N   0  0  0  0  0  0  0  0  0  0  0  0
   -6.9669    4.9004  -17.6258 C   0  0  0  0  0  0  0  0  0  0  0  0
   -8.1975    4.4000  -17.1772 C   0  0  0  0  0  0  0  0  0  0  0  0
   -9.1142    3.9202  -18.0300 F   0  0  0  0  0  0  0  0  0  0  0  0
   -8.5035    4.4771  -15.8160 C   0  0  0  0  0  0  0  0  0  0  0  0
   -7.5815    5.0355  -14.9381 C   0  0  0  0  0  0  0  0  0  0  0  0
   -7.9510    5.4450  -13.5686 C   0  0  0  0  0  0  0  0  0  0  0  0
   -7.9829    6.5895  -13.3461 O   0  0  0  0  0  0  0  0  0  0  0  0
   -8.1375    4.2389  -12.6284 N   0  0  0  0  0  0  0  0  0  0  0  0
   -8.3037    4.1856  -11.2371 C   0  0  0  0  0  0  0  0  0  0  0  0
   -8.5339    2.9308  -10.6616 C   0  0  0  0  0  0  0  0  0  0  0  0
   -8.7526    2.8578   -9.2934 C   0  0  0  0  0  0  0  0  0  0  0  0
   -8.6973    3.9879   -8.4832 C   0  0  0  0  0  0  0  0  0  0  0  0
   -8.4237    5.2279   -9.0189 C   0  0  0  0  0  0  0  0  0  0  0  0
   -8.2447    5.3201  -10.4003 C   0  0  0  0  0  0  0  0  0  0  0  0
   -7.9793    6.5391  -10.8862 F   0  0  0  0  0  0  0  0  0  0  0  0
   -8.9713    3.5931   -7.0719 C   0  0  0  0  0  0  0  0  0  0  0  0
   -9.5545    2.2376   -7.1572 N   0  0  0  0  0  0  0  0  0  0  0  0
   -9.0640    1.6719   -8.4412 C   0  0  0  0  0  0  0  0  0  0  0  0
   -6.3156    5.4432  -15.3714 C   0  0  0  0  0  0  0  0  0  0  0  0
   -6.0067    5.3825  -16.7402 C   0  0  0  0  0  0  0  0  0  0  0  0
   -4.8686    5.7960  -17.4956 C   0  0  0  0  0  0  0  0  0  0  0  0
   -3.6151    6.3642  -16.9188 C   0  0  0  0  0  0  0  0  0  0  0  0
   -2.8234    5.2843  -16.3452 N   0  0  0  0  0  0  0  0  0  0  0  0
  1  2  1  0
  2  3  1  0
  3  4  1  0
  4  5  1  0
  5  6  1  0
  6  7  2  0
  7  8  1  0
  7  9  1  0
  9 10  2  0
 10 11  1  0
 11 12  2  0
 11 13  1  0
 13 14  1  0
 14 15  2  0
 15 16  1  0
 16 17  2  0
 17 18  1  0
 18 19  2  0
 19 20  1  0
 17 21  1  0
 21 22  1  0
 22 23  1  0
 10 24  1  0
 24 25  2  0
 25 26  1  0
 26 27  1  0
 27 28  1  0
 26  4  2  0
 25  6  1  0
 19 14  1  0
 23 16  1  0
M  END
>  <smiles>  (2760) 
C41757-P303

>  <fragmenstein_outcome>  (2760) 
acceptable

>  <inchikey>  (2760) 
HISDMGGJZCOODV-UHFFFAOYSA-N

>  <fragmenstein_mode>  (2760) 
expansion

>  <HIPPO Pose ID>  (2760) 
30022

>  <Energy>  (2760) 
35.908951

>  <fragmenstein_error>  (2760) 


>  <tags>  (2760) 
{'openbind_xx01zvns2b_c1_fragmenstein', 'fragmenstein_placed'}

>  <ref_pdb>  (2760) 
175

>  <scratch_subdir>  (2760) 
/opt/xchem-fragalysis-2/maxwin/BulkDock/SCRATCH/511028/C41757-P303

>  <alias>  (2760) 
CNCc1[nH]c2c(F)cc(C(=O)Nc3cc4c(cc3F)CNC4)cc2c1CN

>  <HIPPO Compound ID>  (2760) 
32048

>  <fragmenstein_runtime>  (2760) 
4.963932

$$$$
CNCc1[nH]c2c(F)cc(C(=O)Nc3cc(C#N)c4c(c3)CNC4)cc2c1CN
     RDKit          3D

 29 32  0  0  0  0  0  0  0  0999 V2000
   -2.3371    5.1304  -19.5966 C   0  0  0  0  0  0  0  0  0  0  0  0
   -3.4607    5.2472  -20.5173 N   0  0  0  0  0  0  0  0  0  0  0  0
   -4.5391    6.1267  -20.0443 C   0  0  0  0  0  0  0  0  0  0  0  0
   -5.2402    5.6993  -18.7983 C   0  0  0  0  0  0  0  0  0  0  0  0
   -6.4474    5.0204  -18.8268 N   0  0  0  0  0  0  0  0  0  0  0  0
   -6.9608    4.8982  -17.5512 C   0  0  0  0  0  0  0  0  0  0  0  0
   -8.1729    4.3710  -17.0766 C   0  0  0  0  0  0  0  0  0  0  0  0
   -9.0843    3.8365  -17.9048 F   0  0  0  0  0  0  0  0  0  0  0  0
   -8.4709    4.4772  -15.7130 C   0  0  0  0  0  0  0  0  0  0  0  0
   -7.5669    5.0959  -14.8558 C   0  0  0  0  0  0  0  0  0  0  0  0
   -7.9028    5.4750  -13.4648 C   0  0  0  0  0  0  0  0  0  0  0  0
   -7.8467    6.6092  -13.1954 O   0  0  0  0  0  0  0  0  0  0  0  0
   -8.1791    4.2490  -12.5734 N   0  0  0  0  0  0  0  0  0  0  0  0
   -8.3455    4.1521  -11.1916 C   0  0  0  0  0  0  0  0  0  0  0  0
   -8.2497    5.2962  -10.3789 C   0  0  0  0  0  0  0  0  0  0  0  0
   -8.3891    5.2042   -8.9877 C   0  0  0  0  0  0  0  0  0  0  0  0
   -8.2511    6.3628   -8.1591 C   0  0  0  0  0  0  0  0  0  0  0  0
   -8.1317    7.2820   -7.4593 N   0  0  0  0  0  0  0  0  0  0  0  0
   -8.6615    3.9637   -8.4372 C   0  0  0  0  0  0  0  0  0  0  0  0
   -8.7581    2.8332   -9.2419 C   0  0  0  0  0  0  0  0  0  0  0  0
   -8.5830    2.9033  -10.6164 C   0  0  0  0  0  0  0  0  0  0  0  0
   -9.0317    1.6426   -8.3865 C   0  0  0  0  0  0  0  0  0  0  0  0
   -9.3454    2.1781   -7.0396 N   0  0  0  0  0  0  0  0  0  0  0  0
   -8.8801    3.5772   -7.0122 C   0  0  0  0  0  0  0  0  0  0  0  0
   -6.3362    5.5693  -15.3232 C   0  0  0  0  0  0  0  0  0  0  0  0
   -6.0357    5.4859  -16.6918 C   0  0  0  0  0  0  0  0  0  0  0  0
   -4.9602    6.0050  -17.4723 C   0  0  0  0  0  0  0  0  0  0  0  0
   -3.8287    6.8214  -16.9324 C   0  0  0  0  0  0  0  0  0  0  0  0
   -4.2720    8.2097  -16.8357 N   0  0  0  0  0  0  0  0  0  0  0  0
  1  2  1  0
  2  3  1  0
  3  4  1  0
  4  5  1  0
  5  6  1  0
  6  7  2  0
  7  8  1  0
  7  9  1  0
  9 10  2  0
 10 11  1  0
 11 12  2  0
 11 13  1  0
 13 14  1  0
 14 15  2  0
 15 16  1  0
 16 17  1  0
 17 18  3  0
 16 19  2  0
 19 20  1  0
 20 21  2  0
 20 22  1  0
 22 23  1  0
 23 24  1  0
 10 25  1  0
 25 26  2  0
 26 27  1  0
 27 28  1  0
 28 29  1  0
 27  4  2  0
 26  6  1  0
 21 14  1  0
 24 19  1  0
M  END
>  <smiles>  (2761) 
C41759-P303

>  <fragmenstein_outcome>  (2761) 
acceptable

>  <inchikey>  (2761) 
XJRBHNUSFNDHLW-UHFFFAOYSA-N

>  <fragmenstein_mode>  (2761) 
expansion

>  <HIPPO Pose ID>  (2761) 
30023

>  <Energy>  (2761) 
21.465897

>  <fragmenstein_error>  (2761) 


>  <tags>  (2761) 
{'openbind_xx01zvns2b_c1_fragmenstein', 'fragmenstein_placed'}

>  <ref_pdb>  (2761) 
175

>  <scratch_subdir>  (2761) 
/opt/xchem-fragalysis-2/maxwin/BulkDock/SCRATCH/511028/C41759-P303

>  <alias>  (2761) 
CNCc1[nH]c2c(F)cc(C(=O)Nc3cc(C#N)c4c(c3)CNC4)cc2c1CN

>  <HIPPO Compound ID>  (2761) 
41759

>  <fragmenstein_runtime>  (2761) 
4.618215

$$$$
CNCc1[nH]c2c(F)cc(C(=O)Nc3ccc4c(c3)CN(CC(F)F)C4)cc2c1CN
     RDKit          3D

 31 34  0  0  0  0  0  0  0  0999 V2000
   -2.3835    5.9255  -20.7576 C   0  0  0  0  0  0  0  0  0  0  0  0
   -3.5358    5.2414  -20.2148 N   0  0  0  0  0  0  0  0  0  0  0  0
   -4.6866    6.1202  -20.0431 C   0  0  0  0  0  0  0  0  0  0  0  0
   -5.4237    5.6431  -18.8494 C   0  0  0  0  0  0  0  0  0  0  0  0
   -6.6742    5.0754  -18.9016 N   0  0  0  0  0  0  0  0  0  0  0  0
   -7.1290    4.8301  -17.6271 C   0  0  0  0  0  0  0  0  0  0  0  0
   -8.3506    4.3242  -17.1724 C   0  0  0  0  0  0  0  0  0  0  0  0
   -9.2934    3.8972  -18.0211 F   0  0  0  0  0  0  0  0  0  0  0  0
   -8.6235    4.3609  -15.8098 C   0  0  0  0  0  0  0  0  0  0  0  0
   -7.6607    4.8548  -14.9422 C   0  0  0  0  0  0  0  0  0  0  0  0
   -8.0175    5.3369  -13.6068 C   0  0  0  0  0  0  0  0  0  0  0  0
   -8.0989    6.4948  -13.4839 O   0  0  0  0  0  0  0  0  0  0  0  0
   -8.1258    4.2124  -12.5619 N   0  0  0  0  0  0  0  0  0  0  0  0
   -8.2576    4.2739  -11.1808 C   0  0  0  0  0  0  0  0  0  0  0  0
   -8.0554    5.5305  -10.5743 C   0  0  0  0  0  0  0  0  0  0  0  0
   -8.1755    5.6976   -9.2082 C   0  0  0  0  0  0  0  0  0  0  0  0
   -8.5423    4.5938   -8.4781 C   0  0  0  0  0  0  0  0  0  0  0  0
   -8.7566    3.3344   -9.0543 C   0  0  0  0  0  0  0  0  0  0  0  0
   -8.5779    3.1459  -10.4169 C   0  0  0  0  0  0  0  0  0  0  0  0
   -9.2408    2.4000   -7.9736 C   0  0  0  0  0  0  0  0  0  0  0  0
   -9.6182    3.3309   -6.8901 N   0  0  0  0  0  0  0  0  0  0  0  0
   -9.8446    2.8233   -5.5446 C   0  0  0  0  0  0  0  0  0  0  0  0
   -8.9965    3.4398   -4.4089 C   0  0  0  0  0  0  0  0  0  0  0  0
   -9.0980    4.8010   -4.4080 F   0  0  0  0  0  0  0  0  0  0  0  0
   -9.4322    3.0692   -3.1812 F   0  0  0  0  0  0  0  0  0  0  0  0
   -8.8161    4.5376   -7.0230 C   0  0  0  0  0  0  0  0  0  0  0  0
   -6.3851    5.2305  -15.3764 C   0  0  0  0  0  0  0  0  0  0  0  0
   -6.1274    5.2456  -16.7513 C   0  0  0  0  0  0  0  0  0  0  0  0
   -5.0175    5.6762  -17.5238 C   0  0  0  0  0  0  0  0  0  0  0  0
   -3.6932    6.1421  -17.0213 C   0  0  0  0  0  0  0  0  0  0  0  0
   -2.7122    5.0985  -17.2956 N   0  0  0  0  0  0  0  0  0  0  0  0
  1  2  1  0
  2  3  1  0
  3  4  1  0
  4  5  1  0
  5  6  1  0
  6  7  2  0
  7  8  1  0
  7  9  1  0
  9 10  2  0
 10 11  1  0
 11 12  2  0
 11 13  1  0
 13 14  1  0
 14 15  2  0
 15 16  1  0
 16 17  2  0
 17 18  1  0
 18 19  2  0
 18 20  1  0
 20 21  1  0
 21 22  1  0
 22 23  1  0
 23 24  1  0
 23 25  1  0
 21 26  1  0
 10 27  1  0
 27 28  2  0
 28 29  1  0
 29 30  1  0
 30 31  1  0
 29  4  2  0
 28  6  1  0
 19 14  1  0
 26 17  1  0
M  END
>  <smiles>  (2762) 
C41761-P303

>  <fragmenstein_outcome>  (2762) 
acceptable

>  <inchikey>  (2762) 
FBMBDOAFTLCQLI-UHFFFAOYSA-N

>  <fragmenstein_mode>  (2762) 
expansion

>  <HIPPO Pose ID>  (2762) 
30024

>  <Energy>  (2762) 
80.104513

>  <fragmenstein_error>  (2762) 


>  <tags>  (2762) 
{'openbind_xx01zvns2b_c1_fragmenstein', 'fragmenstein_placed'}

>  <ref_pdb>  (2762) 
175

>  <scratch_subdir>  (2762) 
/opt/xchem-fragalysis-2/maxwin/BulkDock/SCRATCH/511028/C41761-P303

>  <alias>  (2762) 
CNCc1[nH]c2c(F)cc(C(=O)Nc3ccc4c(c3)CN(CC(F)F)C4)cc2c1CN

>  <HIPPO Compound ID>  (2762) 
41761

>  <fragmenstein_runtime>  (2762) 
7.821136

$$$$
NCc1c(NC2CCC2)[nH]c2c(F)cc(C(=O)Nc3ccc4c(c3)CNC4)cc12
     RDKit          3D

 29 33  0  0  0  0  0  0  0  0999 V2000
   -3.4069    7.0367  -16.5172 N   0  0  0  0  0  0  0  0  0  0  0  0
   -3.4977    5.6679  -17.0137 C   0  0  0  0  0  0  0  0  0  0  0  0
   -4.8550    5.4194  -17.5900 C   0  0  0  0  0  0  0  0  0  0  0  0
   -5.2701    5.3434  -18.9145 C   0  0  0  0  0  0  0  0  0  0  0  0
   -4.6689    5.5593  -20.1152 N   0  0  0  0  0  0  0  0  0  0  0  0
   -3.2859    5.8880  -20.3277 C   0  0  0  0  0  0  0  0  0  0  0  0
   -2.8799    7.2898  -19.8167 C   0  0  0  0  0  0  0  0  0  0  0  0
   -3.1500    7.8506  -21.2201 C   0  0  0  0  0  0  0  0  0  0  0  0
   -2.9956    6.4230  -21.7566 C   0  0  0  0  0  0  0  0  0  0  0  0
   -6.5994    4.9717  -18.9120 N   0  0  0  0  0  0  0  0  0  0  0  0
   -7.0651    4.8168  -17.6279 C   0  0  0  0  0  0  0  0  0  0  0  0
   -8.3173    4.4263  -17.1368 C   0  0  0  0  0  0  0  0  0  0  0  0
   -9.3075    4.0354  -17.9538 F   0  0  0  0  0  0  0  0  0  0  0  0
   -8.5558    4.5139  -15.7644 C   0  0  0  0  0  0  0  0  0  0  0  0
   -7.5527    4.9761  -14.9205 C   0  0  0  0  0  0  0  0  0  0  0  0
   -7.8356    5.3950  -13.5318 C   0  0  0  0  0  0  0  0  0  0  0  0
   -7.7568    6.5341  -13.2906 O   0  0  0  0  0  0  0  0  0  0  0  0
   -8.1383    4.1976  -12.6109 N   0  0  0  0  0  0  0  0  0  0  0  0
   -8.3087    4.1385  -11.2283 C   0  0  0  0  0  0  0  0  0  0  0  0
   -8.1876    5.2956  -10.4388 C   0  0  0  0  0  0  0  0  0  0  0  0
   -8.3427    5.2402   -9.0499 C   0  0  0  0  0  0  0  0  0  0  0  0
   -8.6323    4.0182   -8.4738 C   0  0  0  0  0  0  0  0  0  0  0  0
   -8.7527    2.8728   -9.2512 C   0  0  0  0  0  0  0  0  0  0  0  0
   -8.5835    2.9095  -10.6275 C   0  0  0  0  0  0  0  0  0  0  0  0
   -9.0455    1.7076   -8.3689 C   0  0  0  0  0  0  0  0  0  0  0  0
   -9.3198    2.2711   -7.0223 N   0  0  0  0  0  0  0  0  0  0  0  0
   -8.8517    3.6718   -7.0410 C   0  0  0  0  0  0  0  0  0  0  0  0
   -6.2689    5.2569  -15.4017 C   0  0  0  0  0  0  0  0  0  0  0  0
   -6.0205    5.1810  -16.7847 C   0  0  0  0  0  0  0  0  0  0  0  0
  1  2  1  0
  2  3  1  0
  3  4  2  0
  4  5  1  0
  5  6  1  0
  6  7  1  0
  7  8  1  0
  8  9  1  0
  4 10  1  0
 10 11  1  0
 11 12  2  0
 12 13  1  0
 12 14  1  0
 14 15  2  0
 15 16  1  0
 16 17  2  0
 16 18  1  0
 18 19  1  0
 19 20  2  0
 20 21  1  0
 21 22  2  0
 22 23  1  0
 23 24  2  0
 23 25  1  0
 25 26  1  0
 26 27  1  0
 15 28  1  0
 28 29  2  0
 29  3  1  0
  9  6  1  0
 29 11  1  0
 24 19  1  0
 27 22  1  0
M  END
>  <smiles>  (2763) 
C41764-P303

>  <fragmenstein_outcome>  (2763) 
acceptable

>  <inchikey>  (2763) 
FVEKUHMHUVAJCU-UHFFFAOYSA-N

>  <fragmenstein_mode>  (2763) 
expansion

>  <HIPPO Pose ID>  (2763) 
30026

>  <Energy>  (2763) 
48.257429

>  <fragmenstein_error>  (2763) 


>  <tags>  (2763) 
{'openbind_xx01zvns2b_c1_fragmenstein', 'fragmenstein_placed'}

>  <ref_pdb>  (2763) 
175

>  <scratch_subdir>  (2763) 
/opt/xchem-fragalysis-2/maxwin/BulkDock/SCRATCH/511028/C41764-P303

>  <alias>  (2763) 
NCc1c(NC2CCC2)[nH]c2c(F)cc(C(=O)Nc3ccc4c(c3)CNC4)cc12

>  <HIPPO Compound ID>  (2763) 
41764

>  <fragmenstein_runtime>  (2763) 
5.03888

$$$$
CNCc1[nH]c2c(F)cc(C(=O)Nc3cc(C)c4c(c3)CNC4)cc2c1CN
     RDKit          3D

 28 31  0  0  0  0  0  0  0  0999 V2000
   -2.1279    5.7052  -20.1907 C   0  0  0  0  0  0  0  0  0  0  0  0
   -3.3688    4.9739  -19.9834 N   0  0  0  0  0  0  0  0  0  0  0  0
   -4.5239    5.8714  -19.8972 C   0  0  0  0  0  0  0  0  0  0  0  0
   -5.3697    5.5174  -18.7181 C   0  0  0  0  0  0  0  0  0  0  0  0
   -6.6393    4.9853  -18.8406 N   0  0  0  0  0  0  0  0  0  0  0  0
   -7.2083    4.8223  -17.5955 C   0  0  0  0  0  0  0  0  0  0  0  0
   -8.4536    4.3267  -17.1945 C   0  0  0  0  0  0  0  0  0  0  0  0
   -9.3450    3.8512  -18.0754 F   0  0  0  0  0  0  0  0  0  0  0  0
   -8.7973    4.3946  -15.8419 C   0  0  0  0  0  0  0  0  0  0  0  0
   -7.9195    4.9644  -14.9303 C   0  0  0  0  0  0  0  0  0  0  0  0
   -8.3079    5.3457  -13.5611 C   0  0  0  0  0  0  0  0  0  0  0  0
   -8.5077    6.4750  -13.3514 O   0  0  0  0  0  0  0  0  0  0  0  0
   -8.2810    4.1438  -12.6038 N   0  0  0  0  0  0  0  0  0  0  0  0
   -8.3963    4.0888  -11.2179 C   0  0  0  0  0  0  0  0  0  0  0  0
   -8.3120    5.2629  -10.4457 C   0  0  0  0  0  0  0  0  0  0  0  0
   -8.4446    5.2328   -9.0478 C   0  0  0  0  0  0  0  0  0  0  0  0
   -8.2912    6.4813   -8.2383 C   0  0  0  0  0  0  0  0  0  0  0  0
   -8.6947    4.0004   -8.4630 C   0  0  0  0  0  0  0  0  0  0  0  0
   -8.7689    2.8378   -9.2309 C   0  0  0  0  0  0  0  0  0  0  0  0
   -8.5879    2.8559  -10.6026 C   0  0  0  0  0  0  0  0  0  0  0  0
   -9.0587    1.6781   -8.3388 C   0  0  0  0  0  0  0  0  0  0  0  0
   -9.5187    2.2794   -7.0614 N   0  0  0  0  0  0  0  0  0  0  0  0
   -8.9317    3.6372   -7.0327 C   0  0  0  0  0  0  0  0  0  0  0  0
   -6.6504    5.3867  -15.3176 C   0  0  0  0  0  0  0  0  0  0  0  0
   -6.2918    5.3091  -16.6705 C   0  0  0  0  0  0  0  0  0  0  0  0
   -5.1067    5.6695  -17.3652 C   0  0  0  0  0  0  0  0  0  0  0  0
   -3.8699    6.1561  -16.7020 C   0  0  0  0  0  0  0  0  0  0  0  0
   -3.2786    5.0411  -15.9801 N   0  0  0  0  0  0  0  0  0  0  0  0
  1  2  1  0
  2  3  1  0
  3  4  1  0
  4  5  1  0
  5  6  1  0
  6  7  2  0
  7  8  1  0
  7  9  1  0
  9 10  2  0
 10 11  1  0
 11 12  2  0
 11 13  1  0
 13 14  1  0
 14 15  2  0
 15 16  1  0
 16 17  1  0
 16 18  2  0
 18 19  1  0
 19 20  2  0
 19 21  1  0
 21 22  1  0
 22 23  1  0
 10 24  1  0
 24 25  2  0
 25 26  1  0
 26 27  1  0
 27 28  1  0
 26  4  2  0
 25  6  1  0
 20 14  1  0
 23 18  1  0
M  END
>  <smiles>  (2764) 
C41767-P303

>  <fragmenstein_outcome>  (2764) 
acceptable

>  <inchikey>  (2764) 
KCIVPXLJVOPNMZ-UHFFFAOYSA-N

>  <fragmenstein_mode>  (2764) 
expansion

>  <HIPPO Pose ID>  (2764) 
30027

>  <Energy>  (2764) 
23.308975

>  <fragmenstein_error>  (2764) 


>  <tags>  (2764) 
{'openbind_xx01zvns2b_c1_fragmenstein', 'fragmenstein_placed'}

>  <ref_pdb>  (2764) 
175

>  <scratch_subdir>  (2764) 
/opt/xchem-fragalysis-2/maxwin/BulkDock/SCRATCH/511028/C41767-P303

>  <alias>  (2764) 
CNCc1[nH]c2c(F)cc(C(=O)Nc3cc(C)c4c(c3)CNC4)cc2c1CN

>  <HIPPO Compound ID>  (2764) 
41767

>  <fragmenstein_runtime>  (2764) 
6.709512

$$$$
NCc1c(N)[nH]c2c(F)cc([C@@H](N=O)Nc3ccc4c(c3)CNC4)cc12
     RDKit          3D

 26 29  0  0  0  0  0  0  0  0999 V2000
   -3.0917    5.0511  -16.5242 N   0  0  0  0  0  0  0  0  0  0  0  0
   -3.8105    6.1121  -17.2195 C   0  0  0  0  0  0  0  0  0  0  0  0
   -5.1353    5.6024  -17.6465 C   0  0  0  0  0  0  0  0  0  0  0  0
   -5.6400    5.4461  -18.9185 C   0  0  0  0  0  0  0  0  0  0  0  0
   -5.1043    5.6903  -20.1274 N   0  0  0  0  0  0  0  0  0  0  0  0
   -6.9293    4.9826  -18.8164 N   0  0  0  0  0  0  0  0  0  0  0  0
   -7.2743    4.8171  -17.4975 C   0  0  0  0  0  0  0  0  0  0  0  0
   -8.4549    4.3902  -16.8901 C   0  0  0  0  0  0  0  0  0  0  0  0
   -9.5214    4.0176  -17.6146 F   0  0  0  0  0  0  0  0  0  0  0  0
   -8.5227    4.3936  -15.4889 C   0  0  0  0  0  0  0  0  0  0  0  0
   -7.4298    4.7756  -14.6989 C   0  0  0  0  0  0  0  0  0  0  0  0
   -7.4051    4.8392  -13.1724 C   0  0  1  0  0  0  0  0  0  0  0  0
   -7.0054    6.2350  -12.7406 N   0  0  0  0  0  0  0  0  0  0  0  0
   -7.7824    7.1149  -13.1360 O   0  0  0  0  0  0  0  0  0  0  0  0
   -8.6331    4.3385  -12.5477 N   0  0  0  0  0  0  0  0  0  0  0  0
   -8.5801    4.1975  -11.1362 C   0  0  0  0  0  0  0  0  0  0  0  0
   -8.4493    5.3171  -10.2844 C   0  0  0  0  0  0  0  0  0  0  0  0
   -8.4734    5.2002   -8.8912 C   0  0  0  0  0  0  0  0  0  0  0  0
   -8.6817    3.9500   -8.3516 C   0  0  0  0  0  0  0  0  0  0  0  0
   -8.8136    2.8357   -9.1690 C   0  0  0  0  0  0  0  0  0  0  0  0
   -8.7456    2.9345  -10.5523 C   0  0  0  0  0  0  0  0  0  0  0  0
   -9.0419    1.6322   -8.3201 C   0  0  0  0  0  0  0  0  0  0  0  0
   -9.3025    2.1445   -6.9504 N   0  0  0  0  0  0  0  0  0  0  0  0
   -8.8498    3.5489   -6.9272 C   0  0  0  0  0  0  0  0  0  0  0  0
   -6.2517    5.1728  -15.3532 C   0  0  0  0  0  0  0  0  0  0  0  0
   -6.1725    5.2098  -16.7519 C   0  0  0  0  0  0  0  0  0  0  0  0
  1  2  1  0
  2  3  1  0
  3  4  2  0
  4  5  1  0
  4  6  1  0
  6  7  1  0
  7  8  2  0
  8  9  1  0
  8 10  1  0
 10 11  2  0
 11 12  1  0
 12 13  1  0
 13 14  2  0
 12 15  1  1
 15 16  1  0
 16 17  2  0
 17 18  1  0
 18 19  2  0
 19 20  1  0
 20 21  2  0
 20 22  1  0
 22 23  1  0
 23 24  1  0
 11 25  1  0
 25 26  2  0
 26  3  1  0
 26  7  1  0
 21 16  1  0
 24 19  1  0
M  END
>  <smiles>  (2765) 
C41772-P303

>  <fragmenstein_outcome>  (2765) 
acceptable

>  <inchikey>  (2765) 
NOGZMORTYWUVDU-UHFFFAOYSA-N

>  <fragmenstein_mode>  (2765) 
expansion

>  <HIPPO Pose ID>  (2765) 
30028

>  <Energy>  (2765) 
39.588376

>  <fragmenstein_error>  (2765) 


>  <tags>  (2765) 
{'openbind_xx01zvns2b_c1_fragmenstein', 'fragmenstein_placed'}

>  <ref_pdb>  (2765) 
175

>  <scratch_subdir>  (2765) 
/opt/xchem-fragalysis-2/maxwin/BulkDock/SCRATCH/511028/C41772-P303

>  <alias>  (2765) 
NCc1c(N)[nH]c2c(F)cc([C@@H](N=O)Nc3ccc4c(c3)CNC4)cc12

>  <HIPPO Compound ID>  (2765) 
42853

>  <fragmenstein_runtime>  (2765) 
3.043155

$$$$
CC(C)[C@H]1NC[C@@H]1n1ncc2c(C(=O)Nc3ncccn3)cc(F)cc21
     RDKit          3D

 26 29  0  0  0  0  0  0  0  0999 V2000
   -1.6868    5.0149  -19.0412 C   0  0  0  0  0  0  0  0  0  0  0  0
   -2.6048    5.5191  -20.1488 C   0  0  0  0  0  0  0  0  0  0  0  0
   -1.8196    6.3100  -21.1890 C   0  0  0  0  0  0  0  0  0  0  0  0
   -3.7038    6.3666  -19.5262 C   0  0  1  0  0  0  0  0  0  0  0  0
   -4.6511    6.9683  -20.5355 N   0  0  0  0  0  0  0  0  0  0  0  0
   -5.7109    6.7469  -19.5190 C   0  0  0  0  0  0  0  0  0  0  0  0
   -4.9011    5.5450  -19.0179 C   0  0  2  0  0  0  0  0  0  0  0  0
   -5.0544    5.3845  -17.5776 N   0  0  0  0  0  0  0  0  0  0  0  0
   -4.1216    5.6855  -16.6578 N   0  0  0  0  0  0  0  0  0  0  0  0
   -4.7852    5.5510  -15.5050 C   0  0  0  0  0  0  0  0  0  0  0  0
   -6.1333    5.1375  -15.6858 C   0  0  0  0  0  0  0  0  0  0  0  0
   -7.2693    4.8807  -14.8886 C   0  0  0  0  0  0  0  0  0  0  0  0
   -7.2472    5.1966  -13.4408 C   0  0  0  0  0  0  0  0  0  0  0  0
   -6.7663    6.2051  -13.1079 O   0  0  0  0  0  0  0  0  0  0  0  0
   -7.9747    4.1197  -12.6194 N   0  0  0  0  0  0  0  0  0  0  0  0
   -8.1729    4.0134  -11.2685 C   0  0  0  0  0  0  0  0  0  0  0  0
   -8.6391    2.8270  -10.8630 N   0  0  0  0  0  0  0  0  0  0  0  0
   -8.8053    2.6688   -9.5364 C   0  0  0  0  0  0  0  0  0  0  0  0
   -8.5603    3.6624   -8.6219 C   0  0  0  0  0  0  0  0  0  0  0  0
   -8.1172    4.8499   -9.1506 C   0  0  0  0  0  0  0  0  0  0  0  0
   -7.9110    5.0520  -10.4651 N   0  0  0  0  0  0  0  0  0  0  0  0
   -8.4597    4.4470  -15.5049 C   0  0  0  0  0  0  0  0  0  0  0  0
   -8.5155    4.2687  -16.8794 C   0  0  0  0  0  0  0  0  0  0  0  0
   -9.6585    3.8889  -17.4633 F   0  0  0  0  0  0  0  0  0  0  0  0
   -7.4253    4.5356  -17.6877 C   0  0  0  0  0  0  0  0  0  0  0  0
   -6.2547    4.9779  -17.0594 C   0  0  0  0  0  0  0  0  0  0  0  0
  1  2  1  0
  2  3  1  0
  4  2  1  6
  4  5  1  0
  5  6  1  0
  6  7  1  0
  7  8  1  1
  8  9  1  0
  9 10  2  0
 10 11  1  0
 11 12  2  0
 12 13  1  0
 13 14  2  0
 13 15  1  0
 15 16  1  0
 16 17  2  0
 17 18  1  0
 18 19  2  0
 19 20  1  0
 20 21  2  0
 12 22  1  0
 22 23  2  0
 23 24  1  0
 23 25  1  0
 25 26  2  0
  7  4  1  0
 26  8  1  0
 26 11  1  0
 21 16  1  0
M  END
>  <smiles>  (2766) 
C41785-P304

>  <fragmenstein_outcome>  (2766) 
acceptable

>  <inchikey>  (2766) 
FBRWWIIOASDUEV-UHFFFAOYSA-N

>  <fragmenstein_mode>  (2766) 
expansion

>  <HIPPO Pose ID>  (2766) 
30037

>  <Energy>  (2766) 
-18.787497

>  <fragmenstein_error>  (2766) 


>  <tags>  (2766) 
{'openbind_xx01zvns2b_c1_fragmenstein', 'fragmenstein_placed'}

>  <ref_pdb>  (2766) 
175

>  <scratch_subdir>  (2766) 
/opt/xchem-fragalysis-2/maxwin/BulkDock/SCRATCH/511028/C41785-P304

>  <alias>  (2766) 
CC(C)[C@H]1NC[C@@H]1n1ncc2c(C(=O)Nc3ncccn3)cc(F)cc21

>  <HIPPO Compound ID>  (2766) 
31004

>  <fragmenstein_runtime>  (2766) 
4.054669

$$$$
C[C@@H]1[C@@H](n2ncc3c(C(=O)Nc4ncccn4)cc(F)cc32)CN1CCO
     RDKit          3D

 27 30  0  0  0  0  0  0  0  0999 V2000
   -5.0989    6.6228  -21.1507 C   0  0  0  0  0  0  0  0  0  0  0  0
   -4.4754    5.9358  -19.9310 C   0  0  2  0  0  0  0  0  0  0  0  0
   -4.7852    6.7047  -18.6403 C   0  0  1  0  0  0  0  0  0  0  0  0
   -4.9457    5.8994  -17.4063 N   0  0  0  0  0  0  0  0  0  0  0  0
   -4.2062    6.1737  -16.3084 N   0  0  0  0  0  0  0  0  0  0  0  0
   -5.0108    5.8603  -15.2931 C   0  0  0  0  0  0  0  0  0  0  0  0
   -6.2398    5.3175  -15.7210 C   0  0  0  0  0  0  0  0  0  0  0  0
   -7.4419    4.9159  -15.1023 C   0  0  0  0  0  0  0  0  0  0  0  0
   -7.6468    5.2762  -13.6798 C   0  0  0  0  0  0  0  0  0  0  0  0
   -7.4348    6.3828  -13.3811 O   0  0  0  0  0  0  0  0  0  0  0  0
   -8.1065    4.0865  -12.8279 N   0  0  0  0  0  0  0  0  0  0  0  0
   -8.3039    3.9825  -11.4742 C   0  0  0  0  0  0  0  0  0  0  0  0
   -8.6467    2.7687  -11.0310 N   0  0  0  0  0  0  0  0  0  0  0  0
   -8.7719    2.6315   -9.6955 C   0  0  0  0  0  0  0  0  0  0  0  0
   -8.5881    3.6603   -8.8056 C   0  0  0  0  0  0  0  0  0  0  0  0
   -8.2605    4.8676   -9.3694 C   0  0  0  0  0  0  0  0  0  0  0  0
   -8.1080    5.0549  -10.6935 N   0  0  0  0  0  0  0  0  0  0  0  0
   -8.4674    4.3775  -15.8865 C   0  0  0  0  0  0  0  0  0  0  0  0
   -8.2984    4.2864  -17.2653 C   0  0  0  0  0  0  0  0  0  0  0  0
   -9.2976    3.8133  -18.0180 F   0  0  0  0  0  0  0  0  0  0  0  0
   -7.1508    4.7420  -17.9125 C   0  0  0  0  0  0  0  0  0  0  0  0
   -6.1314    5.2603  -17.1097 C   0  0  0  0  0  0  0  0  0  0  0  0
   -3.3896    7.3267  -18.7994 C   0  0  0  0  0  0  0  0  0  0  0  0
   -3.0584    6.3604  -19.8656 N   0  0  0  0  0  0  0  0  0  0  0  0
   -2.1515    5.3256  -19.3581 C   0  0  0  0  0  0  0  0  0  0  0  0
   -0.7164    5.8820  -19.3291 C   0  0  0  0  0  0  0  0  0  0  0  0
    0.2186    4.8804  -18.9614 O   0  0  0  0  0  0  0  0  0  0  0  0
  2  1  1  6
  2  3  1  0
  3  4  1  1
  4  5  1  0
  5  6  2  0
  6  7  1  0
  7  8  2  0
  8  9  1  0
  9 10  2  0
  9 11  1  0
 11 12  1  0
 12 13  2  0
 13 14  1  0
 14 15  2  0
 15 16  1  0
 16 17  2  0
  8 18  1  0
 18 19  2  0
 19 20  1  0
 19 21  1  0
 21 22  2  0
  3 23  1  0
 23 24  1  0
 24 25  1  0
 25 26  1  0
 26 27  1  0
 24  2  1  0
 22  4  1  0
 22  7  1  0
 17 12  1  0
M  END
>  <smiles>  (2767) 
C41786-P304

>  <fragmenstein_outcome>  (2767) 
acceptable

>  <inchikey>  (2767) 
LQOKDLHFGKARJL-UHFFFAOYSA-N

>  <fragmenstein_mode>  (2767) 
expansion

>  <HIPPO Pose ID>  (2767) 
30038

>  <Energy>  (2767) 
6.50189

>  <fragmenstein_error>  (2767) 


>  <tags>  (2767) 
{'openbind_xx01zvns2b_c1_fragmenstein', 'fragmenstein_placed'}

>  <ref_pdb>  (2767) 
175

>  <scratch_subdir>  (2767) 
/opt/xchem-fragalysis-2/maxwin/BulkDock/SCRATCH/511028/C41786-P304

>  <alias>  (2767) 
C[C@@H]1[C@@H](n2ncc3c(C(=O)Nc4ncccn4)cc(F)cc32)CN1CCO

>  <HIPPO Compound ID>  (2767) 
42268

>  <fragmenstein_runtime>  (2767) 
6.137292

$$$$
O=C(Nc1ncccn1)c1cc(F)cc2c1cnn2C1CNC1
     RDKit          3D

 23 26  0  0  0  0  0  0  0  0999 V2000
   -7.1048    6.3339  -13.0590 O   0  0  0  0  0  0  0  0  0  0  0  0
   -7.4760    5.2816  -13.3955 C   0  0  0  0  0  0  0  0  0  0  0  0
   -8.0851    4.1328  -12.5795 N   0  0  0  0  0  0  0  0  0  0  0  0
   -8.2719    4.0016  -11.2291 C   0  0  0  0  0  0  0  0  0  0  0  0
   -8.6447    2.7828  -10.8254 N   0  0  0  0  0  0  0  0  0  0  0  0
   -8.7812    2.6091   -9.4970 C   0  0  0  0  0  0  0  0  0  0  0  0
   -8.5890    3.6120   -8.5795 C   0  0  0  0  0  0  0  0  0  0  0  0
   -8.2345    4.8292   -9.1065 C   0  0  0  0  0  0  0  0  0  0  0  0
   -8.0666    5.0511  -10.4227 N   0  0  0  0  0  0  0  0  0  0  0  0
   -7.4121    4.9608  -14.8419 C   0  0  0  0  0  0  0  0  0  0  0  0
   -8.5111    4.4062  -15.5097 C   0  0  0  0  0  0  0  0  0  0  0  0
   -8.4939    4.2762  -16.8895 C   0  0  0  0  0  0  0  0  0  0  0  0
   -9.5640    3.7644  -17.5102 F   0  0  0  0  0  0  0  0  0  0  0  0
   -7.4235    4.7230  -17.6569 C   0  0  0  0  0  0  0  0  0  0  0  0
   -6.3214    5.2637  -16.9787 C   0  0  0  0  0  0  0  0  0  0  0  0
   -6.2878    5.3677  -15.5886 C   0  0  0  0  0  0  0  0  0  0  0  0
   -5.0323    5.9490  -15.3072 C   0  0  0  0  0  0  0  0  0  0  0  0
   -4.3402    6.2439  -16.4087 N   0  0  0  0  0  0  0  0  0  0  0  0
   -5.1483    5.8450  -17.4129 N   0  0  0  0  0  0  0  0  0  0  0  0
   -4.9741    6.3613  -18.7837 C   0  0  0  0  0  0  0  0  0  0  0  0
   -5.0120    5.2930  -19.8675 C   0  0  0  0  0  0  0  0  0  0  0  0
   -3.5290    5.2527  -19.8880 N   0  0  0  0  0  0  0  0  0  0  0  0
   -3.5171    6.5711  -19.2210 C   0  0  0  0  0  0  0  0  0  0  0  0
  1  2  2  0
  2  3  1  0
  3  4  1  0
  4  5  2  0
  5  6  1  0
  6  7  2  0
  7  8  1  0
  8  9  2  0
  2 10  1  0
 10 11  2  0
 11 12  1  0
 12 13  1  0
 12 14  2  0
 14 15  1  0
 15 16  2  0
 16 17  1  0
 17 18  2  0
 18 19  1  0
 19 20  1  0
 20 21  1  0
 21 22  1  0
 22 23  1  0
  9  4  1  0
 16 10  1  0
 23 20  1  0
 19 15  1  0
M  END
>  <smiles>  (2768) 
C278-P304

>  <fragmenstein_outcome>  (2768) 
acceptable

>  <inchikey>  (2768) 
IGQVINHODNBEHU-UHFFFAOYSA-N

>  <fragmenstein_mode>  (2768) 
expansion

>  <HIPPO Pose ID>  (2768) 
30039

>  <Energy>  (2768) 
-21.906586

>  <fragmenstein_error>  (2768) 


>  <tags>  (2768) 
{'openbind_xx01zvns2b_c1_fragmenstein', 'fragmenstein_placed'}

>  <ref_pdb>  (2768) 
175

>  <scratch_subdir>  (2768) 
/opt/xchem-fragalysis-2/maxwin/BulkDock/SCRATCH/511028/C278-P304

>  <alias>  (2768) 
O=C(Nc1ncccn1)c1cc(F)cc2c1cnn2C1CNC1

>  <HIPPO Compound ID>  (2768) 
30921

>  <fragmenstein_runtime>  (2768) 
2.013451

$$$$
N#Cc1cc(C(=O)Nc2ncccn2)c2cnn(C3CNC3)c2c1
     RDKit          3D

 24 27  0  0  0  0  0  0  0  0999 V2000
  -10.7638    4.1461  -17.9204 N   0  0  0  0  0  0  0  0  0  0  0  0
   -9.6969    4.2259  -17.4808 C   0  0  0  0  0  0  0  0  0  0  0  0
   -8.4322    4.4524  -16.8624 C   0  0  0  0  0  0  0  0  0  0  0  0
   -8.3761    4.5993  -15.4756 C   0  0  0  0  0  0  0  0  0  0  0  0
   -7.1944    5.0206  -14.8485 C   0  0  0  0  0  0  0  0  0  0  0  0
   -7.1908    5.3201  -13.3974 C   0  0  0  0  0  0  0  0  0  0  0  0
   -6.7460    6.3385  -13.0458 O   0  0  0  0  0  0  0  0  0  0  0  0
   -7.8967    4.2113  -12.5992 N   0  0  0  0  0  0  0  0  0  0  0  0
   -8.1108    4.0828  -11.2525 C   0  0  0  0  0  0  0  0  0  0  0  0
   -8.5583    2.8801  -10.8732 N   0  0  0  0  0  0  0  0  0  0  0  0
   -8.7524    2.7012   -9.5529 C   0  0  0  0  0  0  0  0  0  0  0  0
   -8.5492    3.6879   -8.6209 C   0  0  0  0  0  0  0  0  0  0  0  0
   -8.1193    4.8915   -9.1244 C   0  0  0  0  0  0  0  0  0  0  0  0
   -7.8885    5.1158  -10.4317 N   0  0  0  0  0  0  0  0  0  0  0  0
   -6.0606    5.2858  -15.6380 C   0  0  0  0  0  0  0  0  0  0  0  0
   -4.7379    5.7388  -15.4276 C   0  0  0  0  0  0  0  0  0  0  0  0
   -4.0279    5.7997  -16.5579 N   0  0  0  0  0  0  0  0  0  0  0  0
   -4.8995    5.4056  -17.5045 N   0  0  0  0  0  0  0  0  0  0  0  0
   -4.5536    5.2080  -18.9157 C   0  0  0  0  0  0  0  0  0  0  0  0
   -4.8997    6.3947  -19.8181 C   0  0  0  0  0  0  0  0  0  0  0  0
   -3.6171    6.1313  -20.5408 N   0  0  0  0  0  0  0  0  0  0  0  0
   -3.0997    5.5309  -19.2878 C   0  0  0  0  0  0  0  0  0  0  0  0
   -6.1437    5.0960  -17.0154 C   0  0  0  0  0  0  0  0  0  0  0  0
   -7.3127    4.6793  -17.6616 C   0  0  0  0  0  0  0  0  0  0  0  0
  1  2  3  0
  2  3  1  0
  3  4  2  0
  4  5  1  0
  5  6  1  0
  6  7  2  0
  6  8  1  0
  8  9  1  0
  9 10  2  0
 10 11  1  0
 11 12  2  0
 12 13  1  0
 13 14  2  0
  5 15  2  0
 15 16  1  0
 16 17  2  0
 17 18  1  0
 18 19  1  0
 19 20  1  0
 20 21  1  0
 21 22  1  0
 18 23  1  0
 23 24  2  0
 24  3  1  0
 14  9  1  0
 23 15  1  0
 22 19  1  0
M  END
>  <smiles>  (2769) 
C41796-P304

>  <fragmenstein_outcome>  (2769) 
acceptable

>  <inchikey>  (2769) 
SUYMJMYKBMAEBI-UHFFFAOYSA-N

>  <fragmenstein_mode>  (2769) 
expansion

>  <HIPPO Pose ID>  (2769) 
30045

>  <Energy>  (2769) 
-7.114495

>  <fragmenstein_error>  (2769) 


>  <tags>  (2769) 
{'openbind_xx01zvns2b_c1_fragmenstein', 'fragmenstein_placed'}

>  <ref_pdb>  (2769) 
175

>  <scratch_subdir>  (2769) 
/opt/xchem-fragalysis-2/maxwin/BulkDock/SCRATCH/511028/C41796-P304

>  <alias>  (2769) 
N#Cc1cc(C(=O)Nc2ncccn2)c2cnn(C3CNC3)c2c1

>  <HIPPO Compound ID>  (2769) 
40881

>  <fragmenstein_runtime>  (2769) 
4.931478

$$$$
CN(C)[C@@]1(O)NC[C@H]1n1ncc2c(C(=O)Nc3ncccn3)cc(F)cc21
     RDKit          3D

 27 30  0  0  0  0  0  0  0  0999 V2000
   -2.0076    5.0448  -18.8208 C   0  0  0  0  0  0  0  0  0  0  0  0
   -2.8364    5.5075  -19.9358 N   0  0  0  0  0  0  0  0  0  0  0  0
   -1.9372    5.8162  -21.0623 C   0  0  0  0  0  0  0  0  0  0  0  0
   -3.5964    6.7131  -19.5605 C   0  0  1  0  0  0  0  0  0  0  0  0
   -2.7923    7.8687  -19.3413 O   0  0  0  0  0  0  0  0  0  0  0  0
   -4.5404    7.0137  -20.6669 N   0  0  0  0  0  0  0  0  0  0  0  0
   -5.5497    6.1804  -19.9456 C   0  0  0  0  0  0  0  0  0  0  0  0
   -4.8459    6.5761  -18.6641 C   0  0  1  0  0  0  0  0  0  0  0  0
   -4.9089    5.6562  -17.5202 N   0  0  0  0  0  0  0  0  0  0  0  0
   -4.0630    5.8768  -16.4798 N   0  0  0  0  0  0  0  0  0  0  0  0
   -4.8105    5.6653  -15.3968 C   0  0  0  0  0  0  0  0  0  0  0  0
   -6.1062    5.2089  -15.7070 C   0  0  0  0  0  0  0  0  0  0  0  0
   -7.2734    4.8925  -14.9797 C   0  0  0  0  0  0  0  0  0  0  0  0
   -7.3374    5.2302  -13.5387 C   0  0  0  0  0  0  0  0  0  0  0  0
   -7.0027    6.3002  -13.2203 O   0  0  0  0  0  0  0  0  0  0  0  0
   -7.8558    4.0567  -12.6952 N   0  0  0  0  0  0  0  0  0  0  0  0
   -8.1489    3.9815  -11.3581 C   0  0  0  0  0  0  0  0  0  0  0  0
   -8.6040    2.7936  -10.9455 N   0  0  0  0  0  0  0  0  0  0  0  0
   -8.8163    2.6597   -9.6218 C   0  0  0  0  0  0  0  0  0  0  0  0
   -8.6249    3.6750   -8.7183 C   0  0  0  0  0  0  0  0  0  0  0  0
   -8.1925    4.8622   -9.2553 C   0  0  0  0  0  0  0  0  0  0  0  0
   -7.9430    5.0416  -10.5658 N   0  0  0  0  0  0  0  0  0  0  0  0
   -8.3940    4.3970  -15.6547 C   0  0  0  0  0  0  0  0  0  0  0  0
   -8.3476    4.2363  -17.0310 C   0  0  0  0  0  0  0  0  0  0  0  0
   -9.4203    3.7485  -17.6666 F   0  0  0  0  0  0  0  0  0  0  0  0
   -7.2337    4.6037  -17.7844 C   0  0  0  0  0  0  0  0  0  0  0  0
   -6.1137    5.1000  -17.0994 C   0  0  0  0  0  0  0  0  0  0  0  0
  1  2  1  0
  2  3  1  0
  2  4  1  0
  4  5  1  1
  4  6  1  0
  6  7  1  0
  7  8  1  0
  8  9  1  1
  9 10  1  0
 10 11  2  0
 11 12  1  0
 12 13  2  0
 13 14  1  0
 14 15  2  0
 14 16  1  0
 16 17  1  0
 17 18  2  0
 18 19  1  0
 19 20  2  0
 20 21  1  0
 21 22  2  0
 13 23  1  0
 23 24  2  0
 24 25  1  0
 24 26  1  0
 26 27  2  0
  8  4  1  0
 27  9  1  0
 27 12  1  0
 22 17  1  0
M  END
>  <smiles>  (2770) 
C41820-P304

>  <fragmenstein_outcome>  (2770) 
acceptable

>  <inchikey>  (2770) 
MQSFWCYRNRUEQZ-UHFFFAOYSA-N

>  <fragmenstein_mode>  (2770) 
expansion

>  <HIPPO Pose ID>  (2770) 
30061

>  <Energy>  (2770) 
-98.873489

>  <fragmenstein_error>  (2770) 


>  <tags>  (2770) 
{'openbind_xx01zvns2b_c1_fragmenstein', 'fragmenstein_placed'}

>  <ref_pdb>  (2770) 
175

>  <scratch_subdir>  (2770) 
/opt/xchem-fragalysis-2/maxwin/BulkDock/SCRATCH/511028/C41820-P304

>  <alias>  (2770) 
CN(C)[C@@]1(O)NC[C@H]1n1ncc2c(C(=O)Nc3ncccn3)cc(F)cc21

>  <HIPPO Compound ID>  (2770) 
41820

>  <fragmenstein_runtime>  (2770) 
3.904965

$$$$
O[C@@](F)(Nc1ncccn1)c1cc(F)cc2c1cnn2C1CNC1
     RDKit          3D

 24 27  0  0  0  0  0  0  0  0999 V2000
   -6.5923    6.0367  -12.8780 O   0  0  0  0  0  0  0  0  0  0  0  0
   -7.1684    4.8089  -13.2865 C   0  0  1  0  0  0  0  0  0  0  0  0
   -6.3481    3.8613  -12.7819 F   0  0  0  0  0  0  0  0  0  0  0  0
   -8.4797    4.7969  -12.7065 N   0  0  0  0  0  0  0  0  0  0  0  0
   -8.4159    4.3621  -11.3855 C   0  0  0  0  0  0  0  0  0  0  0  0
   -8.5111    3.0639  -11.1017 N   0  0  0  0  0  0  0  0  0  0  0  0
   -8.5018    2.7250   -9.7971 C   0  0  0  0  0  0  0  0  0  0  0  0
   -8.4091    3.6372   -8.7771 C   0  0  0  0  0  0  0  0  0  0  0  0
   -8.3140    4.9453   -9.1746 C   0  0  0  0  0  0  0  0  0  0  0  0
   -8.3118    5.3362  -10.4648 N   0  0  0  0  0  0  0  0  0  0  0  0
   -7.2041    4.8152  -14.8049 C   0  0  0  0  0  0  0  0  0  0  0  0
   -8.3254    4.3365  -15.5277 C   0  0  0  0  0  0  0  0  0  0  0  0
   -8.3623    4.3361  -16.9171 C   0  0  0  0  0  0  0  0  0  0  0  0
   -9.4278    3.8527  -17.5675 F   0  0  0  0  0  0  0  0  0  0  0  0
   -7.3221    4.8487  -17.6705 C   0  0  0  0  0  0  0  0  0  0  0  0
   -6.1937    5.2938  -16.9792 C   0  0  0  0  0  0  0  0  0  0  0  0
   -6.1058    5.2602  -15.5888 C   0  0  0  0  0  0  0  0  0  0  0  0
   -4.8077    5.7571  -15.3185 C   0  0  0  0  0  0  0  0  0  0  0  0
   -4.1525    6.1407  -16.4158 N   0  0  0  0  0  0  0  0  0  0  0  0
   -5.0099    5.8478  -17.4135 N   0  0  0  0  0  0  0  0  0  0  0  0
   -4.8369    6.3859  -18.7766 C   0  0  0  0  0  0  0  0  0  0  0  0
   -4.9241    5.3336  -19.8779 C   0  0  0  0  0  0  0  0  0  0  0  0
   -3.4431    5.2481  -19.9187 N   0  0  0  0  0  0  0  0  0  0  0  0
   -3.3819    6.5564  -19.2341 C   0  0  0  0  0  0  0  0  0  0  0  0
  2  1  1  1
  2  3  1  0
  2  4  1  0
  4  5  1  0
  5  6  2  0
  6  7  1  0
  7  8  2  0
  8  9  1  0
  9 10  2  0
  2 11  1  0
 11 12  2  0
 12 13  1  0
 13 14  1  0
 13 15  2  0
 15 16  1  0
 16 17  2  0
 17 18  1  0
 18 19  2  0
 19 20  1  0
 20 21  1  0
 21 22  1  0
 22 23  1  0
 23 24  1  0
 10  5  1  0
 17 11  1  0
 24 21  1  0
 20 16  1  0
M  END
>  <smiles>  (2771) 
C41821-P304

>  <fragmenstein_outcome>  (2771) 
acceptable

>  <inchikey>  (2771) 
GOBDQBAJPRAZBR-UHFFFAOYSA-N

>  <fragmenstein_mode>  (2771) 
expansion

>  <HIPPO Pose ID>  (2771) 
30062

>  <Energy>  (2771) 
-133.332708

>  <fragmenstein_error>  (2771) 


>  <tags>  (2771) 
{'openbind_xx01zvns2b_c1_fragmenstein', 'fragmenstein_placed'}

>  <ref_pdb>  (2771) 
175

>  <scratch_subdir>  (2771) 
/opt/xchem-fragalysis-2/maxwin/BulkDock/SCRATCH/511028/C41821-P304

>  <alias>  (2771) 
O[C@@](F)(Nc1ncccn1)c1cc(F)cc2c1cnn2C1CNC1

>  <HIPPO Compound ID>  (2771) 
41821

>  <fragmenstein_runtime>  (2771) 
2.714569

$$$$
CN=C(Nc1ncccn1)c1cc(F)cc2c1cnn2C1CNC1
     RDKit          3D

 24 27  0  0  0  0  0  0  0  0999 V2000
   -6.6109    7.7059  -13.4481 C   0  0  0  0  0  0  0  0  0  0  0  0
   -7.0241    6.4777  -12.8378 N   0  0  0  0  0  0  0  0  0  0  0  0
   -7.3012    5.3765  -13.2372 C   0  0  0  0  0  0  0  0  0  0  0  0
   -7.7909    4.1067  -12.4608 N   0  0  0  0  0  0  0  0  0  0  0  0
   -8.1188    3.9396  -11.1401 C   0  0  0  0  0  0  0  0  0  0  0  0
   -8.5484    2.7231  -10.7841 N   0  0  0  0  0  0  0  0  0  0  0  0
   -8.8132    2.5262   -9.4773 C   0  0  0  0  0  0  0  0  0  0  0  0
   -8.6996    3.5039   -8.5231 C   0  0  0  0  0  0  0  0  0  0  0  0
   -8.2882    4.7238   -8.9900 C   0  0  0  0  0  0  0  0  0  0  0  0
   -7.9949    4.9642  -10.2795 N   0  0  0  0  0  0  0  0  0  0  0  0
   -7.2384    5.0723  -14.7170 C   0  0  0  0  0  0  0  0  0  0  0  0
   -8.3807    4.6006  -15.3806 C   0  0  0  0  0  0  0  0  0  0  0  0
   -8.3618    4.4198  -16.7565 C   0  0  0  0  0  0  0  0  0  0  0  0
   -9.4573    3.9560  -17.3733 F   0  0  0  0  0  0  0  0  0  0  0  0
   -7.2532    4.7577  -17.5287 C   0  0  0  0  0  0  0  0  0  0  0  0
   -6.0980    5.1778  -16.8525 C   0  0  0  0  0  0  0  0  0  0  0  0
   -6.0586    5.2810  -15.4581 C   0  0  0  0  0  0  0  0  0  0  0  0
   -4.7234    5.6270  -15.1642 C   0  0  0  0  0  0  0  0  0  0  0  0
   -3.9911    5.8287  -16.2584 N   0  0  0  0  0  0  0  0  0  0  0  0
   -4.8502    5.5870  -17.2725 N   0  0  0  0  0  0  0  0  0  0  0  0
   -4.5146    6.0703  -18.6202 C   0  0  0  0  0  0  0  0  0  0  0  0
   -5.0044    5.2412  -19.8022 C   0  0  0  0  0  0  0  0  0  0  0  0
   -3.6496    5.3813  -20.4207 N   0  0  0  0  0  0  0  0  0  0  0  0
   -3.1131    5.6172  -19.0627 C   0  0  0  0  0  0  0  0  0  0  0  0
  1  2  1  0
  2  3  2  3
  3  4  1  0
  4  5  1  0
  5  6  2  0
  6  7  1  0
  7  8  2  0
  8  9  1  0
  9 10  2  0
  3 11  1  0
 11 12  2  0
 12 13  1  0
 13 14  1  0
 13 15  2  0
 15 16  1  0
 16 17  2  0
 17 18  1  0
 18 19  2  0
 19 20  1  0
 20 21  1  0
 21 22  1  0
 22 23  1  0
 23 24  1  0
 10  5  1  0
 17 11  1  0
 24 21  1  0
 20 16  1  0
M  END
>  <smiles>  (2772) 
C41823-P304

>  <fragmenstein_outcome>  (2772) 
acceptable

>  <inchikey>  (2772) 
KWCZWUSYBBIDOX-UHFFFAOYSA-N

>  <fragmenstein_mode>  (2772) 
expansion

>  <HIPPO Pose ID>  (2772) 
30064

>  <Energy>  (2772) 
0.999937

>  <fragmenstein_error>  (2772) 


>  <tags>  (2772) 
{'openbind_xx01zvns2b_c1_fragmenstein', 'fragmenstein_placed'}

>  <ref_pdb>  (2772) 
175

>  <scratch_subdir>  (2772) 
/opt/xchem-fragalysis-2/maxwin/BulkDock/SCRATCH/511028/C41823-P304

>  <alias>  (2772) 
CN=C(Nc1ncccn1)c1cc(F)cc2c1cnn2C1CNC1

>  <HIPPO Compound ID>  (2772) 
41823

>  <fragmenstein_runtime>  (2772) 
4.455906

$$$$
O=C(NC1=NC=C2NCCN[C@@H]2N1)c1cc(F)cc2c1cnn2C1CNC1
     RDKit          3D

 27 31  0  0  0  0  0  0  0  0999 V2000
   -7.5166    6.5729  -13.2807 O   0  0  0  0  0  0  0  0  0  0  0  0
   -7.5804    5.4185  -13.4739 C   0  0  0  0  0  0  0  0  0  0  0  0
   -7.8836    4.2445  -12.4920 N   0  0  0  0  0  0  0  0  0  0  0  0
   -8.0654    4.2450  -11.1291 C   0  0  0  0  0  0  0  0  0  0  0  0
   -8.0073    5.3903  -10.5309 N   0  0  0  0  0  0  0  0  0  0  0  0
   -8.1921    5.3876   -9.1757 C   0  0  0  0  0  0  0  0  0  0  0  0
   -8.6331    4.3399   -8.4579 C   0  0  0  0  0  0  0  0  0  0  0  0
   -8.8720    4.4040   -7.0775 N   0  0  0  0  0  0  0  0  0  0  0  0
   -8.9482    3.1871   -6.2713 C   0  0  0  0  0  0  0  0  0  0  0  0
   -9.4438    1.9965   -7.1090 C   0  0  0  0  0  0  0  0  0  0  0  0
   -8.7376    1.8431   -8.3908 N   0  0  0  0  0  0  0  0  0  0  0  0
   -8.9408    3.0311   -9.2182 C   0  0  2  0  0  0  0  0  0  0  0  0
   -8.2819    3.0533  -10.5060 N   0  0  0  0  0  0  0  0  0  0  0  0
   -7.4027    4.9800  -14.8737 C   0  0  0  0  0  0  0  0  0  0  0  0
   -8.4586    4.4036  -15.5864 C   0  0  0  0  0  0  0  0  0  0  0  0
   -8.3537    4.2619  -16.9643 C   0  0  0  0  0  0  0  0  0  0  0  0
   -9.3654    3.7307  -17.6594 F   0  0  0  0  0  0  0  0  0  0  0  0
   -7.2426    4.7028  -17.6763 C   0  0  0  0  0  0  0  0  0  0  0  0
   -6.1762    5.2454  -16.9499 C   0  0  0  0  0  0  0  0  0  0  0  0
   -6.2332    5.3724  -15.5596 C   0  0  0  0  0  0  0  0  0  0  0  0
   -5.0051    5.9697  -15.2059 C   0  0  0  0  0  0  0  0  0  0  0  0
   -4.2277    6.2139  -16.2606 N   0  0  0  0  0  0  0  0  0  0  0  0
   -4.9627    5.7901  -17.3121 N   0  0  0  0  0  0  0  0  0  0  0  0
   -4.5625    6.1942  -18.6689 C   0  0  0  0  0  0  0  0  0  0  0  0
   -4.9664    5.2838  -19.8243 C   0  0  0  0  0  0  0  0  0  0  0  0
   -3.5888    5.4346  -20.3845 N   0  0  0  0  0  0  0  0  0  0  0  0
   -3.1311    5.7450  -19.0087 C   0  0  0  0  0  0  0  0  0  0  0  0
  1  2  2  0
  2  3  1  0
  3  4  1  0
  4  5  2  0
  5  6  1  0
  6  7  2  0
  7  8  1  0
  8  9  1  0
  9 10  1  0
 10 11  1  0
 12 11  1  1
 12 13  1  0
  2 14  1  0
 14 15  2  0
 15 16  1  0
 16 17  1  0
 16 18  2  0
 18 19  1  0
 19 20  2  0
 20 21  1  0
 21 22  2  0
 22 23  1  0
 23 24  1  0
 24 25  1  0
 25 26  1  0
 26 27  1  0
 13  4  1  0
 20 14  1  0
 27 24  1  0
 12  7  1  0
 23 19  1  0
M  END
>  <smiles>  (2773) 
C41824-P304

>  <fragmenstein_outcome>  (2773) 
acceptable

>  <inchikey>  (2773) 
SSWHNAKCQUVWCU-UHFFFAOYSA-N

>  <fragmenstein_mode>  (2773) 
expansion

>  <HIPPO Pose ID>  (2773) 
30065

>  <Energy>  (2773) 
-11.431938

>  <fragmenstein_error>  (2773) 


>  <tags>  (2773) 
{'openbind_xx01zvns2b_c1_fragmenstein', 'fragmenstein_placed'}

>  <ref_pdb>  (2773) 
175

>  <scratch_subdir>  (2773) 
/opt/xchem-fragalysis-2/maxwin/BulkDock/SCRATCH/511028/C41824-P304

>  <alias>  (2773) 
O=C(NC1=NC=C2NCCN[C@@H]2N1)c1cc(F)cc2c1cnn2C1CNC1

>  <HIPPO Compound ID>  (2773) 
41254

>  <fragmenstein_runtime>  (2773) 
4.250504

$$$$
O=C(Nc1ncccn1)c1cc(F)cc2c1c(O)nn2C1CNC1
     RDKit          3D

 24 27  0  0  0  0  0  0  0  0999 V2000
   -7.5115    6.4642  -13.1460 O   0  0  0  0  0  0  0  0  0  0  0  0
   -7.5859    5.3374  -13.4307 C   0  0  0  0  0  0  0  0  0  0  0  0
   -7.8367    4.1052  -12.5548 N   0  0  0  0  0  0  0  0  0  0  0  0
   -8.1296    4.0061  -11.2208 C   0  0  0  0  0  0  0  0  0  0  0  0
   -8.3919    2.7659  -10.7940 N   0  0  0  0  0  0  0  0  0  0  0  0
   -8.6200    2.6210   -9.4748 C   0  0  0  0  0  0  0  0  0  0  0  0
   -8.6131    3.6684   -8.5879 C   0  0  0  0  0  0  0  0  0  0  0  0
   -8.3535    4.8999   -9.1369 C   0  0  0  0  0  0  0  0  0  0  0  0
   -8.1090    5.0970  -10.4448 N   0  0  0  0  0  0  0  0  0  0  0  0
   -7.4574    4.9662  -14.8517 C   0  0  0  0  0  0  0  0  0  0  0  0
   -8.5522    4.4352  -15.5364 C   0  0  0  0  0  0  0  0  0  0  0  0
   -8.4864    4.2759  -16.9092 C   0  0  0  0  0  0  0  0  0  0  0  0
   -9.5367    3.7596  -17.5595 F   0  0  0  0  0  0  0  0  0  0  0  0
   -7.3776    4.6844  -17.6484 C   0  0  0  0  0  0  0  0  0  0  0  0
   -6.2671    5.1849  -16.9507 C   0  0  0  0  0  0  0  0  0  0  0  0
   -6.2811    5.2811  -15.5521 C   0  0  0  0  0  0  0  0  0  0  0  0
   -4.9900    5.7122  -15.2368 C   0  0  0  0  0  0  0  0  0  0  0  0
   -4.4195    5.9162  -14.0534 O   0  0  0  0  0  0  0  0  0  0  0  0
   -4.2067    5.9259  -16.2791 N   0  0  0  0  0  0  0  0  0  0  0  0
   -5.0405    5.7030  -17.3260 N   0  0  0  0  0  0  0  0  0  0  0  0
   -4.6785    6.3145  -18.6085 C   0  0  0  0  0  0  0  0  0  0  0  0
   -3.5082    5.5888  -19.2928 C   0  0  0  0  0  0  0  0  0  0  0  0
   -4.1222    5.9953  -20.5847 N   0  0  0  0  0  0  0  0  0  0  0  0
   -5.4316    5.9394  -19.8803 C   0  0  0  0  0  0  0  0  0  0  0  0
  1  2  2  0
  2  3  1  0
  3  4  1  0
  4  5  2  0
  5  6  1  0
  6  7  2  0
  7  8  1  0
  8  9  2  0
  2 10  1  0
 10 11  2  0
 11 12  1  0
 12 13  1  0
 12 14  2  0
 14 15  1  0
 15 16  2  0
 16 17  1  0
 17 18  1  0
 17 19  2  0
 19 20  1  0
 20 21  1  0
 21 22  1  0
 22 23  1  0
 23 24  1  0
  9  4  1  0
 16 10  1  0
 24 21  1  0
 20 15  1  0
M  END
>  <smiles>  (2774) 
C41825-P304

>  <fragmenstein_outcome>  (2774) 
acceptable

>  <inchikey>  (2774) 
AIJWJVVVNZKHLG-UHFFFAOYSA-N

>  <fragmenstein_mode>  (2774) 
expansion

>  <HIPPO Pose ID>  (2774) 
30066

>  <Energy>  (2774) 
-55.002773

>  <fragmenstein_error>  (2774) 


>  <tags>  (2774) 
{'openbind_xx01zvns2b_c1_fragmenstein', 'fragmenstein_placed'}

>  <ref_pdb>  (2774) 
175

>  <scratch_subdir>  (2774) 
/opt/xchem-fragalysis-2/maxwin/BulkDock/SCRATCH/511028/C41825-P304

>  <alias>  (2774) 
O=C(Nc1ncccn1)c1cc(F)cc2c1c(O)nn2C1CNC1

>  <HIPPO Compound ID>  (2774) 
41825

>  <fragmenstein_runtime>  (2774) 
3.233665

$$$$
COc1nn(C2CNC2)c2cc(F)cc(C(=O)Nc3nccc(C)n3)c12
     RDKit          3D

 26 29  0  0  0  0  0  0  0  0999 V2000
   -3.0190    6.3706  -14.5129 C   0  0  0  0  0  0  0  0  0  0  0  0
   -4.3311    5.8378  -14.4005 O   0  0  0  0  0  0  0  0  0  0  0  0
   -4.9458    5.5991  -15.5799 C   0  0  0  0  0  0  0  0  0  0  0  0
   -4.2663    5.6667  -16.7292 N   0  0  0  0  0  0  0  0  0  0  0  0
   -5.1812    5.3065  -17.6465 N   0  0  0  0  0  0  0  0  0  0  0  0
   -4.9280    5.2165  -19.0866 C   0  0  0  0  0  0  0  0  0  0  0  0
   -3.4693    5.3210  -19.5265 C   0  0  0  0  0  0  0  0  0  0  0  0
   -3.9440    6.1270  -20.6940 N   0  0  0  0  0  0  0  0  0  0  0  0
   -5.0692    6.5630  -19.8114 C   0  0  0  0  0  0  0  0  0  0  0  0
   -6.4003    4.9681  -17.1179 C   0  0  0  0  0  0  0  0  0  0  0  0
   -7.5683    4.4924  -17.7220 C   0  0  0  0  0  0  0  0  0  0  0  0
   -8.6385    4.2062  -16.8894 C   0  0  0  0  0  0  0  0  0  0  0  0
   -9.7586    3.7280  -17.4415 F   0  0  0  0  0  0  0  0  0  0  0  0
   -8.5866    4.4399  -15.5231 C   0  0  0  0  0  0  0  0  0  0  0  0
   -7.4199    4.9538  -14.9371 C   0  0  0  0  0  0  0  0  0  0  0  0
   -7.4412    5.4003  -13.5264 C   0  0  0  0  0  0  0  0  0  0  0  0
   -7.1259    6.5010  -13.3049 O   0  0  0  0  0  0  0  0  0  0  0  0
   -7.9835    4.3090  -12.5864 N   0  0  0  0  0  0  0  0  0  0  0  0
   -8.1555    4.3097  -11.2244 C   0  0  0  0  0  0  0  0  0  0  0  0
   -7.9743    5.4483  -10.5449 N   0  0  0  0  0  0  0  0  0  0  0  0
   -8.1250    5.3785   -9.2129 C   0  0  0  0  0  0  0  0  0  0  0  0
   -8.4529    4.2263   -8.5444 C   0  0  0  0  0  0  0  0  0  0  0  0
   -8.6508    3.1113   -9.3298 C   0  0  0  0  0  0  0  0  0  0  0  0
   -8.9994    1.8025   -8.6899 C   0  0  0  0  0  0  0  0  0  0  0  0
   -8.5010    3.1376  -10.6745 N   0  0  0  0  0  0  0  0  0  0  0  0
   -6.2890    5.1866  -15.7461 C   0  0  0  0  0  0  0  0  0  0  0  0
  1  2  1  0
  2  3  1  0
  3  4  2  0
  4  5  1  0
  5  6  1  0
  6  7  1  0
  7  8  1  0
  8  9  1  0
  5 10  1  0
 10 11  2  0
 11 12  1  0
 12 13  1  0
 12 14  2  0
 14 15  1  0
 15 16  1  0
 16 17  2  0
 16 18  1  0
 18 19  1  0
 19 20  2  0
 20 21  1  0
 21 22  2  0
 22 23  1  0
 23 24  1  0
 23 25  2  0
 15 26  2  0
 26  3  1  0
  9  6  1  0
 26 10  1  0
 25 19  1  0
M  END
>  <smiles>  (2775) 
C41832-P304

>  <fragmenstein_outcome>  (2775) 
acceptable

>  <inchikey>  (2775) 
YRPRITOLENAXMD-UHFFFAOYSA-N

>  <fragmenstein_mode>  (2775) 
expansion

>  <HIPPO Pose ID>  (2775) 
30068

>  <Energy>  (2775) 
-35.753608

>  <fragmenstein_error>  (2775) 


>  <tags>  (2775) 
{'openbind_xx01zvns2b_c1_fragmenstein', 'fragmenstein_placed'}

>  <ref_pdb>  (2775) 
175

>  <scratch_subdir>  (2775) 
/opt/xchem-fragalysis-2/maxwin/BulkDock/SCRATCH/511028/C41832-P304

>  <alias>  (2775) 
COc1nn(C2CNC2)c2cc(F)cc(C(=O)Nc3nccc(C)n3)c12

>  <HIPPO Compound ID>  (2775) 
41832

>  <fragmenstein_runtime>  (2775) 
4.395221

$$$$
Cc1ccnc(NC(=O)c2cc(F)cc3c2cnn3C2CNC2)n1
     RDKit          3D

 24 27  0  0  0  0  0  0  0  0999 V2000
   -9.0233    1.8009   -8.7170 C   0  0  0  0  0  0  0  0  0  0  0  0
   -8.6848    3.1208   -9.3399 C   0  0  0  0  0  0  0  0  0  0  0  0
   -8.4665    4.2162   -8.5323 C   0  0  0  0  0  0  0  0  0  0  0  0
   -8.1524    5.3835   -9.1798 C   0  0  0  0  0  0  0  0  0  0  0  0
   -8.0330    5.4846  -10.5130 N   0  0  0  0  0  0  0  0  0  0  0  0
   -8.2361    4.3637  -11.2165 C   0  0  0  0  0  0  0  0  0  0  0  0
   -8.0756    4.4033  -12.5804 N   0  0  0  0  0  0  0  0  0  0  0  0
   -7.5462    5.5239  -13.4929 C   0  0  0  0  0  0  0  0  0  0  0  0
   -7.2338    6.6196  -13.2421 O   0  0  0  0  0  0  0  0  0  0  0  0
   -7.4322    5.0987  -14.9081 C   0  0  0  0  0  0  0  0  0  0  0  0
   -8.4927    4.4719  -15.5739 C   0  0  0  0  0  0  0  0  0  0  0  0
   -8.3977    4.2116  -16.9353 C   0  0  0  0  0  0  0  0  0  0  0  0
   -9.4303    3.6421  -17.5691 F   0  0  0  0  0  0  0  0  0  0  0  0
   -7.2687    4.5452  -17.6783 C   0  0  0  0  0  0  0  0  0  0  0  0
   -6.2124    5.1627  -16.9974 C   0  0  0  0  0  0  0  0  0  0  0  0
   -6.2729    5.4468  -15.6349 C   0  0  0  0  0  0  0  0  0  0  0  0
   -5.0361    6.0723  -15.3546 C   0  0  0  0  0  0  0  0  0  0  0  0
   -4.2425    6.1633  -16.4220 N   0  0  0  0  0  0  0  0  0  0  0  0
   -4.9756    5.6060  -17.4035 N   0  0  0  0  0  0  0  0  0  0  0  0
   -4.4147    5.3318  -18.7232 C   0  0  0  0  0  0  0  0  0  0  0  0
   -5.2025    5.9467  -19.8879 C   0  0  0  0  0  0  0  0  0  0  0  0
   -3.8793    6.1895  -20.5450 N   0  0  0  0  0  0  0  0  0  0  0  0
   -3.3093    6.3007  -19.1755 C   0  0  0  0  0  0  0  0  0  0  0  0
   -8.5646    3.1774  -10.6879 N   0  0  0  0  0  0  0  0  0  0  0  0
  1  2  1  0
  2  3  2  0
  3  4  1  0
  4  5  2  0
  5  6  1  0
  6  7  1  0
  7  8  1  0
  8  9  2  0
  8 10  1  0
 10 11  2  0
 11 12  1  0
 12 13  1  0
 12 14  2  0
 14 15  1  0
 15 16  2  0
 16 17  1  0
 17 18  2  0
 18 19  1  0
 19 20  1  0
 20 21  1  0
 21 22  1  0
 22 23  1  0
  6 24  2  0
 24  2  1  0
 16 10  1  0
 23 20  1  0
 19 15  1  0
M  END
>  <smiles>  (2776) 
C41840-P304

>  <fragmenstein_outcome>  (2776) 
acceptable

>  <inchikey>  (2776) 
GYGDBOJGLNZBTI-UHFFFAOYSA-N

>  <fragmenstein_mode>  (2776) 
expansion

>  <HIPPO Pose ID>  (2776) 
30075

>  <Energy>  (2776) 
-26.492516

>  <fragmenstein_error>  (2776) 


>  <tags>  (2776) 
{'openbind_xx01zvns2b_c1_fragmenstein', 'fragmenstein_placed'}

>  <ref_pdb>  (2776) 
175

>  <scratch_subdir>  (2776) 
/opt/xchem-fragalysis-2/maxwin/BulkDock/SCRATCH/511028/C41840-P304

>  <alias>  (2776) 
Cc1ccnc(NC(=O)c2cc(F)cc3c2cnn3C2CNC2)n1

>  <HIPPO Compound ID>  (2776) 
41840

>  <fragmenstein_runtime>  (2776) 
3.52524

$$$$
Cc1cc(ON=C(Nc2ncccn2)c2cc(F)cc3c2cnn3C2CNC2)n2ncnc2n1
     RDKit          3D

 34 39  0  0  0  0  0  0  0  0999 V2000
   -6.2326   11.3788  -13.1516 C   0  0  0  0  0  0  0  0  0  0  0  0
   -6.2227   10.2943  -12.1024 C   0  0  0  0  0  0  0  0  0  0  0  0
   -6.6030    8.9221  -12.5425 C   0  0  0  0  0  0  0  0  0  0  0  0
   -6.5868    7.9544  -11.6046 C   0  0  0  0  0  0  0  0  0  0  0  0
   -6.9315    6.6288  -11.8400 O   0  0  0  0  0  0  0  0  0  0  0  0
   -6.9516    6.3654  -13.2014 N   0  0  0  0  0  0  0  0  0  0  0  0
   -7.3958    5.2730  -13.5372 C   0  0  0  0  0  0  0  0  0  0  0  0
   -8.0919    4.1274  -12.6738 N   0  0  0  0  0  0  0  0  0  0  0  0
   -8.2943    4.0260  -11.3139 C   0  0  0  0  0  0  0  0  0  0  0  0
   -8.5290    2.7784  -10.8817 N   0  0  0  0  0  0  0  0  0  0  0  0
   -8.6741    2.5913   -9.5539 C   0  0  0  0  0  0  0  0  0  0  0  0
   -8.6238    3.6072   -8.6380 C   0  0  0  0  0  0  0  0  0  0  0  0
   -8.4291    4.8510   -9.1735 C   0  0  0  0  0  0  0  0  0  0  0  0
   -8.2871    5.0800  -10.4928 N   0  0  0  0  0  0  0  0  0  0  0  0
   -7.2874    4.9737  -15.0012 C   0  0  0  0  0  0  0  0  0  0  0  0
   -8.3588    4.4353  -15.7280 C   0  0  0  0  0  0  0  0  0  0  0  0
   -8.2671    4.3439  -17.1131 C   0  0  0  0  0  0  0  0  0  0  0  0
   -9.2769    3.8484  -17.8349 F   0  0  0  0  0  0  0  0  0  0  0  0
   -7.1638    4.8052  -17.8154 C   0  0  0  0  0  0  0  0  0  0  0  0
   -6.0841    5.2927  -17.0777 C   0  0  0  0  0  0  0  0  0  0  0  0
   -6.1120    5.3578  -15.6874 C   0  0  0  0  0  0  0  0  0  0  0  0
   -4.8440    5.8747  -15.3385 C   0  0  0  0  0  0  0  0  0  0  0  0
   -4.0970    6.1805  -16.4010 N   0  0  0  0  0  0  0  0  0  0  0  0
   -4.8751    5.8375  -17.4497 N   0  0  0  0  0  0  0  0  0  0  0  0
   -4.6294    6.3767  -18.8022 C   0  0  0  0  0  0  0  0  0  0  0  0
   -4.7226    5.3519  -19.9267 C   0  0  0  0  0  0  0  0  0  0  0  0
   -3.2484    5.2260  -19.9503 N   0  0  0  0  0  0  0  0  0  0  0  0
   -3.1520    6.4922  -19.1970 C   0  0  0  0  0  0  0  0  0  0  0  0
   -6.2290    8.3013  -10.2939 N   0  0  0  0  0  0  0  0  0  0  0  0
   -6.1271    7.5344   -9.1712 N   0  0  0  0  0  0  0  0  0  0  0  0
   -5.7418    8.4186   -8.2563 C   0  0  0  0  0  0  0  0  0  0  0  0
   -5.5854    9.6955   -8.6868 N   0  0  0  0  0  0  0  0  0  0  0  0
   -5.8864    9.6254   -9.9659 C   0  0  0  0  0  0  0  0  0  0  0  0
   -5.8872   10.6269  -10.8928 N   0  0  0  0  0  0  0  0  0  0  0  0
  1  2  1  0
  2  3  1  0
  3  4  2  0
  4  5  1  0
  5  6  1  0
  6  7  2  3
  7  8  1  0
  8  9  1  0
  9 10  2  0
 10 11  1  0
 11 12  2  0
 12 13  1  0
 13 14  2  0
  7 15  1  0
 15 16  2  0
 16 17  1  0
 17 18  1  0
 17 19  2  0
 19 20  1  0
 20 21  2  0
 21 22  1  0
 22 23  2  0
 23 24  1  0
 24 25  1  0
 25 26  1  0
 26 27  1  0
 27 28  1  0
  4 29  1  0
 29 30  1  0
 30 31  2  0
 31 32  1  0
 32 33  2  0
 33 34  1  0
 34  2  2  0
 14  9  1  0
 21 15  1  0
 28 25  1  0
 33 29  1  0
 24 20  1  0
M  END
>  <smiles>  (2777) 
C41847-P304

>  <fragmenstein_outcome>  (2777) 
acceptable

>  <inchikey>  (2777) 
UAGVNDIABRZKNV-UHFFFAOYSA-N

>  <fragmenstein_mode>  (2777) 
expansion

>  <HIPPO Pose ID>  (2777) 
30082

>  <Energy>  (2777) 
41.823819

>  <fragmenstein_error>  (2777) 


>  <tags>  (2777) 
{'openbind_xx01zvns2b_c1_fragmenstein', 'fragmenstein_placed'}

>  <ref_pdb>  (2777) 
175

>  <scratch_subdir>  (2777) 
/opt/xchem-fragalysis-2/maxwin/BulkDock/SCRATCH/511028/C41847-P304

>  <alias>  (2777) 
Cc1cc(ON=C(Nc2ncccn2)c2cc(F)cc3c2cnn3C2CNC2)n2ncnc2n1

>  <HIPPO Compound ID>  (2777) 
42437

>  <fragmenstein_runtime>  (2777) 
4.53508

$$$$
Cc1nn(C2CNC2)c2cc(F)cc(C(=O)C(=O)c3ncccn3)c12
     RDKit          3D

 25 28  0  0  0  0  0  0  0  0999 V2000
   -4.1453    5.9167  -13.9706 C   0  0  0  0  0  0  0  0  0  0  0  0
   -4.8567    5.7621  -15.2657 C   0  0  0  0  0  0  0  0  0  0  0  0
   -4.2213    6.0977  -16.3959 N   0  0  0  0  0  0  0  0  0  0  0  0
   -5.1021    5.8177  -17.3694 N   0  0  0  0  0  0  0  0  0  0  0  0
   -4.9533    6.3515  -18.7378 C   0  0  0  0  0  0  0  0  0  0  0  0
   -5.0199    5.2878  -19.8287 C   0  0  0  0  0  0  0  0  0  0  0  0
   -3.5365    5.2365  -19.8712 N   0  0  0  0  0  0  0  0  0  0  0  0
   -3.5073    6.5587  -19.2108 C   0  0  0  0  0  0  0  0  0  0  0  0
   -6.2799    5.2776  -16.9085 C   0  0  0  0  0  0  0  0  0  0  0  0
   -7.4175    4.8155  -17.5824 C   0  0  0  0  0  0  0  0  0  0  0  0
   -8.4729    4.3511  -16.8137 C   0  0  0  0  0  0  0  0  0  0  0  0
   -9.5606    3.8842  -17.4392 F   0  0  0  0  0  0  0  0  0  0  0  0
   -8.4431    4.4051  -15.4295 C   0  0  0  0  0  0  0  0  0  0  0  0
   -7.3029    4.8738  -14.7556 C   0  0  0  0  0  0  0  0  0  0  0  0
   -7.3043    4.9852  -13.2769 C   0  0  0  0  0  0  0  0  0  0  0  0
   -6.8274    5.9836  -12.7570 O   0  0  0  0  0  0  0  0  0  0  0  0
   -7.8611    3.8437  -12.4544 C   0  0  0  0  0  0  0  0  0  0  0  0
   -7.9934    2.7614  -13.0164 O   0  0  0  0  0  0  0  0  0  0  0  0
   -8.1791    3.9885  -11.0190 C   0  0  0  0  0  0  0  0  0  0  0  0
   -8.4456    2.8312  -10.3819 N   0  0  0  0  0  0  0  0  0  0  0  0
   -8.6411    2.8974   -9.0576 C   0  0  0  0  0  0  0  0  0  0  0  0
   -8.6032    4.0799   -8.3615 C   0  0  0  0  0  0  0  0  0  0  0  0
   -8.3592    5.2103   -9.1111 C   0  0  0  0  0  0  0  0  0  0  0  0
   -8.1484    5.2021  -10.4417 N   0  0  0  0  0  0  0  0  0  0  0  0
   -6.1818    5.2938  -15.5141 C   0  0  0  0  0  0  0  0  0  0  0  0
  1  2  1  0
  2  3  2  0
  3  4  1  0
  4  5  1  0
  5  6  1  0
  6  7  1  0
  7  8  1  0
  4  9  1  0
  9 10  2  0
 10 11  1  0
 11 12  1  0
 11 13  2  0
 13 14  1  0
 14 15  1  0
 15 16  2  0
 15 17  1  0
 17 18  2  0
 17 19  1  0
 19 20  2  0
 20 21  1  0
 21 22  2  0
 22 23  1  0
 23 24  2  0
 14 25  2  0
 25  2  1  0
  8  5  1  0
 25  9  1  0
 24 19  1  0
M  END
>  <smiles>  (2778) 
C41860-P304

>  <fragmenstein_outcome>  (2778) 
acceptable

>  <inchikey>  (2778) 
PXHWXOCJQMWGSW-UHFFFAOYSA-N

>  <fragmenstein_mode>  (2778) 
expansion

>  <HIPPO Pose ID>  (2778) 
30086

>  <Energy>  (2778) 
108.011631

>  <fragmenstein_error>  (2778) 


>  <tags>  (2778) 
{'openbind_xx01zvns2b_c1_fragmenstein', 'fragmenstein_placed'}

>  <ref_pdb>  (2778) 
175

>  <scratch_subdir>  (2778) 
/opt/xchem-fragalysis-2/maxwin/BulkDock/SCRATCH/511028/C41860-P304

>  <alias>  (2778) 
Cc1nn(C2CNC2)c2cc(F)cc(C(=O)C(=O)c3ncccn3)c12

>  <HIPPO Compound ID>  (2778) 
30445

>  <fragmenstein_runtime>  (2778) 
2.296256

$$$$
Cc1c(C(=O)Nc2nccc(CN)n2)cc(F)c2c1nnn2C(=O)[C@@]1(Cc2ccccc2)CCN1
     RDKit          3D

 35 39  0  0  0  0  0  0  0  0999 V2000
   -5.7956    5.4901  -13.4059 C   0  0  0  0  0  0  0  0  0  0  0  0
   -6.5228    5.0906  -14.6540 C   0  0  0  0  0  0  0  0  0  0  0  0
   -7.8977    4.7818  -14.7123 C   0  0  0  0  0  0  0  0  0  0  0  0
   -8.6354    5.1132  -13.4884 C   0  0  0  0  0  0  0  0  0  0  0  0
   -9.3296    6.0476  -13.4875 O   0  0  0  0  0  0  0  0  0  0  0  0
   -8.2504    4.1613  -12.3541 N   0  0  0  0  0  0  0  0  0  0  0  0
   -8.5432    4.2041  -11.0251 C   0  0  0  0  0  0  0  0  0  0  0  0
   -8.5686    5.4234  -10.4649 N   0  0  0  0  0  0  0  0  0  0  0  0
   -8.6206    5.4581   -9.1292 C   0  0  0  0  0  0  0  0  0  0  0  0
   -8.7071    4.3312   -8.3567 C   0  0  0  0  0  0  0  0  0  0  0  0
   -8.7000    3.1204   -9.0272 C   0  0  0  0  0  0  0  0  0  0  0  0
   -8.9613    1.8203   -8.3031 C   0  0  0  0  0  0  0  0  0  0  0  0
   -8.9999    1.9614   -6.8426 N   0  0  0  0  0  0  0  0  0  0  0  0
   -8.5312    3.0472  -10.3652 N   0  0  0  0  0  0  0  0  0  0  0  0
   -8.5506    4.4617  -15.9030 C   0  0  0  0  0  0  0  0  0  0  0  0
   -7.8431    4.4584  -17.1080 C   0  0  0  0  0  0  0  0  0  0  0  0
   -8.5133    4.2050  -18.2395 F   0  0  0  0  0  0  0  0  0  0  0  0
   -6.4863    4.8093  -17.0631 C   0  0  0  0  0  0  0  0  0  0  0  0
   -5.8478    5.0931  -15.8644 C   0  0  0  0  0  0  0  0  0  0  0  0
   -4.5464    5.4243  -16.0552 N   0  0  0  0  0  0  0  0  0  0  0  0
   -4.3320    5.4302  -17.3414 N   0  0  0  0  0  0  0  0  0  0  0  0
   -5.4811    5.0782  -17.9664 N   0  0  0  0  0  0  0  0  0  0  0  0
   -5.4603    5.0895  -19.3481 C   0  0  0  0  0  0  0  0  0  0  0  0
   -6.1835    4.2569  -19.8774 O   0  0  0  0  0  0  0  0  0  0  0  0
   -4.4241    6.1682  -20.0253 C   0  0  1  0  0  0  0  0  0  0  0  0
   -3.1183    5.5155  -20.4996 C   0  0  0  0  0  0  0  0  0  0  0  0
   -1.8479    6.0769  -19.9055 C   0  0  0  0  0  0  0  0  0  0  0  0
   -1.3155    5.5685  -18.7163 C   0  0  0  0  0  0  0  0  0  0  0  0
   -0.1454    6.1072  -18.1761 C   0  0  0  0  0  0  0  0  0  0  0  0
    0.5087    7.1541  -18.8216 C   0  0  0  0  0  0  0  0  0  0  0  0
   -0.0094    7.6681  -20.0070 C   0  0  0  0  0  0  0  0  0  0  0  0
   -1.1814    7.1344  -20.5450 C   0  0  0  0  0  0  0  0  0  0  0  0
   -5.1073    7.0944  -21.0946 C   0  0  0  0  0  0  0  0  0  0  0  0
   -5.3709    8.0386  -19.9083 C   0  0  0  0  0  0  0  0  0  0  0  0
   -4.1930    7.4666  -19.2637 N   0  0  0  0  0  0  0  0  0  0  0  0
  1  2  1  0
  2  3  2  0
  3  4  1  0
  4  5  2  0
  4  6  1  0
  6  7  1  0
  7  8  2  0
  8  9  1  0
  9 10  2  0
 10 11  1  0
 11 12  1  0
 12 13  1  0
 11 14  2  0
  3 15  1  0
 15 16  2  0
 16 17  1  0
 16 18  1  0
 18 19  2  0
 19 20  1  0
 20 21  2  0
 21 22  1  0
 22 23  1  0
 23 24  2  0
 23 25  1  0
 25 26  1  6
 26 27  1  0
 27 28  2  0
 28 29  1  0
 29 30  2  0
 30 31  1  0
 31 32  2  0
 25 33  1  0
 33 34  1  0
 34 35  1  0
 19  2  1  0
 35 25  1  0
 14  7  1  0
 22 18  1  0
 32 27  1  0
M  END
>  <smiles>  (2779) 
C41877-P304

>  <fragmenstein_outcome>  (2779) 
acceptable

>  <inchikey>  (2779) 
KUMIAZYEJZXZKQ-UHFFFAOYSA-N

>  <fragmenstein_mode>  (2779) 
expansion

>  <HIPPO Pose ID>  (2779) 
30095

>  <Energy>  (2779) 
79.466976

>  <fragmenstein_error>  (2779) 


>  <tags>  (2779) 
{'openbind_xx01zvns2b_c1_fragmenstein', 'fragmenstein_placed'}

>  <ref_pdb>  (2779) 
175

>  <scratch_subdir>  (2779) 
/opt/xchem-fragalysis-2/maxwin/BulkDock/SCRATCH/511028/C41877-P304

>  <alias>  (2779) 
Cc1c(C(=O)Nc2nccc(CN)n2)cc(F)c2c1nnn2C(=O)[C@@]1(Cc2ccccc2)CCN1

>  <HIPPO Compound ID>  (2779) 
42624

>  <fragmenstein_runtime>  (2779) 
7.838643

$$$$
CNC(=O)[C@@](O)(N[C@H]1NC[C@@]2(CCOC2=O)CN1)c1cc(F)cc2c1cnn2C1CNC1
     RDKit          3D

 32 36  0  0  0  0  0  0  0  0999 V2000
   -7.7393    8.7690  -12.1905 C   0  0  0  0  0  0  0  0  0  0  0  0
   -7.4069    7.4483  -12.6248 N   0  0  0  0  0  0  0  0  0  0  0  0
   -8.3155    6.3037  -13.1758 C   0  0  0  0  0  0  0  0  0  0  0  0
   -9.4613    6.2981  -13.4289 O   0  0  0  0  0  0  0  0  0  0  0  0
   -7.3186    5.0495  -13.4145 C   0  0  1  0  0  0  0  0  0  0  0  0
   -6.0380    5.2253  -12.8354 O   0  0  0  0  0  0  0  0  0  0  0  0
   -7.8739    3.8174  -12.8979 N   0  0  0  0  0  0  0  0  0  0  0  0
   -8.1187    3.6261  -11.5084 C   0  0  1  0  0  0  0  0  0  0  0  0
   -6.8921    3.2101  -10.8983 N   0  0  0  0  0  0  0  0  0  0  0  0
   -7.0846    2.8597   -9.4610 C   0  0  0  0  0  0  0  0  0  0  0  0
   -8.2782    3.5358   -8.7702 C   0  0  2  0  0  0  0  0  0  0  0  0
   -8.1688    3.7835   -7.2627 C   0  0  0  0  0  0  0  0  0  0  0  0
   -8.8953    2.6315   -6.6192 C   0  0  0  0  0  0  0  0  0  0  0  0
   -9.8825    2.2538   -7.5564 O   0  0  0  0  0  0  0  0  0  0  0  0
   -9.4491    2.5789   -8.8004 C   0  0  0  0  0  0  0  0  0  0  0  0
   -9.9556    2.1117   -9.8035 O   0  0  0  0  0  0  0  0  0  0  0  0
   -8.4900    4.8754   -9.4576 C   0  0  0  0  0  0  0  0  0  0  0  0
   -8.5134    4.8587  -10.9102 N   0  0  0  0  0  0  0  0  0  0  0  0
   -7.1897    4.9319  -14.9427 C   0  0  0  0  0  0  0  0  0  0  0  0
   -8.2746    4.3904  -15.6859 C   0  0  0  0  0  0  0  0  0  0  0  0
   -8.2641    4.3246  -17.0675 C   0  0  0  0  0  0  0  0  0  0  0  0
   -9.3076    3.7808  -17.7115 F   0  0  0  0  0  0  0  0  0  0  0  0
   -7.2011    4.8323  -17.7982 C   0  0  0  0  0  0  0  0  0  0  0  0
   -6.1143    5.3670  -17.0882 C   0  0  0  0  0  0  0  0  0  0  0  0
   -6.0903    5.4124  -15.6914 C   0  0  0  0  0  0  0  0  0  0  0  0
   -4.8525    6.0205  -15.3805 C   0  0  0  0  0  0  0  0  0  0  0  0
   -4.1588    6.3724  -16.4604 N   0  0  0  0  0  0  0  0  0  0  0  0
   -4.9237    5.9385  -17.4825 N   0  0  0  0  0  0  0  0  0  0  0  0
   -4.5505    6.3133  -18.8505 C   0  0  0  0  0  0  0  0  0  0  0  0
   -4.9298    5.3398  -19.9577 C   0  0  0  0  0  0  0  0  0  0  0  0
   -3.5626    5.5110  -20.5393 N   0  0  0  0  0  0  0  0  0  0  0  0
   -3.1053    5.9026  -19.1851 C   0  0  0  0  0  0  0  0  0  0  0  0
  1  2  1  0
  2  3  1  0
  3  4  2  0
  3  5  1  0
  5  6  1  1
  5  7  1  0
  8  7  1  6
  8  9  1  0
  9 10  1  0
 11 10  1  6
 11 12  1  0
 12 13  1  0
 13 14  1  0
 14 15  1  0
 15 16  2  0
 11 17  1  0
 17 18  1  0
  5 19  1  0
 19 20  2  0
 20 21  1  0
 21 22  1  0
 21 23  2  0
 23 24  1  0
 24 25  2  0
 25 26  1  0
 26 27  2  0
 27 28  1  0
 28 29  1  0
 29 30  1  0
 30 31  1  0
 31 32  1  0
 18  8  1  0
 25 19  1  0
 32 29  1  0
 15 11  1  0
 28 24  1  0
M  END
>  <smiles>  (2780) 
C41887-P304

>  <fragmenstein_outcome>  (2780) 
acceptable

>  <inchikey>  (2780) 
YZHYFSVMHGIKTO-UHFFFAOYSA-N

>  <fragmenstein_mode>  (2780) 
expansion

>  <HIPPO Pose ID>  (2780) 
30103

>  <Energy>  (2780) 
-87.244231

>  <fragmenstein_error>  (2780) 


>  <tags>  (2780) 
{'openbind_xx01zvns2b_c1_fragmenstein', 'fragmenstein_placed'}

>  <ref_pdb>  (2780) 
175

>  <scratch_subdir>  (2780) 
/opt/xchem-fragalysis-2/maxwin/BulkDock/SCRATCH/511028/C41887-P304

>  <alias>  (2780) 
CNC(=O)[C@@](O)(N[C@H]1NC[C@@]2(CCOC2=O)CN1)c1cc(F)cc2c1cnn2C1CNC1

>  <HIPPO Compound ID>  (2780) 
175

>  <fragmenstein_runtime>  (2780) 
9.123717

$$$$
N#C[C@@H](N[C@H]1NC[C@]2(CCNC2)CN1)c1cc(F)cc2c1cnn2C1CNC1
     RDKit          3D

 28 32  0  0  0  0  0  0  0  0999 V2000
   -9.5008    6.9380  -13.0986 N   0  0  0  0  0  0  0  0  0  0  0  0
   -8.6393    6.1689  -13.2315 C   0  0  0  0  0  0  0  0  0  0  0  0
   -7.5495    5.1837  -13.4674 C   0  0  1  0  0  0  0  0  0  0  0  0
   -7.6962    3.9013  -12.7806 N   0  0  0  0  0  0  0  0  0  0  0  0
   -7.4596    4.0049  -11.3813 C   0  0  2  0  0  0  0  0  0  0  0  0
   -7.4591    2.6597  -10.9251 N   0  0  0  0  0  0  0  0  0  0  0  0
   -7.2593    2.5951   -9.4637 C   0  0  0  0  0  0  0  0  0  0  0  0
   -8.4378    3.2992   -8.7740 C   0  0  2  0  0  0  0  0  0  0  0  0
   -8.4310    3.4015   -7.2492 C   0  0  0  0  0  0  0  0  0  0  0  0
   -9.0377    2.0966   -6.7506 C   0  0  0  0  0  0  0  0  0  0  0  0
   -9.6292    1.4173   -7.9036 N   0  0  0  0  0  0  0  0  0  0  0  0
   -9.6655    2.4188   -8.9727 C   0  0  0  0  0  0  0  0  0  0  0  0
   -8.4914    4.7101   -9.3671 C   0  0  0  0  0  0  0  0  0  0  0  0
   -8.5862    4.6686  -10.8192 N   0  0  0  0  0  0  0  0  0  0  0  0
   -7.3983    4.9598  -14.9642 C   0  0  0  0  0  0  0  0  0  0  0  0
   -8.4499    4.3860  -15.7128 C   0  0  0  0  0  0  0  0  0  0  0  0
   -8.3798    4.2746  -17.0911 C   0  0  0  0  0  0  0  0  0  0  0  0
   -9.4053    3.7220  -17.7521 F   0  0  0  0  0  0  0  0  0  0  0  0
   -7.2871    4.7520  -17.8030 C   0  0  0  0  0  0  0  0  0  0  0  0
   -6.2175    5.2907  -17.0720 C   0  0  0  0  0  0  0  0  0  0  0  0
   -6.2496    5.3745  -15.6786 C   0  0  0  0  0  0  0  0  0  0  0  0
   -5.0075    5.9488  -15.3274 C   0  0  0  0  0  0  0  0  0  0  0  0
   -4.2633    6.2575  -16.3849 N   0  0  0  0  0  0  0  0  0  0  0  0
   -5.0061    5.8425  -17.4336 N   0  0  0  0  0  0  0  0  0  0  0  0
   -4.6013    6.2441  -18.7857 C   0  0  0  0  0  0  0  0  0  0  0  0
   -4.9721    5.3067  -19.9260 C   0  0  0  0  0  0  0  0  0  0  0  0
   -3.5911    5.4729  -20.4747 N   0  0  0  0  0  0  0  0  0  0  0  0
   -3.1552    5.8247  -19.1034 C   0  0  0  0  0  0  0  0  0  0  0  0
  1  2  3  0
  3  2  1  6
  3  4  1  0
  5  4  1  6
  5  6  1  0
  6  7  1  0
  8  7  1  6
  8  9  1  0
  9 10  1  0
 10 11  1  0
 11 12  1  0
  8 13  1  0
 13 14  1  0
  3 15  1  0
 15 16  2  0
 16 17  1  0
 17 18  1  0
 17 19  2  0
 19 20  1  0
 20 21  2  0
 21 22  1  0
 22 23  2  0
 23 24  1  0
 24 25  1  0
 25 26  1  0
 26 27  1  0
 27 28  1  0
 14  5  1  0
 21 15  1  0
 28 25  1  0
 12  8  1  0
 24 20  1  0
M  END
>  <smiles>  (2781) 
C41889-P304

>  <fragmenstein_outcome>  (2781) 
acceptable

>  <inchikey>  (2781) 
GSSPTOQYSYAQHK-UHFFFAOYSA-N

>  <fragmenstein_mode>  (2781) 
expansion

>  <HIPPO Pose ID>  (2781) 
30104

>  <Energy>  (2781) 
-96.381156

>  <fragmenstein_error>  (2781) 


>  <tags>  (2781) 
{'openbind_xx01zvns2b_c1_fragmenstein', 'fragmenstein_placed'}

>  <ref_pdb>  (2781) 
175

>  <scratch_subdir>  (2781) 
/opt/xchem-fragalysis-2/maxwin/BulkDock/SCRATCH/511028/C41889-P304

>  <alias>  (2781) 
N#C[C@@H](N[C@H]1NC[C@]2(CCNC2)CN1)c1cc(F)cc2c1cnn2C1CNC1

>  <HIPPO Compound ID>  (2781) 
41889

>  <fragmenstein_runtime>  (2781) 
7.616811

$$$$
O=C(N[C@H]1NCC2=CN=C[C@H]2N1)c1cc(F)c2c3c1cnn3C1(CNC1)C(=O)N2
     RDKit          3D

 29 34  0  0  0  0  0  0  0  0999 V2000
   -6.0292    5.9296  -12.8055 O   0  0  0  0  0  0  0  0  0  0  0  0
   -6.8583    5.1578  -13.0803 C   0  0  0  0  0  0  0  0  0  0  0  0
   -7.6427    4.1775  -12.1909 N   0  0  0  0  0  0  0  0  0  0  0  0
   -7.6409    4.0095  -10.7994 C   0  0  1  0  0  0  0  0  0  0  0  0
   -8.2557    5.1786  -10.2364 N   0  0  0  0  0  0  0  0  0  0  0  0
   -8.0654    5.1621   -8.7808 C   0  0  0  0  0  0  0  0  0  0  0  0
   -8.5293    3.8641   -8.2519 C   0  0  0  0  0  0  0  0  0  0  0  0
   -9.3266    3.5572   -7.2281 C   0  0  0  0  0  0  0  0  0  0  0  0
   -9.7557    2.2580   -7.2561 N   0  0  0  0  0  0  0  0  0  0  0  0
   -9.2053    1.7627   -8.3286 C   0  0  0  0  0  0  0  0  0  0  0  0
   -8.2313    2.6470   -9.0541 C   0  0  1  0  0  0  0  0  0  0  0  0
   -8.4843    2.8891  -10.4814 N   0  0  0  0  0  0  0  0  0  0  0  0
   -7.1558    5.0086  -14.5343 C   0  0  0  0  0  0  0  0  0  0  0  0
   -8.4018    4.5847  -15.0569 C   0  0  0  0  0  0  0  0  0  0  0  0
   -8.5717    4.3782  -16.4272 C   0  0  0  0  0  0  0  0  0  0  0  0
   -9.7435    3.9400  -16.9126 F   0  0  0  0  0  0  0  0  0  0  0  0
   -7.5257    4.6021  -17.3035 C   0  0  0  0  0  0  0  0  0  0  0  0
   -6.3489    5.0857  -16.7868 C   0  0  0  0  0  0  0  0  0  0  0  0
   -6.1131    5.3002  -15.4494 C   0  0  0  0  0  0  0  0  0  0  0  0
   -4.7641    5.7480  -15.4393 C   0  0  0  0  0  0  0  0  0  0  0  0
   -4.2164    5.8172  -16.6654 N   0  0  0  0  0  0  0  0  0  0  0  0
   -5.2080    5.3709  -17.4625 N   0  0  0  0  0  0  0  0  0  0  0  0
   -5.1929    5.1847  -18.9380 C   0  0  0  0  0  0  0  0  0  0  0  0
   -5.0809    6.5385  -19.6741 C   0  0  0  0  0  0  0  0  0  0  0  0
   -3.6066    6.4052  -19.6983 N   0  0  0  0  0  0  0  0  0  0  0  0
   -3.7639    4.9544  -19.4779 C   0  0  0  0  0  0  0  0  0  0  0  0
   -6.4095    4.2485  -19.4196 C   0  0  0  0  0  0  0  0  0  0  0  0
   -6.4559    3.4658  -20.3715 O   0  0  0  0  0  0  0  0  0  0  0  0
   -7.5558    4.2722  -18.6439 N   0  0  0  0  0  0  0  0  0  0  0  0
  1  2  2  0
  2  3  1  0
  4  3  1  6
  4  5  1  0
  5  6  1  0
  6  7  1  0
  7  8  2  0
  8  9  1  0
  9 10  2  0
 10 11  1  0
 11 12  1  6
  2 13  1  0
 13 14  2  0
 14 15  1  0
 15 16  1  0
 15 17  2  0
 17 18  1  0
 18 19  2  0
 19 20  1  0
 20 21  2  0
 21 22  1  0
 22 23  1  0
 23 24  1  0
 24 25  1  0
 25 26  1  0
 23 27  1  0
 27 28  2  0
 27 29  1  0
 12  4  1  0
 19 13  1  0
 26 23  1  0
 11  7  1  0
 29 17  1  0
 22 18  1  0
M  END
>  <smiles>  (2782) 
C41896-P304

>  <fragmenstein_outcome>  (2782) 
acceptable

>  <inchikey>  (2782) 
JDNIFNVGDROTPG-UHFFFAOYSA-N

>  <fragmenstein_mode>  (2782) 
expansion

>  <HIPPO Pose ID>  (2782) 
30106

>  <Energy>  (2782) 
-156.346012

>  <fragmenstein_error>  (2782) 


>  <tags>  (2782) 
{'openbind_xx01zvns2b_c1_fragmenstein', 'fragmenstein_placed'}

>  <ref_pdb>  (2782) 
175

>  <scratch_subdir>  (2782) 
/opt/xchem-fragalysis-2/maxwin/BulkDock/SCRATCH/511028/C41896-P304

>  <alias>  (2782) 
O=C(N[C@H]1NCC2=CN=C[C@H]2N1)c1cc(F)c2c3c1cnn3C1(CNC1)C(=O)N2

>  <HIPPO Compound ID>  (2782) 
41896

>  <fragmenstein_runtime>  (2782) 
5.939015

$$$$
N#CN1CC2=CN=C[C@H]2N[C@@H]1NC(=O)c1cc(F)cc2c1cnn2C1CNC1
     RDKit          3D

 28 32  0  0  0  0  0  0  0  0999 V2000
   -5.1082    6.2878  -11.3000 N   0  0  0  0  0  0  0  0  0  0  0  0
   -5.9937    5.7068  -10.8305 C   0  0  0  0  0  0  0  0  0  0  0  0
   -6.9985    5.0375  -10.2516 N   0  0  0  0  0  0  0  0  0  0  0  0
   -7.2483    5.1806   -8.7928 C   0  0  0  0  0  0  0  0  0  0  0  0
   -8.0687    4.0382   -8.3661 C   0  0  0  0  0  0  0  0  0  0  0  0
   -8.8696    3.8625   -7.3144 C   0  0  0  0  0  0  0  0  0  0  0  0
   -9.5610    2.6837   -7.3601 N   0  0  0  0  0  0  0  0  0  0  0  0
   -9.1598    2.1163   -8.4621 C   0  0  0  0  0  0  0  0  0  0  0  0
   -8.1486    2.8775   -9.2880 C   0  0  1  0  0  0  0  0  0  0  0  0
   -8.6429    3.2704  -10.6069 N   0  0  0  0  0  0  0  0  0  0  0  0
   -8.2077    4.6009  -10.9583 C   0  0  2  0  0  0  0  0  0  0  0  0
   -8.0428    4.5643  -12.3633 N   0  0  0  0  0  0  0  0  0  0  0  0
   -7.9865    5.6993  -13.3876 C   0  0  0  0  0  0  0  0  0  0  0  0
   -8.1429    6.8439  -13.2543 O   0  0  0  0  0  0  0  0  0  0  0  0
   -7.7005    5.2215  -14.7589 C   0  0  0  0  0  0  0  0  0  0  0  0
   -8.6486    4.4493  -15.4393 C   0  0  0  0  0  0  0  0  0  0  0  0
   -8.5350    4.2493  -16.8096 C   0  0  0  0  0  0  0  0  0  0  0  0
   -9.4976    3.5855  -17.4640 F   0  0  0  0  0  0  0  0  0  0  0  0
   -7.4855    4.7864  -17.5470 C   0  0  0  0  0  0  0  0  0  0  0  0
   -6.5326    5.5393  -16.8491 C   0  0  0  0  0  0  0  0  0  0  0  0
   -6.6129    5.7627  -15.4744 C   0  0  0  0  0  0  0  0  0  0  0  0
   -5.5172    6.6111  -15.1922 C   0  0  0  0  0  0  0  0  0  0  0  0
   -4.8145    6.9282  -16.2849 N   0  0  0  0  0  0  0  0  0  0  0  0
   -5.4180    6.2290  -17.2681 N   0  0  0  0  0  0  0  0  0  0  0  0
   -5.0276    6.3290  -18.6861 C   0  0  0  0  0  0  0  0  0  0  0  0
   -4.6149    4.9708  -19.2531 C   0  0  0  0  0  0  0  0  0  0  0  0
   -3.4662    5.6218  -19.9257 N   0  0  0  0  0  0  0  0  0  0  0  0
   -3.5595    6.7132  -18.9254 C   0  0  0  0  0  0  0  0  0  0  0  0
  1  2  3  0
  2  3  1  0
  3  4  1  0
  4  5  1  0
  5  6  2  0
  6  7  1  0
  7  8  2  0
  8  9  1  0
  9 10  1  6
 10 11  1  0
 11 12  1  6
 12 13  1  0
 13 14  2  0
 13 15  1  0
 15 16  2  0
 16 17  1  0
 17 18  1  0
 17 19  2  0
 19 20  1  0
 20 21  2  0
 21 22  1  0
 22 23  2  0
 23 24  1  0
 24 25  1  0
 25 26  1  0
 26 27  1  0
 27 28  1  0
 11  3  1  0
 21 15  1  0
 28 25  1  0
  9  5  1  0
 24 20  1  0
M  END
>  <smiles>  (2783) 
C41899-P304

>  <fragmenstein_outcome>  (2783) 
acceptable

>  <inchikey>  (2783) 
AXLATZBCHKLNJP-UHFFFAOYSA-N

>  <fragmenstein_mode>  (2783) 
expansion

>  <HIPPO Pose ID>  (2783) 
30107

>  <Energy>  (2783) 
-160.102489

>  <fragmenstein_error>  (2783) 


>  <tags>  (2783) 
{'openbind_xx01zvns2b_c1_fragmenstein', 'fragmenstein_placed'}

>  <ref_pdb>  (2783) 
175

>  <scratch_subdir>  (2783) 
/opt/xchem-fragalysis-2/maxwin/BulkDock/SCRATCH/511028/C41899-P304

>  <alias>  (2783) 
N#CN1CC2=CN=C[C@H]2N[C@@H]1NC(=O)c1cc(F)cc2c1cnn2C1CNC1

>  <HIPPO Compound ID>  (2783) 
41899

>  <fragmenstein_runtime>  (2783) 
5.979618

$$$$
CO[C@H]1C[C@]2(CCN1)C[C@@H](NC(=O)c1cc(F)cc3c1cnn3C1CNC1)C[C@@H]1CNC[C@@H]12
     RDKit          3D

 33 38  0  0  0  0  0  0  0  0999 V2000
   -7.2850   10.1238   -9.6713 C   0  0  0  0  0  0  0  0  0  0  0  0
   -7.5036    8.7207   -9.6708 O   0  0  0  0  0  0  0  0  0  0  0  0
   -8.1097    8.2484   -8.4730 C   0  0  1  0  0  0  0  0  0  0  0  0
   -8.5637    6.7915   -8.6773 C   0  0  0  0  0  0  0  0  0  0  0  0
   -7.4035    5.7793   -8.9532 C   0  0  2  0  0  0  0  0  0  0  0  0
   -6.0983    6.3915   -8.3345 C   0  0  0  0  0  0  0  0  0  0  0  0
   -6.3801    7.2084   -7.0785 C   0  0  0  0  0  0  0  0  0  0  0  0
   -7.2216    8.3801   -7.3214 N   0  0  0  0  0  0  0  0  0  0  0  0
   -7.1429    5.6459  -10.4745 C   0  0  0  0  0  0  0  0  0  0  0  0
   -8.2363    4.8758  -11.2057 C   0  0  1  0  0  0  0  0  0  0  0  0
   -8.0838    4.9888  -12.6428 N   0  0  0  0  0  0  0  0  0  0  0  0
   -6.8257    4.9050  -13.5239 C   0  0  0  0  0  0  0  0  0  0  0  0
   -5.7028    4.8087  -13.2295 O   0  0  0  0  0  0  0  0  0  0  0  0
   -7.1572    4.9578  -14.9781 C   0  0  0  0  0  0  0  0  0  0  0  0
   -8.3057    4.3569  -15.5177 C   0  0  0  0  0  0  0  0  0  0  0  0
   -8.4887    4.2930  -16.8939 C   0  0  0  0  0  0  0  0  0  0  0  0
   -9.5924    3.7155  -17.3841 F   0  0  0  0  0  0  0  0  0  0  0  0
   -7.5463    4.7898  -17.7855 C   0  0  0  0  0  0  0  0  0  0  0  0
   -6.4195    5.4105  -17.2383 C   0  0  0  0  0  0  0  0  0  0  0  0
   -6.2248    5.5348  -15.8639 C   0  0  0  0  0  0  0  0  0  0  0  0
   -5.0192    6.2620  -15.7453 C   0  0  0  0  0  0  0  0  0  0  0  0
   -4.4899    6.5776  -16.9297 N   0  0  0  0  0  0  0  0  0  0  0  0
   -5.2728    5.9142  -17.8074 N   0  0  0  0  0  0  0  0  0  0  0  0
   -4.8533    5.5758  -19.1790 C   0  0  0  0  0  0  0  0  0  0  0  0
   -4.8067    6.7679  -20.1423 C   0  0  0  0  0  0  0  0  0  0  0  0
   -3.5482    6.1935  -20.6987 N   0  0  0  0  0  0  0  0  0  0  0  0
   -3.3257    5.5429  -19.3815 C   0  0  0  0  0  0  0  0  0  0  0  0
   -8.2682    3.4147  -10.7897 C   0  0  0  0  0  0  0  0  0  0  0  0
   -8.0122    3.1655   -9.3089 C   0  0  2  0  0  0  0  0  0  0  0  0
   -9.1471    2.4353   -8.5923 C   0  0  0  0  0  0  0  0  0  0  0  0
   -8.9208    2.7330   -7.1705 N   0  0  0  0  0  0  0  0  0  0  0  0
   -8.5724    4.1558   -7.1689 C   0  0  0  0  0  0  0  0  0  0  0  0
   -7.6356    4.3369   -8.3692 C   0  0  2  0  0  0  0  0  0  0  0  0
  1  2  1  0
  3  2  1  6
  3  4  1  0
  5  4  1  6
  5  6  1  0
  6  7  1  0
  7  8  1  0
  5  9  1  0
  9 10  1  0
 10 11  1  6
 11 12  1  0
 12 13  2  0
 12 14  1  0
 14 15  2  0
 15 16  1  0
 16 17  1  0
 16 18  2  0
 18 19  1  0
 19 20  2  0
 20 21  1  0
 21 22  2  0
 22 23  1  0
 23 24  1  0
 24 25  1  0
 25 26  1  0
 26 27  1  0
 10 28  1  0
 29 28  1  6
 29 30  1  0
 30 31  1  0
 31 32  1  0
 33 32  1  1
  8  3  1  0
 20 14  1  0
 27 24  1  0
 33 29  1  0
 33  5  1  0
 23 19  1  0
M  END
>  <smiles>  (2784) 
C40334-P304

>  <fragmenstein_outcome>  (2784) 
acceptable

>  <inchikey>  (2784) 
IARYHQNKQZFUEG-UHFFFAOYSA-N

>  <fragmenstein_mode>  (2784) 
expansion

>  <HIPPO Pose ID>  (2784) 
30108

>  <Energy>  (2784) 
66.443272

>  <fragmenstein_error>  (2784) 


>  <tags>  (2784) 
{'openbind_xx01zvns2b_c1_fragmenstein', 'fragmenstein_placed'}

>  <ref_pdb>  (2784) 
175

>  <scratch_subdir>  (2784) 
/opt/xchem-fragalysis-2/maxwin/BulkDock/SCRATCH/511028/C40334-P304

>  <alias>  (2784) 
CO[C@H]1C[C@]2(CCN1)C[C@@H](NC(=O)c1cc(F)cc3c1cnn3C1CNC1)C[C@@H]1CNC[C@@H]12

>  <HIPPO Compound ID>  (2784) 
40334

>  <fragmenstein_runtime>  (2784) 
4.58993

$$$$
O=C(N[C@H]1NCC2=CN=C[C@@H]2N1)c1cc(F)cc2c1cnn2C1CNC1
     RDKit          3D

 26 30  0  0  0  0  0  0  0  0999 V2000
   -6.1981    6.2099  -13.1120 O   0  0  0  0  0  0  0  0  0  0  0  0
   -6.7841    5.2237  -13.3166 C   0  0  0  0  0  0  0  0  0  0  0  0
   -7.3973    4.2096  -12.3406 N   0  0  0  0  0  0  0  0  0  0  0  0
   -7.3406    4.1427  -10.9326 C   0  0  1  0  0  0  0  0  0  0  0  0
   -8.1204    5.2815  -10.5240 N   0  0  0  0  0  0  0  0  0  0  0  0
   -8.1660    5.3918   -9.0740 C   0  0  0  0  0  0  0  0  0  0  0  0
   -8.6368    4.1044   -8.5452 C   0  0  0  0  0  0  0  0  0  0  0  0
   -8.7514    3.6382   -7.3017 C   0  0  0  0  0  0  0  0  0  0  0  0
   -9.0634    2.3078   -7.2581 N   0  0  0  0  0  0  0  0  0  0  0  0
   -9.0777    1.9397   -8.5081 C   0  0  0  0  0  0  0  0  0  0  0  0
   -8.9423    3.0386   -9.5322 C   0  0  2  0  0  0  0  0  0  0  0  0
   -7.9090    2.8748  -10.5483 N   0  0  0  0  0  0  0  0  0  0  0  0
   -7.0370    4.8910  -14.7469 C   0  0  0  0  0  0  0  0  0  0  0  0
   -8.2783    4.4368  -15.2242 C   0  0  0  0  0  0  0  0  0  0  0  0
   -8.4757    4.2484  -16.5926 C   0  0  0  0  0  0  0  0  0  0  0  0
   -9.6546    3.8050  -17.0481 F   0  0  0  0  0  0  0  0  0  0  0  0
   -7.4858    4.5209  -17.5298 C   0  0  0  0  0  0  0  0  0  0  0  0
   -6.2527    4.9566  -17.0369 C   0  0  0  0  0  0  0  0  0  0  0  0
   -6.0078    5.1446  -15.6798 C   0  0  0  0  0  0  0  0  0  0  0  0
   -4.6613    5.5754  -15.6245 C   0  0  0  0  0  0  0  0  0  0  0  0
   -4.0841    5.6292  -16.8268 N   0  0  0  0  0  0  0  0  0  0  0  0
   -5.0739    5.2739  -17.6657 N   0  0  0  0  0  0  0  0  0  0  0  0
   -4.9298    5.2000  -19.1196 C   0  0  0  0  0  0  0  0  0  0  0  0
   -5.2896    6.5211  -19.8051 C   0  0  0  0  0  0  0  0  0  0  0  0
   -4.1865    6.2477  -20.7753 N   0  0  0  0  0  0  0  0  0  0  0  0
   -3.5282    5.4758  -19.6815 C   0  0  0  0  0  0  0  0  0  0  0  0
  1  2  2  0
  2  3  1  0
  4  3  1  6
  4  5  1  0
  5  6  1  0
  6  7  1  0
  7  8  2  0
  8  9  1  0
  9 10  2  0
 10 11  1  0
 11 12  1  6
  2 13  1  0
 13 14  2  0
 14 15  1  0
 15 16  1  0
 15 17  2  0
 17 18  1  0
 18 19  2  0
 19 20  1  0
 20 21  2  0
 21 22  1  0
 22 23  1  0
 23 24  1  0
 24 25  1  0
 25 26  1  0
 12  4  1  0
 19 13  1  0
 26 23  1  0
 11  7  1  0
 22 18  1  0
M  END
>  <smiles>  (2785) 
C41901-P304

>  <fragmenstein_outcome>  (2785) 
acceptable

>  <inchikey>  (2785) 
ZQXAOZDICCOGOS-UHFFFAOYSA-N

>  <fragmenstein_mode>  (2785) 
expansion

>  <HIPPO Pose ID>  (2785) 
30109

>  <Energy>  (2785) 
-128.028296

>  <fragmenstein_error>  (2785) 


>  <tags>  (2785) 
{'openbind_xx01zvns2b_c1_fragmenstein', 'fragmenstein_placed'}

>  <ref_pdb>  (2785) 
175

>  <scratch_subdir>  (2785) 
/opt/xchem-fragalysis-2/maxwin/BulkDock/SCRATCH/511028/C41901-P304

>  <alias>  (2785) 
O=C(N[C@H]1NCC2=CN=C[C@@H]2N1)c1cc(F)cc2c1cnn2C1CNC1

>  <HIPPO Compound ID>  (2785) 
26386

>  <fragmenstein_runtime>  (2785) 
5.239919

$$$$
NCc1ccnc(NC(=O)c2cc(F)cc3c2c[n+]([O-])n3C2CNC2)n1
     RDKit          3D

 26 29  0  0  0  0  0  0  0  0999 V2000
   -9.0483    1.8529   -7.0652 N   0  0  0  0  0  0  0  0  0  0  0  0
   -8.9365    1.8365   -8.5309 C   0  0  0  0  0  0  0  0  0  0  0  0
   -8.6061    3.1790   -9.1471 C   0  0  0  0  0  0  0  0  0  0  0  0
   -8.5350    4.3221   -8.3722 C   0  0  0  0  0  0  0  0  0  0  0  0
   -8.2311    5.4851   -9.0277 C   0  0  0  0  0  0  0  0  0  0  0  0
   -8.0130    5.5504  -10.3473 N   0  0  0  0  0  0  0  0  0  0  0  0
   -8.1163    4.4019  -11.0265 C   0  0  0  0  0  0  0  0  0  0  0  0
   -7.9224    4.4296  -12.3834 N   0  0  0  0  0  0  0  0  0  0  0  0
   -7.4465    5.5661  -13.3007 C   0  0  0  0  0  0  0  0  0  0  0  0
   -7.2161    6.6839  -13.0625 O   0  0  0  0  0  0  0  0  0  0  0  0
   -7.3124    5.1354  -14.7122 C   0  0  0  0  0  0  0  0  0  0  0  0
   -8.3777    4.4980  -15.3565 C   0  0  0  0  0  0  0  0  0  0  0  0
   -8.3298    4.2944  -16.7257 C   0  0  0  0  0  0  0  0  0  0  0  0
   -9.3640    3.7002  -17.3342 F   0  0  0  0  0  0  0  0  0  0  0  0
   -7.2616    4.7314  -17.5055 C   0  0  0  0  0  0  0  0  0  0  0  0
   -6.1802    5.3365  -16.8548 C   0  0  0  0  0  0  0  0  0  0  0  0
   -6.1658    5.5395  -15.4443 C   0  0  0  0  0  0  0  0  0  0  0  0
   -4.9310    6.2058  -15.0443 C   0  0  0  0  0  0  0  0  0  0  0  0
   -4.2257    6.4168  -16.1624 N   0  0  0  0  0  0  0  0  0  0  0  0
   -3.1375    7.0152  -16.3413 O   0  0  0  0  0  0  0  0  0  0  0  0
   -4.9926    5.8937  -17.2928 N   0  0  0  0  0  0  0  0  0  0  0  0
   -4.6382    6.2329  -18.6792 C   0  0  0  0  0  0  0  0  0  0  0  0
   -5.0375    5.2327  -19.7622 C   0  0  0  0  0  0  0  0  0  0  0  0
   -3.6837    5.3946  -20.3696 N   0  0  0  0  0  0  0  0  0  0  0  0
   -3.1965    5.8242  -19.0419 C   0  0  0  0  0  0  0  0  0  0  0  0
   -8.3960    3.2097  -10.4867 N   0  0  0  0  0  0  0  0  0  0  0  0
  1  2  1  0
  2  3  1  0
  3  4  2  0
  4  5  1  0
  5  6  2  0
  6  7  1  0
  7  8  1  0
  8  9  1  0
  9 10  2  0
  9 11  1  0
 11 12  2  0
 12 13  1  0
 13 14  1  0
 13 15  2  0
 15 16  1  0
 16 17  2  0
 17 18  1  0
 18 19  2  0
 19 20  1  0
 19 21  1  0
 21 22  1  0
 22 23  1  0
 23 24  1  0
 24 25  1  0
  7 26  2  0
 26  3  1  0
 17 11  1  0
 25 22  1  0
 21 16  1  0
M  CHG  2  19   1  20  -1
M  END
>  <smiles>  (2786) 
C41903-P304

>  <fragmenstein_outcome>  (2786) 
acceptable

>  <inchikey>  (2786) 
YZJWCUBFJGAUOD-UHFFFAOYSA-N

>  <fragmenstein_mode>  (2786) 
expansion

>  <HIPPO Pose ID>  (2786) 
30110

>  <Energy>  (2786) 
-11.780435

>  <fragmenstein_error>  (2786) 


>  <tags>  (2786) 
{'openbind_xx01zvns2b_c1_fragmenstein', 'fragmenstein_placed'}

>  <ref_pdb>  (2786) 
175

>  <scratch_subdir>  (2786) 
/opt/xchem-fragalysis-2/maxwin/BulkDock/SCRATCH/511028/C41903-P304

>  <alias>  (2786) 
NCc1ccnc(NC(=O)c2cc(F)cc3c2c[n+]([O-])n3C2CNC2)n1

>  <HIPPO Compound ID>  (2786) 
19106

>  <fragmenstein_runtime>  (2786) 
4.508951

$$$$
O=C(NCC(F)F)[C@@](O)(N[C@@H]1NCC2=CN=C[C@H]2N1)c1cc(F)cc2c1cnn2C1CNC1
     RDKit          3D

 33 37  0  0  0  0  0  0  0  0999 V2000
   -9.7927    6.0757  -13.6612 O   0  0  0  0  0  0  0  0  0  0  0  0
   -8.7071    6.2171  -13.2473 C   0  0  0  0  0  0  0  0  0  0  0  0
   -8.0819    7.3893  -12.4414 N   0  0  0  0  0  0  0  0  0  0  0  0
   -8.6893    8.5846  -11.8975 C   0  0  0  0  0  0  0  0  0  0  0  0
   -7.9381    9.8671  -12.2348 C   0  0  0  0  0  0  0  0  0  0  0  0
   -7.8758   10.0469  -13.5779 F   0  0  0  0  0  0  0  0  0  0  0  0
   -6.6580    9.7837  -11.7893 F   0  0  0  0  0  0  0  0  0  0  0  0
   -7.5491    5.1031  -13.4073 C   0  0  1  0  0  0  0  0  0  0  0  0
   -6.3200    5.5912  -12.8850 O   0  0  0  0  0  0  0  0  0  0  0  0
   -7.9173    3.8967  -12.6506 N   0  0  0  0  0  0  0  0  0  0  0  0
   -8.2990    4.1196  -11.2792 C   0  0  2  0  0  0  0  0  0  0  0  0
   -7.1080    4.5774  -10.6021 N   0  0  0  0  0  0  0  0  0  0  0  0
   -7.4107    4.9123   -9.2037 C   0  0  0  0  0  0  0  0  0  0  0  0
   -8.1903    3.8172   -8.6123 C   0  0  0  0  0  0  0  0  0  0  0  0
   -8.9706    3.7485   -7.5342 C   0  0  0  0  0  0  0  0  0  0  0  0
   -9.6622    2.5715   -7.4502 N   0  0  0  0  0  0  0  0  0  0  0  0
   -9.2910    1.9035   -8.5054 C   0  0  0  0  0  0  0  0  0  0  0  0
   -8.2747    2.5634   -9.4017 C   0  0  1  0  0  0  0  0  0  0  0  0
   -8.7247    2.8390  -10.7711 N   0  0  0  0  0  0  0  0  0  0  0  0
   -7.3390    4.8511  -14.9125 C   0  0  0  0  0  0  0  0  0  0  0  0
   -8.4154    4.3747  -15.7022 C   0  0  0  0  0  0  0  0  0  0  0  0
   -8.3437    4.2999  -17.0858 C   0  0  0  0  0  0  0  0  0  0  0  0
   -9.4044    3.8590  -17.7750 F   0  0  0  0  0  0  0  0  0  0  0  0
   -7.2176    4.7136  -17.7793 C   0  0  0  0  0  0  0  0  0  0  0  0
   -6.1103    5.1221  -17.0257 C   0  0  0  0  0  0  0  0  0  0  0  0
   -6.1436    5.1627  -15.6254 C   0  0  0  0  0  0  0  0  0  0  0  0
   -4.8349    5.5743  -15.2697 C   0  0  0  0  0  0  0  0  0  0  0  0
   -4.0519    5.8163  -16.3177 N   0  0  0  0  0  0  0  0  0  0  0  0
   -4.8498    5.5666  -17.3740 N   0  0  0  0  0  0  0  0  0  0  0  0
   -4.4248    6.0532  -18.6943 C   0  0  0  0  0  0  0  0  0  0  0  0
   -4.9044    5.2831  -19.9172 C   0  0  0  0  0  0  0  0  0  0  0  0
   -3.5196    5.3826  -20.4806 N   0  0  0  0  0  0  0  0  0  0  0  0
   -3.0338    5.5303  -19.0876 C   0  0  0  0  0  0  0  0  0  0  0  0
  1  2  2  0
  2  3  1  0
  3  4  1  0
  4  5  1  0
  5  6  1  0
  5  7  1  0
  2  8  1  0
  8  9  1  1
  8 10  1  0
 11 10  1  6
 11 12  1  0
 12 13  1  0
 13 14  1  0
 14 15  2  0
 15 16  1  0
 16 17  2  0
 17 18  1  0
 18 19  1  6
  8 20  1  0
 20 21  2  0
 21 22  1  0
 22 23  1  0
 22 24  2  0
 24 25  1  0
 25 26  2  0
 26 27  1  0
 27 28  2  0
 28 29  1  0
 29 30  1  0
 30 31  1  0
 31 32  1  0
 32 33  1  0
 19 11  1  0
 26 20  1  0
 33 30  1  0
 18 14  1  0
 29 25  1  0
M  END
>  <smiles>  (2787) 
C41907-P304

>  <fragmenstein_outcome>  (2787) 
acceptable

>  <inchikey>  (2787) 
RXAICXDYPAJDHA-UHFFFAOYSA-N

>  <fragmenstein_mode>  (2787) 
expansion

>  <HIPPO Pose ID>  (2787) 
30112

>  <Energy>  (2787) 
-81.419739

>  <fragmenstein_error>  (2787) 


>  <tags>  (2787) 
{'openbind_xx01zvns2b_c1_fragmenstein', 'fragmenstein_placed'}

>  <ref_pdb>  (2787) 
175

>  <scratch_subdir>  (2787) 
/opt/xchem-fragalysis-2/maxwin/BulkDock/SCRATCH/511028/C41907-P304

>  <alias>  (2787) 
O=C(NCC(F)F)[C@@](O)(N[C@@H]1NCC2=CN=C[C@H]2N1)c1cc(F)cc2c1cnn2C1CNC1

>  <HIPPO Compound ID>  (2787) 
28765

>  <fragmenstein_runtime>  (2787) 
6.413574

$$$$
O=C(N[C@@H]1NCC2=CN=C[C@@H]2N1)c1cc(F)c2[nH]c(=O)n3c2c1CN3
     RDKit          3D

 25 29  0  0  0  0  0  0  0  0999 V2000
   -9.4251    5.7664  -13.8929 O   0  0  0  0  0  0  0  0  0  0  0  0
   -8.5248    5.0280  -13.8388 C   0  0  0  0  0  0  0  0  0  0  0  0
   -7.8784    4.3337  -12.6327 N   0  0  0  0  0  0  0  0  0  0  0  0
   -8.2500    4.3241  -11.2791 C   0  0  2  0  0  0  0  0  0  0  0  0
   -7.4293    5.2447  -10.5468 N   0  0  0  0  0  0  0  0  0  0  0  0
   -8.0892    5.5250   -9.2598 C   0  0  0  0  0  0  0  0  0  0  0  0
   -8.5125    4.2613   -8.6125 C   0  0  0  0  0  0  0  0  0  0  0  0
   -8.4730    3.8558   -7.3431 C   0  0  0  0  0  0  0  0  0  0  0  0
   -8.7583    2.5249   -7.1981 N   0  0  0  0  0  0  0  0  0  0  0  0
   -8.8852    2.0779   -8.4155 C   0  0  0  0  0  0  0  0  0  0  0  0
   -8.9642    3.1336   -9.4770 C   0  0  2  0  0  0  0  0  0  0  0  0
   -8.1420    3.0205  -10.6846 N   0  0  0  0  0  0  0  0  0  0  0  0
   -7.9110    4.6860  -15.1342 C   0  0  0  0  0  0  0  0  0  0  0  0
   -8.8048    4.2205  -16.1508 C   0  0  0  0  0  0  0  0  0  0  0  0
   -8.4512    4.1959  -17.5151 C   0  0  0  0  0  0  0  0  0  0  0  0
   -9.3826    3.9141  -18.4295 F   0  0  0  0  0  0  0  0  0  0  0  0
   -7.1845    4.5772  -17.8482 C   0  0  0  0  0  0  0  0  0  0  0  0
   -6.5012    4.9429  -19.0150 N   0  0  0  0  0  0  0  0  0  0  0  0
   -5.2603    5.5912  -18.6401 C   0  0  0  0  0  0  0  0  0  0  0  0
   -4.5217    6.2241  -19.3763 O   0  0  0  0  0  0  0  0  0  0  0  0
   -5.1564    5.3946  -17.2236 N   0  0  0  0  0  0  0  0  0  0  0  0
   -6.3528    4.8886  -16.8152 C   0  0  0  0  0  0  0  0  0  0  0  0
   -6.6396    5.0630  -15.4973 C   0  0  0  0  0  0  0  0  0  0  0  0
   -5.4760    5.8244  -14.9471 C   0  0  0  0  0  0  0  0  0  0  0  0
   -4.5897    6.1551  -16.1633 N   0  0  0  0  0  0  0  0  0  0  0  0
  1  2  2  0
  2  3  1  0
  4  3  1  6
  4  5  1  0
  5  6  1  0
  6  7  1  0
  7  8  2  0
  8  9  1  0
  9 10  2  0
 10 11  1  0
 11 12  1  6
  2 13  1  0
 13 14  2  0
 14 15  1  0
 15 16  1  0
 15 17  2  0
 17 18  1  0
 18 19  1  0
 19 20  2  0
 19 21  1  0
 21 22  1  0
 22 23  2  0
 23 24  1  0
 24 25  1  0
 12  4  1  0
 23 13  1  0
 11  7  1  0
 22 17  1  0
 25 21  1  0
M  END
>  <smiles>  (2788) 
C41923-P304

>  <fragmenstein_outcome>  (2788) 
acceptable

>  <inchikey>  (2788) 
SAZCVIQRBTVSCH-UHFFFAOYSA-N

>  <fragmenstein_mode>  (2788) 
expansion

>  <HIPPO Pose ID>  (2788) 
30118

>  <Energy>  (2788) 
-88.217235

>  <fragmenstein_error>  (2788) 


>  <tags>  (2788) 
{'openbind_xx01zvns2b_c1_fragmenstein', 'fragmenstein_placed'}

>  <ref_pdb>  (2788) 
175

>  <scratch_subdir>  (2788) 
/opt/xchem-fragalysis-2/maxwin/BulkDock/SCRATCH/511028/C41923-P304

>  <alias>  (2788) 
O=C(N[C@@H]1NCC2=CN=C[C@@H]2N1)c1cc(F)c2[nH]c(=O)n3c2c1CN3

>  <HIPPO Compound ID>  (2788) 
41923

>  <fragmenstein_runtime>  (2788) 
5.100714

$$$$
O=C(Nc1nccc(Br)n1)c1cc(F)cc2c1cnn2C1CNC1
     RDKit          3D

 24 27  0  0  0  0  0  0  0  0999 V2000
   -6.8907    6.4809  -13.2055 O   0  0  0  0  0  0  0  0  0  0  0  0
   -7.2747    5.4076  -13.4532 C   0  0  0  0  0  0  0  0  0  0  0  0
   -7.8280    4.3091  -12.5309 N   0  0  0  0  0  0  0  0  0  0  0  0
   -8.1024    4.3282  -11.1858 C   0  0  0  0  0  0  0  0  0  0  0  0
   -7.9150    5.4832  -10.5303 N   0  0  0  0  0  0  0  0  0  0  0  0
   -8.1225    5.4788   -9.2067 C   0  0  0  0  0  0  0  0  0  0  0  0
   -8.5105    4.3658   -8.5185 C   0  0  0  0  0  0  0  0  0  0  0  0
   -8.6997    3.2413   -9.2868 C   0  0  0  0  0  0  0  0  0  0  0  0
   -9.2864    1.6956   -8.3738 Br  0  0  0  0  0  0  0  0  0  0  0  0
   -8.5113    3.1915  -10.6219 N   0  0  0  0  0  0  0  0  0  0  0  0
   -7.2173    5.0044  -14.8789 C   0  0  0  0  0  0  0  0  0  0  0  0
   -8.3249    4.4550  -15.5357 C   0  0  0  0  0  0  0  0  0  0  0  0
   -8.3045    4.3179  -16.9192 C   0  0  0  0  0  0  0  0  0  0  0  0
   -9.3786    3.8138  -17.5415 F   0  0  0  0  0  0  0  0  0  0  0  0
   -7.2264    4.7454  -17.6951 C   0  0  0  0  0  0  0  0  0  0  0  0
   -6.1115    5.2637  -17.0215 C   0  0  0  0  0  0  0  0  0  0  0  0
   -6.0792    5.3718  -15.6316 C   0  0  0  0  0  0  0  0  0  0  0  0
   -4.8063    5.9177  -15.3500 C   0  0  0  0  0  0  0  0  0  0  0  0
   -4.0883    6.1542  -16.4490 N   0  0  0  0  0  0  0  0  0  0  0  0
   -4.9223    5.8173  -17.4519 N   0  0  0  0  0  0  0  0  0  0  0  0
   -4.7175    6.3543  -18.8099 C   0  0  0  0  0  0  0  0  0  0  0  0
   -4.6838    5.2991  -19.9012 C   0  0  0  0  0  0  0  0  0  0  0  0
   -3.2085    5.2492  -19.8267 N   0  0  0  0  0  0  0  0  0  0  0  0
   -3.2460    6.5901  -19.1972 C   0  0  0  0  0  0  0  0  0  0  0  0
  1  2  2  0
  2  3  1  0
  3  4  1  0
  4  5  2  0
  5  6  1  0
  6  7  2  0
  7  8  1  0
  8  9  1  0
  8 10  2  0
  2 11  1  0
 11 12  2  0
 12 13  1  0
 13 14  1  0
 13 15  2  0
 15 16  1  0
 16 17  2  0
 17 18  1  0
 18 19  2  0
 19 20  1  0
 20 21  1  0
 21 22  1  0
 22 23  1  0
 23 24  1  0
 10  4  1  0
 17 11  1  0
 24 21  1  0
 20 16  1  0
M  END
>  <smiles>  (2789) 
C41934-P304

>  <fragmenstein_outcome>  (2789) 
acceptable

>  <inchikey>  (2789) 
CKXJMDPMPXKEPR-UHFFFAOYSA-N

>  <fragmenstein_mode>  (2789) 
expansion

>  <HIPPO Pose ID>  (2789) 
30126

>  <Energy>  (2789) 
-39.434776

>  <fragmenstein_error>  (2789) 


>  <tags>  (2789) 
{'openbind_xx01zvns2b_c1_fragmenstein', 'fragmenstein_placed'}

>  <ref_pdb>  (2789) 
175

>  <scratch_subdir>  (2789) 
/opt/xchem-fragalysis-2/maxwin/BulkDock/SCRATCH/511028/C41934-P304

>  <alias>  (2789) 
O=C(Nc1nccc(Br)n1)c1cc(F)cc2c1cnn2C1CNC1

>  <HIPPO Compound ID>  (2789) 
41401

>  <fragmenstein_runtime>  (2789) 
3.020544

$$$$
O=C(Nc1nccc(F)n1)c1cc(F)cc2c1cnn2C1CNC1
     RDKit          3D

 24 27  0  0  0  0  0  0  0  0999 V2000
   -7.5818    6.4866  -13.0528 O   0  0  0  0  0  0  0  0  0  0  0  0
   -7.8684    5.3995  -13.3620 C   0  0  0  0  0  0  0  0  0  0  0  0
   -8.3293    4.2082  -12.5064 N   0  0  0  0  0  0  0  0  0  0  0  0
   -8.4398    4.0780  -11.1431 C   0  0  0  0  0  0  0  0  0  0  0  0
   -8.1386    5.1361  -10.3751 N   0  0  0  0  0  0  0  0  0  0  0  0
   -8.2008    4.9605   -9.0457 C   0  0  0  0  0  0  0  0  0  0  0  0
   -8.5705    3.7799   -8.4661 C   0  0  0  0  0  0  0  0  0  0  0  0
   -8.8802    2.7752   -9.3460 C   0  0  0  0  0  0  0  0  0  0  0  0
   -9.3107    1.6166   -8.8274 F   0  0  0  0  0  0  0  0  0  0  0  0
   -8.8167    2.8848  -10.6861 N   0  0  0  0  0  0  0  0  0  0  0  0
   -7.7214    5.0473  -14.7936 C   0  0  0  0  0  0  0  0  0  0  0  0
   -8.7341    4.4125  -15.5181 C   0  0  0  0  0  0  0  0  0  0  0  0
   -8.5942    4.2080  -16.8841 C   0  0  0  0  0  0  0  0  0  0  0  0
   -9.6025    3.6593  -17.5770 F   0  0  0  0  0  0  0  0  0  0  0  0
   -7.4448    4.5879  -17.5694 C   0  0  0  0  0  0  0  0  0  0  0  0
   -6.4275    5.2130  -16.8331 C   0  0  0  0  0  0  0  0  0  0  0  0
   -6.5560    5.4619  -15.4670 C   0  0  0  0  0  0  0  0  0  0  0  0
   -5.3669    6.1323  -15.1080 C   0  0  0  0  0  0  0  0  0  0  0  0
   -4.5368    6.2932  -16.1379 N   0  0  0  0  0  0  0  0  0  0  0  0
   -5.1713    5.6761  -17.1609 N   0  0  0  0  0  0  0  0  0  0  0  0
   -4.4534    5.3149  -18.3889 C   0  0  0  0  0  0  0  0  0  0  0  0
   -5.2324    5.5124  -19.6970 C   0  0  0  0  0  0  0  0  0  0  0  0
   -3.9360    5.9356  -20.3111 N   0  0  0  0  0  0  0  0  0  0  0  0
   -3.5538    6.4271  -18.9573 C   0  0  0  0  0  0  0  0  0  0  0  0
  1  2  2  0
  2  3  1  0
  3  4  1  0
  4  5  2  0
  5  6  1  0
  6  7  2  0
  7  8  1  0
  8  9  1  0
  8 10  2  0
  2 11  1  0
 11 12  2  0
 12 13  1  0
 13 14  1  0
 13 15  2  0
 15 16  1  0
 16 17  2  0
 17 18  1  0
 18 19  2  0
 19 20  1  0
 20 21  1  0
 21 22  1  0
 22 23  1  0
 23 24  1  0
 10  4  1  0
 17 11  1  0
 24 21  1  0
 20 16  1  0
M  END
>  <smiles>  (2790) 
C41938-P304

>  <fragmenstein_outcome>  (2790) 
acceptable

>  <inchikey>  (2790) 
UMADBEPZUIKEOT-UHFFFAOYSA-N

>  <fragmenstein_mode>  (2790) 
expansion

>  <HIPPO Pose ID>  (2790) 
30127

>  <Energy>  (2790) 
-51.214327

>  <fragmenstein_error>  (2790) 


>  <tags>  (2790) 
{'openbind_xx01zvns2b_c1_fragmenstein', 'fragmenstein_placed'}

>  <ref_pdb>  (2790) 
175

>  <scratch_subdir>  (2790) 
/opt/xchem-fragalysis-2/maxwin/BulkDock/SCRATCH/511028/C41938-P304

>  <alias>  (2790) 
O=C(Nc1nccc(F)n1)c1cc(F)cc2c1cnn2C1CNC1

>  <HIPPO Compound ID>  (2790) 
41938

>  <fragmenstein_runtime>  (2790) 
3.194873

$$$$
CCc1cnc(NC(=O)c2cc(F)cc3c2cnn3C2CNC2)nc1F
     RDKit          3D

 26 29  0  0  0  0  0  0  0  0999 V2000
   -9.4183    2.7501   -6.3933 C   0  0  0  0  0  0  0  0  0  0  0  0
   -8.7532    3.9928   -6.9622 C   0  0  0  0  0  0  0  0  0  0  0  0
   -8.5669    4.0519   -8.4469 C   0  0  0  0  0  0  0  0  0  0  0  0
   -8.1895    5.2287   -9.0538 C   0  0  0  0  0  0  0  0  0  0  0  0
   -7.9862    5.3657  -10.3758 N   0  0  0  0  0  0  0  0  0  0  0  0
   -8.1530    4.2703  -11.1255 C   0  0  0  0  0  0  0  0  0  0  0  0
   -7.9296    4.3409  -12.4779 N   0  0  0  0  0  0  0  0  0  0  0  0
   -7.5006    5.5259  -13.3595 C   0  0  0  0  0  0  0  0  0  0  0  0
   -7.1937    6.6127  -13.0685 O   0  0  0  0  0  0  0  0  0  0  0  0
   -7.4792    5.1768  -14.8045 C   0  0  0  0  0  0  0  0  0  0  0  0
   -8.5325    4.4707  -15.4080 C   0  0  0  0  0  0  0  0  0  0  0  0
   -8.5612    4.2926  -16.7866 C   0  0  0  0  0  0  0  0  0  0  0  0
   -9.6086    3.6846  -17.3595 F   0  0  0  0  0  0  0  0  0  0  0  0
   -7.5638    4.7953  -17.6117 C   0  0  0  0  0  0  0  0  0  0  0  0
   -6.5301    5.5150  -17.0006 C   0  0  0  0  0  0  0  0  0  0  0  0
   -6.4636    5.7142  -15.6248 C   0  0  0  0  0  0  0  0  0  0  0  0
   -5.3145    6.5236  -15.4477 C   0  0  0  0  0  0  0  0  0  0  0  0
   -4.7198    6.8438  -16.6014 N   0  0  0  0  0  0  0  0  0  0  0  0
   -5.4439    6.1802  -17.5190 N   0  0  0  0  0  0  0  0  0  0  0  0
   -5.1978    6.2559  -18.9622 C   0  0  0  0  0  0  0  0  0  0  0  0
   -4.7921    4.8854  -19.4963 C   0  0  0  0  0  0  0  0  0  0  0  0
   -3.8263    5.5593  -20.4060 N   0  0  0  0  0  0  0  0  0  0  0  0
   -3.7835    6.6648  -19.4005 C   0  0  0  0  0  0  0  0  0  0  0  0
   -8.5219    3.0812  -10.6594 N   0  0  0  0  0  0  0  0  0  0  0  0
   -8.7139    3.0019   -9.3281 C   0  0  0  0  0  0  0  0  0  0  0  0
   -9.1005    1.8080   -8.8580 F   0  0  0  0  0  0  0  0  0  0  0  0
  1  2  1  0
  2  3  1  0
  3  4  2  0
  4  5  1  0
  5  6  2  0
  6  7  1  0
  7  8  1  0
  8  9  2  0
  8 10  1  0
 10 11  2  0
 11 12  1  0
 12 13  1  0
 12 14  2  0
 14 15  1  0
 15 16  2  0
 16 17  1  0
 17 18  2  0
 18 19  1  0
 19 20  1  0
 20 21  1  0
 21 22  1  0
 22 23  1  0
  6 24  1  0
 24 25  2  0
 25 26  1  0
 25  3  1  0
 16 10  1  0
 23 20  1  0
 19 15  1  0
M  END
>  <smiles>  (2791) 
C41955-P304

>  <fragmenstein_outcome>  (2791) 
acceptable

>  <inchikey>  (2791) 
DSHPEUREIMMLDD-UHFFFAOYSA-N

>  <fragmenstein_mode>  (2791) 
expansion

>  <HIPPO Pose ID>  (2791) 
30136

>  <Energy>  (2791) 
-46.053838

>  <fragmenstein_error>  (2791) 


>  <tags>  (2791) 
{'openbind_xx01zvns2b_c1_fragmenstein', 'fragmenstein_placed'}

>  <ref_pdb>  (2791) 
175

>  <scratch_subdir>  (2791) 
/opt/xchem-fragalysis-2/maxwin/BulkDock/SCRATCH/511028/C41955-P304

>  <alias>  (2791) 
CCc1cnc(NC(=O)c2cc(F)cc3c2cnn3C2CNC2)nc1F

>  <HIPPO Compound ID>  (2791) 
41955

>  <fragmenstein_runtime>  (2791) 
3.732939

$$$$
N#Cc1ccnc(NC(=O)c2cc(F)cc3c2cnn3C2CNC2)n1
     RDKit          3D

 25 28  0  0  0  0  0  0  0  0999 V2000
   -9.6397    1.2799   -7.6647 N   0  0  0  0  0  0  0  0  0  0  0  0
   -9.1934    2.0181   -8.4425 C   0  0  0  0  0  0  0  0  0  0  0  0
   -8.7185    3.1398   -9.2020 C   0  0  0  0  0  0  0  0  0  0  0  0
   -8.4286    4.2837   -8.4859 C   0  0  0  0  0  0  0  0  0  0  0  0
   -8.1265    5.3812   -9.2345 C   0  0  0  0  0  0  0  0  0  0  0  0
   -8.1019    5.3564  -10.5715 N   0  0  0  0  0  0  0  0  0  0  0  0
   -8.3708    4.1923  -11.1865 C   0  0  0  0  0  0  0  0  0  0  0  0
   -8.2784    4.2015  -12.5592 N   0  0  0  0  0  0  0  0  0  0  0  0
   -8.0329    5.3632  -13.5361 C   0  0  0  0  0  0  0  0  0  0  0  0
   -7.9462    6.5102  -13.3411 O   0  0  0  0  0  0  0  0  0  0  0  0
   -7.7849    4.9392  -14.9317 C   0  0  0  0  0  0  0  0  0  0  0  0
   -8.7581    4.3163  -15.7087 C   0  0  0  0  0  0  0  0  0  0  0  0
   -8.5728    4.2007  -17.0809 C   0  0  0  0  0  0  0  0  0  0  0  0
   -9.5607    3.6754  -17.8208 F   0  0  0  0  0  0  0  0  0  0  0  0
   -7.4261    4.6816  -17.7248 C   0  0  0  0  0  0  0  0  0  0  0  0
   -6.4410    5.3003  -16.9347 C   0  0  0  0  0  0  0  0  0  0  0  0
   -6.6099    5.4172  -15.5502 C   0  0  0  0  0  0  0  0  0  0  0  0
   -5.4732    6.1194  -15.1007 C   0  0  0  0  0  0  0  0  0  0  0  0
   -4.6428    6.4317  -16.0886 N   0  0  0  0  0  0  0  0  0  0  0  0
   -5.2375    5.9361  -17.1937 N   0  0  0  0  0  0  0  0  0  0  0  0
   -4.5452    6.1806  -18.4627 C   0  0  0  0  0  0  0  0  0  0  0  0
   -4.4126    4.9801  -19.3829 C   0  0  0  0  0  0  0  0  0  0  0  0
   -4.5619    5.9199  -20.5224 N   0  0  0  0  0  0  0  0  0  0  0  0
   -5.3459    6.7970  -19.6067 C   0  0  0  0  0  0  0  0  0  0  0  0
   -8.6808    3.0553  -10.5567 N   0  0  0  0  0  0  0  0  0  0  0  0
  1  2  3  0
  2  3  1  0
  3  4  2  0
  4  5  1  0
  5  6  2  0
  6  7  1  0
  7  8  1  0
  8  9  1  0
  9 10  2  0
  9 11  1  0
 11 12  2  0
 12 13  1  0
 13 14  1  0
 13 15  2  0
 15 16  1  0
 16 17  2  0
 17 18  1  0
 18 19  2  0
 19 20  1  0
 20 21  1  0
 21 22  1  0
 22 23  1  0
 23 24  1  0
  7 25  2  0
 25  3  1  0
 17 11  1  0
 24 21  1  0
 20 16  1  0
M  END
>  <smiles>  (2792) 
C41958-P304

>  <fragmenstein_outcome>  (2792) 
acceptable

>  <inchikey>  (2792) 
HKPJLMOZYXCBEY-UHFFFAOYSA-N

>  <fragmenstein_mode>  (2792) 
expansion

>  <HIPPO Pose ID>  (2792) 
30138

>  <Energy>  (2792) 
-8.191815

>  <fragmenstein_error>  (2792) 


>  <tags>  (2792) 
{'openbind_xx01zvns2b_c1_fragmenstein', 'fragmenstein_placed'}

>  <ref_pdb>  (2792) 
175

>  <scratch_subdir>  (2792) 
/opt/xchem-fragalysis-2/maxwin/BulkDock/SCRATCH/511028/C41958-P304

>  <alias>  (2792) 
N#Cc1ccnc(NC(=O)c2cc(F)cc3c2cnn3C2CNC2)n1

>  <HIPPO Compound ID>  (2792) 
43291

>  <fragmenstein_runtime>  (2792) 
3.063386

$$$$
O=C(Nc1ccc(C2CNC2)cc1)[C@H]1C[C@@H](Cl)CC2=C1CNN2C1CNC1
     RDKit          3D

 27 31  0  0  0  0  0  0  0  0999 V2000
   -7.1635    6.4993  -13.5368 O   0  0  0  0  0  0  0  0  0  0  0  0
   -7.5231    5.4049  -13.7469 C   0  0  0  0  0  0  0  0  0  0  0  0
   -8.1195    4.3307  -12.7781 N   0  0  0  0  0  0  0  0  0  0  0  0
   -8.2936    4.3573  -11.4068 C   0  0  0  0  0  0  0  0  0  0  0  0
   -8.5905    3.1514  -10.7796 C   0  0  0  0  0  0  0  0  0  0  0  0
   -8.5977    3.0778   -9.3908 C   0  0  0  0  0  0  0  0  0  0  0  0
   -8.3326    4.2039   -8.5916 C   0  0  0  0  0  0  0  0  0  0  0  0
   -8.1578    4.0817   -7.0371 C   0  0  0  0  0  0  0  0  0  0  0  0
   -8.9137    5.0163   -6.0699 C   0  0  0  0  0  0  0  0  0  0  0  0
   -8.9115    3.8982   -5.0911 N   0  0  0  0  0  0  0  0  0  0  0  0
   -8.9022    2.9711   -6.2580 C   0  0  0  0  0  0  0  0  0  0  0  0
   -8.1201    5.4237   -9.2634 C   0  0  0  0  0  0  0  0  0  0  0  0
   -8.0924    5.5050  -10.6566 C   0  0  0  0  0  0  0  0  0  0  0  0
   -7.4067    4.6835  -15.0990 C   0  0  1  0  0  0  0  0  0  0  0  0
   -8.7770    4.6355  -15.7573 C   0  0  0  0  0  0  0  0  0  0  0  0
   -8.7276    4.1782  -17.2136 C   0  0  1  0  0  0  0  0  0  0  0  0
  -10.3470    4.3831  -17.9125 Cl  0  0  0  0  0  0  0  0  0  0  0  0
   -7.6611    4.8472  -18.0969 C   0  0  0  0  0  0  0  0  0  0  0  0
   -6.4427    5.2554  -17.3383 C   0  0  0  0  0  0  0  0  0  0  0  0
   -6.3580    5.2030  -16.0072 C   0  0  0  0  0  0  0  0  0  0  0  0
   -4.9834    5.5618  -15.5931 C   0  0  0  0  0  0  0  0  0  0  0  0
   -4.2540    5.7762  -16.8654 N   0  0  0  0  0  0  0  0  0  0  0  0
   -5.2398    5.6583  -17.9028 N   0  0  0  0  0  0  0  0  0  0  0  0
   -4.8235    5.3586  -19.2595 C   0  0  0  0  0  0  0  0  0  0  0  0
   -4.9060    6.5645  -20.2177 C   0  0  0  0  0  0  0  0  0  0  0  0
   -3.6006    6.1468  -20.8047 N   0  0  0  0  0  0  0  0  0  0  0  0
   -3.2983    5.4529  -19.5321 C   0  0  0  0  0  0  0  0  0  0  0  0
  1  2  2  0
  2  3  1  0
  3  4  1  0
  4  5  2  0
  5  6  1  0
  6  7  2  0
  7  8  1  0
  8  9  1  0
  9 10  1  0
 10 11  1  0
  7 12  1  0
 12 13  2  0
 14  2  1  1
 14 15  1  0
 15 16  1  0
 16 17  1  6
 16 18  1  0
 18 19  1  0
 19 20  2  0
 20 21  1  0
 21 22  1  0
 22 23  1  0
 23 24  1  0
 24 25  1  0
 25 26  1  0
 26 27  1  0
 13  4  1  0
 20 14  1  0
 27 24  1  0
 11  8  1  0
 23 19  1  0
M  END
>  <smiles>  (2793) 
C41991-P304

>  <fragmenstein_outcome>  (2793) 
acceptable

>  <inchikey>  (2793) 
PFVGDCLQPPZHFN-UHFFFAOYSA-N

>  <fragmenstein_mode>  (2793) 
expansion

>  <HIPPO Pose ID>  (2793) 
30154

>  <Energy>  (2793) 
114.873581

>  <fragmenstein_error>  (2793) 


>  <tags>  (2793) 
{'openbind_xx01zvns2b_c1_fragmenstein', 'fragmenstein_placed'}

>  <ref_pdb>  (2793) 
175

>  <scratch_subdir>  (2793) 
/opt/xchem-fragalysis-2/maxwin/BulkDock/SCRATCH/511028/C41991-P304

>  <alias>  (2793) 
O=C(Nc1ccc(C2CNC2)cc1)[C@H]1C[C@@H](Cl)CC2=C1CNN2C1CNC1

>  <HIPPO Compound ID>  (2793) 
41991

>  <fragmenstein_runtime>  (2793) 
10.386329

$$$$
O=C(Nc1ccc(C2CNC2)cc1)c1cc(CO)cc2c1cnn2C1CNC1
     RDKit          3D

 28 32  0  0  0  0  0  0  0  0999 V2000
   -6.8593    6.7144  -13.0933 O   0  0  0  0  0  0  0  0  0  0  0  0
   -7.2048    5.6676  -13.4715 C   0  0  0  0  0  0  0  0  0  0  0  0
   -7.7624    4.4605  -12.6963 N   0  0  0  0  0  0  0  0  0  0  0  0
   -8.0878    4.3243  -11.3619 C   0  0  0  0  0  0  0  0  0  0  0  0
   -8.7009    3.1393  -10.9936 C   0  0  0  0  0  0  0  0  0  0  0  0
   -8.9655    2.8924   -9.6581 C   0  0  0  0  0  0  0  0  0  0  0  0
   -8.5822    3.7844   -8.6404 C   0  0  0  0  0  0  0  0  0  0  0  0
   -8.6104    3.3474   -7.1203 C   0  0  0  0  0  0  0  0  0  0  0  0
   -9.8208    3.5492   -6.1968 C   0  0  0  0  0  0  0  0  0  0  0  0
  -10.2511    2.1715   -6.4887 N   0  0  0  0  0  0  0  0  0  0  0  0
   -8.8592    1.8475   -6.8360 C   0  0  0  0  0  0  0  0  0  0  0  0
   -8.0428    5.0151   -9.0580 C   0  0  0  0  0  0  0  0  0  0  0  0
   -7.7999    5.2895  -10.4074 C   0  0  0  0  0  0  0  0  0  0  0  0
   -7.1801    5.3620  -14.9185 C   0  0  0  0  0  0  0  0  0  0  0  0
   -8.2796    4.7330  -15.5356 C   0  0  0  0  0  0  0  0  0  0  0  0
   -8.3079    4.5228  -16.9132 C   0  0  0  0  0  0  0  0  0  0  0  0
   -9.5226    3.9317  -17.5653 C   0  0  0  0  0  0  0  0  0  0  0  0
   -9.8230    4.6566  -18.7367 O   0  0  0  0  0  0  0  0  0  0  0  0
   -7.2222    4.9224  -17.6980 C   0  0  0  0  0  0  0  0  0  0  0  0
   -6.1572    5.5806  -17.0726 C   0  0  0  0  0  0  0  0  0  0  0  0
   -6.1041    5.8009  -15.7042 C   0  0  0  0  0  0  0  0  0  0  0  0
   -4.8909    6.5000  -15.5077 C   0  0  0  0  0  0  0  0  0  0  0  0
   -4.2399    6.7403  -16.6506 N   0  0  0  0  0  0  0  0  0  0  0  0
   -5.0327    6.1814  -17.5813 N   0  0  0  0  0  0  0  0  0  0  0  0
   -4.8218    6.2971  -19.0256 C   0  0  0  0  0  0  0  0  0  0  0  0
   -4.4854    4.9282  -19.6057 C   0  0  0  0  0  0  0  0  0  0  0  0
   -3.5488    5.5960  -20.5513 N   0  0  0  0  0  0  0  0  0  0  0  0
   -3.4107    6.6615  -19.5047 C   0  0  0  0  0  0  0  0  0  0  0  0
  1  2  2  0
  2  3  1  0
  3  4  1  0
  4  5  2  0
  5  6  1  0
  6  7  2  0
  7  8  1  0
  8  9  1  0
  9 10  1  0
 10 11  1  0
  7 12  1  0
 12 13  2  0
  2 14  1  0
 14 15  2  0
 15 16  1  0
 16 17  1  0
 17 18  1  0
 16 19  2  0
 19 20  1  0
 20 21  2  0
 21 22  1  0
 22 23  2  0
 23 24  1  0
 24 25  1  0
 25 26  1  0
 26 27  1  0
 27 28  1  0
 13  4  1  0
 21 14  1  0
 28 25  1  0
 11  8  1  0
 24 20  1  0
M  END
>  <smiles>  (2794) 
C42010-P304

>  <fragmenstein_outcome>  (2794) 
acceptable

>  <inchikey>  (2794) 
VJTJNCDLDLXJFH-UHFFFAOYSA-N

>  <fragmenstein_mode>  (2794) 
expansion

>  <HIPPO Pose ID>  (2794) 
30165

>  <Energy>  (2794) 
101.392162

>  <fragmenstein_error>  (2794) 


>  <tags>  (2794) 
{'openbind_xx01zvns2b_c1_fragmenstein', 'fragmenstein_placed'}

>  <ref_pdb>  (2794) 
175

>  <scratch_subdir>  (2794) 
/opt/xchem-fragalysis-2/maxwin/BulkDock/SCRATCH/511028/C42010-P304

>  <alias>  (2794) 
O=C(Nc1ccc(C2CNC2)cc1)c1cc(CO)cc2c1cnn2C1CNC1

>  <HIPPO Compound ID>  (2794) 
29668

>  <fragmenstein_runtime>  (2794) 
8.468878

$$$$
O=C(Nc1ccccn1)c1cc(Cl)cc2c1[C@@H](O)[C@]1(CSCN1)N2C1CNC1
     RDKit          3D

 28 32  0  0  0  0  0  0  0  0999 V2000
   -6.9493    6.5692  -13.6704 O   0  0  0  0  0  0  0  0  0  0  0  0
   -7.2514    5.4799  -13.9542 C   0  0  0  0  0  0  0  0  0  0  0  0
   -7.6852    4.3025  -13.0666 N   0  0  0  0  0  0  0  0  0  0  0  0
   -7.9204    4.2428  -11.7130 C   0  0  0  0  0  0  0  0  0  0  0  0
   -7.8598    5.3678  -10.9058 C   0  0  0  0  0  0  0  0  0  0  0  0
   -8.1140    5.2195   -9.5455 C   0  0  0  0  0  0  0  0  0  0  0  0
   -8.4127    3.9584   -9.0438 C   0  0  0  0  0  0  0  0  0  0  0  0
   -8.4579    2.8960   -9.9298 C   0  0  0  0  0  0  0  0  0  0  0  0
   -8.2244    3.0177  -11.2539 N   0  0  0  0  0  0  0  0  0  0  0  0
   -7.2843    5.1019  -15.3814 C   0  0  0  0  0  0  0  0  0  0  0  0
   -8.4600    4.5852  -15.9176 C   0  0  0  0  0  0  0  0  0  0  0  0
   -8.5463    4.3839  -17.2916 C   0  0  0  0  0  0  0  0  0  0  0  0
  -10.0533    3.9325  -17.9458 Cl  0  0  0  0  0  0  0  0  0  0  0  0
   -7.4761    4.6664  -18.1390 C   0  0  0  0  0  0  0  0  0  0  0  0
   -6.3022    5.1643  -17.5929 C   0  0  0  0  0  0  0  0  0  0  0  0
   -6.2110    5.3738  -16.2213 C   0  0  0  0  0  0  0  0  0  0  0  0
   -4.8534    5.8788  -15.8668 C   0  0  1  0  0  0  0  0  0  0  0  0
   -4.1629    4.9512  -15.0069 O   0  0  0  0  0  0  0  0  0  0  0  0
   -4.1210    5.9930  -17.3064 C   0  0  1  0  0  0  0  0  0  0  0  0
   -3.8315    7.5032  -17.5772 C   0  0  0  0  0  0  0  0  0  0  0  0
   -2.0684    7.6296  -17.9316 S   0  0  0  0  0  0  0  0  0  0  0  0
   -1.7342    6.1443  -16.9917 C   0  0  0  0  0  0  0  0  0  0  0  0
   -2.8429    5.2408  -17.2203 N   0  0  0  0  0  0  0  0  0  0  0  0
   -5.1324    5.5180  -18.2940 N   0  0  0  0  0  0  0  0  0  0  0  0
   -4.9057    5.2536  -19.7001 C   0  0  0  0  0  0  0  0  0  0  0  0
   -3.4703    5.2324  -20.2495 C   0  0  0  0  0  0  0  0  0  0  0  0
   -3.6601    6.5608  -20.8591 N   0  0  0  0  0  0  0  0  0  0  0  0
   -5.1158    6.4684  -20.6254 C   0  0  0  0  0  0  0  0  0  0  0  0
  1  2  2  0
  2  3  1  0
  3  4  1  0
  4  5  2  0
  5  6  1  0
  6  7  2  0
  7  8  1  0
  8  9  2  0
  2 10  1  0
 10 11  2  0
 11 12  1  0
 12 13  1  0
 12 14  2  0
 14 15  1  0
 15 16  2  0
 16 17  1  0
 17 18  1  1
 17 19  1  0
 19 20  1  6
 20 21  1  0
 21 22  1  0
 22 23  1  0
 19 24  1  0
 24 25  1  0
 25 26  1  0
 26 27  1  0
 27 28  1  0
  9  4  1  0
 16 10  1  0
 23 19  1  0
 28 25  1  0
 24 15  1  0
M  END
>  <smiles>  (2795) 
C42203-P305

>  <fragmenstein_outcome>  (2795) 
acceptable

>  <inchikey>  (2795) 
PPHDWVYOCZABLE-UHFFFAOYSA-N

>  <fragmenstein_mode>  (2795) 
expansion

>  <HIPPO Pose ID>  (2795) 
30242

>  <Energy>  (2795) 
68.945156

>  <fragmenstein_error>  (2795) 


>  <tags>  (2795) 
{'openbind_xx01zvns2b_c1_fragmenstein', 'fragmenstein_placed'}

>  <ref_pdb>  (2795) 
175

>  <scratch_subdir>  (2795) 
/opt/xchem-fragalysis-2/maxwin/BulkDock/SCRATCH/511028/C42203-P305

>  <alias>  (2795) 
O=C(Nc1ccccn1)c1cc(Cl)cc2c1[C@@H](O)[C@]1(CSCN1)N2C1CNC1

>  <HIPPO Compound ID>  (2795) 
42203

>  <fragmenstein_runtime>  (2795) 
6.223976

$$$$
CC1(n2ncc3c(C(=O)Nc4ccncn4)cc(F)cc32)CNC1
     RDKit          3D

 24 27  0  0  0  0  0  0  0  0999 V2000
   -5.6661    5.3201  -20.0766 C   0  0  0  0  0  0  0  0  0  0  0  0
   -4.6148    5.4815  -19.0065 C   0  0  0  0  0  0  0  0  0  0  0  0
   -5.0894    5.2288  -17.6067 N   0  0  0  0  0  0  0  0  0  0  0  0
   -4.2715    5.5277  -16.5670 N   0  0  0  0  0  0  0  0  0  0  0  0
   -5.0532    5.4564  -15.4947 C   0  0  0  0  0  0  0  0  0  0  0  0
   -6.3547    5.0197  -15.7994 C   0  0  0  0  0  0  0  0  0  0  0  0
   -7.5276    4.7805  -15.0540 C   0  0  0  0  0  0  0  0  0  0  0  0
   -7.5814    5.2219  -13.6440 C   0  0  0  0  0  0  0  0  0  0  0  0
   -7.2991    6.3326  -13.4246 O   0  0  0  0  0  0  0  0  0  0  0  0
   -8.0643    4.1070  -12.6949 N   0  0  0  0  0  0  0  0  0  0  0  0
   -8.2057    4.0970  -11.3148 C   0  0  0  0  0  0  0  0  0  0  0  0
   -8.5490    2.9235  -10.6802 C   0  0  0  0  0  0  0  0  0  0  0  0
   -8.6623    2.9899   -9.3088 C   0  0  0  0  0  0  0  0  0  0  0  0
   -8.4786    4.1223   -8.6049 N   0  0  0  0  0  0  0  0  0  0  0  0
   -8.1480    5.1986   -9.3272 C   0  0  0  0  0  0  0  0  0  0  0  0
   -7.9938    5.2443  -10.6554 N   0  0  0  0  0  0  0  0  0  0  0  0
   -8.6651    4.2825  -15.6896 C   0  0  0  0  0  0  0  0  0  0  0  0
   -8.6479    4.0740  -17.0568 C   0  0  0  0  0  0  0  0  0  0  0  0
   -9.7618    3.6450  -17.6681 F   0  0  0  0  0  0  0  0  0  0  0  0
   -7.5179    4.3476  -17.8288 C   0  0  0  0  0  0  0  0  0  0  0  0
   -6.3566    4.8249  -17.1865 C   0  0  0  0  0  0  0  0  0  0  0  0
   -3.8758    6.8450  -19.1334 C   0  0  0  0  0  0  0  0  0  0  0  0
   -2.8730    6.1661  -19.9907 N   0  0  0  0  0  0  0  0  0  0  0  0
   -3.2185    4.8857  -19.3184 C   0  0  0  0  0  0  0  0  0  0  0  0
  1  2  1  0
  2  3  1  0
  3  4  1  0
  4  5  2  0
  5  6  1  0
  6  7  2  0
  7  8  1  0
  8  9  2  0
  8 10  1  0
 10 11  1  0
 11 12  2  0
 12 13  1  0
 13 14  2  0
 14 15  1  0
 15 16  2  0
  7 17  1  0
 17 18  2  0
 18 19  1  0
 18 20  1  0
 20 21  2  0
  2 22  1  0
 22 23  1  0
 23 24  1  0
 24  2  1  0
 21  3  1  0
 21  6  1  0
 16 11  1  0
M  END
>  <smiles>  (2796) 
C42365-P306

>  <fragmenstein_outcome>  (2796) 
acceptable

>  <inchikey>  (2796) 
VGBLDGXRCWPURX-UHFFFAOYSA-N

>  <fragmenstein_mode>  (2796) 
expansion

>  <HIPPO Pose ID>  (2796) 
30315

>  <Energy>  (2796) 
10.21374

>  <fragmenstein_error>  (2796) 


>  <tags>  (2796) 
{'openbind_xx01zvns2b_c1_fragmenstein', 'fragmenstein_placed'}

>  <ref_pdb>  (2796) 
175

>  <scratch_subdir>  (2796) 
/opt/xchem-fragalysis-2/maxwin/BulkDock/SCRATCH/511028/C42365-P306

>  <alias>  (2796) 
CC1(n2ncc3c(C(=O)Nc4ccncn4)cc(F)cc32)CNC1

>  <HIPPO Compound ID>  (2796) 
35756

>  <fragmenstein_runtime>  (2796) 
8.722045

$$$$
NCCc1nccc(NC(=O)c2cc(F)cc3c2cnn3[C@@]2(O)CN[C@H]2Cc2ccccc2)n1
     RDKit          3D

 34 38  0  0  0  0  0  0  0  0999 V2000
   -9.0090    3.2527   -6.4357 N   0  0  0  0  0  0  0  0  0  0  0  0
   -9.5621    2.3437   -7.4393 C   0  0  0  0  0  0  0  0  0  0  0  0
   -8.7854    2.2573   -8.7597 C   0  0  0  0  0  0  0  0  0  0  0  0
   -8.6172    3.5344   -9.5447 C   0  0  0  0  0  0  0  0  0  0  0  0
   -8.4914    4.6945   -8.8633 N   0  0  0  0  0  0  0  0  0  0  0  0
   -8.2101    5.7892   -9.5832 C   0  0  0  0  0  0  0  0  0  0  0  0
   -8.0465    5.7734  -10.9426 C   0  0  0  0  0  0  0  0  0  0  0  0
   -8.2064    4.5522  -11.5574 C   0  0  0  0  0  0  0  0  0  0  0  0
   -8.0488    4.4467  -12.9290 N   0  0  0  0  0  0  0  0  0  0  0  0
   -7.7215    5.5205  -13.9847 C   0  0  0  0  0  0  0  0  0  0  0  0
   -7.4568    6.6503  -13.8581 O   0  0  0  0  0  0  0  0  0  0  0  0
   -7.7306    4.9968  -15.3659 C   0  0  0  0  0  0  0  0  0  0  0  0
   -8.8708    4.4075  -15.9132 C   0  0  0  0  0  0  0  0  0  0  0  0
   -8.9361    4.1657  -17.2769 C   0  0  0  0  0  0  0  0  0  0  0  0
  -10.0589    3.6601  -17.8051 F   0  0  0  0  0  0  0  0  0  0  0  0
   -7.8783    4.4711  -18.1278 C   0  0  0  0  0  0  0  0  0  0  0  0
   -6.7143    5.0177  -17.5631 C   0  0  0  0  0  0  0  0  0  0  0  0
   -6.6276    5.2764  -16.1958 C   0  0  0  0  0  0  0  0  0  0  0  0
   -5.3453    5.8278  -16.0152 C   0  0  0  0  0  0  0  0  0  0  0  0
   -4.6576    5.9110  -17.1501 N   0  0  0  0  0  0  0  0  0  0  0  0
   -5.5019    5.4321  -18.0899 N   0  0  0  0  0  0  0  0  0  0  0  0
   -5.2002    5.4418  -19.5590 C   0  0  1  0  0  0  0  0  0  0  0  0
   -5.9328    4.4588  -20.3560 O   0  0  0  0  0  0  0  0  0  0  0  0
   -5.2643    6.8920  -20.1291 C   0  0  0  0  0  0  0  0  0  0  0  0
   -4.1415    6.5336  -21.0391 N   0  0  0  0  0  0  0  0  0  0  0  0
   -3.6569    5.5950  -19.9512 C   0  0  1  0  0  0  0  0  0  0  0  0
   -2.5888    6.2623  -19.0592 C   0  0  0  0  0  0  0  0  0  0  0  0
   -1.3636    6.6951  -19.8367 C   0  0  0  0  0  0  0  0  0  0  0  0
   -0.2524    5.8563  -19.9505 C   0  0  0  0  0  0  0  0  0  0  0  0
    0.8819    6.2744  -20.6511 C   0  0  0  0  0  0  0  0  0  0  0  0
    0.9165    7.5321  -21.2487 C   0  0  0  0  0  0  0  0  0  0  0  0
   -0.1851    8.3763  -21.1451 C   0  0  0  0  0  0  0  0  0  0  0  0
   -1.3170    7.9605  -20.4423 C   0  0  0  0  0  0  0  0  0  0  0  0
   -8.4877    3.4262  -10.8873 N   0  0  0  0  0  0  0  0  0  0  0  0
  1  2  1  0
  2  3  1  0
  3  4  1  0
  4  5  2  0
  5  6  1  0
  6  7  2  0
  7  8  1  0
  8  9  1  0
  9 10  1  0
 10 11  2  0
 10 12  1  0
 12 13  2  0
 13 14  1  0
 14 15  1  0
 14 16  2  0
 16 17  1  0
 17 18  2  0
 18 19  1  0
 19 20  2  0
 20 21  1  0
 21 22  1  0
 22 23  1  6
 22 24  1  0
 24 25  1  0
 25 26  1  0
 26 27  1  1
 27 28  1  0
 28 29  2  0
 29 30  1  0
 30 31  2  0
 31 32  1  0
 32 33  2  0
  8 34  2  0
 34  4  1  0
 18 12  1  0
 26 22  1  0
 33 28  1  0
 21 17  1  0
M  END
>  <smiles>  (2797) 
C42447-P307

>  <fragmenstein_outcome>  (2797) 
acceptable

>  <inchikey>  (2797) 
KBKYKFFJUJYVGT-UHFFFAOYSA-N

>  <fragmenstein_mode>  (2797) 
expansion

>  <HIPPO Pose ID>  (2797) 
30328

>  <Energy>  (2797) 
92.507059

>  <fragmenstein_error>  (2797) 


>  <tags>  (2797) 
{'openbind_xx01zvns2b_c1_fragmenstein', 'fragmenstein_placed'}

>  <ref_pdb>  (2797) 
175

>  <scratch_subdir>  (2797) 
/opt/xchem-fragalysis-2/maxwin/BulkDock/SCRATCH/511028/C42447-P307

>  <alias>  (2797) 
NCCc1nccc(NC(=O)c2cc(F)cc3c2cnn3[C@@]2(O)CN[C@H]2Cc2ccccc2)n1

>  <HIPPO Compound ID>  (2797) 
31796

>  <fragmenstein_runtime>  (2797) 
6.220231

$$$$
NCc1nccc(NC(=O)c2cc(F)cc3c2c[n+]([O-])n3C2CNC2)n1
     RDKit          3D

 26 29  0  0  0  0  0  0  0  0999 V2000
   -8.1494    1.5460   -8.4943 N   0  0  0  0  0  0  0  0  0  0  0  0
   -9.1763    2.4654   -8.9562 C   0  0  0  0  0  0  0  0  0  0  0  0
   -8.6661    3.6611   -9.7332 C   0  0  0  0  0  0  0  0  0  0  0  0
   -8.3631    4.7710   -9.0227 N   0  0  0  0  0  0  0  0  0  0  0  0
   -7.9817    5.8421   -9.7293 C   0  0  0  0  0  0  0  0  0  0  0  0
   -7.8879    5.8466  -11.0970 C   0  0  0  0  0  0  0  0  0  0  0  0
   -8.1932    4.6626  -11.7308 C   0  0  0  0  0  0  0  0  0  0  0  0
   -8.1227    4.5745  -13.1095 N   0  0  0  0  0  0  0  0  0  0  0  0
   -7.6366    5.5965  -14.1539 C   0  0  0  0  0  0  0  0  0  0  0  0
   -7.2901    6.7035  -14.0251 O   0  0  0  0  0  0  0  0  0  0  0  0
   -7.6025    5.0470  -15.5318 C   0  0  0  0  0  0  0  0  0  0  0  0
   -8.7372    4.4648  -16.1054 C   0  0  0  0  0  0  0  0  0  0  0  0
   -8.7605    4.1917  -17.4667 C   0  0  0  0  0  0  0  0  0  0  0  0
   -9.8750    3.6777  -18.0079 F   0  0  0  0  0  0  0  0  0  0  0  0
   -7.6710    4.4623  -18.2968 C   0  0  0  0  0  0  0  0  0  0  0  0
   -6.5167    4.9946  -17.7068 C   0  0  0  0  0  0  0  0  0  0  0  0
   -6.4486    5.2938  -16.3199 C   0  0  0  0  0  0  0  0  0  0  0  0
   -5.1475    5.8576  -15.9967 C   0  0  0  0  0  0  0  0  0  0  0  0
   -4.4484    5.9192  -17.1379 N   0  0  0  0  0  0  0  0  0  0  0  0
   -3.3032    6.3810  -17.3378 O   0  0  0  0  0  0  0  0  0  0  0  0
   -5.2821    5.3801  -18.2119 N   0  0  0  0  0  0  0  0  0  0  0  0
   -4.9571    5.3378  -19.6474 C   0  0  0  0  0  0  0  0  0  0  0  0
   -4.9155    6.7309  -20.3010 C   0  0  0  0  0  0  0  0  0  0  0  0
   -3.8111    6.2289  -21.1638 N   0  0  0  0  0  0  0  0  0  0  0  0
   -3.4732    5.2750  -20.0672 C   0  0  0  0  0  0  0  0  0  0  0  0
   -8.5697    3.5589  -11.0774 N   0  0  0  0  0  0  0  0  0  0  0  0
  1  2  1  0
  2  3  1  0
  3  4  2  0
  4  5  1  0
  5  6  2  0
  6  7  1  0
  7  8  1  0
  8  9  1  0
  9 10  2  0
  9 11  1  0
 11 12  2  0
 12 13  1  0
 13 14  1  0
 13 15  2  0
 15 16  1  0
 16 17  2  0
 17 18  1  0
 18 19  2  0
 19 20  1  0
 19 21  1  0
 21 22  1  0
 22 23  1  0
 23 24  1  0
 24 25  1  0
  7 26  2  0
 26  3  1  0
 17 11  1  0
 25 22  1  0
 21 16  1  0
M  CHG  2  19   1  20  -1
M  END
>  <smiles>  (2798) 
C42496-P307

>  <fragmenstein_outcome>  (2798) 
acceptable

>  <inchikey>  (2798) 
QNQQGBAQASHZEK-UHFFFAOYSA-N

>  <fragmenstein_mode>  (2798) 
expansion

>  <HIPPO Pose ID>  (2798) 
30336

>  <Energy>  (2798) 
28.916597

>  <fragmenstein_error>  (2798) 


>  <tags>  (2798) 
{'openbind_xx01zvns2b_c1_fragmenstein', 'fragmenstein_placed'}

>  <ref_pdb>  (2798) 
175

>  <scratch_subdir>  (2798) 
/opt/xchem-fragalysis-2/maxwin/BulkDock/SCRATCH/511028/C42496-P307

>  <alias>  (2798) 
NCc1nccc(NC(=O)c2cc(F)cc3c2c[n+]([O-])n3C2CNC2)n1

>  <HIPPO Compound ID>  (2798) 
42496

>  <fragmenstein_runtime>  (2798) 
3.488372

$$$$
NCN1CC[C@@H](NC(=O)c2cc(F)cc3c2c[n+]([O-])n3C2CNC2)NC1
     RDKit          3D

 26 29  0  0  0  0  0  0  0  0999 V2000
   -8.4898    5.5765   -6.9950 N   0  0  0  0  0  0  0  0  0  0  0  0
   -8.2900    4.2878   -7.6265 C   0  0  0  0  0  0  0  0  0  0  0  0
   -8.2907    4.5053   -9.0632 N   0  0  0  0  0  0  0  0  0  0  0  0
   -7.0230    5.0535   -9.5513 C   0  0  0  0  0  0  0  0  0  0  0  0
   -7.1309    5.3795  -11.0372 C   0  0  0  0  0  0  0  0  0  0  0  0
   -8.2955    4.6283  -11.6646 C   0  0  1  0  0  0  0  0  0  0  0  0
   -8.1754    4.5423  -13.0830 N   0  0  0  0  0  0  0  0  0  0  0  0
   -7.8747    5.6242  -14.1231 C   0  0  0  0  0  0  0  0  0  0  0  0
   -7.7516    6.7745  -14.0011 O   0  0  0  0  0  0  0  0  0  0  0  0
   -7.7457    5.0728  -15.4931 C   0  0  0  0  0  0  0  0  0  0  0  0
   -8.8210    4.4055  -16.0867 C   0  0  0  0  0  0  0  0  0  0  0  0
   -8.8020    4.1313  -17.4464 C   0  0  0  0  0  0  0  0  0  0  0  0
   -9.8738    3.5553  -18.0099 F   0  0  0  0  0  0  0  0  0  0  0  0
   -7.7143    4.4644  -18.2530 C   0  0  0  0  0  0  0  0  0  0  0  0
   -6.6192    5.0900  -17.6433 C   0  0  0  0  0  0  0  0  0  0  0  0
   -6.6047    5.4129  -16.2596 C   0  0  0  0  0  0  0  0  0  0  0  0
   -5.3802    6.1196  -15.9258 C   0  0  0  0  0  0  0  0  0  0  0  0
   -4.6803    6.2532  -17.0610 N   0  0  0  0  0  0  0  0  0  0  0  0
   -3.6480    6.9297  -17.2696 O   0  0  0  0  0  0  0  0  0  0  0  0
   -5.4143    5.5726  -18.1308 N   0  0  0  0  0  0  0  0  0  0  0  0
   -5.0105    5.4328  -19.5393 C   0  0  0  0  0  0  0  0  0  0  0  0
   -4.8986    6.7659  -20.2977 C   0  0  0  0  0  0  0  0  0  0  0  0
   -3.7435    6.1779  -21.0345 N   0  0  0  0  0  0  0  0  0  0  0  0
   -3.5044    5.3151  -19.8400 C   0  0  0  0  0  0  0  0  0  0  0  0
   -8.3467    3.2786  -11.1868 N   0  0  0  0  0  0  0  0  0  0  0  0
   -8.5442    3.2157   -9.7364 C   0  0  0  0  0  0  0  0  0  0  0  0
  1  2  1  0
  2  3  1  0
  3  4  1  0
  4  5  1  0
  5  6  1  0
  6  7  1  6
  7  8  1  0
  8  9  2  0
  8 10  1  0
 10 11  2  0
 11 12  1  0
 12 13  1  0
 12 14  2  0
 14 15  1  0
 15 16  2  0
 16 17  1  0
 17 18  2  0
 18 19  1  0
 18 20  1  0
 20 21  1  0
 21 22  1  0
 22 23  1  0
 23 24  1  0
  6 25  1  0
 25 26  1  0
 26  3  1  0
 16 10  1  0
 24 21  1  0
 20 15  1  0
M  CHG  2  18   1  19  -1
M  END
>  <smiles>  (2799) 
C42498-P307

>  <fragmenstein_outcome>  (2799) 
acceptable

>  <inchikey>  (2799) 
YIDYBPJGQOGVPH-UHFFFAOYSA-N

>  <fragmenstein_mode>  (2799) 
expansion

>  <HIPPO Pose ID>  (2799) 
30337

>  <Energy>  (2799) 
-117.298166

>  <fragmenstein_error>  (2799) 


>  <tags>  (2799) 
{'openbind_xx01zvns2b_c1_fragmenstein', 'fragmenstein_placed'}

>  <ref_pdb>  (2799) 
175

>  <scratch_subdir>  (2799) 
/opt/xchem-fragalysis-2/maxwin/BulkDock/SCRATCH/511028/C42498-P307

>  <alias>  (2799) 
NCN1CC[C@@H](NC(=O)c2cc(F)cc3c2c[n+]([O-])n3C2CNC2)NC1

>  <HIPPO Compound ID>  (2799) 
42498

>  <fragmenstein_runtime>  (2799) 
4.258457

$$$$
Cc1cc(NC(=O)c2cc(F)cc3c2c[n+]([O-])n3C2CNC2)nc(CN)n1
     RDKit          3D

 27 30  0  0  0  0  0  0  0  0999 V2000
   -8.1960    7.1014   -8.8090 C   0  0  0  0  0  0  0  0  0  0  0  0
   -8.2631    5.8336   -9.6041 C   0  0  0  0  0  0  0  0  0  0  0  0
   -8.1894    5.8671  -10.9778 C   0  0  0  0  0  0  0  0  0  0  0  0
   -8.2742    4.6565  -11.6294 C   0  0  0  0  0  0  0  0  0  0  0  0
   -8.2240    4.6027  -13.0115 N   0  0  0  0  0  0  0  0  0  0  0  0
   -7.9676    5.7119  -14.0466 C   0  0  0  0  0  0  0  0  0  0  0  0
   -7.8339    6.8620  -13.9052 O   0  0  0  0  0  0  0  0  0  0  0  0
   -7.7826    5.1741  -15.4116 C   0  0  0  0  0  0  0  0  0  0  0  0
   -8.8183    4.5077  -16.0704 C   0  0  0  0  0  0  0  0  0  0  0  0
   -8.6903    4.2023  -17.4191 C   0  0  0  0  0  0  0  0  0  0  0  0
   -9.7291    3.6349  -18.0494 F   0  0  0  0  0  0  0  0  0  0  0  0
   -7.5318    4.4967  -18.1439 C   0  0  0  0  0  0  0  0  0  0  0  0
   -6.4817    5.1263  -17.4598 C   0  0  0  0  0  0  0  0  0  0  0  0
   -6.5825    5.4946  -16.0926 C   0  0  0  0  0  0  0  0  0  0  0  0
   -5.3823    6.2052  -15.6764 C   0  0  0  0  0  0  0  0  0  0  0  0
   -4.5807    6.2794  -16.7463 N   0  0  0  0  0  0  0  0  0  0  0  0
   -3.5163    6.9218  -16.9005 O   0  0  0  0  0  0  0  0  0  0  0  0
   -5.2179    5.5542  -17.8375 N   0  0  0  0  0  0  0  0  0  0  0  0
   -4.5972    5.2033  -19.1177 C   0  0  0  0  0  0  0  0  0  0  0  0
   -4.3189    6.3938  -20.0507 C   0  0  0  0  0  0  0  0  0  0  0  0
   -3.0783    5.6681  -20.4808 N   0  0  0  0  0  0  0  0  0  0  0  0
   -3.0613    5.0322  -19.1315 C   0  0  0  0  0  0  0  0  0  0  0  0
   -8.3990    3.4860  -10.9944 N   0  0  0  0  0  0  0  0  0  0  0  0
   -8.4839    3.5411   -9.6457 C   0  0  0  0  0  0  0  0  0  0  0  0
   -8.6659    2.2195   -8.9101 C   0  0  0  0  0  0  0  0  0  0  0  0
   -9.0276    2.3035   -7.4864 N   0  0  0  0  0  0  0  0  0  0  0  0
   -8.4193    4.6848   -8.9266 N   0  0  0  0  0  0  0  0  0  0  0  0
  1  2  1  0
  2  3  2  0
  3  4  1  0
  4  5  1  0
  5  6  1  0
  6  7  2  0
  6  8  1  0
  8  9  2  0
  9 10  1  0
 10 11  1  0
 10 12  2  0
 12 13  1  0
 13 14  2  0
 14 15  1  0
 15 16  2  0
 16 17  1  0
 16 18  1  0
 18 19  1  0
 19 20  1  0
 20 21  1  0
 21 22  1  0
  4 23  2  0
 23 24  1  0
 24 25  1  0
 25 26  1  0
 24 27  2  0
 27  2  1  0
 14  8  1  0
 22 19  1  0
 18 13  1  0
M  CHG  2  16   1  17  -1
M  END
>  <smiles>  (2800) 
C42506-P84

>  <fragmenstein_outcome>  (2800) 
acceptable

>  <inchikey>  (2800) 
YPBQWXDCTOLUGP-UHFFFAOYSA-N

>  <fragmenstein_mode>  (2800) 
expansion

>  <HIPPO Pose ID>  (2800) 
30341

>  <Energy>  (2800) 
30.415751

>  <fragmenstein_error>  (2800) 


>  <tags>  (2800) 
{'openbind_xx01zvns2b_c1_fragmenstein', 'fragmenstein_placed'}

>  <ref_pdb>  (2800) 
175

>  <scratch_subdir>  (2800) 
/opt/xchem-fragalysis-2/maxwin/BulkDock/SCRATCH/511028/C42506-P84

>  <alias>  (2800) 
Cc1cc(NC(=O)c2cc(F)cc3c2c[n+]([O-])n3C2CNC2)nc(CN)n1

>  <HIPPO Compound ID>  (2800) 
42506

>  <fragmenstein_runtime>  (2800) 
3.267415

$$$$
O=C(N[C@@H]1C[C@@H](F)[C@]23CCC[C@H]2COC[C@@H]3N1)c1cc(F)cc2c1cnn2C1CNC1
     RDKit          3D

 31 36  0  0  0  0  0  0  0  0999 V2000
   -7.3795    6.8438  -14.1637 O   0  0  0  0  0  0  0  0  0  0  0  0
   -7.6495    5.7130  -14.2135 C   0  0  0  0  0  0  0  0  0  0  0  0
   -7.9377    4.7105  -13.0920 N   0  0  0  0  0  0  0  0  0  0  0  0
   -8.0475    4.9023  -11.6852 C   0  0  2  0  0  0  0  0  0  0  0  0
   -6.7511    5.5041  -11.1512 C   0  0  0  0  0  0  0  0  0  0  0  0
   -6.4069    4.9733   -9.7701 C   0  0  1  0  0  0  0  0  0  0  0  0
   -5.5107    5.8227   -9.1992 F   0  0  0  0  0  0  0  0  0  0  0  0
   -7.6491    4.7810   -8.8886 C   0  0  2  0  0  0  0  0  0  0  0  0
   -8.2864    6.1318   -8.5174 C   0  0  0  0  0  0  0  0  0  0  0  0
   -7.4395    6.7067   -7.3853 C   0  0  0  0  0  0  0  0  0  0  0  0
   -6.8160    5.4996   -6.6899 C   0  0  0  0  0  0  0  0  0  0  0  0
   -7.2795    4.2705   -7.4846 C   0  0  1  0  0  0  0  0  0  0  0  0
   -8.4640    3.5777   -6.7859 C   0  0  0  0  0  0  0  0  0  0  0  0
   -9.2007    2.6538   -7.5817 O   0  0  0  0  0  0  0  0  0  0  0  0
   -8.6947    2.4553   -8.9006 C   0  0  0  0  0  0  0  0  0  0  0  0
   -8.6080    3.8032   -9.6337 C   0  0  2  0  0  0  0  0  0  0  0  0
   -8.3204    3.6256  -11.0804 N   0  0  0  0  0  0  0  0  0  0  0  0
   -7.6218    5.0990  -15.5585 C   0  0  0  0  0  0  0  0  0  0  0  0
   -8.7457    4.4931  -16.1212 C   0  0  0  0  0  0  0  0  0  0  0  0
   -8.7526    4.1910  -17.4794 C   0  0  0  0  0  0  0  0  0  0  0  0
   -9.8606    3.6618  -18.0196 F   0  0  0  0  0  0  0  0  0  0  0  0
   -7.6543    4.4483  -18.3079 C   0  0  0  0  0  0  0  0  0  0  0  0
   -6.5086    4.9954  -17.7110 C   0  0  0  0  0  0  0  0  0  0  0  0
   -6.4787    5.3172  -16.3543 C   0  0  0  0  0  0  0  0  0  0  0  0
   -5.1957    5.8611  -16.1411 C   0  0  0  0  0  0  0  0  0  0  0  0
   -4.4503    5.8663  -17.2430 N   0  0  0  0  0  0  0  0  0  0  0  0
   -5.2686    5.3630  -18.1938 N   0  0  0  0  0  0  0  0  0  0  0  0
   -4.8548    5.2619  -19.6056 C   0  0  0  0  0  0  0  0  0  0  0  0
   -4.7930    6.6324  -20.3040 C   0  0  0  0  0  0  0  0  0  0  0  0
   -3.5087    6.2191  -20.9177 N   0  0  0  0  0  0  0  0  0  0  0  0
   -3.3235    5.2474  -19.8177 C   0  0  0  0  0  0  0  0  0  0  0  0
  1  2  2  0
  2  3  1  0
  4  3  1  6
  4  5  1  0
  5  6  1  0
  6  7  1  1
  6  8  1  0
  8  9  1  1
  9 10  1  0
 10 11  1  0
 12 11  1  1
 12 13  1  0
 13 14  1  0
 14 15  1  0
 16 15  1  1
 16 17  1  0
  2 18  1  0
 18 19  2  0
 19 20  1  0
 20 21  1  0
 20 22  2  0
 22 23  1  0
 23 24  2  0
 24 25  1  0
 25 26  2  0
 26 27  1  0
 27 28  1  0
 28 29  1  0
 29 30  1  0
 30 31  1  0
 17  4  1  0
 24 18  1  0
 31 28  1  0
 12  8  1  0
 27 23  1  0
 16  8  1  0
M  END
>  <smiles>  (2801) 
C42545-P307

>  <fragmenstein_outcome>  (2801) 
acceptable

>  <inchikey>  (2801) 
KFKMPDFQTYXPIW-UHFFFAOYSA-N

>  <fragmenstein_mode>  (2801) 
expansion

>  <HIPPO Pose ID>  (2801) 
30355

>  <Energy>  (2801) 
35.004945

>  <fragmenstein_error>  (2801) 


>  <tags>  (2801) 
{'openbind_xx01zvns2b_c1_fragmenstein', 'fragmenstein_placed'}

>  <ref_pdb>  (2801) 
175

>  <scratch_subdir>  (2801) 
/opt/xchem-fragalysis-2/maxwin/BulkDock/SCRATCH/511028/C42545-P307

>  <alias>  (2801) 
O=C(N[C@@H]1C[C@@H](F)[C@]23CCC[C@H]2COC[C@@H]3N1)c1cc(F)cc2c1cnn2C1CNC1

>  <HIPPO Compound ID>  (2801) 
42545

>  <fragmenstein_runtime>  (2801) 
9.949019

$$$$
CCN1CN[C@H](NC(=O)c2cc(F)cc3c2cnn3C2CNC2)C[C@@H]1F
     RDKit          3D

 26 29  0  0  0  0  0  0  0  0999 V2000
   -8.9727    2.8446   -7.0724 C   0  0  0  0  0  0  0  0  0  0  0  0
   -8.3597    4.1226   -7.6505 C   0  0  0  0  0  0  0  0  0  0  0  0
   -7.9020    4.0721   -9.0537 N   0  0  0  0  0  0  0  0  0  0  0  0
   -8.7053    3.1945   -9.8915 C   0  0  0  0  0  0  0  0  0  0  0  0
   -8.2447    3.2152  -11.2723 N   0  0  0  0  0  0  0  0  0  0  0  0
   -8.2668    4.5511  -11.7913 C   0  0  2  0  0  0  0  0  0  0  0  0
   -7.9744    4.4461  -13.1758 N   0  0  0  0  0  0  0  0  0  0  0  0
   -7.6011    5.5231  -14.1987 C   0  0  0  0  0  0  0  0  0  0  0  0
   -7.3974    6.6601  -14.0571 O   0  0  0  0  0  0  0  0  0  0  0  0
   -7.5840    5.0052  -15.5802 C   0  0  0  0  0  0  0  0  0  0  0  0
   -8.7315    4.4394  -16.1470 C   0  0  0  0  0  0  0  0  0  0  0  0
   -8.7716    4.1850  -17.5110 C   0  0  0  0  0  0  0  0  0  0  0  0
   -9.8914    3.6786  -18.0478 F   0  0  0  0  0  0  0  0  0  0  0  0
   -7.6875    4.4632  -18.3455 C   0  0  0  0  0  0  0  0  0  0  0  0
   -6.5290    4.9888  -17.7517 C   0  0  0  0  0  0  0  0  0  0  0  0
   -6.4602    5.2591  -16.3861 C   0  0  0  0  0  0  0  0  0  0  0  0
   -5.1669    5.7840  -16.1874 C   0  0  0  0  0  0  0  0  0  0  0  0
   -4.4514    5.8242  -17.3109 N   0  0  0  0  0  0  0  0  0  0  0  0
   -5.3030    5.3699  -18.2530 N   0  0  0  0  0  0  0  0  0  0  0  0
   -4.9544    5.3030  -19.6785 C   0  0  0  0  0  0  0  0  0  0  0  0
   -4.9516    6.6822  -20.3624 C   0  0  0  0  0  0  0  0  0  0  0  0
   -3.7672    6.2256  -21.1471 N   0  0  0  0  0  0  0  0  0  0  0  0
   -3.4447    5.3307  -19.9948 C   0  0  0  0  0  0  0  0  0  0  0  0
   -7.3381    5.4496  -11.0158 C   0  0  0  0  0  0  0  0  0  0  0  0
   -7.8322    5.4307   -9.5869 C   0  0  2  0  0  0  0  0  0  0  0  0
   -6.9591    6.1602   -8.8372 F   0  0  0  0  0  0  0  0  0  0  0  0
  1  2  1  0
  2  3  1  0
  3  4  1  0
  4  5  1  0
  5  6  1  0
  6  7  1  6
  7  8  1  0
  8  9  2  0
  8 10  1  0
 10 11  2  0
 11 12  1  0
 12 13  1  0
 12 14  2  0
 14 15  1  0
 15 16  2  0
 16 17  1  0
 17 18  2  0
 18 19  1  0
 19 20  1  0
 20 21  1  0
 21 22  1  0
 22 23  1  0
  6 24  1  0
 24 25  1  0
 25 26  1  1
 25  3  1  0
 16 10  1  0
 23 20  1  0
 19 15  1  0
M  END
>  <smiles>  (2802) 
C42546-P307

>  <fragmenstein_outcome>  (2802) 
acceptable

>  <inchikey>  (2802) 
XMGXSRDSLHYZAI-UHFFFAOYSA-N

>  <fragmenstein_mode>  (2802) 
expansion

>  <HIPPO Pose ID>  (2802) 
30356

>  <Energy>  (2802) 
-99.731083

>  <fragmenstein_error>  (2802) 


>  <tags>  (2802) 
{'openbind_xx01zvns2b_c1_fragmenstein', 'fragmenstein_placed'}

>  <ref_pdb>  (2802) 
175

>  <scratch_subdir>  (2802) 
/opt/xchem-fragalysis-2/maxwin/BulkDock/SCRATCH/511028/C42546-P307

>  <alias>  (2802) 
CCN1CN[C@H](NC(=O)c2cc(F)cc3c2cnn3C2CNC2)C[C@@H]1F

>  <HIPPO Compound ID>  (2802) 
42546

>  <fragmenstein_runtime>  (2802) 
4.081486

$$$$
O=C(N[C@H]1NC[C@]2(CCOC2)C[C@H]1F)c1cc(F)cc2c1cnn2C1CNC1
     RDKit          3D

 28 32  0  0  0  0  0  0  0  0999 V2000
   -7.6897    6.8280  -14.2795 O   0  0  0  0  0  0  0  0  0  0  0  0
   -7.8686    5.6926  -14.4354 C   0  0  0  0  0  0  0  0  0  0  0  0
   -8.1949    4.5984  -13.4312 N   0  0  0  0  0  0  0  0  0  0  0  0
   -8.2792    4.6409  -12.0188 C   0  0  1  0  0  0  0  0  0  0  0  0
   -8.4433    3.2599  -11.6740 N   0  0  0  0  0  0  0  0  0  0  0  0
   -8.5202    3.0100  -10.2419 C   0  0  0  0  0  0  0  0  0  0  0  0
   -7.7905    4.0238   -9.3407 C   0  0  1  0  0  0  0  0  0  0  0  0
   -8.6739    5.0420   -8.6526 C   0  0  0  0  0  0  0  0  0  0  0  0
   -7.9130    5.4016   -7.3960 C   0  0  0  0  0  0  0  0  0  0  0  0
   -7.1299    4.2606   -7.0623 O   0  0  0  0  0  0  0  0  0  0  0  0
   -7.2799    3.2934   -8.1167 C   0  0  0  0  0  0  0  0  0  0  0  0
   -6.6238    4.6846  -10.0849 C   0  0  0  0  0  0  0  0  0  0  0  0
   -7.0604    5.3464  -11.3791 C   0  0  1  0  0  0  0  0  0  0  0  0
   -5.9771    5.3414  -12.2145 F   0  0  0  0  0  0  0  0  0  0  0  0
   -7.7494    5.1398  -15.7952 C   0  0  0  0  0  0  0  0  0  0  0  0
   -8.8311    4.5029  -16.4071 C   0  0  0  0  0  0  0  0  0  0  0  0
   -8.7585    4.1786  -17.7520 C   0  0  0  0  0  0  0  0  0  0  0  0
   -9.8255    3.6149  -18.3360 F   0  0  0  0  0  0  0  0  0  0  0  0
   -7.6157    4.4367  -18.5140 C   0  0  0  0  0  0  0  0  0  0  0  0
   -6.5160    5.0195  -17.8633 C   0  0  0  0  0  0  0  0  0  0  0  0
   -6.5659    5.3688  -16.5154 C   0  0  0  0  0  0  0  0  0  0  0  0
   -5.3003    5.9193  -16.2329 C   0  0  0  0  0  0  0  0  0  0  0  0
   -4.4991    5.9287  -17.2972 N   0  0  0  0  0  0  0  0  0  0  0  0
   -5.2562    5.3930  -18.2798 N   0  0  0  0  0  0  0  0  0  0  0  0
   -4.7666    5.2499  -19.6612 C   0  0  0  0  0  0  0  0  0  0  0  0
   -4.6746    6.5935  -20.4042 C   0  0  0  0  0  0  0  0  0  0  0  0
   -3.3655    6.1536  -20.9482 N   0  0  0  0  0  0  0  0  0  0  0  0
   -3.2287    5.2342  -19.7951 C   0  0  0  0  0  0  0  0  0  0  0  0
  1  2  2  0
  2  3  1  0
  4  3  1  6
  4  5  1  0
  5  6  1  0
  7  6  1  6
  7  8  1  0
  8  9  1  0
  9 10  1  0
 10 11  1  0
  7 12  1  0
 12 13  1  0
 13 14  1  6
  2 15  1  0
 15 16  2  0
 16 17  1  0
 17 18  1  0
 17 19  2  0
 19 20  1  0
 20 21  2  0
 21 22  1  0
 22 23  2  0
 23 24  1  0
 24 25  1  0
 25 26  1  0
 26 27  1  0
 27 28  1  0
 13  4  1  0
 21 15  1  0
 28 25  1  0
 11  7  1  0
 24 20  1  0
M  END
>  <smiles>  (2803) 
C40393-P307

>  <fragmenstein_outcome>  (2803) 
acceptable

>  <inchikey>  (2803) 
SVRJLRPXRZGAEF-UHFFFAOYSA-N

>  <fragmenstein_mode>  (2803) 
expansion

>  <HIPPO Pose ID>  (2803) 
30357

>  <Energy>  (2803) 
52.415925

>  <fragmenstein_error>  (2803) 


>  <tags>  (2803) 
{'openbind_xx01zvns2b_c1_fragmenstein', 'fragmenstein_placed'}

>  <ref_pdb>  (2803) 
175

>  <scratch_subdir>  (2803) 
/opt/xchem-fragalysis-2/maxwin/BulkDock/SCRATCH/511028/C40393-P307

>  <alias>  (2803) 
O=C(N[C@H]1NC[C@]2(CCOC2)C[C@H]1F)c1cc(F)cc2c1cnn2C1CNC1

>  <HIPPO Compound ID>  (2803) 
37052

>  <fragmenstein_runtime>  (2803) 
6.936935

$$$$
CO[C@@H]1CC[C@@]2(Cc3c(C(=O)Nc4ccn5cncc5n4)cc(F)cc3N2C2CNC2)NN1
     RDKit          3D

 33 38  0  0  0  0  0  0  0  0999 V2000
   -2.4357   10.7961  -16.1697 C   0  0  0  0  0  0  0  0  0  0  0  0
   -2.1592    9.5203  -16.7338 O   0  0  0  0  0  0  0  0  0  0  0  0
   -2.9025    8.4782  -16.1088 C   0  0  2  0  0  0  0  0  0  0  0  0
   -2.2624    7.1561  -16.5224 C   0  0  0  0  0  0  0  0  0  0  0  0
   -3.0534    5.9549  -15.9991 C   0  0  0  0  0  0  0  0  0  0  0  0
   -4.5904    6.0435  -16.2157 C   0  0  2  0  0  0  0  0  0  0  0  0
   -5.2198    5.1787  -15.0788 C   0  0  0  0  0  0  0  0  0  0  0  0
   -6.5419    4.8962  -15.6963 C   0  0  0  0  0  0  0  0  0  0  0  0
   -7.7493    4.6557  -15.0564 C   0  0  0  0  0  0  0  0  0  0  0  0
   -7.8926    5.0839  -13.6449 C   0  0  0  0  0  0  0  0  0  0  0  0
   -7.5602    6.1824  -13.4061 O   0  0  0  0  0  0  0  0  0  0  0  0
   -8.3987    3.9560  -12.7000 N   0  0  0  0  0  0  0  0  0  0  0  0
   -8.5036    3.9190  -11.3302 C   0  0  0  0  0  0  0  0  0  0  0  0
   -8.1611    5.1863  -10.6082 C   0  0  0  0  0  0  0  0  0  0  0  0
   -8.2442    5.1313   -9.2719 C   0  0  0  0  0  0  0  0  0  0  0  0
   -8.6469    3.9522   -8.6699 N   0  0  0  0  0  0  0  0  0  0  0  0
   -8.8508    3.6614   -7.3481 C   0  0  0  0  0  0  0  0  0  0  0  0
   -9.3022    2.4417   -7.1758 N   0  0  0  0  0  0  0  0  0  0  0  0
   -9.3174    1.8980   -8.4409 C   0  0  0  0  0  0  0  0  0  0  0  0
   -8.9573    2.8205   -9.4043 C   0  0  0  0  0  0  0  0  0  0  0  0
   -8.8732    2.8075  -10.7738 N   0  0  0  0  0  0  0  0  0  0  0  0
   -8.8320    4.2901  -15.8364 C   0  0  0  0  0  0  0  0  0  0  0  0
   -8.6904    4.2345  -17.2264 C   0  0  0  0  0  0  0  0  0  0  0  0
   -9.7590    3.8724  -17.9518 F   0  0  0  0  0  0  0  0  0  0  0  0
   -7.4926    4.5850  -17.8711 C   0  0  0  0  0  0  0  0  0  0  0  0
   -6.3992    4.9257  -17.0925 C   0  0  0  0  0  0  0  0  0  0  0  0
   -5.0721    5.3434  -17.4631 N   0  0  0  0  0  0  0  0  0  0  0  0
   -4.5792    5.7608  -18.7508 C   0  0  0  0  0  0  0  0  0  0  0  0
   -3.2202    5.0900  -19.1119 C   0  0  0  0  0  0  0  0  0  0  0  0
   -3.6668    4.9944  -20.5060 N   0  0  0  0  0  0  0  0  0  0  0  0
   -5.0715    5.0271  -20.0069 C   0  0  0  0  0  0  0  0  0  0  0  0
   -5.0597    7.4374  -15.9406 N   0  0  0  0  0  0  0  0  0  0  0  0
   -4.2865    8.4855  -16.5764 N   0  0  0  0  0  0  0  0  0  0  0  0
  1  2  1  0
  3  2  1  6
  3  4  1  0
  4  5  1  0
  6  5  1  1
  6  7  1  0
  7  8  1  0
  8  9  2  0
  9 10  1  0
 10 11  2  0
 10 12  1  0
 12 13  1  0
 13 14  1  0
 14 15  2  0
 15 16  1  0
 16 17  1  0
 17 18  2  0
 18 19  1  0
 19 20  2  0
 20 21  1  0
  9 22  1  0
 22 23  2  0
 23 24  1  0
 23 25  1  0
 25 26  2  0
 26 27  1  0
 27 28  1  0
 28 29  1  0
 29 30  1  0
 30 31  1  0
  6 32  1  0
 32 33  1  0
 33  3  1  0
 27  6  1  0
 31 28  1  0
 26  8  1  0
 21 13  2  0
 20 16  1  0
M  END
>  <smiles>  (2804) 
C42550-P307

>  <fragmenstein_outcome>  (2804) 
acceptable

>  <inchikey>  (2804) 
VMIBQUVCEDZZGM-UHFFFAOYSA-N

>  <fragmenstein_mode>  (2804) 
expansion

>  <HIPPO Pose ID>  (2804) 
30363

>  <Energy>  (2804) 
118.303574

>  <fragmenstein_error>  (2804) 


>  <tags>  (2804) 
{'openbind_xx01zvns2b_c1_fragmenstein', 'fragmenstein_placed'}

>  <ref_pdb>  (2804) 
175

>  <scratch_subdir>  (2804) 
/opt/xchem-fragalysis-2/maxwin/BulkDock/SCRATCH/511028/C42550-P307

>  <alias>  (2804) 
CO[C@@H]1CC[C@@]2(Cc3c(C(=O)Nc4ccn5cncc5n4)cc(F)cc3N2C2CNC2)NN1

>  <HIPPO Compound ID>  (2804) 
42550

>  <fragmenstein_runtime>  (2804) 
16.81729

$$$$
CNCN1CC[C@H](NC(=O)c2cc(F)cc3c2cnn3C2CNC2)NC1
     RDKit          3D

 26 29  0  0  0  0  0  0  0  0999 V2000
  -10.1548    2.1066   -7.1770 C   0  0  0  0  0  0  0  0  0  0  0  0
   -8.7446    2.3731   -7.1940 N   0  0  0  0  0  0  0  0  0  0  0  0
   -8.3986    3.7172   -7.5840 C   0  0  0  0  0  0  0  0  0  0  0  0
   -8.6245    3.9553   -9.0130 N   0  0  0  0  0  0  0  0  0  0  0  0
   -7.9831    5.2186   -9.3903 C   0  0  0  0  0  0  0  0  0  0  0  0
   -8.0616    5.4757  -10.8859 C   0  0  0  0  0  0  0  0  0  0  0  0
   -7.5674    4.2467  -11.6246 C   0  0  2  0  0  0  0  0  0  0  0  0
   -7.7104    4.3616  -13.0348 N   0  0  0  0  0  0  0  0  0  0  0  0
   -7.2066    5.4366  -14.0016 C   0  0  0  0  0  0  0  0  0  0  0  0
   -6.6592    6.4423  -13.7932 O   0  0  0  0  0  0  0  0  0  0  0  0
   -7.3796    5.0475  -15.4223 C   0  0  0  0  0  0  0  0  0  0  0  0
   -8.5825    4.5764  -15.9555 C   0  0  0  0  0  0  0  0  0  0  0  0
   -8.6827    4.3458  -17.3250 C   0  0  0  0  0  0  0  0  0  0  0  0
   -9.8510    3.9210  -17.8284 F   0  0  0  0  0  0  0  0  0  0  0  0
   -7.6147    4.5689  -18.2018 C   0  0  0  0  0  0  0  0  0  0  0  0
   -6.4036    5.0043  -17.6447 C   0  0  0  0  0  0  0  0  0  0  0  0
   -6.2732    5.2357  -16.2763 C   0  0  0  0  0  0  0  0  0  0  0  0
   -4.9326    5.6391  -16.1043 C   0  0  0  0  0  0  0  0  0  0  0  0
   -4.2520    5.6593  -17.2469 N   0  0  0  0  0  0  0  0  0  0  0  0
   -5.1666    5.3065  -18.1769 N   0  0  0  0  0  0  0  0  0  0  0  0
   -4.8491    5.2882  -19.6172 C   0  0  0  0  0  0  0  0  0  0  0  0
   -4.8351    6.6998  -20.2312 C   0  0  0  0  0  0  0  0  0  0  0  0
   -3.5944    6.3354  -20.9531 N   0  0  0  0  0  0  0  0  0  0  0  0
   -3.3366    5.2920  -19.9367 C   0  0  0  0  0  0  0  0  0  0  0  0
   -8.3283    3.0932  -11.2460 N   0  0  0  0  0  0  0  0  0  0  0  0
   -8.1402    2.8361   -9.8183 C   0  0  0  0  0  0  0  0  0  0  0  0
  1  2  1  0
  2  3  1  0
  3  4  1  0
  4  5  1  0
  5  6  1  0
  6  7  1  0
  7  8  1  6
  8  9  1  0
  9 10  2  0
  9 11  1  0
 11 12  2  0
 12 13  1  0
 13 14  1  0
 13 15  2  0
 15 16  1  0
 16 17  2  0
 17 18  1  0
 18 19  2  0
 19 20  1  0
 20 21  1  0
 21 22  1  0
 22 23  1  0
 23 24  1  0
  7 25  1  0
 25 26  1  0
 26  4  1  0
 17 11  1  0
 24 21  1  0
 20 16  1  0
M  END
>  <smiles>  (2805) 
C42554-P307

>  <fragmenstein_outcome>  (2805) 
acceptable

>  <inchikey>  (2805) 
HKLVCWKWNBMABS-UHFFFAOYSA-N

>  <fragmenstein_mode>  (2805) 
expansion

>  <HIPPO Pose ID>  (2805) 
30366

>  <Energy>  (2805) 
-113.511123

>  <fragmenstein_error>  (2805) 


>  <tags>  (2805) 
{'openbind_xx01zvns2b_c1_fragmenstein', 'fragmenstein_placed'}

>  <ref_pdb>  (2805) 
175

>  <scratch_subdir>  (2805) 
/opt/xchem-fragalysis-2/maxwin/BulkDock/SCRATCH/511028/C42554-P307

>  <alias>  (2805) 
CNCN1CC[C@H](NC(=O)c2cc(F)cc3c2cnn3C2CNC2)NC1

>  <HIPPO Compound ID>  (2805) 
42554

>  <fragmenstein_runtime>  (2805) 
7.968504

$$$$
CC(C)NC(=O)[C@](O)(Nc1ccn2cncc2n1)c1cc(F)cc2c1CC1(CCCCC1)N2C1CNC1
     RDKit          3D

 37 42  0  0  0  0  0  0  0  0999 V2000
  -10.0885    9.4605  -12.5676 C   0  0  0  0  0  0  0  0  0  0  0  0
   -8.8511    8.7456  -12.0366 C   0  0  0  0  0  0  0  0  0  0  0  0
   -8.8690    8.6664  -10.5161 C   0  0  0  0  0  0  0  0  0  0  0  0
   -8.7273    7.4320  -12.6307 N   0  0  0  0  0  0  0  0  0  0  0  0
   -7.6963    6.8814  -13.6706 C   0  0  0  0  0  0  0  0  0  0  0  0
   -6.7509    7.3866  -14.1399 O   0  0  0  0  0  0  0  0  0  0  0  0
   -8.2295    5.4036  -14.0855 C   0  0  2  0  0  0  0  0  0  0  0  0
   -9.6668    5.5577  -13.9850 O   0  0  0  0  0  0  0  0  0  0  0  0
   -7.8306    4.3378  -13.1885 N   0  0  0  0  0  0  0  0  0  0  0  0
   -7.9017    4.3501  -11.8129 C   0  0  0  0  0  0  0  0  0  0  0  0
   -7.1960    5.3860  -10.9771 C   0  0  0  0  0  0  0  0  0  0  0  0
   -7.3638    5.3207   -9.6485 C   0  0  0  0  0  0  0  0  0  0  0  0
   -8.1078    4.2859   -9.1114 N   0  0  0  0  0  0  0  0  0  0  0  0
   -8.4075    3.9846   -7.8088 C   0  0  0  0  0  0  0  0  0  0  0  0
   -9.1143    2.8836   -7.7079 N   0  0  0  0  0  0  0  0  0  0  0  0
   -9.2317    2.4323   -9.0042 C   0  0  0  0  0  0  0  0  0  0  0  0
   -8.6690    3.3109   -9.9097 C   0  0  0  0  0  0  0  0  0  0  0  0
   -8.5763    3.3589  -11.2741 N   0  0  0  0  0  0  0  0  0  0  0  0
   -7.9055    5.0059  -15.5417 C   0  0  0  0  0  0  0  0  0  0  0  0
   -8.9251    4.4528  -16.3468 C   0  0  0  0  0  0  0  0  0  0  0  0
   -8.7697    4.2485  -17.7165 C   0  0  0  0  0  0  0  0  0  0  0  0
   -9.8074    3.7720  -18.4190 F   0  0  0  0  0  0  0  0  0  0  0  0
   -7.5760    4.5441  -18.3500 C   0  0  0  0  0  0  0  0  0  0  0  0
   -6.5067    4.9609  -17.5739 C   0  0  0  0  0  0  0  0  0  0  0  0
   -6.6662    5.1306  -16.1833 C   0  0  0  0  0  0  0  0  0  0  0  0
   -5.2927    5.2730  -15.6239 C   0  0  0  0  0  0  0  0  0  0  0  0
   -4.4747    5.8463  -16.8556 C   0  0  0  0  0  0  0  0  0  0  0  0
   -3.0247    5.3508  -16.6396 C   0  0  0  0  0  0  0  0  0  0  0  0
   -1.8904    6.3056  -17.0156 C   0  0  0  0  0  0  0  0  0  0  0  0
   -2.1651    7.7325  -16.5805 C   0  0  0  0  0  0  0  0  0  0  0  0
   -3.4406    8.2367  -17.2275 C   0  0  0  0  0  0  0  0  0  0  0  0
   -4.6443    7.3958  -16.8255 C   0  0  0  0  0  0  0  0  0  0  0  0
   -5.1709    5.2260  -18.0381 N   0  0  0  0  0  0  0  0  0  0  0  0
   -4.8358    5.2121  -19.4541 C   0  0  0  0  0  0  0  0  0  0  0  0
   -4.8592    6.5549  -20.1917 C   0  0  0  0  0  0  0  0  0  0  0  0
   -3.4077    6.4568  -20.4422 N   0  0  0  0  0  0  0  0  0  0  0  0
   -3.3901    5.0811  -19.9267 C   0  0  0  0  0  0  0  0  0  0  0  0
  1  2  1  0
  2  3  1  0
  2  4  1  0
  4  5  1  0
  5  6  2  0
  5  7  1  0
  7  8  1  6
  7  9  1  0
  9 10  1  0
 10 11  1  0
 11 12  2  0
 12 13  1  0
 13 14  1  0
 14 15  2  0
 15 16  1  0
 16 17  2  0
 17 18  1  0
  7 19  1  0
 19 20  2  0
 20 21  1  0
 21 22  1  0
 21 23  2  0
 23 24  1  0
 24 25  2  0
 25 26  1  0
 26 27  1  0
 27 28  1  0
 28 29  1  0
 29 30  1  0
 30 31  1  0
 31 32  1  0
 27 33  1  0
 33 34  1  0
 34 35  1  0
 35 36  1  0
 36 37  1  0
 18 10  2  0
 25 19  1  0
 32 27  1  0
 37 34  1  0
 17 13  1  0
 33 24  1  0
M  END
>  <smiles>  (2806) 
C42556-P307

>  <fragmenstein_outcome>  (2806) 
acceptable

>  <inchikey>  (2806) 
XYQNPNUFVDBSOW-UHFFFAOYSA-N

>  <fragmenstein_mode>  (2806) 
expansion

>  <HIPPO Pose ID>  (2806) 
30369

>  <Energy>  (2806) 
149.36626

>  <fragmenstein_error>  (2806) 


>  <tags>  (2806) 
{'openbind_xx01zvns2b_c1_fragmenstein', 'fragmenstein_placed'}

>  <ref_pdb>  (2806) 
175

>  <scratch_subdir>  (2806) 
/opt/xchem-fragalysis-2/maxwin/BulkDock/SCRATCH/511028/C42556-P307

>  <alias>  (2806) 
CC(C)NC(=O)[C@](O)(Nc1ccn2cncc2n1)c1cc(F)cc2c1CC1(CCCCC1)N2C1CNC1

>  <HIPPO Compound ID>  (2806) 
23262

>  <fragmenstein_runtime>  (2806) 
9.552897

$$$$
CNCc1nccc(NC(=O)c2cc(F)cc3c2cnn3C2CNC2)n1
     RDKit          3D

 26 29  0  0  0  0  0  0  0  0999 V2000
   -9.5485    3.1551   -6.6571 C   0  0  0  0  0  0  0  0  0  0  0  0
   -8.4512    2.6855   -7.4628 N   0  0  0  0  0  0  0  0  0  0  0  0
   -8.7661    2.5272   -8.8896 C   0  0  0  0  0  0  0  0  0  0  0  0
   -8.5758    3.7838   -9.7345 C   0  0  0  0  0  0  0  0  0  0  0  0
   -8.4600    4.9744   -9.0985 N   0  0  0  0  0  0  0  0  0  0  0  0
   -8.2103    6.0471   -9.8541 C   0  0  0  0  0  0  0  0  0  0  0  0
   -8.0865    5.9864  -11.2147 C   0  0  0  0  0  0  0  0  0  0  0  0
   -8.2514    4.7430  -11.7844 C   0  0  0  0  0  0  0  0  0  0  0  0
   -8.1581    4.6082  -13.1579 N   0  0  0  0  0  0  0  0  0  0  0  0
   -7.6695    5.5999  -14.2294 C   0  0  0  0  0  0  0  0  0  0  0  0
   -7.3401    6.7153  -14.1340 O   0  0  0  0  0  0  0  0  0  0  0  0
   -7.6469    5.0247  -15.5904 C   0  0  0  0  0  0  0  0  0  0  0  0
   -8.7833    4.4407  -16.1565 C   0  0  0  0  0  0  0  0  0  0  0  0
   -8.8104    4.1671  -17.5183 C   0  0  0  0  0  0  0  0  0  0  0  0
   -9.9261    3.6537  -18.0566 F   0  0  0  0  0  0  0  0  0  0  0  0
   -7.7224    4.4379  -18.3508 C   0  0  0  0  0  0  0  0  0  0  0  0
   -6.5687    4.9706  -17.7563 C   0  0  0  0  0  0  0  0  0  0  0  0
   -6.5130    5.2590  -16.3940 C   0  0  0  0  0  0  0  0  0  0  0  0
   -5.2199    5.7863  -16.1922 C   0  0  0  0  0  0  0  0  0  0  0  0
   -4.4948    5.8119  -17.3090 N   0  0  0  0  0  0  0  0  0  0  0  0
   -5.3398    5.3502  -18.2536 N   0  0  0  0  0  0  0  0  0  0  0  0
   -4.9828    5.2872  -19.6776 C   0  0  0  0  0  0  0  0  0  0  0  0
   -4.9725    6.6699  -20.3556 C   0  0  0  0  0  0  0  0  0  0  0  0
   -3.7822    6.2165  -21.1324 N   0  0  0  0  0  0  0  0  0  0  0  0
   -3.4701    5.3151  -19.9829 C   0  0  0  0  0  0  0  0  0  0  0  0
   -8.4986    3.6338  -11.0770 N   0  0  0  0  0  0  0  0  0  0  0  0
  1  2  1  0
  2  3  1  0
  3  4  1  0
  4  5  2  0
  5  6  1  0
  6  7  2  0
  7  8  1  0
  8  9  1  0
  9 10  1  0
 10 11  2  0
 10 12  1  0
 12 13  2  0
 13 14  1  0
 14 15  1  0
 14 16  2  0
 16 17  1  0
 17 18  2  0
 18 19  1  0
 19 20  2  0
 20 21  1  0
 21 22  1  0
 22 23  1  0
 23 24  1  0
 24 25  1  0
  8 26  2  0
 26  4  1  0
 18 12  1  0
 25 22  1  0
 21 17  1  0
M  END
>  <smiles>  (2807) 
C42562-P307

>  <fragmenstein_outcome>  (2807) 
acceptable

>  <inchikey>  (2807) 
VLNFFUBAAWMSHP-UHFFFAOYSA-N

>  <fragmenstein_mode>  (2807) 
expansion

>  <HIPPO Pose ID>  (2807) 
30373

>  <Energy>  (2807) 
35.789294

>  <fragmenstein_error>  (2807) 


>  <tags>  (2807) 
{'openbind_xx01zvns2b_c1_fragmenstein', 'fragmenstein_placed'}

>  <ref_pdb>  (2807) 
175

>  <scratch_subdir>  (2807) 
/opt/xchem-fragalysis-2/maxwin/BulkDock/SCRATCH/511028/C42562-P307

>  <alias>  (2807) 
CNCc1nccc(NC(=O)c2cc(F)cc3c2cnn3C2CNC2)n1

>  <HIPPO Compound ID>  (2807) 
42562

>  <fragmenstein_runtime>  (2807) 
6.065394

$$$$
[O-][n+]1cc2c(n1C1CCNCC1)C[C@]1(C[C@@H]2Cl)N=C1Nc1ccc2c(c1)CNC2
     RDKit          3D

 29 34  0  0  0  0  0  0  0  0999 V2000
   -4.3645    5.3039  -19.8308 O   0  0  0  0  0  0  0  0  0  0  0  0
   -5.2616    5.2029  -18.9566 N   0  0  0  0  0  0  0  0  0  0  0  0
   -6.5003    4.6864  -18.9966 C   0  0  0  0  0  0  0  0  0  0  0  0
   -7.0482    4.7918  -17.6539 C   0  0  0  0  0  0  0  0  0  0  0  0
   -6.0826    5.3295  -16.7832 C   0  0  0  0  0  0  0  0  0  0  0  0
   -5.0118    5.6741  -17.5791 N   0  0  0  0  0  0  0  0  0  0  0  0
   -3.7949    6.4133  -17.2849 C   0  0  0  0  0  0  0  0  0  0  0  0
   -2.6315    5.4860  -16.9410 C   0  0  0  0  0  0  0  0  0  0  0  0
   -1.3455    6.2975  -16.7753 C   0  0  0  0  0  0  0  0  0  0  0  0
   -1.4991    7.3662  -15.7876 N   0  0  0  0  0  0  0  0  0  0  0  0
   -2.5819    8.2832  -16.1376 C   0  0  0  0  0  0  0  0  0  0  0  0
   -3.9062    7.5307  -16.2415 C   0  0  0  0  0  0  0  0  0  0  0  0
   -6.2330    5.4600  -15.3085 C   0  0  0  0  0  0  0  0  0  0  0  0
   -7.5932    5.0162  -14.7941 C   0  0  2  0  0  0  0  0  0  0  0  0
   -8.4582    4.1307  -15.6694 C   0  0  0  0  0  0  0  0  0  0  0  0
   -8.4189    4.4441  -17.1594 C   0  0  2  0  0  0  0  0  0  0  0  0
   -9.1610    3.1561  -18.1004 Cl  0  0  0  0  0  0  0  0  0  0  0  0
   -8.2805    6.0390  -13.8197 N   0  0  0  0  0  0  0  0  0  0  0  0
   -7.8577    4.9484  -13.3965 C   0  0  0  0  0  0  0  0  0  0  0  0
   -7.6303    3.9944  -12.5048 N   0  0  0  0  0  0  0  0  0  0  0  0
   -7.9599    4.0542  -11.1441 C   0  0  0  0  0  0  0  0  0  0  0  0
   -8.0329    5.2701  -10.4374 C   0  0  0  0  0  0  0  0  0  0  0  0
   -8.3162    5.2969   -9.0655 C   0  0  0  0  0  0  0  0  0  0  0  0
   -8.5897    4.1006   -8.4270 C   0  0  0  0  0  0  0  0  0  0  0  0
   -8.6036    2.9081   -9.1324 C   0  0  0  0  0  0  0  0  0  0  0  0
   -8.2766    2.8645  -10.4765 C   0  0  0  0  0  0  0  0  0  0  0  0
   -8.9819    1.7872   -8.2278 C   0  0  0  0  0  0  0  0  0  0  0  0
   -9.2880    2.4040   -6.9098 N   0  0  0  0  0  0  0  0  0  0  0  0
   -8.8859    3.8249   -6.9928 C   0  0  0  0  0  0  0  0  0  0  0  0
  1  2  1  0
  2  3  2  0
  3  4  1  0
  4  5  2  0
  5  6  1  0
  6  7  1  0
  7  8  1  0
  8  9  1  0
  9 10  1  0
 10 11  1  0
 11 12  1  0
  5 13  1  0
 14 13  1  1
 14 15  1  0
 15 16  1  0
 16 17  1  6
 14 18  1  0
 18 19  2  0
 19 20  1  0
 20 21  1  0
 21 22  2  0
 22 23  1  0
 23 24  2  0
 24 25  1  0
 25 26  2  0
 25 27  1  0
 27 28  1  0
 28 29  1  0
  6  2  1  0
 12  7  1  0
 19 14  1  0
 26 21  1  0
 16  4  1  0
 29 24  1  0
M  CHG  2   1  -1   2   1
M  END
>  <smiles>  (2808) 
C42695-P308

>  <fragmenstein_outcome>  (2808) 
acceptable

>  <inchikey>  (2808) 
DNGJWXDIQCXOJI-UHFFFAOYSA-N

>  <fragmenstein_mode>  (2808) 
expansion

>  <HIPPO Pose ID>  (2808) 
30416

>  <Energy>  (2808) 
57.694786

>  <fragmenstein_error>  (2808) 


>  <tags>  (2808) 
{'openbind_xx01zvns2b_c1_fragmenstein', 'fragmenstein_placed'}

>  <ref_pdb>  (2808) 
175

>  <scratch_subdir>  (2808) 
/opt/xchem-fragalysis-2/maxwin/BulkDock/SCRATCH/511028/C42695-P308

>  <alias>  (2808) 
[O-][n+]1cc2c(n1C1CCNCC1)C[C@]1(C[C@@H]2Cl)N=C1Nc1ccc2c(c1)CNC2

>  <HIPPO Compound ID>  (2808) 
42695

>  <fragmenstein_runtime>  (2808) 
2.712024

$$$$
CC(C)Nc1cc2c(Cl)cc(C(=O)Nc3ccc4c(c3)CNC4)cc2n1C1CCNCC1
     RDKit          3D

 32 36  0  0  0  0  0  0  0  0999 V2000
   -2.3986    4.3929  -19.4746 C   0  0  0  0  0  0  0  0  0  0  0  0
   -2.7759    5.8585  -19.6101 C   0  0  0  0  0  0  0  0  0  0  0  0
   -2.1274    6.4929  -20.8398 C   0  0  0  0  0  0  0  0  0  0  0  0
   -4.2311    6.0321  -19.7051 N   0  0  0  0  0  0  0  0  0  0  0  0
   -5.0761    5.7313  -18.6736 C   0  0  0  0  0  0  0  0  0  0  0  0
   -6.2542    5.0115  -18.7531 C   0  0  0  0  0  0  0  0  0  0  0  0
   -6.8536    4.9438  -17.4648 C   0  0  0  0  0  0  0  0  0  0  0  0
   -8.0337    4.3913  -16.9053 C   0  0  0  0  0  0  0  0  0  0  0  0
   -9.1056    3.5815  -17.9624 Cl  0  0  0  0  0  0  0  0  0  0  0  0
   -8.3480    4.5380  -15.5520 C   0  0  0  0  0  0  0  0  0  0  0  0
   -7.4697    5.2384  -14.7392 C   0  0  0  0  0  0  0  0  0  0  0  0
   -7.7872    5.6050  -13.3387 C   0  0  0  0  0  0  0  0  0  0  0  0
   -7.6706    6.7281  -13.0410 O   0  0  0  0  0  0  0  0  0  0  0  0
   -8.1336    4.3732  -12.4777 N   0  0  0  0  0  0  0  0  0  0  0  0
   -8.3102    4.2518  -11.1007 C   0  0  0  0  0  0  0  0  0  0  0  0
   -8.2089    5.3802  -10.2681 C   0  0  0  0  0  0  0  0  0  0  0  0
   -8.3512    5.2681   -8.8827 C   0  0  0  0  0  0  0  0  0  0  0  0
   -8.6194    4.0202   -8.3549 C   0  0  0  0  0  0  0  0  0  0  0  0
   -8.7287    2.9038   -9.1756 C   0  0  0  0  0  0  0  0  0  0  0  0
   -8.5642    2.9952  -10.5500 C   0  0  0  0  0  0  0  0  0  0  0  0
   -9.0024    1.7020   -8.3371 C   0  0  0  0  0  0  0  0  0  0  0  0
   -9.2757    2.2105   -6.9668 N   0  0  0  0  0  0  0  0  0  0  0  0
   -8.8277    3.6174   -6.9358 C   0  0  0  0  0  0  0  0  0  0  0  0
   -6.2742    5.7639  -15.2436 C   0  0  0  0  0  0  0  0  0  0  0  0
   -5.9930    5.6411  -16.6109 C   0  0  0  0  0  0  0  0  0  0  0  0
   -4.9602    6.1802  -17.3719 N   0  0  0  0  0  0  0  0  0  0  0  0
   -4.0154    7.1812  -16.8695 C   0  0  0  0  0  0  0  0  0  0  0  0
   -2.9941    6.5889  -15.8811 C   0  0  0  0  0  0  0  0  0  0  0  0
   -2.6233    7.5747  -14.7754 C   0  0  0  0  0  0  0  0  0  0  0  0
   -2.3970    8.8994  -15.3373 N   0  0  0  0  0  0  0  0  0  0  0  0
   -3.6056    9.4841  -15.9219 C   0  0  0  0  0  0  0  0  0  0  0  0
   -4.6715    8.4644  -16.3336 C   0  0  0  0  0  0  0  0  0  0  0  0
  1  2  1  0
  2  3  1  0
  2  4  1  0
  4  5  1  0
  5  6  2  0
  6  7  1  0
  7  8  2  0
  8  9  1  0
  8 10  1  0
 10 11  2  0
 11 12  1  0
 12 13  2  0
 12 14  1  0
 14 15  1  0
 15 16  2  0
 16 17  1  0
 17 18  2  0
 18 19  1  0
 19 20  2  0
 19 21  1  0
 21 22  1  0
 22 23  1  0
 11 24  1  0
 24 25  2  0
 25 26  1  0
 26 27  1  0
 27 28  1  0
 28 29  1  0
 29 30  1  0
 30 31  1  0
 31 32  1  0
 26  5  1  0
 32 27  1  0
 25  7  1  0
 20 15  1  0
 23 18  1  0
M  END
>  <smiles>  (2809) 
C42568-P308

>  <fragmenstein_outcome>  (2809) 
acceptable

>  <inchikey>  (2809) 
CJLNETUPSCAECV-UHFFFAOYSA-N

>  <fragmenstein_mode>  (2809) 
expansion

>  <HIPPO Pose ID>  (2809) 
30443

>  <Energy>  (2809) 
58.22955

>  <fragmenstein_error>  (2809) 


>  <tags>  (2809) 
{'openbind_xx01zvns2b_c1_fragmenstein', 'fragmenstein_placed'}

>  <ref_pdb>  (2809) 
175

>  <scratch_subdir>  (2809) 
/opt/xchem-fragalysis-2/maxwin/BulkDock/SCRATCH/511028/C42568-P308

>  <alias>  (2809) 
CC(C)Nc1cc2c(Cl)cc(C(=O)Nc3ccc4c(c3)CNC4)cc2n1C1CCNCC1

>  <HIPPO Compound ID>  (2809) 
42568

>  <fragmenstein_runtime>  (2809) 
7.839678

$$$$
O=C(N[C@H]1C[C@H]2C=NC=C2CN1)c1cc(Cl)cc2c1c[n+]([O-])n2C1CNC1
     RDKit          3D

 27 31  0  0  0  0  0  0  0  0999 V2000
   -7.1007    6.6264  -13.7158 O   0  0  0  0  0  0  0  0  0  0  0  0
   -7.4945    5.5555  -13.9471 C   0  0  0  0  0  0  0  0  0  0  0  0
   -7.8265    4.3931  -13.0039 N   0  0  0  0  0  0  0  0  0  0  0  0
   -7.6578    4.2672  -11.5989 C   0  0  1  0  0  0  0  0  0  0  0  0
   -8.0011    5.5284  -10.7960 C   0  0  0  0  0  0  0  0  0  0  0  0
   -7.6464    5.2351   -9.3549 C   0  0  1  0  0  0  0  0  0  0  0  0
   -8.2715    6.0870   -8.2832 C   0  0  0  0  0  0  0  0  0  0  0  0
   -8.9347    5.4567   -7.3592 N   0  0  0  0  0  0  0  0  0  0  0  0
   -8.9341    4.1486   -7.7742 C   0  0  0  0  0  0  0  0  0  0  0  0
   -8.2761    3.9577   -8.9191 C   0  0  0  0  0  0  0  0  0  0  0  0
   -8.1892    2.7626   -9.7974 C   0  0  0  0  0  0  0  0  0  0  0  0
   -8.4548    3.1262  -11.2038 N   0  0  0  0  0  0  0  0  0  0  0  0
   -7.6185    5.1778  -15.3757 C   0  0  0  0  0  0  0  0  0  0  0  0
   -8.8112    4.7037  -15.9182 C   0  0  0  0  0  0  0  0  0  0  0  0
   -8.9218    4.5259  -17.2948 C   0  0  0  0  0  0  0  0  0  0  0  0
  -10.4422    4.1354  -17.9737 Cl  0  0  0  0  0  0  0  0  0  0  0  0
   -7.8545    4.7465  -18.1663 C   0  0  0  0  0  0  0  0  0  0  0  0
   -6.6519    5.1761  -17.6047 C   0  0  0  0  0  0  0  0  0  0  0  0
   -6.5022    5.4110  -16.2138 C   0  0  0  0  0  0  0  0  0  0  0  0
   -5.1557    5.8717  -15.9271 C   0  0  0  0  0  0  0  0  0  0  0  0
   -4.4980    5.9091  -17.0910 N   0  0  0  0  0  0  0  0  0  0  0  0
   -3.3021    6.2119  -17.3069 O   0  0  0  0  0  0  0  0  0  0  0  0
   -5.4205    5.4891  -18.1493 N   0  0  0  0  0  0  0  0  0  0  0  0
   -5.1418    5.4333  -19.6011 C   0  0  0  0  0  0  0  0  0  0  0  0
   -3.6877    5.1486  -19.9738 C   0  0  0  0  0  0  0  0  0  0  0  0
   -3.4534    6.5885  -20.1736 N   0  0  0  0  0  0  0  0  0  0  0  0
   -4.9146    6.8162  -20.2265 C   0  0  0  0  0  0  0  0  0  0  0  0
  1  2  2  0
  2  3  1  0
  4  3  1  6
  4  5  1  0
  6  5  1  6
  6  7  1  0
  7  8  2  0
  8  9  1  0
  9 10  2  0
 10 11  1  0
 11 12  1  0
  2 13  1  0
 13 14  2  0
 14 15  1  0
 15 16  1  0
 15 17  2  0
 17 18  1  0
 18 19  2  0
 19 20  1  0
 20 21  2  0
 21 22  1  0
 21 23  1  0
 23 24  1  0
 24 25  1  0
 25 26  1  0
 26 27  1  0
 12  4  1  0
 19 13  1  0
 27 24  1  0
 10  6  1  0
 23 18  1  0
M  CHG  2  21   1  22  -1
M  END
>  <smiles>  (2810) 
C42864-P309

>  <fragmenstein_outcome>  (2810) 
acceptable

>  <inchikey>  (2810) 
OHXNSUZOEGOPHM-UHFFFAOYSA-N

>  <fragmenstein_mode>  (2810) 
expansion

>  <HIPPO Pose ID>  (2810) 
30482

>  <Energy>  (2810) 
-22.821215

>  <fragmenstein_error>  (2810) 


>  <tags>  (2810) 
{'openbind_xx01zvns2b_c1_fragmenstein', 'fragmenstein_placed'}

>  <ref_pdb>  (2810) 
175

>  <scratch_subdir>  (2810) 
/opt/xchem-fragalysis-2/maxwin/BulkDock/SCRATCH/511028/C42864-P309

>  <alias>  (2810) 
O=C(N[C@H]1C[C@H]2C=NC=C2CN1)c1cc(Cl)cc2c1c[n+]([O-])n2C1CNC1

>  <HIPPO Compound ID>  (2810) 
27298

>  <fragmenstein_runtime>  (2810) 
3.223378

$$$$
O=C(N[C@@H]1C[C@@H]2C=NC=C2CN1)c1cc(Cl)cc2c1c[n+]([O-])n2C1CNC1
     RDKit          3D

 27 31  0  0  0  0  0  0  0  0999 V2000
   -6.6730    5.9318  -13.5712 O   0  0  0  0  0  0  0  0  0  0  0  0
   -7.2859    4.9931  -13.8932 C   0  0  0  0  0  0  0  0  0  0  0  0
   -8.0567    3.9655  -13.0452 N   0  0  0  0  0  0  0  0  0  0  0  0
   -8.3153    3.9276  -11.6353 C   0  0  2  0  0  0  0  0  0  0  0  0
   -8.1098    5.3130  -10.9961 C   0  0  0  0  0  0  0  0  0  0  0  0
   -8.2907    5.2195   -9.5045 C   0  0  2  0  0  0  0  0  0  0  0  0
   -7.6367    6.3123   -8.7047 C   0  0  0  0  0  0  0  0  0  0  0  0
   -6.7108    5.9449   -7.8731 N   0  0  0  0  0  0  0  0  0  0  0  0
   -6.5990    4.5916   -8.0720 C   0  0  0  0  0  0  0  0  0  0  0  0
   -7.4460    4.1162   -8.9878 C   0  0  0  0  0  0  0  0  0  0  0  0
   -7.5801    2.7864   -9.6257 C   0  0  0  0  0  0  0  0  0  0  0  0
   -7.4372    2.9081  -11.0894 N   0  0  0  0  0  0  0  0  0  0  0  0
   -7.3974    4.7734  -15.3549 C   0  0  0  0  0  0  0  0  0  0  0  0
   -8.6333    4.5507  -15.9629 C   0  0  0  0  0  0  0  0  0  0  0  0
   -8.7399    4.6058  -17.3467 C   0  0  0  0  0  0  0  0  0  0  0  0
  -10.2700    4.3307  -18.0662 Cl  0  0  0  0  0  0  0  0  0  0  0  0
   -7.6579    4.9459  -18.1654 C   0  0  0  0  0  0  0  0  0  0  0  0
   -6.4188    5.1584  -17.5539 C   0  0  0  0  0  0  0  0  0  0  0  0
   -6.2465    5.0060  -16.1486 C   0  0  0  0  0  0  0  0  0  0  0  0
   -4.8383    5.1290  -15.7990 C   0  0  0  0  0  0  0  0  0  0  0  0
   -4.1827    5.3523  -16.9398 N   0  0  0  0  0  0  0  0  0  0  0  0
   -2.9546    5.4203  -17.1849 O   0  0  0  0  0  0  0  0  0  0  0  0
   -5.1624    5.5351  -18.0026 N   0  0  0  0  0  0  0  0  0  0  0  0
   -4.8412    6.5305  -19.0395 C   0  0  0  0  0  0  0  0  0  0  0  0
   -3.7456    6.0431  -20.0103 C   0  0  0  0  0  0  0  0  0  0  0  0
   -4.4585    6.7939  -21.0742 N   0  0  0  0  0  0  0  0  0  0  0  0
   -5.7047    6.6064  -20.2833 C   0  0  0  0  0  0  0  0  0  0  0  0
  1  2  2  0
  2  3  1  0
  4  3  1  6
  4  5  1  0
  6  5  1  6
  6  7  1  0
  7  8  2  0
  8  9  1  0
  9 10  2  0
 10 11  1  0
 11 12  1  0
  2 13  1  0
 13 14  2  0
 14 15  1  0
 15 16  1  0
 15 17  2  0
 17 18  1  0
 18 19  2  0
 19 20  1  0
 20 21  2  0
 21 22  1  0
 21 23  1  0
 23 24  1  0
 24 25  1  0
 25 26  1  0
 26 27  1  0
 12  4  1  0
 19 13  1  0
 27 24  1  0
 10  6  1  0
 23 18  1  0
M  CHG  2  21   1  22  -1
M  END
>  <smiles>  (2811) 
C42864-P23

>  <fragmenstein_outcome>  (2811) 
acceptable

>  <inchikey>  (2811) 
CMEFPTCHWAUQBM-UHFFFAOYSA-N

>  <fragmenstein_mode>  (2811) 
expansion

>  <HIPPO Pose ID>  (2811) 
30485

>  <Energy>  (2811) 
-8.24992

>  <fragmenstein_error>  (2811) 


>  <tags>  (2811) 
{'openbind_xx01zvns2b_c1_fragmenstein', 'fragmenstein_placed'}

>  <ref_pdb>  (2811) 
175

>  <scratch_subdir>  (2811) 
/opt/xchem-fragalysis-2/maxwin/BulkDock/SCRATCH/511028/C42864-P23

>  <alias>  (2811) 
O=C(N[C@@H]1C[C@@H]2C=NC=C2CN1)c1cc(Cl)cc2c1c[n+]([O-])n2C1CNC1

>  <HIPPO Compound ID>  (2811) 
42864

>  <fragmenstein_runtime>  (2811) 
2.885114

$$$$
CC1(C)Cc2cc(NC(=O)c3cc(Cl)cc4c3cnn4C3CNC3)ncc2O1
     RDKit          3D

 28 32  0  0  0  0  0  0  0  0999 V2000
   -7.8053    3.7152   -6.2424 C   0  0  0  0  0  0  0  0  0  0  0  0
   -8.9740    3.5168   -7.2101 C   0  0  0  0  0  0  0  0  0  0  0  0
  -10.1685    3.0661   -6.3614 C   0  0  0  0  0  0  0  0  0  0  0  0
   -8.7736    2.5768   -8.4358 C   0  0  0  0  0  0  0  0  0  0  0  0
   -8.5418    3.5662   -9.5191 C   0  0  0  0  0  0  0  0  0  0  0  0
   -8.2647    3.4014  -10.8718 C   0  0  0  0  0  0  0  0  0  0  0  0
   -8.1140    4.5607  -11.6346 C   0  0  0  0  0  0  0  0  0  0  0  0
   -7.9019    4.4878  -13.0037 N   0  0  0  0  0  0  0  0  0  0  0  0
   -7.4872    5.5811  -14.0149 C   0  0  0  0  0  0  0  0  0  0  0  0
   -7.1841    6.6961  -13.8429 O   0  0  0  0  0  0  0  0  0  0  0  0
   -7.5461    5.1279  -15.4201 C   0  0  0  0  0  0  0  0  0  0  0  0
   -8.7398    4.6303  -15.9494 C   0  0  0  0  0  0  0  0  0  0  0  0
   -8.8704    4.4695  -17.3255 C   0  0  0  0  0  0  0  0  0  0  0  0
  -10.4002    4.0877  -17.9849 Cl  0  0  0  0  0  0  0  0  0  0  0  0
   -7.8193    4.7173  -18.2082 C   0  0  0  0  0  0  0  0  0  0  0  0
   -6.6277    5.1974  -17.6575 C   0  0  0  0  0  0  0  0  0  0  0  0
   -6.4796    5.4262  -16.2907 C   0  0  0  0  0  0  0  0  0  0  0  0
   -5.1904    5.9859  -16.1651 C   0  0  0  0  0  0  0  0  0  0  0  0
   -4.5473    6.0711  -17.3308 N   0  0  0  0  0  0  0  0  0  0  0  0
   -5.4338    5.5787  -18.2238 N   0  0  0  0  0  0  0  0  0  0  0  0
   -5.1416    5.4562  -19.6686 C   0  0  0  0  0  0  0  0  0  0  0  0
   -3.6469    5.3841  -19.9890 C   0  0  0  0  0  0  0  0  0  0  0  0
   -3.6458    6.8112  -20.3528 N   0  0  0  0  0  0  0  0  0  0  0  0
   -5.1246    6.8084  -20.3897 C   0  0  0  0  0  0  0  0  0  0  0  0
   -8.2129    5.8072  -11.1153 N   0  0  0  0  0  0  0  0  0  0  0  0
   -8.5503    5.9222   -9.8139 C   0  0  0  0  0  0  0  0  0  0  0  0
   -8.7349    4.8289   -9.0096 C   0  0  0  0  0  0  0  0  0  0  0  0
   -9.1923    4.8667   -7.7220 O   0  0  0  0  0  0  0  0  0  0  0  0
  1  2  1  0
  2  3  1  0
  2  4  1  0
  4  5  1  0
  5  6  2  0
  6  7  1  0
  7  8  1  0
  8  9  1  0
  9 10  2  0
  9 11  1  0
 11 12  2  0
 12 13  1  0
 13 14  1  0
 13 15  2  0
 15 16  1  0
 16 17  2  0
 17 18  1  0
 18 19  2  0
 19 20  1  0
 20 21  1  0
 21 22  1  0
 22 23  1  0
 23 24  1  0
  7 25  2  0
 25 26  1  0
 26 27  2  0
 27 28  1  0
 28  2  1  0
 27  5  1  0
 17 11  1  0
 24 21  1  0
 20 16  1  0
M  END
>  <smiles>  (2812) 
C42929-P309

>  <fragmenstein_outcome>  (2812) 
acceptable

>  <inchikey>  (2812) 
ZTUILTYUOBOJKY-UHFFFAOYSA-N

>  <fragmenstein_mode>  (2812) 
expansion

>  <HIPPO Pose ID>  (2812) 
30504

>  <Energy>  (2812) 
69.894943

>  <fragmenstein_error>  (2812) 


>  <tags>  (2812) 
{'openbind_xx01zvns2b_c1_fragmenstein', 'fragmenstein_placed'}

>  <ref_pdb>  (2812) 
175

>  <scratch_subdir>  (2812) 
/opt/xchem-fragalysis-2/maxwin/BulkDock/SCRATCH/511028/C42929-P309

>  <alias>  (2812) 
CC1(C)Cc2cc(NC(=O)c3cc(Cl)cc4c3cnn4C3CNC3)ncc2O1

>  <HIPPO Compound ID>  (2812) 
42929

>  <fragmenstein_runtime>  (2812) 
9.205596

$$$$
O=C(Nc1cc2ccccc2cn1)c1cc(Cl)cc2c1cnn2C1CNC1
     RDKit          3D

 27 31  0  0  0  0  0  0  0  0999 V2000
   -7.2522    6.8098  -14.0819 O   0  0  0  0  0  0  0  0  0  0  0  0
   -7.5210    5.6942  -14.2843 C   0  0  0  0  0  0  0  0  0  0  0  0
   -7.8622    4.5598  -13.3087 N   0  0  0  0  0  0  0  0  0  0  0  0
   -8.0303    4.5751  -11.9480 C   0  0  0  0  0  0  0  0  0  0  0  0
   -8.0279    5.7765  -11.2557 C   0  0  0  0  0  0  0  0  0  0  0  0
   -8.1571    5.7508   -9.8711 C   0  0  0  0  0  0  0  0  0  0  0  0
   -8.1651    6.9268   -9.1019 C   0  0  0  0  0  0  0  0  0  0  0  0
   -8.2732    6.8640   -7.7120 C   0  0  0  0  0  0  0  0  0  0  0  0
   -8.3730    5.6286   -7.0779 C   0  0  0  0  0  0  0  0  0  0  0  0
   -8.3707    4.4548   -7.8345 C   0  0  0  0  0  0  0  0  0  0  0  0
   -8.2696    4.5023   -9.2298 C   0  0  0  0  0  0  0  0  0  0  0  0
   -8.2761    3.3552  -10.0259 C   0  0  0  0  0  0  0  0  0  0  0  0
   -8.1681    3.3727  -11.3711 N   0  0  0  0  0  0  0  0  0  0  0  0
   -7.5414    5.2230  -15.6708 C   0  0  0  0  0  0  0  0  0  0  0  0
   -8.7067    4.6835  -16.1988 C   0  0  0  0  0  0  0  0  0  0  0  0
   -8.7813    4.4526  -17.5622 C   0  0  0  0  0  0  0  0  0  0  0  0
  -10.3130    4.0621  -18.1939 Cl  0  0  0  0  0  0  0  0  0  0  0  0
   -7.6948    4.6544  -18.4224 C   0  0  0  0  0  0  0  0  0  0  0  0
   -6.5201    5.1692  -17.8539 C   0  0  0  0  0  0  0  0  0  0  0  0
   -6.4377    5.4703  -16.4957 C   0  0  0  0  0  0  0  0  0  0  0  0
   -5.1550    6.0165  -16.3130 C   0  0  0  0  0  0  0  0  0  0  0  0
   -4.4536    6.0516  -17.4414 N   0  0  0  0  0  0  0  0  0  0  0  0
   -5.2925    5.5279  -18.3657 N   0  0  0  0  0  0  0  0  0  0  0  0
   -4.8965    5.4027  -19.7762 C   0  0  0  0  0  0  0  0  0  0  0  0
   -3.3708    5.4677  -20.0009 C   0  0  0  0  0  0  0  0  0  0  0  0
   -3.5962    6.4295  -21.0961 N   0  0  0  0  0  0  0  0  0  0  0  0
   -4.9251    6.7504  -20.5179 C   0  0  0  0  0  0  0  0  0  0  0  0
  1  2  2  0
  2  3  1  0
  3  4  1  0
  4  5  2  0
  5  6  1  0
  6  7  2  0
  7  8  1  0
  8  9  2  0
  9 10  1  0
 10 11  2  0
 11 12  1  0
 12 13  2  0
  2 14  1  0
 14 15  2  0
 15 16  1  0
 16 17  1  0
 16 18  2  0
 18 19  1  0
 19 20  2  0
 20 21  1  0
 21 22  2  0
 22 23  1  0
 23 24  1  0
 24 25  1  0
 25 26  1  0
 26 27  1  0
 13  4  1  0
 20 14  1  0
 27 24  1  0
 11  6  1  0
 23 19  1  0
M  END
>  <smiles>  (2813) 
C42930-P309

>  <fragmenstein_outcome>  (2813) 
acceptable

>  <inchikey>  (2813) 
KFRQQHKCAAYRIQ-UHFFFAOYSA-N

>  <fragmenstein_mode>  (2813) 
expansion

>  <HIPPO Pose ID>  (2813) 
30505

>  <Energy>  (2813) 
38.432984

>  <fragmenstein_error>  (2813) 


>  <tags>  (2813) 
{'openbind_xx01zvns2b_c1_fragmenstein', 'fragmenstein_placed'}

>  <ref_pdb>  (2813) 
175

>  <scratch_subdir>  (2813) 
/opt/xchem-fragalysis-2/maxwin/BulkDock/SCRATCH/511028/C42930-P309

>  <alias>  (2813) 
O=C(Nc1cc2ccccc2cn1)c1cc(Cl)cc2c1cnn2C1CNC1

>  <HIPPO Compound ID>  (2813) 
42930

>  <fragmenstein_runtime>  (2813) 
4.157768

$$$$
C[C@@H]1[C@H](F)N[C@H](NC(=O)c2cc(Cl)cc3c2cnn3C2CNC2)CC12CCCC2
     RDKit          3D

 29 33  0  0  0  0  0  0  0  0999 V2000
   -8.7749    3.8681   -7.6112 C   0  0  0  0  0  0  0  0  0  0  0  0
   -8.5953    4.2176   -9.0898 C   0  0  2  0  0  0  0  0  0  0  0  0
   -8.4220    2.9431   -9.9315 C   0  0  2  0  0  0  0  0  0  0  0  0
   -7.2280    2.3862   -9.6134 F   0  0  0  0  0  0  0  0  0  0  0  0
   -8.4321    3.1655  -11.3792 N   0  0  0  0  0  0  0  0  0  0  0  0
   -8.2022    4.5423  -11.7327 C   0  0  2  0  0  0  0  0  0  0  0  0
   -7.9212    4.5142  -13.1254 N   0  0  0  0  0  0  0  0  0  0  0  0
   -7.4961    5.6379  -14.0795 C   0  0  0  0  0  0  0  0  0  0  0  0
   -7.2330    6.7512  -13.8647 O   0  0  0  0  0  0  0  0  0  0  0  0
   -7.5356    5.2040  -15.4890 C   0  0  0  0  0  0  0  0  0  0  0  0
   -8.7238    4.6990  -16.0227 C   0  0  0  0  0  0  0  0  0  0  0  0
   -8.8384    4.5096  -17.3930 C   0  0  0  0  0  0  0  0  0  0  0  0
  -10.3625    4.0963  -18.0430 Cl  0  0  0  0  0  0  0  0  0  0  0  0
   -7.7786    4.7525  -18.2657 C   0  0  0  0  0  0  0  0  0  0  0  0
   -6.5904    5.2394  -17.7078 C   0  0  0  0  0  0  0  0  0  0  0  0
   -6.4530    5.4776  -16.3417 C   0  0  0  0  0  0  0  0  0  0  0  0
   -5.1515    6.0004  -16.2015 C   0  0  0  0  0  0  0  0  0  0  0  0
   -4.4966    6.0693  -17.3613 N   0  0  0  0  0  0  0  0  0  0  0  0
   -5.3928    5.6241  -18.2648 N   0  0  0  0  0  0  0  0  0  0  0  0
   -5.1352    5.6000  -19.7107 C   0  0  0  0  0  0  0  0  0  0  0  0
   -3.6522    5.5927  -20.1159 C   0  0  0  0  0  0  0  0  0  0  0  0
   -4.0036    6.5487  -21.2075 N   0  0  0  0  0  0  0  0  0  0  0  0
   -5.1321    7.0041  -20.3417 C   0  0  0  0  0  0  0  0  0  0  0  0
   -7.0912    5.1770  -10.9054 C   0  0  0  0  0  0  0  0  0  0  0  0
   -7.4886    5.2660   -9.4013 C   0  0  0  0  0  0  0  0  0  0  0  0
   -7.9685    6.6969   -9.0651 C   0  0  0  0  0  0  0  0  0  0  0  0
   -6.6994    7.5335   -8.8857 C   0  0  0  0  0  0  0  0  0  0  0  0
   -5.5555    6.5414   -8.6878 C   0  0  0  0  0  0  0  0  0  0  0  0
   -6.2261    5.1819   -8.5199 C   0  0  0  0  0  0  0  0  0  0  0  0
  2  1  1  1
  2  3  1  0
  3  4  1  1
  3  5  1  0
  5  6  1  0
  6  7  1  6
  7  8  1  0
  8  9  2  0
  8 10  1  0
 10 11  2  0
 11 12  1  0
 12 13  1  0
 12 14  2  0
 14 15  1  0
 15 16  2  0
 16 17  1  0
 17 18  2  0
 18 19  1  0
 19 20  1  0
 20 21  1  0
 21 22  1  0
 22 23  1  0
  6 24  1  0
 24 25  1  0
 25 26  1  0
 26 27  1  0
 27 28  1  0
 28 29  1  0
 25  2  1  0
 16 10  1  0
 23 20  1  0
 29 25  1  0
 19 15  1  0
M  END
>  <smiles>  (2814) 
C42932-P309

>  <fragmenstein_outcome>  (2814) 
acceptable

>  <inchikey>  (2814) 
BOAPGFVZXKOXFF-UHFFFAOYSA-N

>  <fragmenstein_mode>  (2814) 
expansion

>  <HIPPO Pose ID>  (2814) 
30506

>  <Energy>  (2814) 
1.286195

>  <fragmenstein_error>  (2814) 


>  <tags>  (2814) 
{'openbind_xx01zvns2b_c1_fragmenstein', 'fragmenstein_placed'}

>  <ref_pdb>  (2814) 
175

>  <scratch_subdir>  (2814) 
/opt/xchem-fragalysis-2/maxwin/BulkDock/SCRATCH/511028/C42932-P309

>  <alias>  (2814) 
C[C@@H]1[C@H](F)N[C@H](NC(=O)c2cc(Cl)cc3c2cnn3C2CNC2)CC12CCCC2

>  <HIPPO Compound ID>  (2814) 
42932

>  <fragmenstein_runtime>  (2814) 
5.238059

$$$$
C[C@@H]1NC[C@H]1n1ncc2c(C(=O)N[C@H]3C[C@H]4C=NC=C4CN3)cc(Cl)cc21
     RDKit          3D

 27 31  0  0  0  0  0  0  0  0999 V2000
   -5.5114    8.0273  -20.5131 C   0  0  0  0  0  0  0  0  0  0  0  0
   -4.5164    7.0435  -19.9447 C   0  0  2  0  0  0  0  0  0  0  0  0
   -3.6672    6.4138  -21.0150 N   0  0  0  0  0  0  0  0  0  0  0  0
   -3.6340    5.2055  -20.1403 C   0  0  0  0  0  0  0  0  0  0  0  0
   -5.0150    5.6163  -19.6051 C   0  0  1  0  0  0  0  0  0  0  0  0
   -5.2048    5.3762  -18.1637 N   0  0  0  0  0  0  0  0  0  0  0  0
   -4.2162    5.5386  -17.2630 N   0  0  0  0  0  0  0  0  0  0  0  0
   -4.8207    5.3449  -16.0902 C   0  0  0  0  0  0  0  0  0  0  0  0
   -6.1896    5.0184  -16.2194 C   0  0  0  0  0  0  0  0  0  0  0  0
   -7.2570    4.7447  -15.3335 C   0  0  0  0  0  0  0  0  0  0  0  0
   -7.0505    4.9211  -13.8532 C   0  0  0  0  0  0  0  0  0  0  0  0
   -6.1925    5.6355  -13.5145 O   0  0  0  0  0  0  0  0  0  0  0  0
   -8.1141    4.1730  -13.0240 N   0  0  0  0  0  0  0  0  0  0  0  0
   -8.4033    4.2203  -11.6263 C   0  0  1  0  0  0  0  0  0  0  0  0
   -8.0774    2.9772  -10.7974 C   0  0  0  0  0  0  0  0  0  0  0  0
   -8.8886    3.1484   -9.5286 C   0  0  1  0  0  0  0  0  0  0  0  0
   -8.6799    2.3172   -8.2952 C   0  0  0  0  0  0  0  0  0  0  0  0
   -8.5735    2.9869   -7.1844 N   0  0  0  0  0  0  0  0  0  0  0  0
   -8.4519    4.2910   -7.5719 C   0  0  0  0  0  0  0  0  0  0  0  0
   -8.5811    4.4665   -8.8877 C   0  0  0  0  0  0  0  0  0  0  0  0
   -8.4051    5.6914   -9.7094 C   0  0  0  0  0  0  0  0  0  0  0  0
   -7.8703    5.4347  -11.0465 N   0  0  0  0  0  0  0  0  0  0  0  0
   -8.5258    4.5002  -15.8958 C   0  0  0  0  0  0  0  0  0  0  0  0
   -8.7065    4.4774  -17.2770 C   0  0  0  0  0  0  0  0  0  0  0  0
  -10.2691    4.1974  -17.9256 Cl  0  0  0  0  0  0  0  0  0  0  0  0
   -7.6607    4.7358  -18.1575 C   0  0  0  0  0  0  0  0  0  0  0  0
   -6.4110    5.0238  -17.5984 C   0  0  0  0  0  0  0  0  0  0  0  0
  2  1  1  6
  2  3  1  0
  3  4  1  0
  4  5  1  0
  5  6  1  1
  6  7  1  0
  7  8  2  0
  8  9  1  0
  9 10  2  0
 10 11  1  0
 11 12  2  0
 11 13  1  0
 14 13  1  6
 14 15  1  0
 16 15  1  6
 16 17  1  0
 17 18  2  0
 18 19  1  0
 19 20  2  0
 20 21  1  0
 21 22  1  0
 10 23  1  0
 23 24  2  0
 24 25  1  0
 24 26  1  0
 26 27  2  0
  5  2  1  0
 27  6  1  0
 27  9  1  0
 22 14  1  0
 20 16  1  0
M  END
>  <smiles>  (2815) 
C42944-P309

>  <fragmenstein_outcome>  (2815) 
acceptable

>  <inchikey>  (2815) 
BJPUHHPFQKJNPN-UHFFFAOYSA-N

>  <fragmenstein_mode>  (2815) 
expansion

>  <HIPPO Pose ID>  (2815) 
30517

>  <Energy>  (2815) 
-0.814561

>  <fragmenstein_error>  (2815) 


>  <tags>  (2815) 
{'openbind_xx01zvns2b_c1_fragmenstein', 'fragmenstein_placed'}

>  <ref_pdb>  (2815) 
175

>  <scratch_subdir>  (2815) 
/opt/xchem-fragalysis-2/maxwin/BulkDock/SCRATCH/511028/C42944-P309

>  <alias>  (2815) 
C[C@@H]1NC[C@H]1n1ncc2c(C(=O)N[C@H]3C[C@H]4C=NC=C4CN3)cc(Cl)cc21

>  <HIPPO Compound ID>  (2815) 
28555

>  <fragmenstein_runtime>  (2815) 
4.175879

$$$$
CNCc1cc(NC(=O)c2cc(Cl)cc3c2cnn3C2CNC2)ncc1C
     RDKit          3D

 27 30  0  0  0  0  0  0  0  0999 V2000
   -9.5002    1.5684   -6.6676 C   0  0  0  0  0  0  0  0  0  0  0  0
   -8.7476    1.7006   -7.8909 N   0  0  0  0  0  0  0  0  0  0  0  0
   -9.4707    2.3710   -8.9367 C   0  0  0  0  0  0  0  0  0  0  0  0
   -8.7341    3.5056   -9.6059 C   0  0  0  0  0  0  0  0  0  0  0  0
   -8.5800    3.4841  -11.0042 C   0  0  0  0  0  0  0  0  0  0  0  0
   -8.0952    4.6113  -11.6447 C   0  0  0  0  0  0  0  0  0  0  0  0
   -8.0218    4.6448  -13.0253 N   0  0  0  0  0  0  0  0  0  0  0  0
   -7.4813    5.7339  -13.9731 C   0  0  0  0  0  0  0  0  0  0  0  0
   -7.0831    6.8068  -13.7441 O   0  0  0  0  0  0  0  0  0  0  0  0
   -7.5141    5.3282  -15.3969 C   0  0  0  0  0  0  0  0  0  0  0  0
   -8.6341    4.7110  -15.9628 C   0  0  0  0  0  0  0  0  0  0  0  0
   -8.7023    4.5392  -17.3427 C   0  0  0  0  0  0  0  0  0  0  0  0
  -10.1572    3.9731  -18.0365 Cl  0  0  0  0  0  0  0  0  0  0  0  0
   -7.6653    4.9196  -18.1970 C   0  0  0  0  0  0  0  0  0  0  0  0
   -6.5616    5.5483  -17.6120 C   0  0  0  0  0  0  0  0  0  0  0  0
   -6.4664    5.7534  -16.2388 C   0  0  0  0  0  0  0  0  0  0  0  0
   -5.2414    6.4354  -16.0674 C   0  0  0  0  0  0  0  0  0  0  0  0
   -4.6109    6.6622  -17.2195 N   0  0  0  0  0  0  0  0  0  0  0  0
   -5.4302    6.1270  -18.1408 N   0  0  0  0  0  0  0  0  0  0  0  0
   -5.1512    6.1837  -19.5776 C   0  0  0  0  0  0  0  0  0  0  0  0
   -3.8193    6.8360  -19.9938 C   0  0  0  0  0  0  0  0  0  0  0  0
   -3.6384    5.7185  -20.9700 N   0  0  0  0  0  0  0  0  0  0  0  0
   -4.4714    4.9011  -20.0439 C   0  0  0  0  0  0  0  0  0  0  0  0
   -7.7233    5.7185  -10.9851 N   0  0  0  0  0  0  0  0  0  0  0  0
   -7.8349    5.7109   -9.6434 C   0  0  0  0  0  0  0  0  0  0  0  0
   -8.3380    4.6524   -8.9006 C   0  0  0  0  0  0  0  0  0  0  0  0
   -8.4595    4.7829   -7.4134 C   0  0  0  0  0  0  0  0  0  0  0  0
  1  2  1  0
  2  3  1  0
  3  4  1  0
  4  5  2  0
  5  6  1  0
  6  7  1  0
  7  8  1  0
  8  9  2  0
  8 10  1  0
 10 11  2  0
 11 12  1  0
 12 13  1  0
 12 14  2  0
 14 15  1  0
 15 16  2  0
 16 17  1  0
 17 18  2  0
 18 19  1  0
 19 20  1  0
 20 21  1  0
 21 22  1  0
 22 23  1  0
  6 24  2  0
 24 25  1  0
 25 26  2  0
 26 27  1  0
 26  4  1  0
 16 10  1  0
 23 20  1  0
 19 15  1  0
M  END
>  <smiles>  (2816) 
C42954-P309

>  <fragmenstein_outcome>  (2816) 
acceptable

>  <inchikey>  (2816) 
QHCFLNVDEXJYEQ-UHFFFAOYSA-N

>  <fragmenstein_mode>  (2816) 
expansion

>  <HIPPO Pose ID>  (2816) 
30518

>  <Energy>  (2816) 
38.962742

>  <fragmenstein_error>  (2816) 


>  <tags>  (2816) 
{'openbind_xx01zvns2b_c1_fragmenstein', 'fragmenstein_placed'}

>  <ref_pdb>  (2816) 
175

>  <scratch_subdir>  (2816) 
/opt/xchem-fragalysis-2/maxwin/BulkDock/SCRATCH/511028/C42954-P309

>  <alias>  (2816) 
CNCc1cc(NC(=O)c2cc(Cl)cc3c2cnn3C2CNC2)ncc1C

>  <HIPPO Compound ID>  (2816) 
42954

>  <fragmenstein_runtime>  (2816) 
5.625845

$$$$
CS(=O)(=O)c1c(C2CNC2)[nH]c2ccc(C(=O)Nc3ccc4c(c3)CNC4)cc12
     RDKit          3D

 29 33  0  0  0  0  0  0  0  0999 V2000
   -3.4770    7.5883  -17.2417 C   0  0  0  0  0  0  0  0  0  0  0  0
   -3.6640    5.8431  -16.9767 S   0  0  0  0  0  0  0  0  0  0  0  0
   -3.6228    5.5953  -15.5509 O   0  0  0  0  0  0  0  0  0  0  0  0
   -2.8244    5.0686  -17.8644 O   0  0  0  0  0  0  0  0  0  0  0  0
   -5.2783    5.5252  -17.4987 C   0  0  0  0  0  0  0  0  0  0  0  0
   -5.7890    5.4430  -18.7774 C   0  0  0  0  0  0  0  0  0  0  0  0
   -5.1649    5.6458  -20.1732 C   0  0  0  0  0  0  0  0  0  0  0  0
   -5.3143    7.0591  -20.7795 C   0  0  0  0  0  0  0  0  0  0  0  0
   -4.0574    6.8102  -21.5368 N   0  0  0  0  0  0  0  0  0  0  0  0
   -3.6710    5.8696  -20.4501 C   0  0  0  0  0  0  0  0  0  0  0  0
   -7.1107    5.0677  -18.6830 N   0  0  0  0  0  0  0  0  0  0  0  0
   -7.4743    4.9463  -17.3676 C   0  0  0  0  0  0  0  0  0  0  0  0
   -8.6904    4.5537  -16.8003 C   0  0  0  0  0  0  0  0  0  0  0  0
   -8.8107    4.6680  -15.4137 C   0  0  0  0  0  0  0  0  0  0  0  0
   -7.7745    5.1909  -14.6523 C   0  0  0  0  0  0  0  0  0  0  0  0
   -7.9606    5.5910  -13.2447 C   0  0  0  0  0  0  0  0  0  0  0  0
   -7.7635    6.7058  -12.9635 O   0  0  0  0  0  0  0  0  0  0  0  0
   -8.3315    4.3893  -12.3589 N   0  0  0  0  0  0  0  0  0  0  0  0
   -8.4421    4.2858  -10.9769 C   0  0  0  0  0  0  0  0  0  0  0  0
   -8.2734    5.4116  -10.1535 C   0  0  0  0  0  0  0  0  0  0  0  0
   -8.3830    5.3066   -8.7647 C   0  0  0  0  0  0  0  0  0  0  0  0
   -8.6814    4.0691   -8.2297 C   0  0  0  0  0  0  0  0  0  0  0  0
   -8.8378    2.9515   -9.0445 C   0  0  0  0  0  0  0  0  0  0  0  0
   -8.7138    3.0388  -10.4192 C   0  0  0  0  0  0  0  0  0  0  0  0
   -9.1160    1.7639   -8.1870 C   0  0  0  0  0  0  0  0  0  0  0  0
   -9.5190    2.3275   -6.8726 N   0  0  0  0  0  0  0  0  0  0  0  0
   -8.8873    3.6644   -6.8091 C   0  0  0  0  0  0  0  0  0  0  0  0
   -6.5420    5.4911  -15.2238 C   0  0  0  0  0  0  0  0  0  0  0  0
   -6.3732    5.3431  -16.6083 C   0  0  0  0  0  0  0  0  0  0  0  0
  1  2  1  0
  2  3  2  0
  2  4  2  0
  2  5  1  0
  5  6  2  0
  6  7  1  0
  7  8  1  0
  8  9  1  0
  9 10  1  0
  6 11  1  0
 11 12  1  0
 12 13  2  0
 13 14  1  0
 14 15  2  0
 15 16  1  0
 16 17  2  0
 16 18  1  0
 18 19  1  0
 19 20  2  0
 20 21  1  0
 21 22  2  0
 22 23  1  0
 23 24  2  0
 23 25  1  0
 25 26  1  0
 26 27  1  0
 15 28  1  0
 28 29  2  0
 29  5  1  0
 10  7  1  0
 29 12  1  0
 24 19  1  0
 27 22  1  0
M  END
>  <smiles>  (2817) 
C42988-P309

>  <fragmenstein_outcome>  (2817) 
acceptable

>  <inchikey>  (2817) 
LUGLITRDIWTJQZ-UHFFFAOYSA-N

>  <fragmenstein_mode>  (2817) 
expansion

>  <HIPPO Pose ID>  (2817) 
30525

>  <Energy>  (2817) 
125.523187

>  <fragmenstein_error>  (2817) 


>  <tags>  (2817) 
{'openbind_xx01zvns2b_c1_fragmenstein', 'fragmenstein_placed'}

>  <ref_pdb>  (2817) 
175

>  <scratch_subdir>  (2817) 
/opt/xchem-fragalysis-2/maxwin/BulkDock/SCRATCH/511028/C42988-P309

>  <alias>  (2817) 
CS(=O)(=O)c1c(C2CNC2)[nH]c2ccc(C(=O)Nc3ccc4c(c3)CNC4)cc12

>  <HIPPO Compound ID>  (2817) 
42988

>  <fragmenstein_runtime>  (2817) 
7.783453

$$$$
CCN(CCCO)c1c(C(=O)Nc2ccc3c(c2)CNC3)cc(F)c2c1C(=O)C(C1CNC1)=N2
     RDKit          3D

 34 38  0  0  0  0  0  0  0  0999 V2000
   -3.6316    4.5452  -14.2952 C   0  0  0  0  0  0  0  0  0  0  0  0
   -4.6483    5.3538  -13.4996 C   0  0  0  0  0  0  0  0  0  0  0  0
   -5.4263    6.2646  -14.3527 N   0  0  0  0  0  0  0  0  0  0  0  0
   -4.8180    7.5364  -14.7569 C   0  0  0  0  0  0  0  0  0  0  0  0
   -4.8589    8.5469  -13.6107 C   0  0  0  0  0  0  0  0  0  0  0  0
   -4.2803    9.8845  -14.0491 C   0  0  0  0  0  0  0  0  0  0  0  0
   -4.2745   10.7795  -12.9458 O   0  0  0  0  0  0  0  0  0  0  0  0
   -6.4294    5.6955  -15.1274 C   0  0  0  0  0  0  0  0  0  0  0  0
   -7.6573    5.2868  -14.5600 C   0  0  0  0  0  0  0  0  0  0  0  0
   -7.9868    5.6817  -13.1711 C   0  0  0  0  0  0  0  0  0  0  0  0
   -8.0663    6.8149  -12.9066 O   0  0  0  0  0  0  0  0  0  0  0  0
   -8.1509    4.4333  -12.2806 N   0  0  0  0  0  0  0  0  0  0  0  0
   -8.3458    4.3221  -10.9109 C   0  0  0  0  0  0  0  0  0  0  0  0
   -8.2714    5.4464  -10.0746 C   0  0  0  0  0  0  0  0  0  0  0  0
   -8.4380    5.3193   -8.6931 C   0  0  0  0  0  0  0  0  0  0  0  0
   -8.7111    4.0644   -8.1832 C   0  0  0  0  0  0  0  0  0  0  0  0
   -8.7927    2.9520   -9.0148 C   0  0  0  0  0  0  0  0  0  0  0  0
   -8.5945    3.0583  -10.3788 C   0  0  0  0  0  0  0  0  0  0  0  0
   -9.0918    1.7476   -8.1887 C   0  0  0  0  0  0  0  0  0  0  0  0
   -9.5476    2.2812   -6.8792 N   0  0  0  0  0  0  0  0  0  0  0  0
   -8.9584    3.6345   -6.7767 C   0  0  0  0  0  0  0  0  0  0  0  0
   -8.6630    4.6316  -15.2980 C   0  0  0  0  0  0  0  0  0  0  0  0
   -8.4901    4.3991  -16.6516 C   0  0  0  0  0  0  0  0  0  0  0  0
   -9.4525    3.7912  -17.3583 F   0  0  0  0  0  0  0  0  0  0  0  0
   -7.3299    4.8315  -17.2563 C   0  0  0  0  0  0  0  0  0  0  0  0
   -6.3375    5.4631  -16.4921 C   0  0  0  0  0  0  0  0  0  0  0  0
   -5.3053    5.7907  -17.4676 C   0  0  0  0  0  0  0  0  0  0  0  0
   -4.2235    6.3100  -17.3355 O   0  0  0  0  0  0  0  0  0  0  0  0
   -5.8936    5.3417  -18.7734 C   0  0  0  0  0  0  0  0  0  0  0  0
   -5.2136    5.6157  -20.0730 C   0  0  0  0  0  0  0  0  0  0  0  0
   -3.6952    5.4739  -20.2533 C   0  0  0  0  0  0  0  0  0  0  0  0
   -3.7623    6.5790  -21.2499 N   0  0  0  0  0  0  0  0  0  0  0  0
   -4.9650    7.0682  -20.5156 C   0  0  0  0  0  0  0  0  0  0  0  0
   -7.0387    4.7488  -18.6272 N   0  0  0  0  0  0  0  0  0  0  0  0
  1  2  1  0
  2  3  1  0
  3  4  1  0
  4  5  1  0
  5  6  1  0
  6  7  1  0
  3  8  1  0
  8  9  2  0
  9 10  1  0
 10 11  2  0
 10 12  1  0
 12 13  1  0
 13 14  2  0
 14 15  1  0
 15 16  2  0
 16 17  1  0
 17 18  2  0
 17 19  1  0
 19 20  1  0
 20 21  1  0
  9 22  1  0
 22 23  2  0
 23 24  1  0
 23 25  1  0
 25 26  2  0
 26 27  1  0
 27 28  2  0
 27 29  1  0
 29 30  1  0
 30 31  1  0
 31 32  1  0
 32 33  1  0
 29 34  2  0
 26  8  1  0
 33 30  1  0
 18 13  1  0
 34 25  1  0
 21 16  1  0
M  END
>  <smiles>  (2818) 
C43107-P309

>  <fragmenstein_outcome>  (2818) 
acceptable

>  <inchikey>  (2818) 
YICBIEHLYKKQNL-UHFFFAOYSA-N

>  <fragmenstein_mode>  (2818) 
expansion

>  <HIPPO Pose ID>  (2818) 
30566

>  <Energy>  (2818) 
131.496606

>  <fragmenstein_error>  (2818) 


>  <tags>  (2818) 
{'openbind_xx01zvns2b_c1_fragmenstein', 'fragmenstein_placed'}

>  <ref_pdb>  (2818) 
175

>  <scratch_subdir>  (2818) 
/opt/xchem-fragalysis-2/maxwin/BulkDock/SCRATCH/511028/C43107-P309

>  <alias>  (2818) 
CCN(CCCO)c1c(C(=O)Nc2ccc3c(c2)CNC3)cc(F)c2c1C(=O)C(C1CNC1)=N2

>  <HIPPO Compound ID>  (2818) 
24742

>  <fragmenstein_runtime>  (2818) 
5.672961

$$$$
CNCc1nc2c(C)cc([C@H](C(=O)NCC(F)F)C(=O)c3ccc4c(c3)[C@@H](N)NC4)cc2n1OCF
     RDKit          3D

 36 39  0  0  0  0  0  0  0  0999 V2000
   -2.9809    5.0437  -20.0870 C   0  0  0  0  0  0  0  0  0  0  0  0
   -3.4500    6.4149  -20.1083 N   0  0  0  0  0  0  0  0  0  0  0  0
   -4.9185    6.5081  -20.1764 C   0  0  0  0  0  0  0  0  0  0  0  0
   -5.6632    5.8892  -19.0409 C   0  0  0  0  0  0  0  0  0  0  0  0
   -6.8247    5.2602  -19.1010 N   0  0  0  0  0  0  0  0  0  0  0  0
   -7.2520    5.0807  -17.8097 C   0  0  0  0  0  0  0  0  0  0  0  0
   -8.4608    4.5761  -17.2906 C   0  0  0  0  0  0  0  0  0  0  0  0
   -9.6360    4.1790  -18.1406 C   0  0  0  0  0  0  0  0  0  0  0  0
   -8.5429    4.4578  -15.8823 C   0  0  0  0  0  0  0  0  0  0  0  0
   -7.5122    4.8908  -15.0288 C   0  0  0  0  0  0  0  0  0  0  0  0
   -7.4944    4.7064  -13.5207 C   0  0  2  0  0  0  0  0  0  0  0  0
   -6.6340    3.4838  -13.1517 C   0  0  0  0  0  0  0  0  0  0  0  0
   -6.9976    2.3806  -13.2901 O   0  0  0  0  0  0  0  0  0  0  0  0
   -5.2455    4.0429  -12.6962 N   0  0  0  0  0  0  0  0  0  0  0  0
   -4.0646    3.3535  -12.2312 C   0  0  0  0  0  0  0  0  0  0  0  0
   -4.0512    1.8588  -12.5064 C   0  0  0  0  0  0  0  0  0  0  0  0
   -2.7843    1.3948  -12.3086 F   0  0  0  0  0  0  0  0  0  0  0  0
   -4.8407    1.2361  -11.6036 F   0  0  0  0  0  0  0  0  0  0  0  0
   -8.8184    4.8047  -12.8258 C   0  0  0  0  0  0  0  0  0  0  0  0
   -9.8166    5.2860  -13.3574 O   0  0  0  0  0  0  0  0  0  0  0  0
   -8.7697    4.6498  -11.3558 C   0  0  0  0  0  0  0  0  0  0  0  0
   -8.6309    5.8343  -10.6023 C   0  0  0  0  0  0  0  0  0  0  0  0
   -8.5658    5.7823   -9.2123 C   0  0  0  0  0  0  0  0  0  0  0  0
   -8.6353    4.5398   -8.6112 C   0  0  0  0  0  0  0  0  0  0  0  0
   -8.7340    3.3635   -9.3613 C   0  0  0  0  0  0  0  0  0  0  0  0
   -8.8134    3.3958  -10.7459 C   0  0  0  0  0  0  0  0  0  0  0  0
   -8.7378    2.1958   -8.4247 C   0  0  1  0  0  0  0  0  0  0  0  0
   -7.6223    1.3340   -8.6280 N   0  0  0  0  0  0  0  0  0  0  0  0
   -8.4739    2.7561   -7.1109 N   0  0  0  0  0  0  0  0  0  0  0  0
   -8.6785    4.1976   -7.1581 C   0  0  0  0  0  0  0  0  0  0  0  0
   -6.3738    5.4886  -15.5655 C   0  0  0  0  0  0  0  0  0  0  0  0
   -6.2737    5.5305  -16.9406 C   0  0  0  0  0  0  0  0  0  0  0  0
   -5.2698    5.9824  -17.7390 N   0  0  0  0  0  0  0  0  0  0  0  0
   -4.0912    6.5634  -17.2613 O   0  0  0  0  0  0  0  0  0  0  0  0
   -3.2636    5.5465  -16.7147 C   0  0  0  0  0  0  0  0  0  0  0  0
   -2.0084    5.7801  -17.1801 F   0  0  0  0  0  0  0  0  0  0  0  0
  1  2  1  0
  2  3  1  0
  3  4  1  0
  4  5  2  0
  5  6  1  0
  6  7  2  0
  7  8  1  0
  7  9  1  0
  9 10  2  0
 10 11  1  0
 11 12  1  6
 12 13  2  0
 12 14  1  0
 14 15  1  0
 15 16  1  0
 16 17  1  0
 16 18  1  0
 11 19  1  0
 19 20  2  0
 19 21  1  0
 21 22  2  0
 22 23  1  0
 23 24  2  0
 24 25  1  0
 25 26  2  0
 25 27  1  0
 27 28  1  6
 27 29  1  0
 29 30  1  0
 10 31  1  0
 31 32  2  0
 32 33  1  0
 33 34  1  0
 34 35  1  0
 35 36  1  0
 33  4  1  0
 32  6  1  0
 26 21  1  0
 30 24  1  0
M  END
>  <smiles>  (2819) 
C43246-P310

>  <fragmenstein_outcome>  (2819) 
acceptable

>  <inchikey>  (2819) 
MBLDUPSUFCYFTH-UHFFFAOYSA-N

>  <fragmenstein_mode>  (2819) 
expansion

>  <HIPPO Pose ID>  (2819) 
30646

>  <Energy>  (2819) 
62.652753

>  <fragmenstein_error>  (2819) 


>  <tags>  (2819) 
{'openbind_xx01zvns2b_c1_fragmenstein', 'fragmenstein_placed'}

>  <ref_pdb>  (2819) 
175

>  <scratch_subdir>  (2819) 
/opt/xchem-fragalysis-2/maxwin/BulkDock/SCRATCH/511028/C43246-P310

>  <alias>  (2819) 
CNCc1nc2c(C)cc([C@H](C(=O)NCC(F)F)C(=O)c3ccc4c(c3)[C@@H](N)NC4)cc2n1OCF

>  <HIPPO Compound ID>  (2819) 
27587

>  <fragmenstein_runtime>  (2819) 
15.72783

$$$$
C[C@@H]1C[C@H]([C@H](C(=O)NCC(F)F)C(=O)c2ccc3c(c2)CNC3)CC2=C1[C@@H](C#N)CN2
     RDKit          3D

 31 34  0  0  0  0  0  0  0  0999 V2000
   -9.4101    1.7628   -8.9244 C   0  0  0  0  0  0  0  0  0  0  0  0
   -9.1227    3.1452   -9.4752 C   0  0  2  0  0  0  0  0  0  0  0  0
   -8.2494    3.0301  -10.7282 C   0  0  0  0  0  0  0  0  0  0  0  0
   -8.0157    4.4153  -11.3500 C   0  0  2  0  0  0  0  0  0  0  0  0
   -7.2904    4.3017  -12.7051 C   0  0  2  0  0  0  0  0  0  0  0  0
   -5.7604    4.1531  -12.5970 C   0  0  0  0  0  0  0  0  0  0  0  0
   -5.0362    5.0648  -12.6756 O   0  0  0  0  0  0  0  0  0  0  0  0
   -5.4587    2.6452  -12.4224 N   0  0  0  0  0  0  0  0  0  0  0  0
   -4.2027    1.9556  -12.2123 C   0  0  0  0  0  0  0  0  0  0  0  0
   -4.1272    1.2172  -10.8780 C   0  0  0  0  0  0  0  0  0  0  0  0
   -5.3058    0.6108  -10.6007 F   0  0  0  0  0  0  0  0  0  0  0  0
   -3.8988    2.1071   -9.8754 F   0  0  0  0  0  0  0  0  0  0  0  0
   -7.6691    5.4795  -13.5800 C   0  0  0  0  0  0  0  0  0  0  0  0
   -8.0573    6.5730  -13.1876 O   0  0  0  0  0  0  0  0  0  0  0  0
   -7.5401    5.2741  -15.0185 C   0  0  0  0  0  0  0  0  0  0  0  0
   -6.2952    5.5562  -15.6000 C   0  0  0  0  0  0  0  0  0  0  0  0
   -6.1141    5.3351  -16.9490 C   0  0  0  0  0  0  0  0  0  0  0  0
   -7.1992    4.8693  -17.6637 C   0  0  0  0  0  0  0  0  0  0  0  0
   -8.4467    4.6275  -17.0968 C   0  0  0  0  0  0  0  0  0  0  0  0
   -8.6380    4.8108  -15.7481 C   0  0  0  0  0  0  0  0  0  0  0  0
   -9.4076    4.2123  -18.1556 C   0  0  0  0  0  0  0  0  0  0  0  0
   -8.6215    4.1606  -19.4071 N   0  0  0  0  0  0  0  0  0  0  0  0
   -7.2400    4.5985  -19.1113 C   0  0  0  0  0  0  0  0  0  0  0  0
   -7.3358    5.3908  -10.3574 C   0  0  0  0  0  0  0  0  0  0  0  0
   -7.7707    5.1705   -8.9452 C   0  0  0  0  0  0  0  0  0  0  0  0
   -8.5456    4.1562   -8.5400 C   0  0  0  0  0  0  0  0  0  0  0  0
   -8.6910    4.1809   -7.0418 C   0  0  1  0  0  0  0  0  0  0  0  0
   -8.3923    2.8832   -6.4623 C   0  0  0  0  0  0  0  0  0  0  0  0
   -8.2048    1.7984   -6.1103 N   0  0  0  0  0  0  0  0  0  0  0  0
   -7.6303    5.2244   -6.6297 C   0  0  0  0  0  0  0  0  0  0  0  0
   -7.3257    5.9370   -7.8809 N   0  0  0  0  0  0  0  0  0  0  0  0
  2  1  1  1
  2  3  1  0
  4  3  1  1
  4  5  1  0
  5  6  1  1
  6  7  2  0
  6  8  1  0
  8  9  1  0
  9 10  1  0
 10 11  1  0
 10 12  1  0
  5 13  1  0
 13 14  2  0
 13 15  1  0
 15 16  2  0
 16 17  1  0
 17 18  2  0
 18 19  1  0
 19 20  2  0
 19 21  1  0
 21 22  1  0
 22 23  1  0
  4 24  1  0
 24 25  1  0
 25 26  2  0
 26 27  1  0
 27 28  1  1
 28 29  3  0
 27 30  1  0
 30 31  1  0
 26  2  1  0
 20 15  1  0
 31 25  1  0
 23 18  1  0
M  END
>  <smiles>  (2820) 
C25467-P310

>  <fragmenstein_outcome>  (2820) 
acceptable

>  <inchikey>  (2820) 
MCXFLNPRDBBWSN-UHFFFAOYSA-N

>  <fragmenstein_mode>  (2820) 
expansion

>  <HIPPO Pose ID>  (2820) 
30669

>  <Energy>  (2820) 
121.016666

>  <fragmenstein_error>  (2820) 


>  <tags>  (2820) 
{'openbind_xx01zvns2b_c1_fragmenstein', 'fragmenstein_placed'}

>  <ref_pdb>  (2820) 
175

>  <scratch_subdir>  (2820) 
/opt/xchem-fragalysis-2/maxwin/BulkDock/SCRATCH/511028/C25467-P310

>  <alias>  (2820) 
C[C@@H]1C[C@H]([C@H](C(=O)NCC(F)F)C(=O)c2ccc3c(c2)CNC3)CC2=C1[C@@H](C#N)CN2

>  <HIPPO Compound ID>  (2820) 
32186

>  <fragmenstein_runtime>  (2820) 
7.917366

$$$$
Cc1cc2c(cc1N[C@](O)(C(=O)NC(C)C)c1cc(Cl)cc3c1NC1=c4ccccc4=CC=NN13)CNC2
     RDKit          3D

 38 43  0  0  0  0  0  0  0  0999 V2000
   -8.1336    6.7753  -10.8148 C   0  0  0  0  0  0  0  0  0  0  0  0
   -8.3138    5.3444  -10.4247 C   0  0  0  0  0  0  0  0  0  0  0  0
   -8.3665    5.1636   -9.0206 C   0  0  0  0  0  0  0  0  0  0  0  0
   -8.6808    3.9347   -8.5041 C   0  0  0  0  0  0  0  0  0  0  0  0
   -8.8769    2.8574   -9.3425 C   0  0  0  0  0  0  0  0  0  0  0  0
   -8.7805    2.9926  -10.7245 C   0  0  0  0  0  0  0  0  0  0  0  0
   -8.5006    4.2477  -11.3183 C   0  0  0  0  0  0  0  0  0  0  0  0
   -8.5655    4.3014  -12.7378 N   0  0  0  0  0  0  0  0  0  0  0  0
   -7.5328    4.9679  -13.5478 C   0  0  2  0  0  0  0  0  0  0  0  0
   -6.2751    4.6423  -12.9742 O   0  0  0  0  0  0  0  0  0  0  0  0
   -7.8296    6.5594  -13.6365 C   0  0  0  0  0  0  0  0  0  0  0  0
   -8.9158    6.9949  -13.7289 O   0  0  0  0  0  0  0  0  0  0  0  0
   -6.4389    7.2842  -13.6667 N   0  0  0  0  0  0  0  0  0  0  0  0
   -6.1161    8.6921  -13.7207 C   0  0  0  0  0  0  0  0  0  0  0  0
   -5.8859    9.2606  -12.3256 C   0  0  0  0  0  0  0  0  0  0  0  0
   -4.8966    8.9160  -14.6065 C   0  0  0  0  0  0  0  0  0  0  0  0
   -7.5678    4.5493  -15.0424 C   0  0  0  0  0  0  0  0  0  0  0  0
   -8.7605    4.2944  -15.7522 C   0  0  0  0  0  0  0  0  0  0  0  0
   -8.7980    4.2467  -17.1709 C   0  0  0  0  0  0  0  0  0  0  0  0
  -10.2853    3.9828  -18.0012 Cl  0  0  0  0  0  0  0  0  0  0  0  0
   -7.6616    4.4866  -17.9399 C   0  0  0  0  0  0  0  0  0  0  0  0
   -6.4923    4.7315  -17.2623 C   0  0  0  0  0  0  0  0  0  0  0  0
   -6.4490    4.7259  -15.8508 C   0  0  0  0  0  0  0  0  0  0  0  0
   -5.0796    4.8923  -15.4285 N   0  0  0  0  0  0  0  0  0  0  0  0
   -4.3709    5.2356  -16.6325 C   0  0  0  0  0  0  0  0  0  0  0  0
   -3.0994    5.7107  -16.5837 C   0  0  0  0  0  0  0  0  0  0  0  0
   -2.4597    5.8957  -15.2574 C   0  0  0  0  0  0  0  0  0  0  0  0
   -1.2307    6.4242  -15.1367 C   0  0  0  0  0  0  0  0  0  0  0  0
   -0.4690    6.8307  -16.2949 C   0  0  0  0  0  0  0  0  0  0  0  0
   -0.9600    6.6883  -17.5361 C   0  0  0  0  0  0  0  0  0  0  0  0
   -2.2988    6.1115  -17.7674 C   0  0  0  0  0  0  0  0  0  0  0  0
   -2.6664    5.9846  -19.0509 C   0  0  0  0  0  0  0  0  0  0  0  0
   -3.9180    5.4363  -19.5976 C   0  0  0  0  0  0  0  0  0  0  0  0
   -5.0138    5.0442  -19.0597 N   0  0  0  0  0  0  0  0  0  0  0  0
   -5.1993    5.0560  -17.7439 N   0  0  0  0  0  0  0  0  0  0  0  0
   -9.2077    1.6712   -8.4997 C   0  0  0  0  0  0  0  0  0  0  0  0
   -9.6085    2.2272   -7.1746 N   0  0  0  0  0  0  0  0  0  0  0  0
   -8.9282    3.5361   -7.0920 C   0  0  0  0  0  0  0  0  0  0  0  0
  1  2  1  0
  2  3  2  0
  3  4  1  0
  4  5  2  0
  5  6  1  0
  6  7  2  0
  7  8  1  0
  8  9  1  0
  9 10  1  1
  9 11  1  0
 11 12  2  0
 11 13  1  0
 13 14  1  0
 14 15  1  0
 14 16  1  0
  9 17  1  0
 17 18  2  0
 18 19  1  0
 19 20  1  0
 19 21  2  0
 21 22  1  0
 22 23  2  0
 23 24  1  0
 24 25  1  0
 25 26  2  0
 26 27  1  0
 27 28  2  0
 28 29  1  0
 29 30  2  0
 30 31  1  0
 31 32  2  0
 32 33  1  0
 33 34  2  0
 34 35  1  0
  5 36  1  0
 36 37  1  0
 37 38  1  0
  7  2  1  0
 23 17  1  0
 35 25  1  0
 38  4  1  0
 35 22  1  0
 31 26  1  0
M  END
>  <smiles>  (2821) 
C43409-P311

>  <fragmenstein_outcome>  (2821) 
acceptable

>  <inchikey>  (2821) 
RCUVNPVKXKIXRE-UHFFFAOYSA-N

>  <fragmenstein_mode>  (2821) 
expansion

>  <HIPPO Pose ID>  (2821) 
30757

>  <Energy>  (2821) 
194.13112

>  <fragmenstein_error>  (2821) 


>  <tags>  (2821) 
{'openbind_xx01zvns2b_c1_fragmenstein', 'fragmenstein_placed'}

>  <ref_pdb>  (2821) 
175

>  <scratch_subdir>  (2821) 
/opt/xchem-fragalysis-2/maxwin/BulkDock/SCRATCH/511028/C43409-P311

>  <alias>  (2821) 
Cc1cc2c(cc1N[C@](O)(C(=O)NC(C)C)c1cc(Cl)cc3c1NC1=c4ccccc4=CC=NN13)CNC2

>  <HIPPO Compound ID>  (2821) 
43409

>  <fragmenstein_runtime>  (2821) 
13.594248

$$$$
Cc1cc(N[C@](C=O)(C(=O)NC(C)C)c2cc(Cl)cc3c2c(F)c(-c2ccccc2)n3C)cc2c1CNC2
     RDKit          3D

 38 42  0  0  0  0  0  0  0  0999 V2000
   -8.0061    6.8984   -8.9109 C   0  0  0  0  0  0  0  0  0  0  0  0
   -8.2147    5.6311   -9.6769 C   0  0  0  0  0  0  0  0  0  0  0  0
   -8.2171    5.6220  -11.0836 C   0  0  0  0  0  0  0  0  0  0  0  0
   -8.4254    4.4434  -11.8244 C   0  0  0  0  0  0  0  0  0  0  0  0
   -8.4656    4.4512  -13.2346 N   0  0  0  0  0  0  0  0  0  0  0  0
   -7.1693    4.7179  -13.9803 C   0  0  2  0  0  0  0  0  0  0  0  0
   -6.2254    3.5437  -13.6570 C   0  0  0  0  0  0  0  0  0  0  0  0
   -5.1612    3.5917  -13.0413 O   0  0  0  0  0  0  0  0  0  0  0  0
   -6.6384    6.2124  -13.6538 C   0  0  0  0  0  0  0  0  0  0  0  0
   -7.2453    7.1335  -14.0511 O   0  0  0  0  0  0  0  0  0  0  0  0
   -5.3046    6.1536  -12.8514 N   0  0  0  0  0  0  0  0  0  0  0  0
   -4.4994    7.2125  -12.2949 C   0  0  0  0  0  0  0  0  0  0  0  0
   -3.0519    6.7597  -12.1533 C   0  0  0  0  0  0  0  0  0  0  0  0
   -5.0626    7.6844  -10.9625 C   0  0  0  0  0  0  0  0  0  0  0  0
   -7.4301    4.6514  -15.5242 C   0  0  0  0  0  0  0  0  0  0  0  0
   -8.7158    4.3678  -16.0632 C   0  0  0  0  0  0  0  0  0  0  0  0
   -8.9477    4.2821  -17.4354 C   0  0  0  0  0  0  0  0  0  0  0  0
  -10.5214    3.9890  -18.0586 Cl  0  0  0  0  0  0  0  0  0  0  0  0
   -7.9269    4.4889  -18.3475 C   0  0  0  0  0  0  0  0  0  0  0  0
   -6.6602    4.8080  -17.8523 C   0  0  0  0  0  0  0  0  0  0  0  0
   -6.3916    4.8808  -16.4811 C   0  0  0  0  0  0  0  0  0  0  0  0
   -5.0161    5.2084  -16.4041 C   0  0  0  0  0  0  0  0  0  0  0  0
   -4.3218    5.3613  -15.2724 F   0  0  0  0  0  0  0  0  0  0  0  0
   -4.4760    5.3964  -17.6559 C   0  0  0  0  0  0  0  0  0  0  0  0
   -3.1498    5.8919  -18.0142 C   0  0  0  0  0  0  0  0  0  0  0  0
   -2.7366    7.1493  -17.5520 C   0  0  0  0  0  0  0  0  0  0  0  0
   -1.4844    7.6595  -17.8997 C   0  0  0  0  0  0  0  0  0  0  0  0
   -0.6335    6.9160  -18.7133 C   0  0  0  0  0  0  0  0  0  0  0  0
   -1.0300    5.6596  -19.1668 C   0  0  0  0  0  0  0  0  0  0  0  0
   -2.2773    5.1415  -18.8077 C   0  0  0  0  0  0  0  0  0  0  0  0
   -5.4950    5.1128  -18.5409 N   0  0  0  0  0  0  0  0  0  0  0  0
   -5.4261    5.2132  -19.9851 C   0  0  0  0  0  0  0  0  0  0  0  0
   -8.6475    3.2479  -11.1285 C   0  0  0  0  0  0  0  0  0  0  0  0
   -8.6703    3.2631   -9.7418 C   0  0  0  0  0  0  0  0  0  0  0  0
   -8.4419    4.4282   -9.0262 C   0  0  0  0  0  0  0  0  0  0  0  0
   -8.5373    4.1376   -7.5670 C   0  0  0  0  0  0  0  0  0  0  0  0
   -8.9639    2.7302   -7.4351 N   0  0  0  0  0  0  0  0  0  0  0  0
   -8.9602    2.1449   -8.8024 C   0  0  0  0  0  0  0  0  0  0  0  0
  1  2  1  0
  2  3  2  0
  3  4  1  0
  4  5  1  0
  6  5  1  1
  6  7  1  0
  7  8  2  0
  6  9  1  0
  9 10  2  0
  9 11  1  0
 11 12  1  0
 12 13  1  0
 12 14  1  0
  6 15  1  0
 15 16  2  0
 16 17  1  0
 17 18  1  0
 17 19  2  0
 19 20  1  0
 20 21  2  0
 21 22  1  0
 22 23  1  0
 22 24  2  0
 24 25  1  0
 25 26  2  0
 26 27  1  0
 27 28  2  0
 28 29  1  0
 29 30  2  0
 24 31  1  0
 31 32  1  0
  4 33  2  0
 33 34  1  0
 34 35  2  0
 35 36  1  0
 36 37  1  0
 37 38  1  0
 35  2  1  0
 21 15  1  0
 30 25  1  0
 38 34  1  0
 31 20  1  0
M  END
>  <smiles>  (2822) 
C43410-P311

>  <fragmenstein_outcome>  (2822) 
acceptable

>  <inchikey>  (2822) 
YLPJHQZNQKTUOI-UHFFFAOYSA-N

>  <fragmenstein_mode>  (2822) 
expansion

>  <HIPPO Pose ID>  (2822) 
30758

>  <Energy>  (2822) 
170.805819

>  <fragmenstein_error>  (2822) 


>  <tags>  (2822) 
{'openbind_xx01zvns2b_c1_fragmenstein', 'fragmenstein_placed'}

>  <ref_pdb>  (2822) 
175

>  <scratch_subdir>  (2822) 
/opt/xchem-fragalysis-2/maxwin/BulkDock/SCRATCH/511028/C43410-P311

>  <alias>  (2822) 
Cc1cc(N[C@](C=O)(C(=O)NC(C)C)c2cc(Cl)cc3c2c(F)c(-c2ccccc2)n3C)cc2c1CNC2

>  <HIPPO Compound ID>  (2822) 
43410

>  <fragmenstein_runtime>  (2822) 
7.659135

$$$$
CCCC1([C@@H]2C[C@@H]2n2cnc3c([C@](O)(Nc4ccc5c(c4)CNC5)C(=O)NC(C)C)cc(Cl)cc32)CCCCC1
     RDKit          3D

 40 45  0  0  0  0  0  0  0  0999 V2000
   -2.1343    3.6534  -19.6006 C   0  0  0  0  0  0  0  0  0  0  0  0
   -2.8615    4.5404  -18.6313 C   0  0  0  0  0  0  0  0  0  0  0  0
   -2.3098    5.9650  -18.6172 C   0  0  0  0  0  0  0  0  0  0  0  0
   -2.6562    6.8463  -19.8471 C   0  0  0  0  0  0  0  0  0  0  0  0
   -4.0756    6.5526  -20.3579 C   0  0  2  0  0  0  0  0  0  0  0  0
   -5.1973    7.5577  -20.2859 C   0  0  0  0  0  0  0  0  0  0  0  0
   -5.3732    6.2321  -19.6062 C   0  0  2  0  0  0  0  0  0  0  0  0
   -5.6456    6.1005  -18.1480 N   0  0  0  0  0  0  0  0  0  0  0  0
   -5.0730    6.7968  -17.1330 C   0  0  0  0  0  0  0  0  0  0  0  0
   -5.5214    6.4094  -15.9615 N   0  0  0  0  0  0  0  0  0  0  0  0
   -6.5446    5.5247  -16.2279 C   0  0  0  0  0  0  0  0  0  0  0  0
   -7.4736    4.9365  -15.3272 C   0  0  0  0  0  0  0  0  0  0  0  0
   -7.4338    5.1788  -13.8184 C   0  0  2  0  0  0  0  0  0  0  0  0
   -6.0766    5.3076  -13.4358 O   0  0  0  0  0  0  0  0  0  0  0  0
   -7.9149    4.0503  -13.0039 N   0  0  0  0  0  0  0  0  0  0  0  0
   -8.0722    4.1365  -11.6052 C   0  0  0  0  0  0  0  0  0  0  0  0
   -7.6538    5.2338  -10.8234 C   0  0  0  0  0  0  0  0  0  0  0  0
   -7.8001    5.2725   -9.4313 C   0  0  0  0  0  0  0  0  0  0  0  0
   -8.2978    4.1581   -8.7973 C   0  0  0  0  0  0  0  0  0  0  0  0
   -8.6351    3.0302   -9.5239 C   0  0  0  0  0  0  0  0  0  0  0  0
   -8.5431    3.0094  -10.9142 C   0  0  0  0  0  0  0  0  0  0  0  0
   -9.0137    1.9408   -8.5763 C   0  0  0  0  0  0  0  0  0  0  0  0
   -9.0496    2.5467   -7.2172 N   0  0  0  0  0  0  0  0  0  0  0  0
   -8.5247    3.9209   -7.3451 C   0  0  0  0  0  0  0  0  0  0  0  0
   -8.3195    6.4935  -13.5401 C   0  0  0  0  0  0  0  0  0  0  0  0
   -9.4926    6.5066  -13.5245 O   0  0  0  0  0  0  0  0  0  0  0  0
   -7.2903    7.6448  -13.2922 N   0  0  0  0  0  0  0  0  0  0  0  0
   -7.4967    9.0138  -12.8836 C   0  0  0  0  0  0  0  0  0  0  0  0
   -6.3558    9.8954  -13.3733 C   0  0  0  0  0  0  0  0  0  0  0  0
   -7.6514    9.0993  -11.3692 C   0  0  0  0  0  0  0  0  0  0  0  0
   -8.5974    4.3398  -15.9398 C   0  0  0  0  0  0  0  0  0  0  0  0
   -8.7190    4.2411  -17.3246 C   0  0  0  0  0  0  0  0  0  0  0  0
  -10.2264    3.8235  -18.0059 Cl  0  0  0  0  0  0  0  0  0  0  0  0
   -7.7122    4.6419  -18.1904 C   0  0  0  0  0  0  0  0  0  0  0  0
   -6.6650    5.3490  -17.6099 C   0  0  0  0  0  0  0  0  0  0  0  0
   -1.6334    6.4923  -20.9993 C   0  0  0  0  0  0  0  0  0  0  0  0
   -1.3125    7.6848  -21.8961 C   0  0  0  0  0  0  0  0  0  0  0  0
   -0.5913    8.7790  -21.1102 C   0  0  0  0  0  0  0  0  0  0  0  0
   -1.0179    8.8286  -19.6433 C   0  0  0  0  0  0  0  0  0  0  0  0
   -2.4599    8.3547  -19.4793 C   0  0  0  0  0  0  0  0  0  0  0  0
  1  2  1  0
  2  3  1  0
  3  4  1  0
  5  4  1  1
  5  6  1  0
  6  7  1  0
  7  8  1  1
  8  9  1  0
  9 10  2  0
 10 11  1  0
 11 12  2  0
 12 13  1  0
 13 14  1  1
 13 15  1  0
 15 16  1  0
 16 17  2  0
 17 18  1  0
 18 19  2  0
 19 20  1  0
 20 21  2  0
 20 22  1  0
 22 23  1  0
 23 24  1  0
 13 25  1  0
 25 26  2  0
 25 27  1  0
 27 28  1  0
 28 29  1  0
 28 30  1  0
 12 31  1  0
 31 32  2  0
 32 33  1  0
 32 34  1  0
 34 35  2  0
  4 36  1  0
 36 37  1  0
 37 38  1  0
 38 39  1  0
 39 40  1  0
 40  4  1  0
  7  5  1  0
 35  8  1  0
 35 11  1  0
 21 16  1  0
 24 19  1  0
M  END
>  <smiles>  (2823) 
C43589-P312

>  <fragmenstein_outcome>  (2823) 
acceptable

>  <inchikey>  (2823) 
PNUWOTYSFHAYLW-UHFFFAOYSA-N

>  <fragmenstein_mode>  (2823) 
expansion

>  <HIPPO Pose ID>  (2823) 
30889

>  <Energy>  (2823) 
150.7319

>  <fragmenstein_error>  (2823) 


>  <tags>  (2823) 
{'openbind_xx01zvns2b_c1_fragmenstein', 'fragmenstein_placed'}

>  <ref_pdb>  (2823) 
175

>  <scratch_subdir>  (2823) 
/opt/xchem-fragalysis-2/maxwin/BulkDock/SCRATCH/511028/C43589-P312

>  <alias>  (2823) 
CCCC1([C@@H]2C[C@@H]2n2cnc3c([C@](O)(Nc4ccc5c(c4)CNC5)C(=O)NC(C)C)cc(Cl)cc32)CCCCC1

>  <HIPPO Compound ID>  (2823) 
37258

>  <fragmenstein_runtime>  (2823) 
13.032078

$$$$
CC[C@H](C)NC(=O)[C@H](Nc1ccc2c(c1)CNC2)c1cc(Cl)cc2nc(-c3ccccc3)[nH]c12
     RDKit          3D

 34 38  0  0  0  0  0  0  0  0999 V2000
   -4.5510    1.8569  -11.0665 C   0  0  0  0  0  0  0  0  0  0  0  0
   -3.7640    2.1284  -12.3423 C   0  0  0  0  0  0  0  0  0  0  0  0
   -3.7561    3.5912  -12.8074 C   0  0  2  0  0  0  0  0  0  0  0  0
   -3.2016    4.5451  -11.7520 C   0  0  0  0  0  0  0  0  0  0  0  0
   -5.0582    4.0365  -13.2482 N   0  0  0  0  0  0  0  0  0  0  0  0
   -5.4703    5.2826  -14.0788 C   0  0  0  0  0  0  0  0  0  0  0  0
   -4.8274    6.1819  -14.4687 O   0  0  0  0  0  0  0  0  0  0  0  0
   -7.0225    5.2122  -14.3673 C   0  0  2  0  0  0  0  0  0  0  0  0
   -7.7483    4.2700  -13.4815 N   0  0  0  0  0  0  0  0  0  0  0  0
   -7.9338    4.4189  -12.1134 C   0  0  0  0  0  0  0  0  0  0  0  0
   -7.7362    5.6348  -11.4347 C   0  0  0  0  0  0  0  0  0  0  0  0
   -7.8544    5.7289  -10.0402 C   0  0  0  0  0  0  0  0  0  0  0  0
   -8.1831    4.5940   -9.3258 C   0  0  0  0  0  0  0  0  0  0  0  0
   -8.4314    3.3983   -9.9764 C   0  0  0  0  0  0  0  0  0  0  0  0
   -8.3282    3.3006  -11.3578 C   0  0  0  0  0  0  0  0  0  0  0  0
   -8.7519    2.3425   -8.9734 C   0  0  0  0  0  0  0  0  0  0  0  0
   -8.7810    3.0208   -7.6495 N   0  0  0  0  0  0  0  0  0  0  0  0
   -8.3033    4.4022   -7.8545 C   0  0  0  0  0  0  0  0  0  0  0  0
   -7.3311    4.8943  -15.8394 C   0  0  0  0  0  0  0  0  0  0  0  0
   -8.6437    4.4903  -16.1977 C   0  0  0  0  0  0  0  0  0  0  0  0
   -9.0246    4.2380  -17.5171 C   0  0  0  0  0  0  0  0  0  0  0  0
  -10.6695    4.0315  -17.9225 Cl  0  0  0  0  0  0  0  0  0  0  0  0
   -8.1163    4.2853  -18.5551 C   0  0  0  0  0  0  0  0  0  0  0  0
   -6.8440    4.7598  -18.2656 C   0  0  0  0  0  0  0  0  0  0  0  0
   -5.8455    5.0269  -19.1528 N   0  0  0  0  0  0  0  0  0  0  0  0
   -4.9060    5.6418  -18.4756 C   0  0  0  0  0  0  0  0  0  0  0  0
   -3.7407    6.2844  -19.0863 C   0  0  0  0  0  0  0  0  0  0  0  0
   -3.7059    6.4472  -20.4839 C   0  0  0  0  0  0  0  0  0  0  0  0
   -2.6176    7.0637  -21.1037 C   0  0  0  0  0  0  0  0  0  0  0  0
   -1.5500    7.5247  -20.3369 C   0  0  0  0  0  0  0  0  0  0  0  0
   -1.5694    7.3685  -18.9516 C   0  0  0  0  0  0  0  0  0  0  0  0
   -2.6585    6.7519  -18.3278 C   0  0  0  0  0  0  0  0  0  0  0  0
   -5.2284    5.6359  -17.1332 N   0  0  0  0  0  0  0  0  0  0  0  0
   -6.4858    5.0883  -16.9610 C   0  0  0  0  0  0  0  0  0  0  0  0
  1  2  1  0
  2  3  1  0
  3  4  1  1
  3  5  1  0
  5  6  1  0
  6  7  2  0
  6  8  1  0
  8  9  1  1
  9 10  1  0
 10 11  2  0
 11 12  1  0
 12 13  2  0
 13 14  1  0
 14 15  2  0
 14 16  1  0
 16 17  1  0
 17 18  1  0
  8 19  1  0
 19 20  2  0
 20 21  1  0
 21 22  1  0
 21 23  2  0
 23 24  1  0
 24 25  1  0
 25 26  2  0
 26 27  1  0
 27 28  2  0
 28 29  1  0
 29 30  2  0
 30 31  1  0
 31 32  2  0
 26 33  1  0
 33 34  1  0
 15 10  1  0
 34 19  1  0
 18 13  1  0
 34 24  2  0
 32 27  1  0
M  END
>  <smiles>  (2824) 
C43468-P312

>  <fragmenstein_outcome>  (2824) 
acceptable

>  <inchikey>  (2824) 
UKHLOWZWOVKHIP-UHFFFAOYSA-N

>  <fragmenstein_mode>  (2824) 
expansion

>  <HIPPO Pose ID>  (2824) 
30896

>  <Energy>  (2824) 
97.888751

>  <fragmenstein_error>  (2824) 


>  <tags>  (2824) 
{'openbind_xx01zvns2b_c1_fragmenstein', 'fragmenstein_placed'}

>  <ref_pdb>  (2824) 
175

>  <scratch_subdir>  (2824) 
/opt/xchem-fragalysis-2/maxwin/BulkDock/SCRATCH/511028/C43468-P312

>  <alias>  (2824) 
CC[C@H](C)NC(=O)[C@H](Nc1ccc2c(c1)CNC2)c1cc(Cl)cc2nc(-c3ccccc3)[nH]c12

>  <HIPPO Compound ID>  (2824) 
38352

>  <fragmenstein_runtime>  (2824) 
7.820663

$$$$
COCCO[C@H]1c2cc(Cl)cc([C@](O)(Nc3ccc4c(c3)CNC4)C(=O)NC(C)C)c2CC12CCCCC2
     RDKit          3D

 38 42  0  0  0  0  0  0  0  0999 V2000
   -1.2947    6.4015  -22.1113 C   0  0  0  0  0  0  0  0  0  0  0  0
   -2.6644    6.4948  -21.7488 O   0  0  0  0  0  0  0  0  0  0  0  0
   -2.9988    5.5795  -20.6982 C   0  0  0  0  0  0  0  0  0  0  0  0
   -4.4191    5.8633  -20.2156 C   0  0  0  0  0  0  0  0  0  0  0  0
   -4.7044    5.1186  -19.0259 O   0  0  0  0  0  0  0  0  0  0  0  0
   -5.3159    5.9239  -18.0250 C   0  0  1  0  0  0  0  0  0  0  0  0
   -6.4295    5.2181  -17.3131 C   0  0  0  0  0  0  0  0  0  0  0  0
   -7.4967    4.6098  -17.9402 C   0  0  0  0  0  0  0  0  0  0  0  0
   -8.5830    4.2697  -17.1562 C   0  0  0  0  0  0  0  0  0  0  0  0
  -10.0270    3.8075  -17.9480 Cl  0  0  0  0  0  0  0  0  0  0  0  0
   -8.5752    4.4571  -15.7635 C   0  0  0  0  0  0  0  0  0  0  0  0
   -7.4971    5.0758  -15.0948 C   0  0  0  0  0  0  0  0  0  0  0  0
   -7.6320    5.4235  -13.5926 C   0  0  2  0  0  0  0  0  0  0  0  0
   -6.3911    5.9034  -13.1071 O   0  0  0  0  0  0  0  0  0  0  0  0
   -7.9057    4.2242  -12.7757 N   0  0  0  0  0  0  0  0  0  0  0  0
   -8.1441    4.2410  -11.3868 C   0  0  0  0  0  0  0  0  0  0  0  0
   -7.8700    5.3366  -10.5423 C   0  0  0  0  0  0  0  0  0  0  0  0
   -8.0608    5.2987   -9.1543 C   0  0  0  0  0  0  0  0  0  0  0  0
   -8.4764    4.1181   -8.5865 C   0  0  0  0  0  0  0  0  0  0  0  0
   -8.6903    3.0004   -9.3739 C   0  0  0  0  0  0  0  0  0  0  0  0
   -8.5315    3.0453  -10.7585 C   0  0  0  0  0  0  0  0  0  0  0  0
   -9.0339    1.8478   -8.4918 C   0  0  0  0  0  0  0  0  0  0  0  0
   -9.2129    2.4012   -7.1221 N   0  0  0  0  0  0  0  0  0  0  0  0
   -8.7289    3.7946   -7.1562 C   0  0  0  0  0  0  0  0  0  0  0  0
   -8.8222    6.5085  -13.4064 C   0  0  0  0  0  0  0  0  0  0  0  0
   -9.9352    6.2936  -13.7027 O   0  0  0  0  0  0  0  0  0  0  0  0
   -8.1851    7.7462  -12.6975 N   0  0  0  0  0  0  0  0  0  0  0  0
   -8.8045    8.9242  -12.1262 C   0  0  0  0  0  0  0  0  0  0  0  0
   -9.3611    9.8642  -13.1853 C   0  0  0  0  0  0  0  0  0  0  0  0
   -7.8201    9.6508  -11.2166 C   0  0  0  0  0  0  0  0  0  0  0  0
   -6.4281    5.4640  -15.9260 C   0  0  0  0  0  0  0  0  0  0  0  0
   -5.2337    6.3046  -15.5755 C   0  0  0  0  0  0  0  0  0  0  0  0
   -4.3543    6.3439  -16.8682 C   0  0  0  0  0  0  0  0  0  0  0  0
   -3.1344    5.4032  -16.6894 C   0  0  0  0  0  0  0  0  0  0  0  0
   -1.8909    6.0764  -16.0837 C   0  0  0  0  0  0  0  0  0  0  0  0
   -2.1970    7.2952  -15.2303 C   0  0  0  0  0  0  0  0  0  0  0  0
   -2.9859    8.3496  -15.9979 C   0  0  0  0  0  0  0  0  0  0  0  0
   -3.8389    7.7777  -17.1320 C   0  0  0  0  0  0  0  0  0  0  0  0
  1  2  1  0
  2  3  1  0
  3  4  1  0
  4  5  1  0
  6  5  1  6
  6  7  1  0
  7  8  2  0
  8  9  1  0
  9 10  1  0
  9 11  2  0
 11 12  1  0
 12 13  1  0
 13 14  1  1
 13 15  1  0
 15 16  1  0
 16 17  2  0
 17 18  1  0
 18 19  2  0
 19 20  1  0
 20 21  2  0
 20 22  1  0
 22 23  1  0
 23 24  1  0
 13 25  1  0
 25 26  2  0
 25 27  1  0
 27 28  1  0
 28 29  1  0
 28 30  1  0
 12 31  2  0
 31 32  1  0
 32 33  1  0
 33 34  1  0
 34 35  1  0
 35 36  1  0
 36 37  1  0
 37 38  1  0
 33  6  1  0
 31  7  1  0
 38 33  1  0
 21 16  1  0
 24 19  1  0
M  END
>  <smiles>  (2825) 
C43497-P312

>  <fragmenstein_outcome>  (2825) 
acceptable

>  <inchikey>  (2825) 
ABVZWWXUBLDHEB-UHFFFAOYSA-N

>  <fragmenstein_mode>  (2825) 
expansion

>  <HIPPO Pose ID>  (2825) 
30910

>  <Energy>  (2825) 
156.991511

>  <fragmenstein_error>  (2825) 


>  <tags>  (2825) 
{'openbind_xx01zvns2b_c1_fragmenstein', 'fragmenstein_placed'}

>  <ref_pdb>  (2825) 
175

>  <scratch_subdir>  (2825) 
/opt/xchem-fragalysis-2/maxwin/BulkDock/SCRATCH/511028/C43497-P312

>  <alias>  (2825) 
COCCO[C@H]1c2cc(Cl)cc([C@](O)(Nc3ccc4c(c3)CNC4)C(=O)NC(C)C)c2CC12CCCCC2

>  <HIPPO Compound ID>  (2825) 
43497

>  <fragmenstein_runtime>  (2825) 
21.412855

$$$$
