A71EV2A-x4316_A_201_1_A71EV2A-x0911+A+147+1__LIG
     RDKit          3D

 21 23  0  0  0  0  0  0  0  0999 V2000
    7.3470   16.1450   26.9860 O   0  0  0  0  0  0  0  0  0  0  0  0
    6.6850   15.8410   26.0000 C   0  0  0  0  0  0  0  0  0  0  0  0
    5.4590   16.6430   25.6450 C   0  0  0  0  0  0  0  0  0  0  0  0
    4.6730   16.2140   24.4020 C   0  0  0  0  0  0  0  0  0  0  0  0
    5.4780   15.4500   23.3270 C   0  0  2  0  0  0  0  0  0  0  0  0
    4.5490   14.6050   22.4690 C   0  0  0  0  0  0  0  0  0  0  0  0
    3.3790   14.4030   22.8060 O   0  0  0  0  0  0  0  0  0  0  0  0
    5.0860   14.0450   21.3890 N   0  0  0  0  0  0  0  0  0  0  0  0
    6.2780   14.3460   24.0190 C   0  0  0  0  0  0  0  0  0  0  0  0
    7.0320   14.8060   25.1900 N   0  0  0  0  0  0  0  0  0  0  0  0
    8.2210   14.0100   25.5300 C   0  0  1  0  0  0  0  0  0  0  0  0
    7.9430   12.5280   25.4700 C   0  0  0  0  0  0  0  0  0  0  0  0
    7.0220   11.8040   26.2160 C   0  0  0  0  0  0  0  0  0  0  0  0
    6.9200   10.4370   26.0260 C   0  0  0  0  0  0  0  0  0  0  0  0
    7.7250    9.7860   25.0950 C   0  0  0  0  0  0  0  0  0  0  0  0
    9.4290   14.1840   24.5950 C   0  0  0  0  0  0  0  0  0  0  0  0
    9.6420   12.8670   23.8230 C   0  0  0  0  0  0  0  0  0  0  0  0
    8.7630   11.8890   24.5520 C   0  0  0  0  0  0  0  0  0  0  0  0
    8.6750   10.5050   24.3760 C   0  0  0  0  0  0  0  0  0  0  0  0
    9.6390    9.9510   23.5720 O   0  0  0  0  0  0  0  0  0  0  0  0
    9.5400    8.5680   23.2750 C   0  0  0  0  0  0  0  0  0  0  0  0
 21 20  1  0
 20 19  1  0
 19 15  2  0
 15 14  1  0
 14 13  2  0
 13 12  1  0
 12 18  2  0
 19 18  1  0
 18 17  1  0
 17 16  1  0
 16 11  1  0
 12 11  1  0
 11 10  1  6
 10  9  1  0
  9  5  1  0
  5  6  1  6
  8  6  1  0
  7  6  2  0
  5  4  1  0
  4  3  1  0
  3  2  1  0
 10  2  1  0
  2  1  2  0
M  END
$$$$
