XX01ZVNS2B-x3799_B_203_1_XX01ZVNS2B-x4590+B+203+1__LIG
     RDKit          3D

 24 27  0  0  0  0  0  0  0  0999 V2000
   -6.7270    6.0510  -14.3340 O   0  0  0  0  0  0  0  0  0  0  0  0
   -7.2850    4.9770  -14.5480 C   0  0  0  0  0  0  0  0  0  0  0  0
   -7.7530    4.6160  -15.9270 C   0  0  0  0  0  0  0  0  0  0  0  0
   -6.9300    4.7890  -17.0450 C   0  0  0  0  0  0  0  0  0  0  0  0
   -5.5180    5.2640  -17.1850 C   0  0  0  0  0  0  0  0  0  0  0  0
   -9.0420    4.1200  -16.1130 C   0  0  0  0  0  0  0  0  0  0  0  0
   -9.5040    3.8080  -17.3850 C   0  0  0  0  0  0  0  0  0  0  0  0
   -8.6930    3.9800  -18.4970 C   0  0  0  0  0  0  0  0  0  0  0  0
   -7.4040    4.4680  -18.3110 C   0  0  0  0  0  0  0  0  0  0  0  0
   -6.3960    4.6710  -19.2480 N   0  0  0  0  0  0  0  0  0  0  0  0
   -5.2550    5.1270  -18.6680 C   0  0  0  0  0  0  0  0  0  0  0  0
   -4.2090    5.3820  -19.2590 O   0  0  0  0  0  0  0  0  0  0  0  0
   -7.4890    4.0700  -13.5800 N   0  0  0  0  0  0  0  0  0  0  0  0
   -8.4140    4.3010  -12.4700 C   0  0  1  0  0  0  0  0  0  0  0  0
   -8.3460    3.1960  -11.4030 C   0  0  0  0  0  0  0  0  0  0  0  0
   -8.0950    3.9210  -10.1590 N   0  0  0  0  0  0  0  0  0  0  0  0
   -7.4900    5.2220  -10.4320 C   0  0  0  0  0  0  0  0  0  0  0  0
   -8.1540    5.6330  -11.7320 C   0  0  0  0  0  0  0  0  0  0  0  0
   -8.3920    3.4690   -8.8900 C   0  0  0  0  0  0  0  0  0  0  0  0
   -8.6590    2.1600   -8.7720 N   0  0  0  0  0  0  0  0  0  0  0  0
   -8.9320    1.6970   -7.5440 C   0  0  0  0  0  0  0  0  0  0  0  0
   -8.9440    2.4830   -6.4150 C   0  0  0  0  0  0  0  0  0  0  0  0
   -8.6780    3.8220   -6.5520 C   0  0  0  0  0  0  0  0  0  0  0  0
   -8.3960    4.3470   -7.7990 C   0  0  0  0  0  0  0  0  0  0  0  0
 12 11  2  0
 11  5  1  0
  5  4  1  0
  4  9  2  0
  9  8  1  0
  8  7  2  0
  7  6  1  0
  6  3  2  0
  4  3  1  0
  3  2  1  0
  2  1  2  0
 13  2  1  0
 14 13  1  6
 14 18  1  0
 18 17  1  0
 17 16  1  0
 19 16  1  0
 19 24  2  0
 24 23  1  0
 23 22  2  0
 22 21  1  0
 21 20  2  0
 20 19  1  0
 16 15  1  0
 15 14  1  0
 10  9  1  0
 11 10  1  0
M  END
$$$$
