A71EV2A-x4872_A_201_3_A71EV2A-x0911+A+147+1__LIG
     RDKit          3D

 23 25  0  0  0  0  0  0  0  0999 V2000
    9.7790    9.4840   23.5300 Cl  0  0  0  0  0  0  0  0  0  0  0  0
    8.5750   10.3170   24.4680 C   0  0  0  0  0  0  0  0  0  0  0  0
    7.5430    9.5940   25.0380 C   0  0  0  0  0  0  0  0  0  0  0  0
    6.5680   10.2520   25.7680 C   0  0  0  0  0  0  0  0  0  0  0  0
    8.6740   11.6860   24.6110 C   0  0  0  0  0  0  0  0  0  0  0  0
    7.6840   12.3330   25.3380 C   0  0  0  0  0  0  0  0  0  0  0  0
    6.6290   11.6260   25.9000 C   0  0  0  0  0  0  0  0  0  0  0  0
    5.5990   12.2680   26.5380 O   0  0  0  0  0  0  0  0  0  0  0  0
    5.3720   13.6200   26.0550 C   0  0  0  0  0  0  0  0  0  0  0  0
    6.6300   14.4720   26.1180 C   0  0  0  0  0  0  0  0  0  0  0  0
    7.7800   13.7570   25.5480 N   0  0  0  0  0  0  0  0  0  0  0  0
    8.8480   14.5620   24.9850 C   0  0  0  0  0  0  0  0  0  0  0  0
    8.7450   14.6360   23.4620 C   0  0  0  0  0  0  0  0  0  0  0  0
    7.6950   14.3740   22.8920 O   0  0  0  0  0  0  0  0  0  0  0  0
    9.8540   14.9990   22.7900 N   0  0  0  0  0  0  0  0  0  0  0  0
   11.2190   14.8430   23.3170 C   0  0  0  0  0  0  0  0  0  0  0  0
   12.1340   15.9480   22.8120 C   0  0  0  0  0  0  0  0  0  0  0  0
   12.1560   16.0270   21.2780 C   0  0  0  0  0  0  0  0  0  0  0  0
    9.7080   15.5900   21.4570 C   0  0  0  0  0  0  0  0  0  0  0  0
   10.9540   15.3380   20.6100 C   0  0  1  0  0  0  0  0  0  0  0  0
   10.6940   15.9030   19.2250 C   0  0  0  0  0  0  0  0  0  0  0  0
   10.4800   17.1060   19.0590 O   0  0  0  0  0  0  0  0  0  0  0  0
   10.6650   15.0200   18.2370 N   0  0  0  0  0  0  0  0  0  0  0  0
 23 21  1  0
 22 21  2  0
 20 21  1  6
 20 18  1  0
 18 17  1  0
 17 16  1  0
 16 15  1  0
 15 13  1  0
 14 13  2  0
 13 12  1  0
 12 11  1  0
 11 10  1  0
 10  9  1  0
  9  8  1  0
  8  7  1  0
  7  4  2  0
  4  3  1  0
  3  2  2  0
  2  1  1  0
  5  2  1  0
  6  5  2  0
  7  6  1  0
 11  6  1  0
 19 15  1  0
 20 19  1  0
M  END
$$$$
