A71EV2A-x5460_A_201_5_A71EV2A-x0911+A+147+1__LIG
     RDKit          3D

 20 22  0  0  0  0  0  0  0  0999 V2000
   11.5050   14.4920   25.0890 O   0  0  0  0  0  0  0  0  0  0  0  0
   11.3140   14.7800   23.9110 C   0  0  0  0  0  0  0  0  0  0  0  0
   12.4000   15.4460   23.1090 C   0  0  0  0  0  0  0  0  0  0  0  0
   12.0000   15.9240   21.7120 C   0  0  0  0  0  0  0  0  0  0  0  0
   10.1170   14.5280   23.2870 N   0  0  0  0  0  0  0  0  0  0  0  0
    9.8180   14.8300   21.8650 C   0  0  0  0  0  0  0  0  0  0  0  0
   11.0850   14.9160   21.0060 C   0  0  1  0  0  0  0  0  0  0  0  0
   10.7200   15.3850   19.6070 C   0  0  0  0  0  0  0  0  0  0  0  0
   10.2130   16.4990   19.4160 O   0  0  0  0  0  0  0  0  0  0  0  0
   10.9550   14.5250   18.6290 N   0  0  0  0  0  0  0  0  0  0  0  0
    9.0380   13.9840   24.0520 C   0  0  0  0  0  0  0  0  0  0  0  0
    8.8340   12.5740   24.0270 C   0  0  0  0  0  0  0  0  0  0  0  0
    9.6370   11.6760   23.2730 C   0  0  0  0  0  0  0  0  0  0  0  0
    9.4580   10.3250   23.3630 C   0  0  0  0  0  0  0  0  0  0  0  0
    8.4740    9.8000   24.1770 C   0  0  0  0  0  0  0  0  0  0  0  0
    7.6810   10.6200   24.9310 C   0  0  0  0  0  0  0  0  0  0  0  0
    7.8390   12.0250   24.8840 C   0  0  0  0  0  0  0  0  0  0  0  0
    7.1010   12.8970   25.7330 C   0  0  0  0  0  0  0  0  0  0  0  0
    7.3330   14.2460   25.7250 C   0  0  0  0  0  0  0  0  0  0  0  0
    8.2880   14.7920   24.8810 C   0  0  0  0  0  0  0  0  0  0  0  0
 10  8  1  0
  9  8  2  0
  7  8  1  6
  7  4  1  0
  4  3  1  0
  3  2  1  0
  2  1  2  0
  5  2  1  0
 11  5  1  0
 11 20  1  0
 20 19  2  0
 19 18  1  0
 18 17  2  0
 17 16  1  0
 16 15  2  0
 15 14  1  0
 14 13  2  0
 13 12  1  0
 12 11  2  0
 17 12  1  0
  6  5  1  0
  7  6  1  0
M  END
$$$$
