A71EV2A-x3485_A_201_1_A71EV2A-x0911+A+147+1__LIG
     RDKit          3D

 20 21  0  0  0  0  0  0  0  0999 V2000
   10.4600   16.8870   19.2120 O   0  0  0  0  0  0  0  0  0  0  0  0
   10.7310   15.7030   19.4610 C   0  0  0  0  0  0  0  0  0  0  0  0
   10.9900   14.8060   18.5210 N   0  0  0  0  0  0  0  0  0  0  0  0
   10.7800   15.1930   20.8910 C   0  0  1  0  0  0  0  0  0  0  0  0
   11.8990   15.8720   21.6970 C   0  0  0  0  0  0  0  0  0  0  0  0
   11.8620   15.4760   23.1780 C   0  0  0  0  0  0  0  0  0  0  0  0
   10.4740   15.6670   23.7700 C   0  0  0  0  0  0  0  0  0  0  0  0
    9.4290   15.4760   21.5460 C   0  0  0  0  0  0  0  0  0  0  0  0
    9.4450   15.0200   22.9390 N   0  0  0  0  0  0  0  0  0  0  0  0
    8.6780   13.9300   23.2610 C   0  0  0  0  0  0  0  0  0  0  0  0
    7.9250   13.4100   22.4440 O   0  0  0  0  0  0  0  0  0  0  0  0
    8.6620   13.5660   24.5760 N   0  0  0  0  0  0  0  0  0  0  0  0
    8.0090   12.3890   25.0250 C   0  0  0  0  0  0  0  0  0  0  0  0
    7.0290   12.3130   26.0110 C   0  0  0  0  0  0  0  0  0  0  0  0
    6.4390   11.0930   26.3090 C   0  0  0  0  0  0  0  0  0  0  0  0
    6.8330    9.9440   25.6440 C   0  0  0  0  0  0  0  0  0  0  0  0
    8.4210   11.2360   24.3690 C   0  0  0  0  0  0  0  0  0  0  0  0
    7.8410   10.0190   24.6930 C   0  0  0  0  0  0  0  0  0  0  0  0
    8.2690    8.8580   24.1070 O   0  0  0  0  0  0  0  0  0  0  0  0
    9.4960    8.8760   23.3670 C   0  0  0  0  0  0  0  0  0  0  0  0
 20 19  1  0
 19 18  1  0
 18 16  2  0
 16 15  1  0
 15 14  2  0
 14 13  1  0
 13 12  1  0
 12 10  1  0
 11 10  2  0
 10  9  1  0
  9  7  1  0
  7  6  1  0
  6  5  1  0
  5  4  1  0
  4  2  1  6
  3  2  1  0
  2  1  2  0
  8  4  1  0
  9  8  1  0
 17 13  2  0
 18 17  1  0
M  END
$$$$
