XX01ZVNS2B-x1470_B_301_1_XX01ZVNS2B-x4590+B+203+1__LIG
     RDKit          3D

 22 24  0  0  0  0  0  0  0  0999 V2000
   -7.2930    0.9350  -14.0960 C   0  0  0  0  0  0  0  0  0  0  0  0
   -7.9710    1.8690  -14.9470 O   0  0  0  0  0  0  0  0  0  0  0  0
   -7.8410    3.1580  -14.6110 C   0  0  0  0  0  0  0  0  0  0  0  0
   -7.3900    4.1350  -15.4680 C   0  0  0  0  0  0  0  0  0  0  0  0
   -7.2750    5.4130  -14.9860 C   0  0  0  0  0  0  0  0  0  0  0  0
   -6.7830    6.5460  -15.8360 C   0  0  0  0  0  0  0  0  0  0  0  0
   -5.6340    6.0650  -16.5350 O   0  0  0  0  0  0  0  0  0  0  0  0
   -5.6410    6.0510  -17.9070 C   0  0  0  0  0  0  0  0  0  0  0  0
   -4.4670    6.3370  -18.5770 C   0  0  0  0  0  0  0  0  0  0  0  0
   -4.4170    6.3340  -19.9090 N   0  0  0  0  0  0  0  0  0  0  0  0
   -5.5480    6.0450  -20.5420 C   0  0  0  0  0  0  0  0  0  0  0  0
   -6.7170    5.7510  -19.9840 N   0  0  0  0  0  0  0  0  0  0  0  0
   -6.7630    5.7530  -18.6530 C   0  0  0  0  0  0  0  0  0  0  0  0
   -7.5800    5.6970  -13.7080 N   0  0  0  0  0  0  0  0  0  0  0  0
   -8.0100    4.6790  -12.9240 C   0  0  0  0  0  0  0  0  0  0  0  0
   -8.3190    4.9020  -11.6220 N   0  0  0  0  0  0  0  0  0  0  0  0
   -9.1040    3.9300  -10.8590 C   0  0  0  0  0  0  0  0  0  0  0  0
   -8.5080    3.6440   -9.4950 C   0  0  0  0  0  0  0  0  0  0  0  0
   -7.6660    4.7380   -9.0220 N   0  0  0  0  0  0  0  0  0  0  0  0
   -8.2000    6.0260   -9.4520 C   0  0  0  0  0  0  0  0  0  0  0  0
   -8.0890    6.1820  -10.9550 C   0  0  0  0  0  0  0  0  0  0  0  0
   -8.1440    3.4150  -13.3510 N   0  0  0  0  0  0  0  0  0  0  0  0
  1  2  1  0
  2  3  1  0
  3  4  2  0
  4  5  1  0
  5  6  1  0
  6  7  1  0
  7  8  1  0
  8  9  2  0
  9 10  1  0
 10 11  2  0
 11 12  1  0
 12 13  2  0
  5 14  2  0
 14 15  1  0
 15 16  1  0
 16 17  1  0
 17 18  1  0
 18 19  1  0
 19 20  1  0
 20 21  1  0
 15 22  2  0
  3 22  1  0
  8 13  1  0
 16 21  1  0
M  END
$$$$
