A71EV2A-x3585_A_201_1_A71EV2A-x0911+A+147+1__LIG
     RDKit          3D

 23 25  0  0  0  0  0  0  0  0999 V2000
   10.2450   16.7160   19.2730 O   0  0  0  0  0  0  0  0  0  0  0  0
   10.6960   15.6020   19.5580 C   0  0  0  0  0  0  0  0  0  0  0  0
   11.1380   14.7520   18.6500 N   0  0  0  0  0  0  0  0  0  0  0  0
   10.7430   15.1190   20.9980 C   0  0  1  0  0  0  0  0  0  0  0  0
   11.9020   15.7640   21.7720 C   0  0  0  0  0  0  0  0  0  0  0  0
   11.9510   15.2540   23.2160 C   0  0  0  0  0  0  0  0  0  0  0  0
   10.6010   15.4350   23.9180 C   0  0  0  0  0  0  0  0  0  0  0  0
    9.4840   15.5550   21.7560 C   0  0  0  0  0  0  0  0  0  0  0  0
    9.4850   14.9470   23.0890 N   0  0  0  0  0  0  0  0  0  0  0  0
    8.8900   13.7250   23.2440 C   0  0  0  0  0  0  0  0  0  0  0  0
    8.0640   13.3050   22.4440 O   0  0  0  0  0  0  0  0  0  0  0  0
    9.2330   13.0280   24.3580 N   0  0  0  0  0  0  0  0  0  0  0  0
    8.7760   11.7120   24.6160 C   0  0  0  0  0  0  0  0  0  0  0  0
    9.4130   10.6100   24.0530 C   0  0  0  0  0  0  0  0  0  0  0  0
    7.6720   11.5160   25.4600 C   0  0  0  0  0  0  0  0  0  0  0  0
    7.2630   10.1940   25.7150 C   0  0  0  0  0  0  0  0  0  0  0  0
    6.2060   10.2800   26.5700 N   0  0  0  0  0  0  0  0  0  0  0  0
    5.5430    9.2030   27.2960 C   0  0  0  0  0  0  0  0  0  0  0  0
    5.8900   11.5780   26.8470 N   0  0  0  0  0  0  0  0  0  0  0  0
    6.7620   12.3180   26.1950 C   0  0  0  0  0  0  0  0  0  0  0  0
    7.9010    9.1070   25.1230 C   0  0  0  0  0  0  0  0  0  0  0  0
    8.9850    9.3070   24.2770 C   0  0  0  0  0  0  0  0  0  0  0  0
    9.6720    8.1420   23.6030 C   0  0  0  0  0  0  0  0  0  0  0  0
 23 22  1  0
 22 14  2  0
 14 13  1  0
 13 12  1  0
 12 10  1  0
 11 10  2  0
 10  9  1  0
  9  7  1  0
  7  6  1  0
  6  5  1  0
  5  4  1  0
  4  2  1  6
  3  2  1  0
  2  1  2  0
  8  4  1  0
  9  8  1  0
 15 13  2  0
 15 20  1  0
 20 19  2  0
 19 17  1  0
 18 17  1  0
 17 16  1  0
 16 15  1  0
 21 16  2  0
 22 21  1  0
M  END
$$$$
