A71EV2A-x4712_A_201_1_A71EV2A-x0911+A+147+1__LIG
     RDKit          3D

 21 22  0  0  0  0  0  0  0  0999 V2000
   10.3210   16.5610   19.1690 O   0  0  0  0  0  0  0  0  0  0  0  0
   10.7460   15.4250   19.4160 C   0  0  0  0  0  0  0  0  0  0  0  0
   11.2420   14.6220   18.4840 N   0  0  0  0  0  0  0  0  0  0  0  0
   10.6770   14.8490   20.8180 C   0  0  1  0  0  0  0  0  0  0  0  0
   11.9210   15.2260   21.6440 C   0  0  0  0  0  0  0  0  0  0  0  0
   11.8850   14.5460   23.0140 C   0  0  0  0  0  0  0  0  0  0  0  0
   10.5820   14.8340   23.7480 C   0  0  0  0  0  0  0  0  0  0  0  0
    9.4220   15.2490   21.6050 C   0  0  0  0  0  0  0  0  0  0  0  0
    9.4010   14.5760   22.9090 N   0  0  0  0  0  0  0  0  0  0  0  0
    8.2880   13.8200   23.2230 C   0  0  0  0  0  0  0  0  0  0  0  0
    7.5460   13.3950   22.3580 O   0  0  0  0  0  0  0  0  0  0  0  0
    8.0280   13.5720   24.5520 N   0  0  0  0  0  0  0  0  0  0  0  0
    8.1460   14.6710   25.5150 C   0  0  0  0  0  0  0  0  0  0  0  0
    7.3940   12.3720   25.0070 C   0  0  0  0  0  0  0  0  0  0  0  0
    7.8750   11.1080   24.6450 C   0  0  0  0  0  0  0  0  0  0  0  0
    9.3690   11.0210   23.6990 S   0  0  0  0  0  0  0  0  0  0  0  0
    9.5730    9.2340   23.4040 C   0  0  0  0  0  0  0  0  0  0  0  0
    6.2120   12.4740   25.7400 C   0  0  0  0  0  0  0  0  0  0  0  0
    5.5150   11.3320   26.0920 C   0  0  0  0  0  0  0  0  0  0  0  0
    5.9880   10.0930   25.7380 C   0  0  0  0  0  0  0  0  0  0  0  0
    7.1690    9.9710   25.0190 C   0  0  0  0  0  0  0  0  0  0  0  0
 17 16  1  0
 16 15  1  0
 15 21  2  0
 21 20  1  0
 20 19  2  0
 19 18  1  0
 18 14  2  0
 15 14  1  0
 14 12  1  0
 13 12  1  0
 12 10  1  0
 11 10  2  0
 10  9  1  0
  9  7  1  0
  7  6  1  0
  6  5  1  0
  5  4  1  0
  4  2  1  6
  3  2  1  0
  2  1  2  0
  8  4  1  0
  9  8  1  0
M  END
$$$$
