A71EV2A-x4035_C_201_1_A71EV2A-x0911+A+147+1__LIG
     RDKit          3D

 21 22  0  0  0  0  0  0  0  0999 V2000
   10.3080   16.6900   19.2460 O   0  0  0  0  0  0  0  0  0  0  0  0
   10.7240   15.5390   19.4340 C   0  0  0  0  0  0  0  0  0  0  0  0
   11.0680   14.7220   18.4480 N   0  0  0  0  0  0  0  0  0  0  0  0
   10.8150   14.9600   20.8350 C   0  0  1  0  0  0  0  0  0  0  0  0
   11.9540   15.6160   21.6330 C   0  0  0  0  0  0  0  0  0  0  0  0
   12.0040   15.1150   23.0800 C   0  0  0  0  0  0  0  0  0  0  0  0
   10.6460   15.2740   23.7610 C   0  0  0  0  0  0  0  0  0  0  0  0
    9.4990   15.2260   21.5730 C   0  0  0  0  0  0  0  0  0  0  0  0
    9.5840   14.6870   22.9340 N   0  0  0  0  0  0  0  0  0  0  0  0
    8.7400   13.6800   23.3150 C   0  0  0  0  0  0  0  0  0  0  0  0
    7.8680   13.2540   22.5640 O   0  0  0  0  0  0  0  0  0  0  0  0
    8.9280   13.1850   24.5720 N   0  0  0  0  0  0  0  0  0  0  0  0
    8.0520   12.1700   25.0640 C   0  0  0  0  0  0  0  0  0  0  0  0
    8.2630   10.8340   24.7100 C   0  0  0  0  0  0  0  0  0  0  0  0
    9.2710   10.6300   23.8080 O   0  0  0  0  0  0  0  0  0  0  0  0
    9.6160    9.2870   23.4900 C   0  0  0  0  0  0  0  0  0  0  0  0
    7.0370   12.4790   25.9610 C   0  0  0  0  0  0  0  0  0  0  0  0
    6.7470   14.1490   26.3700 Cl  0  0  0  0  0  0  0  0  0  0  0  0
    6.2560   11.4900   26.5350 C   0  0  0  0  0  0  0  0  0  0  0  0
    6.4810   10.1660   26.1940 C   0  0  0  0  0  0  0  0  0  0  0  0
    7.4700    9.8320   25.2740 C   0  0  0  0  0  0  0  0  0  0  0  0
 16 15  1  0
 15 14  1  0
 14 21  2  0
 21 20  1  0
 20 19  2  0
 19 17  1  0
 18 17  1  0
 17 13  2  0
 14 13  1  0
 13 12  1  0
 12 10  1  0
 11 10  2  0
 10  9  1  0
  9  7  1  0
  7  6  1  0
  6  5  1  0
  5  4  1  0
  4  2  1  6
  3  2  1  0
  2  1  2  0
  8  4  1  0
  9  8  1  0
M  END
$$$$
