A71EV2A-x4494_A_201_1_A71EV2A-x0911+A+147+1__LIG
     RDKit          3D

 22 24  0  0  0  0  0  0  0  0999 V2000
   10.4500   17.1070   19.2550 O   0  0  0  0  0  0  0  0  0  0  0  0
   10.5710   15.9110   19.5280 C   0  0  0  0  0  0  0  0  0  0  0  0
   10.7510   14.9820   18.6050 N   0  0  0  0  0  0  0  0  0  0  0  0
   10.5420   15.4270   20.9690 C   0  0  1  0  0  0  0  0  0  0  0  0
   11.7430   15.9680   21.7410 C   0  0  0  0  0  0  0  0  0  0  0  0
   11.7480   15.4430   23.1720 C   0  0  0  0  0  0  0  0  0  0  0  0
   10.4460   15.7500   23.8710 C   0  0  0  0  0  0  0  0  0  0  0  0
    9.3190   15.9090   21.7510 C   0  0  0  0  0  0  0  0  0  0  0  0
    9.2900   15.3040   23.0850 N   0  0  0  0  0  0  0  0  0  0  0  0
    8.2750   14.4280   23.2950 C   0  0  0  0  0  0  0  0  0  0  0  0
    7.9320   13.6640   22.4230 O   0  0  0  0  0  0  0  0  0  0  0  0
    7.4710   14.4450   24.5840 C   0  0  2  0  0  0  0  0  0  0  0  0
    8.2610   14.9680   25.7770 C   0  0  0  0  0  0  0  0  0  0  0  0
    7.1220   13.0040   24.8990 C   0  0  0  0  0  0  0  0  0  0  0  0
    7.9740   11.8540   24.6160 C   0  0  0  0  0  0  0  0  0  0  0  0
    7.1880   10.7780   24.9890 C   0  0  0  0  0  0  0  0  0  0  0  0
    6.0000   11.2100   25.4820 O   0  0  0  0  0  0  0  0  0  0  0  0
    5.9940   12.6420   25.4010 N   0  0  0  0  0  0  0  0  0  0  0  0
    9.1850   11.5940   23.9790 C   0  0  0  0  0  0  0  0  0  0  0  0
    9.5630   10.2830   23.7300 C   0  0  0  0  0  0  0  0  0  0  0  0
    8.7570    9.2290   24.1230 C   0  0  0  0  0  0  0  0  0  0  0  0
    7.5530    9.4680   24.7640 C   0  0  0  0  0  0  0  0  0  0  0  0
 12 13  1  1
 12 10  1  0
 11 10  2  0
 10  9  1  0
  9  7  1  0
  7  6  1  0
  6  5  1  0
  5  4  1  0
  4  2  1  6
  3  2  1  0
  2  1  2  0
  8  4  1  0
  9  8  1  0
 14 12  1  0
 14 18  2  0
 18 17  1  0
 17 16  1  0
 16 22  2  0
 22 21  1  0
 21 20  2  0
 20 19  1  0
 19 15  2  0
 15 14  1  0
 16 15  1  0
M  END
$$$$
