A71EV2A-x4885_C_201_1_A71EV2A-x0911+A+147+1__LIG
     RDKit          3D

 21 22  0  0  0  0  0  0  0  0999 V2000
   11.0370   14.6160   18.5530 O   0  0  0  0  0  0  0  0  0  0  0  0
   10.7340   15.4460   19.4440 C   0  0  0  0  0  0  0  0  0  0  0  0
   10.3430   16.6780   19.1700 N   0  0  0  0  0  0  0  0  0  0  0  0
   10.7130   15.0410   20.9090 C   0  0  1  0  0  0  0  0  0  0  0  0
   11.7110   15.8200   21.8040 C   0  0  0  0  0  0  0  0  0  0  0  0
   11.5790   15.4370   23.3000 C   0  0  2  0  0  0  0  0  0  0  0  0
   12.1060   14.0350   23.6140 C   0  0  0  0  0  0  0  0  0  0  0  0
   10.1400   15.5740   23.7370 C   0  0  0  0  0  0  0  0  0  0  0  0
    9.2880   15.1910   21.4550 C   0  0  0  0  0  0  0  0  0  0  0  0
    9.2580   14.7870   22.8640 N   0  0  0  0  0  0  0  0  0  0  0  0
    8.4390   13.7910   23.2900 C   0  0  0  0  0  0  0  0  0  0  0  0
    7.5800   13.2950   22.5660 O   0  0  0  0  0  0  0  0  0  0  0  0
    8.5960   13.3650   24.7410 C   0  0  0  0  0  0  0  0  0  0  0  0
    7.7730   12.1420   25.0990 C   0  0  0  0  0  0  0  0  0  0  0  0
    8.1220   10.8480   24.6870 C   0  0  0  0  0  0  0  0  0  0  0  0
    9.5250   10.6720   23.6250 S   0  0  0  0  0  0  0  0  0  0  0  0
    9.6110    8.8960   23.3120 C   0  0  0  0  0  0  0  0  0  0  0  0
    6.6610   12.2940   25.9330 C   0  0  0  0  0  0  0  0  0  0  0  0
    5.9180   11.1990   26.3470 C   0  0  0  0  0  0  0  0  0  0  0  0
    6.2710    9.9370   25.9390 C   0  0  0  0  0  0  0  0  0  0  0  0
    7.3730    9.7460   25.1110 C   0  0  0  0  0  0  0  0  0  0  0  0
 17 16  1  0
 16 15  1  0
 15 21  2  0
 21 20  1  0
 20 19  2  0
 19 18  1  0
 18 14  2  0
 15 14  1  0
 14 13  1  0
 13 11  1  0
 12 11  2  0
 11 10  1  0
 10  8  1  0
  8  6  1  0
  6  7  1  6
  6  5  1  0
  5  4  1  0
  4  2  1  6
  3  2  1  0
  2  1  2  0
  9  4  1  0
 10  9  1  0
M  END
$$$$
