XX01ZVNS2B-x4942_B_203_6_XX01ZVNS2B-x4590+B+203+1__LIG
     RDKit          3D

 29 33  0  0  0  0  0  0  0  0999 V2000
   -6.6700    5.5710  -13.0900 O   0  0  0  0  0  0  0  0  0  0  0  0
   -7.4490    4.7610  -13.5860 C   0  0  0  0  0  0  0  0  0  0  0  0
   -8.2980    3.9930  -12.8550 N   0  0  0  0  0  0  0  0  0  0  0  0
   -8.4660    4.0130  -11.4420 C   0  0  0  0  0  0  0  0  0  0  0  0
   -8.7350    2.8350  -10.7500 C   0  0  0  0  0  0  0  0  0  0  0  0
   -8.8470    2.8430   -9.3600 C   0  0  0  0  0  0  0  0  0  0  0  0
   -9.1800    1.7290   -8.4110 C   0  0  0  0  0  0  0  0  0  0  0  0
   -8.8560    2.3260   -7.1210 N   0  0  0  0  0  0  0  0  0  0  0  0
   -8.7520    3.7810   -7.1850 C   0  0  0  0  0  0  0  0  0  0  0  0
   -8.6750    4.0310   -8.6620 C   0  0  0  0  0  0  0  0  0  0  0  0
   -8.4310    5.2130   -9.3540 C   0  0  0  0  0  0  0  0  0  0  0  0
   -8.3300    5.2060  -10.7350 C   0  0  0  0  0  0  0  0  0  0  0  0
   -7.5280    4.6000  -15.0750 C   0  0  0  0  0  0  0  0  0  0  0  0
   -8.7720    4.3400  -15.6500 C   0  0  0  0  0  0  0  0  0  0  0  0
   -6.4350    4.8510  -15.9200 C   0  0  0  0  0  0  0  0  0  0  0  0
   -6.6120    4.8700  -17.3060 C   0  0  0  0  0  0  0  0  0  0  0  0
   -7.8560    4.6410  -17.8750 C   0  0  0  0  0  0  0  0  0  0  0  0
   -8.9490    4.3950  -17.0380 C   0  0  0  0  0  0  0  0  0  0  0  0
  -10.2940    4.3340  -17.6130 C   0  0  0  0  0  0  0  0  0  0  0  0
  -10.5310    4.4220  -18.7940 O   0  0  0  0  0  0  0  0  0  0  0  0
   -5.3620    5.1510  -17.8290 N   0  0  0  0  0  0  0  0  0  0  0  0
   -4.5030    5.2720  -16.7770 C   0  0  0  0  0  0  0  0  0  0  0  0
   -5.1070    5.1070  -15.6050 N   0  0  0  0  0  0  0  0  0  0  0  0
   -3.0600    5.5050  -16.9430 C   0  0  0  0  0  0  0  0  0  0  0  0
   -2.2730    5.8880  -15.8600 C   0  0  0  0  0  0  0  0  0  0  0  0
   -0.9110    6.0920  -16.0200 C   0  0  0  0  0  0  0  0  0  0  0  0
   -0.3230    5.9200  -17.2570 C   0  0  0  0  0  0  0  0  0  0  0  0
   -1.0960    5.5410  -18.3390 C   0  0  0  0  0  0  0  0  0  0  0  0
   -2.4560    5.3340  -18.1860 C   0  0  0  0  0  0  0  0  0  0  0  0
 20 19  2  0
 19 18  1  0
 18 14  2  0
 14 13  1  0
 13  2  1  0
  2  1  2  0
  3  2  1  0
  4  3  1  0
  4 12  2  0
 12 11  1  0
 11 10  2  0
 10  6  1  0
  6  5  2  0
  5  4  1  0
  7  6  1  0
  8  7  1  0
  9  8  1  0
 10  9  1  0
 15 13  2  0
 15 23  1  0
 23 22  2  0
 24 22  1  0
 24 29  2  0
 29 28  1  0
 28 27  2  0
 27 26  1  0
 26 25  2  0
 25 24  1  0
 22 21  1  0
 21 16  1  0
 16 15  1  0
 17 16  2  0
 18 17  1  0
M  END
$$$$
