A71EV2A-x3568_A_201_1_A71EV2A-x0911+A+147+1__LIG
     RDKit          3D

 20 22  0  0  0  0  0  0  0  0999 V2000
   10.6520   13.9130   24.8910 O   0  0  0  0  0  0  0  0  0  0  0  0
   10.4830   13.1270   23.9780 C   0  0  0  0  0  0  0  0  0  0  0  0
    9.4840   12.0230   24.1280 C   0  0  0  0  0  0  0  0  0  0  0  0
    9.4370   10.7420   23.6310 C   0  0  0  0  0  0  0  0  0  0  0  0
    8.3880   10.0620   24.1820 N   0  0  0  0  0  0  0  0  0  0  0  0
    7.7100   10.8980   25.0370 C   0  0  0  0  0  0  0  0  0  0  0  0
    8.3620   12.1450   25.0310 C   0  0  0  0  0  0  0  0  0  0  0  0
    7.8570   13.1610   25.8320 C   0  0  0  0  0  0  0  0  0  0  0  0
    6.7520   12.9210   26.6280 C   0  0  0  0  0  0  0  0  0  0  0  0
    6.5980   10.6690   25.8280 C   0  0  0  0  0  0  0  0  0  0  0  0
    6.1270   11.6770   26.6580 C   0  0  0  0  0  0  0  0  0  0  0  0
    5.0270   11.3990   27.6420 C   0  0  0  0  0  0  0  0  0  0  0  0
   11.1950   13.1860   22.8480 N   0  0  0  0  0  0  0  0  0  0  0  0
   10.7790   13.9390   21.6890 C   0  0  0  0  0  0  0  0  0  0  0  0
   11.9620   14.4780   20.9130 C   0  0  0  0  0  0  0  0  0  0  0  0
   11.0290   15.4190   20.2650 C   0  0  0  0  0  0  0  0  0  0  0  0
   10.5040   16.4950   20.9460 N   0  0  0  0  0  0  0  0  0  0  0  0
    9.5820   16.9300   20.1750 C   0  0  0  0  0  0  0  0  0  0  0  0
    9.4420   16.2620   19.0220 O   0  0  0  0  0  0  0  0  0  0  0  0
   10.3950   15.3000   19.0990 C   0  0  0  0  0  0  0  0  0  0  0  0
 12 11  1  0
 11  9  2  0
  9  8  1  0
  8  7  2  0
  7  3  1  0
  3  2  1  0
  2  1  2  0
 13  2  1  0
 14 13  1  0
 15 14  1  0
 16 15  1  0
 16 20  2  0
 20 19  1  0
 19 18  1  0
 18 17  2  0
 17 16  1  0
  4  3  2  0
  5  4  1  0
  6  5  1  0
  7  6  1  0
 10  6  2  0
 11 10  1  0
M  END
$$$$
