XX01ZVNS2B-x3503_B_203_1_XX01ZVNS2B-x4590+B+203+1__LIG
     RDKit          3D

 22 25  0  0  0  0  0  0  0  0999 V2000
   -6.7790    5.3720  -13.4320 O   0  0  0  0  0  0  0  0  0  0  0  0
   -7.6740    4.6310  -13.8330 C   0  0  0  0  0  0  0  0  0  0  0  0
   -8.4490    3.8810  -13.0170 N   0  0  0  0  0  0  0  0  0  0  0  0
   -8.5100    3.9040  -11.5990 C   0  0  0  0  0  0  0  0  0  0  0  0
   -8.0890    5.0420  -10.9180 C   0  0  0  0  0  0  0  0  0  0  0  0
   -8.1570    5.0950   -9.5370 C   0  0  0  0  0  0  0  0  0  0  0  0
   -8.5650    3.9650   -8.8390 C   0  0  0  0  0  0  0  0  0  0  0  0
   -8.9790    2.8260   -9.5140 C   0  0  0  0  0  0  0  0  0  0  0  0
   -8.9510    2.7720  -10.9010 C   0  0  0  0  0  0  0  0  0  0  0  0
   -9.4380    1.7960   -8.5240 C   0  0  0  0  0  0  0  0  0  0  0  0
   -8.8930    2.3220   -7.2640 N   0  0  0  0  0  0  0  0  0  0  0  0
   -8.7600    3.7790   -7.3600 C   0  0  0  0  0  0  0  0  0  0  0  0
   -7.8890    4.4680  -15.3030 C   0  0  0  0  0  0  0  0  0  0  0  0
   -9.0760    4.0220  -15.8740 C   0  0  0  0  0  0  0  0  0  0  0  0
   -9.2220    3.8960  -17.2510 C   0  0  0  0  0  0  0  0  0  0  0  0
   -8.1770    4.1380  -18.1150 C   0  0  0  0  0  0  0  0  0  0  0  0
   -6.9820    4.5730  -17.5650 C   0  0  0  0  0  0  0  0  0  0  0  0
   -5.7660    4.9200  -18.1370 N   0  0  0  0  0  0  0  0  0  0  0  0
   -4.8810    5.2410  -17.1440 C   0  0  0  0  0  0  0  0  0  0  0  0
   -3.6910    5.5400  -17.2850 O   0  0  0  0  0  0  0  0  0  0  0  0
   -5.5300    5.1170  -15.9520 N   0  0  0  0  0  0  0  0  0  0  0  0
   -6.8270    4.7260  -16.1790 C   0  0  0  0  0  0  0  0  0  0  0  0
  1  2  2  0
  2  3  1  0
  3  4  1  0
  4  5  2  0
  5  6  1  0
  6  7  2  0
  7  8  1  0
  8  9  2  0
  8 10  1  0
 10 11  1  0
 11 12  1  0
  2 13  1  0
 13 14  2  0
 14 15  1  0
 15 16  2  0
 16 17  1  0
 17 18  1  0
 18 19  1  0
 19 20  2  0
 19 21  1  0
 21 22  1  0
  4  9  1  0
 13 22  1  0
  7 12  1  0
 17 22  2  0
M  END
$$$$
