A71EV2A-x4880_A_201_1_A71EV2A-x0911+A+147+1__LIG
     RDKit          3D

 20 22  0  0  0  0  0  0  0  0999 V2000
   11.3390   14.9310   24.9740 O   0  0  0  0  0  0  0  0  0  0  0  0
   11.2250   15.0180   23.7590 C   0  0  0  0  0  0  0  0  0  0  0  0
   12.4580   15.1430   22.8960 C   0  0  0  0  0  0  0  0  0  0  0  0
   12.1890   15.7630   21.5300 C   0  0  0  0  0  0  0  0  0  0  0  0
   10.0120   15.0170   23.1440 N   0  0  0  0  0  0  0  0  0  0  0  0
    9.7610   15.2460   21.7130 C   0  0  0  0  0  0  0  0  0  0  0  0
   11.0260   15.0080   20.8840 C   0  0  1  0  0  0  0  0  0  0  0  0
   10.8220   15.4580   19.4480 C   0  0  0  0  0  0  0  0  0  0  0  0
   10.4380   16.6010   19.1860 O   0  0  0  0  0  0  0  0  0  0  0  0
   11.0900   14.5600   18.5110 N   0  0  0  0  0  0  0  0  0  0  0  0
    8.7960   14.8250   23.9530 C   0  0  0  0  0  0  0  0  0  0  0  0
    8.4090   13.3770   24.1620 C   0  0  0  0  0  0  0  0  0  0  0  0
    7.3030   13.0570   24.9460 C   0  0  0  0  0  0  0  0  0  0  0  0
    6.9110   11.7330   25.1320 C   0  0  0  0  0  0  0  0  0  0  0  0
    7.6460   10.7220   24.4880 C   0  0  0  0  0  0  0  0  0  0  0  0
    8.7710   11.0100   23.7210 C   0  0  0  0  0  0  0  0  0  0  0  0
    9.1420   12.3420   23.5770 C   0  0  0  0  0  0  0  0  0  0  0  0
    5.8410   11.0780   25.8370 C   0  0  0  0  0  0  0  0  0  0  0  0
    5.9530    9.7520   25.5810 C   0  0  0  0  0  0  0  0  0  0  0  0
    7.0370    9.5220   24.7690 N   0  0  0  0  0  0  0  0  0  0  0  0
 10  8  1  0
  9  8  2  0
  7  8  1  6
  7  4  1  0
  4  3  1  0
  3  2  1  0
  2  1  2  0
  5  2  1  0
 11  5  1  0
 12 11  1  0
 12 17  2  0
 17 16  1  0
 16 15  2  0
 15 20  1  0
 20 19  1  0
 19 18  2  0
 18 14  1  0
 15 14  1  0
 14 13  2  0
 13 12  1  0
  6  5  1  0
  7  6  1  0
M  END
$$$$
