A71EV2A-x4406_A_201_1_A71EV2A-x0911+A+147+1__LIG
     RDKit          3D

 21 22  0  0  0  0  0  0  0  0999 V2000
   10.7520   14.8440   24.6410 O   0  0  0  0  0  0  0  0  0  0  0  0
   10.8040   14.9630   23.4390 C   0  0  0  0  0  0  0  0  0  0  0  0
   12.0170   15.5300   22.7570 C   0  0  0  0  0  0  0  0  0  0  0  0
   11.8350   15.9800   21.3160 C   0  0  0  0  0  0  0  0  0  0  0  0
   10.9230   15.0140   20.5600 C   0  0  2  0  0  0  0  0  0  0  0  0
   10.7720   15.4200   19.1070 C   0  0  0  0  0  0  0  0  0  0  0  0
   10.2520   16.4910   18.7960 O   0  0  0  0  0  0  0  0  0  0  0  0
   11.2470   14.5630   18.2210 N   0  0  0  0  0  0  0  0  0  0  0  0
    9.6030   15.1060   21.3130 C   0  0  0  0  0  0  0  0  0  0  0  0
    9.8190   14.5490   22.6460 N   0  0  0  0  0  0  0  0  0  0  0  0
    9.0490   13.3630   23.0270 C   0  0  0  0  0  0  0  0  0  0  0  0
    7.5640   13.4930   23.3670 C   0  0  1  0  0  0  0  0  0  0  0  0
    6.8160   13.3460   22.1600 O   0  0  0  0  0  0  0  0  0  0  0  0
    7.1190   12.4710   24.4000 C   0  0  0  0  0  0  0  0  0  0  0  0
    7.6030   11.1720   24.3650 C   0  0  0  0  0  0  0  0  0  0  0  0
    8.3920   10.8910   23.3080 O   0  0  0  0  0  0  0  0  0  0  0  0
    9.0010    9.6700   23.2910 C   0  0  0  0  0  0  0  0  0  0  0  0
    6.1760   12.7790   25.3730 C   0  0  0  0  0  0  0  0  0  0  0  0
    5.7300   11.8150   26.2660 C   0  0  0  0  0  0  0  0  0  0  0  0
    6.2330   10.5320   26.2150 C   0  0  0  0  0  0  0  0  0  0  0  0
    7.1860   10.2020   25.2720 C   0  0  0  0  0  0  0  0  0  0  0  0
 17 16  1  0
 16 15  1  0
 15 21  2  0
 21 20  1  0
 20 19  2  0
 19 18  1  0
 18 14  2  0
 15 14  1  0
 14 12  1  0
 12 13  1  6
 12 11  1  0
 11 10  1  0
 10  9  1  0
  9  5  1  0
  5  6  1  6
  8  6  1  0
  7  6  2  0
  5  4  1  0
  4  3  1  0
  3  2  1  0
 10  2  1  0
  2  1  2  0
M  END
$$$$
