XX01ZVNS2B-x3803_B_203_1_XX01ZVNS2B-x4590+B+203+1__LIG
     RDKit          3D

 29 32  0  0  0  0  0  0  0  0999 V2000
   -7.6420    6.2010  -13.0780 O   0  0  0  0  0  0  0  0  0  0  0  0
   -7.9630    5.1070  -13.5390 C   0  0  0  0  0  0  0  0  0  0  0  0
   -7.8510    4.8440  -15.0100 C   0  0  0  0  0  0  0  0  0  0  0  0
   -8.9850    4.4560  -15.7280 C   0  0  0  0  0  0  0  0  0  0  0  0
   -8.9110    4.3900  -17.1010 C   0  0  0  0  0  0  0  0  0  0  0  0
  -10.0170    3.9860  -17.7800 F   0  0  0  0  0  0  0  0  0  0  0  0
   -7.7760    4.6920  -17.8240 C   0  0  0  0  0  0  0  0  0  0  0  0
   -6.6710    5.1180  -15.6940 C   0  0  0  0  0  0  0  0  0  0  0  0
   -6.6570    5.0580  -17.0830 C   0  0  0  0  0  0  0  0  0  0  0  0
   -5.3990    5.4410  -17.5510 N   0  0  0  0  0  0  0  0  0  0  0  0
   -4.5420    5.7130  -16.5370 C   0  0  0  0  0  0  0  0  0  0  0  0
   -3.3650    6.0280  -16.6460 O   0  0  0  0  0  0  0  0  0  0  0  0
   -5.2950    5.5070  -15.2070 C   0  0  2  0  0  0  0  0  0  0  0  0
   -4.6290    4.3980  -14.3860 C   0  0  0  0  0  0  0  0  0  0  0  0
   -5.4600    6.7000  -14.4170 O   0  0  0  0  0  0  0  0  0  0  0  0
   -4.3060    7.2260  -13.7190 C   0  0  0  0  0  0  0  0  0  0  0  0
   -4.7770    7.8930  -12.4480 C   0  0  0  0  0  0  0  0  0  0  0  0
   -4.7750    7.0180  -11.3230 O   0  0  0  0  0  0  0  0  0  0  0  0
   -4.9620    7.7090  -10.0920 C   0  0  0  0  0  0  0  0  0  0  0  0
   -8.3850    4.0690  -12.7730 N   0  0  0  0  0  0  0  0  0  0  0  0
   -8.4990    4.0400  -11.3600 C   0  0  0  0  0  0  0  0  0  0  0  0
   -8.7940    2.8430  -10.7110 C   0  0  0  0  0  0  0  0  0  0  0  0
   -8.8550    2.7980   -9.3210 C   0  0  0  0  0  0  0  0  0  0  0  0
   -9.1410    1.6360   -8.4170 C   0  0  0  0  0  0  0  0  0  0  0  0
   -8.8400    2.1970   -7.1000 N   0  0  0  0  0  0  0  0  0  0  0  0
   -8.7280    3.6540   -7.1090 C   0  0  0  0  0  0  0  0  0  0  0  0
   -8.6250    3.9460   -8.5770 C   0  0  0  0  0  0  0  0  0  0  0  0
   -8.3380    5.1420   -9.2270 C   0  0  0  0  0  0  0  0  0  0  0  0
   -8.2790    5.1910  -10.6070 C   0  0  0  0  0  0  0  0  0  0  0  0
 19 18  1  0
 18 17  1  0
 17 16  1  0
 16 15  1  0
 15 13  1  0
 13 14  1  1
 13 11  1  0
 12 11  2  0
 11 10  1  0
 10  9  1  0
  9  7  2  0
  7  5  1  0
  6  5  1  0
  5  4  2  0
  4  3  1  0
  3  2  1  0
  2  1  2  0
 20  2  1  0
 21 20  1  0
 21 29  2  0
 29 28  1  0
 28 27  2  0
 27 23  1  0
 23 22  2  0
 22 21  1  0
 24 23  1  0
 25 24  1  0
 26 25  1  0
 27 26  1  0
  8  3  2  0
  9  8  1  0
 13  8  1  0
M  END
$$$$
