A71EV2A-x1346_E_250_1_A71EV2A-x0911+A+147+1__LIG
     RDKit          3D

 29 31  0  0  0  0  0  0  0  0999 V2000
    9.3100   16.7550   20.7580 Cl  0  0  0  0  0  0  0  0  0  0  0  0
    9.1450   15.1050   21.3920 C   0  0  0  0  0  0  0  0  0  0  0  0
    7.7420   14.6560   21.7470 C   0  0  0  0  0  0  0  0  0  0  0  0
    7.4680   13.4720   21.6300 O   0  0  0  0  0  0  0  0  0  0  0  0
    6.8720   15.5540   22.2050 N   0  0  0  0  0  0  0  0  0  0  0  0
    5.5930   15.1870   22.8010 C   0  0  0  0  0  0  0  0  0  0  0  0
    5.6870   15.2090   24.3340 C   0  0  1  0  0  0  0  0  0  0  0  0
    4.3310   15.2670   25.0140 C   0  0  0  0  0  0  0  0  0  0  0  0
    3.8530   14.2080   25.7420 C   0  0  0  0  0  0  0  0  0  0  0  0
    2.5880   14.2550   26.3760 C   0  0  0  0  0  0  0  0  0  0  0  0
    2.0920   13.1910   27.1710 C   0  0  0  0  0  0  0  0  0  0  0  0
    0.8770   13.2900   27.7880 C   0  0  0  0  0  0  0  0  0  0  0  0
    0.1010   14.4310   27.6430 C   0  0  0  0  0  0  0  0  0  0  0  0
    0.5390   15.4770   26.8830 C   0  0  0  0  0  0  0  0  0  0  0  0
    1.7990   15.4230   26.2350 C   0  0  0  0  0  0  0  0  0  0  0  0
    2.3200   16.4970   25.4790 C   0  0  0  0  0  0  0  0  0  0  0  0
    3.5540   16.4150   24.9030 C   0  0  0  0  0  0  0  0  0  0  0  0
    6.5380   14.1280   24.8280 N   0  0  0  0  0  0  0  0  0  0  0  0
    7.3580   14.2770   25.8750 C   0  0  0  0  0  0  0  0  0  0  0  0
    7.5860   15.3720   26.3820 O   0  0  0  0  0  0  0  0  0  0  0  0
    7.9830   13.0250   26.4510 C   0  0  0  0  0  0  0  0  0  0  0  0
    7.9820   11.7740   25.6120 C   0  0  0  0  0  0  0  0  0  0  0  0
    7.2080   10.6070   25.8160 C   0  0  0  0  0  0  0  0  0  0  0  0
    6.0700   10.4080   26.7630 C   0  0  0  0  0  0  0  0  0  0  0  0
    8.8440   11.4130   24.5800 C   0  0  0  0  0  0  0  0  0  0  0  0
    9.8480   12.2510   23.8680 C   0  0  0  0  0  0  0  0  0  0  0  0
    8.5980   10.1340   24.2750 N   0  0  0  0  0  0  0  0  0  0  0  0
    7.5840    9.6190   25.0210 N   0  0  0  0  0  0  0  0  0  0  0  0
    9.2900    9.2790   23.3180 C   0  0  0  0  0  0  0  0  0  0  0  0
 24 23  1  0
 23 28  2  0
 28 27  1  0
 29 27  1  0
 27 25  1  0
 26 25  1  0
 25 22  2  0
 23 22  1  0
 22 21  1  0
 21 19  1  0
 20 19  2  0
 19 18  1  0
 18  7  1  0
  7  6  1  6
  6  5  1  0
  5  3  1  0
  4  3  2  0
  3  2  1  0
  2  1  1  0
  8  7  1  0
  8 17  2  0
 17 16  1  0
 16 15  2  0
 15 14  1  0
 14 13  2  0
 13 12  1  0
 12 11  2  0
 11 10  1  0
 15 10  1  0
 10  9  2  0
  9  8  1  0
M  END
$$$$
