A71EV2A-x5255_A_201_3_A71EV2A-x0911+A+147+1__LIG
     RDKit          3D

 20 22  0  0  0  0  0  0  0  0999 V2000
   10.3180   16.9890   19.0880 O   0  0  0  0  0  0  0  0  0  0  0  0
   10.6430   15.8350   19.3820 C   0  0  0  0  0  0  0  0  0  0  0  0
   10.7600   14.8760   18.4770 N   0  0  0  0  0  0  0  0  0  0  0  0
   10.9610   15.4660   20.8300 C   0  0  2  0  0  0  0  0  0  0  0  0
   11.4930   16.5300   21.8370 C   0  0  0  0  0  0  0  0  0  0  0  0
   12.2250   14.6240   21.1810 C   0  0  0  0  0  0  0  0  0  0  0  0
   12.1550   15.3280   22.5600 C   0  0  2  0  0  0  0  0  0  0  0  0
   11.1370   14.6600   23.4820 C   0  0  0  0  0  0  0  0  0  0  0  0
    9.7030   14.7990   21.4240 C   0  0  0  0  0  0  0  0  0  0  0  0
    9.9170   14.2550   22.7720 N   0  0  0  0  0  0  0  0  0  0  0  0
    8.9640   13.4560   23.3080 C   0  0  0  0  0  0  0  0  0  0  0  0
    7.8990   13.2450   22.7440 O   0  0  0  0  0  0  0  0  0  0  0  0
    9.2660   12.8400   24.6640 C   0  0  0  0  0  0  0  0  0  0  0  0
    8.1730   11.9110   25.1410 C   0  0  0  0  0  0  0  0  0  0  0  0
    8.1230   10.5690   24.7290 C   0  0  0  0  0  0  0  0  0  0  0  0
    9.1690    9.9710   23.8230 C   0  0  0  0  0  0  0  0  0  0  0  0
    7.2260   12.3860   26.0480 C   0  0  0  0  0  0  0  0  0  0  0  0
    6.2400   11.5510   26.5490 C   0  0  0  0  0  0  0  0  0  0  0  0
    6.1770   10.2430   26.1360 C   0  0  0  0  0  0  0  0  0  0  0  0
    7.1060    9.7570   25.2310 C   0  0  0  0  0  0  0  0  0  0  0  0
 16 15  1  0
 15 20  2  0
 20 19  1  0
 19 18  2  0
 18 17  1  0
 17 14  2  0
 15 14  1  0
 14 13  1  0
 13 11  1  0
 12 11  2  0
 11 10  1  0
 10  8  1  0
  7  8  1  1
  7  5  1  0
  5  4  1  0
  4  2  1  6
  3  2  1  0
  2  1  2  0
  9  4  1  0
 10  9  1  0
  6  4  1  0
  7  6  1  0
M  END
$$$$
