A71EV2A-x4606_C_201_1_A71EV2A-x0911+A+147+1__LIG
     RDKit          3D

 20 22  0  0  0  0  0  0  0  0999 V2000
    8.0550   13.1940   22.7110 O   0  0  0  0  0  0  0  0  0  0  0  0
    8.9810   13.6430   23.3780 C   0  0  0  0  0  0  0  0  0  0  0  0
    9.6890   14.7250   22.9830 N   0  0  0  0  0  0  0  0  0  0  0  0
   10.7490   15.4080   23.7440 C   0  0  0  0  0  0  0  0  0  0  0  0
   12.0970   15.2620   23.0380 C   0  0  0  0  0  0  0  0  0  0  0  0
   11.9940   15.7440   21.5860 C   0  0  0  0  0  0  0  0  0  0  0  0
    9.5330   15.2390   21.6180 C   0  0  0  0  0  0  0  0  0  0  0  0
   10.8430   15.0280   20.8530 C   0  0  1  0  0  0  0  0  0  0  0  0
   10.6930   15.5320   19.4290 C   0  0  0  0  0  0  0  0  0  0  0  0
   10.3130   16.6920   19.2000 O   0  0  0  0  0  0  0  0  0  0  0  0
   10.9610   14.6450   18.4700 N   0  0  0  0  0  0  0  0  0  0  0  0
    9.3540   12.9550   24.7290 C   0  0  1  0  0  0  0  0  0  0  0  0
    8.2170   12.0480   25.1710 C   0  0  0  0  0  0  0  0  0  0  0  0
    8.4230   10.7080   24.8370 C   0  0  0  0  0  0  0  0  0  0  0  0
    9.7250   10.4190   24.1530 C   0  0  0  0  0  0  0  0  0  0  0  0
   10.7790   11.8370   24.4660 S   0  0  0  0  0  0  0  0  0  0  0  0
    7.1670   12.5060   25.8630 N   0  0  0  0  0  0  0  0  0  0  0  0
    6.2780   11.5840   26.2780 C   0  0  0  0  0  0  0  0  0  0  0  0
    6.3840   10.2360   25.9950 C   0  0  0  0  0  0  0  0  0  0  0  0
    7.4640    9.7910   25.2490 C   0  0  0  0  0  0  0  0  0  0  0  0
 11  9  1  0
 10  9  2  0
  8  9  1  6
  8  6  1  0
  6  5  1  0
  5  4  1  0
  4  3  1  0
  3  2  1  0
  2  1  2  0
 12  2  1  6
 12 16  1  0
 16 15  1  0
 15 14  1  0
 14 20  2  0
 20 19  1  0
 19 18  2  0
 18 17  1  0
 17 13  2  0
 14 13  1  0
 13 12  1  0
  7  3  1  0
  8  7  1  0
M  END
$$$$
