XX01ZVNS2B-x3468_B_203_1_XX01ZVNS2B-x4590+B+203+1__LIG
     RDKit          3D

 29 34  0  0  0  0  0  0  0  0999 V2000
   -5.0320    6.7320  -19.3280 C   0  0  0  0  0  0  0  0  0  0  0  0
   -4.0560    5.9160  -18.4970 C   0  0  2  0  0  0  0  0  0  0  0  0
   -3.5670    4.6700  -19.1750 C   0  0  0  0  0  0  0  0  0  0  0  0
   -2.5140    4.8660  -20.2180 C   0  0  0  0  0  0  0  0  0  0  0  0
   -2.1570    4.2540  -18.9030 C   0  0  0  0  0  0  0  0  0  0  0  0
   -4.6080    5.6040  -17.1710 N   0  0  0  0  0  0  0  0  0  0  0  0
   -3.8480    5.7490  -16.0430 N   0  0  0  0  0  0  0  0  0  0  0  0
   -4.6100    5.4350  -15.0150 C   0  0  0  0  0  0  0  0  0  0  0  0
   -5.8970    5.0410  -15.4560 C   0  0  0  0  0  0  0  0  0  0  0  0
   -7.0970    4.5510  -14.8600 C   0  0  0  0  0  0  0  0  0  0  0  0
   -7.1860    4.5670  -13.3610 C   0  0  0  0  0  0  0  0  0  0  0  0
   -6.4220    5.2910  -12.7240 O   0  0  0  0  0  0  0  0  0  0  0  0
   -8.0760    3.7570  -12.7470 N   0  0  0  0  0  0  0  0  0  0  0  0
   -8.3050    3.7510  -11.3470 C   0  0  0  0  0  0  0  0  0  0  0  0
   -8.0900    4.9260  -10.6290 C   0  0  0  0  0  0  0  0  0  0  0  0
   -8.2360    4.9460   -9.2530 C   0  0  0  0  0  0  0  0  0  0  0  0
   -8.5570    3.7640   -8.5970 C   0  0  0  0  0  0  0  0  0  0  0  0
   -8.7600    2.5870   -9.3050 C   0  0  0  0  0  0  0  0  0  0  0  0
   -8.6030    2.5530  -10.6840 C   0  0  0  0  0  0  0  0  0  0  0  0
   -9.1150    1.4860   -8.3480 C   0  0  0  0  0  0  0  0  0  0  0  0
   -8.6750    2.0590   -7.0680 N   0  0  0  0  0  0  0  0  0  0  0  0
   -8.8240    3.5190   -7.1400 C   0  0  0  0  0  0  0  0  0  0  0  0
   -8.1540    4.2760  -15.7270 C   0  0  0  0  0  0  0  0  0  0  0  0
   -7.9780    4.4120  -17.1440 C   0  0  0  0  0  0  0  0  0  0  0  0
   -9.0450    4.1410  -18.1430 C   0  0  0  0  0  0  0  0  0  0  0  0
   -9.2120    2.7610  -18.6910 C   0  0  0  0  0  0  0  0  0  0  0  0
  -10.2440    3.3190  -17.8100 C   0  0  0  0  0  0  0  0  0  0  0  0
   -6.8320    4.8040  -17.6800 N   0  0  0  0  0  0  0  0  0  0  0  0
   -5.8300    5.1270  -16.8570 C   0  0  0  0  0  0  0  0  0  0  0  0
  2  1  1  6
  2  3  1  0
  3  4  1  0
  4  5  1  0
  2  6  1  0
  6  7  1  0
  7  8  2  0
  8  9  1  0
  9 10  2  0
 10 11  1  0
 11 12  2  0
 11 13  1  0
 13 14  1  0
 14 15  2  0
 15 16  1  0
 16 17  2  0
 17 18  1  0
 18 19  2  0
 18 20  1  0
 20 21  1  0
 21 22  1  0
 10 23  1  0
 23 24  2  0
 24 25  1  0
 25 26  1  0
 26 27  1  0
 24 28  1  0
 28 29  2  0
  3  5  1  0
  6 29  1  0
  9 29  1  0
 14 19  1  0
 25 27  1  0
 17 22  1  0
M  END
$$$$
