XX01ZVNS2B-x2971_B_301_1_XX01ZVNS2B-x4590+B+203+1__LIG
     RDKit          3D

 22 25  0  0  0  0  0  0  0  0999 V2000
   -6.0020    7.8730  -23.4380 O   0  0  0  0  0  0  0  0  0  0  0  0
   -4.7960    8.0290  -23.6600 C   0  0  0  0  0  0  0  0  0  0  0  0
   -4.1770    8.4020  -24.7970 N   0  0  0  0  0  0  0  0  0  0  0  0
   -2.8040    8.4540  -24.6490 N   0  0  0  0  0  0  0  0  0  0  0  0
   -2.5970    8.1110  -23.4160 C   0  0  0  0  0  0  0  0  0  0  0  0
   -3.7630    7.8380  -22.7550 N   0  0  0  0  0  0  0  0  0  0  0  0
   -3.9150    7.4110  -21.3450 C   0  0  0  0  0  0  0  0  0  0  0  0
   -3.9930    8.5880  -20.3840 C   0  0  0  0  0  0  0  0  0  0  0  0
   -4.2050    8.0920  -18.9570 C   0  0  0  0  0  0  0  0  0  0  0  0
   -3.1710    7.1340  -18.5480 N   0  0  0  0  0  0  0  0  0  0  0  0
   -3.3650    6.6930  -17.1620 C   0  0  0  0  0  0  0  0  0  0  0  0
   -4.7400    6.4860  -16.5990 C   0  0  0  0  0  0  0  0  0  0  0  0
   -5.1010    6.8380  -15.3280 C   0  0  0  0  0  0  0  0  0  0  0  0
   -6.3860    6.4390  -15.0750 N   0  0  0  0  0  0  0  0  0  0  0  0
   -6.8790    5.7790  -16.1680 C   0  0  0  0  0  0  0  0  0  0  0  0
   -8.1230    5.1860  -16.3770 C   0  0  0  0  0  0  0  0  0  0  0  0
   -8.3460    4.5930  -17.5970 C   0  0  0  0  0  0  0  0  0  0  0  0
   -7.3480    4.5440  -18.5680 C   0  0  0  0  0  0  0  0  0  0  0  0
   -6.1220    5.1320  -18.3670 C   0  0  0  0  0  0  0  0  0  0  0  0
   -5.8580    5.7560  -17.1410 C   0  0  0  0  0  0  0  0  0  0  0  0
   -3.0880    5.9870  -19.4640 C   0  0  0  0  0  0  0  0  0  0  0  0
   -2.8490    6.4190  -20.9090 C   0  0  0  0  0  0  0  0  0  0  0  0
  1  2  2  0
  2  3  1  0
  3  4  1  0
  4  5  2  0
  5  6  1  0
  6  7  1  0
  7  8  1  0
  8  9  1  0
  9 10  1  0
 10 11  1  0
 11 12  1  0
 12 13  2  0
 13 14  1  0
 14 15  1  0
 15 16  2  0
 16 17  1  0
 17 18  2  0
 18 19  1  0
 19 20  2  0
 10 21  1  0
 21 22  1  0
  2  6  1  0
  7 22  1  0
 12 20  1  0
 15 20  1  0
M  END
$$$$
