A71EV2A-x3521_A_201_1_A71EV2A-x0911+A+147+1__LIG
     RDKit          3D

 23 25  0  0  0  0  0  0  0  0999 V2000
    9.3450   13.8760   25.1640 Cl  0  0  0  0  0  0  0  0  0  0  0  0
    8.7760   12.2380   25.1680 C   0  0  0  0  0  0  0  0  0  0  0  0
    9.4770   11.3350   24.3890 C   0  0  0  0  0  0  0  0  0  0  0  0
    9.0540   10.0220   24.3540 C   0  0  0  0  0  0  0  0  0  0  0  0
    9.8910    8.8940   23.3320 Cl  0  0  0  0  0  0  0  0  0  0  0  0
    7.9690    9.6010   25.0820 C   0  0  0  0  0  0  0  0  0  0  0  0
    7.2920   10.5190   25.8640 C   0  0  0  0  0  0  0  0  0  0  0  0
    7.6720   11.8530   25.9350 C   0  0  0  0  0  0  0  0  0  0  0  0
    6.9490   12.8250   26.8870 C   0  0  0  0  0  0  0  0  0  0  0  0
    5.5970   12.2400   27.3730 C   0  0  0  0  0  0  0  0  0  0  0  0
    4.9710   13.0810   28.4720 C   0  0  0  0  0  0  0  0  0  0  0  0
    5.8440   13.2130   29.5990 O   0  0  0  0  0  0  0  0  0  0  0  0
    7.0900   13.8420   29.2250 C   0  0  0  0  0  0  0  0  0  0  0  0
    7.8300   13.0690   28.1420 C   0  0  0  0  0  0  0  0  0  0  0  0
    6.5090   14.0840   26.0990 C   0  0  0  0  0  0  0  0  0  0  0  0
    5.9130   13.9740   25.0310 O   0  0  0  0  0  0  0  0  0  0  0  0
    6.7770   15.2780   26.6380 N   0  0  0  0  0  0  0  0  0  0  0  0
    5.7750   16.0250   27.4060 C   0  0  1  0  0  0  0  0  0  0  0  0
    5.7320   17.5480   27.2340 C   0  0  0  0  0  0  0  0  0  0  0  0
    4.3050   15.9810   26.9510 C   0  0  0  0  0  0  0  0  0  0  0  0
    4.2300   17.5220   26.8630 C   0  0  2  0  0  0  0  0  0  0  0  0
    3.8960   18.0800   25.5420 C   0  0  0  0  0  0  0  0  0  0  0  0
    3.6730   18.4980   24.5090 N   0  0  0  0  0  0  0  0  0  0  0  0
 23 22  3  0
 21 22  1  6
 21 19  1  0
 19 18  1  0
 18 17  1  6
 17 15  1  0
 16 15  2  0
 15  9  1  0
  9  8  1  0
  8  7  2  0
  7  6  1  0
  6  4  2  0
  5  4  1  0
  4  3  1  0
  3  2  2  0
  8  2  1  0
  2  1  1  0
  9 14  1  0
 14 13  1  0
 13 12  1  0
 12 11  1  0
 11 10  1  0
 10  9  1  0
 20 18  1  0
 21 20  1  0
M  END
$$$$
