A71EV2A-x4315_A_201_1_A71EV2A-x0911+A+147+1__LIG
     RDKit          3D

 20 22  0  0  0  0  0  0  0  0999 V2000
   11.5520   14.6700   24.8850 O   0  0  0  0  0  0  0  0  0  0  0  0
   11.4420   14.8010   23.6730 C   0  0  0  0  0  0  0  0  0  0  0  0
   12.6300   15.2250   22.8480 C   0  0  0  0  0  0  0  0  0  0  0  0
   12.3380   15.6920   21.4150 C   0  0  0  0  0  0  0  0  0  0  0  0
   10.2610   14.6340   23.0310 N   0  0  0  0  0  0  0  0  0  0  0  0
    9.9790   14.8850   21.6110 C   0  0  0  0  0  0  0  0  0  0  0  0
   11.2570   14.8150   20.7680 C   0  0  1  0  0  0  0  0  0  0  0  0
   10.8970   15.2850   19.3670 C   0  0  0  0  0  0  0  0  0  0  0  0
   10.3230   16.3640   19.1810 O   0  0  0  0  0  0  0  0  0  0  0  0
   11.1950   14.4550   18.3860 N   0  0  0  0  0  0  0  0  0  0  0  0
    9.0680   14.2880   23.8040 C   0  0  0  0  0  0  0  0  0  0  0  0
    8.8170   12.8020   23.9300 C   0  0  0  0  0  0  0  0  0  0  0  0
    7.8020   12.3380   24.7640 C   0  0  0  0  0  0  0  0  0  0  0  0
    6.9970   13.0790   25.5990 O   0  0  0  0  0  0  0  0  0  0  0  0
    6.2090   12.1140   26.3150 C   0  0  0  0  0  0  0  0  0  0  0  0
    6.6380   10.7980   25.9300 O   0  0  0  0  0  0  0  0  0  0  0  0
    7.6280   10.9910   24.9880 C   0  0  0  0  0  0  0  0  0  0  0  0
    8.4100   10.0430   24.3540 C   0  0  0  0  0  0  0  0  0  0  0  0
    9.3990   10.4860   23.4860 C   0  0  0  0  0  0  0  0  0  0  0  0
    9.6100   11.8490   23.2890 C   0  0  0  0  0  0  0  0  0  0  0  0
 10  8  1  0
  9  8  2  0
  7  8  1  6
  7  4  1  0
  4  3  1  0
  3  2  1  0
  2  1  2  0
  5  2  1  0
 11  5  1  0
 12 11  1  0
 12 20  2  0
 20 19  1  0
 19 18  2  0
 18 17  1  0
 17 13  2  0
 13 12  1  0
 14 13  1  0
 15 14  1  0
 16 15  1  0
 17 16  1  0
  6  5  1  0
  7  6  1  0
M  END
$$$$
