XX01ZVNS2B-x3673_B_203_1_XX01ZVNS2B-x4590+B+203+1__LIG
     RDKit          3D

 27 31  0  0  0  0  0  0  0  0999 V2000
   -6.3860    5.4450  -12.1870 O   0  0  0  0  0  0  0  0  0  0  0  0
   -7.2110    4.8340  -12.8670 C   0  0  0  0  0  0  0  0  0  0  0  0
   -8.2170    4.0950  -12.3360 N   0  0  0  0  0  0  0  0  0  0  0  0
   -8.4830    3.9350  -10.9550 C   0  0  0  0  0  0  0  0  0  0  0  0
   -8.7030    2.6830  -10.3820 C   0  0  0  0  0  0  0  0  0  0  0  0
   -8.8240    2.5600   -9.0000 C   0  0  0  0  0  0  0  0  0  0  0  0
   -9.0940    1.3390   -8.1710 C   0  0  0  0  0  0  0  0  0  0  0  0
   -8.7610    1.8390   -6.8360 N   0  0  0  0  0  0  0  0  0  0  0  0
   -8.7990    3.2960   -6.7410 C   0  0  0  0  0  0  0  0  0  0  0  0
   -8.7110    3.6810   -8.1880 C   0  0  0  0  0  0  0  0  0  0  0  0
   -8.5110    4.9300   -8.7650 C   0  0  0  0  0  0  0  0  0  0  0  0
   -8.4100    5.0600  -10.1380 C   0  0  0  0  0  0  0  0  0  0  0  0
   -7.0930    4.8140  -14.3520 C   0  0  0  0  0  0  0  0  0  0  0  0
   -8.0760    4.3660  -15.2320 C   0  0  0  0  0  0  0  0  0  0  0  0
   -7.8060    4.3480  -16.5970 C   0  0  0  0  0  0  0  0  0  0  0  0
   -6.5590    4.7630  -17.1100 C   0  0  0  0  0  0  0  0  0  0  0  0
   -5.6120    5.2340  -16.2050 C   0  0  0  0  0  0  0  0  0  0  0  0
   -5.8730    5.2560  -14.8500 C   0  0  0  0  0  0  0  0  0  0  0  0
   -8.8670    3.8180  -17.8650 S   0  0  0  0  0  0  0  0  0  0  0  0
   -7.6580    4.1110  -19.0530 C   0  0  0  0  0  0  0  0  0  0  0  0
   -6.4970    4.6170  -18.5500 C   0  0  0  0  0  0  0  0  0  0  0  0
   -5.3800    5.0330  -19.4220 C   0  0  0  0  0  0  0  0  0  0  0  0
   -3.9840    4.6480  -18.9700 C   0  0  0  0  0  0  0  0  0  0  0  0
   -3.0070    4.7270  -20.1420 C   0  0  0  0  0  0  0  0  0  0  0  0
   -3.1620    5.9610  -20.9530 N   0  0  0  0  0  0  0  0  0  0  0  0
   -4.4980    6.0570  -21.5280 C   0  0  0  0  0  0  0  0  0  0  0  0
   -5.5920    5.7080  -20.5710 C   0  0  0  0  0  0  0  0  0  0  0  0
  2  1  2  0
  3  2  1  0
  4  3  1  0
  4 12  2  0
 12 11  1  0
 11 10  2  0
 10  6  1  0
  6  5  2  0
  5  4  1  0
  7  6  1  0
  8  7  1  0
  9  8  1  0
 10  9  1  0
 13  2  1  0
 13 18  2  0
 18 17  1  0
 17 16  2  0
 16 21  1  0
 22 21  1  0
 22 27  2  0
 27 26  1  0
 26 25  1  0
 25 24  1  0
 24 23  1  0
 23 22  1  0
 21 20  2  0
 20 19  1  0
 19 15  1  0
 16 15  1  0
 15 14  2  0
 14 13  1  0
M  END
$$$$
