A71EV2A-x3509_A_201_1_A71EV2A-x0911+A+147+1__LIG
     RDKit          3D

 20 21  0  0  0  0  0  0  0  0999 V2000
   10.5460   16.8320   19.1580 O   0  0  0  0  0  0  0  0  0  0  0  0
   10.9380   15.6930   19.4330 C   0  0  0  0  0  0  0  0  0  0  0  0
   11.0260   14.7260   18.5320 N   0  0  0  0  0  0  0  0  0  0  0  0
   11.2880   15.3050   20.8580 C   0  0  1  0  0  0  0  0  0  0  0  0
   12.1810   16.3730   21.5110 C   0  0  0  0  0  0  0  0  0  0  0  0
   12.4520   16.0540   22.9870 C   0  0  0  0  0  0  0  0  0  0  0  0
   11.1570   15.8630   23.7420 C   0  0  0  0  0  0  0  0  0  0  0  0
   10.0120   15.1290   21.6810 C   0  0  0  0  0  0  0  0  0  0  0  0
   10.3460   14.8350   23.0800 N   0  0  0  0  0  0  0  0  0  0  0  0
   10.0880   13.6850   23.7630 C   0  0  0  0  0  0  0  0  0  0  0  0
   10.1820   13.6310   24.9900 O   0  0  0  0  0  0  0  0  0  0  0  0
    9.7200   12.6110   23.0070 N   0  0  0  0  0  0  0  0  0  0  0  0
    8.9870   11.5130   23.5150 C   0  0  0  0  0  0  0  0  0  0  0  0
    9.2540   10.2290   23.0550 C   0  0  0  0  0  0  0  0  0  0  0  0
    8.5140    9.1580   23.5280 C   0  0  0  0  0  0  0  0  0  0  0  0
    7.5370    9.3520   24.4890 C   0  0  0  0  0  0  0  0  0  0  0  0
    8.0020   11.7160   24.4790 C   0  0  0  0  0  0  0  0  0  0  0  0
    7.2910   10.6260   24.9790 C   0  0  0  0  0  0  0  0  0  0  0  0
    6.3210   10.8220   26.0280 C   0  0  0  0  0  0  0  0  0  0  0  0
    5.5460   10.9430   26.8540 N   0  0  0  0  0  0  0  0  0  0  0  0
 20 19  3  0
 19 18  1  0
 18 16  2  0
 16 15  1  0
 15 14  2  0
 14 13  1  0
 13 12  1  0
 12 10  1  0
 11 10  2  0
 10  9  1  0
  9  7  1  0
  7  6  1  0
  6  5  1  0
  5  4  1  0
  4  2  1  6
  3  2  1  0
  2  1  2  0
  8  4  1  0
  9  8  1  0
 17 13  2  0
 18 17  1  0
M  END
$$$$
