A71EV2A-x1068_A_246_1_A71EV2A-x1068+A+246+1__LIG
     RDKit          3D

  7  7  0  0  0  0  0  0  0  0999 V2000
   14.4150   -4.4580    0.7000 N   0  0  0  0  0  0  0  0  0  0  0  0
   15.5520   -4.7070    1.3330 C   0  0  0  0  0  0  0  0  0  0  0  0
   16.3020   -5.7390    0.8940 N   0  0  0  0  0  0  0  0  0  0  0  0
   17.4670   -5.9350    1.5240 C   0  0  0  0  0  0  0  0  0  0  0  0
   17.9010   -5.1570    2.5810 C   0  0  0  0  0  0  0  0  0  0  0  0
   17.0520   -4.1470    2.9600 C   0  0  0  0  0  0  0  0  0  0  0  0
   15.8810   -3.9010    2.3640 N   0  0  0  0  0  0  0  0  0  0  0  0
  2  1  1  0
  2  7  2  0
  7  6  1  0
  6  5  2  0
  5  4  1  0
  4  3  2  0
  3  2  1  0
M  END
$$$$
