A71EV2A-x3223_D_301_1_A71EV2A-x0911+A+147+1__LIG
     RDKit          3D

 20 22  0  0  0  0  0  0  0  0999 V2000
    6.8440   13.2940   21.9920 O   0  0  0  0  0  0  0  0  0  0  0  0
    7.7380   13.4260   22.7950 C   0  0  0  0  0  0  0  0  0  0  0  0
    8.7250   14.3200   22.6300 N   0  0  0  0  0  0  0  0  0  0  0  0
    9.7430   14.6480   23.6460 C   0  0  0  0  0  0  0  0  0  0  0  0
   11.1600   14.5540   23.0930 C   0  0  0  0  0  0  0  0  0  0  0  0
   11.2950   15.3070   21.7700 C   0  0  0  0  0  0  0  0  0  0  0  0
    8.8860   15.1180   21.4120 C   0  0  0  0  0  0  0  0  0  0  0  0
   10.2370   14.7980   20.7790 C   0  0  1  0  0  0  0  0  0  0  0  0
   10.4280   15.3590   19.3810 C   0  0  0  0  0  0  0  0  0  0  0  0
   10.0390   16.4940   19.0880 O   0  0  0  0  0  0  0  0  0  0  0  0
   11.0220   14.5580   18.5070 N   0  0  0  0  0  0  0  0  0  0  0  0
    7.7110   12.5930   24.0460 C   0  0  0  0  0  0  0  0  0  0  0  0
    6.6440   12.6130   24.9660 C   0  0  0  0  0  0  0  0  0  0  0  0
    5.5010   13.3890   25.2840 C   0  0  0  0  0  0  0  0  0  0  0  0
    4.9010   12.9480   26.3740 N   0  0  0  0  0  0  0  0  0  0  0  0
    5.6160   11.8640   26.7940 N   0  0  0  0  0  0  0  0  0  0  0  0
    6.6630   11.6360   25.9740 C   0  0  0  0  0  0  0  0  0  0  0  0
    7.5910   10.6900   26.1360 N   0  0  0  0  0  0  0  0  0  0  0  0
    8.6210   10.7460   25.2800 C   0  0  0  0  0  0  0  0  0  0  0  0
    8.7290   11.6580   24.2400 C   0  0  0  0  0  0  0  0  0  0  0  0
 11  9  1  0
 10  9  2  0
  8  9  1  6
  8  6  1  0
  6  5  1  0
  5  4  1  0
  4  3  1  0
  3  2  1  0
  2  1  2  0
 12  2  1  0
 12 20  1  0
 20 19  2  0
 19 18  1  0
 18 17  2  0
 17 16  1  0
 16 15  1  0
 15 14  2  0
 14 13  1  0
 13 12  2  0
 17 13  1  0
  7  3  1  0
  8  7  1  0
M  END
$$$$
