A71EV2A-x3186_D_245_1_A71EV2A-x0911+A+147+1__LIG
     RDKit          3D

 20 21  0  0  0  0  0  0  0  0999 V2000
   10.4420   16.8590   19.2070 O   0  0  0  0  0  0  0  0  0  0  0  0
   10.6280   15.6530   19.3820 C   0  0  0  0  0  0  0  0  0  0  0  0
   10.7590   14.7950   18.3880 N   0  0  0  0  0  0  0  0  0  0  0  0
   10.7620   15.0740   20.7800 C   0  0  1  0  0  0  0  0  0  0  0  0
   11.9130   15.7360   21.5360 C   0  0  0  0  0  0  0  0  0  0  0  0
   12.1080   15.0700   22.8940 C   0  0  0  0  0  0  0  0  0  0  0  0
   10.8440   15.1700   23.6990 C   0  0  0  0  0  0  0  0  0  0  0  0
    9.5290   15.3020   21.6510 C   0  0  0  0  0  0  0  0  0  0  0  0
    9.7030   14.6390   22.9450 N   0  0  0  0  0  0  0  0  0  0  0  0
    8.8690   13.6660   23.3730 C   0  0  0  0  0  0  0  0  0  0  0  0
    7.9930   13.1990   22.6610 O   0  0  0  0  0  0  0  0  0  0  0  0
    9.0680   13.1850   24.7990 C   0  0  0  0  0  0  0  0  0  0  0  0
    8.0380   12.1620   25.2180 C   0  0  0  0  0  0  0  0  0  0  0  0
    8.0020   10.8950   24.6310 C   0  0  0  0  0  0  0  0  0  0  0  0
    8.9020   10.6940   23.6200 O   0  0  0  0  0  0  0  0  0  0  0  0
    9.6830    9.5050   23.6490 C   0  0  0  0  0  0  0  0  0  0  0  0
    7.1000   12.4570   26.2040 C   0  0  0  0  0  0  0  0  0  0  0  0
    6.1530   11.5270   26.5860 C   0  0  0  0  0  0  0  0  0  0  0  0
    6.1250   10.2900   25.9970 C   0  0  0  0  0  0  0  0  0  0  0  0
    7.0540    9.9590   25.0220 C   0  0  0  0  0  0  0  0  0  0  0  0
 16 15  1  0
 15 14  1  0
 14 20  2  0
 20 19  1  0
 19 18  2  0
 18 17  1  0
 17 13  2  0
 14 13  1  0
 13 12  1  0
 12 10  1  0
 11 10  2  0
 10  9  1  0
  9  7  1  0
  7  6  1  0
  6  5  1  0
  5  4  1  0
  4  2  1  6
  3  2  1  0
  2  1  2  0
  8  4  1  0
  9  8  1  0
M  END
$$$$
