A71EV2A-x4921_A_201_1_A71EV2A-x0911+A+147+1__LIG
     RDKit          3D

 18 19  0  0  0  0  0  0  0  0999 V2000
   10.0830    9.2490   23.0970 Cl  0  0  0  0  0  0  0  0  0  0  0  0
    9.0860   10.5030   23.7920 C   0  0  0  0  0  0  0  0  0  0  0  0
    8.0430   10.1440   24.6080 C   0  0  0  0  0  0  0  0  0  0  0  0
    7.3070   11.1390   25.2220 C   0  0  0  0  0  0  0  0  0  0  0  0
    7.6270   12.4700   25.0250 C   0  0  0  0  0  0  0  0  0  0  0  0
    9.4060   11.8330   23.5610 C   0  0  0  0  0  0  0  0  0  0  0  0
    8.6750   12.8360   24.1950 C   0  0  0  0  0  0  0  0  0  0  0  0
    8.9960   14.3050   24.0250 C   0  0  0  0  0  0  0  0  0  0  0  0
   10.1620   14.6180   23.2010 N   0  0  0  0  0  0  0  0  0  0  0  0
   11.3780   14.7350   23.7990 C   0  0  0  0  0  0  0  0  0  0  0  0
   11.5330   14.6520   25.0130 O   0  0  0  0  0  0  0  0  0  0  0  0
   12.5480   15.0510   22.9100 C   0  0  0  0  0  0  0  0  0  0  0  0
   12.1610   15.6860   21.5710 C   0  0  0  0  0  0  0  0  0  0  0  0
    9.8270   14.8790   21.7930 C   0  0  0  0  0  0  0  0  0  0  0  0
   11.0640   14.8610   20.8870 C   0  0  1  0  0  0  0  0  0  0  0  0
   10.8150   15.3390   19.4640 C   0  0  0  0  0  0  0  0  0  0  0  0
   10.3160   16.4480   19.2380 O   0  0  0  0  0  0  0  0  0  0  0  0
   11.1490   14.4880   18.4940 N   0  0  0  0  0  0  0  0  0  0  0  0
 18 16  1  0
 17 16  2  0
 15 16  1  6
 15 13  1  0
 13 12  1  0
 12 10  1  0
 11 10  2  0
 10  9  1  0
  9  8  1  0
  8  7  1  0
  7  5  1  0
  5  4  2  0
  4  3  1  0
  3  2  2  0
  2  1  1  0
  6  2  1  0
  7  6  2  0
 14  9  1  0
 15 14  1  0
M  END
$$$$
