A71EV2A-x4333_A_201_1_A71EV2A-x0911+A+147+1__LIG
     RDKit          3D

 19 20  0  0  0  0  0  0  0  0999 V2000
   10.4020   16.4890   19.3720 O   0  0  0  0  0  0  0  0  0  0  0  0
   10.8400   15.3530   19.5610 C   0  0  0  0  0  0  0  0  0  0  0  0
   11.2500   14.5750   18.5740 N   0  0  0  0  0  0  0  0  0  0  0  0
   10.9310   14.7680   20.9610 C   0  0  1  0  0  0  0  0  0  0  0  0
   12.0970   15.3750   21.7550 C   0  0  0  0  0  0  0  0  0  0  0  0
   12.1820   14.7930   23.1690 C   0  0  0  0  0  0  0  0  0  0  0  0
   10.8420   14.9010   23.8960 C   0  0  0  0  0  0  0  0  0  0  0  0
    9.6290   14.9380   21.7510 C   0  0  0  0  0  0  0  0  0  0  0  0
    9.7570   14.3340   23.0800 N   0  0  0  0  0  0  0  0  0  0  0  0
    8.9680   13.3030   23.4470 C   0  0  0  0  0  0  0  0  0  0  0  0
    8.0220   12.9410   22.7610 O   0  0  0  0  0  0  0  0  0  0  0  0
    9.3460   12.5890   24.7360 C   0  0  0  0  0  0  0  0  0  0  0  0
    8.3050   11.5840   25.1910 C   0  0  0  0  0  0  0  0  0  0  0  0
    8.2960   10.2430   24.7220 C   0  0  0  0  0  0  0  0  0  0  0  0
    9.3150    9.7400   23.7420 C   0  0  0  0  0  0  0  0  0  0  0  0
    7.3180   11.9500   26.1010 C   0  0  0  0  0  0  0  0  0  0  0  0
    6.3700   11.0290   26.5050 C   0  0  0  0  0  0  0  0  0  0  0  0
    6.4360    9.7530   25.9930 C   0  0  0  0  0  0  0  0  0  0  0  0
    7.3770    9.3520   25.1240 N   0  0  0  0  0  0  0  0  0  0  0  0
 15 14  1  0
 14 19  2  0
 19 18  1  0
 18 17  2  0
 17 16  1  0
 16 13  2  0
 14 13  1  0
 13 12  1  0
 12 10  1  0
 11 10  2  0
 10  9  1  0
  9  7  1  0
  7  6  1  0
  6  5  1  0
  5  4  1  0
  4  2  1  6
  3  2  1  0
  2  1  2  0
  8  4  1  0
  9  8  1  0
M  END
$$$$
