A71EV2A-x4546_A_201_1_A71EV2A-x0911+A+147+1__LIG
     RDKit          3D

 20 22  0  0  0  0  0  0  0  0999 V2000
   11.5350   14.5940   24.9000 O   0  0  0  0  0  0  0  0  0  0  0  0
   11.3760   14.8610   23.7140 C   0  0  0  0  0  0  0  0  0  0  0  0
   12.4640   15.5690   22.9400 C   0  0  0  0  0  0  0  0  0  0  0  0
   12.1050   15.9900   21.5120 C   0  0  0  0  0  0  0  0  0  0  0  0
   10.2250   14.5750   23.0540 N   0  0  0  0  0  0  0  0  0  0  0  0
    9.9490   14.7710   21.6240 C   0  0  0  0  0  0  0  0  0  0  0  0
   11.2230   14.9580   20.7920 C   0  0  1  0  0  0  0  0  0  0  0  0
   10.8510   15.4280   19.3950 C   0  0  0  0  0  0  0  0  0  0  0  0
   10.2640   16.4990   19.2130 O   0  0  0  0  0  0  0  0  0  0  0  0
   11.1950   14.6320   18.4020 N   0  0  0  0  0  0  0  0  0  0  0  0
    9.0460   14.1660   23.8280 C   0  0  0  0  0  0  0  0  0  0  0  0
    8.8530   12.6700   23.9110 C   0  0  0  0  0  0  0  0  0  0  0  0
    7.9000   12.1080   24.7740 C   0  0  0  0  0  0  0  0  0  0  0  0
    7.0180   12.7180   25.6380 N   0  0  0  0  0  0  0  0  0  0  0  0
    6.3040   11.7480   26.2950 C   0  0  0  0  0  0  0  0  0  0  0  0
    6.6970   10.5180   25.8790 C   0  0  0  0  0  0  0  0  0  0  0  0
    7.7290   10.7130   24.9020 C   0  0  0  0  0  0  0  0  0  0  0  0
    8.5500    9.8750   24.1420 C   0  0  0  0  0  0  0  0  0  0  0  0
    9.4990   10.4140   23.2860 C   0  0  0  0  0  0  0  0  0  0  0  0
    9.6440   11.7900   23.1700 C   0  0  0  0  0  0  0  0  0  0  0  0
 10  8  1  0
  9  8  2  0
  7  8  1  6
  7  4  1  0
  4  3  1  0
  3  2  1  0
  2  1  2  0
  5  2  1  0
 11  5  1  0
 12 11  1  0
 12 20  1  0
 20 19  2  0
 19 18  1  0
 18 17  2  0
 17 16  1  0
 16 15  2  0
 15 14  1  0
 14 13  1  0
 13 12  2  0
 17 13  1  0
  6  5  1  0
  7  6  1  0
M  END
$$$$
