A71EV2A-x4420_A_201_1_A71EV2A-x0911+A+147+1__LIG
     RDKit          3D

 21 23  0  0  0  0  0  0  0  0999 V2000
    9.2330    9.8690   23.3890 Cl  0  0  0  0  0  0  0  0  0  0  0  0
    8.4750   11.2370   24.1510 C   0  0  0  0  0  0  0  0  0  0  0  0
    8.9550   12.5030   23.8620 C   0  0  0  0  0  0  0  0  0  0  0  0
    7.3840   11.0350   25.0040 C   0  0  0  0  0  0  0  0  0  0  0  0
    6.7480   12.1800   25.5310 C   0  0  0  0  0  0  0  0  0  0  0  0
    5.6880   11.8420   26.3060 N   0  0  0  0  0  0  0  0  0  0  0  0
    5.6900   10.4880   26.2710 N   0  0  0  0  0  0  0  0  0  0  0  0
    6.6490    9.9400   25.5380 C   0  0  0  0  0  0  0  0  0  0  0  0
    7.2390   13.4700   25.2390 C   0  0  0  0  0  0  0  0  0  0  0  0
    8.3540   13.6300   24.4220 C   0  0  0  0  0  0  0  0  0  0  0  0
    8.9380   15.0100   24.2210 C   0  0  0  0  0  0  0  0  0  0  0  0
   10.1170   15.0640   23.3540 N   0  0  0  0  0  0  0  0  0  0  0  0
   11.3560   14.9890   23.9160 C   0  0  0  0  0  0  0  0  0  0  0  0
   11.5290   14.9230   25.1290 O   0  0  0  0  0  0  0  0  0  0  0  0
   12.5430   15.0420   22.9900 C   0  0  0  0  0  0  0  0  0  0  0  0
   12.2440   15.5850   21.5930 C   0  0  0  0  0  0  0  0  0  0  0  0
    9.7890   15.3150   21.9460 C   0  0  0  0  0  0  0  0  0  0  0  0
   10.9600   14.9750   21.0130 C   0  0  1  0  0  0  0  0  0  0  0  0
   10.7410   15.4240   19.5770 C   0  0  0  0  0  0  0  0  0  0  0  0
   10.2200   16.5120   19.3230 O   0  0  0  0  0  0  0  0  0  0  0  0
   11.1660   14.5920   18.6340 N   0  0  0  0  0  0  0  0  0  0  0  0
 21 19  1  0
 20 19  2  0
 18 19  1  6
 18 16  1  0
 16 15  1  0
 15 13  1  0
 14 13  2  0
 13 12  1  0
 12 11  1  0
 11 10  1  0
 10  3  1  0
  3  2  2  0
  2  1  1  0
  4  2  1  0
  4  8  2  0
  8  7  1  0
  7  6  1  0
  6  5  2  0
  5  4  1  0
  9  5  1  0
 10  9  2  0
 17 12  1  0
 18 17  1  0
M  END
$$$$
