A71EV2A-x4809_A_201_1_A71EV2A-x0911+A+147+1__LIG
     RDKit          3D

 20 21  0  0  0  0  0  0  0  0999 V2000
    7.8840   13.5220   23.2610 O   0  0  0  0  0  0  0  0  0  0  0  0
    8.8260   13.8500   23.9460 C   0  0  0  0  0  0  0  0  0  0  0  0
    9.6660   14.8380   23.5560 N   0  0  0  0  0  0  0  0  0  0  0  0
    9.3640   15.4630   22.2710 C   0  0  0  0  0  0  0  0  0  0  0  0
   10.4820   15.1360   21.2940 C   0  0  1  0  0  0  0  0  0  0  0  0
   10.1800   15.6630   19.8940 C   0  0  0  0  0  0  0  0  0  0  0  0
   11.2940   15.3130   18.9340 C   0  0  0  0  0  0  0  0  0  0  0  0
   11.0550   15.8700   17.6340 O   0  0  0  0  0  0  0  0  0  0  0  0
   11.7880   15.6920   21.8400 C   0  0  0  0  0  0  0  0  0  0  0  0
   12.0700   15.2010   23.2570 C   0  0  0  0  0  0  0  0  0  0  0  0
   10.8810   15.3810   24.1570 C   0  0  0  0  0  0  0  0  0  0  0  0
    9.0520   13.1310   25.2640 C   0  0  0  0  0  0  0  0  0  0  0  0
    8.0500   12.0160   25.4890 C   0  0  0  0  0  0  0  0  0  0  0  0
    8.1490   10.7680   24.8590 C   0  0  0  0  0  0  0  0  0  0  0  0
    9.5460   10.5580   23.8150 S   0  0  0  0  0  0  0  0  0  0  0  0
    9.5310    8.7470   23.4490 C   0  0  0  0  0  0  0  0  0  0  0  0
    6.9520   12.2340   26.3080 C   0  0  0  0  0  0  0  0  0  0  0  0
    5.9720   11.2690   26.4700 C   0  0  0  0  0  0  0  0  0  0  0  0
    6.0800   10.0570   25.8440 C   0  0  0  0  0  0  0  0  0  0  0  0
    7.1720    9.7930   25.0400 C   0  0  0  0  0  0  0  0  0  0  0  0
 16 15  1  0
 15 14  1  0
 14 20  2  0
 20 19  1  0
 19 18  2  0
 18 17  1  0
 17 13  2  0
 14 13  1  0
 13 12  1  0
 12  2  1  0
  2  1  2  0
  3  2  1  0
  3 11  1  0
 11 10  1  0
 10  9  1  0
  9  5  1  0
  5  6  1  6
  7  6  1  0
  8  7  1  0
  5  4  1  0
  4  3  1  0
M  END
$$$$
