A71EV2A-x3194_A_201_1_A71EV2A-x0911+A+147+1__LIG
     RDKit          3D

 19 20  0  0  0  0  0  0  0  0999 V2000
   10.4080   16.6580   19.1920 O   0  0  0  0  0  0  0  0  0  0  0  0
   10.7760   15.5040   19.4290 C   0  0  0  0  0  0  0  0  0  0  0  0
   11.1690   14.6690   18.4810 N   0  0  0  0  0  0  0  0  0  0  0  0
   10.7930   14.9600   20.8500 C   0  0  1  0  0  0  0  0  0  0  0  0
   11.9130   15.6040   21.6900 C   0  0  0  0  0  0  0  0  0  0  0  0
   11.8730   15.1260   23.1450 C   0  0  0  0  0  0  0  0  0  0  0  0
   10.4820   15.3340   23.7450 C   0  0  0  0  0  0  0  0  0  0  0  0
    9.4470   15.2410   21.5240 C   0  0  0  0  0  0  0  0  0  0  0  0
    9.4510   14.7170   22.8950 N   0  0  0  0  0  0  0  0  0  0  0  0
    8.5850   13.7510   23.2750 C   0  0  0  0  0  0  0  0  0  0  0  0
    7.7520   13.2810   22.5050 O   0  0  0  0  0  0  0  0  0  0  0  0
    8.6930   13.2480   24.7040 C   0  0  0  0  0  0  0  0  0  0  0  0
    8.4450   11.7560   24.7740 C   0  0  0  0  0  0  0  0  0  0  0  0
    9.1610   10.8810   23.9680 C   0  0  0  0  0  0  0  0  0  0  0  0
    7.4630   11.2210   25.5850 C   0  0  0  0  0  0  0  0  0  0  0  0
    7.2240    9.8600   25.5450 C   0  0  0  0  0  0  0  0  0  0  0  0
    7.9210    9.0110   24.7740 N   0  0  0  0  0  0  0  0  0  0  0  0
    8.8830    9.5230   23.9850 C   0  0  0  0  0  0  0  0  0  0  0  0
    9.6290    8.5660   23.1090 C   0  0  0  0  0  0  0  0  0  0  0  0
 19 18  1  0
 18 14  2  0
 14 13  1  0
 13 12  1  0
 12 10  1  0
 11 10  2  0
 10  9  1  0
  9  7  1  0
  7  6  1  0
  6  5  1  0
  5  4  1  0
  4  2  1  6
  3  2  1  0
  2  1  2  0
  8  4  1  0
  9  8  1  0
 15 13  2  0
 16 15  1  0
 17 16  2  0
 18 17  1  0
M  END
$$$$
