XX01ZVNS2B-x5002_B_203_5_XX01ZVNS2B-x4590+B+203+1__LIG
     RDKit          3D

 26 30  0  0  0  0  0  0  0  0999 V2000
   -9.6620    3.8360  -17.6360 F   0  0  0  0  0  0  0  0  0  0  0  0
   -8.5840    4.2520  -16.9280 C   0  0  0  0  0  0  0  0  0  0  0  0
   -8.6350    4.2800  -15.5530 C   0  0  0  0  0  0  0  0  0  0  0  0
   -7.4600    4.6270  -17.6350 C   0  0  0  0  0  0  0  0  0  0  0  0
   -6.3190    5.0560  -16.9330 C   0  0  0  0  0  0  0  0  0  0  0  0
   -5.3270    5.4000  -17.9200 C   0  0  0  0  0  0  0  0  0  0  0  0
   -3.9680    5.9780  -17.6380 C   0  0  0  0  0  0  0  0  0  0  0  0
   -2.8060    4.9700  -17.8120 C   0  0  0  0  0  0  0  0  0  0  0  0
   -2.3400    5.7130  -19.0050 N   0  0  0  0  0  0  0  0  0  0  0  0
   -3.3660    6.7670  -18.8280 C   0  0  0  0  0  0  0  0  0  0  0  0
   -5.8950    5.1540  -19.1370 C   0  0  0  0  0  0  0  0  0  0  0  0
   -7.1760    4.6900  -18.9780 N   0  0  0  0  0  0  0  0  0  0  0  0
   -6.3500    5.0750  -15.5360 C   0  0  0  0  0  0  0  0  0  0  0  0
   -7.5030    4.6920  -14.8450 C   0  0  0  0  0  0  0  0  0  0  0  0
   -7.4230    4.7590  -13.3500 C   0  0  0  0  0  0  0  0  0  0  0  0
   -6.5670    5.4470  -12.7970 O   0  0  0  0  0  0  0  0  0  0  0  0
   -8.3300    4.0220  -12.6610 N   0  0  0  0  0  0  0  0  0  0  0  0
   -8.4400    3.9650  -11.2410 C   0  0  0  0  0  0  0  0  0  0  0  0
   -8.6520    2.7570  -10.5760 C   0  0  0  0  0  0  0  0  0  0  0  0
   -8.7550    2.7290   -9.1850 C   0  0  0  0  0  0  0  0  0  0  0  0
   -9.0460    1.5800   -8.2640 C   0  0  0  0  0  0  0  0  0  0  0  0
   -8.7640    2.1590   -6.9450 N   0  0  0  0  0  0  0  0  0  0  0  0
   -8.7800    3.6270   -6.9910 C   0  0  0  0  0  0  0  0  0  0  0  0
   -8.6270    3.9050   -8.4580 C   0  0  0  0  0  0  0  0  0  0  0  0
   -8.4030    5.1080   -9.1190 C   0  0  0  0  0  0  0  0  0  0  0  0
   -8.3110    5.1400  -10.5030 C   0  0  0  0  0  0  0  0  0  0  0  0
 16 15  2  0
 17 15  1  0
 18 17  1  0
 18 26  2  0
 26 25  1  0
 25 24  2  0
 24 20  1  0
 20 19  2  0
 19 18  1  0
 21 20  1  0
 22 21  1  0
 23 22  1  0
 24 23  1  0
 15 14  1  0
 14  3  1  0
  3  2  2  0
  2  1  1  0
  4  2  1  0
  4 12  1  0
 12 11  1  0
 11  6  2  0
  7  6  1  0
  7 10  1  0
 10  9  1  0
  9  8  1  0
  8  7  1  0
  6  5  1  0
  5  4  2  0
 13  5  1  0
 14 13  2  0
M  END
$$$$
