A71EV2A-x3483_A_201_1_A71EV2A-x0911+A+147+1__LIG
     RDKit          3D

 21 22  0  0  0  0  0  0  0  0999 V2000
   10.5050   16.7310   19.1360 O   0  0  0  0  0  0  0  0  0  0  0  0
   10.7960   15.5560   19.4080 C   0  0  0  0  0  0  0  0  0  0  0  0
   11.0860   14.6520   18.4880 N   0  0  0  0  0  0  0  0  0  0  0  0
   10.8210   15.0650   20.8460 C   0  0  1  0  0  0  0  0  0  0  0  0
   11.9330   15.7500   21.6650 C   0  0  0  0  0  0  0  0  0  0  0  0
   11.7570   15.5880   23.1810 C   0  0  0  0  0  0  0  0  0  0  0  0
   10.7630   14.5040   23.5050 C   0  0  0  0  0  0  0  0  0  0  0  0
    9.4610   15.2900   21.5130 C   0  0  0  0  0  0  0  0  0  0  0  0
    9.4520   14.7540   22.8810 N   0  0  0  0  0  0  0  0  0  0  0  0
    8.5050   13.8340   23.2280 C   0  0  0  0  0  0  0  0  0  0  0  0
    7.7480   13.3480   22.4020 O   0  0  0  0  0  0  0  0  0  0  0  0
    8.3450   13.6210   24.5600 N   0  0  0  0  0  0  0  0  0  0  0  0
    7.5030   12.6440   25.1340 C   0  0  0  0  0  0  0  0  0  0  0  0
    6.3600   12.9690   25.8660 C   0  0  0  0  0  0  0  0  0  0  0  0
    5.6440   11.9660   26.5040 C   0  0  0  0  0  0  0  0  0  0  0  0
    6.0450   10.6600   26.4030 C   0  0  0  0  0  0  0  0  0  0  0  0
    7.1580   10.3280   25.6530 C   0  0  0  0  0  0  0  0  0  0  0  0
    7.9060   11.3070   25.0090 C   0  0  0  0  0  0  0  0  0  0  0  0
    9.1070   10.8790   24.2040 C   0  0  0  0  0  0  0  0  0  0  0  0
    9.3270    9.5030   24.3720 O   0  0  0  0  0  0  0  0  0  0  0  0
    9.7120    8.8970   23.1680 C   0  0  0  0  0  0  0  0  0  0  0  0
 21 20  1  0
 20 19  1  0
 19 18  1  0
 18 17  1  0
 17 16  2  0
 16 15  1  0
 15 14  2  0
 14 13  1  0
 18 13  2  0
 13 12  1  0
 12 10  1  0
 11 10  2  0
 10  9  1  0
  9  7  1  0
  7  6  1  0
  6  5  1  0
  5  4  1  0
  4  2  1  6
  3  2  1  0
  2  1  2  0
  8  4  1  0
  9  8  1  0
M  END
$$$$
