XX01ZVNS2B-x5229_B_203_6_XX01ZVNS2B-x4590+B+203+1__LIG
     RDKit          3D

 28 32  0  0  0  0  0  0  0  0999 V2000
  -10.2520    3.9660  -17.6510 F   0  0  0  0  0  0  0  0  0  0  0  0
   -9.0580    4.2580  -17.0600 C   0  0  0  0  0  0  0  0  0  0  0  0
   -9.0030    4.3120  -15.6830 C   0  0  0  0  0  0  0  0  0  0  0  0
   -7.9760    4.5070  -17.8710 C   0  0  0  0  0  0  0  0  0  0  0  0
   -6.7620    4.8370  -17.2720 C   0  0  0  0  0  0  0  0  0  0  0  0
   -5.5410    5.0040  -18.1050 C   0  0  0  0  0  0  0  0  0  0  0  0
   -4.1580    5.2070  -17.6740 C   0  0  0  0  0  0  0  0  0  0  0  0
   -3.5130    5.2860  -16.4380 C   0  0  0  0  0  0  0  0  0  0  0  0
   -2.1450    5.5120  -16.3840 C   0  0  0  0  0  0  0  0  0  0  0  0
   -1.4030    5.6550  -17.5490 C   0  0  0  0  0  0  0  0  0  0  0  0
   -2.0120    5.5590  -18.7940 C   0  0  0  0  0  0  0  0  0  0  0  0
   -3.3820    5.3300  -18.8450 C   0  0  0  0  0  0  0  0  0  0  0  0
   -4.2260    5.1880  -19.9260 N   0  0  0  0  0  0  0  0  0  0  0  0
   -5.5100    4.9980  -19.4760 C   0  0  0  0  0  0  0  0  0  0  0  0
   -6.6810    4.9240  -15.8790 C   0  0  0  0  0  0  0  0  0  0  0  0
   -7.7950    4.6560  -15.0840 C   0  0  0  0  0  0  0  0  0  0  0  0
   -7.6520    4.7730  -13.5960 C   0  0  0  0  0  0  0  0  0  0  0  0
   -6.7780    5.4850  -13.1010 O   0  0  0  0  0  0  0  0  0  0  0  0
   -8.5290    4.0530  -12.8460 N   0  0  0  0  0  0  0  0  0  0  0  0
   -8.5950    4.0520  -11.4190 C   0  0  0  0  0  0  0  0  0  0  0  0
   -8.8670    2.8750  -10.7210 C   0  0  0  0  0  0  0  0  0  0  0  0
   -8.8970    2.8690   -9.3200 C   0  0  0  0  0  0  0  0  0  0  0  0
   -9.1220    1.7350   -8.3610 C   0  0  0  0  0  0  0  0  0  0  0  0
   -8.7480    2.3240   -7.0580 N   0  0  0  0  0  0  0  0  0  0  0  0
   -8.7330    3.7980   -7.1380 C   0  0  0  0  0  0  0  0  0  0  0  0
   -8.6680    4.0470   -8.6180 C   0  0  0  0  0  0  0  0  0  0  0  0
   -8.4100    5.2250   -9.3140 C   0  0  0  0  0  0  0  0  0  0  0  0
   -8.3650    5.2280  -10.7050 C   0  0  0  0  0  0  0  0  0  0  0  0
 18 17  2  0
 19 17  1  0
 20 19  1  0
 20 28  2  0
 28 27  1  0
 27 26  2  0
 26 22  1  0
 22 21  2  0
 21 20  1  0
 23 22  1  0
 24 23  1  0
 25 24  1  0
 26 25  1  0
 17 16  1  0
 16  3  1  0
  3  2  2  0
  2  1  1  0
  4  2  1  0
  5  4  2  0
  6  5  1  0
  6 14  2  0
 14 13  1  0
 13 12  1  0
 12 11  1  0
 11 10  2  0
 10  9  1  0
  9  8  2  0
  8  7  1  0
  7  6  1  0
 12  7  2  0
 15  5  1  0
 16 15  2  0
M  END
$$$$
