A71EV2A-x5182_A_201_3_A71EV2A-x0911+A+147+1__LIG
     RDKit          3D

 21 22  0  0  0  0  0  0  0  0999 V2000
   10.2530   16.5290   19.0810 O   0  0  0  0  0  0  0  0  0  0  0  0
   10.6830   15.3980   19.3300 C   0  0  0  0  0  0  0  0  0  0  0  0
   11.0850   14.5590   18.3890 N   0  0  0  0  0  0  0  0  0  0  0  0
   10.6570   14.8440   20.7410 C   0  0  1  0  0  0  0  0  0  0  0  0
   11.7430   15.4440   21.6530 C   0  0  0  0  0  0  0  0  0  0  0  0
   11.7120   14.7470   23.0210 C   0  0  0  0  0  0  0  0  0  0  0  0
   10.3160   14.8400   23.6290 C   0  0  0  0  0  0  0  0  0  0  0  0
    9.2920   15.0490   21.3980 C   0  0  0  0  0  0  0  0  0  0  0  0
    9.2930   14.3320   22.6880 N   0  0  0  0  0  0  0  0  0  0  0  0
    7.8070   14.1540   23.3090 S   0  0  0  0  0  0  0  0  0  0  0  0
    7.2990   15.4540   23.6390 O   0  0  0  0  0  0  0  0  0  0  0  0
    7.0340   13.3640   22.4060 O   0  0  0  0  0  0  0  0  0  0  0  0
    8.1330   13.3290   24.6790 N   0  0  0  0  0  0  0  0  0  0  0  0
    7.4290   12.1510   25.0400 C   0  0  0  0  0  0  0  0  0  0  0  0
    7.8250   10.8880   24.5870 C   0  0  0  0  0  0  0  0  0  0  0  0
    9.1800   10.7610   23.4600 S   0  0  0  0  0  0  0  0  0  0  0  0
    9.4560    8.9920   23.3400 C   0  0  0  0  0  0  0  0  0  0  0  0
    6.3500   12.2090   25.9190 C   0  0  0  0  0  0  0  0  0  0  0  0
    5.6820   11.1360   26.3470 N   0  0  0  0  0  0  0  0  0  0  0  0
    6.0920    9.9460   25.9120 C   0  0  0  0  0  0  0  0  0  0  0  0
    7.1440    9.7620   25.0340 C   0  0  0  0  0  0  0  0  0  0  0  0
 17 16  1  0
 16 15  1  0
 15 21  2  0
 21 20  1  0
 20 19  2  0
 19 18  1  0
 18 14  2  0
 15 14  1  0
 14 13  1  0
 13 10  1  0
 11 10  2  0
 12 10  2  0
 10  9  1  0
  9  7  1  0
  7  6  1  0
  6  5  1  0
  5  4  1  0
  4  2  1  6
  3  2  1  0
  2  1  2  0
  8  4  1  0
  9  8  1  0
M  END
$$$$
