A71EV2A-x4977_A_201_1_A71EV2A-x0911+A+147+1__LIG
     RDKit          3D

 24 26  0  0  0  0  0  0  0  0999 V2000
   10.2790   16.6640   19.1560 O   0  0  0  0  0  0  0  0  0  0  0  0
   10.6740   15.5200   19.4120 C   0  0  0  0  0  0  0  0  0  0  0  0
   11.0320   14.6680   18.4720 N   0  0  0  0  0  0  0  0  0  0  0  0
   10.6310   14.9720   20.8300 C   0  0  1  0  0  0  0  0  0  0  0  0
   11.7750   15.5470   21.6850 C   0  0  0  0  0  0  0  0  0  0  0  0
   11.6950   15.0170   23.1240 C   0  0  0  0  0  0  0  0  0  0  0  0
   10.3140   15.2970   23.7200 C   0  0  0  0  0  0  0  0  0  0  0  0
    9.2710   15.2800   21.4790 C   0  0  0  0  0  0  0  0  0  0  0  0
    9.2330   14.7790   22.8560 N   0  0  0  0  0  0  0  0  0  0  0  0
    8.3550   13.7760   23.1950 C   0  0  0  0  0  0  0  0  0  0  0  0
    7.5280   13.3490   22.4030 O   0  0  0  0  0  0  0  0  0  0  0  0
    8.4030   13.3390   24.4820 N   0  0  0  0  0  0  0  0  0  0  0  0
    7.5820   12.2610   24.9360 C   0  0  0  0  0  0  0  0  0  0  0  0
    7.9270   10.9340   24.6310 C   0  0  0  0  0  0  0  0  0  0  0  0
    9.3700   10.6780   23.6380 S   0  0  0  0  0  0  0  0  0  0  0  0
    9.3980    8.9000   23.4030 C   0  0  0  0  0  0  0  0  0  0  0  0
    6.4140   12.5360   25.7150 C   0  0  0  0  0  0  0  0  0  0  0  0
    5.6510   11.4450   26.2000 C   0  0  0  0  0  0  0  0  0  0  0  0
    6.0470   10.1230   25.8800 C   0  0  0  0  0  0  0  0  0  0  0  0
    7.1470    9.8770   25.1030 C   0  0  0  0  0  0  0  0  0  0  0  0
    5.9400   13.8370   26.0070 C   0  0  0  0  0  0  0  0  0  0  0  0
    4.7860   14.0000   26.7230 C   0  0  0  0  0  0  0  0  0  0  0  0
    4.1110   12.8730   27.1690 C   0  0  0  0  0  0  0  0  0  0  0  0
    4.5080   11.6250   26.9470 N   0  0  0  0  0  0  0  0  0  0  0  0
 16 15  1  0
 15 14  1  0
 14 20  2  0
 20 19  1  0
 19 18  2  0
 18 24  1  0
 24 23  2  0
 23 22  1  0
 22 21  2  0
 21 17  1  0
 18 17  1  0
 17 13  2  0
 14 13  1  0
 13 12  1  0
 12 10  1  0
 11 10  2  0
 10  9  1  0
  9  7  1  0
  7  6  1  0
  6  5  1  0
  5  4  1  0
  4  2  1  6
  3  2  1  0
  2  1  2  0
  8  4  1  0
  9  8  1  0
M  END
$$$$
