A71EV2A-x5247_A_201_2_A71EV2A-x0911+A+147+1__LIG
     RDKit          3D

 22 23  0  0  0  0  0  0  0  0999 V2000
   10.1770   16.8800   19.0080 O   0  0  0  0  0  0  0  0  0  0  0  0
   10.5640   15.8030   19.4690 C   0  0  0  0  0  0  0  0  0  0  0  0
   10.9160   14.7810   18.6870 N   0  0  0  0  0  0  0  0  0  0  0  0
   10.5710   15.5510   20.9670 C   0  0  1  0  0  0  0  0  0  0  0  0
    9.4540   14.5660   21.2860 C   0  0  0  0  0  0  0  0  0  0  0  0
   11.9510   15.0920   21.4860 C   0  0  0  0  0  0  0  0  0  0  0  0
   11.8220   14.1850   22.7170 C   0  0  0  0  0  0  0  0  0  0  0  0
   10.5640   14.4660   23.5380 C   0  0  1  0  0  0  0  0  0  0  0  0
   10.5650   15.8270   24.2330 C   0  0  0  0  0  0  0  0  0  0  0  0
    9.3450   14.2590   22.7220 N   0  0  0  0  0  0  0  0  0  0  0  0
    8.1940   13.6930   23.1650 C   0  0  0  0  0  0  0  0  0  0  0  0
    7.3120   13.3690   22.3840 O   0  0  0  0  0  0  0  0  0  0  0  0
    8.0450   13.4500   24.6570 C   0  0  0  0  0  0  0  0  0  0  0  0
    7.2550   12.1950   24.9560 C   0  0  0  0  0  0  0  0  0  0  0  0
    7.7190   10.9000   24.6760 C   0  0  0  0  0  0  0  0  0  0  0  0
    9.1890   10.7400   23.7040 S   0  0  0  0  0  0  0  0  0  0  0  0
    9.3410    8.9850   23.4250 C   0  0  0  0  0  0  0  0  0  0  0  0
    6.0540   12.3410   25.6540 C   0  0  0  0  0  0  0  0  0  0  0  0
    5.3670   11.2270   26.0910 C   0  0  0  0  0  0  0  0  0  0  0  0
    3.7320   11.4660   27.0400 Br  0  0  0  0  0  0  0  0  0  0  0  0
    5.8270    9.9510   25.8390 C   0  0  0  0  0  0  0  0  0  0  0  0
    7.0100    9.7890   25.1310 C   0  0  0  0  0  0  0  0  0  0  0  0
 17 16  1  0
 16 15  1  0
 15 22  2  0
 22 21  1  0
 21 19  2  0
 20 19  1  0
 19 18  1  0
 18 14  2  0
 15 14  1  0
 14 13  1  0
 13 11  1  0
 12 11  2  0
 11 10  1  0
 10  5  1  0
  5  4  1  0
  4  2  1  6
  3  2  1  0
  2  1  2  0
  6  4  1  0
  7  6  1  0
  8  7  1  0
 10  8  1  0
  8  9  1  6
M  END
$$$$
