XX01ZVNS2B-x3689_B_203_5_XX01ZVNS2B-x4590+B+203+1__LIG
     RDKit          3D

 30 34  0  0  0  0  0  0  0  0999 V2000
  -10.4200    3.7650  -17.6830 F   0  0  0  0  0  0  0  0  0  0  0  0
   -9.2040    4.0740  -17.1520 C   0  0  0  0  0  0  0  0  0  0  0  0
   -9.0950    4.1880  -15.7830 C   0  0  0  0  0  0  0  0  0  0  0  0
   -8.1640    4.2890  -18.0200 C   0  0  0  0  0  0  0  0  0  0  0  0
   -6.9470    4.6710  -17.4680 C   0  0  0  0  0  0  0  0  0  0  0  0
   -6.7700    4.8320  -16.0810 C   0  0  0  0  0  0  0  0  0  0  0  0
   -5.4210    5.2380  -15.9460 C   0  0  0  0  0  0  0  0  0  0  0  0
   -4.8200    5.3180  -17.1160 N   0  0  0  0  0  0  0  0  0  0  0  0
   -5.7550    4.9650  -18.0450 N   0  0  0  0  0  0  0  0  0  0  0  0
   -7.8660    4.5740  -15.2380 C   0  0  0  0  0  0  0  0  0  0  0  0
   -7.7110    4.7320  -13.7510 C   0  0  0  0  0  0  0  0  0  0  0  0
   -6.8500    5.4800  -13.2970 O   0  0  0  0  0  0  0  0  0  0  0  0
   -8.5360    3.9960  -12.9640 N   0  0  0  0  0  0  0  0  0  0  0  0
   -8.5670    4.0040  -11.5410 C   0  0  0  0  0  0  0  0  0  0  0  0
   -8.3630    5.1980  -10.8520 C   0  0  0  0  0  0  0  0  0  0  0  0
   -8.8240    2.8420  -10.8220 C   0  0  0  0  0  0  0  0  0  0  0  0
   -8.9030    2.8790   -9.4320 C   0  0  0  0  0  0  0  0  0  0  0  0
   -9.2490    1.7790   -8.4710 C   0  0  0  0  0  0  0  0  0  0  0  0
   -8.9020    2.3900   -7.1990 N   0  0  0  0  0  0  0  0  0  0  0  0
   -8.7770    3.8410   -7.2640 C   0  0  0  0  0  0  0  0  0  0  0  0
   -8.6900    4.0680   -8.7450 C   0  0  0  0  0  0  0  0  0  0  0  0
   -8.4120    5.2560   -9.4570 C   0  0  0  0  0  0  0  0  0  0  0  0
   -8.0820    6.5540   -8.8010 C   0  0  0  0  0  0  0  0  0  0  0  0
   -8.7030    6.9570   -7.6230 C   0  0  0  0  0  0  0  0  0  0  0  0
   -7.0710    7.3610   -9.2980 C   0  0  0  0  0  0  0  0  0  0  0  0
   -6.7040    8.4880   -8.5930 C   0  0  0  0  0  0  0  0  0  0  0  0
   -7.2650    8.8670   -7.4360 N   0  0  0  0  0  0  0  0  0  0  0  0
   -8.2400    8.1010   -6.9860 C   0  0  0  0  0  0  0  0  0  0  0  0
   -8.8440    8.4420   -5.8310 O   0  0  0  0  0  0  0  0  0  0  0  0
   -8.3830    7.8180   -4.6290 C   0  0  0  0  0  0  0  0  0  0  0  0
 30 29  1  0
 29 28  1  0
 28 24  2  0
 24 23  1  0
 23 22  1  0
 22 15  2  0
 15 14  1  0
 14 13  1  0
 13 11  1  0
 12 11  2  0
 11 10  1  0
 10  3  1  0
  3  2  2  0
  2  1  1  0
  4  2  1  0
  5  4  2  0
  5  9  1  0
  9  8  1  0
  8  7  2  0
  7  6  1  0
 10  6  2  0
  6  5  1  0
 16 14  2  0
 17 16  1  0
 17 21  2  0
 22 21  1  0
 21 20  1  0
 20 19  1  0
 19 18  1  0
 18 17  1  0
 25 23  2  0
 26 25  1  0
 27 26  2  0
 28 27  1  0
M  END
$$$$
