A71EV2A-x5131_A_201_4_A71EV2A-x0911+A+147+1__LIG
     RDKit          3D

 21 23  0  0  0  0  0  0  0  0999 V2000
   10.5560   16.5790   19.1240 O   0  0  0  0  0  0  0  0  0  0  0  0
   10.8910   15.4470   19.4760 C   0  0  0  0  0  0  0  0  0  0  0  0
   11.2270   14.5060   18.6140 N   0  0  0  0  0  0  0  0  0  0  0  0
   10.9430   15.0620   20.9460 C   0  0  2  0  0  0  0  0  0  0  0  0
    9.5420   14.9850   21.5700 C   0  0  0  0  0  0  0  0  0  0  0  0
   11.8140   16.0460   21.7410 C   0  0  0  0  0  0  0  0  0  0  0  0
   11.7770   15.7630   23.2490 C   0  0  1  0  0  0  0  0  0  0  0  0
   10.6390   14.9980   23.8430 C   0  0  2  0  0  0  0  0  0  0  0  0
   11.9980   14.3740   23.7720 C   0  0  0  0  0  0  0  0  0  0  0  0
    9.5750   14.4770   22.9520 N   0  0  0  0  0  0  0  0  0  0  0  0
    8.5820   13.6640   23.4190 C   0  0  0  0  0  0  0  0  0  0  0  0
    7.6680   13.3010   22.6900 O   0  0  0  0  0  0  0  0  0  0  0  0
    8.5970   13.2800   24.8890 C   0  0  0  0  0  0  0  0  0  0  0  0
    7.7690   12.0510   25.2000 C   0  0  0  0  0  0  0  0  0  0  0  0
    8.0460   10.7740   24.6840 C   0  0  0  0  0  0  0  0  0  0  0  0
    9.4010   10.5730   23.5660 S   0  0  0  0  0  0  0  0  0  0  0  0
    9.4600    8.8050   23.2810 C   0  0  0  0  0  0  0  0  0  0  0  0
    6.7150   12.1790   26.1020 C   0  0  0  0  0  0  0  0  0  0  0  0
    5.9680   11.0840   26.4960 C   0  0  0  0  0  0  0  0  0  0  0  0
    6.2430    9.8400   25.9810 C   0  0  0  0  0  0  0  0  0  0  0  0
    7.2740    9.6780   25.0700 C   0  0  0  0  0  0  0  0  0  0  0  0
 17 16  1  0
 16 15  1  0
 15 21  2  0
 21 20  1  0
 20 19  2  0
 19 18  1  0
 18 14  2  0
 15 14  1  0
 14 13  1  0
 13 11  1  0
 12 11  2  0
 11 10  1  0
 10  5  1  0
  5  4  1  0
  4  2  1  6
  3  2  1  0
  2  1  2  0
  6  4  1  0
  7  6  1  6
  7  9  1  0
  8  9  1  6
  8  7  1  0
 10  8  1  0
M  END
$$$$
