A71EV2A-x3858_A_201_1_A71EV2A-x0911+A+147+1__LIG
     RDKit          3D

 21 22  0  0  0  0  0  0  0  0999 V2000
   10.1450   16.8860   19.0250 O   0  0  0  0  0  0  0  0  0  0  0  0
   10.5260   15.8250   19.4980 C   0  0  0  0  0  0  0  0  0  0  0  0
   10.8800   14.7860   18.7230 N   0  0  0  0  0  0  0  0  0  0  0  0
   10.5850   15.6400   21.0040 C   0  0  2  0  0  0  0  0  0  0  0  0
   12.0150   15.6020   21.5360 C   0  0  0  0  0  0  0  0  0  0  0  0
   11.9980   15.4030   23.0480 C   0  0  0  0  0  0  0  0  0  0  0  0
   11.1680   14.1860   23.4360 C   0  0  0  0  0  0  0  0  0  0  0  0
    9.7320   14.4510   21.3970 C   0  0  0  0  0  0  0  0  0  0  0  0
    9.8170   14.1600   22.8320 N   0  0  0  0  0  0  0  0  0  0  0  0
    8.7290   13.5430   23.3520 C   0  0  0  0  0  0  0  0  0  0  0  0
    7.7050   13.3210   22.6960 O   0  0  0  0  0  0  0  0  0  0  0  0
    8.9000   13.0040   24.7530 C   0  0  0  0  0  0  0  0  0  0  0  0
    7.7850   12.0310   25.0540 C   0  0  0  0  0  0  0  0  0  0  0  0
    7.8940   10.6990   24.6230 C   0  0  0  0  0  0  0  0  0  0  0  0
    8.9380   10.4500   23.7590 O   0  0  0  0  0  0  0  0  0  0  0  0
    9.1800    9.0860   23.3550 C   0  0  0  0  0  0  0  0  0  0  0  0
    6.7000   12.3630   25.8720 C   0  0  0  0  0  0  0  0  0  0  0  0
    6.3750   14.0150   26.3080 Cl  0  0  0  0  0  0  0  0  0  0  0  0
    5.8170   11.4150   26.3310 C   0  0  0  0  0  0  0  0  0  0  0  0
    5.9780   10.1030   25.9390 C   0  0  0  0  0  0  0  0  0  0  0  0
    7.0110    9.7370   25.0760 C   0  0  0  0  0  0  0  0  0  0  0  0
 16 15  1  0
 15 14  1  0
 14 21  2  0
 21 20  1  0
 20 19  2  0
 19 17  1  0
 18 17  1  0
 17 13  2  0
 14 13  1  0
 13 12  1  0
 12 10  1  0
 11 10  2  0
 10  9  1  0
  9  7  1  0
  7  6  1  0
  6  5  1  0
  5  4  1  0
  4  2  1  6
  3  2  1  0
  2  1  2  0
  8  4  1  0
  9  8  1  0
M  END
$$$$
