A71EV2A-x4516_A_201_3_A71EV2A-x0911+A+147+1__LIG
     RDKit          3D

 20 21  0  0  0  0  0  0  0  0999 V2000
    9.4150   10.2790   23.3220 Cl  0  0  0  0  0  0  0  0  0  0  0  0
    8.3120   10.7650   24.5320 C   0  0  0  0  0  0  0  0  0  0  0  0
    7.2130    9.6610   25.2210 S   0  0  0  0  0  0  0  0  0  0  0  0
    6.5440   10.7930   26.2480 N   0  0  0  0  0  0  0  0  0  0  0  0
    7.1370   11.9710   26.0650 C   0  0  0  0  0  0  0  0  0  0  0  0
    8.1550   11.9980   25.1020 C   0  0  0  0  0  0  0  0  0  0  0  0
    8.9790   13.2470   24.8290 C   0  0  0  0  0  0  0  0  0  0  0  0
    8.5930   14.2600   25.6690 F   0  0  0  0  0  0  0  0  0  0  0  0
   10.2960   13.0090   25.1150 F   0  0  0  0  0  0  0  0  0  0  0  0
    8.8430   13.7000   23.3490 C   0  0  0  0  0  0  0  0  0  0  0  0
    7.9460   13.1910   22.7000 O   0  0  0  0  0  0  0  0  0  0  0  0
    9.6230   14.6690   22.8210 N   0  0  0  0  0  0  0  0  0  0  0  0
   10.5560   15.4920   23.6090 C   0  0  0  0  0  0  0  0  0  0  0  0
   11.9220   15.5300   22.9640 C   0  0  0  0  0  0  0  0  0  0  0  0
   11.8190   16.0000   21.5130 C   0  0  0  0  0  0  0  0  0  0  0  0
    9.4870   15.0900   21.4200 C   0  0  0  0  0  0  0  0  0  0  0  0
   10.8430   15.1340   20.7020 C   0  0  1  0  0  0  0  0  0  0  0  0
   10.7580   15.6270   19.2650 C   0  0  0  0  0  0  0  0  0  0  0  0
   10.5070   16.8070   19.0090 O   0  0  0  0  0  0  0  0  0  0  0  0
   11.0280   14.7380   18.3270 N   0  0  0  0  0  0  0  0  0  0  0  0
 20 18  1  0
 19 18  2  0
 17 18  1  6
 17 15  1  0
 15 14  1  0
 14 13  1  0
 13 12  1  0
 12 10  1  0
 11 10  2  0
 10  7  1  0
  8  7  1  0
  9  7  1  0
  7  6  1  0
  6  5  1  0
  5  4  2  0
  4  3  1  0
  3  2  1  0
  6  2  2  0
  2  1  1  0
 16 12  1  0
 17 16  1  0
M  END
$$$$
