XX01ZVNS2B-x1320_B_301_1_XX01ZVNS2B-x4590+B+203+1__LIG
     RDKit          3D

 23 25  0  0  0  0  0  0  0  0999 V2000
   -1.7040    7.4030  -13.9710 C   0  0  0  0  0  0  0  0  0  0  0  0
   -2.0020    7.2490  -15.3690 O   0  0  0  0  0  0  0  0  0  0  0  0
   -3.2070    6.7270  -15.7110 C   0  0  0  0  0  0  0  0  0  0  0  0
   -4.0320    7.4500  -16.5760 C   0  0  0  0  0  0  0  0  0  0  0  0
   -5.2470    6.9010  -16.9070 C   0  0  0  0  0  0  0  0  0  0  0  0
   -5.6420    5.6710  -16.3830 C   0  0  0  0  0  0  0  0  0  0  0  0
   -6.9560    5.0460  -16.7440 C   0  0  0  0  0  0  0  0  0  0  0  0
   -7.1590    4.6220  -18.0620 C   0  0  0  0  0  0  0  0  0  0  0  0
   -8.3340    4.0130  -18.4580 C   0  0  0  0  0  0  0  0  0  0  0  0
   -9.3390    3.7980  -17.5430 C   0  0  0  0  0  0  0  0  0  0  0  0
   -9.1690    4.1890  -16.2320 C   0  0  0  0  0  0  0  0  0  0  0  0
   -7.9850    4.8050  -15.8090 C   0  0  0  0  0  0  0  0  0  0  0  0
   -7.9260    5.2080  -14.3630 C   0  0  0  0  0  0  0  0  0  0  0  0
   -7.6320    6.3510  -14.0490 O   0  0  0  0  0  0  0  0  0  0  0  0
   -8.2400    4.2550  -13.4360 N   0  0  0  0  0  0  0  0  0  0  0  0
   -8.1830    4.4350  -12.0420 C   0  0  0  0  0  0  0  0  0  0  0  0
   -8.3420    3.4560  -11.0500 C   0  0  0  0  0  0  0  0  0  0  0  0
   -8.2320    3.9610   -9.8300 N   0  0  0  0  0  0  0  0  0  0  0  0
   -7.9960    5.2970  -10.0250 N   0  0  0  0  0  0  0  0  0  0  0  0
   -7.8230    6.1910   -8.8840 C   0  0  0  0  0  0  0  0  0  0  0  0
   -7.9600    5.6190  -11.3380 C   0  0  0  0  0  0  0  0  0  0  0  0
   -4.7300    5.0340  -15.5420 C   0  0  0  0  0  0  0  0  0  0  0  0
   -3.5290    5.5510  -15.1970 N   0  0  0  0  0  0  0  0  0  0  0  0
  1  2  1  0
  2  3  1  0
  3  4  2  0
  4  5  1  0
  5  6  2  0
  6  7  1  0
  7  8  2  0
  8  9  1  0
  9 10  2  0
 10 11  1  0
 11 12  2  0
 12 13  1  0
 13 14  2  0
 13 15  1  0
 15 16  1  0
 16 17  1  0
 17 18  2  0
 18 19  1  0
 19 20  1  0
 19 21  1  0
  6 22  1  0
 22 23  2  0
  3 23  1  0
  7 12  1  0
 16 21  2  0
M  END
$$$$
