A71EV2A-x4949_A_201_1_A71EV2A-x0911+A+147+1__LIG
     RDKit          3D

 25 27  0  0  0  0  0  0  0  0999 V2000
    3.6850    8.8950   28.0860 O   0  0  0  0  0  0  0  0  0  0  0  0
    4.6090    9.6570   27.8320 C   0  0  0  0  0  0  0  0  0  0  0  0
    5.4370    9.4330   26.7890 N   0  0  0  0  0  0  0  0  0  0  0  0
    6.3540   10.3670   26.3110 C   0  0  0  0  0  0  0  0  0  0  0  0
    7.3550    9.9730   25.4210 C   0  0  0  0  0  0  0  0  0  0  0  0
    4.8050   10.9460   28.5790 C   0  0  0  0  0  0  0  0  0  0  0  0
    5.1470   12.1070   27.6670 C   0  0  0  0  0  0  0  0  0  0  0  0
    6.1800   11.7170   26.6390 C   0  0  0  0  0  0  0  0  0  0  0  0
    6.9740   12.6670   26.0130 C   0  0  0  0  0  0  0  0  0  0  0  0
    7.9580   12.2970   25.0980 C   0  0  0  0  0  0  0  0  0  0  0  0
    8.1610   10.9340   24.8140 C   0  0  0  0  0  0  0  0  0  0  0  0
    9.4820   10.5130   23.7150 S   0  0  0  0  0  0  0  0  0  0  0  0
    9.2530    8.7560   23.4270 C   0  0  0  0  0  0  0  0  0  0  0  0
    8.7590   13.2830   24.4960 N   0  0  0  0  0  0  0  0  0  0  0  0
    8.6340   13.7390   23.2250 C   0  0  0  0  0  0  0  0  0  0  0  0
    7.7720   13.3300   22.4620 O   0  0  0  0  0  0  0  0  0  0  0  0
    9.5140   14.7130   22.8510 N   0  0  0  0  0  0  0  0  0  0  0  0
    9.4870   15.2580   21.4910 C   0  0  0  0  0  0  0  0  0  0  0  0
   10.8090   14.9430   20.7810 C   0  0  1  0  0  0  0  0  0  0  0  0
   10.8020   15.4840   19.3610 C   0  0  0  0  0  0  0  0  0  0  0  0
   10.6290   16.6820   19.1330 O   0  0  0  0  0  0  0  0  0  0  0  0
   10.9340   14.5950   18.4010 N   0  0  0  0  0  0  0  0  0  0  0  0
   11.9620   15.5350   21.6120 C   0  0  0  0  0  0  0  0  0  0  0  0
   11.9340   15.0410   23.0750 C   0  0  0  0  0  0  0  0  0  0  0  0
   10.5720   15.2790   23.7010 C   0  0  0  0  0  0  0  0  0  0  0  0
 13 12  1  0
 12 11  1  0
 11  5  1  0
  5  4  2  0
  4  8  1  0
  9  8  2  0
 10  9  1  0
 11 10  2  0
 14 10  1  0
 15 14  1  0
 16 15  2  0
 17 15  1  0
 17 25  1  0
 25 24  1  0
 24 23  1  0
 23 19  1  0
 19 20  1  6
 22 20  1  0
 21 20  2  0
 19 18  1  0
 18 17  1  0
  8  7  1  0
  7  6  1  0
  6  2  1  0
  2  1  2  0
  3  2  1  0
  4  3  1  0
M  END
$$$$
