XX01ZVNS2B-x4469_B_203_1_XX01ZVNS2B-x4590+B+203+1__LIG
     RDKit          3D

 29 33  0  0  0  0  0  0  0  0999 V2000
  -10.0510    3.9200  -17.8990 Cl  0  0  0  0  0  0  0  0  0  0  0  0
   -8.6200    4.3200  -17.0000 C   0  0  0  0  0  0  0  0  0  0  0  0
   -8.6560    4.3270  -15.6150 C   0  0  0  0  0  0  0  0  0  0  0  0
   -7.4430    4.6130  -17.6830 C   0  0  0  0  0  0  0  0  0  0  0  0
   -6.2760    4.9120  -16.9610 C   0  0  0  0  0  0  0  0  0  0  0  0
   -5.2790    5.1260  -17.9720 C   0  0  0  0  0  0  0  0  0  0  0  0
   -3.8100    5.3950  -17.7680 C   0  0  0  0  0  0  0  0  0  0  0  0
   -3.5290    6.8150  -17.2900 C   0  0  0  0  0  0  0  0  0  0  0  0
   -4.0100    7.8560  -18.3070 C   0  0  0  0  0  0  0  0  0  0  0  0
   -3.7440    9.2620  -17.7910 C   0  0  0  0  0  0  0  0  0  0  0  0
   -2.3100    9.4520  -17.4770 N   0  0  0  0  0  0  0  0  0  0  0  0
   -1.8320    8.4510  -16.4910 C   0  0  0  0  0  0  0  0  0  0  0  0
   -2.0430    7.0300  -16.9960 C   0  0  0  0  0  0  0  0  0  0  0  0
   -5.7990    5.0070  -19.1660 N   0  0  0  0  0  0  0  0  0  0  0  0
   -7.1190    4.6860  -18.9940 N   0  0  0  0  0  0  0  0  0  0  0  0
   -6.3220    4.9390  -15.5650 C   0  0  0  0  0  0  0  0  0  0  0  0
   -7.5040    4.6400  -14.8910 C   0  0  0  0  0  0  0  0  0  0  0  0
   -7.4370    4.6960  -13.3990 C   0  0  0  0  0  0  0  0  0  0  0  0
   -6.5610    5.3490  -12.8350 O   0  0  0  0  0  0  0  0  0  0  0  0
   -8.3750    3.9840  -12.7320 N   0  0  0  0  0  0  0  0  0  0  0  0
   -8.5030    3.8910  -11.3220 C   0  0  0  0  0  0  0  0  0  0  0  0
   -8.7380    2.6880  -10.6540 C   0  0  0  0  0  0  0  0  0  0  0  0
   -8.8260    2.6670   -9.2620 C   0  0  0  0  0  0  0  0  0  0  0  0
   -9.1180    1.5320   -8.3240 C   0  0  0  0  0  0  0  0  0  0  0  0
   -8.8100    2.1180   -7.0260 N   0  0  0  0  0  0  0  0  0  0  0  0
   -8.7870    3.5760   -7.0700 C   0  0  0  0  0  0  0  0  0  0  0  0
   -8.6680    3.8460   -8.5430 C   0  0  0  0  0  0  0  0  0  0  0  0
   -8.4330    5.0420   -9.2120 C   0  0  0  0  0  0  0  0  0  0  0  0
   -8.3530    5.0660  -10.5910 C   0  0  0  0  0  0  0  0  0  0  0  0
 19 18  2  0
 20 18  1  0
 21 20  1  0
 21 29  2  0
 29 28  1  0
 28 27  2  0
 27 23  1  0
 23 22  2  0
 22 21  1  0
 24 23  1  0
 25 24  1  0
 26 25  1  0
 27 26  1  0
 18 17  1  0
 17  3  1  0
  3  2  2  0
  2  1  1  0
  4  2  1  0
  4 15  1  0
 15 14  1  0
 14  6  2  0
  7  6  1  0
  8  7  1  0
  8 13  1  0
 13 12  1  0
 12 11  1  0
 11 10  1  0
 10  9  1  0
  9  8  1  0
  6  5  1  0
  5  4  2  0
 16  5  1  0
 17 16  2  0
M  END
$$$$
