XX01ZVNS2B-x3754_B_203_1_XX01ZVNS2B-x4590+B+203+1__LIG
     RDKit          3D

 29 31  0  0  0  0  0  0  0  0999 V2000
   -2.5610    2.2280  -13.7170 F   0  0  0  0  0  0  0  0  0  0  0  0
   -3.8890    2.4970  -13.8230 C   0  0  0  0  0  0  0  0  0  0  0  0
   -3.9700    3.7480  -14.3500 F   0  0  0  0  0  0  0  0  0  0  0  0
   -4.5290    2.4950  -12.3800 C   0  0  0  0  0  0  0  0  0  0  0  0
   -5.7970    3.2080  -12.4250 N   0  0  0  0  0  0  0  0  0  0  0  0
   -6.8510    2.7520  -13.0990 C   0  0  0  0  0  0  0  0  0  0  0  0
   -6.9600    1.5860  -13.4750 O   0  0  0  0  0  0  0  0  0  0  0  0
   -7.9770    3.7970  -13.3450 C   0  0  2  0  0  0  0  0  0  0  0  0
   -7.8510    4.3400  -14.7640 C   0  0  0  0  0  0  0  0  0  0  0  0
   -8.8660    4.1150  -15.6890 C   0  0  0  0  0  0  0  0  0  0  0  0
   -8.6630    4.4460  -17.0170 C   0  0  0  0  0  0  0  0  0  0  0  0
  -10.0460    4.1240  -18.2770 Br  0  0  0  0  0  0  0  0  0  0  0  0
   -7.4850    5.0130  -17.4530 C   0  0  0  0  0  0  0  0  0  0  0  0
   -6.6720    4.9440  -15.1890 C   0  0  0  0  0  0  0  0  0  0  0  0
   -6.4820    5.2810  -16.5270 C   0  0  0  0  0  0  0  0  0  0  0  0
   -5.2310    5.9420  -17.0140 C   0  0  0  0  0  0  0  0  0  0  0  0
   -4.5970    6.7040  -16.2880 O   0  0  0  0  0  0  0  0  0  0  0  0
   -4.8660    5.6910  -18.2700 N   0  0  0  0  0  0  0  0  0  0  0  0
   -3.8400    6.4660  -18.9420 C   0  0  0  0  0  0  0  0  0  0  0  0
   -8.0810    4.8230  -12.3240 N   0  0  0  0  0  0  0  0  0  0  0  0
   -8.3110    4.5830  -10.9610 C   0  0  0  0  0  0  0  0  0  0  0  0
   -8.6470    3.3170  -10.4760 C   0  0  0  0  0  0  0  0  0  0  0  0
   -8.7950    3.1060   -9.1060 C   0  0  0  0  0  0  0  0  0  0  0  0
   -9.1110    1.8420   -8.3630 C   0  0  0  0  0  0  0  0  0  0  0  0
   -8.9190    2.2430   -6.9700 N   0  0  0  0  0  0  0  0  0  0  0  0
   -8.8290    3.6940   -6.8080 C   0  0  0  0  0  0  0  0  0  0  0  0
   -8.6280    4.1580   -8.2190 C   0  0  0  0  0  0  0  0  0  0  0  0
   -8.3190    5.4240   -8.7050 C   0  0  0  0  0  0  0  0  0  0  0  0
   -8.1580    5.6360  -10.0640 C   0  0  0  0  0  0  0  0  0  0  0  0
 19 18  1  0
 18 16  1  0
 17 16  2  0
 16 15  1  0
 15 13  2  0
 13 11  1  0
 12 11  1  0
 11 10  2  0
 10  9  1  0
  9  8  1  0
  8 20  1  1
 21 20  1  0
 21 29  2  0
 29 28  1  0
 28 27  2  0
 27 23  1  0
 23 22  2  0
 22 21  1  0
 24 23  1  0
 25 24  1  0
 26 25  1  0
 27 26  1  0
  8  6  1  0
  7  6  2  0
  6  5  1  0
  5  4  1  0
  4  2  1  0
  3  2  1  0
  2  1  1  0
 14  9  2  0
 15 14  1  0
M  END
$$$$
