XX01ZVNS2B-x4498_B_203_1_XX01ZVNS2B-x4590+B+203+1__LIG
     RDKit          3D

 27 31  0  0  0  0  0  0  0  0999 V2000
   -9.7400    3.7640  -17.9090 Cl  0  0  0  0  0  0  0  0  0  0  0  0
   -8.4030    4.3380  -16.9660 C   0  0  0  0  0  0  0  0  0  0  0  0
   -8.4850    4.3390  -15.5850 C   0  0  0  0  0  0  0  0  0  0  0  0
   -7.2260    4.7150  -17.6090 C   0  0  0  0  0  0  0  0  0  0  0  0
   -6.0960    5.0520  -16.8480 C   0  0  0  0  0  0  0  0  0  0  0  0
   -5.0720    5.2920  -17.8200 C   0  0  0  0  0  0  0  0  0  0  0  0
   -3.6010    5.4390  -17.5350 C   0  0  0  0  0  0  0  0  0  0  0  0
   -2.9730    6.6900  -18.1120 C   0  0  0  0  0  0  0  0  0  0  0  0
   -1.6760    7.0070  -17.3280 C   0  0  0  0  0  0  0  0  0  0  0  0
   -0.9290    6.3010  -18.3930 N   0  0  0  0  0  0  0  0  0  0  0  0
   -2.0720    6.3770  -19.3330 C   0  0  0  0  0  0  0  0  0  0  0  0
   -5.5480    5.1770  -19.0340 N   0  0  0  0  0  0  0  0  0  0  0  0
   -6.8610    4.8160  -18.9090 N   0  0  0  0  0  0  0  0  0  0  0  0
   -6.1870    5.0590  -15.4580 C   0  0  0  0  0  0  0  0  0  0  0  0
   -7.3770    4.7140  -14.8250 C   0  0  0  0  0  0  0  0  0  0  0  0
   -7.3430    4.8360  -13.3370 C   0  0  0  0  0  0  0  0  0  0  0  0
   -6.5670    5.6210  -12.7950 O   0  0  0  0  0  0  0  0  0  0  0  0
   -8.2030    4.0400  -12.6540 N   0  0  0  0  0  0  0  0  0  0  0  0
   -8.3900    4.0080  -11.2520 C   0  0  0  0  0  0  0  0  0  0  0  0
   -8.6740    2.8120  -10.5990 C   0  0  0  0  0  0  0  0  0  0  0  0
   -8.8070    2.7830   -9.2110 C   0  0  0  0  0  0  0  0  0  0  0  0
   -9.1430    1.6420   -8.2970 C   0  0  0  0  0  0  0  0  0  0  0  0
   -8.7900    2.2140   -7.0020 N   0  0  0  0  0  0  0  0  0  0  0  0
   -8.7940    3.6720   -7.0110 C   0  0  0  0  0  0  0  0  0  0  0  0
   -8.6480    3.9520   -8.4790 C   0  0  0  0  0  0  0  0  0  0  0  0
   -8.3810    5.1480   -9.1330 C   0  0  0  0  0  0  0  0  0  0  0  0
   -8.2560    5.1790  -10.5100 C   0  0  0  0  0  0  0  0  0  0  0  0
 17 16  2  0
 18 16  1  0
 19 18  1  0
 19 27  2  0
 27 26  1  0
 26 25  2  0
 25 21  1  0
 21 20  2  0
 20 19  1  0
 22 21  1  0
 23 22  1  0
 24 23  1  0
 25 24  1  0
 16 15  1  0
 15  3  1  0
  3  2  2  0
  2  1  1  0
  4  2  1  0
  4 13  1  0
 13 12  1  0
 12  6  2  0
  7  6  1  0
  8  7  1  0
  8 11  1  0
 11 10  1  0
 10  9  1  0
  9  8  1  0
  6  5  1  0
  5  4  2  0
 14  5  1  0
 15 14  2  0
M  END
$$$$
