A71EV2A-x4883_C_201_1_A71EV2A-x0911+A+147+1__LIG
     RDKit          3D

 20 21  0  0  0  0  0  0  0  0999 V2000
   10.3360   16.6070   19.2800 O   0  0  0  0  0  0  0  0  0  0  0  0
   10.7300   15.4440   19.4970 C   0  0  0  0  0  0  0  0  0  0  0  0
   11.1020   14.5910   18.5380 N   0  0  0  0  0  0  0  0  0  0  0  0
   10.7840   14.8900   20.9090 C   0  0  1  0  0  0  0  0  0  0  0  0
   11.9520   15.5060   21.7050 C   0  0  0  0  0  0  0  0  0  0  0  0
   12.0160   14.9250   23.1150 C   0  0  0  0  0  0  0  0  0  0  0  0
   10.6760   15.1110   23.8390 C   0  0  0  0  0  0  0  0  0  0  0  0
    9.4770   15.1570   21.6660 C   0  0  0  0  0  0  0  0  0  0  0  0
    9.5630   14.5950   23.0170 N   0  0  0  0  0  0  0  0  0  0  0  0
    8.7050   13.5870   23.3690 C   0  0  0  0  0  0  0  0  0  0  0  0
    7.8480   13.1680   22.5970 O   0  0  0  0  0  0  0  0  0  0  0  0
    8.8060   13.1340   24.6480 N   0  0  0  0  0  0  0  0  0  0  0  0
    8.0200   12.0460   25.1240 C   0  0  0  0  0  0  0  0  0  0  0  0
    8.2770   10.7510   24.6490 C   0  0  0  0  0  0  0  0  0  0  0  0
    9.6190   10.5350   23.5340 S   0  0  0  0  0  0  0  0  0  0  0  0
    9.6700    8.7310   23.3230 C   0  0  0  0  0  0  0  0  0  0  0  0
    7.0070   12.2100   26.0650 C   0  0  0  0  0  0  0  0  0  0  0  0
    6.3100   11.0940   26.4950 C   0  0  0  0  0  0  0  0  0  0  0  0
    6.6270    9.8710   25.9640 C   0  0  0  0  0  0  0  0  0  0  0  0
    7.5940    9.6740   25.0510 N   0  0  0  0  0  0  0  0  0  0  0  0
 16 15  1  0
 15 14  1  0
 14 20  2  0
 20 19  1  0
 19 18  2  0
 18 17  1  0
 17 13  2  0
 14 13  1  0
 13 12  1  0
 12 10  1  0
 11 10  2  0
 10  9  1  0
  9  7  1  0
  7  6  1  0
  6  5  1  0
  5  4  1  0
  4  2  1  6
  3  2  1  0
  2  1  2  0
  8  4  1  0
  9  8  1  0
M  END
$$$$
