A71EV2A-x5594_C_201_5_A71EV2A-x0911+A+147+1__LIG
     RDKit          3D

 20 21  0  0  0  0  0  0  0  0999 V2000
   10.4610   16.5880   19.2490 O   0  0  0  0  0  0  0  0  0  0  0  0
   10.8420   15.4270   19.4750 C   0  0  0  0  0  0  0  0  0  0  0  0
   11.1150   14.5640   18.5020 N   0  0  0  0  0  0  0  0  0  0  0  0
   10.9110   14.8790   20.8910 C   0  0  1  0  0  0  0  0  0  0  0  0
   11.9620   15.5970   21.7630 C   0  0  0  0  0  0  0  0  0  0  0  0
   11.9460   15.0250   23.1980 C   0  0  0  0  0  0  0  0  0  0  0  0
   10.5440   15.1240   23.8010 C   0  0  0  0  0  0  0  0  0  0  0  0
    9.5320   15.0440   21.5330 C   0  0  0  0  0  0  0  0  0  0  0  0
    9.5550   14.5100   22.9000 N   0  0  0  0  0  0  0  0  0  0  0  0
    8.6030   13.6470   23.3060 C   0  0  0  0  0  0  0  0  0  0  0  0
    7.7070   13.2290   22.6160 O   0  0  0  0  0  0  0  0  0  0  0  0
    8.7250   13.3820   24.6480 O   0  0  0  0  0  0  0  0  0  0  0  0
    7.8400   12.4280   25.1690 C   0  0  0  0  0  0  0  0  0  0  0  0
    8.0300   11.0730   24.8580 C   0  0  0  0  0  0  0  0  0  0  0  0
    9.1090   10.6510   23.9990 C   0  0  0  0  0  0  0  0  0  0  0  0
    9.9650   10.3500   23.3010 N   0  0  0  0  0  0  0  0  0  0  0  0
    6.8120   12.7750   26.0250 C   0  0  0  0  0  0  0  0  0  0  0  0
    5.9910   11.8720   26.5870 N   0  0  0  0  0  0  0  0  0  0  0  0
    6.1760   10.5860   26.2720 C   0  0  0  0  0  0  0  0  0  0  0  0
    7.1610   10.1430   25.4220 C   0  0  0  0  0  0  0  0  0  0  0  0
 16 15  3  0
 15 14  1  0
 14 20  2  0
 20 19  1  0
 19 18  2  0
 18 17  1  0
 17 13  2  0
 14 13  1  0
 13 12  1  0
 12 10  1  0
 11 10  2  0
 10  9  1  0
  9  7  1  0
  7  6  1  0
  6  5  1  0
  5  4  1  0
  4  2  1  6
  3  2  1  0
  2  1  2  0
  8  4  1  0
  9  8  1  0
M  END
$$$$
