A71EV2A-x3066_E_301_1_A71EV2A-x0911+A+147+1__LIG
     RDKit          3D

 14 15  0  0  0  0  0  0  0  0999 V2000
   11.0310   14.0620   24.4790 O   0  0  0  0  0  0  0  0  0  0  0  0
   10.8820   13.2880   23.5340 C   0  0  0  0  0  0  0  0  0  0  0  0
   11.4910   13.4660   22.3690 N   0  0  0  0  0  0  0  0  0  0  0  0
   12.4080   14.5740   22.1450 C   0  0  0  0  0  0  0  0  0  0  0  0
   10.0580   12.0720   23.6730 C   0  0  0  0  0  0  0  0  0  0  0  0
    8.9440   11.8670   24.5670 C   0  0  0  0  0  0  0  0  0  0  0  0
    8.5660   10.5200   24.4390 C   0  0  0  0  0  0  0  0  0  0  0  0
    9.3940    9.9330   23.5030 N   0  0  0  0  0  0  0  0  0  0  0  0
    9.3820    8.5320   23.1040 C   0  0  0  0  0  0  0  0  0  0  0  0
   10.2710   10.8760   23.0480 C   0  0  0  0  0  0  0  0  0  0  0  0
    8.2380   12.6890   25.4500 C   0  0  0  0  0  0  0  0  0  0  0  0
    7.1860   12.1600   26.1790 C   0  0  0  0  0  0  0  0  0  0  0  0
    6.8330   10.8180   26.0450 C   0  0  0  0  0  0  0  0  0  0  0  0
    7.5190    9.9820   25.1740 C   0  0  0  0  0  0  0  0  0  0  0  0
  4  3  1  0
  3  2  1  0
  2  1  2  0
  5  2  1  0
  5 10  2  0
 10  8  1  0
  9  8  1  0
  8  7  1  0
  7 14  2  0
 14 13  1  0
 13 12  2  0
 12 11  1  0
 11  6  2  0
  6  5  1  0
  7  6  1  0
M  END
$$$$
