XX01ZVNS2B-x3808_B_203_5_XX01ZVNS2B-x4590+B+203+1__LIG
     RDKit          3D

 22 25  0  0  0  0  0  0  0  0999 V2000
  -10.2270    3.7150  -17.4850 F   0  0  0  0  0  0  0  0  0  0  0  0
   -9.0400    4.2070  -17.0430 C   0  0  0  0  0  0  0  0  0  0  0  0
   -8.8530    4.3360  -15.6870 C   0  0  0  0  0  0  0  0  0  0  0  0
   -8.0830    4.5130  -17.9750 C   0  0  0  0  0  0  0  0  0  0  0  0
   -6.8580    4.9660  -17.5030 C   0  0  0  0  0  0  0  0  0  0  0  0
   -6.5870    5.1080  -16.1270 C   0  0  0  0  0  0  0  0  0  0  0  0
   -5.2490    5.5670  -16.0790 C   0  0  0  0  0  0  0  0  0  0  0  0
   -4.7400    5.7050  -17.2880 N   0  0  0  0  0  0  0  0  0  0  0  0
   -5.7280    5.3370  -18.1570 N   0  0  0  0  0  0  0  0  0  0  0  0
   -7.6150    4.7870  -15.2180 C   0  0  0  0  0  0  0  0  0  0  0  0
   -7.4160    4.9130  -13.7350 C   0  0  0  0  0  0  0  0  0  0  0  0
   -6.3660    5.3500  -13.2720 O   0  0  0  0  0  0  0  0  0  0  0  0
   -8.4280    4.4520  -12.9610 N   0  0  0  0  0  0  0  0  0  0  0  0
   -8.4320    4.3250  -11.5520 C   0  0  0  0  0  0  0  0  0  0  0  0
   -8.7440    3.1020  -10.9760 C   0  0  0  0  0  0  0  0  0  0  0  0
   -8.7990    2.9850   -9.5920 C   0  0  0  0  0  0  0  0  0  0  0  0
   -9.1590    1.7960   -8.7520 C   0  0  0  0  0  0  0  0  0  0  0  0
   -9.2660    2.3750   -7.4220 N   0  0  0  0  0  0  0  0  0  0  0  0
   -8.7110    3.7260   -7.3840 C   0  0  0  0  0  0  0  0  0  0  0  0
   -8.5150    4.1180   -8.8120 C   0  0  0  0  0  0  0  0  0  0  0  0
   -8.1800    5.2980   -9.3600 N   0  0  0  0  0  0  0  0  0  0  0  0
   -8.1550    5.3860  -10.6970 C   0  0  0  0  0  0  0  0  0  0  0  0
 12 11  2  0
 13 11  1  0
 14 13  1  0
 14 22  2  0
 22 21  1  0
 21 20  2  0
 20 16  1  0
 16 15  2  0
 15 14  1  0
 17 16  1  0
 18 17  1  0
 19 18  1  0
 20 19  1  0
 11 10  1  0
 10  3  1  0
  3  2  2  0
  2  1  1  0
  4  2  1  0
  5  4  2  0
  5  9  1  0
  9  8  1  0
  8  7  2  0
  7  6  1  0
 10  6  2  0
  6  5  1  0
M  END
$$$$
