A71EV2A-x3621_A_201_1_A71EV2A-x0911+A+147+1__LIG
     RDKit          3D

 17 18  0  0  0  0  0  0  0  0999 V2000
    7.8350   13.4490   22.4460 O   0  0  0  0  0  0  0  0  0  0  0  0
    8.9710   13.4150   22.8830 C   0  0  0  0  0  0  0  0  0  0  0  0
    9.9880   14.0370   22.2600 N   0  0  0  0  0  0  0  0  0  0  0  0
    9.7660   14.8320   21.0450 C   0  0  0  0  0  0  0  0  0  0  0  0
   11.1670   15.2970   20.6600 C   0  0  2  0  0  0  0  0  0  0  0  0
   11.7460   14.4070   19.6870 O   0  0  0  0  0  0  0  0  0  0  0  0
   11.9210   15.2980   21.9790 C   0  0  0  0  0  0  0  0  0  0  0  0
   11.3990   14.0530   22.6750 C   0  0  0  0  0  0  0  0  0  0  0  0
    9.3230   12.7430   24.1970 C   0  0  0  0  0  0  0  0  0  0  0  0
    8.2130   11.8840   24.7520 C   0  0  0  0  0  0  0  0  0  0  0  0
    8.2150   10.5170   24.4910 C   0  0  0  0  0  0  0  0  0  0  0  0
    9.1690   10.1170   23.5880 O   0  0  0  0  0  0  0  0  0  0  0  0
    9.3880    8.7300   23.4090 C   0  0  0  0  0  0  0  0  0  0  0  0
    7.2540   12.3900   25.6270 C   0  0  0  0  0  0  0  0  0  0  0  0
    6.3570   11.5490   26.2600 C   0  0  0  0  0  0  0  0  0  0  0  0
    6.3870   10.2020   26.0160 C   0  0  0  0  0  0  0  0  0  0  0  0
    7.3010    9.6770   25.1140 C   0  0  0  0  0  0  0  0  0  0  0  0
 13 12  1  0
 12 11  1  0
 11 17  2  0
 17 16  1  0
 16 15  2  0
 15 14  1  0
 14 10  2  0
 11 10  1  0
 10  9  1  0
  9  2  1  0
  2  1  2  0
  3  2  1  0
  3  8  1  0
  8  7  1  0
  7  5  1  0
  5  6  1  6
  5  4  1  0
  4  3  1  0
M  END
$$$$
