A71EV2A-x5317_A_201_3_A71EV2A-x0911+A+147+1__LIG
     RDKit          3D

 21 22  0  0  0  0  0  0  0  0999 V2000
   10.9080   15.1450   24.4250 O   0  0  0  0  0  0  0  0  0  0  0  0
   10.6360   14.9550   23.2510 C   0  0  0  0  0  0  0  0  0  0  0  0
   11.4210   15.4290   22.0480 C   0  0  0  0  0  0  0  0  0  0  0  0
   10.8370   14.5850   20.9000 C   0  0  2  0  0  0  0  0  0  0  0  0
   10.8340   15.2780   19.5470 C   0  0  0  0  0  0  0  0  0  0  0  0
   10.3520   16.4070   19.4050 O   0  0  0  0  0  0  0  0  0  0  0  0
   11.2360   14.5430   18.5170 N   0  0  0  0  0  0  0  0  0  0  0  0
    9.4170   14.2870   21.3460 C   0  0  0  0  0  0  0  0  0  0  0  0
    9.4980   14.3720   22.8110 N   0  0  0  0  0  0  0  0  0  0  0  0
    8.3580   14.0510   23.6860 C   0  0  1  0  0  0  0  0  0  0  0  0
    7.0400   14.4870   23.0170 C   0  0  0  0  0  0  0  0  0  0  0  0
    6.5580   13.8400   22.0860 O   0  0  0  0  0  0  0  0  0  0  0  0
    6.5230   15.6150   23.4730 N   0  0  0  0  0  0  0  0  0  0  0  0
    5.2690   16.1390   22.9630 C   0  0  0  0  0  0  0  0  0  0  0  0
    8.2940   12.5930   24.1250 C   0  0  0  0  0  0  0  0  0  0  0  0
    9.0300   11.5910   23.5000 C   0  0  0  0  0  0  0  0  0  0  0  0
    8.7770   10.2430   23.7440 C   0  0  0  0  0  0  0  0  0  0  0  0
    9.5980    9.1680   23.0800 C   0  0  0  0  0  0  0  0  0  0  0  0
    7.7760    9.9120   24.6490 C   0  0  0  0  0  0  0  0  0  0  0  0
    7.0700   10.8950   25.3160 C   0  0  0  0  0  0  0  0  0  0  0  0
    7.3230   12.2270   25.0500 C   0  0  0  0  0  0  0  0  0  0  0  0
 14 13  1  0
 13 11  1  0
 12 11  2  0
 11 10  1  0
 15 10  1  0
 15 21  2  0
 21 20  1  0
 20 19  2  0
 19 17  1  0
 18 17  1  0
 17 16  2  0
 16 15  1  0
 10  9  1  6
  9  8  1  0
  8  4  1  0
  4  5  1  6
  7  5  1  0
  6  5  2  0
  4  3  1  0
  3  2  1  0
  9  2  1  0
  2  1  2  0
M  END
$$$$
