A71EV2A-x4018_A_201_1_A71EV2A-x0911+A+147+1__LIG
     RDKit          3D

 21 22  0  0  0  0  0  0  0  0999 V2000
   10.2070   16.6630   19.0200 O   0  0  0  0  0  0  0  0  0  0  0  0
   10.5570   15.5250   19.3440 C   0  0  0  0  0  0  0  0  0  0  0  0
   11.0100   14.6360   18.4760 N   0  0  0  0  0  0  0  0  0  0  0  0
   10.4940   15.0670   20.7920 C   0  0  1  0  0  0  0  0  0  0  0  0
   11.6520   15.7000   21.5690 C   0  0  0  0  0  0  0  0  0  0  0  0
   12.0790   14.9020   22.7850 C   0  0  0  0  0  0  0  0  0  0  0  0
   11.1640   15.0400   23.9800 C   0  0  0  0  0  0  0  0  0  0  0  0
    9.1020   15.3710   21.3640 C   0  0  0  0  0  0  0  0  0  0  0  0
    9.0020   15.6370   22.8670 C   0  0  0  0  0  0  0  0  0  0  0  0
    9.7640   14.6980   23.7060 N   0  0  0  0  0  0  0  0  0  0  0  0
    9.2210   13.6270   24.3190 C   0  0  0  0  0  0  0  0  0  0  0  0
    9.7820   13.0540   25.2460 O   0  0  0  0  0  0  0  0  0  0  0  0
    7.8510   13.1770   23.8610 C   0  0  0  0  0  0  0  0  0  0  0  0
    7.3200   12.1250   24.8050 C   0  0  0  0  0  0  0  0  0  0  0  0
    7.6510   10.7810   24.6200 C   0  0  0  0  0  0  0  0  0  0  0  0
    8.6230   10.5490   23.6840 O   0  0  0  0  0  0  0  0  0  0  0  0
    9.3260    9.3120   23.7300 C   0  0  0  0  0  0  0  0  0  0  0  0
    6.4130   12.4530   25.8090 C   0  0  0  0  0  0  0  0  0  0  0  0
    5.8140   11.4660   26.5700 C   0  0  0  0  0  0  0  0  0  0  0  0
    6.1000   10.1440   26.3310 C   0  0  0  0  0  0  0  0  0  0  0  0
    7.0230    9.7900   25.3570 C   0  0  0  0  0  0  0  0  0  0  0  0
 17 16  1  0
 16 15  1  0
 15 21  2  0
 21 20  1  0
 20 19  2  0
 19 18  1  0
 18 14  2  0
 15 14  1  0
 14 13  1  0
 13 11  1  0
 12 11  2  0
 11 10  1  0
 10  7  1  0
  7  6  1  0
  6  5  1  0
  5  4  1  0
  4  2  1  6
  3  2  1  0
  2  1  2  0
  8  4  1  0
  9  8  1  0
 10  9  1  0
M  END
$$$$
