A71EV2A-x3306_A_201_1_A71EV2A-x0911+A+147+1__LIG
     RDKit          3D

 20 22  0  0  0  0  0  0  0  0999 V2000
   10.0480   14.2310   24.9800 O   0  0  0  0  0  0  0  0  0  0  0  0
   10.4810   13.2960   24.3100 C   0  0  0  0  0  0  0  0  0  0  0  0
    9.7180   11.9870   24.2400 C   0  0  0  0  0  0  0  0  0  0  0  0
   10.1120   10.9750   23.4640 N   0  0  0  0  0  0  0  0  0  0  0  0
    8.5870   11.6090   25.0420 C   0  0  0  0  0  0  0  0  0  0  0  0
    8.3430   10.2730   24.7040 C   0  0  0  0  0  0  0  0  0  0  0  0
    7.3430    9.5350   25.3230 C   0  0  0  0  0  0  0  0  0  0  0  0
    6.5620   10.1610   26.2830 C   0  0  0  0  0  0  0  0  0  0  0  0
    6.7750   11.4890   26.6150 C   0  0  0  0  0  0  0  0  0  0  0  0
    7.7850   12.2190   26.0010 C   0  0  0  0  0  0  0  0  0  0  0  0
    9.2690    9.9280   23.7630 N   0  0  0  0  0  0  0  0  0  0  0  0
    9.4830    8.6270   23.1500 C   0  0  0  0  0  0  0  0  0  0  0  0
   11.6840   13.3090   23.7340 N   0  0  0  0  0  0  0  0  0  0  0  0
   11.8930   13.6090   22.3280 C   0  0  0  0  0  0  0  0  0  0  0  0
   12.1780   15.0780   22.0790 C   0  0  0  0  0  0  0  0  0  0  0  0
   11.2600   15.4540   20.9580 C   0  0  0  0  0  0  0  0  0  0  0  0
   11.4040   14.8820   19.6990 N   0  0  0  0  0  0  0  0  0  0  0  0
   10.4060   15.2020   18.9380 C   0  0  0  0  0  0  0  0  0  0  0  0
    9.2410   16.2270   19.6440 S   0  0  0  0  0  0  0  0  0  0  0  0
   10.1620   16.2420   21.0840 C   0  0  0  0  0  0  0  0  0  0  0  0
 12 11  1  0
 11  4  1  0
  4  3  2  0
  3  2  1  0
  2  1  2  0
 13  2  1  0
 14 13  1  0
 15 14  1  0
 16 15  1  0
 16 20  2  0
 20 19  1  0
 19 18  1  0
 18 17  2  0
 17 16  1  0
  5  3  1  0
  5 10  2  0
 10  9  1  0
  9  8  2  0
  8  7  1  0
  7  6  2  0
  6  5  1  0
 11  6  1  0
M  END
$$$$
