A71EV2A-x2846_E_301_1_A71EV2A-x0911+A+147+1__LIG
     RDKit          3D

 20 22  0  0  0  0  0  0  0  0999 V2000
   10.2800   14.1940   24.6720 O   0  0  0  0  0  0  0  0  0  0  0  0
   10.3520   13.3380   23.7910 C   0  0  0  0  0  0  0  0  0  0  0  0
    9.5840   12.0480   23.9080 C   0  0  0  0  0  0  0  0  0  0  0  0
    9.9420   10.9660   23.2140 N   0  0  0  0  0  0  0  0  0  0  0  0
    8.4760   11.7600   24.7700 C   0  0  0  0  0  0  0  0  0  0  0  0
    8.2090   10.4010   24.5590 C   0  0  0  0  0  0  0  0  0  0  0  0
    7.2280    9.7310   25.2760 C   0  0  0  0  0  0  0  0  0  0  0  0
    6.4980   10.4500   26.2140 C   0  0  0  0  0  0  0  0  0  0  0  0
    6.7430   11.8000   26.4240 C   0  0  0  0  0  0  0  0  0  0  0  0
    7.7230   12.4640   25.7050 C   0  0  0  0  0  0  0  0  0  0  0  0
    9.0920    9.9690   23.6140 N   0  0  0  0  0  0  0  0  0  0  0  0
    9.1980    8.6470   23.0260 C   0  0  0  0  0  0  0  0  0  0  0  0
   11.1030   13.4660   22.6980 N   0  0  0  0  0  0  0  0  0  0  0  0
   12.0910   14.5240   22.5610 C   0  0  0  0  0  0  0  0  0  0  0  0
   12.3860   14.8450   21.1130 C   0  0  0  0  0  0  0  0  0  0  0  0
   11.2600   15.5580   20.4330 C   0  0  0  0  0  0  0  0  0  0  0  0
   10.6040   16.6180   21.0290 N   0  0  0  0  0  0  0  0  0  0  0  0
    9.7260   16.9670   20.1640 C   0  0  0  0  0  0  0  0  0  0  0  0
    9.7250   16.2530   19.0180 O   0  0  0  0  0  0  0  0  0  0  0  0
   10.7290   15.3500   19.2210 C   0  0  0  0  0  0  0  0  0  0  0  0
 12 11  1  0
 11  4  1  0
  4  3  2  0
  3  2  1  0
  2  1  2  0
 13  2  1  0
 14 13  1  0
 15 14  1  0
 16 15  1  0
 16 20  2  0
 20 19  1  0
 19 18  1  0
 18 17  2  0
 17 16  1  0
  5  3  1  0
  5 10  2  0
 10  9  1  0
  9  8  2  0
  8  7  1  0
  7  6  2  0
  6  5  1  0
 11  6  1  0
M  END
$$$$
