A71EV2A-x5449_C_201_5_A71EV2A-x0911+A+147+1__LIG
     RDKit          3D

 24 25  0  0  0  0  0  0  0  0999 V2000
   10.3830   16.6390   19.1520 O   0  0  0  0  0  0  0  0  0  0  0  0
   10.7760   15.4840   19.4010 C   0  0  0  0  0  0  0  0  0  0  0  0
   11.0980   14.6020   18.4470 N   0  0  0  0  0  0  0  0  0  0  0  0
   10.8840   14.9850   20.8320 C   0  0  1  0  0  0  0  0  0  0  0  0
   12.0190   15.6970   21.6050 C   0  0  0  0  0  0  0  0  0  0  0  0
   12.1030   15.1550   23.0420 C   0  0  0  0  0  0  0  0  0  0  0  0
   10.7700   15.3310   23.7420 C   0  0  0  0  0  0  0  0  0  0  0  0
    9.5630   15.1770   21.5870 C   0  0  0  0  0  0  0  0  0  0  0  0
    9.6910   14.6840   22.9630 N   0  0  0  0  0  0  0  0  0  0  0  0
    8.8740   13.7070   23.4200 C   0  0  0  0  0  0  0  0  0  0  0  0
    7.9440   13.2710   22.7370 O   0  0  0  0  0  0  0  0  0  0  0  0
    9.1250   13.2170   24.8410 C   0  0  0  0  0  0  0  0  0  0  0  0
    8.2170   12.0740   25.2560 C   0  0  0  0  0  0  0  0  0  0  0  0
    8.3990   10.7580   24.8010 C   0  0  0  0  0  0  0  0  0  0  0  0
    9.7320   10.4920   23.6690 S   0  0  0  0  0  0  0  0  0  0  0  0
    9.6770    8.6950   23.4080 C   0  0  0  0  0  0  0  0  0  0  0  0
    7.1890   12.3300   26.1730 C   0  0  0  0  0  0  0  0  0  0  0  0
    6.3610   11.3020   26.6100 C   0  0  0  0  0  0  0  0  0  0  0  0
    5.0450   11.6570   27.7520 S   0  0  0  0  0  0  0  0  0  0  0  0
    4.6090   13.0030   27.5190 O   0  0  0  0  0  0  0  0  0  0  0  0
    4.0640   10.6120   27.6410 O   0  0  0  0  0  0  0  0  0  0  0  0
    5.7850   11.5760   29.3410 C   0  0  0  0  0  0  0  0  0  0  0  0
    6.5470   10.0030   26.1570 C   0  0  0  0  0  0  0  0  0  0  0  0
    7.5620    9.7340   25.2480 C   0  0  0  0  0  0  0  0  0  0  0  0
 16 15  1  0
 15 14  1  0
 14 24  2  0
 24 23  1  0
 23 18  2  0
 19 18  1  0
 22 19  1  0
 20 19  2  0
 21 19  2  0
 18 17  1  0
 17 13  2  0
 14 13  1  0
 13 12  1  0
 12 10  1  0
 11 10  2  0
 10  9  1  0
  9  7  1  0
  7  6  1  0
  6  5  1  0
  5  4  1  0
  4  2  1  6
  3  2  1  0
  2  1  2  0
  8  4  1  0
  9  8  1  0
M  END
$$$$
