XX01ZVNS2B-x3545_B_203_1_XX01ZVNS2B-x4590+B+203+1__LIG
     RDKit          3D

 35 39  0  0  0  0  0  0  0  0999 V2000
   -0.3470    7.8560  -12.5870 C   0  0  0  0  0  0  0  0  0  0  0  0
   -1.0210    6.5260  -12.8250 C   0  0  0  0  0  0  0  0  0  0  0  0
   -1.8560    6.3380  -13.9160 C   0  0  0  0  0  0  0  0  0  0  0  0
   -2.4690    5.1230  -14.1590 C   0  0  0  0  0  0  0  0  0  0  0  0
   -2.2320    4.0670  -13.2950 C   0  0  0  0  0  0  0  0  0  0  0  0
   -3.0540    2.5240  -13.5590 S   0  0  0  0  0  0  0  0  0  0  0  0
   -3.2790    1.9000  -12.2870 O   0  0  0  0  0  0  0  0  0  0  0  0
   -2.3680    1.7830  -14.5700 O   0  0  0  0  0  0  0  0  0  0  0  0
   -4.6420    2.9640  -14.2250 C   0  0  0  0  0  0  0  0  0  0  0  0
   -5.5940    2.8290  -13.1350 N   0  0  0  0  0  0  0  0  0  0  0  0
   -6.8970    2.8560  -13.3940 C   0  0  0  0  0  0  0  0  0  0  0  0
   -7.5460    1.8500  -13.6530 O   0  0  0  0  0  0  0  0  0  0  0  0
   -7.5040    4.2710  -13.4640 C   0  0  2  0  0  0  0  0  0  0  0  0
   -8.6810    4.4000  -12.6400 N   0  0  0  0  0  0  0  0  0  0  0  0
   -8.6100    4.3430  -11.2550 C   0  0  0  0  0  0  0  0  0  0  0  0
   -8.2250    5.4770  -10.5300 C   0  0  0  0  0  0  0  0  0  0  0  0
   -8.2340    5.4460   -9.1450 C   0  0  0  0  0  0  0  0  0  0  0  0
   -8.5650    4.2620   -8.4960 C   0  0  0  0  0  0  0  0  0  0  0  0
   -8.9370    3.1340   -9.2150 C   0  0  0  0  0  0  0  0  0  0  0  0
   -8.9190    3.1450  -10.6010 C   0  0  0  0  0  0  0  0  0  0  0  0
   -9.2790    2.0160   -8.2730 C   0  0  0  0  0  0  0  0  0  0  0  0
   -8.7030    2.5030   -7.0100 N   0  0  0  0  0  0  0  0  0  0  0  0
   -8.6800    3.9750   -7.0260 C   0  0  0  0  0  0  0  0  0  0  0  0
   -7.6770    4.7090  -14.9130 C   0  0  0  0  0  0  0  0  0  0  0  0
   -8.6840    4.2170  -15.7430 C   0  0  0  0  0  0  0  0  0  0  0  0
   -8.7250    4.5640  -17.1010 C   0  0  0  0  0  0  0  0  0  0  0  0
  -10.0090    3.9570  -18.1180 Cl  0  0  0  0  0  0  0  0  0  0  0  0
   -7.7790    5.3900  -17.6810 C   0  0  0  0  0  0  0  0  0  0  0  0
   -6.7780    5.8870  -16.8470 C   0  0  0  0  0  0  0  0  0  0  0  0
   -5.7400    6.7210  -17.1000 N   0  0  0  0  0  0  0  0  0  0  0  0
   -4.9890    6.9320  -15.9820 N   0  0  0  0  0  0  0  0  0  0  0  0
   -5.5710    6.2580  -15.0060 C   0  0  0  0  0  0  0  0  0  0  0  0
   -6.7030    5.5540  -15.4840 C   0  0  0  0  0  0  0  0  0  0  0  0
   -1.4160    4.2300  -12.1850 C   0  0  0  0  0  0  0  0  0  0  0  0
   -0.8150    5.4570  -11.9660 C   0  0  0  0  0  0  0  0  0  0  0  0
  1  2  1  0
  2  3  2  0
  3  4  1  0
  4  5  2  0
  5  6  1  0
  6  7  2  0
  6  8  2  0
  6  9  1  0
  9 10  1  0
 10 11  1  0
 11 12  2  0
 11 13  1  0
 13 14  1  6
 14 15  1  0
 15 16  2  0
 16 17  1  0
 17 18  2  0
 18 19  1  0
 19 20  2  0
 19 21  1  0
 21 22  1  0
 22 23  1  0
 13 24  1  0
 24 25  2  0
 25 26  1  0
 26 27  1  0
 26 28  2  0
 28 29  1  0
 29 30  1  0
 30 31  1  0
 31 32  2  0
 32 33  1  0
  5 34  1  0
 34 35  2  0
  2 35  1  0
 15 20  1  0
 24 33  1  0
 18 23  1  0
 29 33  2  0
M  END
$$$$
