A71EV2A-x5339_A_201_2_A71EV2A-x0911+A+147+1__LIG
     RDKit          3D

 22 23  0  0  0  0  0  0  0  0999 V2000
   10.3890   17.0750   18.9950 O   0  0  0  0  0  0  0  0  0  0  0  0
   10.4710   15.9680   19.5360 C   0  0  0  0  0  0  0  0  0  0  0  0
   10.8220   14.8770   18.8640 N   0  0  0  0  0  0  0  0  0  0  0  0
   10.2200   15.8050   21.0260 C   0  0  1  0  0  0  0  0  0  0  0  0
    9.7400   14.4010   21.4130 C   0  0  0  0  0  0  0  0  0  0  0  0
   11.4780   16.1100   21.8370 C   0  0  0  0  0  0  0  0  0  0  0  0
   11.1690   16.0370   23.3340 C   0  0  0  0  0  0  0  0  0  0  0  0
   10.6110   14.6730   23.7460 C   0  0  2  0  0  0  0  0  0  0  0  0
   11.6970   13.6060   23.8130 C   0  0  0  0  0  0  0  0  0  0  0  0
    9.5020   14.2630   22.8570 N   0  0  0  0  0  0  0  0  0  0  0  0
    8.3640   13.6560   23.2880 C   0  0  0  0  0  0  0  0  0  0  0  0
    7.4760   13.3270   22.5060 O   0  0  0  0  0  0  0  0  0  0  0  0
    8.2290   13.3540   24.7690 C   0  0  0  0  0  0  0  0  0  0  0  0
    7.3470   12.1510   25.0230 C   0  0  0  0  0  0  0  0  0  0  0  0
    7.7130   10.8390   24.6860 C   0  0  0  0  0  0  0  0  0  0  0  0
    9.1340   10.6150   23.6520 S   0  0  0  0  0  0  0  0  0  0  0  0
    9.2070    8.8430   23.3920 C   0  0  0  0  0  0  0  0  0  0  0  0
    6.1690   12.3540   25.7450 C   0  0  0  0  0  0  0  0  0  0  0  0
    5.4200   11.2700   26.1540 C   0  0  0  0  0  0  0  0  0  0  0  0
    3.8190   11.5730   27.1300 Br  0  0  0  0  0  0  0  0  0  0  0  0
    5.7930    9.9780   25.8630 C   0  0  0  0  0  0  0  0  0  0  0  0
    6.9450    9.7610   25.1250 C   0  0  0  0  0  0  0  0  0  0  0  0
 17 16  1  0
 16 15  1  0
 15 22  2  0
 22 21  1  0
 21 19  2  0
 20 19  1  0
 19 18  1  0
 18 14  2  0
 15 14  1  0
 14 13  1  0
 13 11  1  0
 12 11  2  0
 11 10  1  0
 10  5  1  0
  5  4  1  0
  4  2  1  6
  3  2  1  0
  2  1  2  0
  6  4  1  0
  7  6  1  0
  8  7  1  0
 10  8  1  0
  8  9  1  6
M  END
$$$$
