XX01ZVNS2B-x4996_B_203_5_XX01ZVNS2B-x4590+B+203+1__LIG
     RDKit          3D

 25 28  0  0  0  0  0  0  0  0999 V2000
   -6.7670    5.7000  -12.8250 O   0  0  0  0  0  0  0  0  0  0  0  0
   -7.5070    4.9120  -13.4140 C   0  0  0  0  0  0  0  0  0  0  0  0
   -7.4040    4.7400  -14.8990 C   0  0  0  0  0  0  0  0  0  0  0  0
   -6.1530    5.0750  -15.4200 C   0  0  0  0  0  0  0  0  0  0  0  0
   -8.4490    4.3800  -15.7610 C   0  0  0  0  0  0  0  0  0  0  0  0
   -8.2750    4.3810  -17.1390 C   0  0  0  0  0  0  0  0  0  0  0  0
   -7.0290    4.7410  -17.6410 C   0  0  0  0  0  0  0  0  0  0  0  0
   -5.9700    5.0850  -16.8020 C   0  0  0  0  0  0  0  0  0  0  0  0
   -4.8590    5.4480  -17.5640 N   0  0  0  0  0  0  0  0  0  0  0  0
   -6.5470    4.8990  -18.9360 N   0  0  0  0  0  0  0  0  0  0  0  0
   -5.2660    5.3380  -18.8160 C   0  0  0  0  0  0  0  0  0  0  0  0
   -4.5540    5.7700  -19.8930 N   0  0  0  0  0  0  0  0  0  0  0  0
   -3.2510    5.2950  -20.3780 C   0  0  0  0  0  0  0  0  0  0  0  0
   -2.2690    5.1050  -19.2480 C   0  0  0  0  0  0  0  0  0  0  0  0
   -2.7210    6.2600  -21.4160 C   0  0  0  0  0  0  0  0  0  0  0  0
   -8.3900    4.1130  -12.7620 N   0  0  0  0  0  0  0  0  0  0  0  0
   -8.5450    4.0490  -11.3490 C   0  0  0  0  0  0  0  0  0  0  0  0
   -8.7250    2.8370  -10.6860 C   0  0  0  0  0  0  0  0  0  0  0  0
   -8.8210    2.8030   -9.2930 C   0  0  0  0  0  0  0  0  0  0  0  0
   -9.1060    1.6490   -8.3770 C   0  0  0  0  0  0  0  0  0  0  0  0
   -8.9210    2.2280   -7.0340 N   0  0  0  0  0  0  0  0  0  0  0  0
   -8.8380    3.6960   -7.0940 C   0  0  0  0  0  0  0  0  0  0  0  0
   -8.7160    3.9800   -8.5630 C   0  0  0  0  0  0  0  0  0  0  0  0
   -8.5310    5.1890   -9.2240 C   0  0  0  0  0  0  0  0  0  0  0  0
   -8.4580    5.2270  -10.6080 C   0  0  0  0  0  0  0  0  0  0  0  0
 15 13  1  0
 14 13  1  0
 13 12  1  0
 12 11  1  0
 11  9  2  0
  9  8  1  0
  8  4  2  0
  4  3  1  0
  3  2  1  0
  2  1  2  0
 16  2  1  0
 17 16  1  0
 17 25  2  0
 25 24  1  0
 24 23  2  0
 23 19  1  0
 19 18  2  0
 18 17  1  0
 20 19  1  0
 21 20  1  0
 22 21  1  0
 23 22  1  0
  5  3  2  0
  6  5  1  0
  7  6  2  0
  8  7  1  0
 10  7  1  0
 11 10  1  0
M  END
$$$$
