XX01ZVNS2B-x3463_B_203_1_XX01ZVNS2B-x4590+B+203+1__LIG
     RDKit          3D

 26 29  0  0  0  0  0  0  0  0999 V2000
   -4.4240    2.0820  -13.2140 C   0  0  0  0  0  0  0  0  0  0  0  0
   -5.4120    3.1410  -13.2110 N   0  0  0  0  0  0  0  0  0  0  0  0
   -6.6490    2.9650  -13.6750 C   0  0  0  0  0  0  0  0  0  0  0  0
   -7.1650    1.8610  -13.8060 O   0  0  0  0  0  0  0  0  0  0  0  0
   -7.3880    4.2670  -14.0580 C   0  0  2  0  0  0  0  0  0  0  0  0
   -8.5940    4.4110  -13.2710 N   0  0  0  0  0  0  0  0  0  0  0  0
   -8.4840    4.6390  -11.9050 C   0  0  0  0  0  0  0  0  0  0  0  0
   -7.9580    5.8580  -11.4570 C   0  0  0  0  0  0  0  0  0  0  0  0
   -7.8060    6.0890  -10.1010 C   0  0  0  0  0  0  0  0  0  0  0  0
   -8.1250    5.0790   -9.2030 C   0  0  0  0  0  0  0  0  0  0  0  0
   -8.5720    3.8490   -9.6530 C   0  0  0  0  0  0  0  0  0  0  0  0
   -8.7460    3.5930  -11.0050 C   0  0  0  0  0  0  0  0  0  0  0  0
   -8.8000    2.9860   -8.4910 C   0  0  0  0  0  0  0  0  0  0  0  0
   -9.1260    1.8280   -8.4190 O   0  0  0  0  0  0  0  0  0  0  0  0
   -8.5900    3.7260   -7.3670 O   0  0  0  0  0  0  0  0  0  0  0  0
   -8.0420    5.0270   -7.7110 C   0  0  0  0  0  0  0  0  0  0  0  0
   -7.6070    4.3770  -15.5620 C   0  0  0  0  0  0  0  0  0  0  0  0
   -8.8440    4.1130  -16.1440 C   0  0  0  0  0  0  0  0  0  0  0  0
   -9.0200    4.2070  -17.5300 C   0  0  0  0  0  0  0  0  0  0  0  0
  -10.5820    3.8600  -18.2300 Cl  0  0  0  0  0  0  0  0  0  0  0  0
   -7.9890    4.5460  -18.3830 C   0  0  0  0  0  0  0  0  0  0  0  0
   -6.7500    4.8020  -17.8050 C   0  0  0  0  0  0  0  0  0  0  0  0
   -5.5720    5.1490  -18.3660 N   0  0  0  0  0  0  0  0  0  0  0  0
   -4.6060    5.3100  -17.4210 N   0  0  0  0  0  0  0  0  0  0  0  0
   -5.1700    5.0520  -16.2540 C   0  0  0  0  0  0  0  0  0  0  0  0
   -6.5380    4.7300  -16.4190 C   0  0  0  0  0  0  0  0  0  0  0  0
  1  2  1  0
  2  3  1  0
  3  4  2  0
  3  5  1  0
  5  6  1  1
  6  7  1  0
  7  8  2  0
  8  9  1  0
  9 10  2  0
 10 11  1  0
 11 12  2  0
 11 13  1  0
 13 14  2  0
 13 15  1  0
 15 16  1  0
  5 17  1  0
 17 18  2  0
 18 19  1  0
 19 20  1  0
 19 21  2  0
 21 22  1  0
 22 23  1  0
 23 24  1  0
 24 25  2  0
 25 26  1  0
  7 12  1  0
 17 26  1  0
 10 16  1  0
 22 26  2  0
M  END
$$$$
