A71EV2A-x5366_C_201_2_A71EV2A-x0911+A+147+1__LIG
     RDKit          3D

 22 23  0  0  0  0  0  0  0  0999 V2000
   10.4120   16.7620   19.2360 O   0  0  0  0  0  0  0  0  0  0  0  0
   10.7860   15.5980   19.4130 C   0  0  0  0  0  0  0  0  0  0  0  0
   11.0030   14.7490   18.4200 N   0  0  0  0  0  0  0  0  0  0  0  0
   10.9200   15.0240   20.8120 C   0  0  2  0  0  0  0  0  0  0  0  0
    9.5970   15.1570   21.5740 C   0  0  0  0  0  0  0  0  0  0  0  0
   12.0410   15.7210   21.6030 C   0  0  0  0  0  0  0  0  0  0  0  0
   12.1360   15.1500   23.0240 C   0  0  0  0  0  0  0  0  0  0  0  0
   10.8010   15.1950   23.7640 C   0  0  1  0  0  0  0  0  0  0  0  0
   10.4500   16.5930   24.2410 C   0  0  0  0  0  0  0  0  0  0  0  0
    9.7190   14.6240   22.9330 N   0  0  0  0  0  0  0  0  0  0  0  0
    8.8300   13.6930   23.3920 C   0  0  0  0  0  0  0  0  0  0  0  0
    7.8780   13.3240   22.7120 O   0  0  0  0  0  0  0  0  0  0  0  0
    9.0100   13.1680   24.8070 C   0  0  0  0  0  0  0  0  0  0  0  0
    8.0610   12.0350   25.1290 C   0  0  0  0  0  0  0  0  0  0  0  0
    8.2640   10.7160   24.6940 C   0  0  0  0  0  0  0  0  0  0  0  0
    9.5750   10.4530   23.5360 S   0  0  0  0  0  0  0  0  0  0  0  0
    9.6450    8.6690   23.3730 C   0  0  0  0  0  0  0  0  0  0  0  0
    7.0120   12.2950   26.0110 C   0  0  0  0  0  0  0  0  0  0  0  0
    6.2170   11.2630   26.4680 C   0  0  0  0  0  0  0  0  0  0  0  0
    4.7920   11.6610   27.6710 Br  0  0  0  0  0  0  0  0  0  0  0  0
    6.4240    9.9610   26.0660 C   0  0  0  0  0  0  0  0  0  0  0  0
    7.4520    9.6860   25.1730 C   0  0  0  0  0  0  0  0  0  0  0  0
 17 16  1  0
 16 15  1  0
 15 22  2  0
 22 21  1  0
 21 19  2  0
 20 19  1  0
 19 18  1  0
 18 14  2  0
 15 14  1  0
 14 13  1  0
 13 11  1  0
 12 11  2  0
 11 10  1  0
 10  5  1  0
  5  4  1  0
  4  2  1  6
  3  2  1  0
  2  1  2  0
  6  4  1  0
  7  6  1  0
  8  7  1  0
 10  8  1  0
  8  9  1  6
M  END
$$$$
