A71EV2A-x4899_C_201_1_A71EV2A-x0911+A+147+1__LIG
     RDKit          3D

 21 22  0  0  0  0  0  0  0  0999 V2000
   10.5250   16.7290   19.2280 O   0  0  0  0  0  0  0  0  0  0  0  0
   10.8850   15.5540   19.4330 C   0  0  0  0  0  0  0  0  0  0  0  0
   11.1340   14.6760   18.4550 N   0  0  0  0  0  0  0  0  0  0  0  0
   10.9500   14.9970   20.8440 C   0  0  1  0  0  0  0  0  0  0  0  0
   11.9170   15.7840   21.7420 C   0  0  0  0  0  0  0  0  0  0  0  0
   11.8860   15.2250   23.1640 C   0  0  0  0  0  0  0  0  0  0  0  0
   10.4630   15.1700   23.7100 C   0  0  0  0  0  0  0  0  0  0  0  0
    9.5240   15.0660   21.3940 C   0  0  0  0  0  0  0  0  0  0  0  0
    9.4640   14.5850   22.7870 N   0  0  0  0  0  0  0  0  0  0  0  0
    8.0580   14.0000   23.3940 S   0  0  0  0  0  0  0  0  0  0  0  0
    7.3590   13.4270   22.2890 O   0  0  0  0  0  0  0  0  0  0  0  0
    7.4740   15.1080   24.0810 O   0  0  0  0  0  0  0  0  0  0  0  0
    8.4320   12.9540   24.5480 N   0  0  0  0  0  0  0  0  0  0  0  0
    8.7070   11.5970   24.2500 C   0  0  0  0  0  0  0  0  0  0  0  0
    7.9880   10.5730   24.8860 C   0  0  0  0  0  0  0  0  0  0  0  0
    7.0890   10.9710   25.8090 O   0  0  0  0  0  0  0  0  0  0  0  0
    6.2220    9.9730   26.3670 C   0  0  0  0  0  0  0  0  0  0  0  0
    9.6860   11.2620   23.3260 C   0  0  0  0  0  0  0  0  0  0  0  0
    9.8720    9.9200   23.0440 C   0  0  0  0  0  0  0  0  0  0  0  0
    9.0900    8.9820   23.6900 C   0  0  0  0  0  0  0  0  0  0  0  0
    8.1670    9.2890   24.6160 N   0  0  0  0  0  0  0  0  0  0  0  0
 17 16  1  0
 16 15  1  0
 15 21  2  0
 21 20  1  0
 20 19  2  0
 19 18  1  0
 18 14  2  0
 15 14  1  0
 14 13  1  0
 13 10  1  0
 11 10  2  0
 12 10  2  0
 10  9  1  0
  9  7  1  0
  7  6  1  0
  6  5  1  0
  5  4  1  0
  4  2  1  6
  3  2  1  0
  2  1  2  0
  8  4  1  0
  9  8  1  0
M  END
$$$$
