A71EV2A-x4644_A_201_1_A71EV2A-x0911+A+147+1__LIG
     RDKit          3D

 21 22  0  0  0  0  0  0  0  0999 V2000
    9.5820   10.5040   24.1090 Br  0  0  0  0  0  0  0  0  0  0  0  0
    8.0960   11.1020   25.1230 C   0  0  0  0  0  0  0  0  0  0  0  0
    7.1950   10.1940   25.6330 C   0  0  0  0  0  0  0  0  0  0  0  0
    7.3580    8.8810   25.3870 F   0  0  0  0  0  0  0  0  0  0  0  0
    6.1300   10.6100   26.3870 C   0  0  0  0  0  0  0  0  0  0  0  0
    5.2550    9.6890   26.8260 F   0  0  0  0  0  0  0  0  0  0  0  0
    5.9340   11.9380   26.6650 C   0  0  0  0  0  0  0  0  0  0  0  0
    6.8350   12.8590   26.1590 C   0  0  0  0  0  0  0  0  0  0  0  0
    7.9290   12.4660   25.3800 C   0  0  0  0  0  0  0  0  0  0  0  0
    8.9150   13.5050   24.9040 C   0  0  0  0  0  0  0  0  0  0  0  0
    8.6800   13.8990   23.4580 C   0  0  0  0  0  0  0  0  0  0  0  0
    7.8190   13.3590   22.7840 O   0  0  0  0  0  0  0  0  0  0  0  0
    9.4750   14.8710   22.9640 N   0  0  0  0  0  0  0  0  0  0  0  0
   10.5240   15.5550   23.7340 C   0  0  0  0  0  0  0  0  0  0  0  0
   11.8860   15.3600   23.0770 C   0  0  0  0  0  0  0  0  0  0  0  0
   11.8390   15.8070   21.6160 C   0  0  0  0  0  0  0  0  0  0  0  0
    9.3790   15.2790   21.5590 C   0  0  0  0  0  0  0  0  0  0  0  0
   10.7230   15.0760   20.8510 C   0  0  1  0  0  0  0  0  0  0  0  0
   10.6180   15.5710   19.4180 C   0  0  0  0  0  0  0  0  0  0  0  0
   10.2500   16.7190   19.1690 O   0  0  0  0  0  0  0  0  0  0  0  0
   10.8920   14.6820   18.4760 N   0  0  0  0  0  0  0  0  0  0  0  0
 21 19  1  0
 20 19  2  0
 18 19  1  6
 18 16  1  0
 16 15  1  0
 15 14  1  0
 14 13  1  0
 13 11  1  0
 12 11  2  0
 11 10  1  0
 10  9  1  0
  9  8  2  0
  8  7  1  0
  7  5  2  0
  6  5  1  0
  5  3  1  0
  4  3  1  0
  3  2  2  0
  9  2  1  0
  2  1  1  0
 17 13  1  0
 18 17  1  0
M  END
$$$$
