A71EV2A-x4526_A_201_1_A71EV2A-x0911+A+147+1__LIG
     RDKit          3D

 18 19  0  0  0  0  0  0  0  0999 V2000
   10.4900   16.7700   19.2180 O   0  0  0  0  0  0  0  0  0  0  0  0
   10.5730   15.5620   19.4420 C   0  0  0  0  0  0  0  0  0  0  0  0
   10.7230   14.6640   18.4860 N   0  0  0  0  0  0  0  0  0  0  0  0
   10.4950   15.0210   20.8590 C   0  0  1  0  0  0  0  0  0  0  0  0
   11.6340   15.5750   21.7270 C   0  0  0  0  0  0  0  0  0  0  0  0
   11.5550   15.0560   23.1640 C   0  0  0  0  0  0  0  0  0  0  0  0
   10.1870   15.3420   23.7610 C   0  0  0  0  0  0  0  0  0  0  0  0
    9.1610   15.3620   21.5330 C   0  0  0  0  0  0  0  0  0  0  0  0
    9.1250   14.8100   22.8910 N   0  0  0  0  0  0  0  0  0  0  0  0
    8.1860   13.9070   23.2510 C   0  0  0  0  0  0  0  0  0  0  0  0
    7.3700   13.4870   22.4500 O   0  0  0  0  0  0  0  0  0  0  0  0
    8.1740   13.4230   24.6880 C   0  0  1  0  0  0  0  0  0  0  0  0
    6.8100   13.7110   25.3140 C   0  0  0  0  0  0  0  0  0  0  0  0
    8.4480   11.9400   24.6360 C   0  0  0  0  0  0  0  0  0  0  0  0
    9.8370   11.3110   23.8530 S   0  0  0  0  0  0  0  0  0  0  0  0
    9.4060    9.7050   24.2000 C   0  0  0  0  0  0  0  0  0  0  0  0
    8.2580    9.6200   24.8870 C   0  0  0  0  0  0  0  0  0  0  0  0
    7.6710   10.9070   25.1560 C   0  0  0  0  0  0  0  0  0  0  0  0
 12 13  1  6
 12 10  1  0
 11 10  2  0
 10  9  1  0
  9  7  1  0
  7  6  1  0
  6  5  1  0
  5  4  1  0
  4  2  1  6
  3  2  1  0
  2  1  2  0
  8  4  1  0
  9  8  1  0
 14 12  1  0
 14 18  2  0
 18 17  1  0
 17 16  2  0
 16 15  1  0
 15 14  1  0
M  END
$$$$
