A71EV2A-x3665_A_201_1_A71EV2A-x0911+A+147+1__LIG
     RDKit          3D

 22 23  0  0  0  0  0  0  0  0999 V2000
   12.1110   14.1720   23.4890 F   0  0  0  0  0  0  0  0  0  0  0  0
   11.6210   15.4470   23.3250 C   0  0  0  0  0  0  0  0  0  0  0  0
   12.4560   16.2290   24.0930 F   0  0  0  0  0  0  0  0  0  0  0  0
   11.7300   15.8550   21.8740 C   0  0  0  0  0  0  0  0  0  0  0  0
   10.7330   15.0900   20.9760 C   0  0  2  0  0  0  0  0  0  0  0  0
   10.7610   15.5830   19.5360 C   0  0  0  0  0  0  0  0  0  0  0  0
   10.4340   16.7410   19.2500 O   0  0  0  0  0  0  0  0  0  0  0  0
   11.1160   14.6930   18.6260 N   0  0  0  0  0  0  0  0  0  0  0  0
    9.3160   15.2100   21.5490 C   0  0  0  0  0  0  0  0  0  0  0  0
   10.1430   15.4990   23.8480 C   0  0  0  0  0  0  0  0  0  0  0  0
    9.2790   14.7400   22.9390 N   0  0  0  0  0  0  0  0  0  0  0  0
    8.4830   13.7100   23.3050 C   0  0  0  0  0  0  0  0  0  0  0  0
    7.6290   13.2550   22.5600 O   0  0  0  0  0  0  0  0  0  0  0  0
    8.7000   13.1770   24.7110 C   0  0  0  0  0  0  0  0  0  0  0  0
    7.7900   12.0280   25.0800 C   0  0  0  0  0  0  0  0  0  0  0  0
    8.0460   10.7390   24.6080 C   0  0  0  0  0  0  0  0  0  0  0  0
    9.1260   10.6360   23.7700 O   0  0  0  0  0  0  0  0  0  0  0  0
    9.5370    9.3350   23.3550 C   0  0  0  0  0  0  0  0  0  0  0  0
    6.7510   12.2030   25.9930 C   0  0  0  0  0  0  0  0  0  0  0  0
    5.9770   11.1340   26.4040 C   0  0  0  0  0  0  0  0  0  0  0  0
    6.2340    9.8770   25.9290 C   0  0  0  0  0  0  0  0  0  0  0  0
    7.2710    9.6650   25.0310 C   0  0  0  0  0  0  0  0  0  0  0  0
 18 17  1  0
 17 16  1  0
 16 22  2  0
 22 21  1  0
 21 20  2  0
 20 19  1  0
 19 15  2  0
 16 15  1  0
 15 14  1  0
 14 12  1  0
 13 12  2  0
 12 11  1  0
 11  9  1  0
  9  5  1  0
  5  6  1  6
  8  6  1  0
  7  6  2  0
  5  4  1  0
  4  2  1  0
  3  2  1  0
  2  1  1  0
 10  2  1  0
 11 10  1  0
M  END
$$$$
