A71EV2A-x5525_A_201_4_A71EV2A-x0911+A+147+1__LIG
     RDKit          3D

 25 27  0  0  0  0  0  0  0  0999 V2000
   10.3950   16.7080   19.1920 O   0  0  0  0  0  0  0  0  0  0  0  0
   10.7190   15.5430   19.4410 C   0  0  0  0  0  0  0  0  0  0  0  0
   11.0850   14.6820   18.5000 N   0  0  0  0  0  0  0  0  0  0  0  0
   10.6780   15.0020   20.8610 C   0  0  1  0  0  0  0  0  0  0  0  0
   11.8080   15.5960   21.7260 C   0  0  0  0  0  0  0  0  0  0  0  0
   11.7540   15.0550   23.1600 C   0  0  0  0  0  0  0  0  0  0  0  0
   10.3750   15.2670   23.7630 C   0  0  0  0  0  0  0  0  0  0  0  0
    9.3230   15.2880   21.5340 C   0  0  0  0  0  0  0  0  0  0  0  0
    9.3220   14.7260   22.8900 N   0  0  0  0  0  0  0  0  0  0  0  0
    8.4280   13.7750   23.2660 C   0  0  0  0  0  0  0  0  0  0  0  0
    7.6010   13.3250   22.4910 O   0  0  0  0  0  0  0  0  0  0  0  0
    8.4370   13.3530   24.7260 C   0  0  0  0  0  0  0  0  0  0  0  0
    7.5480   12.1570   24.9880 C   0  0  0  0  0  0  0  0  0  0  0  0
    7.8950   10.8410   24.6340 C   0  0  0  0  0  0  0  0  0  0  0  0
    9.4100   10.5920   23.7480 S   0  0  0  0  0  0  0  0  0  0  0  0
    9.4330    8.8230   23.4340 C   0  0  0  0  0  0  0  0  0  0  0  0
    6.3290   12.3750   25.6360 C   0  0  0  0  0  0  0  0  0  0  0  0
    5.4810   11.3230   25.9710 C   0  0  0  0  0  0  0  0  0  0  0  0
    5.8590   10.0220   25.6410 C   0  0  0  0  0  0  0  0  0  0  0  0
    7.0580    9.7810   24.9840 C   0  0  0  0  0  0  0  0  0  0  0  0
    4.1970   11.5860   26.6530 C   0  0  0  0  0  0  0  0  0  0  0  0
    3.5530   10.6110   27.3100 N   0  0  0  0  0  0  0  0  0  0  0  0
    2.3910   11.1720   27.7410 N   0  0  0  0  0  0  0  0  0  0  0  0
    2.3020   12.4610   27.3940 C   0  0  0  0  0  0  0  0  0  0  0  0
    3.4420   12.7790   26.6970 C   0  0  0  0  0  0  0  0  0  0  0  0
 16 15  1  0
 15 14  1  0
 14 20  2  0
 20 19  1  0
 19 18  2  0
 21 18  1  0
 21 25  1  0
 25 24  2  0
 24 23  1  0
 23 22  1  0
 22 21  2  0
 18 17  1  0
 17 13  2  0
 14 13  1  0
 13 12  1  0
 12 10  1  0
 11 10  2  0
 10  9  1  0
  9  7  1  0
  7  6  1  0
  6  5  1  0
  5  4  1  0
  4  2  1  6
  3  2  1  0
  2  1  2  0
  8  4  1  0
  9  8  1  0
M  END
$$$$
