A71EV2A-x4274_A_201_1_A71EV2A-x0911+A+147+1__LIG
     RDKit          3D

 18 19  0  0  0  0  0  0  0  0999 V2000
   10.2800   16.6230   19.4630 O   0  0  0  0  0  0  0  0  0  0  0  0
   10.6460   15.4620   19.6890 C   0  0  0  0  0  0  0  0  0  0  0  0
   10.9640   14.6130   18.7190 N   0  0  0  0  0  0  0  0  0  0  0  0
   10.6990   14.9170   21.1060 C   0  0  1  0  0  0  0  0  0  0  0  0
   11.6790   15.7050   21.9920 C   0  0  0  0  0  0  0  0  0  0  0  0
   11.6650   15.1350   23.4120 C   0  0  0  0  0  0  0  0  0  0  0  0
   10.2550   15.0880   23.9650 C   0  0  0  0  0  0  0  0  0  0  0  0
    9.2860   14.9180   21.7050 C   0  0  0  0  0  0  0  0  0  0  0  0
    9.2890   14.3970   23.0910 N   0  0  0  0  0  0  0  0  0  0  0  0
    9.4840   12.9360   23.1530 C   0  0  0  0  0  0  0  0  0  0  0  0
    8.4760   12.2440   24.0480 C   0  0  0  0  0  0  0  0  0  0  0  0
    8.3650   10.8560   24.0530 C   0  0  0  0  0  0  0  0  0  0  0  0
    9.1800   10.2240   23.1660 O   0  0  0  0  0  0  0  0  0  0  0  0
    9.1620    8.7760   23.1400 C   0  0  0  0  0  0  0  0  0  0  0  0
    7.7130   13.0030   24.8460 N   0  0  0  0  0  0  0  0  0  0  0  0
    6.8390   12.3990   25.6680 C   0  0  0  0  0  0  0  0  0  0  0  0
    6.6750   11.0350   25.7300 C   0  0  0  0  0  0  0  0  0  0  0  0
    7.4460   10.2390   24.8950 C   0  0  0  0  0  0  0  0  0  0  0  0
 14 13  1  0
 13 12  1  0
 12 18  2  0
 18 17  1  0
 17 16  2  0
 16 15  1  0
 15 11  2  0
 12 11  1  0
 11 10  1  0
 10  9  1  0
  9  7  1  0
  7  6  1  0
  6  5  1  0
  5  4  1  0
  4  2  1  6
  3  2  1  0
  2  1  2  0
  8  4  1  0
  9  8  1  0
M  END
$$$$
