XX01ZVNS2B-x1390_B_301_1_XX01ZVNS2B-x4590+B+203+1__LIG
     RDKit          3D

 29 32  0  0  0  0  0  0  0  0999 V2000
   -7.5240    8.6310  -13.2360 C   0  0  0  0  0  0  0  0  0  0  0  0
   -9.1170    8.0450  -12.7920 S   0  0  0  0  0  0  0  0  0  0  0  0
   -9.7020    7.3890  -13.9260 O   0  0  0  0  0  0  0  0  0  0  0  0
   -9.8460    9.1240  -12.1990 O   0  0  0  0  0  0  0  0  0  0  0  0
   -8.8140    6.8030  -11.5650 C   0  0  0  0  0  0  0  0  0  0  0  0
   -8.8990    7.1320  -10.2170 C   0  0  0  0  0  0  0  0  0  0  0  0
   -8.6790    6.1670   -9.2470 C   0  0  0  0  0  0  0  0  0  0  0  0
   -8.3560    4.8480   -9.6100 C   0  0  0  0  0  0  0  0  0  0  0  0
   -8.1360    3.8600   -8.6590 N   0  0  0  0  0  0  0  0  0  0  0  0
   -7.7140    4.2450   -7.3060 C   0  0  0  0  0  0  0  0  0  0  0  0
   -8.7870    3.9110   -6.2880 C   0  0  0  0  0  0  0  0  0  0  0  0
   -8.9680    2.4670   -6.1780 N   0  0  0  0  0  0  0  0  0  0  0  0
   -8.8490    1.8040   -7.4780 C   0  0  0  0  0  0  0  0  0  0  0  0
   -9.0780    2.7360   -8.6570 C   0  0  0  0  0  0  0  0  0  0  0  0
   -8.2830    4.5190  -10.9670 C   0  0  0  0  0  0  0  0  0  0  0  0
   -8.5190    5.4860  -11.9360 C   0  0  0  0  0  0  0  0  0  0  0  0
   -8.4190    5.1260  -13.2990 N   0  0  0  0  0  0  0  0  0  0  0  0
   -7.3270    5.3510  -14.0700 C   0  0  0  0  0  0  0  0  0  0  0  0
   -6.2910    5.8160  -13.6160 O   0  0  0  0  0  0  0  0  0  0  0  0
   -7.4410    5.0360  -15.5340 C   0  0  0  0  0  0  0  0  0  0  0  0
   -8.6720    4.9640  -16.1380 C   0  0  0  0  0  0  0  0  0  0  0  0
   -8.7930    4.6990  -17.5180 C   0  0  0  0  0  0  0  0  0  0  0  0
   -7.6820    4.5230  -18.2900 C   0  0  0  0  0  0  0  0  0  0  0  0
   -6.3950    4.6050  -17.7170 C   0  0  0  0  0  0  0  0  0  0  0  0
   -5.3130    4.4110  -18.5360 N   0  0  0  0  0  0  0  0  0  0  0  0
   -4.1150    4.4830  -17.9860 C   0  0  0  0  0  0  0  0  0  0  0  0
   -3.8770    4.7420  -16.6230 C   0  0  0  0  0  0  0  0  0  0  0  0
   -4.9430    4.9300  -15.7960 C   0  0  0  0  0  0  0  0  0  0  0  0
   -6.2600    4.8600  -16.3200 C   0  0  0  0  0  0  0  0  0  0  0  0
  1  2  1  0
  2  3  2  0
  2  4  2  0
  2  5  1  0
  5  6  2  0
  6  7  1  0
  7  8  2  0
  8  9  1  0
  9 10  1  0
 10 11  1  0
 11 12  1  0
 12 13  1  0
 13 14  1  0
  8 15  1  0
 15 16  2  0
 16 17  1  0
 17 18  1  0
 18 19  2  0
 18 20  1  0
 20 21  2  0
 21 22  1  0
 22 23  2  0
 23 24  1  0
 24 25  2  0
 25 26  1  0
 26 27  2  0
 27 28  1  0
 28 29  2  0
  5 16  1  0
 20 29  1  0
  9 14  1  0
 24 29  1  0
M  END
$$$$
