A71EV2A-x4721_A_201_1_A71EV2A-x0911+A+147+1__LIG
     RDKit          3D

 18 19  0  0  0  0  0  0  0  0999 V2000
    5.3960   13.3510   21.0630 O   0  0  0  0  0  0  0  0  0  0  0  0
    5.6740   14.2190   21.8790 C   0  0  0  0  0  0  0  0  0  0  0  0
    4.8280   15.1710   22.1880 N   0  0  0  0  0  0  0  0  0  0  0  0
    4.7360   15.8040   23.4730 C   0  0  0  0  0  0  0  0  0  0  0  0
    6.1220   16.1540   23.9230 C   0  0  0  0  0  0  0  0  0  0  0  0
    6.9780   14.1850   22.6210 C   0  0  0  0  0  0  0  0  0  0  0  0
    7.0310   15.0060   23.8280 N   0  0  0  0  0  0  0  0  0  0  0  0
    7.9620   14.7810   24.7730 C   0  0  0  0  0  0  0  0  0  0  0  0
    8.1260   15.5080   25.7400 O   0  0  0  0  0  0  0  0  0  0  0  0
    8.7610   13.5150   24.5870 C   0  0  0  0  0  0  0  0  0  0  0  0
    7.9720   12.4060   25.2210 C   0  0  0  0  0  0  0  0  0  0  0  0
    8.0790   11.0840   24.7970 C   0  0  0  0  0  0  0  0  0  0  0  0
    9.2150   10.6690   23.5050 S   0  0  0  0  0  0  0  0  0  0  0  0
    8.9400    8.9280   23.2450 C   0  0  0  0  0  0  0  0  0  0  0  0
    7.0400   12.7140   26.2100 C   0  0  0  0  0  0  0  0  0  0  0  0
    6.2280   11.7470   26.7600 C   0  0  0  0  0  0  0  0  0  0  0  0
    6.3370   10.4660   26.3410 C   0  0  0  0  0  0  0  0  0  0  0  0
    7.2640   10.1350   25.3660 C   0  0  0  0  0  0  0  0  0  0  0  0
 14 13  1  0
 13 12  1  0
 12 18  2  0
 18 17  1  0
 17 16  2  0
 16 15  1  0
 15 11  2  0
 12 11  1  0
 11 10  1  0
 10  8  1  0
  9  8  2  0
  8  7  1  0
  7  5  1  0
  5  4  1  0
  4  3  1  0
  3  2  1  0
  2  1  2  0
  6  2  1  0
  7  6  1  0
M  END
$$$$
