XX01ZVNS2B-x4008_B_203_5_XX01ZVNS2B-x4590+B+203+1__LIG
     RDKit          3D

 21 24  0  0  0  0  0  0  0  0999 V2000
   -6.4170    5.3030  -12.7970 O   0  0  0  0  0  0  0  0  0  0  0  0
   -7.3050    4.6280  -13.3130 C   0  0  0  0  0  0  0  0  0  0  0  0
   -7.4290    4.5340  -14.7980 C   0  0  0  0  0  0  0  0  0  0  0  0
   -6.3150    4.7880  -15.5980 C   0  0  0  0  0  0  0  0  0  0  0  0
   -6.4370    4.7160  -16.9880 C   0  0  0  0  0  0  0  0  0  0  0  0
   -5.4240    4.9470  -17.9200 N   0  0  0  0  0  0  0  0  0  0  0  0
   -5.8760    4.7730  -19.1160 C   0  0  0  0  0  0  0  0  0  0  0  0
   -7.5390    4.3200  -19.2720 S   0  0  0  0  0  0  0  0  0  0  0  0
   -7.6760    4.3700  -17.5450 C   0  0  0  0  0  0  0  0  0  0  0  0
   -8.7860    4.1190  -16.7500 C   0  0  0  0  0  0  0  0  0  0  0  0
   -8.6510    4.2070  -15.3780 C   0  0  0  0  0  0  0  0  0  0  0  0
   -8.2400    3.9530  -12.6000 N   0  0  0  0  0  0  0  0  0  0  0  0
   -8.3700    3.9260  -11.1890 C   0  0  0  0  0  0  0  0  0  0  0  0
   -8.6560    2.7270  -10.5460 C   0  0  0  0  0  0  0  0  0  0  0  0
   -8.7040    2.6730   -9.1560 C   0  0  0  0  0  0  0  0  0  0  0  0
   -8.9640    1.4990   -8.2600 C   0  0  0  0  0  0  0  0  0  0  0  0
   -8.7430    2.0540   -6.9290 N   0  0  0  0  0  0  0  0  0  0  0  0
   -8.5890    3.5200   -6.9400 C   0  0  0  0  0  0  0  0  0  0  0  0
   -8.4910    3.8210   -8.4060 C   0  0  0  0  0  0  0  0  0  0  0  0
   -8.2320    5.0260   -9.0510 C   0  0  0  0  0  0  0  0  0  0  0  0
   -8.1690    5.0790  -10.4340 C   0  0  0  0  0  0  0  0  0  0  0  0
  2  1  2  0
 12  2  1  0
 13 12  1  0
 13 21  2  0
 21 20  1  0
 20 19  2  0
 19 15  1  0
 15 14  2  0
 14 13  1  0
 16 15  1  0
 17 16  1  0
 18 17  1  0
 19 18  1  0
  3  2  1  0
  3 11  2  0
 11 10  1  0
 10  9  2  0
  9  8  1  0
  8  7  1  0
  7  6  2  0
  6  5  1  0
  9  5  1  0
  5  4  2  0
  4  3  1  0
M  END
$$$$
