XX01ZVNS2B-x4160_B_203_2_XX01ZVNS2B-x4590+B+203+1__LIG
     RDKit          3D

 26 29  0  0  0  0  0  0  0  0999 V2000
   -7.1020    1.4850  -13.4570 O   0  0  0  0  0  0  0  0  0  0  0  0
   -6.8490    2.5400  -12.8860 C   0  0  0  0  0  0  0  0  0  0  0  0
   -5.8440    2.6630  -12.0070 N   0  0  0  0  0  0  0  0  0  0  0  0
   -4.4250    2.8240  -12.3520 C   0  0  0  0  0  0  0  0  0  0  0  0
   -4.0270    2.0430  -13.6010 C   0  0  0  0  0  0  0  0  0  0  0  0
   -3.5890    2.4290  -11.1550 C   0  0  0  0  0  0  0  0  0  0  0  0
   -7.8300    3.7610  -13.0090 C   0  0  2  0  0  0  0  0  0  0  0  0
   -7.7380    4.3340  -14.4170 C   0  0  0  0  0  0  0  0  0  0  0  0
   -8.7710    4.1100  -15.3210 C   0  0  0  0  0  0  0  0  0  0  0  0
   -8.6020    4.3980  -16.6760 C   0  0  0  0  0  0  0  0  0  0  0  0
   -9.5290    4.1590  -17.7040 N   0  0  0  0  0  0  0  0  0  0  0  0
   -9.0210    4.5040  -18.8420 C   0  0  0  0  0  0  0  0  0  0  0  0
   -7.4080    5.1480  -18.8260 S   0  0  0  0  0  0  0  0  0  0  0  0
   -7.3880    4.9530  -17.1020 C   0  0  0  0  0  0  0  0  0  0  0  0
   -6.3720    5.2450  -16.1980 C   0  0  0  0  0  0  0  0  0  0  0  0
   -6.5600    4.9330  -14.8610 C   0  0  0  0  0  0  0  0  0  0  0  0
   -7.7150    4.7800  -11.9790 N   0  0  0  0  0  0  0  0  0  0  0  0
   -8.0790    4.5750  -10.6470 C   0  0  0  0  0  0  0  0  0  0  0  0
   -8.4280    3.3140  -10.1580 C   0  0  0  0  0  0  0  0  0  0  0  0
   -8.6660    3.1260   -8.7970 C   0  0  0  0  0  0  0  0  0  0  0  0
   -9.0660    1.8860   -8.0500 C   0  0  0  0  0  0  0  0  0  0  0  0
   -8.9790    2.3170   -6.6460 N   0  0  0  0  0  0  0  0  0  0  0  0
   -8.8150    3.7650   -6.5110 C   0  0  0  0  0  0  0  0  0  0  0  0
   -8.5690    4.2060   -7.9250 C   0  0  0  0  0  0  0  0  0  0  0  0
   -8.2610    5.4680   -8.4200 C   0  0  0  0  0  0  0  0  0  0  0  0
   -8.0170    5.6550   -9.7700 C   0  0  0  0  0  0  0  0  0  0  0  0
  6  4  1  0
  5  4  1  0
  4  3  1  0
  3  2  1  0
  2  1  2  0
  7  2  1  0
  7 17  1  1
 18 17  1  0
 18 26  2  0
 26 25  1  0
 25 24  2  0
 24 20  1  0
 20 19  2  0
 19 18  1  0
 21 20  1  0
 22 21  1  0
 23 22  1  0
 24 23  1  0
  8  7  1  0
  8 16  2  0
 16 15  1  0
 15 14  2  0
 14 13  1  0
 13 12  1  0
 12 11  2  0
 11 10  1  0
 14 10  1  0
 10  9  2  0
  9  8  1  0
M  END
$$$$
