XX01ZVNS2B-x1291_B_301_1_XX01ZVNS2B-x4590+B+203+1__LIG
     RDKit          3D

 26 27  0  0  0  0  0  0  0  0999 V2000
   -9.1750    1.6300   -7.4130 C   0  0  0  0  0  0  0  0  0  0  0  0
   -8.5430    2.2720   -8.5680 N   0  0  0  0  0  0  0  0  0  0  0  0
   -7.1170    1.9640   -8.6250 C   0  0  0  0  0  0  0  0  0  0  0  0
   -8.7680    3.7190   -8.5490 C   0  0  0  0  0  0  0  0  0  0  0  0
   -8.3350    4.3830   -9.8190 C   0  0  0  0  0  0  0  0  0  0  0  0
   -8.2590    3.7800  -10.9720 N   0  0  0  0  0  0  0  0  0  0  0  0
   -8.0510    4.6830  -12.0080 C   0  0  0  0  0  0  0  0  0  0  0  0
   -7.9620    4.1650  -13.4090 C   0  0  0  0  0  0  0  0  0  0  0  0
   -8.3200    5.1560  -14.4020 N   0  0  0  0  0  0  0  0  0  0  0  0
   -8.2090    4.9260  -15.7670 C   0  0  0  0  0  0  0  0  0  0  0  0
   -9.2580    4.3120  -16.4400 C   0  0  0  0  0  0  0  0  0  0  0  0
   -9.1490    4.1020  -17.7990 C   0  0  0  0  0  0  0  0  0  0  0  0
  -10.4790    3.3460  -18.6280 Cl  0  0  0  0  0  0  0  0  0  0  0  0
   -8.0230    4.4660  -18.4980 C   0  0  0  0  0  0  0  0  0  0  0  0
   -6.9630    5.0830  -17.8410 C   0  0  0  0  0  0  0  0  0  0  0  0
   -5.6960    5.5020  -18.5390 C   0  0  0  0  0  0  0  0  0  0  0  0
   -4.7890    6.0280  -17.8960 O   0  0  0  0  0  0  0  0  0  0  0  0
   -5.5920    5.2690  -19.8550 N   0  0  0  0  0  0  0  0  0  0  0  0
   -4.4590    5.6740  -20.7490 C   0  0  0  0  0  0  0  0  0  0  0  0
   -4.8640    5.4140  -22.2020 C   0  0  0  0  0  0  0  0  0  0  0  0
   -3.2080    4.8650  -20.4030 C   0  0  0  0  0  0  0  0  0  0  0  0
   -4.1470    7.1660  -20.6170 C   0  0  0  0  0  0  0  0  0  0  0  0
   -5.2530    7.9910  -20.9370 O   0  0  0  0  0  0  0  0  0  0  0  0
   -7.0620    5.3040  -16.4670 C   0  0  0  0  0  0  0  0  0  0  0  0
   -7.9180    5.9690  -11.6020 C   0  0  0  0  0  0  0  0  0  0  0  0
   -7.9390    6.0640   -9.8870 S   0  0  0  0  0  0  0  0  0  0  0  0
  1  2  1  0
  2  3  1  0
  2  4  1  0
  4  5  1  0
  5  6  2  0
  6  7  1  0
  7  8  1  0
  8  9  1  0
  9 10  1  0
 10 11  2  0
 11 12  1  0
 12 13  1  0
 12 14  2  0
 14 15  1  0
 15 16  1  0
 16 17  2  0
 16 18  1  0
 18 19  1  0
 19 20  1  0
 19 21  1  0
 19 22  1  0
 22 23  1  0
 15 24  2  0
  7 25  2  0
 25 26  1  0
  5 26  1  0
 10 24  1  0
M  END
$$$$
