A71EV2A-x5449_A_201_5_A71EV2A-x0911+A+147+1__LIG
     RDKit          3D

 24 25  0  0  0  0  0  0  0  0999 V2000
   10.3290   16.6690   19.1300 O   0  0  0  0  0  0  0  0  0  0  0  0
   10.7150   15.5220   19.3900 C   0  0  0  0  0  0  0  0  0  0  0  0
   11.0810   14.6570   18.4420 N   0  0  0  0  0  0  0  0  0  0  0  0
   10.7310   14.9990   20.8170 C   0  0  1  0  0  0  0  0  0  0  0  0
   11.8480   15.6550   21.6540 C   0  0  0  0  0  0  0  0  0  0  0  0
   11.8370   15.0790   23.0780 C   0  0  0  0  0  0  0  0  0  0  0  0
   10.4670   15.2590   23.7070 C   0  0  0  0  0  0  0  0  0  0  0  0
    9.3670   15.2120   21.4790 C   0  0  0  0  0  0  0  0  0  0  0  0
    9.3920   14.7050   22.8560 N   0  0  0  0  0  0  0  0  0  0  0  0
    8.5140   13.7550   23.2460 C   0  0  0  0  0  0  0  0  0  0  0  0
    7.6370   13.3400   22.5080 O   0  0  0  0  0  0  0  0  0  0  0  0
    8.6290   13.2780   24.6810 C   0  0  0  0  0  0  0  0  0  0  0  0
    7.6780   12.1480   25.0190 C   0  0  0  0  0  0  0  0  0  0  0  0
    7.9060   10.8150   24.6430 C   0  0  0  0  0  0  0  0  0  0  0  0
    9.3220   10.5150   23.6210 S   0  0  0  0  0  0  0  0  0  0  0  0
    9.3170    8.7390   23.3830 C   0  0  0  0  0  0  0  0  0  0  0  0
    6.5500   12.4400   25.7970 C   0  0  0  0  0  0  0  0  0  0  0  0
    5.6810   11.4310   26.1890 C   0  0  0  0  0  0  0  0  0  0  0  0
    4.2240   11.8570   27.1140 S   0  0  0  0  0  0  0  0  0  0  0  0
    3.8240   13.1890   26.7430 O   0  0  0  0  0  0  0  0  0  0  0  0
    3.2650   10.7980   26.9670 O   0  0  0  0  0  0  0  0  0  0  0  0
    4.7970   11.8780   28.7730 C   0  0  0  0  0  0  0  0  0  0  0  0
    5.9250   10.1080   25.8300 C   0  0  0  0  0  0  0  0  0  0  0  0
    7.0340    9.8090   25.0510 C   0  0  0  0  0  0  0  0  0  0  0  0
 16 15  1  0
 15 14  1  0
 14 24  2  0
 24 23  1  0
 23 18  2  0
 19 18  1  0
 22 19  1  0
 20 19  2  0
 21 19  2  0
 18 17  1  0
 17 13  2  0
 14 13  1  0
 13 12  1  0
 12 10  1  0
 11 10  2  0
 10  9  1  0
  9  7  1  0
  7  6  1  0
  6  5  1  0
  5  4  1  0
  4  2  1  6
  3  2  1  0
  2  1  2  0
  8  4  1  0
  9  8  1  0
M  END
$$$$
