A71EV2A-x4606_A_201_1_A71EV2A-x0911+A+147+1__LIG
     RDKit          3D

 20 22  0  0  0  0  0  0  0  0999 V2000
    7.8210   13.2160   22.6000 O   0  0  0  0  0  0  0  0  0  0  0  0
    8.7380   13.6030   23.3010 C   0  0  0  0  0  0  0  0  0  0  0  0
    9.5040   14.6500   22.9420 N   0  0  0  0  0  0  0  0  0  0  0  0
   10.5780   15.2370   23.7600 C   0  0  0  0  0  0  0  0  0  0  0  0
   11.9420   15.1030   23.0800 C   0  0  0  0  0  0  0  0  0  0  0  0
   11.8800   15.6310   21.6450 C   0  0  0  0  0  0  0  0  0  0  0  0
    9.4010   15.2250   21.5980 C   0  0  0  0  0  0  0  0  0  0  0  0
   10.7230   14.9770   20.8630 C   0  0  1  0  0  0  0  0  0  0  0  0
   10.6450   15.4910   19.4370 C   0  0  0  0  0  0  0  0  0  0  0  0
   10.2620   16.6370   19.1890 O   0  0  0  0  0  0  0  0  0  0  0  0
   10.9850   14.6200   18.4860 N   0  0  0  0  0  0  0  0  0  0  0  0
    9.0260   12.8850   24.6290 C   0  0  1  0  0  0  0  0  0  0  0  0
    7.8710   12.0250   25.0640 C   0  0  0  0  0  0  0  0  0  0  0  0
    8.0890   10.6760   24.7740 C   0  0  0  0  0  0  0  0  0  0  0  0
    9.4020   10.3660   24.1230 C   0  0  0  0  0  0  0  0  0  0  0  0
   10.4630   11.7650   24.4510 S   0  0  0  0  0  0  0  0  0  0  0  0
    6.7930   12.5010   25.6990 N   0  0  0  0  0  0  0  0  0  0  0  0
    5.8790   11.5890   26.0840 C   0  0  0  0  0  0  0  0  0  0  0  0
    5.9950   10.2280   25.8350 C   0  0  0  0  0  0  0  0  0  0  0  0
    7.1120    9.7710   25.1590 C   0  0  0  0  0  0  0  0  0  0  0  0
 11  9  1  0
 10  9  2  0
  8  9  1  6
  8  6  1  0
  6  5  1  0
  5  4  1  0
  4  3  1  0
  3  2  1  0
  2  1  2  0
 12  2  1  6
 12 16  1  0
 16 15  1  0
 15 14  1  0
 14 20  2  0
 20 19  1  0
 19 18  2  0
 18 17  1  0
 17 13  2  0
 14 13  1  0
 13 12  1  0
  7  3  1  0
  8  7  1  0
M  END
$$$$
