XX01ZVNS2B-x0969_B_204_1_XX01ZVNS2B-x4590+B+203+1__LIG
     RDKit          3D

 10 11  0  0  0  0  0  0  0  0999 V2000
   -9.6040    4.0180  -18.2080 C   0  0  0  0  0  0  0  0  0  0  0  0
   -8.5250    4.5480  -17.3220 C   0  0  0  0  0  0  0  0  0  0  0  0
   -7.2690    4.9090  -17.7100 C   0  0  0  0  0  0  0  0  0  0  0  0
   -6.6330    5.3720  -16.6160 N   0  0  0  0  0  0  0  0  0  0  0  0
   -7.4260    5.3190  -15.5040 N   0  0  0  0  0  0  0  0  0  0  0  0
   -8.5680    4.8120  -15.9390 C   0  0  0  0  0  0  0  0  0  0  0  0
   -6.5390    4.8260  -19.0170 C   0  0  0  0  0  0  0  0  0  0  0  0
   -5.3150    5.6310  -19.0380 N   0  0  0  0  0  0  0  0  0  0  0  0
   -4.5130    5.4280  -17.8140 C   0  0  0  0  0  0  0  0  0  0  0  0
   -5.2560    5.8800  -16.5750 C   0  0  0  0  0  0  0  0  0  0  0  0
  2  1  1  0
  2  6  1  0
  6  5  2  0
  5  4  1  0
  4 10  1  0
 10  9  1  0
  9  8  1  0
  8  7  1  0
  7  3  1  0
  3  2  2  0
  4  3  1  0
M  END
$$$$
