XX01ZVNS2B-x3519_B_203_1_XX01ZVNS2B-x4590+B+203+1__LIG
     RDKit          3D

 22 25  0  0  0  0  0  0  0  0999 V2000
   -6.5830    5.5890  -12.9210 O   0  0  0  0  0  0  0  0  0  0  0  0
   -7.3520    4.8140  -13.4860 C   0  0  0  0  0  0  0  0  0  0  0  0
   -8.2110    4.0070  -12.8220 N   0  0  0  0  0  0  0  0  0  0  0  0
   -8.4030    3.9910  -11.4190 C   0  0  0  0  0  0  0  0  0  0  0  0
   -8.1800    5.1570  -10.6900 C   0  0  0  0  0  0  0  0  0  0  0  0
   -8.3160    5.1640   -9.3140 C   0  0  0  0  0  0  0  0  0  0  0  0
   -8.6110    3.9710   -8.6660 C   0  0  0  0  0  0  0  0  0  0  0  0
   -8.8190    2.8010   -9.3870 C   0  0  0  0  0  0  0  0  0  0  0  0
   -8.6840    2.7830  -10.7680 C   0  0  0  0  0  0  0  0  0  0  0  0
   -9.1310    1.6860   -8.4290 C   0  0  0  0  0  0  0  0  0  0  0  0
   -8.5920    2.2360   -7.1760 N   0  0  0  0  0  0  0  0  0  0  0  0
   -8.8110    3.6920   -7.2050 C   0  0  0  0  0  0  0  0  0  0  0  0
   -7.3050    4.6840  -14.9760 C   0  0  0  0  0  0  0  0  0  0  0  0
   -8.3950    4.2420  -15.7060 C   0  0  0  0  0  0  0  0  0  0  0  0
   -8.3230    4.1630  -17.1270 C   0  0  0  0  0  0  0  0  0  0  0  0
   -9.6750    3.6060  -18.0640 Cl  0  0  0  0  0  0  0  0  0  0  0  0
   -7.2320    4.4710  -17.8220 N   0  0  0  0  0  0  0  0  0  0  0  0
   -6.1630    4.8640  -17.1130 C   0  0  0  0  0  0  0  0  0  0  0  0
   -4.9290    5.1750  -17.6060 N   0  0  0  0  0  0  0  0  0  0  0  0
   -4.1140    5.5120  -16.5490 C   0  0  0  0  0  0  0  0  0  0  0  0
   -4.7930    5.3860  -15.3760 C   0  0  0  0  0  0  0  0  0  0  0  0
   -6.1240    4.9840  -15.7120 C   0  0  0  0  0  0  0  0  0  0  0  0
  1  2  2  0
  2  3  1  0
  3  4  1  0
  4  5  2  0
  5  6  1  0
  6  7  2  0
  7  8  1  0
  8  9  2  0
  8 10  1  0
 10 11  1  0
 11 12  1  0
  2 13  1  0
 13 14  2  0
 14 15  1  0
 15 16  1  0
 15 17  2  0
 17 18  1  0
 18 19  1  0
 19 20  1  0
 20 21  2  0
 21 22  1  0
  4  9  1  0
 13 22  1  0
  7 12  1  0
 18 22  2  0
M  END
$$$$
