A71EV2A-x3618_A_201_1_A71EV2A-x0911+A+147+1_ALIG
     RDKit          3D

 23 24  0  0  0  0  0  0  0  0999 V2000
   10.4330   16.6170   19.1150 O   0  0  0  0  0  0  0  0  0  0  0  0
   10.7680   15.4510   19.3790 C   0  0  0  0  0  0  0  0  0  0  0  0
   11.1580   14.6030   18.4330 N   0  0  0  0  0  0  0  0  0  0  0  0
   10.6970   14.9040   20.7990 C   0  0  1  0  0  0  0  0  0  0  0  0
   11.7060   15.5560   21.7790 C   0  0  0  0  0  0  0  0  0  0  0  0
   11.6380   14.8610   23.1420 C   0  0  0  0  0  0  0  0  0  0  0  0
   10.2310   14.9500   23.7350 C   0  0  0  0  0  0  0  0  0  0  0  0
    9.3050   15.0840   21.4180 C   0  0  0  0  0  0  0  0  0  0  0  0
    9.2150   14.4960   22.7650 N   0  0  0  0  0  0  0  0  0  0  0  0
    8.2110   13.6220   23.0710 C   0  0  0  0  0  0  0  0  0  0  0  0
    7.4930   13.1640   22.2060 O   0  0  0  0  0  0  0  0  0  0  0  0
    7.9580   13.4070   24.4070 N   0  0  0  0  0  0  0  0  0  0  0  0
    7.0680   12.4160   24.9250 C   0  0  0  0  0  0  0  0  0  0  0  0
    7.4450   11.1020   24.6460 C   0  0  0  0  0  0  0  0  0  0  0  0
    6.6850   10.0460   25.1400 C   0  0  0  0  0  0  0  0  0  0  0  0
    5.5540   10.2890   25.9030 C   0  0  0  0  0  0  0  0  0  0  0  0
    5.9160   12.6540   25.6760 C   0  0  0  0  0  0  0  0  0  0  0  0
    5.1510   11.5940   26.1690 C   0  0  0  0  0  0  0  0  0  0  0  0
    3.9080   11.7960   26.9840 C   0  0  0  0  0  0  0  0  0  0  0  0
    3.5150   10.9380   27.7830 O   0  0  0  0  0  0  0  0  0  0  0  0
    3.2440   12.9410   26.8100 N   0  0  0  0  0  0  0  0  0  0  0  0
    2.0520   13.2710   27.5940 C   0  0  0  0  0  0  0  0  0  0  0  0
    0.9470   13.7770   26.7400 C   0  0  0  0  0  0  0  0  0  0  0  0
 23 22  1  0
 22 21  1  0
 21 19  1  0
 20 19  2  0
 19 18  1  0
 18 16  2  0
 16 15  1  0
 15 14  2  0
 14 13  1  0
 13 12  1  0
 12 10  1  0
 11 10  2  0
 10  9  1  0
  9  7  1  0
  7  6  1  0
  6  5  1  0
  5  4  1  0
  4  2  1  6
  3  2  1  0
  2  1  2  0
  8  4  1  0
  9  8  1  0
 17 13  2  0
 18 17  1  0
M  END
$$$$
A71EV2A-x3618_A_201_1_A71EV2A-x0911+A+147+1_BLIG
     RDKit          3D

 23 24  0  0  0  0  0  0  0  0999 V2000
   10.1080   16.6320   19.5480 O   0  0  0  0  0  0  0  0  0  0  0  0
   10.6210   15.5100   19.5980 C   0  0  0  0  0  0  0  0  0  0  0  0
   11.0610   14.8690   18.5230 N   0  0  0  0  0  0  0  0  0  0  0  0
   10.7260   14.7550   20.9120 C   0  0  1  0  0  0  0  0  0  0  0  0
   11.8030   15.3620   21.8260 C   0  0  0  0  0  0  0  0  0  0  0  0
   11.7450   14.7580   23.2300 C   0  0  0  0  0  0  0  0  0  0  0  0
   10.3500   14.9020   23.8210 C   0  0  0  0  0  0  0  0  0  0  0  0
    9.3530   14.9240   21.5700 C   0  0  0  0  0  0  0  0  0  0  0  0
    9.3420   14.3330   22.9110 N   0  0  0  0  0  0  0  0  0  0  0  0
    8.3250   13.5020   23.2810 C   0  0  0  0  0  0  0  0  0  0  0  0
    7.4570   13.1690   22.4870 O   0  0  0  0  0  0  0  0  0  0  0  0
    8.3200   13.1010   24.5850 N   0  0  0  0  0  0  0  0  0  0  0  0
    7.3830   12.2200   25.1740 C   0  0  0  0  0  0  0  0  0  0  0  0
    7.5040   10.8670   24.8860 C   0  0  0  0  0  0  0  0  0  0  0  0
    6.5950    9.9670   25.4120 C   0  0  0  0  0  0  0  0  0  0  0  0
    5.5640   10.4070   26.2250 C   0  0  0  0  0  0  0  0  0  0  0  0
    6.3490   12.6630   25.9950 C   0  0  0  0  0  0  0  0  0  0  0  0
    5.4250   11.7580   26.5130 C   0  0  0  0  0  0  0  0  0  0  0  0
    4.2330   12.2480   27.2760 C   0  0  0  0  0  0  0  0  0  0  0  0
    3.9600   13.4440   27.3160 O   0  0  0  0  0  0  0  0  0  0  0  0
    3.4470   11.3230   27.8350 N   0  0  0  0  0  0  0  0  0  0  0  0
    2.0770   11.6040   28.2650 C   0  0  0  0  0  0  0  0  0  0  0  0
    1.4620   10.4250   28.9460 C   0  0  0  0  0  0  0  0  0  0  0  0
 23 22  1  0
 22 21  1  0
 21 19  1  0
 20 19  2  0
 19 18  1  0
 18 16  2  0
 16 15  1  0
 15 14  2  0
 14 13  1  0
 13 12  1  0
 12 10  1  0
 11 10  2  0
 10  9  1  0
  9  7  1  0
  7  6  1  0
  6  5  1  0
  5  4  1  0
  4  2  1  6
  3  2  1  0
  2  1  2  0
  8  4  1  0
  9  8  1  0
 17 13  2  0
 18 17  1  0
M  END
$$$$
