A71EV2A-x4303_A_201_1_A71EV2A-x0911+A+147+1__LIG
     RDKit          3D

 24 25  0  0  0  0  0  0  0  0999 V2000
   10.4080   16.6040   19.1740 O   0  0  0  0  0  0  0  0  0  0  0  0
   10.7940   15.4570   19.4420 C   0  0  0  0  0  0  0  0  0  0  0  0
   11.1860   14.5990   18.5160 N   0  0  0  0  0  0  0  0  0  0  0  0
   10.7640   14.9250   20.8660 C   0  0  1  0  0  0  0  0  0  0  0  0
   11.8490   15.5500   21.7570 C   0  0  0  0  0  0  0  0  0  0  0  0
   11.8170   14.9540   23.1750 C   0  0  0  0  0  0  0  0  0  0  0  0
   10.4120   15.0500   23.7880 C   0  0  0  0  0  0  0  0  0  0  0  0
    9.4120   15.1910   21.5320 C   0  0  0  0  0  0  0  0  0  0  0  0
    9.3740   14.5710   22.8590 N   0  0  0  0  0  0  0  0  0  0  0  0
    8.3780   13.6690   23.1310 C   0  0  0  0  0  0  0  0  0  0  0  0
    7.6260   13.2460   22.2590 O   0  0  0  0  0  0  0  0  0  0  0  0
    8.2410   13.2940   24.4330 N   0  0  0  0  0  0  0  0  0  0  0  0
    7.3000   12.3350   24.8620 C   0  0  0  0  0  0  0  0  0  0  0  0
    7.6100   10.9780   24.6250 C   0  0  0  0  0  0  0  0  0  0  0  0
    8.7240   10.7680   23.8590 O   0  0  0  0  0  0  0  0  0  0  0  0
    9.0720    9.4210   23.5420 C   0  0  0  0  0  0  0  0  0  0  0  0
    6.1530   12.6570   25.5840 C   0  0  0  0  0  0  0  0  0  0  0  0
    5.3620   11.6350   26.0890 C   0  0  0  0  0  0  0  0  0  0  0  0
    3.9220   12.0450   27.0280 S   0  0  0  0  0  0  0  0  0  0  0  0
    2.9750   10.9760   26.8850 O   0  0  0  0  0  0  0  0  0  0  0  0
    3.5050   13.3690   26.6640 O   0  0  0  0  0  0  0  0  0  0  0  0
    4.4920   12.0720   28.6890 C   0  0  0  0  0  0  0  0  0  0  0  0
    5.6790   10.3030   25.8760 C   0  0  0  0  0  0  0  0  0  0  0  0
    6.8010    9.9750   25.1370 C   0  0  0  0  0  0  0  0  0  0  0  0
 16 15  1  0
 15 14  1  0
 14 24  2  0
 24 23  1  0
 23 18  2  0
 19 18  1  0
 22 19  1  0
 20 19  2  0
 21 19  2  0
 18 17  1  0
 17 13  2  0
 14 13  1  0
 13 12  1  0
 12 10  1  0
 11 10  2  0
 10  9  1  0
  9  7  1  0
  7  6  1  0
  6  5  1  0
  5  4  1  0
  4  2  1  6
  3  2  1  0
  2  1  2  0
  8  4  1  0
  9  8  1  0
M  END
$$$$
