A71EV2A-x5425_C_201_5_A71EV2A-x0911+A+147+1__LIG
     RDKit          3D

 17 18  0  0  0  0  0  0  0  0999 V2000
    7.5880   13.2760   22.5030 O   0  0  0  0  0  0  0  0  0  0  0  0
    8.4640   13.6750   23.2560 C   0  0  0  0  0  0  0  0  0  0  0  0
    9.3270   14.6630   22.9120 N   0  0  0  0  0  0  0  0  0  0  0  0
   10.3440   15.2920   23.7790 C   0  0  0  0  0  0  0  0  0  0  0  0
   11.7460   15.1470   23.1830 C   0  0  0  0  0  0  0  0  0  0  0  0
   11.7800   15.6580   21.7310 C   0  0  0  0  0  0  0  0  0  0  0  0
    9.3020   15.2020   21.5530 C   0  0  0  0  0  0  0  0  0  0  0  0
   10.6720   14.9830   20.9030 C   0  0  1  0  0  0  0  0  0  0  0  0
   10.6280   15.4850   19.4730 C   0  0  0  0  0  0  0  0  0  0  0  0
   10.2890   16.6550   19.2130 O   0  0  0  0  0  0  0  0  0  0  0  0
   10.9360   14.5900   18.5420 N   0  0  0  0  0  0  0  0  0  0  0  0
    8.6120   13.0900   24.6460 C   0  0  0  0  0  0  0  0  0  0  0  0
    8.8780   11.6180   24.4710 C   0  0  0  0  0  0  0  0  0  0  0  0
    9.8580   11.1230   23.6670 C   0  0  0  0  0  0  0  0  0  0  0  0
    9.8910    9.4230   23.6720 S   0  0  0  0  0  0  0  0  0  0  0  0
    8.5580    9.3270   24.7290 C   0  0  0  0  0  0  0  0  0  0  0  0
    8.1240   10.5840   25.0780 C   0  0  0  0  0  0  0  0  0  0  0  0
 11  9  1  0
 10  9  2  0
  8  9  1  6
  8  6  1  0
  6  5  1  0
  5  4  1  0
  4  3  1  0
  3  2  1  0
  2  1  2  0
 12  2  1  0
 13 12  1  0
 13 17  1  0
 17 16  2  0
 16 15  1  0
 15 14  1  0
 14 13  2  0
  7  3  1  0
  8  7  1  0
M  END
$$$$
