XX01ZVNS2B-x4132_B_203_6_XX01ZVNS2B-x4590+B+203+1__LIG
     RDKit          3D

 25 28  0  0  0  0  0  0  0  0999 V2000
  -10.2320    3.8110  -17.9570 Cl  0  0  0  0  0  0  0  0  0  0  0  0
   -8.7550    4.3170  -17.1840 C   0  0  0  0  0  0  0  0  0  0  0  0
   -8.6590    4.2590  -15.8000 C   0  0  0  0  0  0  0  0  0  0  0  0
   -7.7160    4.7620  -17.9710 C   0  0  0  0  0  0  0  0  0  0  0  0
   -6.5530    5.1670  -17.3400 C   0  0  0  0  0  0  0  0  0  0  0  0
   -6.4070    5.1230  -15.9400 C   0  0  0  0  0  0  0  0  0  0  0  0
   -5.1050    5.6290  -15.7070 C   0  0  0  0  0  0  0  0  0  0  0  0
   -4.5040    5.9560  -16.8350 N   0  0  0  0  0  0  0  0  0  0  0  0
   -5.3940    5.6740  -17.8310 N   0  0  0  0  0  0  0  0  0  0  0  0
   -7.4840    4.6600  -15.1560 C   0  0  0  0  0  0  0  0  0  0  0  0
   -7.4060    4.6410  -13.6350 C   0  0  2  0  0  0  0  0  0  0  0  0
   -6.2300    3.7900  -13.0660 C   0  0  0  0  0  0  0  0  0  0  0  0
   -6.1670    2.3370  -13.4980 C   0  0  0  0  0  0  0  0  0  0  0  0
   -7.3260    1.7410  -13.6310 O   0  0  0  0  0  0  0  0  0  0  0  0
   -5.1060    1.7680  -13.6820 O   0  0  0  0  0  0  0  0  0  0  0  0
   -8.6210    4.2890  -12.9190 N   0  0  0  0  0  0  0  0  0  0  0  0
   -8.6800    4.2800  -11.5240 C   0  0  0  0  0  0  0  0  0  0  0  0
   -9.0830    3.1280  -10.8500 C   0  0  0  0  0  0  0  0  0  0  0  0
   -9.0770    3.0950   -9.4580 C   0  0  0  0  0  0  0  0  0  0  0  0
   -9.4230    1.9680   -8.5310 C   0  0  0  0  0  0  0  0  0  0  0  0
   -9.0240    2.5150   -7.2390 N   0  0  0  0  0  0  0  0  0  0  0  0
   -8.8080    3.9620   -7.2630 C   0  0  0  0  0  0  0  0  0  0  0  0
   -8.6820    4.2130   -8.7360 C   0  0  0  0  0  0  0  0  0  0  0  0
   -8.2810    5.3620   -9.4110 C   0  0  0  0  0  0  0  0  0  0  0  0
   -8.2820    5.3980  -10.7950 C   0  0  0  0  0  0  0  0  0  0  0  0
 15 13  2  0
 14 13  1  0
 13 12  1  0
 11 12  1  6
 16 11  1  0
 17 16  1  0
 17 25  2  0
 25 24  1  0
 24 23  2  0
 23 19  1  0
 19 18  2  0
 18 17  1  0
 20 19  1  0
 21 20  1  0
 22 21  1  0
 23 22  1  0
 11 10  1  0
 10  3  1  0
  3  2  2  0
  2  1  1  0
  4  2  1  0
  5  4  2  0
  5  9  1  0
  9  8  1  0
  8  7  2  0
  7  6  1  0
 10  6  2  0
  6  5  1  0
M  END
$$$$
