XX01ZVNS2B-x5029_B_203_6_XX01ZVNS2B-x4590+B+203+1__LIG
     RDKit          3D

 23 26  0  0  0  0  0  0  0  0999 V2000
  -10.1690    3.6570  -18.0620 F   0  0  0  0  0  0  0  0  0  0  0  0
   -8.9910    4.0860  -17.5280 C   0  0  0  0  0  0  0  0  0  0  0  0
   -8.9150    4.2400  -16.1560 C   0  0  0  0  0  0  0  0  0  0  0  0
   -7.9650    4.3960  -18.3960 C   0  0  0  0  0  0  0  0  0  0  0  0
   -6.8090    4.9090  -17.8240 C   0  0  0  0  0  0  0  0  0  0  0  0
   -5.6130    5.2550  -18.3870 N   0  0  0  0  0  0  0  0  0  0  0  0
   -5.1820    5.1550  -19.7820 C   0  0  0  0  0  0  0  0  0  0  0  0
   -4.7620    6.4870  -20.4370 C   0  0  0  0  0  0  0  0  0  0  0  0
   -3.5360    5.8080  -20.9310 N   0  0  0  0  0  0  0  0  0  0  0  0
   -3.7220    4.6850  -19.9830 C   0  0  0  0  0  0  0  0  0  0  0  0
   -4.7270    5.6970  -17.4430 N   0  0  0  0  0  0  0  0  0  0  0  0
   -5.3540    5.6200  -16.2860 C   0  0  0  0  0  0  0  0  0  0  0  0
   -6.6740    5.1240  -16.4440 C   0  0  0  0  0  0  0  0  0  0  0  0
   -7.7490    4.7800  -15.6050 C   0  0  0  0  0  0  0  0  0  0  0  0
   -7.6490    5.0400  -14.1330 C   0  0  0  0  0  0  0  0  0  0  0  0
   -6.9670    5.9720  -13.7120 O   0  0  0  0  0  0  0  0  0  0  0  0
   -8.3150    4.1770  -13.3240 N   0  0  0  0  0  0  0  0  0  0  0  0
   -8.3910    4.2050  -11.9210 C   0  0  0  0  0  0  0  0  0  0  0  0
   -8.6310    3.0220  -11.3450 N   0  0  0  0  0  0  0  0  0  0  0  0
   -8.6540    3.0260  -10.0070 C   0  0  0  0  0  0  0  0  0  0  0  0
   -8.4800    4.0640   -9.1880 N   0  0  0  0  0  0  0  0  0  0  0  0
   -8.2580    5.2270   -9.7990 C   0  0  0  0  0  0  0  0  0  0  0  0
   -8.2030    5.3670  -11.1700 C   0  0  0  0  0  0  0  0  0  0  0  0
 16 15  2  0
 17 15  1  0
 18 17  1  0
 18 23  2  0
 23 22  1  0
 22 21  2  0
 21 20  1  0
 20 19  2  0
 19 18  1  0
 15 14  1  0
 14  3  1  0
  3  2  2  0
  2  1  1  0
  4  2  1  0
  5  4  2  0
  5 13  1  0
 14 13  2  0
 13 12  1  0
 12 11  2  0
 11  6  1  0
  6  5  1  0
  7  6  1  0
  7 10  1  0
 10  9  1  0
  9  8  1  0
  8  7  1  0
M  END
$$$$
