A71EV2A-x3612_A_201_1_A71EV2A-x0911+A+147+1__LIG
     RDKit          3D

 19 20  0  0  0  0  0  0  0  0999 V2000
    9.0270   10.9370   23.5860 F   0  0  0  0  0  0  0  0  0  0  0  0
    8.0890   11.0840   24.5600 C   0  0  0  0  0  0  0  0  0  0  0  0
    7.3700    9.9870   24.9720 C   0  0  0  0  0  0  0  0  0  0  0  0
    6.4350   10.1550   25.9850 C   0  0  0  0  0  0  0  0  0  0  0  0
    6.2530   11.3930   26.5660 C   0  0  0  0  0  0  0  0  0  0  0  0
    6.9850   12.4890   26.1300 C   0  0  0  0  0  0  0  0  0  0  0  0
    7.9140   12.3500   25.1000 C   0  0  0  0  0  0  0  0  0  0  0  0
    8.6580   13.4250   24.5530 N   0  0  0  0  0  0  0  0  0  0  0  0
    8.5830   13.8220   23.2500 C   0  0  0  0  0  0  0  0  0  0  0  0
    7.7460   13.3770   22.4750 O   0  0  0  0  0  0  0  0  0  0  0  0
    9.4440   14.8100   22.8710 N   0  0  0  0  0  0  0  0  0  0  0  0
   10.5060   15.3970   23.7040 C   0  0  0  0  0  0  0  0  0  0  0  0
   11.8640   15.2650   23.0500 C   0  0  0  0  0  0  0  0  0  0  0  0
   11.8280   15.7510   21.5970 C   0  0  0  0  0  0  0  0  0  0  0  0
    9.3870   15.3460   21.5070 C   0  0  0  0  0  0  0  0  0  0  0  0
   10.7090   15.0710   20.7860 C   0  0  1  0  0  0  0  0  0  0  0  0
   10.6620   15.5960   19.3610 C   0  0  0  0  0  0  0  0  0  0  0  0
   10.3020   16.7560   19.1200 O   0  0  0  0  0  0  0  0  0  0  0  0
   11.0830   14.7600   18.4250 N   0  0  0  0  0  0  0  0  0  0  0  0
 19 17  1  0
 18 17  2  0
 16 17  1  6
 16 14  1  0
 14 13  1  0
 13 12  1  0
 12 11  1  0
 11  9  1  0
 10  9  2  0
  9  8  1  0
  8  7  1  0
  7  6  2  0
  6  5  1  0
  5  4  2  0
  4  3  1  0
  3  2  2  0
  7  2  1  0
  2  1  1  0
 15 11  1  0
 16 15  1  0
M  END
$$$$
