A71EV2A-x4547_A_201_1_A71EV2A-x0911+A+147+1__LIG
     RDKit          3D

 21 23  0  0  0  0  0  0  0  0999 V2000
   11.3730   14.7090   24.9610 O   0  0  0  0  0  0  0  0  0  0  0  0
   11.2520   14.7840   23.7420 C   0  0  0  0  0  0  0  0  0  0  0  0
   12.4750   14.9930   22.8790 C   0  0  0  0  0  0  0  0  0  0  0  0
   12.2860   14.8500   21.3610 C   0  0  0  0  0  0  0  0  0  0  0  0
   10.9440   15.4410   20.9680 C   0  0  1  0  0  0  0  0  0  0  0  0
   10.7410   15.5800   19.4700 C   0  0  0  0  0  0  0  0  0  0  0  0
   10.1360   16.5470   19.0240 O   0  0  0  0  0  0  0  0  0  0  0  0
   11.2090   14.6100   18.6890 N   0  0  0  0  0  0  0  0  0  0  0  0
    9.7970   14.7320   21.6810 C   0  0  0  0  0  0  0  0  0  0  0  0
   10.0470   14.6840   23.1260 N   0  0  0  0  0  0  0  0  0  0  0  0
    8.8710   14.3860   23.9180 C   0  0  0  0  0  0  0  0  0  0  0  0
    8.5580   12.9110   24.0310 C   0  0  0  0  0  0  0  0  0  0  0  0
    9.2370   12.0100   23.3570 N   0  0  0  0  0  0  0  0  0  0  0  0
    7.5610   12.2860   24.8510 C   0  0  0  0  0  0  0  0  0  0  0  0
    7.6870   10.9170   24.5980 C   0  0  0  0  0  0  0  0  0  0  0  0
    8.7040   10.7900   23.7020 N   0  0  0  0  0  0  0  0  0  0  0  0
    9.3180    9.5620   23.2130 C   0  0  0  0  0  0  0  0  0  0  0  0
    6.9100    9.9730   25.2530 C   0  0  0  0  0  0  0  0  0  0  0  0
    6.0030   10.4230   26.2060 C   0  0  0  0  0  0  0  0  0  0  0  0
    5.8690   11.7850   26.4780 C   0  0  0  0  0  0  0  0  0  0  0  0
    6.6380   12.7200   25.7970 C   0  0  0  0  0  0  0  0  0  0  0  0
 17 16  1  0
 16 13  1  0
 13 12  2  0
 12 11  1  0
 11 10  1  0
 10  9  1  0
  9  5  1  0
  5  6  1  6
  8  6  1  0
  7  6  2  0
  5  4  1  0
  4  3  1  0
  3  2  1  0
 10  2  1  0
  2  1  2  0
 14 12  1  0
 14 21  2  0
 21 20  1  0
 20 19  2  0
 19 18  1  0
 18 15  2  0
 15 14  1  0
 16 15  1  0
M  END
$$$$
