A71EV2A-x3890_A_201_1_A71EV2A-x0911+A+147+1__LIG
     RDKit          3D

 21 22  0  0  0  0  0  0  0  0999 V2000
   10.1620   16.4590   19.0550 O   0  0  0  0  0  0  0  0  0  0  0  0
   10.6070   15.3420   19.3320 C   0  0  0  0  0  0  0  0  0  0  0  0
   11.0960   14.5130   18.4190 N   0  0  0  0  0  0  0  0  0  0  0  0
   10.5950   14.8230   20.7600 C   0  0  1  0  0  0  0  0  0  0  0  0
   11.7560   15.3980   21.5830 C   0  0  0  0  0  0  0  0  0  0  0  0
   11.8090   14.7370   22.9590 C   0  0  0  0  0  0  0  0  0  0  0  0
   10.4920   14.9190   23.6790 C   0  0  0  0  0  0  0  0  0  0  0  0
    9.2750   15.0250   21.5100 C   0  0  0  0  0  0  0  0  0  0  0  0
    9.3560   14.4510   22.8590 N   0  0  0  0  0  0  0  0  0  0  0  0
    8.3930   13.6230   23.3220 C   0  0  0  0  0  0  0  0  0  0  0  0
    7.4910   13.2390   22.6060 O   0  0  0  0  0  0  0  0  0  0  0  0
    8.3970   13.2600   24.8250 C   0  0  1  0  0  0  0  0  0  0  0  0
    8.0000   14.4720   25.5730 N   0  0  0  0  0  0  0  0  0  0  0  0
    7.5250   12.0650   25.1890 C   0  0  0  0  0  0  0  0  0  0  0  0
    7.8580   10.7710   24.7890 C   0  0  0  0  0  0  0  0  0  0  0  0
    8.9460   10.6740   23.9620 O   0  0  0  0  0  0  0  0  0  0  0  0
    9.3900    9.3680   23.5810 C   0  0  0  0  0  0  0  0  0  0  0  0
    6.4310   12.2260   26.0360 C   0  0  0  0  0  0  0  0  0  0  0  0
    5.7100   11.1370   26.4870 C   0  0  0  0  0  0  0  0  0  0  0  0
    6.0530    9.8760   26.0870 C   0  0  0  0  0  0  0  0  0  0  0  0
    7.1220    9.6810   25.2310 C   0  0  0  0  0  0  0  0  0  0  0  0
 17 16  1  0
 16 15  1  0
 15 21  2  0
 21 20  1  0
 20 19  2  0
 19 18  1  0
 18 14  2  0
 15 14  1  0
 14 12  1  0
 12 13  1  1
 12 10  1  0
 11 10  2  0
 10  9  1  0
  9  7  1  0
  7  6  1  0
  6  5  1  0
  5  4  1  0
  4  2  1  6
  3  2  1  0
  2  1  2  0
  8  4  1  0
  9  8  1  0
M  END
$$$$
