A71EV2A-x3982_A_201_1_A71EV2A-x0911+A+147+1__LIG
     RDKit          3D

 24 26  0  0  0  0  0  0  0  0999 V2000
    7.7190   13.4780   22.5490 O   0  0  0  0  0  0  0  0  0  0  0  0
    8.5590   13.9550   23.2940 C   0  0  0  0  0  0  0  0  0  0  0  0
    9.3400   14.9940   22.9180 N   0  0  0  0  0  0  0  0  0  0  0  0
   10.3290   15.6880   23.7580 C   0  0  0  0  0  0  0  0  0  0  0  0
   11.7280   15.5390   23.1810 C   0  0  0  0  0  0  0  0  0  0  0  0
   11.7550   15.9660   21.7120 C   0  0  0  0  0  0  0  0  0  0  0  0
    9.3160   15.4940   21.5420 C   0  0  0  0  0  0  0  0  0  0  0  0
   10.6760   15.2360   20.8890 C   0  0  1  0  0  0  0  0  0  0  0  0
   10.6290   15.7580   19.4650 C   0  0  0  0  0  0  0  0  0  0  0  0
   10.3780   16.9420   19.2310 O   0  0  0  0  0  0  0  0  0  0  0  0
   10.8420   14.8610   18.5130 N   0  0  0  0  0  0  0  0  0  0  0  0
    8.8070   13.3560   24.6810 C   0  0  0  0  0  0  0  0  0  0  0  0
    8.6590   11.8390   24.6220 C   0  0  0  0  0  0  0  0  0  0  0  0
    9.5370   11.0940   23.8430 C   0  0  0  0  0  0  0  0  0  0  0  0
    9.3790    9.7280   23.7050 C   0  0  0  0  0  0  0  0  0  0  0  0
    8.3550    9.0840   24.3520 C   0  0  0  0  0  0  0  0  0  0  0  0
    7.4850    9.8040   25.1450 C   0  0  0  0  0  0  0  0  0  0  0  0
    7.6320   11.1740   25.2770 C   0  0  0  0  0  0  0  0  0  0  0  0
    8.0280   14.1010   25.7610 C   0  0  0  0  0  0  0  0  0  0  0  0
    8.6900   14.6310   26.8580 C   0  0  0  0  0  0  0  0  0  0  0  0
    8.0020   15.3350   27.8270 C   0  0  0  0  0  0  0  0  0  0  0  0
    6.6430   15.5360   27.7040 C   0  0  0  0  0  0  0  0  0  0  0  0
    5.9770   15.0360   26.6120 C   0  0  0  0  0  0  0  0  0  0  0  0
    6.6640   14.3200   25.6460 C   0  0  0  0  0  0  0  0  0  0  0  0
 11  9  1  0
 10  9  2  0
  8  9  1  6
  8  6  1  0
  6  5  1  0
  5  4  1  0
  4  3  1  0
  3  2  1  0
  2  1  2  0
 12  2  1  0
 19 12  1  0
 19 24  2  0
 24 23  1  0
 23 22  2  0
 22 21  1  0
 21 20  2  0
 20 19  1  0
 13 12  1  0
 13 18  2  0
 18 17  1  0
 17 16  2  0
 16 15  1  0
 15 14  2  0
 14 13  1  0
  7  3  1  0
  8  7  1  0
M  END
$$$$
