XX01ZVNS2B-x4811_A_188_6_XX01ZVNS2B-x4590+B+203+1__LIG
     RDKit          3D

 30 34  0  0  0  0  0  0  0  0999 V2000
  -10.4600    3.9130  -18.2560 Cl  0  0  0  0  0  0  0  0  0  0  0  0
   -8.9530    4.2800  -17.4670 C   0  0  0  0  0  0  0  0  0  0  0  0
   -7.8520    4.5680  -18.2470 C   0  0  0  0  0  0  0  0  0  0  0  0
   -6.6980    4.9700  -17.5920 C   0  0  0  0  0  0  0  0  0  0  0  0
   -6.6230    5.1070  -16.1950 C   0  0  0  0  0  0  0  0  0  0  0  0
   -5.2850    5.5120  -15.9490 C   0  0  0  0  0  0  0  0  0  0  0  0
   -4.5960    5.6060  -17.0690 N   0  0  0  0  0  0  0  0  0  0  0  0
   -5.4600    5.2750  -18.0780 N   0  0  0  0  0  0  0  0  0  0  0  0
   -5.0100    5.2760  -19.4710 C   0  0  0  0  0  0  0  0  0  0  0  0
   -4.7070    6.6470  -20.1080 C   0  0  0  0  0  0  0  0  0  0  0  0
   -3.5330    4.9280  -19.7530 C   0  0  0  0  0  0  0  0  0  0  0  0
   -3.5370    6.0130  -20.7610 N   0  0  0  0  0  0  0  0  0  0  0  0
   -8.9200    4.3570  -16.0820 C   0  0  0  0  0  0  0  0  0  0  0  0
   -7.7650    4.8010  -15.4350 C   0  0  0  0  0  0  0  0  0  0  0  0
   -7.7940    5.0530  -13.9550 C   0  0  0  0  0  0  0  0  0  0  0  0
   -7.2630    6.0560  -13.4840 O   0  0  0  0  0  0  0  0  0  0  0  0
   -8.3890    4.0950  -13.2000 N   0  0  0  0  0  0  0  0  0  0  0  0
   -8.4660    4.0380  -11.7840 C   0  0  0  0  0  0  0  0  0  0  0  0
   -8.6020    5.1960  -11.0230 C   0  0  0  0  0  0  0  0  0  0  0  0
   -8.6760    5.0810   -9.6580 C   0  0  0  0  0  0  0  0  0  0  0  0
   -8.8880    6.1970   -8.9240 F   0  0  0  0  0  0  0  0  0  0  0  0
   -8.5990    3.8550   -8.9950 C   0  0  0  0  0  0  0  0  0  0  0  0
   -8.4640    2.7080   -9.7700 C   0  0  0  0  0  0  0  0  0  0  0  0
   -8.4040    2.8000  -11.1530 C   0  0  0  0  0  0  0  0  0  0  0  0
   -8.6000    3.7880   -7.5630 N   0  0  0  0  0  0  0  0  0  0  0  0
   -7.7580    4.4700   -6.7200 C   0  0  0  0  0  0  0  0  0  0  0  0
   -6.8580    5.2140   -7.0780 O   0  0  0  0  0  0  0  0  0  0  0  0
   -8.1150    4.1040   -5.3070 C   0  0  0  0  0  0  0  0  0  0  0  0
   -9.4570    3.4100   -5.4180 C   0  0  0  0  0  0  0  0  0  0  0  0
   -9.5330    2.9110   -6.8450 C   0  0  0  0  0  0  0  0  0  0  0  0
 12 10  1  0
 10  9  1  0
  9  8  1  0
  8  7  1  0
  7  6  2  0
  6  5  1  0
  5 14  2  0
 15 14  1  0
 16 15  2  0
 17 15  1  0
 18 17  1  0
 18 24  2  0
 24 23  1  0
 23 22  2  0
 25 22  1  0
 25 30  1  0
 30 29  1  0
 29 28  1  0
 28 26  1  0
 26 25  1  0
 27 26  2  0
 22 20  1  0
 21 20  1  0
 20 19  2  0
 19 18  1  0
 14 13  1  0
 13  2  2  0
  2  1  1  0
  3  2  1  0
  4  3  2  0
  5  4  1  0
  8  4  1  0
 11  9  1  0
 12 11  1  0
M  END
$$$$
