XX01ZVNS2B-x1667_B_301_1_XX01ZVNS2B-x4590+B+203+1__LIG
     RDKit          3D

 18 19  0  0  0  0  0  0  0  0999 V2000
   -5.2630    5.5610  -18.4070 C   0  0  0  0  0  0  0  0  0  0  0  0
   -6.4680    5.1100  -17.6230 C   0  0  0  0  0  0  0  0  0  0  0  0
   -7.5930    4.6070  -18.2560 C   0  0  0  0  0  0  0  0  0  0  0  0
   -8.6950    4.1860  -17.5310 C   0  0  0  0  0  0  0  0  0  0  0  0
   -8.6810    4.2500  -16.1490 C   0  0  0  0  0  0  0  0  0  0  0  0
   -7.5620    4.7440  -15.4830 C   0  0  0  0  0  0  0  0  0  0  0  0
   -6.4660    5.1680  -16.2350 C   0  0  0  0  0  0  0  0  0  0  0  0
   -7.4320    4.8740  -13.9960 C   0  0  0  0  0  0  0  0  0  0  0  0
   -6.5020    5.5140  -13.5200 O   0  0  0  0  0  0  0  0  0  0  0  0
   -8.3690    4.2830  -13.2180 N   0  0  0  0  0  0  0  0  0  0  0  0
   -8.4370    4.3880  -11.7900 C   0  0  0  0  0  0  0  0  0  0  0  0
   -8.2920    3.2400  -11.0140 C   0  0  0  0  0  0  0  0  0  0  0  0
   -8.3320    3.3310   -9.6270 C   0  0  0  0  0  0  0  0  0  0  0  0
   -8.5180    4.5780   -9.0290 C   0  0  0  0  0  0  0  0  0  0  0  0
   -8.6540    5.7150   -9.8020 C   0  0  0  0  0  0  0  0  0  0  0  0
   -8.6160    5.6510  -11.1970 C   0  0  0  0  0  0  0  0  0  0  0  0
   -8.7680    6.9050  -12.0070 C   0  0  0  0  0  0  0  0  0  0  0  0
   -8.1990    2.1990   -8.8440 N   0  0  0  0  0  0  0  0  0  0  0  0
  1  2  1  0
  2  3  2  0
  3  4  1  0
  4  5  2  0
  5  6  1  0
  6  7  2  0
  6  8  1  0
  8  9  2  0
  8 10  1  0
 10 11  1  0
 11 12  2  0
 12 13  1  0
 13 14  2  0
 14 15  1  0
 15 16  2  0
 16 17  1  0
 13 18  1  0
  2  7  1  0
 11 16  1  0
M  END
$$$$
