A71EV2A-x4260_A_201_1_A71EV2A-x0911+A+147+1__LIG
     RDKit          3D

 22 24  0  0  0  0  0  0  0  0999 V2000
    9.4110    8.8160   23.4200 Cl  0  0  0  0  0  0  0  0  0  0  0  0
    8.4940    9.9960   24.3200 C   0  0  0  0  0  0  0  0  0  0  0  0
    7.4760    9.5760   25.1450 C   0  0  0  0  0  0  0  0  0  0  0  0
    6.7370   10.5160   25.8420 C   0  0  0  0  0  0  0  0  0  0  0  0
    8.7950   11.3310   24.1670 C   0  0  0  0  0  0  0  0  0  0  0  0
    8.0500   12.2960   24.8470 C   0  0  0  0  0  0  0  0  0  0  0  0
    7.0110   11.8660   25.6730 C   0  0  0  0  0  0  0  0  0  0  0  0
    6.1370   12.7350   26.2770 O   0  0  0  0  0  0  0  0  0  0  0  0
    6.7030   14.0350   26.6040 C   0  0  0  0  0  0  0  0  0  0  0  0
    7.3560   14.7180   25.4310 C   0  0  0  0  0  0  0  0  0  0  0  0
    8.3620   13.7750   24.7180 C   0  0  2  0  0  0  0  0  0  0  0  0
    8.4300   14.1040   23.2270 C   0  0  0  0  0  0  0  0  0  0  0  0
    7.6850   13.5420   22.4420 O   0  0  0  0  0  0  0  0  0  0  0  0
    9.2880   15.0680   22.8210 N   0  0  0  0  0  0  0  0  0  0  0  0
   10.3100   15.7320   23.6480 C   0  0  0  0  0  0  0  0  0  0  0  0
   11.7010   15.5660   23.0510 C   0  0  0  0  0  0  0  0  0  0  0  0
   11.7180   15.9820   21.5780 C   0  0  0  0  0  0  0  0  0  0  0  0
    9.2570   15.5670   21.4440 C   0  0  0  0  0  0  0  0  0  0  0  0
   10.6060   15.2790   20.7870 C   0  0  1  0  0  0  0  0  0  0  0  0
   10.6640   15.6380   19.3120 C   0  0  0  0  0  0  0  0  0  0  0  0
   10.8620   14.7730   18.4580 O   0  0  0  0  0  0  0  0  0  0  0  0
   10.4940   16.9140   19.0160 N   0  0  0  0  0  0  0  0  0  0  0  0
 22 20  1  0
 21 20  2  0
 19 20  1  6
 19 17  1  0
 17 16  1  0
 16 15  1  0
 15 14  1  0
 14 12  1  0
 13 12  2  0
 11 12  1  6
 11 10  1  0
 10  9  1  0
  9  8  1  0
  8  7  1  0
  7  4  2  0
  4  3  1  0
  3  2  2  0
  2  1  1  0
  5  2  1  0
  6  5  2  0
  7  6  1  0
 11  6  1  0
 18 14  1  0
 19 18  1  0
M  END
$$$$
