XX01ZVNS2B-x3850_B_203_1_XX01ZVNS2B-x4590+B+203+1__LIG
     RDKit          3D

 22 25  0  0  0  0  0  0  0  0999 V2000
  -10.2360    3.6990  -17.7730 F   0  0  0  0  0  0  0  0  0  0  0  0
   -9.0360    4.1050  -17.2680 C   0  0  0  0  0  0  0  0  0  0  0  0
   -8.9060    4.2250  -15.9010 C   0  0  0  0  0  0  0  0  0  0  0  0
   -8.0260    4.3790  -18.1550 C   0  0  0  0  0  0  0  0  0  0  0  0
   -6.8180    4.8200  -17.6280 C   0  0  0  0  0  0  0  0  0  0  0  0
   -6.6100    4.9570  -16.2400 C   0  0  0  0  0  0  0  0  0  0  0  0
   -5.2870    5.4490  -16.1310 C   0  0  0  0  0  0  0  0  0  0  0  0
   -4.7290    5.6060  -17.3170 N   0  0  0  0  0  0  0  0  0  0  0  0
   -5.6680    5.2220  -18.2300 N   0  0  0  0  0  0  0  0  0  0  0  0
   -7.6780    4.6470  -15.3780 C   0  0  0  0  0  0  0  0  0  0  0  0
   -7.5430    4.7900  -13.8880 C   0  0  0  0  0  0  0  0  0  0  0  0
   -6.7750    5.6210  -13.4050 O   0  0  0  0  0  0  0  0  0  0  0  0
   -8.3210    3.9650  -13.1380 N   0  0  0  0  0  0  0  0  0  0  0  0
   -8.4210    3.9300  -11.7220 C   0  0  0  0  0  0  0  0  0  0  0  0
   -8.6610    2.7520  -11.0240 C   0  0  0  0  0  0  0  0  0  0  0  0
   -8.7380    2.7800   -9.6350 C   0  0  0  0  0  0  0  0  0  0  0  0
   -9.0620    1.6840   -8.6610 C   0  0  0  0  0  0  0  0  0  0  0  0
   -8.8230    2.3190   -7.3690 N   0  0  0  0  0  0  0  0  0  0  0  0
   -8.6290    3.7540   -7.5070 C   0  0  0  0  0  0  0  0  0  0  0  0
   -8.5510    4.0070   -8.9770 C   0  0  0  0  0  0  0  0  0  0  0  0
   -8.3330    5.1500   -9.6460 N   0  0  0  0  0  0  0  0  0  0  0  0
   -8.2760    5.0970  -10.9820 C   0  0  0  0  0  0  0  0  0  0  0  0
 12 11  2  0
 13 11  1  0
 14 13  1  0
 14 22  2  0
 22 21  1  0
 21 20  2  0
 20 16  1  0
 16 15  2  0
 15 14  1  0
 17 16  1  0
 18 17  1  0
 19 18  1  0
 20 19  1  0
 11 10  1  0
 10  3  1  0
  3  2  2  0
  2  1  1  0
  4  2  1  0
  5  4  2  0
  5  9  1  0
  9  8  1  0
  8  7  2  0
  7  6  1  0
 10  6  2  0
  6  5  1  0
M  END
$$$$
