XX01ZVNS2B-x0429_B_203_1_XX01ZVNS2B-x4590+B+203+1__LIG
     RDKit          3D

 16 18  0  0  0  0  0  0  0  0999 V2000
   -7.4390    4.6770  -16.0770 C   0  0  0  0  0  0  0  0  0  0  0  0
   -8.7410    4.2810  -16.1590 C   0  0  0  0  0  0  0  0  0  0  0  0
   -9.3580    4.1270  -17.3920 C   0  0  0  0  0  0  0  0  0  0  0  0
   -8.6780    4.3820  -18.5480 C   0  0  0  0  0  0  0  0  0  0  0  0
   -6.6930    4.9610  -17.2480 C   0  0  0  0  0  0  0  0  0  0  0  0
   -7.3330    4.8190  -18.5060 C   0  0  0  0  0  0  0  0  0  0  0  0
   -6.7070    5.1120  -19.6920 N   0  0  0  0  0  0  0  0  0  0  0  0
   -5.4610    5.5420  -19.6320 C   0  0  0  0  0  0  0  0  0  0  0  0
   -4.7360    5.6980  -18.4660 C   0  0  0  0  0  0  0  0  0  0  0  0
   -5.3340    5.3990  -17.2570 C   0  0  0  0  0  0  0  0  0  0  0  0
   -4.6190    5.4680  -16.0290 N   0  0  0  0  0  0  0  0  0  0  0  0
   -4.5410    6.8200  -15.4520 C   0  0  0  0  0  0  0  0  0  0  0  0
   -3.3260    4.7670  -16.0620 C   0  0  0  0  0  0  0  0  0  0  0  0
   -2.6440    4.7310  -14.7020 C   0  0  0  0  0  0  0  0  0  0  0  0
   -3.3580    5.5510  -13.6990 N   0  0  0  0  0  0  0  0  0  0  0  0
   -3.6460    6.8970  -14.2260 C   0  0  0  0  0  0  0  0  0  0  0  0
 16 12  1  0
 12 11  1  0
 13 11  1  0
 14 13  1  0
 15 14  1  0
 16 15  1  0
 11 10  1  0
 10  9  1  0
  9  8  2  0
  8  7  1  0
  7  6  2  0
  6  4  1  0
  4  3  2  0
  3  2  1  0
  2  1  2  0
  5  1  1  0
 10  5  2  0
  6  5  1  0
M  END
$$$$
