A71EV2A-x4669_A_201_1_A71EV2A-x0911+A+147+1__LIG
     RDKit          3D

 23 25  0  0  0  0  0  0  0  0999 V2000
    9.1220    9.9790   24.0670 Cl  0  0  0  0  0  0  0  0  0  0  0  0
    7.9600   10.7470   25.1070 C   0  0  0  0  0  0  0  0  0  0  0  0
    6.9620    9.9560   25.6430 C   0  0  0  0  0  0  0  0  0  0  0  0
    5.9540   10.5470   26.3690 C   0  0  0  0  0  0  0  0  0  0  0  0
    4.9110    9.7520   26.7810 O   0  0  0  0  0  0  0  0  0  0  0  0
    4.0690   10.3430   27.8000 C   0  0  0  0  0  0  0  0  0  0  0  0
    3.8390   11.8370   27.6050 C   0  0  0  0  0  0  0  0  0  0  0  0
    5.0720   12.5540   27.4130 O   0  0  0  0  0  0  0  0  0  0  0  0
    5.9750   11.9320   26.5900 C   0  0  0  0  0  0  0  0  0  0  0  0
    6.9820   12.7020   26.0450 C   0  0  0  0  0  0  0  0  0  0  0  0
    8.0070   12.1240   25.2980 C   0  0  0  0  0  0  0  0  0  0  0  0
    9.1420   12.9780   24.7780 C   0  0  0  0  0  0  0  0  0  0  0  0
    8.8350   13.5860   23.4220 C   0  0  0  0  0  0  0  0  0  0  0  0
    7.8970   13.1940   22.7450 O   0  0  0  0  0  0  0  0  0  0  0  0
    9.6680   14.5600   22.9960 N   0  0  0  0  0  0  0  0  0  0  0  0
   10.7770   15.1230   23.7830 C   0  0  0  0  0  0  0  0  0  0  0  0
   12.1090   15.0040   23.0470 C   0  0  0  0  0  0  0  0  0  0  0  0
   12.0030   15.5740   21.6290 C   0  0  0  0  0  0  0  0  0  0  0  0
    9.5450   15.0900   21.6320 C   0  0  0  0  0  0  0  0  0  0  0  0
   10.8560   14.8900   20.8630 C   0  0  1  0  0  0  0  0  0  0  0  0
   10.7140   15.4210   19.4470 C   0  0  0  0  0  0  0  0  0  0  0  0
   10.2920   16.5570   19.2330 O   0  0  0  0  0  0  0  0  0  0  0  0
   11.0080   14.5650   18.4690 N   0  0  0  0  0  0  0  0  0  0  0  0
 23 21  1  0
 22 21  2  0
 20 21  1  6
 20 18  1  0
 18 17  1  0
 17 16  1  0
 16 15  1  0
 15 13  1  0
 14 13  2  0
 13 12  1  0
 12 11  1  0
 11 10  2  0
 10  9  1  0
  9  4  2  0
  4  3  1  0
  3  2  2  0
 11  2  1  0
  2  1  1  0
  5  4  1  0
  6  5  1  0
  7  6  1  0
  8  7  1  0
  9  8  1  0
 19 15  1  0
 20 19  1  0
M  END
$$$$
