XX01ZVNS2B-x4206_B_203_6_XX01ZVNS2B-x4590+B+203+1__LIG
     RDKit          3D

 26 30  0  0  0  0  0  0  0  0999 V2000
  -10.2590    3.6470  -18.3000 Br  0  0  0  0  0  0  0  0  0  0  0  0
   -8.6690    4.0900  -17.3530 C   0  0  0  0  0  0  0  0  0  0  0  0
   -8.6830    4.1290  -15.9570 C   0  0  0  0  0  0  0  0  0  0  0  0
   -7.5400    4.3970  -18.0810 C   0  0  0  0  0  0  0  0  0  0  0  0
   -6.3810    4.7450  -17.3890 C   0  0  0  0  0  0  0  0  0  0  0  0
   -6.3400    4.8040  -15.9830 C   0  0  0  0  0  0  0  0  0  0  0  0
   -4.9760    5.1360  -15.6810 C   0  0  0  0  0  0  0  0  0  0  0  0
   -4.3400    5.2190  -16.8590 N   0  0  0  0  0  0  0  0  0  0  0  0
   -2.8800    5.4060  -17.0470 C   0  0  0  0  0  0  0  0  0  0  0  0
   -2.4200    6.8680  -16.8830 C   0  0  0  0  0  0  0  0  0  0  0  0
   -2.5330    7.0090  -18.3530 N   0  0  0  0  0  0  0  0  0  0  0  0
   -2.3580    5.5420  -18.4940 C   0  0  0  0  0  0  0  0  0  0  0  0
   -5.1520    5.0090  -17.9410 N   0  0  0  0  0  0  0  0  0  0  0  0
   -7.5150    4.4940  -15.2630 C   0  0  0  0  0  0  0  0  0  0  0  0
   -7.4730    4.6180  -13.7560 C   0  0  0  0  0  0  0  0  0  0  0  0
   -6.5990    5.3010  -13.2300 O   0  0  0  0  0  0  0  0  0  0  0  0
   -8.3920    3.9300  -13.0160 N   0  0  0  0  0  0  0  0  0  0  0  0
   -8.4770    3.9090  -11.5800 C   0  0  0  0  0  0  0  0  0  0  0  0
   -8.6710    2.7200  -10.8700 C   0  0  0  0  0  0  0  0  0  0  0  0
   -8.7100    2.7320   -9.4720 C   0  0  0  0  0  0  0  0  0  0  0  0
   -9.0150    1.6140   -8.5190 C   0  0  0  0  0  0  0  0  0  0  0  0
   -8.6650    2.2040   -7.2080 N   0  0  0  0  0  0  0  0  0  0  0  0
   -8.5410    3.6770   -7.2980 C   0  0  0  0  0  0  0  0  0  0  0  0
   -8.5290    3.9210   -8.7780 C   0  0  0  0  0  0  0  0  0  0  0  0
   -8.3450    5.1040   -9.4850 C   0  0  0  0  0  0  0  0  0  0  0  0
   -8.3170    5.1020  -10.8730 C   0  0  0  0  0  0  0  0  0  0  0  0
 16 15  2  0
 17 15  1  0
 18 17  1  0
 18 26  2  0
 26 25  1  0
 25 24  2  0
 24 20  1  0
 20 19  2  0
 19 18  1  0
 21 20  1  0
 22 21  1  0
 23 22  1  0
 24 23  1  0
 15 14  1  0
 14  3  2  0
  3  2  1  0
  2  1  1  0
  4  2  2  0
  5  4  1  0
  5 13  2  0
 13  8  1  0
  9  8  1  0
  9 12  1  0
 12 11  1  0
 11 10  1  0
 10  9  1  0
  8  7  1  0
  7  6  2  0
 14  6  1  0
  6  5  1  0
M  END
$$$$
