XX01ZVNS2B-x3720_B_203_5_XX01ZVNS2B-x4590+B+203+1__LIG
     RDKit          3D

 30 34  0  0  0  0  0  0  0  0999 V2000
  -10.2440    3.7730  -17.6690 F   0  0  0  0  0  0  0  0  0  0  0  0
   -9.0510    4.2080  -17.1860 C   0  0  0  0  0  0  0  0  0  0  0  0
   -8.0640    4.5100  -18.0890 C   0  0  0  0  0  0  0  0  0  0  0  0
   -6.8440    4.9550  -17.5940 C   0  0  0  0  0  0  0  0  0  0  0  0
   -6.6400    5.0680  -16.2180 C   0  0  0  0  0  0  0  0  0  0  0  0
   -5.3220    5.4510  -15.9770 N   0  0  0  0  0  0  0  0  0  0  0  0
   -5.6310    5.2560  -18.1860 N   0  0  0  0  0  0  0  0  0  0  0  0
   -4.7640    5.5300  -17.1740 C   0  0  0  0  0  0  0  0  0  0  0  0
   -3.3330    5.7940  -17.3910 C   0  0  0  0  0  0  0  0  0  0  0  0
   -2.7870    5.8040  -18.5780 N   0  0  0  0  0  0  0  0  0  0  0  0
   -1.4030    6.0200  -18.5430 N   0  0  0  0  0  0  0  0  0  0  0  0
   -2.1970    6.0540  -16.0920 S   0  0  0  0  0  0  0  0  0  0  0  0
   -0.9460    6.1700  -17.3420 C   0  0  0  0  0  0  0  0  0  0  0  0
    0.4980    6.4340  -16.9920 C   0  0  0  0  0  0  0  0  0  0  0  0
    0.9950    5.4440  -15.9400 C   0  0  0  0  0  0  0  0  0  0  0  0
    1.4400    6.4690  -18.2000 C   0  0  0  0  0  0  0  0  0  0  0  0
   -8.9000    4.3110  -15.8200 C   0  0  0  0  0  0  0  0  0  0  0  0
   -7.6680    4.7420  -15.3190 C   0  0  0  0  0  0  0  0  0  0  0  0
   -7.4540    4.8150  -13.8330 C   0  0  0  0  0  0  0  0  0  0  0  0
   -6.5560    5.5120  -13.3640 O   0  0  0  0  0  0  0  0  0  0  0  0
   -8.3100    4.0880  -13.0690 N   0  0  0  0  0  0  0  0  0  0  0  0
   -8.3680    4.0440  -11.6500 C   0  0  0  0  0  0  0  0  0  0  0  0
   -8.6790    2.8630  -10.9780 C   0  0  0  0  0  0  0  0  0  0  0  0
   -8.7930    2.8560   -9.5900 C   0  0  0  0  0  0  0  0  0  0  0  0
   -9.1720    1.7340   -8.6680 C   0  0  0  0  0  0  0  0  0  0  0  0
   -9.0280    2.3450   -7.3560 N   0  0  0  0  0  0  0  0  0  0  0  0
   -8.7690    3.7770   -7.4020 C   0  0  0  0  0  0  0  0  0  0  0  0
   -8.5800    4.0220   -8.8700 C   0  0  0  0  0  0  0  0  0  0  0  0
   -8.2560    5.1960   -9.5400 C   0  0  0  0  0  0  0  0  0  0  0  0
   -8.1540    5.2110  -10.9190 C   0  0  0  0  0  0  0  0  0  0  0  0
 16 14  1  0
 15 14  1  0
 14 13  1  0
 13 11  2  0
 11 10  1  0
 10  9  2  0
  9  8  1  0
  8  6  2  0
  6  5  1  0
  5 18  2  0
 19 18  1  0
 20 19  2  0
 21 19  1  0
 22 21  1  0
 22 30  2  0
 30 29  1  0
 29 28  2  0
 28 24  1  0
 24 23  2  0
 23 22  1  0
 25 24  1  0
 26 25  1  0
 27 26  1  0
 28 27  1  0
 18 17  1  0
 17  2  2  0
  2  1  1  0
  3  2  1  0
  4  3  2  0
  5  4  1  0
  7  4  1  0
  8  7  1  0
 12  9  1  0
 13 12  1  0
M  END
$$$$
