XX01ZVNS2B-x3819_B_203_1_XX01ZVNS2B-x4590+B+203+1__LIG
     RDKit          3D

 29 31  0  0  0  0  0  0  0  0999 V2000
   -2.6630    3.0770  -13.4950 F   0  0  0  0  0  0  0  0  0  0  0  0
   -3.5600    2.0640  -13.3440 C   0  0  0  0  0  0  0  0  0  0  0  0
   -4.0140    1.7910  -14.5980 F   0  0  0  0  0  0  0  0  0  0  0  0
   -4.7340    2.5280  -12.3580 C   0  0  0  0  0  0  0  0  0  0  0  0
   -5.7060    3.4050  -13.0070 N   0  0  0  0  0  0  0  0  0  0  0  0
   -6.7970    2.9230  -13.6010 C   0  0  0  0  0  0  0  0  0  0  0  0
   -6.9450    1.7470  -13.8960 O   0  0  0  0  0  0  0  0  0  0  0  0
   -7.9320    3.9050  -13.7970 C   0  0  2  0  0  0  0  0  0  0  0  0
   -7.9250    4.4190  -15.2380 C   0  0  0  0  0  0  0  0  0  0  0  0
   -9.0770    4.1560  -15.9720 C   0  0  0  0  0  0  0  0  0  0  0  0
   -9.1090    4.3660  -17.3300 C   0  0  0  0  0  0  0  0  0  0  0  0
  -10.5370    3.9190  -18.2110 Cl  0  0  0  0  0  0  0  0  0  0  0  0
   -8.0300    4.8770  -18.0060 C   0  0  0  0  0  0  0  0  0  0  0  0
   -6.8910    5.2080  -17.2970 C   0  0  0  0  0  0  0  0  0  0  0  0
   -6.8320    4.9760  -15.9240 C   0  0  0  0  0  0  0  0  0  0  0  0
   -5.7010    5.2770  -15.1940 O   0  0  0  0  0  0  0  0  0  0  0  0
   -4.4900    5.8030  -15.8650 C   0  0  0  0  0  0  0  0  0  0  0  0
   -3.5970    6.4610  -14.8470 C   0  0  0  0  0  0  0  0  0  0  0  0
   -3.7670    4.7340  -16.6650 C   0  0  0  0  0  0  0  0  0  0  0  0
   -8.1520    4.9330  -12.8010 N   0  0  0  0  0  0  0  0  0  0  0  0
   -8.3350    4.6900  -11.4360 C   0  0  0  0  0  0  0  0  0  0  0  0
   -8.7430    3.4500  -10.9370 C   0  0  0  0  0  0  0  0  0  0  0  0
   -8.7990    3.2340   -9.5620 C   0  0  0  0  0  0  0  0  0  0  0  0
   -9.1560    1.9910   -8.8020 C   0  0  0  0  0  0  0  0  0  0  0  0
   -8.7900    2.3460   -7.4280 N   0  0  0  0  0  0  0  0  0  0  0  0
   -8.6190    3.7990   -7.2620 C   0  0  0  0  0  0  0  0  0  0  0  0
   -8.4770    4.2590   -8.6830 C   0  0  0  0  0  0  0  0  0  0  0  0
   -8.1040    5.5010   -9.1820 C   0  0  0  0  0  0  0  0  0  0  0  0
   -8.0340    5.7170  -10.5460 C   0  0  0  0  0  0  0  0  0  0  0  0
 19 17  1  0
 18 17  1  0
 17 16  1  0
 16 15  1  0
 15 14  1  0
 14 13  2  0
 13 11  1  0
 12 11  1  0
 11 10  2  0
 10  9  1  0
 15  9  2  0
  9  8  1  0
  8 20  1  1
 21 20  1  0
 21 29  2  0
 29 28  1  0
 28 27  2  0
 27 23  1  0
 23 22  2  0
 22 21  1  0
 24 23  1  0
 25 24  1  0
 26 25  1  0
 27 26  1  0
  8  6  1  0
  7  6  2  0
  6  5  1  0
  5  4  1  0
  4  2  1  0
  3  2  1  0
  2  1  1  0
M  END
$$$$
