A71EV2A-x4541_C_201_1_A71EV2A-x0911+A+147+1__LIG
     RDKit          3D

 20 21  0  0  0  0  0  0  0  0999 V2000
    9.5250   10.1860   23.4270 Cl  0  0  0  0  0  0  0  0  0  0  0  0
    8.3200   10.7160   24.5250 C   0  0  0  0  0  0  0  0  0  0  0  0
    7.2550    9.5870   25.1990 S   0  0  0  0  0  0  0  0  0  0  0  0
    6.4770   10.6900   26.1590 N   0  0  0  0  0  0  0  0  0  0  0  0
    7.0050   11.9100   25.9620 C   0  0  0  0  0  0  0  0  0  0  0  0
    8.0620   11.9570   25.0380 C   0  0  0  0  0  0  0  0  0  0  0  0
    8.8990   13.1910   24.7670 C   0  0  0  0  0  0  0  0  0  0  0  0
    8.5680   14.1930   25.6400 F   0  0  0  0  0  0  0  0  0  0  0  0
   10.2190   12.9250   25.0000 F   0  0  0  0  0  0  0  0  0  0  0  0
    8.7760   13.7420   23.3270 C   0  0  0  0  0  0  0  0  0  0  0  0
    7.9300   13.2520   22.6050 O   0  0  0  0  0  0  0  0  0  0  0  0
    9.5830   14.7460   22.9340 N   0  0  0  0  0  0  0  0  0  0  0  0
   10.5340   15.4750   23.7860 C   0  0  0  0  0  0  0  0  0  0  0  0
   11.9340   15.3950   23.2020 C   0  0  0  0  0  0  0  0  0  0  0  0
   11.9400   15.8560   21.7430 C   0  0  0  0  0  0  0  0  0  0  0  0
    9.5350   15.2240   21.5510 C   0  0  0  0  0  0  0  0  0  0  0  0
   10.9110   15.0740   20.9020 C   0  0  1  0  0  0  0  0  0  0  0  0
   10.8510   15.5880   19.4740 C   0  0  0  0  0  0  0  0  0  0  0  0
   10.4940   16.7450   19.2310 O   0  0  0  0  0  0  0  0  0  0  0  0
   11.1420   14.7060   18.5260 N   0  0  0  0  0  0  0  0  0  0  0  0
 20 18  1  0
 19 18  2  0
 17 18  1  6
 17 15  1  0
 15 14  1  0
 14 13  1  0
 13 12  1  0
 12 10  1  0
 11 10  2  0
 10  7  1  0
  8  7  1  0
  9  7  1  0
  7  6  1  0
  6  5  1  0
  5  4  2  0
  4  3  1  0
  3  2  1  0
  6  2  2  0
  2  1  1  0
 16 12  1  0
 17 16  1  0
M  END
$$$$
