XX01ZVNS2B-x1674_B_301_1_XX01ZVNS2B-x4590+B+203+1__LIG
     RDKit          3D

 14 15  0  0  0  0  0  0  0  0999 V2000
   -2.4400    5.7380  -17.3780 C   0  0  0  0  0  0  0  0  0  0  0  0
   -3.8830    5.4480  -17.6660 C   0  0  0  0  0  0  0  0  0  0  0  0
   -4.3310    5.3250  -18.9950 C   0  0  0  0  0  0  0  0  0  0  0  0
   -5.6590    5.0730  -19.2520 C   0  0  0  0  0  0  0  0  0  0  0  0
   -6.5590    4.9360  -18.1520 C   0  0  0  0  0  0  0  0  0  0  0  0
   -7.9300    4.6470  -18.3010 C   0  0  0  0  0  0  0  0  0  0  0  0
   -8.7390    4.5170  -17.2080 C   0  0  0  0  0  0  0  0  0  0  0  0
   -8.2210    4.6720  -15.9330 C   0  0  0  0  0  0  0  0  0  0  0  0
   -6.8860    4.9390  -15.7320 C   0  0  0  0  0  0  0  0  0  0  0  0
   -6.0240    5.0790  -16.8500 C   0  0  0  0  0  0  0  0  0  0  0  0
   -4.6940    5.3270  -16.6270 N   0  0  0  0  0  0  0  0  0  0  0  0
   -6.2730    5.1060  -14.1160 Cl  0  0  0  0  0  0  0  0  0  0  0  0
   -9.2830    4.5200  -14.5700 Cl  0  0  0  0  0  0  0  0  0  0  0  0
   -6.1260    4.9590  -20.5410 N   0  0  0  0  0  0  0  0  0  0  0  0
  1  2  1  0
  2  3  2  0
  3  4  1  0
  4  5  2  0
  5  6  1  0
  6  7  2  0
  7  8  1  0
  8  9  2  0
  9 10  1  0
 10 11  2  0
  9 12  1  0
  8 13  1  0
  4 14  1  0
  2 11  1  0
  5 10  1  0
M  END
$$$$
