A71EV2A-x4689_A_201_1_A71EV2A-x0911+A+147+1__LIG
     RDKit          3D

 20 21  0  0  0  0  0  0  0  0999 V2000
   10.4670   16.4960   19.0170 O   0  0  0  0  0  0  0  0  0  0  0  0
   10.8020   15.3640   19.3680 C   0  0  0  0  0  0  0  0  0  0  0  0
   11.1960   14.4410   18.5130 N   0  0  0  0  0  0  0  0  0  0  0  0
   10.7900   14.9570   20.8320 C   0  0  1  0  0  0  0  0  0  0  0  0
   11.8550   15.7250   21.6240 C   0  0  0  0  0  0  0  0  0  0  0  0
   11.8780   15.2960   23.0890 C   0  0  0  0  0  0  0  0  0  0  0  0
   10.4970   15.4320   23.7090 C   0  0  0  0  0  0  0  0  0  0  0  0
    9.4240   15.1010   21.5170 C   0  0  0  0  0  0  0  0  0  0  0  0
    9.4940   14.6950   22.9260 N   0  0  0  0  0  0  0  0  0  0  0  0
    8.6640   13.7580   23.4420 C   0  0  0  0  0  0  0  0  0  0  0  0
    7.7680   13.2530   22.7830 O   0  0  0  0  0  0  0  0  0  0  0  0
    8.8950   13.3430   24.8850 C   0  0  0  0  0  0  0  0  0  0  0  0
    8.0240   12.1810   25.3140 C   0  0  0  0  0  0  0  0  0  0  0  0
    8.1840   10.8700   24.8390 C   0  0  0  0  0  0  0  0  0  0  0  0
    9.5130   10.4390   23.7600 S   0  0  0  0  0  0  0  0  0  0  0  0
    9.2690    8.6910   23.4820 C   0  0  0  0  0  0  0  0  0  0  0  0
    7.0340   12.4100   26.2680 C   0  0  0  0  0  0  0  0  0  0  0  0
    6.2430   11.3690   26.7050 C   0  0  0  0  0  0  0  0  0  0  0  0
    6.3490   10.1190   26.2590 N   0  0  0  0  0  0  0  0  0  0  0  0
    7.2920    9.8850   25.3450 C   0  0  0  0  0  0  0  0  0  0  0  0
 16 15  1  0
 15 14  1  0
 14 20  2  0
 20 19  1  0
 19 18  2  0
 18 17  1  0
 17 13  2  0
 14 13  1  0
 13 12  1  0
 12 10  1  0
 11 10  2  0
 10  9  1  0
  9  7  1  0
  7  6  1  0
  6  5  1  0
  5  4  1  0
  4  2  1  6
  3  2  1  0
  2  1  2  0
  8  4  1  0
  9  8  1  0
M  END
$$$$
