A71EV2A-x5488_A_201_5_A71EV2A-x0911+A+147+1__LIG
     RDKit          3D

 23 24  0  0  0  0  0  0  0  0999 V2000
    7.5590   13.3720   22.5760 O   0  0  0  0  0  0  0  0  0  0  0  0
    8.4830   13.7460   23.2930 C   0  0  0  0  0  0  0  0  0  0  0  0
    9.5270   14.4770   22.7890 N   0  0  0  0  0  0  0  0  0  0  0  0
    9.4810   14.8590   21.3680 C   0  0  0  0  0  0  0  0  0  0  0  0
   10.8600   15.2050   20.7970 C   0  0  1  0  0  0  0  0  0  0  0  0
   10.7260   15.6200   19.3420 C   0  0  0  0  0  0  0  0  0  0  0  0
   10.2630   16.7250   19.0330 O   0  0  0  0  0  0  0  0  0  0  0  0
   11.1260   14.7280   18.4500 N   0  0  0  0  0  0  0  0  0  0  0  0
   11.5860   16.2890   21.6200 C   0  0  0  0  0  0  0  0  0  0  0  0
   11.0810   16.3670   23.0660 C   0  0  0  0  0  0  0  0  0  0  0  0
   10.6510   14.9960   23.6030 C   0  0  2  0  0  0  0  0  0  0  0  0
   11.8410   14.0520   23.7080 C   0  0  0  0  0  0  0  0  0  0  0  0
   12.0820   13.7560   25.0610 O   0  0  0  0  0  0  0  0  0  0  0  0
   12.9920   14.6450   25.6920 C   0  0  0  0  0  0  0  0  0  0  0  0
    8.4720   13.4130   24.7770 C   0  0  0  0  0  0  0  0  0  0  0  0
    7.6790   12.1640   25.1010 C   0  0  0  0  0  0  0  0  0  0  0  0
    8.0290   10.8780   24.6560 C   0  0  0  0  0  0  0  0  0  0  0  0
    9.3590   10.6840   23.5110 S   0  0  0  0  0  0  0  0  0  0  0  0
    9.5310    8.9080   23.3560 C   0  0  0  0  0  0  0  0  0  0  0  0
    7.3130    9.7640   25.0900 C   0  0  0  0  0  0  0  0  0  0  0  0
    6.2490    9.9200   25.9590 C   0  0  0  0  0  0  0  0  0  0  0  0
    5.8870   11.1720   26.3900 C   0  0  0  0  0  0  0  0  0  0  0  0
    6.5850   12.2850   25.9570 C   0  0  0  0  0  0  0  0  0  0  0  0
 14 13  1  0
 13 12  1  0
 11 12  1  6
 11 10  1  0
 10  9  1  0
  9  5  1  0
  5  6  1  6
  8  6  1  0
  7  6  2  0
  5  4  1  0
  4  3  1  0
 11  3  1  0
  3  2  1  0
  2  1  2  0
 15  2  1  0
 16 15  1  0
 16 23  2  0
 23 22  1  0
 22 21  2  0
 21 20  1  0
 20 17  2  0
 17 16  1  0
 18 17  1  0
 19 18  1  0
M  END
$$$$
