A71EV2A-x4298_A_201_1_A71EV2A-x0911+A+147+1__LIG
     RDKit          3D

 20 21  0  0  0  0  0  0  0  0999 V2000
   10.2790   16.6690   19.0850 O   0  0  0  0  0  0  0  0  0  0  0  0
   10.5670   15.5030   19.3800 C   0  0  0  0  0  0  0  0  0  0  0  0
   10.9270   14.5940   18.4790 N   0  0  0  0  0  0  0  0  0  0  0  0
   10.5100   15.0230   20.8190 C   0  0  1  0  0  0  0  0  0  0  0  0
   11.6890   15.5510   21.6580 C   0  0  0  0  0  0  0  0  0  0  0  0
   11.6470   14.9660   23.0730 C   0  0  0  0  0  0  0  0  0  0  0  0
   10.3030   15.2630   23.7450 C   0  0  0  0  0  0  0  0  0  0  0  0
    9.2130   15.4270   21.5290 C   0  0  0  0  0  0  0  0  0  0  0  0
    9.1840   14.8540   22.8810 N   0  0  0  0  0  0  0  0  0  0  0  0
    8.3330   13.8280   23.1660 C   0  0  0  0  0  0  0  0  0  0  0  0
    7.6210   13.3370   22.3110 O   0  0  0  0  0  0  0  0  0  0  0  0
    8.2450   13.4560   24.4740 N   0  0  0  0  0  0  0  0  0  0  0  0
    7.6340   12.3010   24.9850 C   0  0  0  0  0  0  0  0  0  0  0  0
    6.6420   12.2760   25.9620 C   0  0  0  0  0  0  0  0  0  0  0  0
    6.1320   11.0400   26.3360 C   0  0  0  0  0  0  0  0  0  0  0  0
    6.6130    9.8870   25.7440 C   0  0  0  0  0  0  0  0  0  0  0  0
    8.1280   11.2000   24.4160 N   0  0  0  0  0  0  0  0  0  0  0  0
    7.6270   10.0300   24.7960 C   0  0  0  0  0  0  0  0  0  0  0  0
    8.0550    8.8990   24.2060 O   0  0  0  0  0  0  0  0  0  0  0  0
    9.2790    8.9470   23.4560 C   0  0  0  0  0  0  0  0  0  0  0  0
 20 19  1  0
 19 18  1  0
 18 16  2  0
 16 15  1  0
 15 14  2  0
 14 13  1  0
 13 12  1  0
 12 10  1  0
 11 10  2  0
 10  9  1  0
  9  7  1  0
  7  6  1  0
  6  5  1  0
  5  4  1  0
  4  2  1  6
  3  2  1  0
  2  1  2  0
  8  4  1  0
  9  8  1  0
 17 13  2  0
 18 17  1  0
M  END
$$$$
