A71EV2A-x4918_A_201_1_A71EV2A-x0911+A+147+1__LIG
     RDKit          3D

 20 21  0  0  0  0  0  0  0  0999 V2000
   10.3940   16.6220   19.2730 O   0  0  0  0  0  0  0  0  0  0  0  0
   10.7870   15.4660   19.4960 C   0  0  0  0  0  0  0  0  0  0  0  0
   11.1780   14.6410   18.5310 N   0  0  0  0  0  0  0  0  0  0  0  0
   10.8120   14.9030   20.9090 C   0  0  1  0  0  0  0  0  0  0  0  0
   11.9650   15.5020   21.7330 C   0  0  0  0  0  0  0  0  0  0  0  0
   11.9900   14.9580   23.1670 C   0  0  0  0  0  0  0  0  0  0  0  0
   10.6310   15.1250   23.8330 C   0  0  0  0  0  0  0  0  0  0  0  0
    9.4810   15.0830   21.6520 C   0  0  0  0  0  0  0  0  0  0  0  0
    9.5620   14.5320   23.0110 N   0  0  0  0  0  0  0  0  0  0  0  0
    8.7130   13.5680   23.4410 C   0  0  0  0  0  0  0  0  0  0  0  0
    7.8100   13.1370   22.7360 O   0  0  0  0  0  0  0  0  0  0  0  0
    8.9400   13.0360   24.8470 C   0  0  0  0  0  0  0  0  0  0  0  0
    8.0610   11.8470   25.1700 C   0  0  0  0  0  0  0  0  0  0  0  0
    8.2530   10.5480   24.6480 C   0  0  0  0  0  0  0  0  0  0  0  0
    9.6060   10.3860   23.5320 S   0  0  0  0  0  0  0  0  0  0  0  0
    9.6600    8.6090   23.2540 C   0  0  0  0  0  0  0  0  0  0  0  0
    7.0140   11.9810   26.0830 C   0  0  0  0  0  0  0  0  0  0  0  0
    6.2240   10.8890   26.4120 C   0  0  0  0  0  0  0  0  0  0  0  0
    6.5110    9.6730   25.8390 C   0  0  0  0  0  0  0  0  0  0  0  0
    7.5220    9.4780   24.9770 N   0  0  0  0  0  0  0  0  0  0  0  0
 16 15  1  0
 15 14  1  0
 14 20  2  0
 20 19  1  0
 19 18  2  0
 18 17  1  0
 17 13  2  0
 14 13  1  0
 13 12  1  0
 12 10  1  0
 11 10  2  0
 10  9  1  0
  9  7  1  0
  7  6  1  0
  6  5  1  0
  5  4  1  0
  4  2  1  6
  3  2  1  0
  2  1  2  0
  8  4  1  0
  9  8  1  0
M  END
$$$$
