XX01ZVNS2B-x3553_B_203_5_XX01ZVNS2B-x4590+B+203+1__LIG
     RDKit          3D

 31 35  0  0  0  0  0  0  0  0999 V2000
   -7.7890    1.8690  -13.7600 O   0  0  0  0  0  0  0  0  0  0  0  0
   -7.0320    2.8030  -13.5330 C   0  0  0  0  0  0  0  0  0  0  0  0
   -5.7510    2.6170  -13.1950 N   0  0  0  0  0  0  0  0  0  0  0  0
   -4.8610    3.6650  -12.7150 C   0  0  0  0  0  0  0  0  0  0  0  0
   -4.2100    3.3260  -11.3790 C   0  0  0  0  0  0  0  0  0  0  0  0
   -5.1840    3.5070  -10.2140 C   0  0  0  0  0  0  0  0  0  0  0  0
   -4.5520    3.1500   -8.8840 C   0  0  0  0  0  0  0  0  0  0  0  0
   -3.2800    2.5120   -9.0140 O   0  0  0  0  0  0  0  0  0  0  0  0
   -3.2980    1.4410   -9.9600 C   0  0  0  0  0  0  0  0  0  0  0  0
   -3.6090    1.9170  -11.3670 C   0  0  0  0  0  0  0  0  0  0  0  0
   -7.5200    4.2610  -13.6780 C   0  0  2  0  0  0  0  0  0  0  0  0
   -8.6770    4.4990  -12.8370 N   0  0  0  0  0  0  0  0  0  0  0  0
   -8.6240    4.4070  -11.4500 C   0  0  0  0  0  0  0  0  0  0  0  0
   -8.1740    5.5060  -10.6990 C   0  0  0  0  0  0  0  0  0  0  0  0
   -8.1370    5.4370   -9.3160 C   0  0  0  0  0  0  0  0  0  0  0  0
   -8.4930    4.2470   -8.6910 C   0  0  0  0  0  0  0  0  0  0  0  0
   -8.9350    3.1560   -9.4290 C   0  0  0  0  0  0  0  0  0  0  0  0
   -9.0000    3.2140  -10.8140 C   0  0  0  0  0  0  0  0  0  0  0  0
   -9.3030    2.0380   -8.4940 C   0  0  0  0  0  0  0  0  0  0  0  0
   -8.6180    2.4490   -7.2620 N   0  0  0  0  0  0  0  0  0  0  0  0
   -8.5800    3.9200   -7.2290 C   0  0  0  0  0  0  0  0  0  0  0  0
   -7.7070    4.6000  -15.1510 C   0  0  0  0  0  0  0  0  0  0  0  0
   -8.8460    4.2260  -15.8660 C   0  0  0  0  0  0  0  0  0  0  0  0
   -8.9270    4.4440  -17.2500 C   0  0  0  0  0  0  0  0  0  0  0  0
  -10.3540    3.9670  -18.1410 Cl  0  0  0  0  0  0  0  0  0  0  0  0
   -7.8880    5.0040  -17.9720 C   0  0  0  0  0  0  0  0  0  0  0  0
   -6.7700    5.4090  -17.2530 C   0  0  0  0  0  0  0  0  0  0  0  0
   -5.6330    6.0150  -17.6600 N   0  0  0  0  0  0  0  0  0  0  0  0
   -4.7830    6.2180  -16.6150 N   0  0  0  0  0  0  0  0  0  0  0  0
   -5.3810    5.7340  -15.5420 C   0  0  0  0  0  0  0  0  0  0  0  0
   -6.6540    5.2120  -15.8670 C   0  0  0  0  0  0  0  0  0  0  0  0
  1  2  2  0
  2  3  1  0
  3  4  1  0
  4  5  1  0
  5  6  1  0
  6  7  1  0
  7  8  1  0
  8  9  1  0
  9 10  1  0
  2 11  1  0
 11 12  1  1
 12 13  1  0
 13 14  2  0
 14 15  1  0
 15 16  2  0
 16 17  1  0
 17 18  2  0
 17 19  1  0
 19 20  1  0
 20 21  1  0
 11 22  1  0
 22 23  2  0
 23 24  1  0
 24 25  1  0
 24 26  2  0
 26 27  1  0
 27 28  1  0
 28 29  1  0
 29 30  2  0
 30 31  1  0
  5 10  1  0
 13 18  1  0
 22 31  1  0
 16 21  1  0
 27 31  2  0
M  END
$$$$
