XX01ZVNS2B-x1398_B_301_1_XX01ZVNS2B-x4590+B+203+1__LIG
     RDKit          3D

 22 24  0  0  0  0  0  0  0  0999 V2000
   -1.9460    6.9490  -15.6900 C   0  0  0  0  0  0  0  0  0  0  0  0
   -3.2870    6.4050  -16.0640 C   0  0  0  0  0  0  0  0  0  0  0  0
   -3.9430    6.9750  -17.0840 N   0  0  0  0  0  0  0  0  0  0  0  0
   -5.1430    6.4720  -17.4010 C   0  0  0  0  0  0  0  0  0  0  0  0
   -5.7300    5.4190  -16.7090 C   0  0  0  0  0  0  0  0  0  0  0  0
   -7.0620    4.8440  -17.0660 C   0  0  0  0  0  0  0  0  0  0  0  0
   -7.2960    4.4600  -18.3890 C   0  0  0  0  0  0  0  0  0  0  0  0
   -8.4960    3.8990  -18.7770 C   0  0  0  0  0  0  0  0  0  0  0  0
   -9.4860    3.6880  -17.8450 C   0  0  0  0  0  0  0  0  0  0  0  0
   -9.2780    4.0360  -16.5270 C   0  0  0  0  0  0  0  0  0  0  0  0
   -8.0740    4.6110  -16.1120 C   0  0  0  0  0  0  0  0  0  0  0  0
   -7.9500    4.9800  -14.6570 C   0  0  0  0  0  0  0  0  0  0  0  0
   -7.5170    6.0730  -14.3230 O   0  0  0  0  0  0  0  0  0  0  0  0
   -8.3540    4.0510  -13.7410 N   0  0  0  0  0  0  0  0  0  0  0  0
   -8.2970    4.2130  -12.3440 C   0  0  0  0  0  0  0  0  0  0  0  0
   -8.6190    3.2520  -11.3710 C   0  0  0  0  0  0  0  0  0  0  0  0
   -8.4620    3.7150  -10.1410 N   0  0  0  0  0  0  0  0  0  0  0  0
   -8.0220    5.0000  -10.3070 N   0  0  0  0  0  0  0  0  0  0  0  0
   -7.7400    5.8390   -9.1440 C   0  0  0  0  0  0  0  0  0  0  0  0
   -7.9070    5.3320  -11.6160 C   0  0  0  0  0  0  0  0  0  0  0  0
   -4.9550    4.8990  -15.6790 C   0  0  0  0  0  0  0  0  0  0  0  0
   -3.7560    5.3830  -15.3430 N   0  0  0  0  0  0  0  0  0  0  0  0
  1  2  1  0
  2  3  2  0
  3  4  1  0
  4  5  2  0
  5  6  1  0
  6  7  2  0
  7  8  1  0
  8  9  2  0
  9 10  1  0
 10 11  2  0
 11 12  1  0
 12 13  2  0
 12 14  1  0
 14 15  1  0
 15 16  1  0
 16 17  2  0
 17 18  1  0
 18 19  1  0
 18 20  1  0
  5 21  1  0
 21 22  2  0
  2 22  1  0
  6 11  1  0
 15 20  2  0
M  END
$$$$
