A71EV2A-x4461_A_201_1_A71EV2A-x0911+A+147+1__LIG
     RDKit          3D

 19 20  0  0  0  0  0  0  0  0999 V2000
    9.2990   10.1620   23.6400 Cl  0  0  0  0  0  0  0  0  0  0  0  0
    8.1590   10.6910   24.8350 C   0  0  0  0  0  0  0  0  0  0  0  0
    7.2830    9.7780   25.3980 C   0  0  0  0  0  0  0  0  0  0  0  0
    6.3520   10.1230   26.2960 N   0  0  0  0  0  0  0  0  0  0  0  0
    6.3000   11.4090   26.6490 C   0  0  0  0  0  0  0  0  0  0  0  0
    7.1430   12.3790   26.1430 C   0  0  0  0  0  0  0  0  0  0  0  0
    8.1100   12.0290   25.2060 C   0  0  0  0  0  0  0  0  0  0  0  0
    9.1100   13.0470   24.7090 C   0  0  0  0  0  0  0  0  0  0  0  0
    8.7530   13.6340   23.3540 C   0  0  0  0  0  0  0  0  0  0  0  0
    7.8250   13.1990   22.6870 O   0  0  0  0  0  0  0  0  0  0  0  0
    9.5220   14.6640   22.9330 N   0  0  0  0  0  0  0  0  0  0  0  0
   10.4950   15.3860   23.7680 C   0  0  0  0  0  0  0  0  0  0  0  0
   11.8880   15.2980   23.1660 C   0  0  0  0  0  0  0  0  0  0  0  0
   11.8820   15.7580   21.7040 C   0  0  0  0  0  0  0  0  0  0  0  0
    9.4450   15.1690   21.5590 C   0  0  0  0  0  0  0  0  0  0  0  0
   10.8090   15.0340   20.8720 C   0  0  1  0  0  0  0  0  0  0  0  0
   10.7800   15.5440   19.4400 C   0  0  0  0  0  0  0  0  0  0  0  0
   10.5310   16.7240   19.1860 O   0  0  0  0  0  0  0  0  0  0  0  0
   11.0280   14.6480   18.5020 N   0  0  0  0  0  0  0  0  0  0  0  0
 19 17  1  0
 18 17  2  0
 16 17  1  6
 16 14  1  0
 14 13  1  0
 13 12  1  0
 12 11  1  0
 11  9  1  0
 10  9  2  0
  9  8  1  0
  8  7  1  0
  7  6  2  0
  6  5  1  0
  5  4  2  0
  4  3  1  0
  3  2  2  0
  7  2  1  0
  2  1  1  0
 15 11  1  0
 16 15  1  0
M  END
$$$$
