XX01ZVNS2B-x1261_B_301_1_XX01ZVNS2B-x4590+B+203+1__LIG
     RDKit          3D

 24 26  0  0  0  0  0  0  0  0999 V2000
   -4.6080   10.1610  -15.8580 C   0  0  0  0  0  0  0  0  0  0  0  0
   -4.6270    9.7280  -17.2160 O   0  0  0  0  0  0  0  0  0  0  0  0
   -3.6730    8.7110  -17.4940 C   0  0  0  0  0  0  0  0  0  0  0  0
   -4.1180    7.3720  -16.9610 C   0  0  0  0  0  0  0  0  0  0  0  0
   -5.3710    6.8400  -17.2420 C   0  0  0  0  0  0  0  0  0  0  0  0
   -5.7460    5.6170  -16.6880 C   0  0  0  0  0  0  0  0  0  0  0  0
   -7.0790    5.0100  -16.9810 C   0  0  0  0  0  0  0  0  0  0  0  0
   -7.3580    4.6540  -18.3010 C   0  0  0  0  0  0  0  0  0  0  0  0
   -8.5570    4.0660  -18.6560 C   0  0  0  0  0  0  0  0  0  0  0  0
   -9.5130    3.8230  -17.6970 C   0  0  0  0  0  0  0  0  0  0  0  0
   -9.2660    4.1580  -16.3790 C   0  0  0  0  0  0  0  0  0  0  0  0
   -8.0550    4.7440  -15.9970 C   0  0  0  0  0  0  0  0  0  0  0  0
   -7.8770    5.1110  -14.5490 C   0  0  0  0  0  0  0  0  0  0  0  0
   -7.4140    6.1990  -14.2420 O   0  0  0  0  0  0  0  0  0  0  0  0
   -8.2580    4.2020  -13.5960 N   0  0  0  0  0  0  0  0  0  0  0  0
   -8.2280    4.5040  -12.2190 C   0  0  0  0  0  0  0  0  0  0  0  0
   -7.9990    5.7940  -11.7000 C   0  0  0  0  0  0  0  0  0  0  0  0
   -8.0160    5.8130  -10.3770 N   0  0  0  0  0  0  0  0  0  0  0  0
   -8.2630    4.5190  -10.0100 N   0  0  0  0  0  0  0  0  0  0  0  0
   -8.3290    4.2580   -8.5760 C   0  0  0  0  0  0  0  0  0  0  0  0
   -8.3940    3.6940  -11.0820 C   0  0  0  0  0  0  0  0  0  0  0  0
   -4.8250    4.9600  -15.8910 C   0  0  0  0  0  0  0  0  0  0  0  0
   -3.5920    5.5400  -15.6530 C   0  0  0  0  0  0  0  0  0  0  0  0
   -3.2390    6.7280  -16.1750 N   0  0  0  0  0  0  0  0  0  0  0  0
  1  2  1  0
  2  3  1  0
  3  4  1  0
  4  5  2  0
  5  6  1  0
  6  7  1  0
  7  8  2  0
  8  9  1  0
  9 10  2  0
 10 11  1  0
 11 12  2  0
 12 13  1  0
 13 14  2  0
 13 15  1  0
 15 16  1  0
 16 17  1  0
 17 18  2  0
 18 19  1  0
 19 20  1  0
 19 21  1  0
  6 22  2  0
 22 23  1  0
 23 24  2  0
  4 24  1  0
  7 12  1  0
 16 21  2  0
M  END
$$$$
