A71EV2A-x3963_C_201_1_A71EV2A-x0911+A+147+1__LIG
     RDKit          3D

 19 20  0  0  0  0  0  0  0  0999 V2000
    7.9230   13.2890   22.6340 O   0  0  0  0  0  0  0  0  0  0  0  0
    8.8630   13.6910   23.3240 C   0  0  0  0  0  0  0  0  0  0  0  0
    9.6550   14.7190   22.9450 N   0  0  0  0  0  0  0  0  0  0  0  0
   10.6800   15.3910   23.7620 C   0  0  0  0  0  0  0  0  0  0  0  0
   12.0470   15.2950   23.0930 C   0  0  0  0  0  0  0  0  0  0  0  0
   11.9770   15.7900   21.6520 C   0  0  0  0  0  0  0  0  0  0  0  0
    9.5540   15.2300   21.5750 C   0  0  0  0  0  0  0  0  0  0  0  0
   10.8930   15.0400   20.8620 C   0  0  1  0  0  0  0  0  0  0  0  0
   10.7820   15.5600   19.4420 C   0  0  0  0  0  0  0  0  0  0  0  0
   10.4150   16.7250   19.2160 O   0  0  0  0  0  0  0  0  0  0  0  0
   11.0330   14.6690   18.4860 N   0  0  0  0  0  0  0  0  0  0  0  0
    9.2550   13.0430   24.6420 C   0  0  0  0  0  0  0  0  0  0  0  0
    8.2650   11.9980   25.0980 C   0  0  0  0  0  0  0  0  0  0  0  0
    8.3600   10.6220   24.7150 C   0  0  0  0  0  0  0  0  0  0  0  0
    9.2680   10.2020   23.8210 N   0  0  0  0  0  0  0  0  0  0  0  0
    7.5340    9.6890   25.2340 N   0  0  0  0  0  0  0  0  0  0  0  0
    6.6180   10.0700   26.1370 C   0  0  0  0  0  0  0  0  0  0  0  0
    6.4520   11.3640   26.5490 C   0  0  0  0  0  0  0  0  0  0  0  0
    7.2750   12.3360   26.0160 C   0  0  0  0  0  0  0  0  0  0  0  0
 11  9  1  0
 10  9  2  0
  8  9  1  6
  8  6  1  0
  6  5  1  0
  5  4  1  0
  4  3  1  0
  3  2  1  0
  2  1  2  0
 12  2  1  0
 13 12  1  0
 13 19  2  0
 19 18  1  0
 18 17  2  0
 17 16  1  0
 16 14  2  0
 14 13  1  0
 15 14  1  0
  7  3  1  0
  8  7  1  0
M  END
$$$$
