XX01ZVNS2B-x3469_B_203_1_XX01ZVNS2B-x4590+B+203+1__LIG
     RDKit          3D

 22 25  0  0  0  0  0  0  0  0999 V2000
   -6.5710    5.3220  -12.9030 O   0  0  0  0  0  0  0  0  0  0  0  0
   -7.4530    4.6530  -13.4390 C   0  0  0  0  0  0  0  0  0  0  0  0
   -8.3490    3.9180  -12.7440 N   0  0  0  0  0  0  0  0  0  0  0  0
   -8.4930    3.8960  -11.3350 C   0  0  0  0  0  0  0  0  0  0  0  0
   -8.2650    5.0600  -10.6020 C   0  0  0  0  0  0  0  0  0  0  0  0
   -8.3430    5.0460   -9.2210 C   0  0  0  0  0  0  0  0  0  0  0  0
   -8.6240    3.8470   -8.5800 C   0  0  0  0  0  0  0  0  0  0  0  0
   -8.8630    2.6870   -9.3060 C   0  0  0  0  0  0  0  0  0  0  0  0
   -8.7600    2.6830  -10.6900 C   0  0  0  0  0  0  0  0  0  0  0  0
   -9.1840    1.5640   -8.3640 C   0  0  0  0  0  0  0  0  0  0  0  0
   -8.6930    2.1050   -7.0900 N   0  0  0  0  0  0  0  0  0  0  0  0
   -8.8260    3.5670   -7.1170 C   0  0  0  0  0  0  0  0  0  0  0  0
   -7.5170    4.5530  -14.9310 C   0  0  0  0  0  0  0  0  0  0  0  0
   -8.6500    4.1320  -15.6450 C   0  0  0  0  0  0  0  0  0  0  0  0
   -8.6290    4.0710  -17.0290 C   0  0  0  0  0  0  0  0  0  0  0  0
   -9.7260    3.7090  -17.7200 F   0  0  0  0  0  0  0  0  0  0  0  0
   -7.4600    4.4140  -17.6870 C   0  0  0  0  0  0  0  0  0  0  0  0
   -7.1600    4.4330  -19.0210 N   0  0  0  0  0  0  0  0  0  0  0  0
   -5.8560    4.8320  -19.1690 C   0  0  0  0  0  0  0  0  0  0  0  0
   -5.2870    5.0630  -17.9560 C   0  0  0  0  0  0  0  0  0  0  0  0
   -6.3010    4.8070  -16.9840 C   0  0  0  0  0  0  0  0  0  0  0  0
   -6.3410    4.8760  -15.5960 C   0  0  0  0  0  0  0  0  0  0  0  0
  1  2  2  0
  2  3  1  0
  3  4  1  0
  4  5  2  0
  5  6  1  0
  6  7  2  0
  7  8  1  0
  8  9  2  0
  8 10  1  0
 10 11  1  0
 11 12  1  0
  2 13  1  0
 13 14  2  0
 14 15  1  0
 15 16  1  0
 15 17  2  0
 17 18  1  0
 18 19  1  0
 19 20  2  0
 20 21  1  0
 21 22  2  0
  4  9  1  0
 13 22  1  0
  7 12  1  0
 17 21  1  0
M  END
$$$$
