XX01ZVNS2B-x1837_B_301_1_XX01ZVNS2B-x4590+B+203+1__LIG
     RDKit          3D

 22 24  0  0  0  0  0  0  0  0999 V2000
   -3.6030    5.7010  -15.4700 C   0  0  0  0  0  0  0  0  0  0  0  0
   -4.8040    5.2870  -16.2680 C   0  0  0  0  0  0  0  0  0  0  0  0
   -4.7160    5.2190  -17.6720 C   0  0  0  0  0  0  0  0  0  0  0  0
   -5.8030    4.8450  -18.4130 C   0  0  0  0  0  0  0  0  0  0  0  0
   -5.7160    4.7600  -19.9160 C   0  0  0  0  0  0  0  0  0  0  0  0
   -4.4030    4.9960  -20.4170 O   0  0  0  0  0  0  0  0  0  0  0  0
   -7.0220    4.5350  -17.7320 C   0  0  0  0  0  0  0  0  0  0  0  0
   -8.2020    4.1310  -18.4100 C   0  0  0  0  0  0  0  0  0  0  0  0
   -9.3360    3.8430  -17.7140 C   0  0  0  0  0  0  0  0  0  0  0  0
   -9.3430    3.9340  -16.3100 C   0  0  0  0  0  0  0  0  0  0  0  0
   -8.2320    4.3130  -15.6030 C   0  0  0  0  0  0  0  0  0  0  0  0
   -8.3120    4.4220  -14.0940 C   0  0  0  0  0  0  0  0  0  0  0  0
   -7.8410    3.2000  -13.3280 C   0  0  0  0  0  0  0  0  0  0  0  0
   -7.4620    2.1910  -13.8940 O   0  0  0  0  0  0  0  0  0  0  0  0
   -7.8470    3.2610  -11.9810 N   0  0  0  0  0  0  0  0  0  0  0  0
   -8.3020    4.3990  -11.1680 C   0  0  0  0  0  0  0  0  0  0  0  0
   -8.6760    3.7600   -9.8590 C   0  0  0  0  0  0  0  0  0  0  0  0
   -7.6460    2.6410   -9.7010 C   0  0  1  0  0  0  0  0  0  0  0  0
   -8.1210    1.5800   -8.8130 N   0  0  0  0  0  0  0  0  0  0  0  0
   -7.3560    2.1660  -11.1280 C   0  0  0  0  0  0  0  0  0  0  0  0
   -7.0360    4.6330  -16.3100 C   0  0  0  0  0  0  0  0  0  0  0  0
   -5.9170    5.0050  -15.6050 N   0  0  0  0  0  0  0  0  0  0  0  0
  1  2  1  0
  2  3  2  0
  3  4  1  0
  4  5  1  0
  5  6  1  0
  4  7  2  0
  7  8  1  0
  8  9  2  0
  9 10  1  0
 10 11  2  0
 11 12  1  0
 12 13  1  0
 13 14  2  0
 13 15  1  0
 15 16  1  0
 16 17  1  0
 17 18  1  0
 18 19  1  1
 18 20  1  0
 11 21  1  0
 21 22  2  0
  2 22  1  0
  7 21  1  0
 15 20  1  0
M  END
$$$$
