A71EV2A-x4312_A_201_1_A71EV2A-x0911+A+147+1__LIG
     RDKit          3D

 19 21  0  0  0  0  0  0  0  0999 V2000
   11.8630   15.3530   24.1690 O   0  0  0  0  0  0  0  0  0  0  0  0
   11.3020   15.1820   23.0930 C   0  0  0  0  0  0  0  0  0  0  0  0
   11.8280   15.5340   21.7260 C   0  0  0  0  0  0  0  0  0  0  0  0
   10.0550   14.6890   22.9470 N   0  0  0  0  0  0  0  0  0  0  0  0
    9.6100   14.6540   21.5510 C   0  0  0  0  0  0  0  0  0  0  0  0
   10.9460   14.6920   20.8010 C   0  0  1  0  0  0  0  0  0  0  0  0
   10.8110   15.2370   19.3890 C   0  0  0  0  0  0  0  0  0  0  0  0
   10.3070   16.3450   19.1770 O   0  0  0  0  0  0  0  0  0  0  0  0
   11.1800   14.4190   18.4190 N   0  0  0  0  0  0  0  0  0  0  0  0
    9.1820   14.3290   24.0640 C   0  0  0  0  0  0  0  0  0  0  0  0
    8.8670   12.8540   24.1590 C   0  0  0  0  0  0  0  0  0  0  0  0
    7.8220   12.4210   24.9780 C   0  0  0  0  0  0  0  0  0  0  0  0
    6.9460   13.2390   25.6570 O   0  0  0  0  0  0  0  0  0  0  0  0
    5.9990   12.3680   26.3460 C   0  0  0  0  0  0  0  0  0  0  0  0
    6.4860   10.9290   26.1900 C   0  0  0  0  0  0  0  0  0  0  0  0
    7.5800   11.0730   25.1640 C   0  0  0  0  0  0  0  0  0  0  0  0
    8.3500   10.1300   24.4910 C   0  0  0  0  0  0  0  0  0  0  0  0
    9.3750   10.5410   23.6580 C   0  0  0  0  0  0  0  0  0  0  0  0
    9.6350   11.8930   23.5000 C   0  0  0  0  0  0  0  0  0  0  0  0
  9  7  1  0
  8  7  2  0
  6  7  1  6
  6  3  1  0
  3  2  1  0
  2  1  2  0
  4  2  1  0
 10  4  1  0
 11 10  1  0
 11 19  2  0
 19 18  1  0
 18 17  2  0
 17 16  1  0
 16 12  2  0
 12 11  1  0
 13 12  1  0
 14 13  1  0
 15 14  1  0
 16 15  1  0
  5  4  1  0
  6  5  1  0
M  END
$$$$
