A71EV2A-x4381_A_201_1_A71EV2A-x0911+A+147+1__LIG
     RDKit          3D

 26 27  0  0  0  0  0  0  0  0999 V2000
    4.2080   11.7330   26.5420 F   0  0  0  0  0  0  0  0  0  0  0  0
    5.2850   12.5490   26.5440 C   0  0  0  0  0  0  0  0  0  0  0  0
    5.4610   12.6600   27.8800 F   0  0  0  0  0  0  0  0  0  0  0  0
    4.8660   13.7310   26.0010 F   0  0  0  0  0  0  0  0  0  0  0  0
    6.4910   11.9580   25.8410 C   0  0  0  0  0  0  0  0  0  0  0  0
    6.4760   10.5690   25.7750 C   0  0  0  0  0  0  0  0  0  0  0  0
    7.5460    9.8500   25.2720 C   0  0  0  0  0  0  0  0  0  0  0  0
    8.7130   10.5020   24.8950 C   0  0  0  0  0  0  0  0  0  0  0  0
    9.6870    9.8750   23.9750 C   0  0  0  0  0  0  0  0  0  0  0  0
    9.3690    8.6260   23.6440 F   0  0  0  0  0  0  0  0  0  0  0  0
   10.9120    9.9290   24.4650 F   0  0  0  0  0  0  0  0  0  0  0  0
    9.7580   10.5450   22.8350 F   0  0  0  0  0  0  0  0  0  0  0  0
    8.7690   11.8680   25.0810 C   0  0  0  0  0  0  0  0  0  0  0  0
    7.6500   12.6170   25.3900 C   0  0  0  0  0  0  0  0  0  0  0  0
    7.6470   13.9750   24.7200 C   0  0  0  0  0  0  0  0  0  0  0  0
    8.2470   13.8800   23.3220 C   0  0  0  0  0  0  0  0  0  0  0  0
    7.7720   13.0930   22.5220 O   0  0  0  0  0  0  0  0  0  0  0  0
    9.2800   14.6910   22.9800 N   0  0  0  0  0  0  0  0  0  0  0  0
   10.3980   15.0550   23.8650 C   0  0  0  0  0  0  0  0  0  0  0  0
   11.7500   14.8620   23.1870 C   0  0  0  0  0  0  0  0  0  0  0  0
   11.7820   15.5260   21.8070 C   0  0  0  0  0  0  0  0  0  0  0  0
    9.3160   15.3360   21.6590 C   0  0  0  0  0  0  0  0  0  0  0  0
   10.6280   15.0320   20.9250 C   0  0  1  0  0  0  0  0  0  0  0  0
   10.7300   15.6050   19.5200 C   0  0  0  0  0  0  0  0  0  0  0  0
   10.6060   16.8140   19.3110 O   0  0  0  0  0  0  0  0  0  0  0  0
   10.9720   14.7380   18.5520 N   0  0  0  0  0  0  0  0  0  0  0  0
 26 24  1  0
 25 24  2  0
 23 24  1  6
 23 21  1  0
 21 20  1  0
 20 19  1  0
 19 18  1  0
 18 16  1  0
 17 16  2  0
 16 15  1  0
 15 14  1  0
 14 13  2  0
 13  8  1  0
  9  8  1  0
 12  9  1  0
 11  9  1  0
 10  9  1  0
  8  7  2  0
  7  6  1  0
  6  5  2  0
 14  5  1  0
  5  2  1  0
  3  2  1  0
  4  2  1  0
  2  1  1  0
 22 18  1  0
 23 22  1  0
M  END
$$$$
