XX01ZVNS2B-x0130_B_204_1_XX01ZVNS2B-x0130+B+204+1__LIG
     RDKit          3D

 17 18  0  0  0  0  0  0  0  0999 V2000
  -21.6370   -7.0790   -6.4320 F   0  0  0  0  0  0  0  0  0  0  0  0
  -22.8710   -7.3700   -5.9400 C   0  0  0  0  0  0  0  0  0  0  0  0
  -23.5640   -8.4240   -6.4850 C   0  0  0  0  0  0  0  0  0  0  0  0
  -22.9590   -9.1940   -7.4250 F   0  0  0  0  0  0  0  0  0  0  0  0
  -24.8630   -8.6770   -6.1170 C   0  0  0  0  0  0  0  0  0  0  0  0
  -25.4740   -7.8370   -5.1960 C   0  0  0  0  0  0  0  0  0  0  0  0
  -23.4490   -6.5460   -5.0020 C   0  0  0  0  0  0  0  0  0  0  0  0
  -24.7820   -6.7560   -4.6470 C   0  0  0  0  0  0  0  0  0  0  0  0
  -25.5130   -5.7700   -3.7880 C   0  0  0  0  0  0  0  0  0  0  0  0
  -25.8750   -4.7090   -4.2650 O   0  0  0  0  0  0  0  0  0  0  0  0
  -25.7000   -6.0640   -2.4810 N   0  0  0  0  0  0  0  0  0  0  0  0
  -25.1430   -7.2760   -1.8590 C   0  0  0  0  0  0  0  0  0  0  0  0
  -25.7710   -7.5220   -0.5130 C   0  0  0  0  0  0  0  0  0  0  0  0
  -26.3850   -5.1450   -1.5620 C   0  0  0  0  0  0  0  0  0  0  0  0
  -27.5080   -5.8600   -0.7660 C   0  0  0  0  0  0  0  0  0  0  0  0
  -27.2120   -7.2860   -0.5560 N   0  0  0  0  0  0  0  0  0  0  0  0
  -27.8620   -7.7890    0.6790 C   0  0  0  0  0  0  0  0  0  0  0  0
 17 16  1  0
 16 13  1  0
 13 12  1  0
 12 11  1  0
 14 11  1  0
 15 14  1  0
 16 15  1  0
 11  9  1  0
 10  9  2  0
  9  8  1  0
  8  6  1  0
  6  5  2  0
  5  3  1  0
  4  3  1  0
  3  2  2  0
  2  1  1  0
  7  2  1  0
  8  7  2  0
M  END
$$$$
