XX01ZVNS2B-x4204_B_203_1_XX01ZVNS2B-x4590+B+203+1__LIG
     RDKit          3D

 28 32  0  0  0  0  0  0  0  0999 V2000
   -9.8010    3.6370  -18.0270 Cl  0  0  0  0  0  0  0  0  0  0  0  0
   -8.4470    4.1690  -17.0880 C   0  0  0  0  0  0  0  0  0  0  0  0
   -8.5060    4.1730  -15.7020 C   0  0  0  0  0  0  0  0  0  0  0  0
   -7.3110    4.6130  -17.7480 C   0  0  0  0  0  0  0  0  0  0  0  0
   -6.1870    5.0490  -17.0270 C   0  0  0  0  0  0  0  0  0  0  0  0
   -5.1940    5.4290  -18.0080 C   0  0  0  0  0  0  0  0  0  0  0  0
   -3.8250    6.0090  -17.7640 C   0  0  0  0  0  0  0  0  0  0  0  0
   -2.8630    5.1030  -16.9950 C   0  0  0  0  0  0  0  0  0  0  0  0
   -1.4410    5.6580  -17.0650 C   0  0  0  0  0  0  0  0  0  0  0  0
   -1.3950    7.0340  -17.6540 N   0  0  0  0  0  0  0  0  0  0  0  0
   -2.3970    7.9470  -17.0170 C   0  0  0  0  0  0  0  0  0  0  0  0
   -3.8230    7.4230  -17.1640 C   0  0  0  0  0  0  0  0  0  0  0  0
   -5.7620    5.2100  -19.2310 C   0  0  0  0  0  0  0  0  0  0  0  0
   -7.0300    4.7210  -19.0890 N   0  0  0  0  0  0  0  0  0  0  0  0
   -6.2440    5.0340  -15.6240 C   0  0  0  0  0  0  0  0  0  0  0  0
   -7.4050    4.6120  -14.9630 C   0  0  0  0  0  0  0  0  0  0  0  0
   -7.3850    4.7190  -13.4660 C   0  0  0  0  0  0  0  0  0  0  0  0
   -6.5530    5.4220  -12.8970 O   0  0  0  0  0  0  0  0  0  0  0  0
   -8.3000    3.9900  -12.7840 N   0  0  0  0  0  0  0  0  0  0  0  0
   -8.4290    3.9490  -11.3590 C   0  0  0  0  0  0  0  0  0  0  0  0
   -8.6420    2.7390  -10.7050 C   0  0  0  0  0  0  0  0  0  0  0  0
   -8.7350    2.7010   -9.3110 C   0  0  0  0  0  0  0  0  0  0  0  0
   -9.0860    1.5510   -8.4140 C   0  0  0  0  0  0  0  0  0  0  0  0
   -8.7380    2.1030   -7.0810 N   0  0  0  0  0  0  0  0  0  0  0  0
   -8.6900    3.5780   -7.1010 C   0  0  0  0  0  0  0  0  0  0  0  0
   -8.5790    3.8660   -8.5690 C   0  0  0  0  0  0  0  0  0  0  0  0
   -8.3710    5.0760   -9.2250 C   0  0  0  0  0  0  0  0  0  0  0  0
   -8.3050    5.1200  -10.6110 C   0  0  0  0  0  0  0  0  0  0  0  0
 18 17  2  0
 19 17  1  0
 20 19  1  0
 20 28  2  0
 28 27  1  0
 27 26  2  0
 26 22  1  0
 22 21  2  0
 21 20  1  0
 23 22  1  0
 24 23  1  0
 25 24  1  0
 26 25  1  0
 17 16  1  0
 16  3  1  0
  3  2  2  0
  2  1  1  0
  4  2  1  0
  4 14  1  0
 14 13  1  0
 13  6  2  0
  7  6  1  0
  7 12  1  0
 12 11  1  0
 11 10  1  0
 10  9  1  0
  9  8  1  0
  8  7  1  0
  6  5  1  0
  5  4  2  0
 15  5  1  0
 16 15  2  0
M  END
$$$$
