A71EV2A-x3403_A_201_1_A71EV2A-x0911+A+147+1__LIG
     RDKit          3D

 19 21  0  0  0  0  0  0  0  0999 V2000
   11.0520   14.8910   23.8250 O   0  0  0  0  0  0  0  0  0  0  0  0
   10.8770   14.2460   22.8040 C   0  0  0  0  0  0  0  0  0  0  0  0
   11.7280   14.4760   21.5770 C   0  0  0  0  0  0  0  0  0  0  0  0
   10.9370   15.2690   20.5820 C   0  0  0  0  0  0  0  0  0  0  0  0
   10.3730   16.4730   20.9710 N   0  0  0  0  0  0  0  0  0  0  0  0
    9.7450   16.8700   19.9320 C   0  0  0  0  0  0  0  0  0  0  0  0
    9.8290   16.0590   18.8560 O   0  0  0  0  0  0  0  0  0  0  0  0
   10.6080   15.0350   19.3060 C   0  0  0  0  0  0  0  0  0  0  0  0
    9.9090   13.3250   22.6610 N   0  0  0  0  0  0  0  0  0  0  0  0
    8.9250   12.9530   23.6010 C   0  0  0  0  0  0  0  0  0  0  0  0
    8.2270   13.8670   24.3910 C   0  0  0  0  0  0  0  0  0  0  0  0
    7.2190   13.4430   25.2420 C   0  0  0  0  0  0  0  0  0  0  0  0
    6.8950   12.1010   25.3320 C   0  0  0  0  0  0  0  0  0  0  0  0
    8.5990   11.5870   23.7020 C   0  0  0  0  0  0  0  0  0  0  0  0
    7.5910   11.1560   24.5760 C   0  0  0  0  0  0  0  0  0  0  0  0
    7.5630    9.7250   24.4180 C   0  0  0  0  0  0  0  0  0  0  0  0
    9.1600   10.5610   23.0300 N   0  0  0  0  0  0  0  0  0  0  0  0
    8.4990    9.4590   23.4960 N   0  0  0  0  0  0  0  0  0  0  0  0
    8.8650    8.1680   22.9170 C   0  0  0  0  0  0  0  0  0  0  0  0
 19 18  1  0
 18 16  1  0
 16 15  2  0
 15 13  1  0
 13 12  2  0
 12 11  1  0
 11 10  2  0
 10  9  1  0
  9  2  1  0
  2  1  2  0
  3  2  1  0
  4  3  1  0
  4  8  2  0
  8  7  1  0
  7  6  1  0
  6  5  2  0
  5  4  1  0
 14 10  1  0
 15 14  1  0
 17 14  2  0
 18 17  1  0
M  END
$$$$
