XX01ZVNS2B-x4168_B_203_2_XX01ZVNS2B-x4590+B+203+1__LIG
     RDKit          3D

 28 32  0  0  0  0  0  0  0  0999 V2000
   -9.7710    3.6310  -18.0380 Cl  0  0  0  0  0  0  0  0  0  0  0  0
   -8.4330    4.1920  -17.0880 C   0  0  0  0  0  0  0  0  0  0  0  0
   -8.5170    4.1810  -15.7050 C   0  0  0  0  0  0  0  0  0  0  0  0
   -7.2890    4.6730  -17.7220 C   0  0  0  0  0  0  0  0  0  0  0  0
   -6.2130    5.1560  -16.9590 C   0  0  0  0  0  0  0  0  0  0  0  0
   -5.2000    5.5740  -17.8870 C   0  0  0  0  0  0  0  0  0  0  0  0
   -3.8940    6.2270  -17.5230 C   0  0  0  0  0  0  0  0  0  0  0  0
   -2.8470    5.2050  -17.0580 C   0  0  0  0  0  0  0  0  0  0  0  0
   -1.5260    5.8850  -16.7350 C   0  0  0  0  0  0  0  0  0  0  0  0
   -1.0390    6.6570  -17.8940 N   0  0  0  0  0  0  0  0  0  0  0  0
   -2.0090    7.7030  -18.2790 C   0  0  0  0  0  0  0  0  0  0  0  0
   -3.3340    7.0730  -18.6690 C   0  0  0  0  0  0  0  0  0  0  0  0
   -5.6930    5.3220  -19.1350 C   0  0  0  0  0  0  0  0  0  0  0  0
   -6.9490    4.7820  -19.0490 N   0  0  0  0  0  0  0  0  0  0  0  0
   -6.3040    5.1400  -15.5670 C   0  0  0  0  0  0  0  0  0  0  0  0
   -7.4510    4.6560  -14.9390 C   0  0  0  0  0  0  0  0  0  0  0  0
   -7.3980    4.7360  -13.4450 C   0  0  0  0  0  0  0  0  0  0  0  0
   -6.5320    5.4080  -12.8830 O   0  0  0  0  0  0  0  0  0  0  0  0
   -8.3230    4.0220  -12.7610 N   0  0  0  0  0  0  0  0  0  0  0  0
   -8.4400    3.9740  -11.3390 C   0  0  0  0  0  0  0  0  0  0  0  0
   -8.6410    2.7700  -10.6700 C   0  0  0  0  0  0  0  0  0  0  0  0
   -8.7220    2.7450   -9.2780 C   0  0  0  0  0  0  0  0  0  0  0  0
   -9.0260    1.5940   -8.3660 C   0  0  0  0  0  0  0  0  0  0  0  0
   -8.7340    2.1830   -7.0490 N   0  0  0  0  0  0  0  0  0  0  0  0
   -8.7090    3.6510   -7.0800 C   0  0  0  0  0  0  0  0  0  0  0  0
   -8.5990    3.9240   -8.5510 C   0  0  0  0  0  0  0  0  0  0  0  0
   -8.4020    5.1280   -9.2210 C   0  0  0  0  0  0  0  0  0  0  0  0
   -8.3180    5.1520  -10.6050 C   0  0  0  0  0  0  0  0  0  0  0  0
 18 17  2  0
 19 17  1  0
 20 19  1  0
 20 28  2  0
 28 27  1  0
 27 26  2  0
 26 22  1  0
 22 21  2  0
 21 20  1  0
 23 22  1  0
 24 23  1  0
 25 24  1  0
 26 25  1  0
 17 16  1  0
 16  3  1  0
  3  2  2  0
  2  1  1  0
  4  2  1  0
  4 14  1  0
 14 13  1  0
 13  6  2  0
  7  6  1  0
  7 12  1  0
 12 11  1  0
 11 10  1  0
 10  9  1  0
  9  8  1  0
  8  7  1  0
  6  5  1  0
  5  4  2  0
 15  5  1  0
 16 15  2  0
M  END
$$$$
