A71EV2A-x3942_A_201_1_A71EV2A-x0911+A+147+1__LIG
     RDKit          3D

 21 22  0  0  0  0  0  0  0  0999 V2000
   10.3840   16.6790   19.1660 O   0  0  0  0  0  0  0  0  0  0  0  0
   10.7820   15.5370   19.4170 C   0  0  0  0  0  0  0  0  0  0  0  0
   11.1280   14.6690   18.4790 N   0  0  0  0  0  0  0  0  0  0  0  0
   10.8620   15.0310   20.8470 C   0  0  1  0  0  0  0  0  0  0  0  0
   11.9670   15.7430   21.6470 C   0  0  0  0  0  0  0  0  0  0  0  0
   12.0180   15.2470   23.0950 C   0  0  0  0  0  0  0  0  0  0  0  0
   10.6580   15.3790   23.7580 C   0  0  0  0  0  0  0  0  0  0  0  0
    9.5290   15.2370   21.5710 C   0  0  0  0  0  0  0  0  0  0  0  0
    9.6280   14.7240   22.9370 N   0  0  0  0  0  0  0  0  0  0  0  0
    8.8580   13.6920   23.3300 C   0  0  0  0  0  0  0  0  0  0  0  0
    7.8920   13.3140   22.6810 O   0  0  0  0  0  0  0  0  0  0  0  0
    9.2710   13.0040   24.6150 C   0  0  0  0  0  0  0  0  0  0  0  0
    8.1810   12.0870   25.1100 C   0  0  0  0  0  0  0  0  0  0  0  0
    8.1510   10.7500   24.6910 C   0  0  0  0  0  0  0  0  0  0  0  0
    9.0810   10.4260   23.7370 O   0  0  0  0  0  0  0  0  0  0  0  0
    9.3790    9.0450   23.5230 C   0  0  0  0  0  0  0  0  0  0  0  0
    7.1910   12.5190   25.9950 C   0  0  0  0  0  0  0  0  0  0  0  0
    7.0800   14.2140   26.3940 Cl  0  0  0  0  0  0  0  0  0  0  0  0
    6.2390   11.6550   26.5050 C   0  0  0  0  0  0  0  0  0  0  0  0
    6.2440   10.3310   26.1010 C   0  0  0  0  0  0  0  0  0  0  0  0
    7.1900    9.8760   25.1910 C   0  0  0  0  0  0  0  0  0  0  0  0
 16 15  1  0
 15 14  1  0
 14 21  2  0
 21 20  1  0
 20 19  2  0
 19 17  1  0
 18 17  1  0
 17 13  2  0
 14 13  1  0
 13 12  1  0
 12 10  1  0
 11 10  2  0
 10  9  1  0
  9  7  1  0
  7  6  1  0
  6  5  1  0
  5  4  1  0
  4  2  1  6
  3  2  1  0
  2  1  2  0
  8  4  1  0
  9  8  1  0
M  END
$$$$
