A71EV2A-x3201_A_201_1_A71EV2A-x0911+A+147+1__LIG
     RDKit          3D

 20 21  0  0  0  0  0  0  0  0999 V2000
   10.1450   16.2400   19.3030 O   0  0  0  0  0  0  0  0  0  0  0  0
   10.6980   15.1570   19.5140 C   0  0  0  0  0  0  0  0  0  0  0  0
   11.1900   14.4010   18.5440 N   0  0  0  0  0  0  0  0  0  0  0  0
   10.8180   14.6010   20.9230 C   0  0  1  0  0  0  0  0  0  0  0  0
   12.0300   15.1940   21.6610 C   0  0  0  0  0  0  0  0  0  0  0  0
   12.1660   14.6120   23.0700 C   0  0  0  0  0  0  0  0  0  0  0  0
   10.8710   14.7630   23.8700 C   0  0  0  0  0  0  0  0  0  0  0  0
    9.5590   14.8570   21.7580 C   0  0  0  0  0  0  0  0  0  0  0  0
    9.6950   14.3020   23.1100 N   0  0  0  0  0  0  0  0  0  0  0  0
    8.7270   13.5030   23.6110 C   0  0  0  0  0  0  0  0  0  0  0  0
    7.6300   13.3960   23.0800 O   0  0  0  0  0  0  0  0  0  0  0  0
    9.0620   12.7000   24.8520 C   0  0  0  0  0  0  0  0  0  0  0  0
    9.0650   11.2240   24.5320 C   0  0  0  0  0  0  0  0  0  0  0  0
    8.0770   10.3100   24.9440 C   0  0  0  0  0  0  0  0  0  0  0  0
    7.1490   10.8180   25.7890 O   0  0  0  0  0  0  0  0  0  0  0  0
    6.2220    9.9100   26.3910 C   0  0  0  0  0  0  0  0  0  0  0  0
   10.0500   10.7140   23.6980 C   0  0  0  0  0  0  0  0  0  0  0  0
   10.0220    9.3930   23.3100 C   0  0  0  0  0  0  0  0  0  0  0  0
    9.0040    8.6050   23.7620 C   0  0  0  0  0  0  0  0  0  0  0  0
    8.0300    9.0410   24.5700 N   0  0  0  0  0  0  0  0  0  0  0  0
 16 15  1  0
 15 14  1  0
 14 20  2  0
 20 19  1  0
 19 18  2  0
 18 17  1  0
 17 13  2  0
 14 13  1  0
 13 12  1  0
 12 10  1  0
 11 10  2  0
 10  9  1  0
  9  7  1  0
  7  6  1  0
  6  5  1  0
  5  4  1  0
  4  2  1  6
  3  2  1  0
  2  1  2  0
  8  4  1  0
  9  8  1  0
M  END
$$$$
