A71EV2A-x4341_A_201_1_A71EV2A-x0911+A+147+1__LIG
     RDKit          3D

 21 23  0  0  0  0  0  0  0  0999 V2000
   10.1040   13.5670   25.1020 O   0  0  0  0  0  0  0  0  0  0  0  0
    9.6420   13.8790   24.0130 C   0  0  0  0  0  0  0  0  0  0  0  0
   10.4250   14.2980   22.9980 N   0  0  0  0  0  0  0  0  0  0  0  0
   11.8770   14.3810   23.2260 C   0  0  0  0  0  0  0  0  0  0  0  0
   12.3950   15.7370   22.8380 C   0  0  0  0  0  0  0  0  0  0  0  0
   11.9610   16.1200   21.4250 C   0  0  0  0  0  0  0  0  0  0  0  0
    9.9540   14.6920   21.6630 C   0  0  0  0  0  0  0  0  0  0  0  0
   11.1370   15.0280   20.7410 C   0  0  1  0  0  0  0  0  0  0  0  0
   10.7980   15.4560   19.3240 C   0  0  0  0  0  0  0  0  0  0  0  0
   10.2380   16.5350   19.1010 O   0  0  0  0  0  0  0  0  0  0  0  0
   11.2210   14.6500   18.3640 N   0  0  0  0  0  0  0  0  0  0  0  0
    8.1710   13.6560   23.7280 C   0  0  0  0  0  0  0  0  0  0  0  0
    7.7760   12.3190   24.3000 C   0  0  0  0  0  0  0  0  0  0  0  0
    8.4400   11.1500   23.8770 C   0  0  0  0  0  0  0  0  0  0  0  0
    9.4730   10.9950   22.8860 C   0  0  0  0  0  0  0  0  0  0  0  0
    9.8800    9.7190   22.7600 C   0  0  0  0  0  0  0  0  0  0  0  0
    9.0550    8.6280   23.8050 S   0  0  0  0  0  0  0  0  0  0  0  0
    8.1080    9.9260   24.4680 C   0  0  0  0  0  0  0  0  0  0  0  0
    7.1310    9.8280   25.4550 C   0  0  0  0  0  0  0  0  0  0  0  0
    6.4930   10.9850   25.8770 C   0  0  0  0  0  0  0  0  0  0  0  0
    6.8150   12.2150   25.3100 C   0  0  0  0  0  0  0  0  0  0  0  0
 11  9  1  0
 10  9  2  0
  8  9  1  6
  8  6  1  0
  6  5  1  0
  5  4  1  0
  4  3  1  0
  3  2  1  0
  2  1  2  0
 12  2  1  0
 13 12  1  0
 13 21  1  0
 21 20  2  0
 20 19  1  0
 19 18  2  0
 18 17  1  0
 17 16  1  0
 16 15  2  0
 15 14  1  0
 14 13  2  0
 18 14  1  0
  7  3  1  0
  8  7  1  0
M  END
$$$$
