A71EV2A-x5022_A_201_1_A71EV2A-x0911+A+147+1__LIG
     RDKit          3D

 24 26  0  0  0  0  0  0  0  0999 V2000
   10.3950   16.6830   19.0430 O   0  0  0  0  0  0  0  0  0  0  0  0
   10.7390   15.5200   19.2900 C   0  0  0  0  0  0  0  0  0  0  0  0
   10.9670   14.6090   18.3460 N   0  0  0  0  0  0  0  0  0  0  0  0
   10.8600   15.0190   20.7200 C   0  0  1  0  0  0  0  0  0  0  0  0
   11.9910   15.7190   21.4920 C   0  0  0  0  0  0  0  0  0  0  0  0
   12.0440   15.2110   22.9460 C   0  0  0  0  0  0  0  0  0  0  0  0
   10.6910   15.3990   23.6180 C   0  0  0  0  0  0  0  0  0  0  0  0
    9.5300   15.2550   21.4380 C   0  0  0  0  0  0  0  0  0  0  0  0
    9.6190   14.7830   22.8220 N   0  0  0  0  0  0  0  0  0  0  0  0
    8.7190   13.8700   23.2910 C   0  0  0  0  0  0  0  0  0  0  0  0
    7.8100   13.4630   22.5930 O   0  0  0  0  0  0  0  0  0  0  0  0
    8.8710   13.4830   24.5880 N   0  0  0  0  0  0  0  0  0  0  0  0
    7.9810   12.5790   25.2120 C   0  0  0  0  0  0  0  0  0  0  0  0
    8.0970   11.1910   25.0290 C   0  0  0  0  0  0  0  0  0  0  0  0
    9.4950   10.6320   24.1300 S   0  0  0  0  0  0  0  0  0  0  0  0
    9.1980    8.8520   24.0010 C   0  0  0  0  0  0  0  0  0  0  0  0
    6.9250   13.0700   25.9700 C   0  0  0  0  0  0  0  0  0  0  0  0
    6.0110   12.1780   26.5210 C   0  0  0  0  0  0  0  0  0  0  0  0
    4.8680   12.6930   27.3570 C   0  0  0  0  0  0  0  0  0  0  0  0
    4.0820   11.6180   28.0940 C   0  0  0  0  0  0  0  0  0  0  0  0
    3.9180   10.3540   27.2650 C   0  0  0  0  0  0  0  0  0  0  0  0
    5.2440    9.7620   26.8100 C   0  0  0  0  0  0  0  0  0  0  0  0
    6.2000   10.7940   26.2650 C   0  0  0  0  0  0  0  0  0  0  0  0
    7.2210   10.3230   25.5360 N   0  0  0  0  0  0  0  0  0  0  0  0
 16 15  1  0
 15 14  1  0
 14 24  2  0
 24 23  1  0
 23 18  2  0
 18 17  1  0
 17 13  2  0
 14 13  1  0
 13 12  1  0
 12 10  1  0
 11 10  2  0
 10  9  1  0
  9  7  1  0
  7  6  1  0
  6  5  1  0
  5  4  1  0
  4  2  1  6
  3  2  1  0
  2  1  2  0
  8  4  1  0
  9  8  1  0
 19 18  1  0
 20 19  1  0
 21 20  1  0
 22 21  1  0
 23 22  1  0
M  END
$$$$
