XX01ZVNS2B-x0990_B_301_1_XX01ZVNS2B-x4590+B+203+1__LIG
     RDKit          3D

 11 11  0  0  0  0  0  0  0  0999 V2000
   -6.6860    6.4440  -16.0780 O   0  0  0  0  0  0  0  0  0  0  0  0
   -7.0180    5.7570  -17.0280 C   0  0  0  0  0  0  0  0  0  0  0  0
   -8.1160    4.9490  -16.9560 N   0  0  0  0  0  0  0  0  0  0  0  0
   -8.9860    4.4940  -18.0410 C   0  0  0  0  0  0  0  0  0  0  0  0
   -8.5460    4.5370  -15.6250 C   0  0  0  0  0  0  0  0  0  0  0  0
   -6.3180    5.7870  -18.1930 N   0  0  0  0  0  0  0  0  0  0  0  0
   -6.2840    7.0450  -18.9520 C   0  0  0  0  0  0  0  0  0  0  0  0
   -4.8880    7.3690  -19.4450 C   0  0  0  0  0  0  0  0  0  0  0  0
   -4.3490    6.2320  -20.2020 N   0  0  0  0  0  0  0  0  0  0  0  0
   -4.2710    5.0300  -19.3580 C   0  0  0  0  0  0  0  0  0  0  0  0
   -5.6530    4.6540  -18.8540 C   0  0  0  0  0  0  0  0  0  0  0  0
  5  3  1  0
  4  3  1  0
  3  2  1  0
  2  1  2  0
  6  2  1  0
  6 11  1  0
 11 10  1  0
 10  9  1  0
  9  8  1  0
  8  7  1  0
  7  6  1  0
M  END
$$$$
