XX01ZVNS2B-x5086_B_203_6_XX01ZVNS2B-x4590+B+203+1__LIG
     RDKit          3D

 22 25  0  0  0  0  0  0  0  0999 V2000
  -10.3760    3.8560  -18.0800 Cl  0  0  0  0  0  0  0  0  0  0  0  0
   -8.8640    4.1860  -17.2610 C   0  0  0  0  0  0  0  0  0  0  0  0
   -8.8390    4.2310  -15.8710 C   0  0  0  0  0  0  0  0  0  0  0  0
   -7.7390    4.4300  -18.0220 C   0  0  0  0  0  0  0  0  0  0  0  0
   -6.5530    4.7220  -17.3620 C   0  0  0  0  0  0  0  0  0  0  0  0
   -6.4730    4.7930  -15.9570 C   0  0  0  0  0  0  0  0  0  0  0  0
   -5.1080    5.0690  -15.6970 C   0  0  0  0  0  0  0  0  0  0  0  0
   -4.4090    5.1360  -16.8160 N   0  0  0  0  0  0  0  0  0  0  0  0
   -5.2940    4.9310  -17.8300 N   0  0  0  0  0  0  0  0  0  0  0  0
   -7.6450    4.5470  -15.1980 C   0  0  0  0  0  0  0  0  0  0  0  0
   -7.5830    4.6930  -13.6940 C   0  0  0  0  0  0  0  0  0  0  0  0
   -6.7110    5.3770  -13.1690 O   0  0  0  0  0  0  0  0  0  0  0  0
   -8.4760    3.9880  -12.9590 N   0  0  0  0  0  0  0  0  0  0  0  0
   -8.5380    3.9690  -11.5210 C   0  0  0  0  0  0  0  0  0  0  0  0
   -8.7050    2.7730  -10.8250 C   0  0  0  0  0  0  0  0  0  0  0  0
   -8.7420    2.7610   -9.4320 C   0  0  0  0  0  0  0  0  0  0  0  0
   -9.0440    1.6250   -8.4980 C   0  0  0  0  0  0  0  0  0  0  0  0
   -8.6700    2.1880   -7.1690 N   0  0  0  0  0  0  0  0  0  0  0  0
   -8.6570    3.6810   -7.2490 C   0  0  0  0  0  0  0  0  0  0  0  0
   -8.5930    3.9470   -8.7250 C   0  0  0  0  0  0  0  0  0  0  0  0
   -8.4240    5.1470   -9.4140 C   0  0  0  0  0  0  0  0  0  0  0  0
   -8.3970    5.1590  -10.8020 C   0  0  0  0  0  0  0  0  0  0  0  0
 12 11  2  0
 13 11  1  0
 14 13  1  0
 14 22  2  0
 22 21  1  0
 21 20  2  0
 20 16  1  0
 16 15  2  0
 15 14  1  0
 17 16  1  0
 18 17  1  0
 19 18  1  0
 20 19  1  0
 11 10  1  0
 10  3  1  0
  3  2  2  0
  2  1  1  0
  4  2  1  0
  5  4  2  0
  5  9  1  0
  9  8  1  0
  8  7  2  0
  7  6  1  0
 10  6  2  0
  6  5  1  0
M  END
$$$$
