XX01ZVNS2B-x0182_B_301_1_XX01ZVNS2B-x0777+B+301+1__LIG
     RDKit          3D

 16 17  0  0  0  0  0  0  0  0999 V2000
   -8.5600  -10.1250  -10.4590 F   0  0  0  0  0  0  0  0  0  0  0  0
   -9.5490  -10.8780   -9.9080 C   0  0  0  0  0  0  0  0  0  0  0  0
  -10.6460  -10.2410   -9.3890 C   0  0  0  0  0  0  0  0  0  0  0  0
  -11.6580  -11.0150   -8.8490 C   0  0  0  0  0  0  0  0  0  0  0  0
   -9.4080  -12.2390   -9.8980 C   0  0  0  0  0  0  0  0  0  0  0  0
  -10.4200  -13.0010   -9.3420 C   0  0  0  0  0  0  0  0  0  0  0  0
  -11.5680  -12.4060   -8.8230 C   0  0  0  0  0  0  0  0  0  0  0  0
  -12.7140  -13.2630   -8.2660 C   0  0  1  0  0  0  0  0  0  0  0  0
  -13.5080  -13.8990   -9.4270 C   0  0  0  0  0  0  0  0  0  0  0  0
  -12.8130  -14.6100  -10.3050 N   0  0  0  0  0  0  0  0  0  0  0  0
  -14.7290  -13.7600   -9.5140 O   0  0  0  0  0  0  0  0  0  0  0  0
  -12.1750  -14.4240   -7.3910 C   0  0  0  0  0  0  0  0  0  0  0  0
  -11.9980  -14.0690   -5.9180 C   0  0  0  0  0  0  0  0  0  0  0  0
  -13.3440  -13.6410   -5.3220 C   0  0  0  0  0  0  0  0  0  0  0  0
  -14.3450  -13.1390   -6.2950 N   0  0  0  0  0  0  0  0  0  0  0  0
  -13.7070  -12.4290   -7.3990 C   0  0  0  0  0  0  0  0  0  0  0  0
 11  9  2  0
 10  9  1  0
  8  9  1  6
  8  7  1  0
  7  4  2  0
  4  3  1  0
  3  2  2  0
  2  1  1  0
  5  2  1  0
  6  5  2  0
  7  6  1  0
  8 16  1  0
 16 15  1  0
 15 14  1  0
 14 13  1  0
 13 12  1  0
 12  8  1  0
M  END
$$$$
