A71EV2A-x5475_A_201_5_A71EV2A-x0911+A+147+1__LIG
     RDKit          3D

 23 25  0  0  0  0  0  0  0  0999 V2000
   10.1720   16.5760   19.1860 O   0  0  0  0  0  0  0  0  0  0  0  0
   10.4950   15.4040   19.4390 C   0  0  0  0  0  0  0  0  0  0  0  0
   10.7630   14.5210   18.4840 N   0  0  0  0  0  0  0  0  0  0  0  0
   10.5980   14.9000   20.8700 C   0  0  1  0  0  0  0  0  0  0  0  0
   11.7450   15.5780   21.6390 C   0  0  0  0  0  0  0  0  0  0  0  0
   11.7900   15.0540   23.0840 C   0  0  0  0  0  0  0  0  0  0  0  0
   10.4210   15.1860   23.7500 C   0  0  0  0  0  0  0  0  0  0  0  0
    9.2550   15.1060   21.5880 C   0  0  0  0  0  0  0  0  0  0  0  0
    9.3520   14.5660   22.9460 N   0  0  0  0  0  0  0  0  0  0  0  0
    8.5760   13.5410   23.3610 C   0  0  0  0  0  0  0  0  0  0  0  0
    7.7120   13.0950   22.6300 O   0  0  0  0  0  0  0  0  0  0  0  0
    8.7560   13.0590   24.8010 C   0  0  1  0  0  0  0  0  0  0  0  0
    7.4440   12.6790   25.4520 C   0  0  0  0  0  0  0  0  0  0  0  0
    6.4770   13.6440   25.7170 C   0  0  0  0  0  0  0  0  0  0  0  0
    5.3260   13.3250   26.4350 C   0  0  0  0  0  0  0  0  0  0  0  0
    4.0480   14.5060   26.7520 S   0  0  0  0  0  0  0  0  0  0  0  0
    4.2660   15.7260   25.4640 C   0  0  0  0  0  0  0  0  0  0  0  0
    9.8200   11.9560   24.9530 C   0  0  0  0  0  0  0  0  0  0  0  0
    9.1980   10.6120   24.7010 C   0  0  0  0  0  0  0  0  0  0  0  0
    8.0790   10.3410   25.6000 O   0  0  0  0  0  0  0  0  0  0  0  0
    7.2200   11.3780   25.8900 C   0  0  0  0  0  0  0  0  0  0  0  0
    6.0830   11.0550   26.6300 C   0  0  0  0  0  0  0  0  0  0  0  0
    5.1410   12.0330   26.8990 C   0  0  0  0  0  0  0  0  0  0  0  0
 17 16  1  0
 16 15  1  0
 15 23  2  0
 23 22  1  0
 22 21  2  0
 21 13  1  0
 14 13  2  0
 15 14  1  0
 13 12  1  0
 12 10  1  6
 11 10  2  0
 10  9  1  0
  9  7  1  0
  7  6  1  0
  6  5  1  0
  5  4  1  0
  4  2  1  6
  3  2  1  0
  2  1  2  0
  8  4  1  0
  9  8  1  0
 18 12  1  0
 19 18  1  0
 20 19  1  0
 21 20  1  0
M  END
$$$$
