A71EV2A-x5219_A_201_3_A71EV2A-x0911+A+147+1__LIG
     RDKit          3D

 19 20  0  0  0  0  0  0  0  0999 V2000
   10.2130   16.6040   19.1650 O   0  0  0  0  0  0  0  0  0  0  0  0
   10.5620   15.4460   19.4170 C   0  0  0  0  0  0  0  0  0  0  0  0
   10.9210   14.5820   18.4800 N   0  0  0  0  0  0  0  0  0  0  0  0
   10.5150   14.9040   20.8340 C   0  0  1  0  0  0  0  0  0  0  0  0
   11.4980   15.6370   21.7620 C   0  0  0  0  0  0  0  0  0  0  0  0
   11.4040   15.0780   23.1840 C   0  0  0  0  0  0  0  0  0  0  0  0
    9.9700   15.1630   23.6970 C   0  0  0  0  0  0  0  0  0  0  0  0
    9.0960   15.0720   21.3780 C   0  0  0  0  0  0  0  0  0  0  0  0
    9.0260   14.5520   22.7460 N   0  0  0  0  0  0  0  0  0  0  0  0
    8.0400   13.7050   23.1040 C   0  0  0  0  0  0  0  0  0  0  0  0
    7.1870   13.3020   22.3480 O   0  0  0  0  0  0  0  0  0  0  0  0
    8.1490   13.3510   24.3970 O   0  0  0  0  0  0  0  0  0  0  0  0
    7.1180   12.4720   24.9350 C   0  0  1  0  0  0  0  0  0  0  0  0
    7.8750   11.3720   25.6790 C   0  0  2  0  0  0  0  0  0  0  0  0
    8.7180   10.5030   24.7470 C   0  0  0  0  0  0  0  0  0  0  0  0
    6.2890   13.3300   25.8760 C   0  0  0  0  0  0  0  0  0  0  0  0
    5.3230   12.5070   26.7480 C   0  0  0  0  0  0  0  0  0  0  0  0
    6.0440   11.3680   27.4570 C   0  0  0  0  0  0  0  0  0  0  0  0
    6.8780   10.5300   26.4730 C   0  0  0  0  0  0  0  0  0  0  0  0
 14 15  1  6
 14 19  1  0
 19 18  1  0
 18 17  1  0
 17 16  1  0
 16 13  1  0
 14 13  1  0
 13 12  1  1
 12 10  1  0
 11 10  2  0
 10  9  1  0
  9  7  1  0
  7  6  1  0
  6  5  1  0
  5  4  1  0
  4  2  1  6
  3  2  1  0
  2  1  2  0
  8  4  1  0
  9  8  1  0
M  END
$$$$
