A71EV2A-x4334_A_201_1_A71EV2A-x0911+A+147+1__LIG
     RDKit          3D

 20 21  0  0  0  0  0  0  0  0999 V2000
   10.3740   16.7780   19.0450 O   0  0  0  0  0  0  0  0  0  0  0  0
   10.7000   15.6120   19.3160 C   0  0  0  0  0  0  0  0  0  0  0  0
   10.9520   14.6900   18.4000 N   0  0  0  0  0  0  0  0  0  0  0  0
   10.7790   15.1330   20.7530 C   0  0  1  0  0  0  0  0  0  0  0  0
   11.9820   15.7310   21.4930 C   0  0  0  0  0  0  0  0  0  0  0  0
   12.0130   15.2700   22.9510 C   0  0  0  0  0  0  0  0  0  0  0  0
   10.6710   15.5240   23.6300 C   0  0  0  0  0  0  0  0  0  0  0  0
    9.4800   15.4860   21.4710 C   0  0  0  0  0  0  0  0  0  0  0  0
    9.5660   14.9640   22.8340 N   0  0  0  0  0  0  0  0  0  0  0  0
    8.7930   13.9260   23.2040 C   0  0  0  0  0  0  0  0  0  0  0  0
    7.8790   13.4920   22.5070 O   0  0  0  0  0  0  0  0  0  0  0  0
    9.1580   13.2950   24.5300 C   0  0  0  0  0  0  0  0  0  0  0  0
    8.5020   11.9530   24.6460 C   0  0  0  0  0  0  0  0  0  0  0  0
    8.9980   10.8610   23.9520 C   0  0  0  0  0  0  0  0  0  0  0  0
    8.4270    9.6190   24.1090 C   0  0  0  0  0  0  0  0  0  0  0  0
    7.3480    9.4530   24.9570 C   0  0  0  0  0  0  0  0  0  0  0  0
    7.4220   11.7820   25.4980 C   0  0  0  0  0  0  0  0  0  0  0  0
    6.8510   10.5370   25.6650 C   0  0  0  0  0  0  0  0  0  0  0  0
    5.5410   10.3320   26.8230 S   0  0  0  0  0  0  0  0  0  0  0  0
    5.1880   11.9900   27.4050 C   0  0  0  0  0  0  0  0  0  0  0  0
 20 19  1  0
 19 18  1  0
 18 16  2  0
 16 15  1  0
 15 14  2  0
 14 13  1  0
 13 12  1  0
 12 10  1  0
 11 10  2  0
 10  9  1  0
  9  7  1  0
  7  6  1  0
  6  5  1  0
  5  4  1  0
  4  2  1  6
  3  2  1  0
  2  1  2  0
  8  4  1  0
  9  8  1  0
 17 13  2  0
 18 17  1  0
M  END
$$$$
