A71EV2A-x4745_A_201_1_A71EV2A-x0911+A+147+1__LIG
     RDKit          3D

 21 22  0  0  0  0  0  0  0  0999 V2000
   12.4160   15.2310   18.8370 O   0  0  0  0  0  0  0  0  0  0  0  0
   11.0290   15.3860   19.1380 S   0  0  0  0  0  0  0  0  0  0  0  0
   10.3930   16.6640   18.9830 O   0  0  0  0  0  0  0  0  0  0  0  0
   10.2230   14.3150   18.2860 N   0  0  0  0  0  0  0  0  0  0  0  0
   10.8130   14.9010   20.8410 C   0  0  1  0  0  0  0  0  0  0  0  0
   11.8500   15.5660   21.7500 C   0  0  0  0  0  0  0  0  0  0  0  0
   11.7560   14.9780   23.1600 C   0  0  0  0  0  0  0  0  0  0  0  0
   10.3640   15.1920   23.7190 C   0  0  0  0  0  0  0  0  0  0  0  0
    9.4230   15.1660   21.4150 C   0  0  0  0  0  0  0  0  0  0  0  0
    9.3380   14.6780   22.7950 N   0  0  0  0  0  0  0  0  0  0  0  0
    8.3610   13.8270   23.1710 C   0  0  0  0  0  0  0  0  0  0  0  0
    7.4910   13.4720   22.4050 O   0  0  0  0  0  0  0  0  0  0  0  0
    8.3470   13.4250   24.6360 C   0  0  0  0  0  0  0  0  0  0  0  0
    7.4410   12.2530   24.9380 C   0  0  0  0  0  0  0  0  0  0  0  0
    7.7750   10.9330   24.6080 C   0  0  0  0  0  0  0  0  0  0  0  0
    9.1600   10.6910   23.5340 S   0  0  0  0  0  0  0  0  0  0  0  0
    9.3420    8.9140   23.4380 C   0  0  0  0  0  0  0  0  0  0  0  0
    6.3250   12.4710   25.7420 C   0  0  0  0  0  0  0  0  0  0  0  0
    5.6110   11.4170   26.2760 C   0  0  0  0  0  0  0  0  0  0  0  0
    5.9720   10.1280   25.9840 C   0  0  0  0  0  0  0  0  0  0  0  0
    7.0340    9.8730   25.1270 C   0  0  0  0  0  0  0  0  0  0  0  0
 17 16  1  0
 16 15  1  0
 15 21  2  0
 21 20  1  0
 20 19  2  0
 19 18  1  0
 18 14  2  0
 15 14  1  0
 14 13  1  0
 13 11  1  0
 12 11  2  0
 11 10  1  0
 10  8  1  0
  8  7  1  0
  7  6  1  0
  6  5  1  0
  5  2  1  6
  4  2  1  0
  3  2  2  0
  2  1  2  0
  9  5  1  0
 10  9  1  0
M  END
$$$$
