XX01ZVNS2B-x0917_B_203_1_XX01ZVNS2B-x4590+B+203+1__LIG
     RDKit          3D

 16 17  0  0  0  0  0  0  0  0999 V2000
   -7.8880    7.1070  -13.6930 F   0  0  0  0  0  0  0  0  0  0  0  0
   -7.9490    5.8070  -13.8920 C   0  0  0  0  0  0  0  0  0  0  0  0
   -6.9330    5.3160  -13.2230 F   0  0  0  0  0  0  0  0  0  0  0  0
   -9.0400    5.3700  -13.3020 F   0  0  0  0  0  0  0  0  0  0  0  0
   -7.9140    5.4460  -15.3460 C   0  0  0  0  0  0  0  0  0  0  0  0
   -8.8520    4.7890  -16.0930 C   0  0  0  0  0  0  0  0  0  0  0  0
   -6.8480    5.7870  -16.1410 N   0  0  0  0  0  0  0  0  0  0  0  0
   -7.1400    5.3460  -17.3430 C   0  0  0  0  0  0  0  0  0  0  0  0
   -8.3550    4.7380  -17.3670 N   0  0  0  0  0  0  0  0  0  0  0  0
   -9.0520    4.1640  -18.5170 C   0  0  0  0  0  0  0  0  0  0  0  0
   -6.2480    5.4920  -18.5310 C   0  0  2  0  0  0  0  0  0  0  0  0
   -4.8200    5.0630  -18.1690 C   0  0  0  0  0  0  0  0  0  0  0  0
   -3.9330    5.1970  -19.3350 N   0  0  0  0  0  0  0  0  0  0  0  0
   -3.8660    6.5960  -19.8290 C   0  0  0  0  0  0  0  0  0  0  0  0
   -5.2490    7.1190  -20.2070 C   0  0  0  0  0  0  0  0  0  0  0  0
   -6.2300    6.9370  -19.0460 C   0  0  0  0  0  0  0  0  0  0  0  0
 10  9  1  0
  9  6  1  0
  6  5  2  0
  7  5  1  0
  8  7  2  0
  9  8  1  0
 11  8  1  1
 11 16  1  0
 16 15  1  0
 15 14  1  0
 14 13  1  0
 13 12  1  0
 12 11  1  0
  5  2  1  0
  3  2  1  0
  4  2  1  0
  2  1  1  0
M  END
$$$$
