A71EV2A-x4827_A_201_1_A71EV2A-x0911+A+147+1__LIG
     RDKit          3D

 20 21  0  0  0  0  0  0  0  0999 V2000
   10.3150   16.6870   19.1690 O   0  0  0  0  0  0  0  0  0  0  0  0
   10.6840   15.5270   19.4120 C   0  0  0  0  0  0  0  0  0  0  0  0
   11.0410   14.6780   18.4720 N   0  0  0  0  0  0  0  0  0  0  0  0
   10.6710   14.9790   20.8290 C   0  0  1  0  0  0  0  0  0  0  0  0
   11.7640   15.6360   21.6910 C   0  0  0  0  0  0  0  0  0  0  0  0
   11.7000   15.1520   23.1450 C   0  0  0  0  0  0  0  0  0  0  0  0
   10.3050   15.3250   23.7080 C   0  0  0  0  0  0  0  0  0  0  0  0
    9.2810   15.1870   21.4540 C   0  0  0  0  0  0  0  0  0  0  0  0
    9.2850   14.7140   22.8420 N   0  0  0  0  0  0  0  0  0  0  0  0
    8.4130   13.7600   23.2380 C   0  0  0  0  0  0  0  0  0  0  0  0
    7.5470   13.3250   22.4990 O   0  0  0  0  0  0  0  0  0  0  0  0
    8.5170   13.3220   24.6860 C   0  0  0  0  0  0  0  0  0  0  0  0
    7.6180   12.1510   25.0140 C   0  0  0  0  0  0  0  0  0  0  0  0
    7.8970   10.8450   24.5900 C   0  0  0  0  0  0  0  0  0  0  0  0
    9.2980   10.5820   23.5420 S   0  0  0  0  0  0  0  0  0  0  0  0
    9.3360    8.8010   23.3040 C   0  0  0  0  0  0  0  0  0  0  0  0
    6.5200   12.3080   25.8390 C   0  0  0  0  0  0  0  0  0  0  0  0
    5.7230   11.3190   26.2510 N   0  0  0  0  0  0  0  0  0  0  0  0
    6.0280   10.0890   25.8400 C   0  0  0  0  0  0  0  0  0  0  0  0
    7.0890    9.7960   25.0070 C   0  0  0  0  0  0  0  0  0  0  0  0
 16 15  1  0
 15 14  1  0
 14 20  2  0
 20 19  1  0
 19 18  2  0
 18 17  1  0
 17 13  2  0
 14 13  1  0
 13 12  1  0
 12 10  1  0
 11 10  2  0
 10  9  1  0
  9  7  1  0
  7  6  1  0
  6  5  1  0
  5  4  1  0
  4  2  1  6
  3  2  1  0
  2  1  2  0
  8  4  1  0
  9  8  1  0
M  END
$$$$
