XX01ZVNS2B-x3394_B_203_1_XX01ZVNS2B-x4590+B+203+1__LIG
     RDKit          3D

 23 26  0  0  0  0  0  0  0  0999 V2000
   -9.5120    7.3890  -13.3020 N   0  0  0  0  0  0  0  0  0  0  0  0
   -9.1250    6.3080  -13.4130 C   0  0  0  0  0  0  0  0  0  0  0  0
   -8.7140    4.8880  -13.6190 C   0  0  2  0  0  0  0  0  0  0  0  0
   -7.8750    4.3360  -12.5730 N   0  0  0  0  0  0  0  0  0  0  0  0
   -8.2660    4.2390  -11.2320 C   0  0  0  0  0  0  0  0  0  0  0  0
   -8.0890    5.3550  -10.4050 C   0  0  0  0  0  0  0  0  0  0  0  0
   -8.3240    5.2600   -9.0460 C   0  0  0  0  0  0  0  0  0  0  0  0
   -8.6890    4.0310   -8.5100 C   0  0  0  0  0  0  0  0  0  0  0  0
   -8.8680    2.9190   -9.3260 C   0  0  0  0  0  0  0  0  0  0  0  0
   -8.6280    2.9960  -10.6920 C   0  0  0  0  0  0  0  0  0  0  0  0
   -9.3100    1.7560   -8.4850 C   0  0  0  0  0  0  0  0  0  0  0  0
   -8.9330    2.2060   -7.1370 N   0  0  0  0  0  0  0  0  0  0  0  0
   -9.0280    3.6710   -7.0920 C   0  0  0  0  0  0  0  0  0  0  0  0
   -8.1980    4.6990  -15.0350 C   0  0  0  0  0  0  0  0  0  0  0  0
   -9.1550    4.3870  -15.9770 C   0  0  0  0  0  0  0  0  0  0  0  0
   -8.8500    4.2710  -17.3240 C   0  0  0  0  0  0  0  0  0  0  0  0
  -10.1720    3.8440  -18.3630 Cl  0  0  0  0  0  0  0  0  0  0  0  0
   -7.5710    4.4430  -17.8180 C   0  0  0  0  0  0  0  0  0  0  0  0
   -6.5990    4.8020  -16.8820 C   0  0  0  0  0  0  0  0  0  0  0  0
   -5.2720    5.0150  -17.0400 N   0  0  0  0  0  0  0  0  0  0  0  0
   -4.6730    5.2740  -15.8430 N   0  0  0  0  0  0  0  0  0  0  0  0
   -5.6220    5.2360  -14.9210 C   0  0  0  0  0  0  0  0  0  0  0  0
   -6.8810    4.9410  -15.5030 C   0  0  0  0  0  0  0  0  0  0  0  0
  1  2  3  0
  3  2  1  1
  3  4  1  0
  4  5  1  0
  5  6  2  0
  6  7  1  0
  7  8  2  0
  8  9  1  0
  9 10  2  0
  9 11  1  0
 11 12  1  0
 12 13  1  0
  3 14  1  0
 14 15  2  0
 15 16  1  0
 16 17  1  0
 16 18  2  0
 18 19  1  0
 19 20  1  0
 20 21  1  0
 21 22  2  0
 22 23  1  0
  5 10  1  0
 14 23  1  0
  8 13  1  0
 19 23  2  0
M  END
$$$$
