XX01ZVNS2B-x3769_B_203_1_XX01ZVNS2B-x4590+B+203+1__LIG
     RDKit          3D

 29 32  0  0  0  0  0  0  0  0999 V2000
  -10.3150    3.9370  -18.2060 Br  0  0  0  0  0  0  0  0  0  0  0  0
   -8.7470    4.4860  -17.2780 C   0  0  0  0  0  0  0  0  0  0  0  0
   -8.7050    4.3680  -15.8970 C   0  0  0  0  0  0  0  0  0  0  0  0
   -7.7130    4.9990  -17.9920 C   0  0  0  0  0  0  0  0  0  0  0  0
   -6.5630    5.4550  -17.3180 C   0  0  0  0  0  0  0  0  0  0  0  0
   -6.5040    5.3700  -15.8940 C   0  0  0  0  0  0  0  0  0  0  0  0
   -5.3340    5.8610  -15.2550 C   0  0  0  0  0  0  0  0  0  0  0  0
   -4.2920    6.3700  -15.9750 C   0  0  0  0  0  0  0  0  0  0  0  0
   -4.3470    6.4220  -17.3530 C   0  0  0  0  0  0  0  0  0  0  0  0
   -5.4530    5.9860  -18.0200 C   0  0  0  0  0  0  0  0  0  0  0  0
   -7.6020    4.7830  -15.1850 C   0  0  0  0  0  0  0  0  0  0  0  0
   -7.4690    4.5490  -13.6800 C   0  0  2  0  0  0  0  0  0  0  0  0
   -6.6880    3.2690  -13.3920 C   0  0  0  0  0  0  0  0  0  0  0  0
   -5.5950    3.4430  -12.6560 N   0  0  0  0  0  0  0  0  0  0  0  0
   -4.6690    2.3590  -12.3830 C   0  0  0  0  0  0  0  0  0  0  0  0
   -3.7410    2.1940  -13.6330 C   0  0  0  0  0  0  0  0  0  0  0  0
   -3.3290    3.4260  -14.0370 F   0  0  0  0  0  0  0  0  0  0  0  0
   -2.6170    1.5380  -13.2410 F   0  0  0  0  0  0  0  0  0  0  0  0
   -7.0900    2.1680  -13.7480 O   0  0  0  0  0  0  0  0  0  0  0  0
   -8.6780    4.5100  -12.8860 N   0  0  0  0  0  0  0  0  0  0  0  0
   -8.5930    4.4370  -11.4940 C   0  0  0  0  0  0  0  0  0  0  0  0
   -8.9650    3.2730  -10.8250 C   0  0  0  0  0  0  0  0  0  0  0  0
   -8.8890    3.2070   -9.4370 C   0  0  0  0  0  0  0  0  0  0  0  0
   -9.2010    2.0640   -8.5170 C   0  0  0  0  0  0  0  0  0  0  0  0
   -8.8060    2.5960   -7.2160 N   0  0  0  0  0  0  0  0  0  0  0  0
   -8.5240    4.0270   -7.2410 C   0  0  0  0  0  0  0  0  0  0  0  0
   -8.4540    4.3070   -8.7130 C   0  0  0  0  0  0  0  0  0  0  0  0
   -8.0680    5.4640   -9.3840 C   0  0  0  0  0  0  0  0  0  0  0  0
   -8.1340    5.5300  -10.7640 C   0  0  0  0  0  0  0  0  0  0  0  0
 19 13  2  0
 14 13  1  0
 15 14  1  0
 16 15  1  0
 18 16  1  0
 17 16  1  0
 13 12  1  0
 12 20  1  6
 21 20  1  0
 21 29  2  0
 29 28  1  0
 28 27  2  0
 27 23  1  0
 23 22  2  0
 22 21  1  0
 24 23  1  0
 25 24  1  0
 26 25  1  0
 27 26  1  0
 12 11  1  0
 11  3  1  0
  3  2  2  0
  2  1  1  0
  4  2  1  0
  5  4  2  0
  5 10  1  0
 10  9  2  0
  9  8  1  0
  8  7  2  0
  7  6  1  0
 11  6  2  0
  6  5  1  0
M  END
$$$$
