XX01ZVNS2B-x3834_B_203_1_XX01ZVNS2B-x4590+B+203+1__LIG
     RDKit          3D

 24 28  0  0  0  0  0  0  0  0999 V2000
   -6.6110    5.4790  -13.5840 O   0  0  0  0  0  0  0  0  0  0  0  0
   -7.4440    4.6720  -13.9910 C   0  0  0  0  0  0  0  0  0  0  0  0
   -7.6960    4.5130  -15.4590 C   0  0  0  0  0  0  0  0  0  0  0  0
   -6.7220    4.8540  -16.4130 C   0  0  0  0  0  0  0  0  0  0  0  0
   -5.4100    5.2570  -16.2510 N   0  0  0  0  0  0  0  0  0  0  0  0
   -4.8390    5.4120  -17.4950 C   0  0  0  0  0  0  0  0  0  0  0  0
   -3.4880    5.7210  -18.0630 C   0  0  0  0  0  0  0  0  0  0  0  0
   -3.6270    5.3510  -19.5400 C   0  0  0  0  0  0  0  0  0  0  0  0
   -5.1240    5.2840  -19.8340 C   0  0  0  0  0  0  0  0  0  0  0  0
   -5.7600    5.1360  -18.4640 C   0  0  0  0  0  0  0  0  0  0  0  0
   -6.9810    4.7720  -17.7940 C   0  0  0  0  0  0  0  0  0  0  0  0
   -8.2340    4.3400  -18.2240 C   0  0  0  0  0  0  0  0  0  0  0  0
   -9.1970    3.9890  -17.2890 C   0  0  0  0  0  0  0  0  0  0  0  0
   -8.9340    4.0690  -15.9260 C   0  0  0  0  0  0  0  0  0  0  0  0
   -8.2210    3.9170  -13.1740 N   0  0  0  0  0  0  0  0  0  0  0  0
   -8.2840    3.9630  -11.7580 C   0  0  0  0  0  0  0  0  0  0  0  0
   -8.6390    2.8260  -11.0330 C   0  0  0  0  0  0  0  0  0  0  0  0
   -8.7260    2.8830   -9.6430 C   0  0  0  0  0  0  0  0  0  0  0  0
   -9.1110    1.8120   -8.6660 C   0  0  0  0  0  0  0  0  0  0  0  0
   -8.6970    2.4230   -7.4010 N   0  0  0  0  0  0  0  0  0  0  0  0
   -8.5520    3.8750   -7.4930 C   0  0  0  0  0  0  0  0  0  0  0  0
   -8.4470    4.0680   -8.9770 C   0  0  0  0  0  0  0  0  0  0  0  0
   -8.0990    5.2020   -9.7030 C   0  0  0  0  0  0  0  0  0  0  0  0
   -8.0190    5.1520  -11.0830 C   0  0  0  0  0  0  0  0  0  0  0  0
  2  1  2  0
 15  2  1  0
 16 15  1  0
 16 24  2  0
 24 23  1  0
 23 22  2  0
 22 18  1  0
 18 17  2  0
 17 16  1  0
 19 18  1  0
 20 19  1  0
 21 20  1  0
 22 21  1  0
  3  2  1  0
  3 14  1  0
 14 13  2  0
 13 12  1  0
 12 11  2  0
 11 10  1  0
 10  6  2  0
  6  5  1  0
  5  4  1  0
  4  3  2  0
 11  4  1  0
  7  6  1  0
  8  7  1  0
  9  8  1  0
 10  9  1  0
M  END
$$$$
