XX01ZVNS2B-x3400_B_203_1_XX01ZVNS2B-x4590+B+203+1__LIG
     RDKit          3D

 22 25  0  0  0  0  0  0  0  0999 V2000
   -6.5720    5.2710  -13.0780 O   0  0  0  0  0  0  0  0  0  0  0  0
   -7.4470    4.6060  -13.6260 C   0  0  0  0  0  0  0  0  0  0  0  0
   -8.3590    3.8990  -12.9180 N   0  0  0  0  0  0  0  0  0  0  0  0
   -8.4860    3.8990  -11.4970 C   0  0  0  0  0  0  0  0  0  0  0  0
   -8.3430    5.0880  -10.7800 C   0  0  0  0  0  0  0  0  0  0  0  0
   -8.4360    5.0960   -9.3950 C   0  0  0  0  0  0  0  0  0  0  0  0
   -8.6500    3.8930   -8.7270 C   0  0  0  0  0  0  0  0  0  0  0  0
   -8.8280    2.7130   -9.4370 C   0  0  0  0  0  0  0  0  0  0  0  0
   -8.7040    2.6900  -10.8220 C   0  0  0  0  0  0  0  0  0  0  0  0
   -9.1290    1.5940   -8.4800 C   0  0  0  0  0  0  0  0  0  0  0  0
   -8.7060    2.1690   -7.1900 N   0  0  0  0  0  0  0  0  0  0  0  0
   -8.8570    3.6360   -7.2620 C   0  0  0  0  0  0  0  0  0  0  0  0
   -7.4680    4.5130  -15.1260 C   0  0  0  0  0  0  0  0  0  0  0  0
   -8.6090    4.1910  -15.8540 C   0  0  0  0  0  0  0  0  0  0  0  0
   -8.5830    4.1650  -17.2380 C   0  0  0  0  0  0  0  0  0  0  0  0
  -10.1990    3.8450  -18.1910 Br  0  0  0  0  0  0  0  0  0  0  0  0
   -7.4510    4.4290  -17.9710 C   0  0  0  0  0  0  0  0  0  0  0  0
   -6.2870    4.7250  -17.2700 C   0  0  0  0  0  0  0  0  0  0  0  0
   -5.0090    4.9580  -17.7160 N   0  0  0  0  0  0  0  0  0  0  0  0
   -4.1840    5.1110  -16.6310 C   0  0  0  0  0  0  0  0  0  0  0  0
   -4.9100    5.0170  -15.4800 C   0  0  0  0  0  0  0  0  0  0  0  0
   -6.2650    4.7500  -15.8600 C   0  0  0  0  0  0  0  0  0  0  0  0
  1  2  2  0
  2  3  1  0
  3  4  1  0
  4  5  2  0
  5  6  1  0
  6  7  2  0
  7  8  1  0
  8  9  2  0
  8 10  1  0
 10 11  1  0
 11 12  1  0
  2 13  1  0
 13 14  2  0
 14 15  1  0
 15 16  1  0
 15 17  2  0
 17 18  1  0
 18 19  1  0
 19 20  1  0
 20 21  2  0
 21 22  1  0
  4  9  1  0
 13 22  1  0
  7 12  1  0
 18 22  2  0
M  END
$$$$
