XX01ZVNS2B-x3826_B_203_1_XX01ZVNS2B-x4590+B+203+1__LIG
     RDKit          3D

 26 29  0  0  0  0  0  0  0  0999 V2000
   -6.8520    5.8780  -13.1080 O   0  0  0  0  0  0  0  0  0  0  0  0
   -7.5650    5.0120  -13.6090 C   0  0  0  0  0  0  0  0  0  0  0  0
   -7.6180    4.8210  -15.0980 C   0  0  0  0  0  0  0  0  0  0  0  0
   -8.8420    4.4920  -15.6870 C   0  0  0  0  0  0  0  0  0  0  0  0
   -8.9140    4.3980  -17.0620 C   0  0  0  0  0  0  0  0  0  0  0  0
  -10.1110    4.0700  -17.6250 F   0  0  0  0  0  0  0  0  0  0  0  0
   -7.8410    4.6040  -17.8970 C   0  0  0  0  0  0  0  0  0  0  0  0
   -6.4970    5.0230  -15.9040 C   0  0  0  0  0  0  0  0  0  0  0  0
   -6.6300    4.9070  -17.2840 C   0  0  0  0  0  0  0  0  0  0  0  0
   -5.3910    5.1240  -17.8930 N   0  0  0  0  0  0  0  0  0  0  0  0
   -4.4250    5.4140  -16.9890 C   0  0  0  0  0  0  0  0  0  0  0  0
   -3.2490    5.6480  -17.2330 O   0  0  0  0  0  0  0  0  0  0  0  0
   -5.0620    5.3930  -15.5870 C   0  0  2  0  0  0  0  0  0  0  0  0
   -4.3340    4.3900  -14.6930 C   0  0  0  0  0  0  0  0  0  0  0  0
   -4.9750    6.6450  -14.8970 O   0  0  0  0  0  0  0  0  0  0  0  0
   -5.3230    7.8030  -15.6710 C   0  0  0  0  0  0  0  0  0  0  0  0
   -8.3490    4.1780  -12.8790 N   0  0  0  0  0  0  0  0  0  0  0  0
   -8.4780    4.1350  -11.4670 C   0  0  0  0  0  0  0  0  0  0  0  0
   -8.7070    2.9200  -10.8220 C   0  0  0  0  0  0  0  0  0  0  0  0
   -8.7860    2.8700   -9.4320 C   0  0  0  0  0  0  0  0  0  0  0  0
   -9.0950    1.7080   -8.5340 C   0  0  0  0  0  0  0  0  0  0  0  0
   -8.7240    2.2480   -7.2290 N   0  0  0  0  0  0  0  0  0  0  0  0
   -8.6640    3.7150   -7.2170 C   0  0  0  0  0  0  0  0  0  0  0  0
   -8.6060    4.0250   -8.6830 C   0  0  0  0  0  0  0  0  0  0  0  0
   -8.3890    5.2380   -9.3300 C   0  0  0  0  0  0  0  0  0  0  0  0
   -8.3390    5.2960  -10.7100 C   0  0  0  0  0  0  0  0  0  0  0  0
 16 15  1  0
 15 13  1  0
 13 14  1  1
 13 11  1  0
 12 11  2  0
 11 10  1  0
 10  9  1  0
  9  7  2  0
  7  5  1  0
  6  5  1  0
  5  4  2  0
  4  3  1  0
  3  2  1  0
  2  1  2  0
 17  2  1  0
 18 17  1  0
 18 26  2  0
 26 25  1  0
 25 24  2  0
 24 20  1  0
 20 19  2  0
 19 18  1  0
 21 20  1  0
 22 21  1  0
 23 22  1  0
 24 23  1  0
  8  3  2  0
  9  8  1  0
 13  8  1  0
M  END
$$$$
