A71EV2A-x4998_A_201_3_A71EV2A-x0911+A+147+1_ALIG
     RDKit          3D

 17 18  0  0  0  0  0  0  0  0999 V2000
   12.2620   16.0610   21.3340 O   0  0  0  0  0  0  0  0  0  0  0  0
   11.9070   14.9120   21.0650 C   0  0  0  0  0  0  0  0  0  0  0  0
   11.9380   14.4300   19.8350 N   0  0  0  0  0  0  0  0  0  0  0  0
   11.3740   13.9850   22.1470 C   0  0  0  0  0  0  0  0  0  0  0  0
    9.8440   13.9120   22.3620 C   0  0  0  0  0  0  0  0  0  0  0  0
   11.4940   14.5470   23.5900 C   0  0  0  0  0  0  0  0  0  0  0  0
   10.0640   14.2640   23.7720 N   0  0  0  0  0  0  0  0  0  0  0  0
    9.1810   13.9270   24.7260 C   0  0  0  0  0  0  0  0  0  0  0  0
    9.4470   13.9950   25.8670 O   0  0  0  0  0  0  0  0  0  0  0  0
    7.8370   13.4060   24.3170 C   0  0  0  0  0  0  0  0  0  0  0  0
    7.4430   12.1360   25.0350 C   0  0  0  0  0  0  0  0  0  0  0  0
    6.5290   12.0890   26.0390 C   0  0  0  0  0  0  0  0  0  0  0  0
    6.0490   10.4910   26.3740 S   0  0  0  0  0  0  0  0  0  0  0  0
    7.1030    9.8560   25.1620 C   0  0  0  0  0  0  0  0  0  0  0  0
    7.7960   10.8310   24.5750 C   0  0  0  0  0  0  0  0  0  0  0  0
    9.0940   10.6080   23.4030 S   0  0  0  0  0  0  0  0  0  0  0  0
    8.9990    8.7450   22.9800 C   0  0  0  0  0  0  0  0  0  0  0  0
 17 16  1  0
 16 15  1  0
 15 14  2  0
 14 13  1  0
 13 12  1  0
 12 11  2  0
 15 11  1  0
 11 10  1  0
 10  8  1  0
  9  8  2  0
  8  7  1  0
  7  5  1  0
  5  4  1  0
  4  2  1  0
  3  2  1  0
  2  1  2  0
  6  4  1  0
  7  6  1  0
M  END
$$$$
A71EV2A-x4998_A_201_3_A71EV2A-x0911+A+147+1_BLIG
     RDKit          3D

 17 18  0  0  0  0  0  0  0  0999 V2000
   12.2680   16.0890   21.3620 O   0  0  0  0  0  0  0  0  0  0  0  0
   11.9400   14.9300   21.1090 C   0  0  0  0  0  0  0  0  0  0  0  0
   11.9740   14.4350   19.8840 N   0  0  0  0  0  0  0  0  0  0  0  0
   11.4300   14.0020   22.2020 C   0  0  0  0  0  0  0  0  0  0  0  0
    9.8980   13.9260   22.3800 C   0  0  0  0  0  0  0  0  0  0  0  0
   11.5220   14.4990   23.6740 C   0  0  0  0  0  0  0  0  0  0  0  0
   10.0750   14.2720   23.7970 N   0  0  0  0  0  0  0  0  0  0  0  0
    8.9350   13.8960   24.4090 C   0  0  0  0  0  0  0  0  0  0  0  0
    7.8840   14.0580   23.8960 O   0  0  0  0  0  0  0  0  0  0  0  0
    8.9280   13.0440   25.6360 C   0  0  0  0  0  0  0  0  0  0  0  0
    7.7980   12.0550   25.4730 C   0  0  0  0  0  0  0  0  0  0  0  0
    6.7410   12.0050   26.3230 C   0  0  0  0  0  0  0  0  0  0  0  0
    6.0210   10.4840   26.3560 S   0  0  0  0  0  0  0  0  0  0  0  0
    7.0390    9.8970   25.0930 C   0  0  0  0  0  0  0  0  0  0  0  0
    7.9110   10.8300   24.7070 C   0  0  0  0  0  0  0  0  0  0  0  0
    9.0970   10.6140   23.4130 S   0  0  0  0  0  0  0  0  0  0  0  0
    8.9870    8.7470   22.9900 C   0  0  0  0  0  0  0  0  0  0  0  0
 17 16  1  0
 16 15  1  0
 15 14  2  0
 14 13  1  0
 13 12  1  0
 12 11  2  0
 15 11  1  0
 11 10  1  0
 10  8  1  0
  9  8  2  0
  8  7  1  0
  7  5  1  0
  5  4  1  0
  4  2  1  0
  3  2  1  0
  2  1  2  0
  6  4  1  0
  7  6  1  0
M  END
$$$$
