A71EV2A-x4752_A_201_1_A71EV2A-x0911+A+147+1__LIG
     RDKit          3D

 22 24  0  0  0  0  0  0  0  0999 V2000
    7.6040   13.4620   22.4490 O   0  0  0  0  0  0  0  0  0  0  0  0
    7.3440   13.8680   23.5250 C   0  0  0  0  0  0  0  0  0  0  0  0
    8.0830   13.2660   24.7030 C   0  0  0  0  0  0  0  0  0  0  0  0
    7.5350   11.9100   25.0980 C   0  0  0  0  0  0  0  0  0  0  0  0
    6.5050   11.8820   26.0300 C   0  0  0  0  0  0  0  0  0  0  0  0
    6.0370   10.6990   26.5610 C   0  0  0  0  0  0  0  0  0  0  0  0
    6.5640    9.5230   26.1570 C   0  0  0  0  0  0  0  0  0  0  0  0
    7.5700    9.5010   25.2060 C   0  0  0  0  0  0  0  0  0  0  0  0
    8.0540   10.6820   24.6620 C   0  0  0  0  0  0  0  0  0  0  0  0
    9.2740   10.5260   23.3940 S   0  0  0  0  0  0  0  0  0  0  0  0
    9.1030    8.7600   22.8250 C   0  0  0  0  0  0  0  0  0  0  0  0
    6.4210   14.8320   23.6920 N   0  0  0  0  0  0  0  0  0  0  0  0
    5.4310   15.1720   22.7120 C   0  0  0  0  0  0  0  0  0  0  0  0
    4.0740   15.0550   23.3570 C   0  0  0  0  0  0  0  0  0  0  0  0
    3.9660   14.8410   24.7380 C   0  0  0  0  0  0  0  0  0  0  0  0
    5.0670   15.2350   25.6720 C   0  0  0  0  0  0  0  0  0  0  0  0
    6.4000   15.4640   24.9990 C   0  0  0  0  0  0  0  0  0  0  0  0
    2.8990   15.0510   22.6250 C   0  0  0  0  0  0  0  0  0  0  0  0
    2.9650   15.5130   21.3720 O   0  0  0  0  0  0  0  0  0  0  0  0
    1.7040   14.7200   23.2240 C   0  0  0  0  0  0  0  0  0  0  0  0
    1.7210   14.4770   24.5840 C   0  0  0  0  0  0  0  0  0  0  0  0
    2.8150   14.5330   25.3420 N   0  0  0  0  0  0  0  0  0  0  0  0
 11 10  1  0
 10  9  1  0
  9  8  1  0
  8  7  2  0
  7  6  1  0
  6  5  2  0
  5  4  1  0
  9  4  2  0
  4  3  1  0
  3  2  1  0
  2  1  2  0
 12  2  1  0
 12 17  1  0
 17 16  1  0
 16 15  1  0
 15 22  2  0
 22 21  1  0
 21 20  2  0
 20 18  1  0
 19 18  1  0
 18 14  2  0
 15 14  1  0
 14 13  1  0
 13 12  1  0
M  END
$$$$
