A71EV2A-x4596_A_201_1_A71EV2A-x0911+A+147+1__LIG
     RDKit          3D

 20 22  0  0  0  0  0  0  0  0999 V2000
   11.2190   15.0680   24.9770 O   0  0  0  0  0  0  0  0  0  0  0  0
   11.1240   15.1690   23.7580 C   0  0  0  0  0  0  0  0  0  0  0  0
   12.3640   15.2990   22.9130 C   0  0  0  0  0  0  0  0  0  0  0  0
   12.1290   15.7940   21.4940 C   0  0  0  0  0  0  0  0  0  0  0  0
    9.9180   15.1850   23.1240 N   0  0  0  0  0  0  0  0  0  0  0  0
    9.6790   15.3840   21.6870 C   0  0  0  0  0  0  0  0  0  0  0  0
   10.9340   15.0740   20.8680 C   0  0  1  0  0  0  0  0  0  0  0  0
   10.7680   15.4900   19.4170 C   0  0  0  0  0  0  0  0  0  0  0  0
   10.4090   16.6350   19.1180 O   0  0  0  0  0  0  0  0  0  0  0  0
   11.0490   14.5650   18.5160 N   0  0  0  0  0  0  0  0  0  0  0  0
    8.6920   15.0400   23.9240 C   0  0  0  0  0  0  0  0  0  0  0  0
    8.3370   13.6010   24.2070 C   0  0  0  0  0  0  0  0  0  0  0  0
    7.2850   13.3000   25.0670 C   0  0  0  0  0  0  0  0  0  0  0  0
    6.9380   11.9690   25.2800 C   0  0  0  0  0  0  0  0  0  0  0  0
    5.9490   11.4200   26.0620 N   0  0  0  0  0  0  0  0  0  0  0  0
    5.9870   10.0570   25.9270 C   0  0  0  0  0  0  0  0  0  0  0  0
    6.9870    9.7010   25.0810 C   0  0  0  0  0  0  0  0  0  0  0  0
    7.6180   10.9110   24.6470 C   0  0  0  0  0  0  0  0  0  0  0  0
    8.6820   11.2400   23.8050 C   0  0  0  0  0  0  0  0  0  0  0  0
    9.0310   12.5640   23.5970 C   0  0  0  0  0  0  0  0  0  0  0  0
 10  8  1  0
  9  8  2  0
  7  8  1  6
  7  4  1  0
  4  3  1  0
  3  2  1  0
  2  1  2  0
  5  2  1  0
 11  5  1  0
 12 11  1  0
 12 20  2  0
 20 19  1  0
 19 18  2  0
 18 17  1  0
 17 16  2  0
 16 15  1  0
 15 14  1  0
 18 14  1  0
 14 13  2  0
 13 12  1  0
  6  5  1  0
  7  6  1  0
M  END
$$$$
