A71EV2A-x3575_A_201_1_A71EV2A-x0911+A+147+1__LIG
     RDKit          3D

 22 23  0  0  0  0  0  0  0  0999 V2000
   10.4030   16.8070   19.1600 O   0  0  0  0  0  0  0  0  0  0  0  0
   10.7160   15.6340   19.4070 C   0  0  0  0  0  0  0  0  0  0  0  0
   10.9810   14.7420   18.4710 N   0  0  0  0  0  0  0  0  0  0  0  0
   10.8400   15.1420   20.8380 C   0  0  1  0  0  0  0  0  0  0  0  0
   12.0140   15.8180   21.5710 C   0  0  0  0  0  0  0  0  0  0  0  0
   12.0970   15.4200   23.0510 C   0  0  0  0  0  0  0  0  0  0  0  0
   10.7470   15.5270   23.7410 C   0  0  0  0  0  0  0  0  0  0  0  0
    9.5520   15.4130   21.6050 C   0  0  0  0  0  0  0  0  0  0  0  0
    9.7050   14.8560   22.9490 N   0  0  0  0  0  0  0  0  0  0  0  0
    8.9810   13.7800   23.3150 C   0  0  0  0  0  0  0  0  0  0  0  0
    8.0580   13.3530   22.6370 O   0  0  0  0  0  0  0  0  0  0  0  0
    9.3720   13.1320   24.6280 C   0  0  0  0  0  0  0  0  0  0  0  0
    8.5320   11.9060   24.8900 C   0  0  0  0  0  0  0  0  0  0  0  0
    7.4070   11.9610   25.7130 C   0  0  0  0  0  0  0  0  0  0  0  0
    7.0560   13.1690   26.2910 O   0  0  0  0  0  0  0  0  0  0  0  0
    6.0870   13.9690   25.6040 C   0  0  0  0  0  0  0  0  0  0  0  0
    8.8570   10.6870   24.2960 C   0  0  0  0  0  0  0  0  0  0  0  0
    8.1100    9.5530   24.5500 C   0  0  0  0  0  0  0  0  0  0  0  0
    7.0090    9.6150   25.3870 C   0  0  0  0  0  0  0  0  0  0  0  0
    6.6290   10.8280   25.9640 C   0  0  0  0  0  0  0  0  0  0  0  0
    5.3920   10.9050   26.6900 C   0  0  0  0  0  0  0  0  0  0  0  0
    4.4110   11.0160   27.2650 N   0  0  0  0  0  0  0  0  0  0  0  0
 16 15  1  0
 15 14  1  0
 14 20  2  0
 21 20  1  0
 22 21  3  0
 20 19  1  0
 19 18  2  0
 18 17  1  0
 17 13  2  0
 14 13  1  0
 13 12  1  0
 12 10  1  0
 11 10  2  0
 10  9  1  0
  9  7  1  0
  7  6  1  0
  6  5  1  0
  5  4  1  0
  4  2  1  6
  3  2  1  0
  2  1  2  0
  8  4  1  0
  9  8  1  0
M  END
$$$$
