XX01ZVNS2B-x1713_B_301_1_XX01ZVNS2B-x4590+B+203+1__LIG
     RDKit          3D

 12 13  0  0  0  0  0  0  0  0999 V2000
   -3.5070    6.0550  -16.2060 N   0  0  0  0  0  0  0  0  0  0  0  0
   -4.8110    5.6400  -16.0020 C   0  0  0  0  0  0  0  0  0  0  0  0
   -5.3330    5.5240  -14.7200 C   0  0  0  0  0  0  0  0  0  0  0  0
   -6.6660    5.1020  -14.5710 C   0  0  0  0  0  0  0  0  0  0  0  0
   -7.4750    4.7890  -15.5620 N   0  0  0  0  0  0  0  0  0  0  0  0
   -6.9860    4.9030  -16.8380 C   0  0  0  0  0  0  0  0  0  0  0  0
   -7.8380    4.5840  -17.9280 C   0  0  0  0  0  0  0  0  0  0  0  0
   -7.3870    4.6810  -19.2110 C   0  0  0  0  0  0  0  0  0  0  0  0
   -6.0750    5.0970  -19.4750 C   0  0  0  0  0  0  0  0  0  0  0  0
   -5.2290    5.4080  -18.4580 C   0  0  0  0  0  0  0  0  0  0  0  0
   -5.6540    5.3250  -17.1140 C   0  0  0  0  0  0  0  0  0  0  0  0
   -9.4620    4.0710  -17.6250 Cl  0  0  0  0  0  0  0  0  0  0  0  0
  1  2  1  0
  2  3  2  0
  3  4  1  0
  4  5  2  0
  5  6  1  0
  6  7  2  0
  7  8  1  0
  8  9  2  0
  9 10  1  0
 10 11  2  0
  7 12  1  0
  2 11  1  0
  6 11  1  0
M  END
$$$$
