XX01ZVNS2B-x4971_B_203_5_XX01ZVNS2B-x4590+B+203+1__LIG
     RDKit          3D

 23 26  0  0  0  0  0  0  0  0999 V2000
   -6.5640    5.4430  -12.8790 O   0  0  0  0  0  0  0  0  0  0  0  0
   -7.3990    4.7230  -13.4200 C   0  0  0  0  0  0  0  0  0  0  0  0
   -7.4270    4.5780  -14.9120 C   0  0  0  0  0  0  0  0  0  0  0  0
   -8.5430    4.2310  -15.6780 C   0  0  0  0  0  0  0  0  0  0  0  0
   -8.4620    4.2530  -17.0620 C   0  0  0  0  0  0  0  0  0  0  0  0
   -9.8380    3.8210  -18.0260 Cl  0  0  0  0  0  0  0  0  0  0  0  0
   -6.2280    4.9070  -15.5450 C   0  0  0  0  0  0  0  0  0  0  0  0
   -6.1350    4.9250  -16.9420 C   0  0  0  0  0  0  0  0  0  0  0  0
   -7.2790    4.6130  -17.7000 C   0  0  0  0  0  0  0  0  0  0  0  0
   -6.9540    4.7320  -19.0300 N   0  0  0  0  0  0  0  0  0  0  0  0
   -5.6360    5.0910  -19.1350 C   0  0  0  0  0  0  0  0  0  0  0  0
   -5.0820    5.2050  -17.8830 C   0  0  0  0  0  0  0  0  0  0  0  0
   -3.6350    5.4560  -17.5720 C   0  0  0  0  0  0  0  0  0  0  0  0
   -8.3140    4.0070  -12.7210 N   0  0  0  0  0  0  0  0  0  0  0  0
   -8.4490    3.9910  -11.3020 C   0  0  0  0  0  0  0  0  0  0  0  0
   -8.7320    2.8010  -10.6370 C   0  0  0  0  0  0  0  0  0  0  0  0
   -8.8230    2.7780   -9.2460 C   0  0  0  0  0  0  0  0  0  0  0  0
   -9.0870    1.6250   -8.3230 C   0  0  0  0  0  0  0  0  0  0  0  0
   -8.8150    2.2140   -7.0030 N   0  0  0  0  0  0  0  0  0  0  0  0
   -8.7940    3.6770   -7.0520 C   0  0  0  0  0  0  0  0  0  0  0  0
   -8.6360    3.9470   -8.5210 C   0  0  0  0  0  0  0  0  0  0  0  0
   -8.3590    5.1360   -9.1830 C   0  0  0  0  0  0  0  0  0  0  0  0
   -8.2670    5.1600  -10.5660 C   0  0  0  0  0  0  0  0  0  0  0  0
 13 12  1  0
 12 11  2  0
 11 10  1  0
 10  9  1  0
  9  5  1  0
  6  5  1  0
  5  4  2  0
  4  3  1  0
  3  2  1  0
  2  1  2  0
 14  2  1  0
 15 14  1  0
 15 23  2  0
 23 22  1  0
 22 21  2  0
 21 17  1  0
 17 16  2  0
 16 15  1  0
 18 17  1  0
 19 18  1  0
 20 19  1  0
 21 20  1  0
  7  3  2  0
  8  7  1  0
 12  8  1  0
  9  8  2  0
M  END
$$$$
