A71EV2A-x4489_A_201_1_A71EV2A-x0911+A+147+1__LIG
     RDKit          3D

 19 20  0  0  0  0  0  0  0  0999 V2000
    7.6140   13.3020   22.4970 O   0  0  0  0  0  0  0  0  0  0  0  0
    8.5570   13.6370   23.1890 C   0  0  0  0  0  0  0  0  0  0  0  0
    9.3380   14.6860   22.8680 N   0  0  0  0  0  0  0  0  0  0  0  0
   10.3790   15.2580   23.7370 C   0  0  0  0  0  0  0  0  0  0  0  0
   11.7560   15.1090   23.1210 C   0  0  0  0  0  0  0  0  0  0  0  0
   11.7730   15.6390   21.6860 C   0  0  0  0  0  0  0  0  0  0  0  0
    9.2970   15.2470   21.5160 C   0  0  0  0  0  0  0  0  0  0  0  0
   10.6570   15.0010   20.8540 C   0  0  1  0  0  0  0  0  0  0  0  0
   10.6630   15.5240   19.4290 C   0  0  0  0  0  0  0  0  0  0  0  0
   10.3760   16.6960   19.1770 O   0  0  0  0  0  0  0  0  0  0  0  0
   10.9500   14.6390   18.4940 N   0  0  0  0  0  0  0  0  0  0  0  0
    8.9510   12.9010   24.4560 C   0  0  0  0  0  0  0  0  0  0  0  0
    7.9570   11.8460   24.8740 C   0  0  0  0  0  0  0  0  0  0  0  0
    8.1410   10.4570   24.5770 C   0  0  0  0  0  0  0  0  0  0  0  0
    9.1590   10.0320   23.8080 N   0  0  0  0  0  0  0  0  0  0  0  0
    7.3330    9.5110   25.1000 N   0  0  0  0  0  0  0  0  0  0  0  0
    6.3540    9.8950   25.9330 C   0  0  0  0  0  0  0  0  0  0  0  0
    6.1040   11.2010   26.2620 C   0  0  0  0  0  0  0  0  0  0  0  0
    6.9070   12.1810   25.7190 C   0  0  0  0  0  0  0  0  0  0  0  0
 11  9  1  0
 10  9  2  0
  8  9  1  6
  8  6  1  0
  6  5  1  0
  5  4  1  0
  4  3  1  0
  3  2  1  0
  2  1  2  0
 12  2  1  0
 13 12  1  0
 13 19  2  0
 19 18  1  0
 18 17  2  0
 17 16  1  0
 16 14  2  0
 14 13  1  0
 15 14  1  0
  7  3  1  0
  8  7  1  0
M  END
$$$$
