XX01ZVNS2B-x4066_B_203_1_XX01ZVNS2B-x4590+B+203+1__LIG
     RDKit          3D

 27 31  0  0  0  0  0  0  0  0999 V2000
   -6.4400    5.4060  -13.0260 O   0  0  0  0  0  0  0  0  0  0  0  0
   -7.2790    4.6740  -13.5540 C   0  0  0  0  0  0  0  0  0  0  0  0
   -8.1790    3.9410  -12.8450 N   0  0  0  0  0  0  0  0  0  0  0  0
   -8.2980    3.8980  -11.4230 C   0  0  0  0  0  0  0  0  0  0  0  0
   -8.5810    2.7180  -10.7350 C   0  0  0  0  0  0  0  0  0  0  0  0
   -8.7230    2.7300   -9.3480 C   0  0  0  0  0  0  0  0  0  0  0  0
   -9.1150    1.6190   -8.4210 C   0  0  0  0  0  0  0  0  0  0  0  0
   -8.9980    2.2500   -7.1030 N   0  0  0  0  0  0  0  0  0  0  0  0
   -8.7530    3.6860   -7.1730 C   0  0  0  0  0  0  0  0  0  0  0  0
   -8.5520    3.9140   -8.6420 C   0  0  0  0  0  0  0  0  0  0  0  0
   -8.2570    5.0860   -9.3270 C   0  0  0  0  0  0  0  0  0  0  0  0
   -8.1320    5.0820  -10.7050 C   0  0  0  0  0  0  0  0  0  0  0  0
   -7.3050    4.5330  -15.0480 C   0  0  0  0  0  0  0  0  0  0  0  0
   -6.1560    4.8300  -15.8040 C   0  0  0  0  0  0  0  0  0  0  0  0
   -6.1850    4.9050  -17.2100 C   0  0  0  0  0  0  0  0  0  0  0  0
   -7.3810    4.6170  -17.8710 C   0  0  0  0  0  0  0  0  0  0  0  0
   -8.5120    4.2780  -17.1360 C   0  0  0  0  0  0  0  0  0  0  0  0
   -8.4810    4.2410  -15.7460 C   0  0  0  0  0  0  0  0  0  0  0  0
   -4.8820    5.0850  -15.4170 N   0  0  0  0  0  0  0  0  0  0  0  0
   -4.0700    5.3440  -16.4870 N   0  0  0  0  0  0  0  0  0  0  0  0
   -4.8220    5.2760  -17.5530 C   0  0  0  0  0  0  0  0  0  0  0  0
   -4.2740    5.7550  -18.8710 C   0  0  0  0  0  0  0  0  0  0  0  0
   -3.4460    4.7000  -19.6180 C   0  0  0  0  0  0  0  0  0  0  0  0
   -2.7990    5.2760  -20.8720 C   0  0  0  0  0  0  0  0  0  0  0  0
   -3.2220    6.6770  -21.1290 N   0  0  0  0  0  0  0  0  0  0  0  0
   -4.7030    6.8220  -21.1300 C   0  0  0  0  0  0  0  0  0  0  0  0
   -5.3140    6.3900  -19.8030 C   0  0  0  0  0  0  0  0  0  0  0  0
  2  1  2  0
  3  2  1  0
  4  3  1  0
  4 12  2  0
 12 11  1  0
 11 10  2  0
 10  6  1  0
  6  5  2  0
  5  4  1  0
  7  6  1  0
  8  7  1  0
  9  8  1  0
 10  9  1  0
 13  2  1  0
 13 18  2  0
 18 17  1  0
 17 16  2  0
 16 15  1  0
 15 21  1  0
 22 21  1  0
 22 27  1  0
 27 26  1  0
 26 25  1  0
 25 24  1  0
 24 23  1  0
 23 22  1  0
 21 20  2  0
 20 19  1  0
 19 14  1  0
 14 13  1  0
 15 14  2  0
M  END
$$$$
