A71EV2A-x4445_C_201_1_A71EV2A-x0911+A+147+1__LIG
     RDKit          3D

 21 22  0  0  0  0  0  0  0  0999 V2000
   10.2460   16.6790   19.3080 O   0  0  0  0  0  0  0  0  0  0  0  0
   10.5800   15.5020   19.5380 C   0  0  0  0  0  0  0  0  0  0  0  0
   10.8380   14.6230   18.5710 N   0  0  0  0  0  0  0  0  0  0  0  0
   10.7200   14.9970   20.9640 C   0  0  1  0  0  0  0  0  0  0  0  0
   11.8600   15.7240   21.7050 C   0  0  0  0  0  0  0  0  0  0  0  0
   11.9770   15.1950   23.1360 C   0  0  0  0  0  0  0  0  0  0  0  0
   10.6130   15.2750   23.8520 C   0  0  0  0  0  0  0  0  0  0  0  0
    9.4080   15.1190   21.7520 C   0  0  0  0  0  0  0  0  0  0  0  0
    9.5680   14.5560   23.1000 N   0  0  0  0  0  0  0  0  0  0  0  0
    8.7850   13.4810   23.4560 C   0  0  0  0  0  0  0  0  0  0  0  0
    7.8100   13.1410   22.7780 O   0  0  0  0  0  0  0  0  0  0  0  0
    9.1370   12.6520   24.6880 C   0  0  1  0  0  0  0  0  0  0  0  0
   10.3720   13.1670   25.4280 C   0  0  0  0  0  0  0  0  0  0  0  0
    7.9180   12.4790   25.5900 C   0  0  0  0  0  0  0  0  0  0  0  0
    7.3970   13.5790   26.2710 C   0  0  0  0  0  0  0  0  0  0  0  0
    8.0370   14.7630   26.0300 O   0  0  0  0  0  0  0  0  0  0  0  0
    7.6020   15.9240   26.7450 C   0  0  0  0  0  0  0  0  0  0  0  0
    7.2910   11.2470   25.7550 C   0  0  0  0  0  0  0  0  0  0  0  0
    6.1710   11.1210   26.5630 C   0  0  0  0  0  0  0  0  0  0  0  0
    5.6920   12.2080   27.2510 C   0  0  0  0  0  0  0  0  0  0  0  0
    6.3030   13.4430   27.1200 C   0  0  0  0  0  0  0  0  0  0  0  0
 17 16  1  0
 16 15  1  0
 15 21  2  0
 21 20  1  0
 20 19  2  0
 19 18  1  0
 18 14  2  0
 15 14  1  0
 14 12  1  0
 12 13  1  1
 12 10  1  0
 11 10  2  0
 10  9  1  0
  9  7  1  0
  7  6  1  0
  6  5  1  0
  5  4  1  0
  4  2  1  6
  3  2  1  0
  2  1  2  0
  8  4  1  0
  9  8  1  0
M  END
$$$$
