A71EV2A-x4786_A_201_1_A71EV2A-x0911+A+147+1__LIG
     RDKit          3D

 16 17  0  0  0  0  0  0  0  0999 V2000
    7.5020   12.8670   22.8040 O   0  0  0  0  0  0  0  0  0  0  0  0
    8.3410   13.4450   23.4570 C   0  0  0  0  0  0  0  0  0  0  0  0
    8.5430   13.1130   24.9160 C   0  0  1  0  0  0  0  0  0  0  0  0
    7.3040   12.3420   25.4960 C   0  0  0  0  0  0  0  0  0  0  0  0
    7.7050   10.5850   25.4980 S   0  0  0  0  0  0  0  0  0  0  0  0
    9.3130   10.7510   24.9250 C   0  0  0  0  0  0  0  0  0  0  0  0
    9.7490   12.1810   25.2110 C   0  0  0  0  0  0  0  0  0  0  0  0
    9.0780   14.4360   22.9360 N   0  0  0  0  0  0  0  0  0  0  0  0
   10.0570   15.1590   23.7500 C   0  0  0  0  0  0  0  0  0  0  0  0
   11.4420   15.0630   23.1450 C   0  0  0  0  0  0  0  0  0  0  0  0
   11.4390   15.5840   21.7160 C   0  0  0  0  0  0  0  0  0  0  0  0
    8.9990   14.9260   21.5630 C   0  0  0  0  0  0  0  0  0  0  0  0
   10.3750   14.8400   20.8900 C   0  0  1  0  0  0  0  0  0  0  0  0
   10.3060   15.3490   19.4590 C   0  0  0  0  0  0  0  0  0  0  0  0
    9.9840   16.5020   19.1880 O   0  0  0  0  0  0  0  0  0  0  0  0
   10.6040   14.4470   18.5350 N   0  0  0  0  0  0  0  0  0  0  0  0
 16 14  1  0
 15 14  2  0
 13 14  1  6
 13 11  1  0
 11 10  1  0
 10  9  1  0
  9  8  1  0
  8  2  1  0
  2  1  2  0
  3  2  1  6
  3  7  1  0
  7  6  1  0
  6  5  1  0
  5  4  1  0
  4  3  1  0
 12  8  1  0
 13 12  1  0
M  END
$$$$
