XX01ZVNS2B-x3665_B_203_1_XX01ZVNS2B-x4590+B+203+1__LIG
     RDKit          3D

 27 31  0  0  0  0  0  0  0  0999 V2000
   -6.5450    5.4170  -12.8880 O   0  0  0  0  0  0  0  0  0  0  0  0
   -7.4190    4.7530  -13.4360 C   0  0  0  0  0  0  0  0  0  0  0  0
   -7.4800    4.6510  -14.9320 C   0  0  0  0  0  0  0  0  0  0  0  0
   -6.3890    5.0600  -15.7060 C   0  0  0  0  0  0  0  0  0  0  0  0
   -6.4640    5.0140  -17.1020 C   0  0  0  0  0  0  0  0  0  0  0  0
   -5.5570    5.3520  -18.1750 C   0  0  0  0  0  0  0  0  0  0  0  0
   -4.1760    5.9440  -18.0640 C   0  0  0  0  0  0  0  0  0  0  0  0
   -4.1360    7.4160  -17.6420 C   0  0  0  0  0  0  0  0  0  0  0  0
   -2.7360    7.9540  -17.9110 C   0  0  0  0  0  0  0  0  0  0  0  0
   -1.6970    7.1480  -17.1910 N   0  0  0  0  0  0  0  0  0  0  0  0
   -1.7760    5.6820  -17.4990 C   0  0  0  0  0  0  0  0  0  0  0  0
   -3.1740    5.1350  -17.2370 C   0  0  0  0  0  0  0  0  0  0  0  0
   -6.2180    5.0600  -19.3340 C   0  0  0  0  0  0  0  0  0  0  0  0
   -7.4670    4.5760  -19.0600 N   0  0  0  0  0  0  0  0  0  0  0  0
   -7.6450    4.5380  -17.6990 C   0  0  0  0  0  0  0  0  0  0  0  0
   -8.7280    4.1160  -16.9410 C   0  0  0  0  0  0  0  0  0  0  0  0
   -8.6380    4.1820  -15.5620 C   0  0  0  0  0  0  0  0  0  0  0  0
   -8.3670    4.0700  -12.7380 N   0  0  0  0  0  0  0  0  0  0  0  0
   -8.4890    3.9910  -11.3140 C   0  0  0  0  0  0  0  0  0  0  0  0
   -8.7340    2.7880  -10.6470 C   0  0  0  0  0  0  0  0  0  0  0  0
   -8.7930    2.7550   -9.2530 C   0  0  0  0  0  0  0  0  0  0  0  0
   -9.0750    1.6020   -8.3340 C   0  0  0  0  0  0  0  0  0  0  0  0
   -8.7960    2.1710   -6.9990 N   0  0  0  0  0  0  0  0  0  0  0  0
   -8.6750    3.6350   -7.0500 C   0  0  0  0  0  0  0  0  0  0  0  0
   -8.5960    3.9170   -8.5220 C   0  0  0  0  0  0  0  0  0  0  0  0
   -8.3600    5.1160   -9.1880 C   0  0  0  0  0  0  0  0  0  0  0  0
   -8.3180    5.1570  -10.5720 C   0  0  0  0  0  0  0  0  0  0  0  0
  2  1  2  0
 18  2  1  0
 19 18  1  0
 19 27  2  0
 27 26  1  0
 26 25  2  0
 25 21  1  0
 21 20  2  0
 20 19  1  0
 22 21  1  0
 23 22  1  0
 24 23  1  0
 25 24  1  0
  3  2  1  0
  3 17  2  0
 17 16  1  0
 16 15  2  0
 15 14  1  0
 14 13  1  0
 13  6  2  0
  7  6  1  0
  7 12  1  0
 12 11  1  0
 11 10  1  0
 10  9  1  0
  9  8  1  0
  8  7  1  0
  6  5  1  0
 15  5  1  0
  5  4  2  0
  4  3  1  0
M  END
$$$$
