A71EV2A-x5079_A_201_2_A71EV2A-x0911+A+147+1__LIG
     RDKit          3D

 19 20  0  0  0  0  0  0  0  0999 V2000
    9.4090   10.0190   23.5440 Cl  0  0  0  0  0  0  0  0  0  0  0  0
    8.1180   10.4460   24.6300 C   0  0  0  0  0  0  0  0  0  0  0  0
    7.3120    9.4720   24.9900 N   0  0  0  0  0  0  0  0  0  0  0  0
    6.3670    9.7830   25.8970 C   0  0  0  0  0  0  0  0  0  0  0  0
    6.2090   11.0500   26.4390 C   0  0  0  0  0  0  0  0  0  0  0  0
    7.0630   12.0590   26.0200 C   0  0  0  0  0  0  0  0  0  0  0  0
    8.0620   11.7850   25.0930 C   0  0  0  0  0  0  0  0  0  0  0  0
    9.0760   12.8400   24.7170 C   0  0  0  0  0  0  0  0  0  0  0  0
    8.7600   13.4970   23.3850 C   0  0  0  0  0  0  0  0  0  0  0  0
    7.8380   13.1050   22.6870 O   0  0  0  0  0  0  0  0  0  0  0  0
    9.5600   14.5190   23.0070 N   0  0  0  0  0  0  0  0  0  0  0  0
   10.6160   15.1270   23.8350 C   0  0  0  0  0  0  0  0  0  0  0  0
   11.9670   15.0080   23.1480 C   0  0  0  0  0  0  0  0  0  0  0  0
   11.9050   15.5770   21.7170 C   0  0  0  0  0  0  0  0  0  0  0  0
    9.4510   15.0960   21.6640 C   0  0  0  0  0  0  0  0  0  0  0  0
   10.7770   14.9140   20.9090 C   0  0  1  0  0  0  0  0  0  0  0  0
   10.7130   15.4520   19.4890 C   0  0  0  0  0  0  0  0  0  0  0  0
   10.3340   16.6070   19.2600 O   0  0  0  0  0  0  0  0  0  0  0  0
   11.0270   14.5910   18.5250 N   0  0  0  0  0  0  0  0  0  0  0  0
 19 17  1  0
 18 17  2  0
 16 17  1  6
 16 14  1  0
 14 13  1  0
 13 12  1  0
 12 11  1  0
 11  9  1  0
 10  9  2  0
  9  8  1  0
  8  7  1  0
  7  6  2  0
  6  5  1  0
  5  4  2  0
  4  3  1  0
  3  2  2  0
  7  2  1  0
  2  1  1  0
 15 11  1  0
 16 15  1  0
M  END
$$$$
