XX01ZVNS2B-x3646_B_203_1_XX01ZVNS2B-x4590+B+203+1__LIG
     RDKit          3D

 24 27  0  0  0  0  0  0  0  0999 V2000
  -10.4350    3.7990  -17.7150 F   0  0  0  0  0  0  0  0  0  0  0  0
   -9.2040    4.0830  -17.2100 C   0  0  0  0  0  0  0  0  0  0  0  0
   -9.0440    4.0900  -15.8400 C   0  0  0  0  0  0  0  0  0  0  0  0
   -8.2050    4.3890  -18.0970 C   0  0  0  0  0  0  0  0  0  0  0  0
   -6.9760    4.7540  -17.5660 C   0  0  0  0  0  0  0  0  0  0  0  0
   -6.7430    4.8050  -16.1770 C   0  0  0  0  0  0  0  0  0  0  0  0
   -5.3940    5.2180  -16.0630 C   0  0  0  0  0  0  0  0  0  0  0  0
   -4.8450    5.4070  -17.2470 N   0  0  0  0  0  0  0  0  0  0  0  0
   -5.8150    5.1200  -18.1640 N   0  0  0  0  0  0  0  0  0  0  0  0
   -7.8030    4.4630  -15.3130 C   0  0  0  0  0  0  0  0  0  0  0  0
   -7.6300    4.5370  -13.8220 C   0  0  0  0  0  0  0  0  0  0  0  0
   -6.6490    5.0920  -13.3310 O   0  0  0  0  0  0  0  0  0  0  0  0
   -8.6040    3.9700  -13.0660 N   0  0  0  0  0  0  0  0  0  0  0  0
   -8.6440    3.9100  -11.6420 C   0  0  0  0  0  0  0  0  0  0  0  0
   -8.5920    5.1170  -10.9160 C   0  0  0  0  0  0  0  0  0  0  0  0
   -8.5900    6.3790  -11.6070 C   0  0  0  0  0  0  0  0  0  0  0  0
   -8.5800    7.3640  -12.1820 N   0  0  0  0  0  0  0  0  0  0  0  0
   -8.7330    2.7050  -10.9370 C   0  0  0  0  0  0  0  0  0  0  0  0
   -8.7930    2.7010   -9.5430 C   0  0  0  0  0  0  0  0  0  0  0  0
   -9.0480    1.5570   -8.6080 C   0  0  0  0  0  0  0  0  0  0  0  0
   -8.9510    2.2010   -7.3010 N   0  0  0  0  0  0  0  0  0  0  0  0
   -8.7890    3.6450   -7.3620 C   0  0  0  0  0  0  0  0  0  0  0  0
   -8.7080    3.8920   -8.8400 C   0  0  0  0  0  0  0  0  0  0  0  0
   -8.5970    5.0910   -9.5250 C   0  0  0  0  0  0  0  0  0  0  0  0
 17 16  3  0
 16 15  1  0
 15 24  2  0
 24 23  1  0
 23 19  2  0
 19 18  1  0
 18 14  2  0
 15 14  1  0
 14 13  1  0
 13 11  1  0
 12 11  2  0
 11 10  1  0
 10  3  1  0
  3  2  2  0
  2  1  1  0
  4  2  1  0
  5  4  2  0
  5  9  1  0
  9  8  1  0
  8  7  2  0
  7  6  1  0
 10  6  2  0
  6  5  1  0
 20 19  1  0
 21 20  1  0
 22 21  1  0
 23 22  1  0
M  END
$$$$
