A71EV2A-x3546_A_201_1_A71EV2A-x0911+A+147+1__LIG
     RDKit          3D

 21 22  0  0  0  0  0  0  0  0999 V2000
   10.4140   16.7530   19.2190 O   0  0  0  0  0  0  0  0  0  0  0  0
   10.7250   15.5760   19.4580 C   0  0  0  0  0  0  0  0  0  0  0  0
   11.0870   14.7240   18.5210 N   0  0  0  0  0  0  0  0  0  0  0  0
   10.7600   15.0430   20.8810 C   0  0  1  0  0  0  0  0  0  0  0  0
   11.9090   15.6740   21.6870 C   0  0  0  0  0  0  0  0  0  0  0  0
   11.9380   15.1890   23.1440 C   0  0  0  0  0  0  0  0  0  0  0  0
   10.5680   15.3020   23.8010 C   0  0  0  0  0  0  0  0  0  0  0  0
    9.4330   15.2410   21.6180 C   0  0  0  0  0  0  0  0  0  0  0  0
    9.5330   14.6700   22.9660 N   0  0  0  0  0  0  0  0  0  0  0  0
    8.7640   13.6240   23.3400 C   0  0  0  0  0  0  0  0  0  0  0  0
    7.8820   13.1790   22.6210 O   0  0  0  0  0  0  0  0  0  0  0  0
    9.0590   13.0370   24.7110 C   0  0  0  0  0  0  0  0  0  0  0  0
    8.0600   11.9880   25.1390 C   0  0  0  0  0  0  0  0  0  0  0  0
    8.1620   10.6770   24.6720 C   0  0  0  0  0  0  0  0  0  0  0  0
    9.1950   10.4620   23.7940 O   0  0  0  0  0  0  0  0  0  0  0  0
    9.4500    9.1220   23.3610 C   0  0  0  0  0  0  0  0  0  0  0  0
    7.0700   12.2940   26.0710 C   0  0  0  0  0  0  0  0  0  0  0  0
    6.2120   11.3070   26.4820 C   0  0  0  0  0  0  0  0  0  0  0  0
    5.1760   11.6610   27.2880 F   0  0  0  0  0  0  0  0  0  0  0  0
    6.2970   10.0130   26.0460 C   0  0  0  0  0  0  0  0  0  0  0  0
    7.2860    9.6950   25.1270 C   0  0  0  0  0  0  0  0  0  0  0  0
 16 15  1  0
 15 14  1  0
 14 21  2  0
 21 20  1  0
 20 18  2  0
 19 18  1  0
 18 17  1  0
 17 13  2  0
 14 13  1  0
 13 12  1  0
 12 10  1  0
 11 10  2  0
 10  9  1  0
  9  7  1  0
  7  6  1  0
  6  5  1  0
  5  4  1  0
  4  2  1  6
  3  2  1  0
  2  1  2  0
  8  4  1  0
  9  8  1  0
M  END
$$$$
