A71EV2A-x5221_A_201_3_A71EV2A-x0911+A+147+1__LIG
     RDKit          3D

 21 23  0  0  0  0  0  0  0  0999 V2000
    7.8390   13.3030   22.6970 O   0  0  0  0  0  0  0  0  0  0  0  0
    8.6010   13.9030   23.4410 C   0  0  0  0  0  0  0  0  0  0  0  0
    9.4200   14.8810   22.9860 N   0  0  0  0  0  0  0  0  0  0  0  0
   10.4570   15.5500   23.7880 C   0  0  0  0  0  0  0  0  0  0  0  0
   11.8240   15.3450   23.1610 C   0  0  0  0  0  0  0  0  0  0  0  0
   11.8210   15.7930   21.6880 C   0  0  0  0  0  0  0  0  0  0  0  0
    9.3490   15.3620   21.6010 C   0  0  0  0  0  0  0  0  0  0  0  0
   10.6880   15.1250   20.8870 C   0  0  1  0  0  0  0  0  0  0  0  0
   10.6920   15.5870   19.4390 C   0  0  0  0  0  0  0  0  0  0  0  0
   10.3800   16.7450   19.1330 O   0  0  0  0  0  0  0  0  0  0  0  0
   11.0580   14.6820   18.5410 N   0  0  0  0  0  0  0  0  0  0  0  0
    8.6810   13.5710   24.9220 C   0  0  0  0  0  0  0  0  0  0  0  0
    8.0850   12.2190   25.2490 C   0  0  0  0  0  0  0  0  0  0  0  0
    8.5190   11.0300   24.6390 C   0  0  0  0  0  0  0  0  0  0  0  0
    9.8000   10.8290   23.4930 S   0  0  0  0  0  0  0  0  0  0  0  0
    9.4100    9.1350   23.4560 C   0  0  0  0  0  0  0  0  0  0  0  0
    8.4370    8.7320   24.2080 N   0  0  0  0  0  0  0  0  0  0  0  0
    7.9060    9.8080   24.9140 C   0  0  0  0  0  0  0  0  0  0  0  0
    6.8550    9.7530   25.8330 C   0  0  0  0  0  0  0  0  0  0  0  0
    6.4360   10.9170   26.4620 C   0  0  0  0  0  0  0  0  0  0  0  0
    7.0390   12.1310   26.1720 C   0  0  0  0  0  0  0  0  0  0  0  0
 11  9  1  0
 10  9  2  0
  8  9  1  6
  8  6  1  0
  6  5  1  0
  5  4  1  0
  4  3  1  0
  3  2  1  0
  2  1  2  0
 12  2  1  0
 13 12  1  0
 13 21  1  0
 21 20  2  0
 20 19  1  0
 19 18  2  0
 18 17  1  0
 17 16  2  0
 16 15  1  0
 15 14  1  0
 14 13  2  0
 18 14  1  0
  7  3  1  0
  8  7  1  0
M  END
$$$$
