A71EV2A-x2290_F_301_1_A71EV2A-x0911+A+147+1__LIG
     RDKit          3D

 14 15  0  0  0  0  0  0  0  0999 V2000
   11.0400   13.9860   24.3770 O   0  0  0  0  0  0  0  0  0  0  0  0
   10.8880   13.1340   23.5180 C   0  0  0  0  0  0  0  0  0  0  0  0
   11.5040   13.1710   22.3390 N   0  0  0  0  0  0  0  0  0  0  0  0
   12.5070   14.1800   22.0440 C   0  0  0  0  0  0  0  0  0  0  0  0
    9.9980   11.9410   23.7680 C   0  0  0  0  0  0  0  0  0  0  0  0
    8.8850   11.8100   24.6670 C   0  0  0  0  0  0  0  0  0  0  0  0
    8.4980   10.4670   24.5630 C   0  0  0  0  0  0  0  0  0  0  0  0
    9.3160    9.9040   23.6260 N   0  0  0  0  0  0  0  0  0  0  0  0
    9.2010    8.5970   22.9870 C   0  0  0  0  0  0  0  0  0  0  0  0
   10.2530   10.7900   23.1620 N   0  0  0  0  0  0  0  0  0  0  0  0
    8.2100   12.6390   25.5510 C   0  0  0  0  0  0  0  0  0  0  0  0
    7.1670   12.1270   26.3040 C   0  0  0  0  0  0  0  0  0  0  0  0
    6.8050   10.7920   26.2060 C   0  0  0  0  0  0  0  0  0  0  0  0
    7.4730    9.9350   25.3380 C   0  0  0  0  0  0  0  0  0  0  0  0
  4  3  1  0
  3  2  1  0
  2  1  2  0
  5  2  1  0
  5 10  2  0
 10  8  1  0
  9  8  1  0
  8  7  1  0
  7 14  2  0
 14 13  1  0
 13 12  2  0
 12 11  1  0
 11  6  2  0
  6  5  1  0
  7  6  1  0
M  END
$$$$
