A71EV2A-x3581_A_201_1_A71EV2A-x0911+A+147+1__LIG
     RDKit          3D

 19 20  0  0  0  0  0  0  0  0999 V2000
   10.3130   16.4450   19.2000 O   0  0  0  0  0  0  0  0  0  0  0  0
   10.9120   15.3720   19.3640 C   0  0  0  0  0  0  0  0  0  0  0  0
   11.2800   14.5950   18.3590 N   0  0  0  0  0  0  0  0  0  0  0  0
   11.2020   14.8310   20.7550 C   0  0  1  0  0  0  0  0  0  0  0  0
   11.9860   15.7360   21.7240 C   0  0  0  0  0  0  0  0  0  0  0  0
   11.7510   15.0670   23.0790 C   0  0  0  0  0  0  0  0  0  0  0  0
    9.9250   14.5440   21.5550 C   0  0  0  0  0  0  0  0  0  0  0  0
   10.3870   14.5230   22.9510 N   0  0  0  0  0  0  0  0  0  0  0  0
    9.6300   14.1090   23.9930 C   0  0  0  0  0  0  0  0  0  0  0  0
   10.0140   14.2030   25.1520 O   0  0  0  0  0  0  0  0  0  0  0  0
    8.2200   13.6400   23.6650 C   0  0  0  0  0  0  0  0  0  0  0  0
    7.6760   12.5980   24.6180 C   0  0  0  0  0  0  0  0  0  0  0  0
    7.9780   11.2470   24.4330 C   0  0  0  0  0  0  0  0  0  0  0  0
    8.8870   10.9900   23.4390 O   0  0  0  0  0  0  0  0  0  0  0  0
    9.3430    9.6390   23.2840 C   0  0  0  0  0  0  0  0  0  0  0  0
    6.7740   12.9390   25.6270 C   0  0  0  0  0  0  0  0  0  0  0  0
    6.1720   11.9620   26.4080 C   0  0  0  0  0  0  0  0  0  0  0  0
    6.4610   10.6320   26.1940 C   0  0  0  0  0  0  0  0  0  0  0  0
    7.3610   10.2660   25.2020 C   0  0  0  0  0  0  0  0  0  0  0  0
 15 14  1  0
 14 13  1  0
 13 19  2  0
 19 18  1  0
 18 17  2  0
 17 16  1  0
 16 12  2  0
 13 12  1  0
 12 11  1  0
 11  9  1  0
 10  9  2  0
  9  8  1  0
  8  6  1  0
  6  5  1  0
  5  4  1  0
  4  2  1  6
  3  2  1  0
  2  1  2  0
  7  4  1  0
  8  7  1  0
M  END
$$$$
