A71EV2A-x3305_A_201_1_A71EV2A-x0911+A+147+1__LIG
     RDKit          3D

 23 26  0  0  0  0  0  0  0  0999 V2000
   15.4490   12.3240   25.2870 O   0  0  0  0  0  0  0  0  0  0  0  0
   14.9340   13.1260   26.0700 C   0  0  0  0  0  0  0  0  0  0  0  0
   15.0510   13.1080   27.4030 N   0  0  0  0  0  0  0  0  0  0  0  0
   14.1770   14.0540   28.1060 C   0  0  0  0  0  0  0  0  0  0  0  0
   13.2760   14.6080   26.9790 C   0  0  0  0  0  0  0  0  0  0  0  0
   14.0700   14.3200   25.7010 C   0  0  2  0  0  0  0  0  0  0  0  0
   13.2570   13.9670   24.5350 N   0  0  0  0  0  0  0  0  0  0  0  0
   13.2830   14.5320   23.2970 C   0  0  0  0  0  0  0  0  0  0  0  0
   12.3940   13.8400   22.5050 C   0  0  0  0  0  0  0  0  0  0  0  0
   12.3780   12.9060   24.6090 N   0  0  0  0  0  0  0  0  0  0  0  0
   11.8640   12.8300   23.3820 C   0  0  0  0  0  0  0  0  0  0  0  0
   10.9310   11.8730   23.0210 N   0  0  0  0  0  0  0  0  0  0  0  0
    9.8920   11.3440   23.8760 C   0  0  0  0  0  0  0  0  0  0  0  0
    9.5140    9.9990   23.7580 C   0  0  0  0  0  0  0  0  0  0  0  0
   10.2840    9.0340   22.8940 C   0  0  0  0  0  0  0  0  0  0  0  0
    9.2170   12.2030   24.7630 C   0  0  0  0  0  0  0  0  0  0  0  0
    9.3440   13.5380   25.2300 C   0  0  0  0  0  0  0  0  0  0  0  0
    8.4260   13.8170   26.1330 N   0  0  0  0  0  0  0  0  0  0  0  0
    7.6740   12.6880   26.2780 N   0  0  0  0  0  0  0  0  0  0  0  0
    6.5130   12.6830   27.1550 C   0  0  0  0  0  0  0  0  0  0  0  0
    8.1240   11.6830   25.4820 C   0  0  0  0  0  0  0  0  0  0  0  0
    7.7160   10.3630   25.3610 C   0  0  0  0  0  0  0  0  0  0  0  0
    8.4170    9.5460   24.4900 C   0  0  0  0  0  0  0  0  0  0  0  0
 15 14  1  0
 14 23  2  0
 23 22  1  0
 22 21  2  0
 21 16  1  0
 17 16  1  0
 18 17  2  0
 19 18  1  0
 21 19  1  0
 20 19  1  0
 16 13  2  0
 14 13  1  0
 13 12  1  0
 12 11  1  0
 11  9  1  0
  9  8  2  0
  8  7  1  0
  6  7  1  6
  6  5  1  0
  5  4  1  0
  4  3  1  0
  3  2  1  0
  6  2  1  0
  2  1  2  0
 10  7  1  0
 11 10  2  0
M  END
$$$$
