XX01ZVNS2B-x1046_B_304_1_XX01ZVNS2B-x4590+B+203+1__LIG
     RDKit          3D

 16 16  0  0  0  0  0  0  0  0999 V2000
   -4.8480    9.0720  -21.0440 O   0  0  0  0  0  0  0  0  0  0  0  0
   -3.7160    8.6640  -21.2940 C   0  0  0  0  0  0  0  0  0  0  0  0
   -2.8880    9.2500  -22.4090 C   0  0  0  0  0  0  0  0  0  0  0  0
   -3.1260    7.6510  -20.6100 N   0  0  0  0  0  0  0  0  0  0  0  0
   -3.6790    6.8380  -19.5810 C   0  0  0  0  0  0  0  0  0  0  0  0
   -2.8240    6.3500  -18.6010 C   0  0  0  0  0  0  0  0  0  0  0  0
   -3.3080    5.4860  -17.6320 C   0  0  0  0  0  0  0  0  0  0  0  0
   -4.6340    5.0800  -17.6440 C   0  0  0  0  0  0  0  0  0  0  0  0
   -5.0220    6.4610  -19.5760 C   0  0  0  0  0  0  0  0  0  0  0  0
   -5.4940    5.5540  -18.6300 C   0  0  0  0  0  0  0  0  0  0  0  0
   -6.8010    5.0260  -18.8160 N   0  0  0  0  0  0  0  0  0  0  0  0
   -7.7760    4.7400  -17.9040 C   0  0  0  0  0  0  0  0  0  0  0  0
   -8.9040    4.3430  -18.1980 O   0  0  0  0  0  0  0  0  0  0  0  0
   -7.4450    4.9680  -16.4550 C   0  0  0  0  0  0  0  0  0  0  0  0
   -8.5750    4.3190  -15.9070 O   0  0  0  0  0  0  0  0  0  0  0  0
   -8.7580    4.5900  -14.5280 C   0  0  0  0  0  0  0  0  0  0  0  0
 16 15  1  0
 15 14  1  0
 14 12  1  0
 13 12  2  0
 12 11  1  0
 11 10  1  0
 10  8  1  0
  8  7  2  0
  7  6  1  0
  6  5  2  0
  5  4  1  0
  4  2  1  0
  2  1  2  0
  3  2  1  0
  9  5  1  0
 10  9  2  0
M  END
$$$$
