A71EV2A-x4214_C_201_1_A71EV2A-x0911+A+147+1__LIG
     RDKit          3D

 20 21  0  0  0  0  0  0  0  0999 V2000
   10.2320   16.6190   19.4100 O   0  0  0  0  0  0  0  0  0  0  0  0
   10.6140   15.4630   19.6330 C   0  0  0  0  0  0  0  0  0  0  0  0
   10.8520   14.5810   18.6730 N   0  0  0  0  0  0  0  0  0  0  0  0
   10.8030   14.9580   21.0550 C   0  0  1  0  0  0  0  0  0  0  0  0
   12.1010   15.5190   21.6610 C   0  0  0  0  0  0  0  0  0  0  0  0
   12.3000   15.0430   23.0980 C   0  0  0  0  0  0  0  0  0  0  0  0
   11.0910   15.3950   23.9440 C   0  0  0  0  0  0  0  0  0  0  0  0
    9.6200   15.3510   21.9490 C   0  0  0  0  0  0  0  0  0  0  0  0
    9.8770   14.8430   23.3100 N   0  0  0  0  0  0  0  0  0  0  0  0
    8.6160   14.4720   24.2680 S   0  0  0  0  0  0  0  0  0  0  0  0
    7.4380   14.9660   23.6220 O   0  0  0  0  0  0  0  0  0  0  0  0
    8.9470   14.9090   25.5900 O   0  0  0  0  0  0  0  0  0  0  0  0
    8.5410   12.7020   24.2790 C   0  0  0  0  0  0  0  0  0  0  0  0
    7.6270   12.0310   25.0970 C   0  0  0  0  0  0  0  0  0  0  0  0
    6.7880   12.8220   25.8370 O   0  0  0  0  0  0  0  0  0  0  0  0
    5.8010   12.1810   26.6610 C   0  0  0  0  0  0  0  0  0  0  0  0
    9.4600   11.9960   23.5120 C   0  0  0  0  0  0  0  0  0  0  0  0
    9.4670   10.6120   23.5690 C   0  0  0  0  0  0  0  0  0  0  0  0
    8.5680    9.9460   24.3660 C   0  0  0  0  0  0  0  0  0  0  0  0
    7.6500   10.6450   25.1350 C   0  0  0  0  0  0  0  0  0  0  0  0
 16 15  1  0
 15 14  1  0
 14 20  2  0
 20 19  1  0
 19 18  2  0
 18 17  1  0
 17 13  2  0
 14 13  1  0
 13 10  1  0
 11 10  2  0
 12 10  2  0
 10  9  1  0
  9  7  1  0
  7  6  1  0
  6  5  1  0
  5  4  1  0
  4  2  1  6
  3  2  1  0
  2  1  2  0
  8  4  1  0
  9  8  1  0
M  END
$$$$
