XX01ZVNS2B-x4118_B_203_3_XX01ZVNS2B-x4590+B+203+1__LIG
     RDKit          3D

 29 32  0  0  0  0  0  0  0  0999 V2000
  -10.4060    4.0870  -18.1000 Cl  0  0  0  0  0  0  0  0  0  0  0  0
   -8.9910    4.3020  -17.1050 C   0  0  0  0  0  0  0  0  0  0  0  0
   -9.0870    4.0840  -15.7440 C   0  0  0  0  0  0  0  0  0  0  0  0
   -7.8010    4.6660  -17.6970 C   0  0  0  0  0  0  0  0  0  0  0  0
   -6.6610    4.8100  -16.9180 C   0  0  0  0  0  0  0  0  0  0  0  0
   -5.3320    5.1660  -17.5490 C   0  0  0  0  0  0  0  0  0  0  0  0
   -4.7510    6.5470  -17.4100 C   0  0  0  0  0  0  0  0  0  0  0  0
   -5.2570    6.0970  -18.7310 C   0  0  0  0  0  0  0  0  0  0  0  0
   -6.7610    4.5840  -15.5470 C   0  0  0  0  0  0  0  0  0  0  0  0
   -7.9580    4.2180  -14.9460 C   0  0  0  0  0  0  0  0  0  0  0  0
   -7.9820    3.7800  -13.4860 C   0  0  1  0  0  0  0  0  0  0  0  0
   -6.8710    2.7540  -13.1980 C   0  0  0  0  0  0  0  0  0  0  0  0
   -5.8150    3.2190  -12.5390 N   0  0  0  0  0  0  0  0  0  0  0  0
   -4.5620    2.4900  -12.4790 C   0  0  0  0  0  0  0  0  0  0  0  0
   -3.8820    3.1140  -13.7270 C   0  0  0  0  0  0  0  0  0  0  0  0
   -3.8310    2.1790  -14.7070 F   0  0  0  0  0  0  0  0  0  0  0  0
   -2.5990    3.3740  -13.3940 F   0  0  0  0  0  0  0  0  0  0  0  0
   -6.9500    1.6080  -13.6250 O   0  0  0  0  0  0  0  0  0  0  0  0
   -7.9630    4.9260  -12.5200 N   0  0  0  0  0  0  0  0  0  0  0  0
   -7.9970    6.2870  -13.0410 C   0  0  0  0  0  0  0  0  0  0  0  0
   -8.2070    4.7250  -11.1250 C   0  0  0  0  0  0  0  0  0  0  0  0
   -8.5040    3.4500  -10.6140 C   0  0  0  0  0  0  0  0  0  0  0  0
   -8.6750    3.2510   -9.2410 C   0  0  0  0  0  0  0  0  0  0  0  0
   -8.9990    1.9870   -8.4970 C   0  0  0  0  0  0  0  0  0  0  0  0
   -8.8120    2.3880   -7.0880 N   0  0  0  0  0  0  0  0  0  0  0  0
   -8.7750    3.8540   -6.9460 C   0  0  0  0  0  0  0  0  0  0  0  0
   -8.5680    4.3180   -8.3570 C   0  0  0  0  0  0  0  0  0  0  0  0
   -8.2950    5.5890   -8.8480 C   0  0  0  0  0  0  0  0  0  0  0  0
   -8.1140    5.7970  -10.2080 C   0  0  0  0  0  0  0  0  0  0  0  0
 20 19  1  0
 21 19  1  0
 21 29  2  0
 29 28  1  0
 28 27  2  0
 27 23  1  0
 23 22  2  0
 22 21  1  0
 24 23  1  0
 25 24  1  0
 26 25  1  0
 27 26  1  0
 11 19  1  1
 12 11  1  0
 18 12  2  0
 13 12  1  0
 14 13  1  0
 15 14  1  0
 17 15  1  0
 16 15  1  0
 11 10  1  0
 10  3  1  0
  3  2  2  0
  2  1  1  0
  4  2  1  0
  5  4  2  0
  6  5  1  0
  6  8  1  0
  8  7  1  0
  7  6  1  0
  9  5  1  0
 10  9  2  0
M  END
$$$$
