A71EV2A-x3279_A_201_1_A71EV2A-x0911+A+147+1__LIG
     RDKit          3D

 16 17  0  0  0  0  0  0  0  0999 V2000
    6.1920   10.7600   26.5970 C   0  0  0  0  0  0  0  0  0  0  0  0
    7.3720   10.9840   25.6820 C   0  0  0  0  0  0  0  0  0  0  0  0
    7.8720    9.9360   24.9150 C   0  0  0  0  0  0  0  0  0  0  0  0
    8.9370   10.1030   24.0370 C   0  0  0  0  0  0  0  0  0  0  0  0
    9.5300    8.9310   23.3000 C   0  0  0  0  0  0  0  0  0  0  0  0
    7.9830   12.2360   25.5610 C   0  0  0  0  0  0  0  0  0  0  0  0
    9.0570   12.4400   24.6870 C   0  0  0  0  0  0  0  0  0  0  0  0
    9.8390   13.7300   24.6630 C   0  0  0  0  0  0  0  0  0  0  0  0
    9.4910   11.3680   23.9180 C   0  0  0  0  0  0  0  0  0  0  0  0
    7.5140   13.3210   26.3730 N   0  0  0  0  0  0  0  0  0  0  0  0
    6.9180   14.4660   25.9120 C   0  0  0  0  0  0  0  0  0  0  0  0
    6.6780   14.6440   24.5830 N   0  0  0  0  0  0  0  0  0  0  0  0
    5.9840   15.8060   24.5590 N   0  0  0  0  0  0  0  0  0  0  0  0
    5.4860   16.3130   23.2880 C   0  0  0  0  0  0  0  0  0  0  0  0
    5.7840   16.3710   25.8300 C   0  0  0  0  0  0  0  0  0  0  0  0
    6.3660   15.5300   26.7370 C   0  0  0  0  0  0  0  0  0  0  0  0
  5  4  1  0
  4  9  1  0
  9  7  2  0
  8  7  1  0
  7  6  1  0
 10  6  1  0
 11 10  1  0
 11 16  1  0
 16 15  2  0
 15 13  1  0
 14 13  1  0
 13 12  1  0
 12 11  2  0
  6  2  2  0
  2  1  1  0
  3  2  1  0
  4  3  2  0
M  END
$$$$
