XX01ZVNS2B-x1274_B_301_1_XX01ZVNS2B-x4590+B+203+1__LIG
     RDKit          3D

 21 23  0  0  0  0  0  0  0  0999 V2000
   -8.1450    6.7390  -11.5830 C   0  0  0  0  0  0  0  0  0  0  0  0
   -8.1840    5.3620  -10.9650 C   0  0  0  0  0  0  0  0  0  0  0  0
   -8.1990    5.2270   -9.5850 C   0  0  0  0  0  0  0  0  0  0  0  0
   -8.2380    4.0350   -8.9600 N   0  0  0  0  0  0  0  0  0  0  0  0
   -8.2540    2.9440   -9.7310 C   0  0  0  0  0  0  0  0  0  0  0  0
   -8.2360    2.9740  -11.0990 C   0  0  0  0  0  0  0  0  0  0  0  0
   -8.1920    4.2010  -11.7470 C   0  0  0  0  0  0  0  0  0  0  0  0
   -8.1910    4.2730  -13.1840 N   0  0  0  0  0  0  0  0  0  0  0  0
   -7.2110    4.7490  -13.9980 C   0  0  0  0  0  0  0  0  0  0  0  0
   -6.2170    5.3100  -13.5450 O   0  0  0  0  0  0  0  0  0  0  0  0
   -7.3780    4.5520  -15.4840 C   0  0  0  0  0  0  0  0  0  0  0  0
   -8.5980    4.1430  -16.0220 C   0  0  0  0  0  0  0  0  0  0  0  0
   -8.7500    3.9600  -17.3830 C   0  0  0  0  0  0  0  0  0  0  0  0
   -7.6870    4.1790  -18.2390 C   0  0  0  0  0  0  0  0  0  0  0  0
   -6.4550    4.5940  -17.7420 C   0  0  0  0  0  0  0  0  0  0  0  0
   -5.3310    4.8010  -18.6680 C   0  0  0  0  0  0  0  0  0  0  0  0
   -5.4530    4.8310  -19.9790 N   0  0  0  0  0  0  0  0  0  0  0  0
   -4.2200    4.8910  -20.5710 C   0  0  0  0  0  0  0  0  0  0  0  0
   -3.2030    5.1480  -19.7450 C   0  0  0  0  0  0  0  0  0  0  0  0
   -3.6910    4.9610  -18.1180 S   0  0  0  0  0  0  0  0  0  0  0  0
   -6.3090    4.7690  -16.3590 C   0  0  0  0  0  0  0  0  0  0  0  0
  1  2  1  0
  2  3  2  0
  3  4  1  0
  4  5  2  0
  5  6  1  0
  6  7  2  0
  7  8  1  0
  8  9  1  0
  9 10  2  0
  9 11  1  0
 11 12  2  0
 12 13  1  0
 13 14  2  0
 14 15  1  0
 15 16  1  0
 16 17  2  0
 17 18  1  0
 18 19  2  0
 19 20  1  0
 15 21  2  0
  2  7  1  0
 11 21  1  0
 16 20  1  0
M  END
$$$$
