A71EV2A-x5288_A_201_3_A71EV2A-x0911+A+147+1__LIG
     RDKit          3D

 24 25  0  0  0  0  0  0  0  0999 V2000
   10.3290   16.6830   19.2160 O   0  0  0  0  0  0  0  0  0  0  0  0
   10.6630   15.5140   19.4400 C   0  0  0  0  0  0  0  0  0  0  0  0
   10.9940   14.6640   18.4780 N   0  0  0  0  0  0  0  0  0  0  0  0
   10.7040   14.9640   20.8550 C   0  0  1  0  0  0  0  0  0  0  0  0
   11.7740   15.6670   21.7080 C   0  0  0  0  0  0  0  0  0  0  0  0
   11.7740   15.1260   23.1470 C   0  0  0  0  0  0  0  0  0  0  0  0
   10.3880   15.2420   23.7610 C   0  0  0  0  0  0  0  0  0  0  0  0
    9.3480   15.2200   21.5220 C   0  0  0  0  0  0  0  0  0  0  0  0
    9.3650   14.6660   22.8760 N   0  0  0  0  0  0  0  0  0  0  0  0
    8.4840   13.6870   23.2330 C   0  0  0  0  0  0  0  0  0  0  0  0
    7.5740   13.3500   22.4930 O   0  0  0  0  0  0  0  0  0  0  0  0
    8.7240   13.0830   24.4180 N   0  0  0  0  0  0  0  0  0  0  0  0
    7.8090   12.1170   24.9240 C   0  0  0  0  0  0  0  0  0  0  0  0
    7.9680   10.7630   24.6120 C   0  0  0  0  0  0  0  0  0  0  0  0
    9.0240   10.4780   23.7810 O   0  0  0  0  0  0  0  0  0  0  0  0
    9.4040    9.1080   23.6170 C   0  0  0  0  0  0  0  0  0  0  0  0
    7.0770    9.8340   25.1380 C   0  0  0  0  0  0  0  0  0  0  0  0
    6.0380   10.2540   25.9620 C   0  0  0  0  0  0  0  0  0  0  0  0
    5.8750   11.5960   26.2740 C   0  0  0  0  0  0  0  0  0  0  0  0
    6.7570   12.5370   25.7510 C   0  0  0  0  0  0  0  0  0  0  0  0
    6.5240   14.2610   26.1030 S   0  0  0  0  0  0  0  0  0  0  0  0
    7.7830   14.5910   27.3600 C   0  0  0  0  0  0  0  0  0  0  0  0
    9.0850   15.2460   26.9570 C   0  0  0  0  0  0  0  0  0  0  0  0
   10.0820   15.3110   28.1010 C   0  0  0  0  0  0  0  0  0  0  0  0
 24 23  1  0
 23 22  1  0
 22 21  1  0
 21 20  1  0
 20 19  1  0
 19 18  2  0
 18 17  1  0
 17 14  2  0
 15 14  1  0
 16 15  1  0
 14 13  1  0
 20 13  2  0
 13 12  1  0
 12 10  1  0
 11 10  2  0
 10  9  1  0
  9  7  1  0
  7  6  1  0
  6  5  1  0
  5  4  1  0
  4  2  1  6
  3  2  1  0
  2  1  2  0
  8  4  1  0
  9  8  1  0
M  END
$$$$
