XX01ZVNS2B-x0777_B_301_1_XX01ZVNS2B-x0777+B+301+1_CLIG
     RDKit          3D

 15 16  0  0  0  0  0  0  0  0999 V2000
   -8.1530  -11.0820   -6.9500 O   0  0  0  0  0  0  0  0  0  0  0  0
   -8.8710  -10.3930   -7.9650 C   0  0  0  0  0  0  0  0  0  0  0  0
  -10.2280  -11.0340   -8.2990 C   0  0  1  0  0  0  0  0  0  0  0  0
  -10.8620  -10.2380   -9.4480 C   0  0  0  0  0  0  0  0  0  0  0  0
  -10.0490  -12.5060   -8.7160 C   0  0  0  0  0  0  0  0  0  0  0  0
  -11.4140  -13.1550   -8.4910 C   0  0  0  0  0  0  0  0  0  0  0  0
  -12.1650  -12.2640   -7.5000 C   0  0  0  0  0  0  0  0  0  0  0  0
  -11.1640  -11.1810   -7.0770 C   0  0  2  0  0  0  0  0  0  0  0  0
  -11.8340   -9.9450   -6.6860 N   0  0  0  0  0  0  0  0  0  0  0  0
  -12.0240   -9.5120   -5.4230 C   0  0  0  0  0  0  0  0  0  0  0  0
  -12.8230   -8.0330   -5.0310 S   0  0  0  0  0  0  0  0  0  0  0  0
  -12.6560   -8.3170   -3.3940 N   0  0  0  0  0  0  0  0  0  0  0  0
  -11.6480  -10.1750   -4.3550 N   0  0  0  0  0  0  0  0  0  0  0  0
  -12.0320   -9.4610   -3.2450 C   0  0  0  0  0  0  0  0  0  0  0  0
  -11.7770   -9.9620   -1.8680 C   0  0  0  0  0  0  0  0  0  0  0  0
 15 14  1  0
 14 12  2  0
 12 11  1  0
 11 10  1  0
 10  9  1  0
  8  9  1  6
  8  7  1  0
  7  6  1  0
  6  5  1  0
  5  3  1  0
  8  3  1  0
  3  4  1  6
  3  2  1  0
  2  1  1  0
 13 10  2  0
 14 13  1  0
M  END
$$$$
XX01ZVNS2B-x0777_B_301_1_XX01ZVNS2B-x0777+B+301+1_DLIG
     RDKit          3D

 15 16  0  0  0  0  0  0  0  0999 V2000
   -8.1580  -11.0820   -6.9490 O   0  0  0  0  0  0  0  0  0  0  0  0
   -8.8760  -10.3930   -7.9630 C   0  0  0  0  0  0  0  0  0  0  0  0
  -10.2330  -11.0330   -8.2960 C   0  0  1  0  0  0  0  0  0  0  0  0
  -10.8690  -10.2350   -9.4430 C   0  0  0  0  0  0  0  0  0  0  0  0
  -10.0540  -12.5040   -8.7170 C   0  0  0  0  0  0  0  0  0  0  0  0
  -11.4190  -13.1540   -8.4920 C   0  0  0  0  0  0  0  0  0  0  0  0
  -12.1690  -12.2660   -7.4980 C   0  0  0  0  0  0  0  0  0  0  0  0
  -11.1680  -11.1840   -7.0740 C   0  0  2  0  0  0  0  0  0  0  0  0
  -11.8400   -9.9490   -6.6810 N   0  0  0  0  0  0  0  0  0  0  0  0
  -12.0300   -9.5190   -5.4160 C   0  0  0  0  0  0  0  0  0  0  0  0
  -12.8310   -8.0420   -5.0230 S   0  0  0  0  0  0  0  0  0  0  0  0
  -12.6610   -8.3270   -3.3850 N   0  0  0  0  0  0  0  0  0  0  0  0
  -11.6510  -10.1810   -4.3510 N   0  0  0  0  0  0  0  0  0  0  0  0
  -12.0340   -9.4700   -3.2390 C   0  0  0  0  0  0  0  0  0  0  0  0
  -11.7740   -9.9690   -1.8630 C   0  0  0  0  0  0  0  0  0  0  0  0
 15 14  1  0
 14 12  2  0
 12 11  1  0
 11 10  1  0
 10  9  1  0
  8  9  1  6
  8  7  1  0
  7  6  1  0
  6  5  1  0
  5  3  1  0
  8  3  1  0
  3  4  1  6
  3  2  1  0
  2  1  1  0
 13 10  2  0
 14 13  1  0
M  END
$$$$
