A71EV2A-x4751_A_201_1_A71EV2A-x0911+A+147+1__LIG
     RDKit          3D

 19 20  0  0  0  0  0  0  0  0999 V2000
   10.0310   16.5550   18.7310 F   0  0  0  0  0  0  0  0  0  0  0  0
   10.8250   15.5330   18.9940 C   0  0  0  0  0  0  0  0  0  0  0  0
   10.6650   14.8250   20.4190 C   0  0  1  0  0  0  0  0  0  0  0  0
   11.9340   15.1170   21.2050 C   0  0  0  0  0  0  0  0  0  0  0  0
   11.9270   14.5030   22.5950 C   0  0  0  0  0  0  0  0  0  0  0  0
   10.7290   14.9810   23.3860 C   0  0  0  0  0  0  0  0  0  0  0  0
    9.4540   15.1770   21.2790 C   0  0  0  0  0  0  0  0  0  0  0  0
    9.5240   14.6330   22.6400 N   0  0  0  0  0  0  0  0  0  0  0  0
    8.5770   13.8210   23.1730 C   0  0  0  0  0  0  0  0  0  0  0  0
    7.6410   13.4990   22.5470 O   0  0  0  0  0  0  0  0  0  0  0  0
    8.6590   13.2910   24.5970 C   0  0  0  0  0  0  0  0  0  0  0  0
    7.6650   12.1740   24.8830 C   0  0  0  0  0  0  0  0  0  0  0  0
    7.8940   10.8510   24.4780 C   0  0  0  0  0  0  0  0  0  0  0  0
    9.2510   10.6030   23.3720 S   0  0  0  0  0  0  0  0  0  0  0  0
    9.2800    8.7460   23.1140 C   0  0  0  0  0  0  0  0  0  0  0  0
    6.5500   12.4320   25.6800 C   0  0  0  0  0  0  0  0  0  0  0  0
    5.7120   11.4090   26.0800 C   0  0  0  0  0  0  0  0  0  0  0  0
    5.9910   10.1090   25.7420 C   0  0  0  0  0  0  0  0  0  0  0  0
    7.0790    9.8160   24.9360 C   0  0  0  0  0  0  0  0  0  0  0  0
 15 14  1  0
 14 13  1  0
 13 19  2  0
 19 18  1  0
 18 17  2  0
 17 16  1  0
 16 12  2  0
 13 12  1  0
 12 11  1  0
 11  9  1  0
 10  9  2  0
  9  8  1  0
  8  6  1  0
  6  5  1  0
  5  4  1  0
  4  3  1  0
  3  2  1  6
  2  1  1  0
  7  3  1  0
  8  7  1  0
M  END
$$$$
