XX01ZVNS2B-x5236_B_203_6_XX01ZVNS2B-x4590+B+203+1__LIG
     RDKit          3D

 29 33  0  0  0  0  0  0  0  0999 V2000
   -9.4380    3.7130  -18.0800 Cl  0  0  0  0  0  0  0  0  0  0  0  0
   -8.1880    4.2720  -17.0060 C   0  0  0  0  0  0  0  0  0  0  0  0
   -6.9730    4.7110  -17.5330 C   0  0  0  0  0  0  0  0  0  0  0  0
   -5.9410    5.1510  -16.6790 C   0  0  0  0  0  0  0  0  0  0  0  0
   -4.8280    5.4920  -17.5230 C   0  0  0  0  0  0  0  0  0  0  0  0
   -6.5060    4.7840  -18.8340 N   0  0  0  0  0  0  0  0  0  0  0  0
   -5.1980    5.2480  -18.8210 C   0  0  0  0  0  0  0  0  0  0  0  0
   -4.4050    5.4430  -20.0490 C   0  0  0  0  0  0  0  0  0  0  0  0
   -5.0320    5.8690  -21.2230 C   0  0  0  0  0  0  0  0  0  0  0  0
   -4.4010    6.1200  -22.3750 N   0  0  0  0  0  0  0  0  0  0  0  0
   -3.0840    5.9400  -22.3900 C   0  0  0  0  0  0  0  0  0  0  0  0
   -2.3620    5.5120  -21.2960 C   0  0  0  0  0  0  0  0  0  0  0  0
   -3.0100    5.2490  -20.0930 C   0  0  0  0  0  0  0  0  0  0  0  0
   -2.1980    4.7940  -18.9060 C   0  0  0  0  0  0  0  0  0  0  0  0
   -8.3990    4.2640  -15.6360 C   0  0  0  0  0  0  0  0  0  0  0  0
   -7.3840    4.6920  -14.7740 C   0  0  0  0  0  0  0  0  0  0  0  0
   -6.1700    5.1320  -15.2970 C   0  0  0  0  0  0  0  0  0  0  0  0
   -7.4300    4.7840  -13.2770 C   0  0  0  0  0  0  0  0  0  0  0  0
   -6.6770    5.5480  -12.6740 O   0  0  0  0  0  0  0  0  0  0  0  0
   -8.3250    3.9830  -12.6380 N   0  0  0  0  0  0  0  0  0  0  0  0
   -8.5190    3.9450  -11.2280 C   0  0  0  0  0  0  0  0  0  0  0  0
   -8.7150    2.7390  -10.5570 C   0  0  0  0  0  0  0  0  0  0  0  0
   -8.8300    2.7160   -9.1660 C   0  0  0  0  0  0  0  0  0  0  0  0
   -9.1270    1.5710   -8.2410 C   0  0  0  0  0  0  0  0  0  0  0  0
   -8.8110    2.1520   -6.9260 N   0  0  0  0  0  0  0  0  0  0  0  0
   -8.8640    3.6230   -6.9720 C   0  0  0  0  0  0  0  0  0  0  0  0
   -8.7170    3.8980   -8.4410 C   0  0  0  0  0  0  0  0  0  0  0  0
   -8.5360    5.1050   -9.1110 C   0  0  0  0  0  0  0  0  0  0  0  0
   -8.4510    5.1330  -10.4960 C   0  0  0  0  0  0  0  0  0  0  0  0
 14 13  1  0
 13 12  1  0
 12 11  2  0
 11 10  1  0
 10  9  2  0
  9  8  1  0
 13  8  2  0
  8  7  1  0
  7  5  2  0
  5  4  1  0
  4 17  1  0
 17 16  2  0
 18 16  1  0
 19 18  2  0
 20 18  1  0
 21 20  1  0
 21 29  2  0
 29 28  1  0
 28 27  2  0
 27 23  1  0
 23 22  2  0
 22 21  1  0
 24 23  1  0
 25 24  1  0
 26 25  1  0
 27 26  1  0
 16 15  1  0
 15  2  2  0
  2  1  1  0
  3  2  1  0
  4  3  2  0
  6  3  1  0
  7  6  1  0
M  END
$$$$
