XX01ZVNS2B-x3729_B_203_1_XX01ZVNS2B-x4590+B+203+1__LIG
     RDKit          3D

 21 24  0  0  0  0  0  0  0  0999 V2000
   -6.5150    5.3060  -12.8210 O   0  0  0  0  0  0  0  0  0  0  0  0
   -7.3630    4.6120  -13.3790 C   0  0  0  0  0  0  0  0  0  0  0  0
   -7.4250    4.5300  -14.8750 C   0  0  0  0  0  0  0  0  0  0  0  0
   -8.5950    4.1960  -15.5590 C   0  0  0  0  0  0  0  0  0  0  0  0
   -8.6050    4.1790  -16.9610 C   0  0  0  0  0  0  0  0  0  0  0  0
   -9.5910    3.8710  -17.9580 C   0  0  0  0  0  0  0  0  0  0  0  0
   -8.9840    3.9930  -19.1670 C   0  0  0  0  0  0  0  0  0  0  0  0
   -7.6710    4.3590  -18.9990 N   0  0  0  0  0  0  0  0  0  0  0  0
   -7.4190    4.4990  -17.6530 C   0  0  0  0  0  0  0  0  0  0  0  0
   -6.2540    4.8570  -16.9830 C   0  0  0  0  0  0  0  0  0  0  0  0
   -6.2620    4.8570  -15.5960 C   0  0  0  0  0  0  0  0  0  0  0  0
   -8.2920    3.9030  -12.6930 N   0  0  0  0  0  0  0  0  0  0  0  0
   -8.4550    3.8820  -11.2770 C   0  0  0  0  0  0  0  0  0  0  0  0
   -8.6640    2.6870  -10.5890 C   0  0  0  0  0  0  0  0  0  0  0  0
   -8.7590    2.6850   -9.1940 C   0  0  0  0  0  0  0  0  0  0  0  0
   -9.0730    1.5490   -8.2660 C   0  0  0  0  0  0  0  0  0  0  0  0
   -8.8700    2.1610   -6.9410 N   0  0  0  0  0  0  0  0  0  0  0  0
   -8.8200    3.6310   -7.0150 C   0  0  0  0  0  0  0  0  0  0  0  0
   -8.6450    3.8720   -8.4860 C   0  0  0  0  0  0  0  0  0  0  0  0
   -8.4430    5.0650   -9.1760 C   0  0  0  0  0  0  0  0  0  0  0  0
   -8.3560    5.0730  -10.5610 C   0  0  0  0  0  0  0  0  0  0  0  0
  2  1  2  0
 12  2  1  0
 13 12  1  0
 13 21  2  0
 21 20  1  0
 20 19  2  0
 19 15  1  0
 15 14  2  0
 14 13  1  0
 16 15  1  0
 17 16  1  0
 18 17  1  0
 19 18  1  0
  3  2  1  0
  3 11  2  0
 11 10  1  0
 10  9  2  0
  9  8  1  0
  8  7  1  0
  7  6  2  0
  6  5  1  0
  9  5  1  0
  5  4  2  0
  4  3  1  0
M  END
$$$$
