A71EV2A-x5599_A_201_5_A71EV2A-x0911+A+147+1__LIG
     RDKit          3D

 22 24  0  0  0  0  0  0  0  0999 V2000
   10.3610   16.7360   19.1810 O   0  0  0  0  0  0  0  0  0  0  0  0
   10.6750   15.5690   19.4130 C   0  0  0  0  0  0  0  0  0  0  0  0
   10.9710   14.7010   18.4580 N   0  0  0  0  0  0  0  0  0  0  0  0
   10.6830   15.0280   20.8330 C   0  0  1  0  0  0  0  0  0  0  0  0
   11.7490   15.7180   21.7030 C   0  0  0  0  0  0  0  0  0  0  0  0
   11.7220   15.1530   23.1320 C   0  0  0  0  0  0  0  0  0  0  0  0
   10.3250   15.2880   23.7430 C   0  0  0  0  0  0  0  0  0  0  0  0
    9.3110   15.3160   21.4600 C   0  0  0  0  0  0  0  0  0  0  0  0
    9.2720   14.7990   22.8310 N   0  0  0  0  0  0  0  0  0  0  0  0
    8.4480   13.7700   23.1250 C   0  0  0  0  0  0  0  0  0  0  0  0
    7.5970   13.3340   22.3920 O   0  0  0  0  0  0  0  0  0  0  0  0
    8.6240   13.3510   24.4030 O   0  0  0  0  0  0  0  0  0  0  0  0
    7.8950   12.2290   24.7800 C   0  0  0  0  0  0  0  0  0  0  0  0
    6.7800   12.3680   25.6040 C   0  0  0  0  0  0  0  0  0  0  0  0
    6.2930   13.7180   26.0690 C   0  0  0  0  0  0  0  0  0  0  0  0
    8.3720   10.9940   24.3650 C   0  0  0  0  0  0  0  0  0  0  0  0
    9.5950   10.6570   23.5540 C   0  0  0  0  0  0  0  0  0  0  0  0
    9.7390    9.1540   23.7240 C   0  0  0  0  0  0  0  0  0  0  0  0
    8.3700    8.6410   24.1750 C   0  0  0  0  0  0  0  0  0  0  0  0
    7.7170    9.8530   24.7830 C   0  0  0  0  0  0  0  0  0  0  0  0
    6.6090    9.9500   25.6200 C   0  0  0  0  0  0  0  0  0  0  0  0
    6.1510   11.1950   26.0210 C   0  0  0  0  0  0  0  0  0  0  0  0
 15 14  1  0
 14 22  2  0
 22 21  1  0
 21 20  2  0
 20 16  1  0
 16 13  2  0
 14 13  1  0
 13 12  1  0
 12 10  1  0
 11 10  2  0
 10  9  1  0
  9  7  1  0
  7  6  1  0
  6  5  1  0
  5  4  1  0
  4  2  1  6
  3  2  1  0
  2  1  2  0
  8  4  1  0
  9  8  1  0
 17 16  1  0
 18 17  1  0
 19 18  1  0
 20 19  1  0
M  END
$$$$
