XX01ZVNS2B-x3647_B_203_1_XX01ZVNS2B-x4590+B+203+1__LIG
     RDKit          3D

 30 34  0  0  0  0  0  0  0  0999 V2000
  -10.4600    3.8540  -17.6110 F   0  0  0  0  0  0  0  0  0  0  0  0
   -9.2180    4.1470  -17.1430 C   0  0  0  0  0  0  0  0  0  0  0  0
   -9.0420    4.2560  -15.7810 C   0  0  0  0  0  0  0  0  0  0  0  0
   -8.2160    4.3410  -18.0600 C   0  0  0  0  0  0  0  0  0  0  0  0
   -6.9650    4.6840  -17.5660 C   0  0  0  0  0  0  0  0  0  0  0  0
   -6.7160    4.8270  -16.1870 C   0  0  0  0  0  0  0  0  0  0  0  0
   -5.3560    5.2090  -16.1160 C   0  0  0  0  0  0  0  0  0  0  0  0
   -4.8120    5.2900  -17.3150 N   0  0  0  0  0  0  0  0  0  0  0  0
   -5.7980    4.9640  -18.1990 N   0  0  0  0  0  0  0  0  0  0  0  0
   -7.7770    4.5930  -15.2940 C   0  0  0  0  0  0  0  0  0  0  0  0
   -7.5590    4.6820  -13.8090 C   0  0  0  0  0  0  0  0  0  0  0  0
   -6.5310    5.1800  -13.3570 O   0  0  0  0  0  0  0  0  0  0  0  0
   -8.5390    4.1660  -13.0230 N   0  0  0  0  0  0  0  0  0  0  0  0
   -8.5550    4.1180  -11.6040 C   0  0  0  0  0  0  0  0  0  0  0  0
   -8.2720    5.2690  -10.8690 C   0  0  0  0  0  0  0  0  0  0  0  0
   -8.3040    5.2370   -9.4740 C   0  0  0  0  0  0  0  0  0  0  0  0
   -7.9560    6.4920   -8.7480 C   0  0  0  0  0  0  0  0  0  0  0  0
   -8.7600    7.6900   -9.1910 C   0  0  0  0  0  0  0  0  0  0  0  0
   -8.8440    8.8210   -8.1550 C   0  0  0  0  0  0  0  0  0  0  0  0
   -7.2540    9.2500   -7.5150 S   0  0  0  0  0  0  0  0  0  0  0  0
   -6.4010    9.6630   -8.5980 O   0  0  0  0  0  0  0  0  0  0  0  0
   -7.4190   10.1480   -6.4020 O   0  0  0  0  0  0  0  0  0  0  0  0
   -6.6800    7.6910   -6.9080 C   0  0  0  0  0  0  0  0  0  0  0  0
   -7.0220    6.5190   -7.7630 C   0  0  0  0  0  0  0  0  0  0  0  0
   -8.6330    4.0450   -8.8110 C   0  0  0  0  0  0  0  0  0  0  0  0
   -8.8120    3.7860   -7.3450 C   0  0  0  0  0  0  0  0  0  0  0  0
   -8.9280    2.3380   -7.3210 N   0  0  0  0  0  0  0  0  0  0  0  0
   -9.1990    1.7530   -8.6250 C   0  0  0  0  0  0  0  0  0  0  0  0
   -8.8970    2.8980   -9.5460 C   0  0  0  0  0  0  0  0  0  0  0  0
   -8.8570    2.9330  -10.9370 C   0  0  0  0  0  0  0  0  0  0  0  0
 12 11  2  0
 13 11  1  0
 14 13  1  0
 14 30  2  0
 30 29  1  0
 29 25  2  0
 25 16  1  0
 17 16  1  0
 17 24  2  0
 24 23  1  0
 23 20  1  0
 21 20  2  0
 22 20  2  0
 20 19  1  0
 19 18  1  0
 18 17  1  0
 16 15  2  0
 15 14  1  0
 26 25  1  0
 27 26  1  0
 28 27  1  0
 29 28  1  0
 11 10  1  0
 10  3  1  0
  3  2  2  0
  2  1  1  0
  4  2  1  0
  5  4  2  0
  5  9  1  0
  9  8  1  0
  8  7  2  0
  7  6  1  0
 10  6  2  0
  6  5  1  0
M  END
$$$$
