XX01ZVNS2B-x0229_B_301_1_XX01ZVNS2B-x4590+B+203+1__LIG
     RDKit          3D

 15 17  0  0  0  0  0  0  0  0999 V2000
   -3.4970    5.1440  -17.3680 O   0  0  0  0  0  0  0  0  0  0  0  0
   -4.6920    5.3790  -17.5050 C   0  0  0  0  0  0  0  0  0  0  0  0
   -5.2450    5.7250  -18.8740 C   0  0  1  0  0  0  0  0  0  0  0  0
   -5.6310    7.2170  -18.8720 C   0  0  0  0  0  0  0  0  0  0  0  0
   -5.0360    7.7770  -20.1360 C   0  0  0  0  0  0  0  0  0  0  0  0
   -3.8330    6.8850  -20.3900 C   0  0  0  0  0  0  0  0  0  0  0  0
   -4.2300    5.5850  -19.9350 N   0  0  0  0  0  0  0  0  0  0  0  0
   -6.4480    4.8310  -19.2010 C   0  0  0  0  0  0  0  0  0  0  0  0
   -7.4190    4.8030  -18.0400 C   0  0  0  0  0  0  0  0  0  0  0  0
   -8.7670    4.5190  -18.2340 C   0  0  0  0  0  0  0  0  0  0  0  0
   -9.6210    4.3790  -17.1560 C   0  0  0  0  0  0  0  0  0  0  0  0
   -9.1510    4.5540  -15.8660 C   0  0  0  0  0  0  0  0  0  0  0  0
   -7.8220    4.8630  -15.6420 C   0  0  0  0  0  0  0  0  0  0  0  0
   -6.9500    4.9700  -16.7290 C   0  0  0  0  0  0  0  0  0  0  0  0
   -5.5850    5.1740  -16.5200 N   0  0  0  0  0  0  0  0  0  0  0  0
  2  1  2  0
  2 15  1  0
 15 14  1  0
 14  9  2  0
 10  9  1  0
 11 10  2  0
 12 11  1  0
 13 12  2  0
 14 13  1  0
  9  8  1  0
  3  8  1  6
  3  2  1  0
  3  7  1  0
  7  6  1  0
  6  5  1  0
  5  4  1  0
  4  3  1  0
M  END
$$$$
