A71EV2A-x4350_A_201_1_A71EV2A-x0911+A+147+1__LIG
     RDKit          3D

 19 20  0  0  0  0  0  0  0  0999 V2000
   10.4790   16.7580   19.2200 O   0  0  0  0  0  0  0  0  0  0  0  0
   10.7690   15.5770   19.4340 C   0  0  0  0  0  0  0  0  0  0  0  0
   11.0700   14.7260   18.4670 N   0  0  0  0  0  0  0  0  0  0  0  0
   10.8130   15.0230   20.8490 C   0  0  1  0  0  0  0  0  0  0  0  0
   11.9160   15.6980   21.6850 C   0  0  0  0  0  0  0  0  0  0  0  0
   11.9260   15.1980   23.1330 C   0  0  0  0  0  0  0  0  0  0  0  0
   10.5540   15.3440   23.7620 C   0  0  0  0  0  0  0  0  0  0  0  0
    9.4690   15.2220   21.5530 C   0  0  0  0  0  0  0  0  0  0  0  0
    9.5370   14.6940   22.9200 N   0  0  0  0  0  0  0  0  0  0  0  0
    8.7310   13.6860   23.3130 C   0  0  0  0  0  0  0  0  0  0  0  0
    7.8590   13.2380   22.5880 O   0  0  0  0  0  0  0  0  0  0  0  0
    8.9510   13.1270   24.7050 C   0  0  0  0  0  0  0  0  0  0  0  0
    8.7030   11.6360   24.7230 C   0  0  0  0  0  0  0  0  0  0  0  0
    7.6540   11.0680   25.4530 C   0  0  0  0  0  0  0  0  0  0  0  0
    6.7530   11.8870   26.3440 C   0  0  0  0  0  0  0  0  0  0  0  0
    9.4730   10.8110   23.9090 C   0  0  0  0  0  0  0  0  0  0  0  0
    9.1670    9.4700   23.8330 C   0  0  0  0  0  0  0  0  0  0  0  0
    8.1620    8.9060   24.5120 N   0  0  0  0  0  0  0  0  0  0  0  0
    7.4370    9.7070   25.3030 C   0  0  0  0  0  0  0  0  0  0  0  0
 15 14  1  0
 14 19  2  0
 19 18  1  0
 18 17  2  0
 17 16  1  0
 16 13  2  0
 14 13  1  0
 13 12  1  0
 12 10  1  0
 11 10  2  0
 10  9  1  0
  9  7  1  0
  7  6  1  0
  6  5  1  0
  5  4  1  0
  4  2  1  6
  3  2  1  0
  2  1  2  0
  8  4  1  0
  9  8  1  0
M  END
$$$$
