A71EV2A-x4880_C_201_1_A71EV2A-x0911+A+147+1__LIG
     RDKit          3D

 20 22  0  0  0  0  0  0  0  0999 V2000
   11.5440   14.9030   24.9960 O   0  0  0  0  0  0  0  0  0  0  0  0
   11.4000   15.0780   23.7990 C   0  0  0  0  0  0  0  0  0  0  0  0
   12.6010   15.3960   22.9550 C   0  0  0  0  0  0  0  0  0  0  0  0
   12.2840   15.8800   21.5530 C   0  0  0  0  0  0  0  0  0  0  0  0
   10.1990   15.0030   23.2050 N   0  0  0  0  0  0  0  0  0  0  0  0
    9.9400   15.2450   21.7860 C   0  0  0  0  0  0  0  0  0  0  0  0
   11.1910   15.0140   20.9360 C   0  0  1  0  0  0  0  0  0  0  0  0
   10.8780   15.4790   19.5240 C   0  0  0  0  0  0  0  0  0  0  0  0
   10.4440   16.6110   19.3170 O   0  0  0  0  0  0  0  0  0  0  0  0
   11.0960   14.6070   18.5650 N   0  0  0  0  0  0  0  0  0  0  0  0
    9.0140   14.7160   24.0280 C   0  0  0  0  0  0  0  0  0  0  0  0
    8.7370   13.2450   24.2350 C   0  0  0  0  0  0  0  0  0  0  0  0
    7.6330   12.8280   24.9750 C   0  0  0  0  0  0  0  0  0  0  0  0
    7.3060   11.4790   25.0780 C   0  0  0  0  0  0  0  0  0  0  0  0
    8.1160   10.5440   24.4160 C   0  0  0  0  0  0  0  0  0  0  0  0
    9.2290   10.9320   23.6890 C   0  0  0  0  0  0  0  0  0  0  0  0
    9.5310   12.2840   23.6180 C   0  0  0  0  0  0  0  0  0  0  0  0
    6.2680   10.7330   25.7270 C   0  0  0  0  0  0  0  0  0  0  0  0
    6.4770    9.4260   25.4350 C   0  0  0  0  0  0  0  0  0  0  0  0
    7.5880    9.2980   24.6420 N   0  0  0  0  0  0  0  0  0  0  0  0
 10  8  1  0
  9  8  2  0
  7  8  1  6
  7  4  1  0
  4  3  1  0
  3  2  1  0
  2  1  2  0
  5  2  1  0
 11  5  1  0
 12 11  1  0
 12 17  2  0
 17 16  1  0
 16 15  2  0
 15 20  1  0
 20 19  1  0
 19 18  2  0
 18 14  1  0
 15 14  1  0
 14 13  2  0
 13 12  1  0
  6  5  1  0
  7  6  1  0
M  END
$$$$
