A71EV2A-x3986_A_201_1_A71EV2A-x0911+A+147+1__LIG
     RDKit          3D

 25 27  0  0  0  0  0  0  0  0999 V2000
    7.3230   13.3780   22.4450 O   0  0  0  0  0  0  0  0  0  0  0  0
    8.0690   13.9320   23.2300 C   0  0  0  0  0  0  0  0  0  0  0  0
    8.9320   14.8920   22.8350 N   0  0  0  0  0  0  0  0  0  0  0  0
    9.8940   15.5850   23.7110 C   0  0  0  0  0  0  0  0  0  0  0  0
   11.3270   15.3610   23.2480 C   0  0  0  0  0  0  0  0  0  0  0  0
   11.4870   15.7130   21.7630 C   0  0  0  0  0  0  0  0  0  0  0  0
    9.0010   15.3160   21.4360 C   0  0  0  0  0  0  0  0  0  0  0  0
   10.4070   15.0410   20.9020 C   0  0  1  0  0  0  0  0  0  0  0  0
   10.5170   15.4460   19.4430 C   0  0  0  0  0  0  0  0  0  0  0  0
   10.8670   14.6300   18.5800 O   0  0  0  0  0  0  0  0  0  0  0  0
   10.2170   16.7010   19.1590 N   0  0  0  0  0  0  0  0  0  0  0  0
    8.1710   13.4640   24.6840 C   0  0  2  0  0  0  0  0  0  0  0  0
    8.5190   11.9990   24.5660 C   0  0  0  0  0  0  0  0  0  0  0  0
    9.6420   11.6120   23.8510 C   0  0  0  0  0  0  0  0  0  0  0  0
    9.9070   10.2750   23.6190 C   0  0  0  0  0  0  0  0  0  0  0  0
    9.0640    9.3140   24.1040 C   0  0  0  0  0  0  0  0  0  0  0  0
    7.9510    9.6800   24.8260 C   0  0  0  0  0  0  0  0  0  0  0  0
    7.6860   11.0150   25.0710 C   0  0  0  0  0  0  0  0  0  0  0  0
    6.9220   13.8950   25.9750 S   0  0  0  0  0  0  0  0  0  0  0  0
    5.3900   13.9910   25.0810 C   0  0  0  0  0  0  0  0  0  0  0  0
    5.1810   14.8470   24.0090 C   0  0  0  0  0  0  0  0  0  0  0  0
    3.8940   15.0840   23.5500 C   0  0  0  0  0  0  0  0  0  0  0  0
    2.8180   14.4690   24.1480 C   0  0  0  0  0  0  0  0  0  0  0  0
    3.0220   13.6090   25.2050 C   0  0  0  0  0  0  0  0  0  0  0  0
    4.3040   13.3570   25.6680 C   0  0  0  0  0  0  0  0  0  0  0  0
 11  9  1  0
 10  9  2  0
  8  9  1  6
  8  6  1  0
  6  5  1  0
  5  4  1  0
  4  3  1  0
  3  2  1  0
  2  1  2  0
 12  2  1  0
 12 19  1  6
 20 19  1  0
 20 25  2  0
 25 24  1  0
 24 23  2  0
 23 22  1  0
 22 21  2  0
 21 20  1  0
 13 12  1  0
 13 18  2  0
 18 17  1  0
 17 16  2  0
 16 15  1  0
 15 14  2  0
 14 13  1  0
  7  3  1  0
  8  7  1  0
M  END
$$$$
