XX01ZVNS2B-x1597_W_201_1_XX01ZVNS2B-x4590+B+203+1__LIG
     RDKit          3D

 21 22  0  0  0  0  0  0  0  0999 V2000
   -4.1900    6.4750  -21.0290 C   0  0  0  0  0  0  0  0  0  0  0  0
   -4.0890    5.2320  -20.2020 C   0  0  0  0  0  0  0  0  0  0  0  0
   -4.8430    5.3200  -18.8940 C   0  0  0  0  0  0  0  0  0  0  0  0
   -4.2760    5.4160  -17.8120 O   0  0  0  0  0  0  0  0  0  0  0  0
   -6.1890    5.2950  -19.0270 N   0  0  0  0  0  0  0  0  0  0  0  0
   -7.1340    4.8450  -18.0790 C   0  0  0  0  0  0  0  0  0  0  0  0
   -8.2670    4.1410  -18.4720 C   0  0  0  0  0  0  0  0  0  0  0  0
   -9.1920    3.7030  -17.6100 N   0  0  0  0  0  0  0  0  0  0  0  0
   -9.0030    3.9620  -16.3110 C   0  0  0  0  0  0  0  0  0  0  0  0
   -7.9120    4.6610  -15.8110 C   0  0  0  0  0  0  0  0  0  0  0  0
   -7.6790    4.9570  -14.3570 C   0  0  0  0  0  0  0  0  0  0  0  0
   -6.7010    5.6150  -14.0160 O   0  0  0  0  0  0  0  0  0  0  0  0
   -8.5730    4.4660  -13.4670 N   0  0  0  0  0  0  0  0  0  0  0  0
   -8.3880    4.3590  -12.0580 C   0  0  0  0  0  0  0  0  0  0  0  0
   -8.2920    3.1190  -11.4430 C   0  0  0  0  0  0  0  0  0  0  0  0
   -8.1170    3.0720  -10.0850 C   0  0  0  0  0  0  0  0  0  0  0  0
   -8.0320    4.1520   -9.3040 N   0  0  0  0  0  0  0  0  0  0  0  0
   -8.1230    5.3530   -9.8990 C   0  0  0  0  0  0  0  0  0  0  0  0
   -8.3010    5.5100  -11.2660 C   0  0  0  0  0  0  0  0  0  0  0  0
   -8.4010    6.8960  -11.8580 C   0  0  0  0  0  0  0  0  0  0  0  0
   -6.9650    5.1150  -16.7210 C   0  0  0  0  0  0  0  0  0  0  0  0
  1  2  1  0
  2  3  1  0
  3  4  2  0
  3  5  1  0
  5  6  1  0
  6  7  2  0
  7  8  1  0
  8  9  2  0
  9 10  1  0
 10 11  1  0
 11 12  2  0
 11 13  1  0
 13 14  1  0
 14 15  2  0
 15 16  1  0
 16 17  2  0
 17 18  1  0
 18 19  2  0
 19 20  1  0
 10 21  2  0
  6 21  1  0
 14 19  1  0
M  END
$$$$
