XX01ZVNS2B-x0089_B_301_1_XX01ZVNS2B-x4590+B+203+1__LIG
     RDKit          3D

 13 14  0  0  0  0  0  0  0  0999 V2000
   -1.9020    4.2350  -19.4510 C   0  0  0  0  0  0  0  0  0  0  0  0
   -2.8600    5.2770  -18.9090 C   0  0  0  0  0  0  0  0  0  0  0  0
   -2.3230    6.6800  -19.0920 C   0  0  0  0  0  0  0  0  0  0  0  0
   -4.1560    5.1610  -19.5830 N   0  0  0  0  0  0  0  0  0  0  0  0
   -5.3370    4.9910  -18.9240 C   0  0  0  0  0  0  0  0  0  0  0  0
   -6.5190    4.7700  -19.5490 N   0  0  0  0  0  0  0  0  0  0  0  0
   -7.4660    4.5670  -18.5470 C   0  0  0  0  0  0  0  0  0  0  0  0
   -6.7770    4.7020  -17.3450 C   0  0  0  0  0  0  0  0  0  0  0  0
   -5.4330    4.9680  -17.6040 N   0  0  0  0  0  0  0  0  0  0  0  0
   -8.8130    4.2320  -18.5820 C   0  0  0  0  0  0  0  0  0  0  0  0
   -9.4640    4.0240  -17.3720 C   0  0  0  0  0  0  0  0  0  0  0  0
   -8.7900    4.1710  -16.1670 C   0  0  0  0  0  0  0  0  0  0  0  0
   -7.4480    4.5140  -16.1360 C   0  0  0  0  0  0  0  0  0  0  0  0
  3  2  1  0
  2  1  1  0
  4  2  1  0
  5  4  1  0
  5  9  2  0
  9  8  1  0
  8 13  2  0
 13 12  1  0
 12 11  2  0
 11 10  1  0
 10  7  2  0
  8  7  1  0
  7  6  1  0
  6  5  1  0
M  END
$$$$
