A71EV2A-x4684_A_201_1_A71EV2A-x0911+A+147+1__LIG
     RDKit          3D

 20 21  0  0  0  0  0  0  0  0999 V2000
   10.2620   16.5080   19.3010 O   0  0  0  0  0  0  0  0  0  0  0  0
   10.8280   15.4250   19.4770 C   0  0  0  0  0  0  0  0  0  0  0  0
   11.2290   14.6490   18.4780 N   0  0  0  0  0  0  0  0  0  0  0  0
   11.0230   14.8640   20.8760 C   0  0  1  0  0  0  0  0  0  0  0  0
   11.7810   15.8000   21.8370 C   0  0  0  0  0  0  0  0  0  0  0  0
   11.4140   15.2530   23.2140 C   0  0  0  0  0  0  0  0  0  0  0  0
    9.6810   14.6830   21.6040 C   0  0  0  0  0  0  0  0  0  0  0  0
   10.0400   14.7740   23.0250 N   0  0  0  0  0  0  0  0  0  0  0  0
    9.3940   14.1840   24.0770 C   0  0  0  0  0  0  0  0  0  0  0  0
    9.9420   14.0640   25.1690 O   0  0  0  0  0  0  0  0  0  0  0  0
    8.0990   13.7450   23.8900 N   0  0  0  0  0  0  0  0  0  0  0  0
    7.1820   14.5580   23.0920 C   0  0  0  0  0  0  0  0  0  0  0  0
    7.5130   12.6990   24.6800 C   0  0  0  0  0  0  0  0  0  0  0  0
    7.9190   11.3700   24.5430 C   0  0  0  0  0  0  0  0  0  0  0  0
    9.1620   11.0540   23.3250 S   0  0  0  0  0  0  0  0  0  0  0  0
    9.2560    9.2470   23.2770 C   0  0  0  0  0  0  0  0  0  0  0  0
    6.5450   13.0350   25.6260 C   0  0  0  0  0  0  0  0  0  0  0  0
    5.9730   12.0350   26.4010 C   0  0  0  0  0  0  0  0  0  0  0  0
    6.3550   10.7190   26.2380 C   0  0  0  0  0  0  0  0  0  0  0  0
    7.3310   10.3780   25.3160 C   0  0  0  0  0  0  0  0  0  0  0  0
 16 15  1  0
 15 14  1  0
 14 20  2  0
 20 19  1  0
 19 18  2  0
 18 17  1  0
 17 13  2  0
 14 13  1  0
 13 11  1  0
 12 11  1  0
 11  9  1  0
 10  9  2  0
  9  8  1  0
  8  6  1  0
  6  5  1  0
  5  4  1  0
  4  2  1  6
  3  2  1  0
  2  1  2  0
  7  4  1  0
  8  7  1  0
M  END
$$$$
