A71EV2A-x3993_C_201_1_A71EV2A-x0911+A+147+1__LIG
     RDKit          3D

 27 29  0  0  0  0  0  0  0  0999 V2000
   13.2730   17.3400   24.2270 O   0  0  0  0  0  0  0  0  0  0  0  0
   12.9960   16.1470   24.1460 C   0  0  0  0  0  0  0  0  0  0  0  0
   13.6180   15.2200   24.8910 N   0  0  0  0  0  0  0  0  0  0  0  0
   14.6160   15.5780   25.9030 C   0  0  0  0  0  0  0  0  0  0  0  0
   14.8840   14.6270   27.0150 C   0  0  0  0  0  0  0  0  0  0  0  0
   14.1530   15.9010   27.2780 C   0  0  0  0  0  0  0  0  0  0  0  0
   11.8410   15.6650   23.2800 C   0  0  1  0  0  0  0  0  0  0  0  0
   12.1880   15.5730   21.7930 C   0  0  0  0  0  0  0  0  0  0  0  0
   10.8530   15.6170   21.0400 C   0  0  1  0  0  0  0  0  0  0  0  0
   10.9260   15.7970   19.5350 C   0  0  0  0  0  0  0  0  0  0  0  0
   10.5040   16.8270   19.0110 O   0  0  0  0  0  0  0  0  0  0  0  0
   11.3440   14.7500   18.8310 N   0  0  0  0  0  0  0  0  0  0  0  0
    9.9780   14.4230   21.4190 C   0  0  0  0  0  0  0  0  0  0  0  0
   11.0770   14.4130   23.6890 C   0  0  0  0  0  0  0  0  0  0  0  0
    9.8800   14.1870   22.8630 N   0  0  0  0  0  0  0  0  0  0  0  0
    8.8200   13.4800   23.3170 C   0  0  0  0  0  0  0  0  0  0  0  0
    7.8420   13.2310   22.6150 O   0  0  0  0  0  0  0  0  0  0  0  0
    8.9790   12.9130   24.7170 C   0  0  0  0  0  0  0  0  0  0  0  0
    7.9570   11.8700   25.0860 C   0  0  0  0  0  0  0  0  0  0  0  0
    8.1230   10.5460   24.6550 C   0  0  0  0  0  0  0  0  0  0  0  0
    9.1770   10.3480   23.8010 O   0  0  0  0  0  0  0  0  0  0  0  0
    9.4400    9.0210   23.3410 C   0  0  0  0  0  0  0  0  0  0  0  0
    6.9330   12.1320   25.9840 C   0  0  0  0  0  0  0  0  0  0  0  0
    6.7120   13.7700   26.5220 Cl  0  0  0  0  0  0  0  0  0  0  0  0
    6.1010   11.1440   26.4720 C   0  0  0  0  0  0  0  0  0  0  0  0
    6.2780    9.8450   26.0380 C   0  0  0  0  0  0  0  0  0  0  0  0
    7.2810    9.5390   25.1250 C   0  0  0  0  0  0  0  0  0  0  0  0
 22 21  1  0
 21 20  1  0
 20 27  2  0
 27 26  1  0
 26 25  2  0
 25 23  1  0
 24 23  1  0
 23 19  2  0
 20 19  1  0
 19 18  1  0
 18 16  1  0
 17 16  2  0
 16 15  1  0
 15 13  1  0
 13  9  1  0
  9 10  1  6
 12 10  1  0
 11 10  2  0
  9  8  1  0
  8  7  1  0
  7  2  1  1
  2  1  2  0
  3  2  1  0
  4  3  1  0
  4  6  1  0
  6  5  1  0
  5  4  1  0
 14  7  1  0
 15 14  1  0
M  END
$$$$
